default_name
  -OEChem-02102213163D

 31 30  0     1  0  0  0  0  0999 V2000
   -3.5895   -3.5013    1.1082 H   0  0  0  0  0  0  0  0  0  0  0  0
   -3.5145   -2.5363    0.6082 C   0  0  0  0  0  0  0  0  0  0  0  0
   -4.2285   -1.8413    1.0452 H   0  0  0  0  0  0  0  0  0  0  0  0
   -3.7155   -2.6583   -0.4538 H   0  0  0  0  0  0  0  0  0  0  0  0
   -2.1155   -1.9963    0.7922 C   0  0  0  0  0  0  0  0  0  0  0  0
   -1.2875   -2.6383    1.4252 O   0  0  0  0  0  0  0  0  0  0  0  0
   -1.8575   -0.8123    0.2402 N   0  0  0  0  0  0  0  0  0  0  0  0
   -2.6005   -0.3333   -0.2478 H   0  0  0  0  0  0  0  0  0  0  0  0
   -0.5675   -0.1203    0.3102 C   0  0  1  0  0  0  0  0  0  0  0  0
    0.0191   -0.5718    1.1110 H   0  0  0  0  0  0  0  0  0  0  0  0
    0.1724   -0.3238   -1.0286 C   0  0  0  0  0  0  0  0  0  0  0  0
    0.2886   -1.3952   -1.2033 H   0  0  0  0  0  0  0  0  0  0  0  0
   -0.4581    0.0748   -1.8264 H   0  0  0  0  0  0  0  0  0  0  0  0
    1.5576    0.3399   -1.1357 C   0  0  0  0  0  0  0  0  0  0  0  0
    2.2094   -0.0395   -0.3487 H   0  0  0  0  0  0  0  0  0  0  0  0
    2.2177    0.0869   -2.4942 C   0  0  0  0  0  0  0  0  0  0  0  0
    1.5692    0.4471   -3.2940 H   0  0  0  0  0  0  0  0  0  0  0  0
    3.1707    0.6142   -2.5432 H   0  0  0  0  0  0  0  0  0  0  0  0
    2.4041   -0.9751   -2.6389 H   0  0  0  0  0  0  0  0  0  0  0  0
    1.4219    1.8507   -0.9502 C   0  0  0  0  0  0  0  0  0  0  0  0
    0.9829    2.0625    0.0247 H   0  0  0  0  0  0  0  0  0  0  0  0
    2.4046    2.3198   -0.9980 H   0  0  0  0  0  0  0  0  0  0  0  0
    0.7849    2.2692   -1.7303 H   0  0  0  0  0  0  0  0  0  0  0  0
   -0.7793    1.3659    0.6455 C   0  0  0  0  0  0  0  0  0  0  0  0
   -1.6464    2.0125    0.0623 O   0  0  0  0  0  0  0  0  0  0  0  0
    0.0189    1.9059    1.5756 N   0  0  0  0  0  0  0  0  0  0  0  0
    0.7024    1.3094    2.0137 H   0  0  0  0  0  0  0  0  0  0  0  0
   -0.0451    3.3046    1.9929 C   0  0  0  0  0  0  0  0  0  0  0  0
   -1.0415    3.5286    2.3805 H   0  0  0  0  0  0  0  0  0  0  0  0
    0.6954    3.5023    2.7695 H   0  0  0  0  0  0  0  0  0  0  0  0
    0.1474    3.9536    1.1372 H   0  0  0  0  0  0  0  0  0  0  0  0
  5  6  2  0  0  0  0
  5  7  1  0  0  0  0
  2  3  1  0  0  0  0
  2  4  1  0  0  0  0
  2  5  1  0  0  0  0
  1  2  1  0  0  0  0
 24 25  2  0  0  0  0
 24 26  1  0  0  0  0
 20 21  1  0  0  0  0
 20 22  1  0  0  0  0
 20 23  1  0  0  0  0
 16 17  1  0  0  0  0
 16 18  1  0  0  0  0
 16 19  1  0  0  0  0
 14 15  1  0  0  0  0
 14 16  1  0  0  0  0
 14 20  1  0  0  0  0
 11 12  1  0  0  0  0
 11 13  1  0  0  0  0
 11 14  1  0  0  0  0
  9 10  1  0  0  0  0
  9 11  1  0  0  0  0
  9 24  1  0  0  0  0
  7  8  1  0  0  0  0
  7  9  1  0  0  0  0
 28 29  1  0  0  0  0
 28 30  1  0  0  0  0
 28 31  1  0  0  0  0
 26 27  1  0  0  0  0
 26 28  1  0  0  0  0
M  END
$$$$
default_name
  -OEChem-02102213163D

 31 30  0     1  0  0  0  0  0999 V2000
   -3.5895   -3.5013    1.1082 H   0  0  0  0  0  0  0  0  0  0  0  0
   -3.5145   -2.5363    0.6082 C   0  0  0  0  0  0  0  0  0  0  0  0
   -4.2285   -1.8413    1.0452 H   0  0  0  0  0  0  0  0  0  0  0  0
   -3.7155   -2.6583   -0.4538 H   0  0  0  0  0  0  0  0  0  0  0  0
   -2.1155   -1.9963    0.7922 C   0  0  0  0  0  0  0  0  0  0  0  0
   -1.2875   -2.6383    1.4252 O   0  0  0  0  0  0  0  0  0  0  0  0
   -1.8575   -0.8123    0.2402 N   0  0  0  0  0  0  0  0  0  0  0  0
   -2.6005   -0.3333   -0.2478 H   0  0  0  0  0  0  0  0  0  0  0  0
   -0.5675   -0.1203    0.3102 C   0  0  1  0  0  0  0  0  0  0  0  0
    0.0191   -0.5718    1.1110 H   0  0  0  0  0  0  0  0  0  0  0  0
    0.1724   -0.3238   -1.0286 C   0  0  0  0  0  0  0  0  0  0  0  0
    0.2886   -1.3952   -1.2033 H   0  0  0  0  0  0  0  0  0  0  0  0
   -0.4581    0.0748   -1.8264 H   0  0  0  0  0  0  0  0  0  0  0  0
    1.5576    0.3399   -1.1357 C   0  0  0  0  0  0  0  0  0  0  0  0
    2.2795   -0.2161   -0.5375 H   0  0  0  0  0  0  0  0  0  0  0  0
    2.0569    0.4085   -2.5818 C   0  0  0  0  0  0  0  0  0  0  0  0
    1.3363    0.9488   -3.1973 H   0  0  0  0  0  0  0  0  0  0  0  0
    3.0148    0.9280   -2.6153 H   0  0  0  0  0  0  0  0  0  0  0  0
    2.1931   -0.5911   -2.9890 H   0  0  0  0  0  0  0  0  0  0  0  0
    1.4902    1.7661   -0.5908 C   0  0  0  0  0  0  0  0  0  0  0  0
    1.1674    1.7460    0.4500 H   0  0  0  0  0  0  0  0  0  0  0  0
    2.4760    2.2287   -0.6400 H   0  0  0  0  0  0  0  0  0  0  0  0
    0.7851    2.3585   -1.1750 H   0  0  0  0  0  0  0  0  0  0  0  0
   -0.7793    1.3659    0.6455 C   0  0  0  0  0  0  0  0  0  0  0  0
   -1.6464    2.0125    0.0623 O   0  0  0  0  0  0  0  0  0  0  0  0
    0.0189    1.9059    1.5756 N   0  0  0  0  0  0  0  0  0  0  0  0
    0.7024    1.3094    2.0137 H   0  0  0  0  0  0  0  0  0  0  0  0
   -0.0451    3.3046    1.9929 C   0  0  0  0  0  0  0  0  0  0  0  0
   -1.0415    3.5286    2.3805 H   0  0  0  0  0  0  0  0  0  0  0  0
    0.6954    3.5023    2.7695 H   0  0  0  0  0  0  0  0  0  0  0  0
    0.1474    3.9536    1.1372 H   0  0  0  0  0  0  0  0  0  0  0  0
  5  6  2  0  0  0  0
  5  7  1  0  0  0  0
  2  3  1  0  0  0  0
  2  4  1  0  0  0  0
  2  5  1  0  0  0  0
  1  2  1  0  0  0  0
 24 25  2  0  0  0  0
 24 26  1  0  0  0  0
 20 21  1  0  0  0  0
 20 22  1  0  0  0  0
 20 23  1  0  0  0  0
 16 17  1  0  0  0  0
 16 18  1  0  0  0  0
 16 19  1  0  0  0  0
 14 15  1  0  0  0  0
 14 16  1  0  0  0  0
 14 20  1  0  0  0  0
 11 12  1  0  0  0  0
 11 13  1  0  0  0  0
 11 14  1  0  0  0  0
  9 10  1  0  0  0  0
  9 11  1  0  0  0  0
  9 24  1  0  0  0  0
  7  8  1  0  0  0  0
  7  9  1  0  0  0  0
 28 29  1  0  0  0  0
 28 30  1  0  0  0  0
 28 31  1  0  0  0  0
 26 27  1  0  0  0  0
 26 28  1  0  0  0  0
M  END
$$$$
default_name
  -OEChem-02102213163D

 31 30  0     1  0  0  0  0  0999 V2000
   -3.5895   -3.5013    1.1082 H   0  0  0  0  0  0  0  0  0  0  0  0
   -3.5145   -2.5363    0.6082 C   0  0  0  0  0  0  0  0  0  0  0  0
   -4.2285   -1.8413    1.0452 H   0  0  0  0  0  0  0  0  0  0  0  0
   -3.7155   -2.6583   -0.4538 H   0  0  0  0  0  0  0  0  0  0  0  0
   -2.1155   -1.9963    0.7922 C   0  0  0  0  0  0  0  0  0  0  0  0
   -1.2875   -2.6383    1.4252 O   0  0  0  0  0  0  0  0  0  0  0  0
   -1.8575   -0.8123    0.2402 N   0  0  0  0  0  0  0  0  0  0  0  0
   -2.6005   -0.3333   -0.2478 H   0  0  0  0  0  0  0  0  0  0  0  0
   -0.5675   -0.1203    0.3102 C   0  0  1  0  0  0  0  0  0  0  0  0
    0.0191   -0.5718    1.1110 H   0  0  0  0  0  0  0  0  0  0  0  0
    0.1724   -0.3238   -1.0286 C   0  0  0  0  0  0  0  0  0  0  0  0
    0.2886   -1.3952   -1.2033 H   0  0  0  0  0  0  0  0  0  0  0  0
   -0.4581    0.0748   -1.8264 H   0  0  0  0  0  0  0  0  0  0  0  0
    1.5576    0.3399   -1.1357 C   0  0  0  0  0  0  0  0  0  0  0  0
    2.3229   -0.3441   -0.7688 H   0  0  0  0  0  0  0  0  0  0  0  0
    1.8975    0.7424   -2.5737 C   0  0  0  0  0  0  0  0  0  0  0  0
    1.1312    1.4151   -2.9611 H   0  0  0  0  0  0  0  0  0  0  0  0
    2.8617    1.2507   -2.5945 H   0  0  0  0  0  0  0  0  0  0  0  0
    1.9571   -0.1349   -3.2143 H   0  0  0  0  0  0  0  0  0  0  0  0
    1.5948    1.5994   -0.2710 C   0  0  0  0  0  0  0  0  0  0  0  0
    1.3874    1.3381    0.7666 H   0  0  0  0  0  0  0  0  0  0  0  0
    2.5832    2.0559   -0.3234 H   0  0  0  0  0  0  0  0  0  0  0  0
    0.8489    2.3153   -0.6179 H   0  0  0  0  0  0  0  0  0  0  0  0
   -0.7793    1.3659    0.6455 C   0  0  0  0  0  0  0  0  0  0  0  0
   -1.6464    2.0125    0.0623 O   0  0  0  0  0  0  0  0  0  0  0  0
    0.0189    1.9059    1.5756 N   0  0  0  0  0  0  0  0  0  0  0  0
    0.7024    1.3094    2.0137 H   0  0  0  0  0  0  0  0  0  0  0  0
   -0.0451    3.3046    1.9929 C   0  0  0  0  0  0  0  0  0  0  0  0
   -1.0415    3.5286    2.3805 H   0  0  0  0  0  0  0  0  0  0  0  0
    0.6954    3.5023    2.7695 H   0  0  0  0  0  0  0  0  0  0  0  0
    0.1474    3.9536    1.1372 H   0  0  0  0  0  0  0  0  0  0  0  0
  5  6  2  0  0  0  0
  5  7  1  0  0  0  0
  2  3  1  0  0  0  0
  2  4  1  0  0  0  0
  2  5  1  0  0  0  0
  1  2  1  0  0  0  0
 24 25  2  0  0  0  0
 24 26  1  0  0  0  0
 20 21  1  0  0  0  0
 20 22  1  0  0  0  0
 20 23  1  0  0  0  0
 16 17  1  0  0  0  0
 16 18  1  0  0  0  0
 16 19  1  0  0  0  0
 14 15  1  0  0  0  0
 14 16  1  0  0  0  0
 14 20  1  0  0  0  0
 11 12  1  0  0  0  0
 11 13  1  0  0  0  0
 11 14  1  0  0  0  0
  9 10  1  0  0  0  0
  9 11  1  0  0  0  0
  9 24  1  0  0  0  0
  7  8  1  0  0  0  0
  7  9  1  0  0  0  0
 28 29  1  0  0  0  0
 28 30  1  0  0  0  0
 28 31  1  0  0  0  0
 26 27  1  0  0  0  0
 26 28  1  0  0  0  0
M  END
$$$$
default_name
  -OEChem-02102213163D

 31 30  0     1  0  0  0  0  0999 V2000
   -3.5895   -3.5013    1.1082 H   0  0  0  0  0  0  0  0  0  0  0  0
   -3.5145   -2.5363    0.6082 C   0  0  0  0  0  0  0  0  0  0  0  0
   -4.2285   -1.8413    1.0452 H   0  0  0  0  0  0  0  0  0  0  0  0
   -3.7155   -2.6583   -0.4538 H   0  0  0  0  0  0  0  0  0  0  0  0
   -2.1155   -1.9963    0.7922 C   0  0  0  0  0  0  0  0  0  0  0  0
   -1.2875   -2.6383    1.4252 O   0  0  0  0  0  0  0  0  0  0  0  0
   -1.8575   -0.8123    0.2402 N   0  0  0  0  0  0  0  0  0  0  0  0
   -2.6005   -0.3333   -0.2478 H   0  0  0  0  0  0  0  0  0  0  0  0
   -0.5675   -0.1203    0.3102 C   0  0  1  0  0  0  0  0  0  0  0  0
    0.0191   -0.5718    1.1110 H   0  0  0  0  0  0  0  0  0  0  0  0
    0.1724   -0.3238   -1.0286 C   0  0  0  0  0  0  0  0  0  0  0  0
    0.2886   -1.3952   -1.2033 H   0  0  0  0  0  0  0  0  0  0  0  0
   -0.4581    0.0748   -1.8264 H   0  0  0  0  0  0  0  0  0  0  0  0
    1.5576    0.3399   -1.1357 C   0  0  0  0  0  0  0  0  0  0  0  0
    2.3367   -0.4146   -1.0268 H   0  0  0  0  0  0  0  0  0  0  0  0
    1.7505    1.0659   -2.4703 C   0  0  0  0  0  0  0  0  0  0  0  0
    0.9677    1.8142   -2.6015 H   0  0  0  0  0  0  0  0  0  0  0  0
    2.7221    1.5603   -2.4821 H   0  0  0  0  0  0  0  0  0  0  0  0
    1.7122    0.3625   -3.2993 H   0  0  0  0  0  0  0  0  0  0  0  0
    1.7285    1.3620   -0.0126 C   0  0  0  0  0  0  0  0  0  0  0  0
    1.6278    0.8663    0.9528 H   0  0  0  0  0  0  0  0  0  0  0  0
    2.7190    1.8134   -0.0697 H   0  0  0  0  0  0  0  0  0  0  0  0
    0.9718    2.1428   -0.0969 H   0  0  0  0  0  0  0  0  0  0  0  0
   -0.7793    1.3659    0.6455 C   0  0  0  0  0  0  0  0  0  0  0  0
   -1.6464    2.0125    0.0623 O   0  0  0  0  0  0  0  0  0  0  0  0
    0.0189    1.9059    1.5756 N   0  0  0  0  0  0  0  0  0  0  0  0
    0.7024    1.3094    2.0137 H   0  0  0  0  0  0  0  0  0  0  0  0
   -0.0451    3.3046    1.9929 C   0  0  0  0  0  0  0  0  0  0  0  0
   -1.0415    3.5286    2.3805 H   0  0  0  0  0  0  0  0  0  0  0  0
    0.6954    3.5023    2.7695 H   0  0  0  0  0  0  0  0  0  0  0  0
    0.1474    3.9536    1.1372 H   0  0  0  0  0  0  0  0  0  0  0  0
  5  6  2  0  0  0  0
  5  7  1  0  0  0  0
  2  3  1  0  0  0  0
  2  4  1  0  0  0  0
  2  5  1  0  0  0  0
  1  2  1  0  0  0  0
 24 25  2  0  0  0  0
 24 26  1  0  0  0  0
 20 21  1  0  0  0  0
 20 22  1  0  0  0  0
 20 23  1  0  0  0  0
 16 17  1  0  0  0  0
 16 18  1  0  0  0  0
 16 19  1  0  0  0  0
 14 15  1  0  0  0  0
 14 16  1  0  0  0  0
 14 20  1  0  0  0  0
 11 12  1  0  0  0  0
 11 13  1  0  0  0  0
 11 14  1  0  0  0  0
  9 10  1  0  0  0  0
  9 11  1  0  0  0  0
  9 24  1  0  0  0  0
  7  8  1  0  0  0  0
  7  9  1  0  0  0  0
 28 29  1  0  0  0  0
 28 30  1  0  0  0  0
 28 31  1  0  0  0  0
 26 27  1  0  0  0  0
 26 28  1  0  0  0  0
M  END
$$$$
default_name
  -OEChem-02102213163D

 31 30  0     1  0  0  0  0  0999 V2000
   -3.5895   -3.5013    1.1082 H   0  0  0  0  0  0  0  0  0  0  0  0
   -3.5145   -2.5363    0.6082 C   0  0  0  0  0  0  0  0  0  0  0  0
   -4.2285   -1.8413    1.0452 H   0  0  0  0  0  0  0  0  0  0  0  0
   -3.7155   -2.6583   -0.4538 H   0  0  0  0  0  0  0  0  0  0  0  0
   -2.1155   -1.9963    0.7922 C   0  0  0  0  0  0  0  0  0  0  0  0
   -1.2875   -2.6383    1.4252 O   0  0  0  0  0  0  0  0  0  0  0  0
   -1.8575   -0.8123    0.2402 N   0  0  0  0  0  0  0  0  0  0  0  0
   -2.6005   -0.3333   -0.2478 H   0  0  0  0  0  0  0  0  0  0  0  0
   -0.5675   -0.1203    0.3102 C   0  0  1  0  0  0  0  0  0  0  0  0
    0.0191   -0.5718    1.1110 H   0  0  0  0  0  0  0  0  0  0  0  0
    0.1724   -0.3238   -1.0286 C   0  0  0  0  0  0  0  0  0  0  0  0
    0.2886   -1.3952   -1.2033 H   0  0  0  0  0  0  0  0  0  0  0  0
   -0.4581    0.0748   -1.8264 H   0  0  0  0  0  0  0  0  0  0  0  0
    1.5576    0.3399   -1.1357 C   0  0  0  0  0  0  0  0  0  0  0  0
    2.3200   -0.4229   -1.2940 H   0  0  0  0  0  0  0  0  0  0  0  0
    1.6259    1.3569   -2.2786 C   0  0  0  0  0  0  0  0  0  0  0  0
    0.8572    2.1189   -2.1429 H   0  0  0  0  0  0  0  0  0  0  0  0
    2.6053    1.8358   -2.2859 H   0  0  0  0  0  0  0  0  0  0  0  0
    1.4751    0.8671   -3.2382 H   0  0  0  0  0  0  0  0  0  0  0  0
    1.8822    1.0702    0.1668 C   0  0  0  0  0  0  0  0  0  0  0  0
    1.8724    0.3629    0.9961 H   0  0  0  0  0  0  0  0  0  0  0  0
    2.8741    1.5177    0.1037 H   0  0  0  0  0  0  0  0  0  0  0  0
    1.1456    1.8527    0.3524 H   0  0  0  0  0  0  0  0  0  0  0  0
   -0.7793    1.3659    0.6455 C   0  0  0  0  0  0  0  0  0  0  0  0
   -1.6464    2.0125    0.0623 O   0  0  0  0  0  0  0  0  0  0  0  0
    0.0189    1.9059    1.5756 N   0  0  0  0  0  0  0  0  0  0  0  0
    0.7024    1.3094    2.0137 H   0  0  0  0  0  0  0  0  0  0  0  0
   -0.0451    3.3046    1.9929 C   0  0  0  0  0  0  0  0  0  0  0  0
   -1.0415    3.5286    2.3805 H   0  0  0  0  0  0  0  0  0  0  0  0
    0.6954    3.5023    2.7695 H   0  0  0  0  0  0  0  0  0  0  0  0
    0.1474    3.9536    1.1372 H   0  0  0  0  0  0  0  0  0  0  0  0
  5  6  2  0  0  0  0
  5  7  1  0  0  0  0
  2  3  1  0  0  0  0
  2  4  1  0  0  0  0
  2  5  1  0  0  0  0
  1  2  1  0  0  0  0
 24 25  2  0  0  0  0
 24 26  1  0  0  0  0
 20 21  1  0  0  0  0
 20 22  1  0  0  0  0
 20 23  1  0  0  0  0
 16 17  1  0  0  0  0
 16 18  1  0  0  0  0
 16 19  1  0  0  0  0
 14 15  1  0  0  0  0
 14 16  1  0  0  0  0
 14 20  1  0  0  0  0
 11 12  1  0  0  0  0
 11 13  1  0  0  0  0
 11 14  1  0  0  0  0
  9 10  1  0  0  0  0
  9 11  1  0  0  0  0
  9 24  1  0  0  0  0
  7  8  1  0  0  0  0
  7  9  1  0  0  0  0
 28 29  1  0  0  0  0
 28 30  1  0  0  0  0
 28 31  1  0  0  0  0
 26 27  1  0  0  0  0
 26 28  1  0  0  0  0
M  END
$$$$
default_name
  -OEChem-02102213163D

 31 30  0     1  0  0  0  0  0999 V2000
   -3.5895   -3.5013    1.1082 H   0  0  0  0  0  0  0  0  0  0  0  0
   -3.5145   -2.5363    0.6082 C   0  0  0  0  0  0  0  0  0  0  0  0
   -4.2285   -1.8413    1.0452 H   0  0  0  0  0  0  0  0  0  0  0  0
   -3.7155   -2.6583   -0.4538 H   0  0  0  0  0  0  0  0  0  0  0  0
   -2.1155   -1.9963    0.7922 C   0  0  0  0  0  0  0  0  0  0  0  0
   -1.2875   -2.6383    1.4252 O   0  0  0  0  0  0  0  0  0  0  0  0
   -1.8575   -0.8123    0.2402 N   0  0  0  0  0  0  0  0  0  0  0  0
   -2.6005   -0.3333   -0.2478 H   0  0  0  0  0  0  0  0  0  0  0  0
   -0.5675   -0.1203    0.3102 C   0  0  1  0  0  0  0  0  0  0  0  0
    0.0191   -0.5718    1.1110 H   0  0  0  0  0  0  0  0  0  0  0  0
    0.1724   -0.3238   -1.0286 C   0  0  0  0  0  0  0  0  0  0  0  0
    0.2886   -1.3952   -1.2033 H   0  0  0  0  0  0  0  0  0  0  0  0
   -0.4581    0.0748   -1.8264 H   0  0  0  0  0  0  0  0  0  0  0  0
    1.5576    0.3399   -1.1357 C   0  0  0  0  0  0  0  0  0  0  0  0
    2.2739   -0.3683   -1.5521 H   0  0  0  0  0  0  0  0  0  0  0  0
    1.5321    1.5956   -2.0119 C   0  0  0  0  0  0  0  0  0  0  0  0
    0.8071    2.3085   -1.6167 H   0  0  0  0  0  0  0  0  0  0  0  0
    2.5193    2.0583   -2.0193 H   0  0  0  0  0  0  0  0  0  0  0  0
    1.2620    1.3446   -3.0354 H   0  0  0  0  0  0  0  0  0  0  0  0
    2.0455    0.7438    0.2551 C   0  0  0  0  0  0  0  0  0  0  0  0
    2.1043   -0.1378    0.8933 H   0  0  0  0  0  0  0  0  0  0  0  0
    3.0380    1.1889    0.1850 H   0  0  0  0  0  0  0  0  0  0  0  0
    1.3583    1.4646    0.6995 H   0  0  0  0  0  0  0  0  0  0  0  0
   -0.7793    1.3659    0.6455 C   0  0  0  0  0  0  0  0  0  0  0  0
   -1.6464    2.0125    0.0623 O   0  0  0  0  0  0  0  0  0  0  0  0
    0.0189    1.9059    1.5756 N   0  0  0  0  0  0  0  0  0  0  0  0
    0.7024    1.3094    2.0137 H   0  0  0  0  0  0  0  0  0  0  0  0
   -0.0451    3.3046    1.9929 C   0  0  0  0  0  0  0  0  0  0  0  0
   -1.0415    3.5286    2.3805 H   0  0  0  0  0  0  0  0  0  0  0  0
    0.6954    3.5023    2.7695 H   0  0  0  0  0  0  0  0  0  0  0  0
    0.1474    3.9536    1.1372 H   0  0  0  0  0  0  0  0  0  0  0  0
  5  6  2  0  0  0  0
  5  7  1  0  0  0  0
  2  3  1  0  0  0  0
  2  4  1  0  0  0  0
  2  5  1  0  0  0  0
  1  2  1  0  0  0  0
 24 25  2  0  0  0  0
 24 26  1  0  0  0  0
 20 21  1  0  0  0  0
 20 22  1  0  0  0  0
 20 23  1  0  0  0  0
 16 17  1  0  0  0  0
 16 18  1  0  0  0  0
 16 19  1  0  0  0  0
 14 15  1  0  0  0  0
 14 16  1  0  0  0  0
 14 20  1  0  0  0  0
 11 12  1  0  0  0  0
 11 13  1  0  0  0  0
 11 14  1  0  0  0  0
  9 10  1  0  0  0  0
  9 11  1  0  0  0  0
  9 24  1  0  0  0  0
  7  8  1  0  0  0  0
  7  9  1  0  0  0  0
 28 29  1  0  0  0  0
 28 30  1  0  0  0  0
 28 31  1  0  0  0  0
 26 27  1  0  0  0  0
 26 28  1  0  0  0  0
M  END
$$$$
default_name
  -OEChem-02102213163D

 31 30  0     1  0  0  0  0  0999 V2000
   -3.5895   -3.5013    1.1082 H   0  0  0  0  0  0  0  0  0  0  0  0
   -3.5145   -2.5363    0.6082 C   0  0  0  0  0  0  0  0  0  0  0  0
   -4.2285   -1.8413    1.0452 H   0  0  0  0  0  0  0  0  0  0  0  0
   -3.7155   -2.6583   -0.4538 H   0  0  0  0  0  0  0  0  0  0  0  0
   -2.1155   -1.9963    0.7922 C   0  0  0  0  0  0  0  0  0  0  0  0
   -1.2875   -2.6383    1.4252 O   0  0  0  0  0  0  0  0  0  0  0  0
   -1.8575   -0.8123    0.2402 N   0  0  0  0  0  0  0  0  0  0  0  0
   -2.6005   -0.3333   -0.2478 H   0  0  0  0  0  0  0  0  0  0  0  0
   -0.5675   -0.1203    0.3102 C   0  0  1  0  0  0  0  0  0  0  0  0
    0.0191   -0.5718    1.1110 H   0  0  0  0  0  0  0  0  0  0  0  0
    0.1724   -0.3238   -1.0286 C   0  0  0  0  0  0  0  0  0  0  0  0
    0.2886   -1.3952   -1.2033 H   0  0  0  0  0  0  0  0  0  0  0  0
   -0.4581    0.0748   -1.8264 H   0  0  0  0  0  0  0  0  0  0  0  0
    1.5576    0.3399   -1.1357 C   0  0  0  0  0  0  0  0  0  0  0  0
    2.2016   -0.2548   -1.7836 H   0  0  0  0  0  0  0  0  0  0  0  0
    1.4756    1.7658   -1.6882 C   0  0  0  0  0  0  0  0  0  0  0  0
    0.8207    2.3699   -1.0587 H   0  0  0  0  0  0  0  0  0  0  0  0
    2.4700    2.2126   -1.7003 H   0  0  0  0  0  0  0  0  0  0  0  0
    1.0874    1.7624   -2.7044 H   0  0  0  0  0  0  0  0  0  0  0  0
    2.2071    0.4050    0.2461 C   0  0  0  0  0  0  0  0  0  0  0  0
    2.3079   -0.6017    0.6516 H   0  0  0  0  0  0  0  0  0  0  0  0
    3.1994    0.8493    0.1687 H   0  0  0  0  0  0  0  0  0  0  0  0
    1.5956    1.0052    0.9207 H   0  0  0  0  0  0  0  0  0  0  0  0
   -0.7793    1.3659    0.6455 C   0  0  0  0  0  0  0  0  0  0  0  0
   -1.6464    2.0125    0.0623 O   0  0  0  0  0  0  0  0  0  0  0  0
    0.0189    1.9059    1.5756 N   0  0  0  0  0  0  0  0  0  0  0  0
    0.7024    1.3094    2.0137 H   0  0  0  0  0  0  0  0  0  0  0  0
   -0.0451    3.3046    1.9929 C   0  0  0  0  0  0  0  0  0  0  0  0
   -1.0415    3.5286    2.3805 H   0  0  0  0  0  0  0  0  0  0  0  0
    0.6954    3.5023    2.7695 H   0  0  0  0  0  0  0  0  0  0  0  0
    0.1474    3.9536    1.1372 H   0  0  0  0  0  0  0  0  0  0  0  0
  5  6  2  0  0  0  0
  5  7  1  0  0  0  0
  2  3  1  0  0  0  0
  2  4  1  0  0  0  0
  2  5  1  0  0  0  0
  1  2  1  0  0  0  0
 24 25  2  0  0  0  0
 24 26  1  0  0  0  0
 20 21  1  0  0  0  0
 20 22  1  0  0  0  0
 20 23  1  0  0  0  0
 16 17  1  0  0  0  0
 16 18  1  0  0  0  0
 16 19  1  0  0  0  0
 14 15  1  0  0  0  0
 14 16  1  0  0  0  0
 14 20  1  0  0  0  0
 11 12  1  0  0  0  0
 11 13  1  0  0  0  0
 11 14  1  0  0  0  0
  9 10  1  0  0  0  0
  9 11  1  0  0  0  0
  9 24  1  0  0  0  0
  7  8  1  0  0  0  0
  7  9  1  0  0  0  0
 28 29  1  0  0  0  0
 28 30  1  0  0  0  0
 28 31  1  0  0  0  0
 26 27  1  0  0  0  0
 26 28  1  0  0  0  0
M  END
$$$$
default_name
  -OEChem-02102213163D

 31 30  0     1  0  0  0  0  0999 V2000
   -3.5895   -3.5013    1.1082 H   0  0  0  0  0  0  0  0  0  0  0  0
   -3.5145   -2.5363    0.6082 C   0  0  0  0  0  0  0  0  0  0  0  0
   -4.2285   -1.8413    1.0452 H   0  0  0  0  0  0  0  0  0  0  0  0
   -3.7155   -2.6583   -0.4538 H   0  0  0  0  0  0  0  0  0  0  0  0
   -2.1155   -1.9963    0.7922 C   0  0  0  0  0  0  0  0  0  0  0  0
   -1.2875   -2.6383    1.4252 O   0  0  0  0  0  0  0  0  0  0  0  0
   -1.8575   -0.8123    0.2402 N   0  0  0  0  0  0  0  0  0  0  0  0
   -2.6005   -0.3333   -0.2478 H   0  0  0  0  0  0  0  0  0  0  0  0
   -0.5675   -0.1203    0.3102 C   0  0  1  0  0  0  0  0  0  0  0  0
    0.0191   -0.5718    1.1110 H   0  0  0  0  0  0  0  0  0  0  0  0
    0.1724   -0.3238   -1.0286 C   0  0  0  0  0  0  0  0  0  0  0  0
    0.2886   -1.3952   -1.2033 H   0  0  0  0  0  0  0  0  0  0  0  0
   -0.4581    0.0748   -1.8264 H   0  0  0  0  0  0  0  0  0  0  0  0
    1.5576    0.3399   -1.1357 C   0  0  0  0  0  0  0  0  0  0  0  0
    2.1080   -0.0898   -1.9727 H   0  0  0  0  0  0  0  0  0  0  0  0
    1.4602    1.8559   -1.3295 C   0  0  0  0  0  0  0  0  0  0  0  0
    0.8973    2.2991   -0.5069 H   0  0  0  0  0  0  0  0  0  0  0  0
    2.4607    2.2883   -1.3507 H   0  0  0  0  0  0  0  0  0  0  0  0
    0.9632    2.0920   -2.2680 H   0  0  0  0  0  0  0  0  0  0  0  0
    2.3561    0.0769    0.1404 C   0  0  0  0  0  0  0  0  0  0  0  0
    2.4693   -0.9972    0.2874 H   0  0  0  0  0  0  0  0  0  0  0  0
    3.3474    0.5223    0.0559 H   0  0  0  0  0  0  0  0  0  0  0  0
    1.8411    0.5056    1.0009 H   0  0  0  0  0  0  0  0  0  0  0  0
   -0.7793    1.3659    0.6455 C   0  0  0  0  0  0  0  0  0  0  0  0
   -1.6464    2.0125    0.0623 O   0  0  0  0  0  0  0  0  0  0  0  0
    0.0189    1.9059    1.5756 N   0  0  0  0  0  0  0  0  0  0  0  0
    0.7024    1.3094    2.0137 H   0  0  0  0  0  0  0  0  0  0  0  0
   -0.0451    3.3046    1.9929 C   0  0  0  0  0  0  0  0  0  0  0  0
   -1.0415    3.5286    2.3805 H   0  0  0  0  0  0  0  0  0  0  0  0
    0.6954    3.5023    2.7695 H   0  0  0  0  0  0  0  0  0  0  0  0
    0.1474    3.9536    1.1372 H   0  0  0  0  0  0  0  0  0  0  0  0
  5  6  2  0  0  0  0
  5  7  1  0  0  0  0
  2  3  1  0  0  0  0
  2  4  1  0  0  0  0
  2  5  1  0  0  0  0
  1  2  1  0  0  0  0
 24 25  2  0  0  0  0
 24 26  1  0  0  0  0
 20 21  1  0  0  0  0
 20 22  1  0  0  0  0
 20 23  1  0  0  0  0
 16 17  1  0  0  0  0
 16 18  1  0  0  0  0
 16 19  1  0  0  0  0
 14 15  1  0  0  0  0
 14 16  1  0  0  0  0
 14 20  1  0  0  0  0
 11 12  1  0  0  0  0
 11 13  1  0  0  0  0
 11 14  1  0  0  0  0
  9 10  1  0  0  0  0
  9 11  1  0  0  0  0
  9 24  1  0  0  0  0
  7  8  1  0  0  0  0
  7  9  1  0  0  0  0
 28 29  1  0  0  0  0
 28 30  1  0  0  0  0
 28 31  1  0  0  0  0
 26 27  1  0  0  0  0
 26 28  1  0  0  0  0
M  END
$$$$
default_name
  -OEChem-02102213163D

 31 30  0     1  0  0  0  0  0999 V2000
   -3.5895   -3.5013    1.1082 H   0  0  0  0  0  0  0  0  0  0  0  0
   -3.5145   -2.5363    0.6082 C   0  0  0  0  0  0  0  0  0  0  0  0
   -4.2285   -1.8413    1.0452 H   0  0  0  0  0  0  0  0  0  0  0  0
   -3.7155   -2.6583   -0.4538 H   0  0  0  0  0  0  0  0  0  0  0  0
   -2.1155   -1.9963    0.7922 C   0  0  0  0  0  0  0  0  0  0  0  0
   -1.2875   -2.6383    1.4252 O   0  0  0  0  0  0  0  0  0  0  0  0
   -1.8575   -0.8123    0.2402 N   0  0  0  0  0  0  0  0  0  0  0  0
   -2.6005   -0.3333   -0.2478 H   0  0  0  0  0  0  0  0  0  0  0  0
   -0.5675   -0.1203    0.3102 C   0  0  1  0  0  0  0  0  0  0  0  0
    0.0191   -0.5718    1.1110 H   0  0  0  0  0  0  0  0  0  0  0  0
    0.1724   -0.3238   -1.0286 C   0  0  0  0  0  0  0  0  0  0  0  0
    0.2886   -1.3952   -1.2033 H   0  0  0  0  0  0  0  0  0  0  0  0
   -0.4581    0.0748   -1.8264 H   0  0  0  0  0  0  0  0  0  0  0  0
    1.5576    0.3399   -1.1357 C   0  0  0  0  0  0  0  0  0  0  0  0
    1.9994    0.1152   -2.1065 H   0  0  0  0  0  0  0  0  0  0  0  0
    1.4869    1.8596   -0.9604 C   0  0  0  0  0  0  0  0  0  0  0  0
    1.0316    2.1009    0.0010 H   0  0  0  0  0  0  0  0  0  0  0  0
    2.4922    2.2802   -0.9944 H   0  0  0  0  0  0  0  0  0  0  0  0
    0.8979    2.3111   -1.7559 H   0  0  0  0  0  0  0  0  0  0  0  0
    2.4824   -0.2181   -0.0546 C   0  0  0  0  0  0  0  0  0  0  0  0
    2.5773   -1.2972   -0.1744 H   0  0  0  0  0  0  0  0  0  0  0  0
    3.4718    0.2300   -0.1457 H   0  0  0  0  0  0  0  0  0  0  0  0
    2.0783   -0.0000    0.9346 H   0  0  0  0  0  0  0  0  0  0  0  0
   -0.7793    1.3659    0.6455 C   0  0  0  0  0  0  0  0  0  0  0  0
   -1.6464    2.0125    0.0623 O   0  0  0  0  0  0  0  0  0  0  0  0
    0.0189    1.9059    1.5756 N   0  0  0  0  0  0  0  0  0  0  0  0
    0.7024    1.3094    2.0137 H   0  0  0  0  0  0  0  0  0  0  0  0
   -0.0451    3.3046    1.9929 C   0  0  0  0  0  0  0  0  0  0  0  0
   -1.0415    3.5286    2.3805 H   0  0  0  0  0  0  0  0  0  0  0  0
    0.6954    3.5023    2.7695 H   0  0  0  0  0  0  0  0  0  0  0  0
    0.1474    3.9536    1.1372 H   0  0  0  0  0  0  0  0  0  0  0  0
  5  6  2  0  0  0  0
  5  7  1  0  0  0  0
  2  3  1  0  0  0  0
  2  4  1  0  0  0  0
  2  5  1  0  0  0  0
  1  2  1  0  0  0  0
 24 25  2  0  0  0  0
 24 26  1  0  0  0  0
 20 21  1  0  0  0  0
 20 22  1  0  0  0  0
 20 23  1  0  0  0  0
 16 17  1  0  0  0  0
 16 18  1  0  0  0  0
 16 19  1  0  0  0  0
 14 15  1  0  0  0  0
 14 16  1  0  0  0  0
 14 20  1  0  0  0  0
 11 12  1  0  0  0  0
 11 13  1  0  0  0  0
 11 14  1  0  0  0  0
  9 10  1  0  0  0  0
  9 11  1  0  0  0  0
  9 24  1  0  0  0  0
  7  8  1  0  0  0  0
  7  9  1  0  0  0  0
 28 29  1  0  0  0  0
 28 30  1  0  0  0  0
 28 31  1  0  0  0  0
 26 27  1  0  0  0  0
 26 28  1  0  0  0  0
M  END
$$$$
default_name
  -OEChem-02102213163D

 31 30  0     1  0  0  0  0  0999 V2000
   -3.5895   -3.5013    1.1082 H   0  0  0  0  0  0  0  0  0  0  0  0
   -3.5145   -2.5363    0.6082 C   0  0  0  0  0  0  0  0  0  0  0  0
   -4.2285   -1.8413    1.0452 H   0  0  0  0  0  0  0  0  0  0  0  0
   -3.7155   -2.6583   -0.4538 H   0  0  0  0  0  0  0  0  0  0  0  0
   -2.1155   -1.9963    0.7922 C   0  0  0  0  0  0  0  0  0  0  0  0
   -1.2875   -2.6383    1.4252 O   0  0  0  0  0  0  0  0  0  0  0  0
   -1.8575   -0.8123    0.2402 N   0  0  0  0  0  0  0  0  0  0  0  0
   -2.6005   -0.3333   -0.2478 H   0  0  0  0  0  0  0  0  0  0  0  0
   -0.5675   -0.1203    0.3102 C   0  0  1  0  0  0  0  0  0  0  0  0
    0.0191   -0.5718    1.1110 H   0  0  0  0  0  0  0  0  0  0  0  0
    0.1724   -0.3238   -1.0286 C   0  0  0  0  0  0  0  0  0  0  0  0
    0.2886   -1.3952   -1.2033 H   0  0  0  0  0  0  0  0  0  0  0  0
   -0.4581    0.0748   -1.8264 H   0  0  0  0  0  0  0  0  0  0  0  0
    1.5576    0.3399   -1.1357 C   0  0  0  0  0  0  0  0  0  0  0  0
    1.8833    0.3464   -2.1759 H   0  0  0  0  0  0  0  0  0  0  0  0
    1.5540    1.7768   -0.6061 C   0  0  0  0  0  0  0  0  0  0  0  0
    1.2144    1.7887    0.4305 H   0  0  0  0  0  0  0  0  0  0  0  0
    2.5621    2.1889   -0.6557 H   0  0  0  0  0  0  0  0  0  0  0  0
    0.8958    2.4046   -1.2028 H   0  0  0  0  0  0  0  0  0  0  0  0
    2.5773   -0.4599   -0.3257 C   0  0  0  0  0  0  0  0  0  0  0  0
    2.6248   -1.4815   -0.7025 H   0  0  0  0  0  0  0  0  0  0  0  0
    3.5643   -0.0077   -0.4224 H   0  0  0  0  0  0  0  0  0  0  0  0
    2.2908   -0.4772    0.7264 H   0  0  0  0  0  0  0  0  0  0  0  0
   -0.7793    1.3659    0.6455 C   0  0  0  0  0  0  0  0  0  0  0  0
   -1.6464    2.0125    0.0623 O   0  0  0  0  0  0  0  0  0  0  0  0
    0.0189    1.9059    1.5756 N   0  0  0  0  0  0  0  0  0  0  0  0
    0.7024    1.3094    2.0137 H   0  0  0  0  0  0  0  0  0  0  0  0
   -0.0451    3.3046    1.9929 C   0  0  0  0  0  0  0  0  0  0  0  0
   -1.0415    3.5286    2.3805 H   0  0  0  0  0  0  0  0  0  0  0  0
    0.6954    3.5023    2.7695 H   0  0  0  0  0  0  0  0  0  0  0  0
    0.1474    3.9536    1.1372 H   0  0  0  0  0  0  0  0  0  0  0  0
  5  6  2  0  0  0  0
  5  7  1  0  0  0  0
  2  3  1  0  0  0  0
  2  4  1  0  0  0  0
  2  5  1  0  0  0  0
  1  2  1  0  0  0  0
 24 25  2  0  0  0  0
 24 26  1  0  0  0  0
 20 21  1  0  0  0  0
 20 22  1  0  0  0  0
 20 23  1  0  0  0  0
 16 17  1  0  0  0  0
 16 18  1  0  0  0  0
 16 19  1  0  0  0  0
 14 15  1  0  0  0  0
 14 16  1  0  0  0  0
 14 20  1  0  0  0  0
 11 12  1  0  0  0  0
 11 13  1  0  0  0  0
 11 14  1  0  0  0  0
  9 10  1  0  0  0  0
  9 11  1  0  0  0  0
  9 24  1  0  0  0  0
  7  8  1  0  0  0  0
  7  9  1  0  0  0  0
 28 29  1  0  0  0  0
 28 30  1  0  0  0  0
 28 31  1  0  0  0  0
 26 27  1  0  0  0  0
 26 28  1  0  0  0  0
M  END
$$$$
default_name
  -OEChem-02102213163D

 31 30  0     1  0  0  0  0  0999 V2000
   -3.5895   -3.5013    1.1082 H   0  0  0  0  0  0  0  0  0  0  0  0
   -3.5145   -2.5363    0.6082 C   0  0  0  0  0  0  0  0  0  0  0  0
   -4.2285   -1.8413    1.0452 H   0  0  0  0  0  0  0  0  0  0  0  0
   -3.7155   -2.6583   -0.4538 H   0  0  0  0  0  0  0  0  0  0  0  0
   -2.1155   -1.9963    0.7922 C   0  0  0  0  0  0  0  0  0  0  0  0
   -1.2875   -2.6383    1.4252 O   0  0  0  0  0  0  0  0  0  0  0  0
   -1.8575   -0.8123    0.2402 N   0  0  0  0  0  0  0  0  0  0  0  0
   -2.6005   -0.3333   -0.2478 H   0  0  0  0  0  0  0  0  0  0  0  0
   -0.5675   -0.1203    0.3102 C   0  0  1  0  0  0  0  0  0  0  0  0
    0.0191   -0.5718    1.1110 H   0  0  0  0  0  0  0  0  0  0  0  0
    0.1724   -0.3238   -1.0286 C   0  0  0  0  0  0  0  0  0  0  0  0
    0.2886   -1.3952   -1.2033 H   0  0  0  0  0  0  0  0  0  0  0  0
   -0.4581    0.0748   -1.8264 H   0  0  0  0  0  0  0  0  0  0  0  0
    1.5576    0.3399   -1.1357 C   0  0  0  0  0  0  0  0  0  0  0  0
    1.7675    0.5879   -2.1762 H   0  0  0  0  0  0  0  0  0  0  0  0
    1.6568    1.6131   -0.2905 C   0  0  0  0  0  0  0  0  0  0  0  0
    1.4332    1.3839    0.7523 H   0  0  0  0  0  0  0  0  0  0  0  0
    2.6658    2.0205   -0.3575 H   0  0  0  0  0  0  0  0  0  0  0  0
    0.9572    2.3662   -0.6467 H   0  0  0  0  0  0  0  0  0  0  0  0
    2.6343   -0.6320   -0.6545 C   0  0  0  0  0  0  0  0  0  0  0  0
    2.6084   -1.5374   -1.2608 H   0  0  0  0  0  0  0  0  0  0  0  0
    3.6185   -0.1745   -0.7553 H   0  0  0  0  0  0  0  0  0  0  0  0
    2.4643   -0.8936    0.3905 H   0  0  0  0  0  0  0  0  0  0  0  0
   -0.7793    1.3659    0.6455 C   0  0  0  0  0  0  0  0  0  0  0  0
   -1.6464    2.0125    0.0623 O   0  0  0  0  0  0  0  0  0  0  0  0
    0.0189    1.9059    1.5756 N   0  0  0  0  0  0  0  0  0  0  0  0
    0.7024    1.3094    2.0137 H   0  0  0  0  0  0  0  0  0  0  0  0
   -0.0451    3.3046    1.9929 C   0  0  0  0  0  0  0  0  0  0  0  0
   -1.0415    3.5286    2.3805 H   0  0  0  0  0  0  0  0  0  0  0  0
    0.6954    3.5023    2.7695 H   0  0  0  0  0  0  0  0  0  0  0  0
    0.1474    3.9536    1.1372 H   0  0  0  0  0  0  0  0  0  0  0  0
  5  6  2  0  0  0  0
  5  7  1  0  0  0  0
  2  3  1  0  0  0  0
  2  4  1  0  0  0  0
  2  5  1  0  0  0  0
  1  2  1  0  0  0  0
 24 25  2  0  0  0  0
 24 26  1  0  0  0  0
 20 21  1  0  0  0  0
 20 22  1  0  0  0  0
 20 23  1  0  0  0  0
 16 17  1  0  0  0  0
 16 18  1  0  0  0  0
 16 19  1  0  0  0  0
 14 15  1  0  0  0  0
 14 16  1  0  0  0  0
 14 20  1  0  0  0  0
 11 12  1  0  0  0  0
 11 13  1  0  0  0  0
 11 14  1  0  0  0  0
  9 10  1  0  0  0  0
  9 11  1  0  0  0  0
  9 24  1  0  0  0  0
  7  8  1  0  0  0  0
  7  9  1  0  0  0  0
 28 29  1  0  0  0  0
 28 30  1  0  0  0  0
 28 31  1  0  0  0  0
 26 27  1  0  0  0  0
 26 28  1  0  0  0  0
M  END
$$$$
default_name
  -OEChem-02102213163D

 31 30  0     1  0  0  0  0  0999 V2000
   -3.5895   -3.5013    1.1082 H   0  0  0  0  0  0  0  0  0  0  0  0
   -3.5145   -2.5363    0.6082 C   0  0  0  0  0  0  0  0  0  0  0  0
   -4.2285   -1.8413    1.0452 H   0  0  0  0  0  0  0  0  0  0  0  0
   -3.7155   -2.6583   -0.4538 H   0  0  0  0  0  0  0  0  0  0  0  0
   -2.1155   -1.9963    0.7922 C   0  0  0  0  0  0  0  0  0  0  0  0
   -1.2875   -2.6383    1.4252 O   0  0  0  0  0  0  0  0  0  0  0  0
   -1.8575   -0.8123    0.2402 N   0  0  0  0  0  0  0  0  0  0  0  0
   -2.6005   -0.3333   -0.2478 H   0  0  0  0  0  0  0  0  0  0  0  0
   -0.5675   -0.1203    0.3102 C   0  0  1  0  0  0  0  0  0  0  0  0
    0.0191   -0.5718    1.1110 H   0  0  0  0  0  0  0  0  0  0  0  0
    0.1724   -0.3238   -1.0286 C   0  0  0  0  0  0  0  0  0  0  0  0
    0.2886   -1.3952   -1.2033 H   0  0  0  0  0  0  0  0  0  0  0  0
   -0.4581    0.0748   -1.8264 H   0  0  0  0  0  0  0  0  0  0  0  0
    1.5576    0.3399   -1.1357 C   0  0  0  0  0  0  0  0  0  0  0  0
    1.6600    0.8233   -2.1073 H   0  0  0  0  0  0  0  0  0  0  0  0
    1.7884    1.3796   -0.0353 C   0  0  0  0  0  0  0  0  0  0  0  0
    1.6732    0.9140    0.9444 H   0  0  0  0  0  0  0  0  0  0  0  0
    2.7963    1.7866   -0.1203 H   0  0  0  0  0  0  0  0  0  0  0  0
    1.0779    2.1985   -0.1253 H   0  0  0  0  0  0  0  0  0  0  0  0
    2.6496   -0.7227   -1.0186 C   0  0  0  0  0  0  0  0  0  0  0  0
    2.5293   -1.4611   -1.8112 H   0  0  0  0  0  0  0  0  0  0  0  0
    3.6307   -0.2590   -1.1218 H   0  0  0  0  0  0  0  0  0  0  0  0
    2.5870   -1.2206   -0.0503 H   0  0  0  0  0  0  0  0  0  0  0  0
   -0.7793    1.3659    0.6455 C   0  0  0  0  0  0  0  0  0  0  0  0
   -1.6464    2.0125    0.0623 O   0  0  0  0  0  0  0  0  0  0  0  0
    0.0189    1.9059    1.5756 N   0  0  0  0  0  0  0  0  0  0  0  0
    0.7024    1.3094    2.0137 H   0  0  0  0  0  0  0  0  0  0  0  0
   -0.0451    3.3046    1.9929 C   0  0  0  0  0  0  0  0  0  0  0  0
   -1.0415    3.5286    2.3805 H   0  0  0  0  0  0  0  0  0  0  0  0
    0.6954    3.5023    2.7695 H   0  0  0  0  0  0  0  0  0  0  0  0
    0.1474    3.9536    1.1372 H   0  0  0  0  0  0  0  0  0  0  0  0
  5  6  2  0  0  0  0
  5  7  1  0  0  0  0
  2  3  1  0  0  0  0
  2  4  1  0  0  0  0
  2  5  1  0  0  0  0
  1  2  1  0  0  0  0
 24 25  2  0  0  0  0
 24 26  1  0  0  0  0
 20 21  1  0  0  0  0
 20 22  1  0  0  0  0
 20 23  1  0  0  0  0
 16 17  1  0  0  0  0
 16 18  1  0  0  0  0
 16 19  1  0  0  0  0
 14 15  1  0  0  0  0
 14 16  1  0  0  0  0
 14 20  1  0  0  0  0
 11 12  1  0  0  0  0
 11 13  1  0  0  0  0
 11 14  1  0  0  0  0
  9 10  1  0  0  0  0
  9 11  1  0  0  0  0
  9 24  1  0  0  0  0
  7  8  1  0  0  0  0
  7  9  1  0  0  0  0
 28 29  1  0  0  0  0
 28 30  1  0  0  0  0
 28 31  1  0  0  0  0
 26 27  1  0  0  0  0
 26 28  1  0  0  0  0
M  END
$$$$
default_name
  -OEChem-02102213163D

 31 30  0     1  0  0  0  0  0999 V2000
   -3.5895   -3.5013    1.1082 H   0  0  0  0  0  0  0  0  0  0  0  0
   -3.5145   -2.5363    0.6082 C   0  0  0  0  0  0  0  0  0  0  0  0
   -4.2285   -1.8413    1.0452 H   0  0  0  0  0  0  0  0  0  0  0  0
   -3.7155   -2.6583   -0.4538 H   0  0  0  0  0  0  0  0  0  0  0  0
   -2.1155   -1.9963    0.7922 C   0  0  0  0  0  0  0  0  0  0  0  0
   -1.2875   -2.6383    1.4252 O   0  0  0  0  0  0  0  0  0  0  0  0
   -1.8575   -0.8123    0.2402 N   0  0  0  0  0  0  0  0  0  0  0  0
   -2.6005   -0.3333   -0.2478 H   0  0  0  0  0  0  0  0  0  0  0  0
   -0.5675   -0.1203    0.3102 C   0  0  1  0  0  0  0  0  0  0  0  0
    0.0191   -0.5718    1.1110 H   0  0  0  0  0  0  0  0  0  0  0  0
    0.1724   -0.3238   -1.0286 C   0  0  0  0  0  0  0  0  0  0  0  0
    0.2886   -1.3952   -1.2033 H   0  0  0  0  0  0  0  0  0  0  0  0
   -0.4581    0.0748   -1.8264 H   0  0  0  0  0  0  0  0  0  0  0  0
    1.5576    0.3399   -1.1357 C   0  0  0  0  0  0  0  0  0  0  0  0
    1.5681    1.0366   -1.9739 H   0  0  0  0  0  0  0  0  0  0  0  0
    1.9398    1.0923    0.1422 C   0  0  0  0  0  0  0  0  0  0  0  0
    1.9180    0.4110    0.9938 H   0  0  0  0  0  0  0  0  0  0  0  0
    2.9445    1.5031    0.0398 H   0  0  0  0  0  0  0  0  0  0  0  0
    1.2496    1.9129    0.3259 H   0  0  0  0  0  0  0  0  0  0  0  0
    2.6222   -0.7259   -1.3930 C   0  0  0  0  0  0  0  0  0  0  0  0
    2.3928   -1.2578   -2.3163 H   0  0  0  0  0  0  0  0  0  0  0  0
    3.6000   -0.2556   -1.4968 H   0  0  0  0  0  0  0  0  0  0  0  0
    2.6503   -1.4361   -0.5659 H   0  0  0  0  0  0  0  0  0  0  0  0
   -0.7793    1.3659    0.6455 C   0  0  0  0  0  0  0  0  0  0  0  0
   -1.6464    2.0125    0.0623 O   0  0  0  0  0  0  0  0  0  0  0  0
    0.0189    1.9059    1.5756 N   0  0  0  0  0  0  0  0  0  0  0  0
    0.7024    1.3094    2.0137 H   0  0  0  0  0  0  0  0  0  0  0  0
   -0.0451    3.3046    1.9929 C   0  0  0  0  0  0  0  0  0  0  0  0
   -1.0415    3.5286    2.3805 H   0  0  0  0  0  0  0  0  0  0  0  0
    0.6954    3.5023    2.7695 H   0  0  0  0  0  0  0  0  0  0  0  0
    0.1474    3.9536    1.1372 H   0  0  0  0  0  0  0  0  0  0  0  0
  5  6  2  0  0  0  0
  5  7  1  0  0  0  0
  2  3  1  0  0  0  0
  2  4  1  0  0  0  0
  2  5  1  0  0  0  0
  1  2  1  0  0  0  0
 24 25  2  0  0  0  0
 24 26  1  0  0  0  0
 20 21  1  0  0  0  0
 20 22  1  0  0  0  0
 20 23  1  0  0  0  0
 16 17  1  0  0  0  0
 16 18  1  0  0  0  0
 16 19  1  0  0  0  0
 14 15  1  0  0  0  0
 14 16  1  0  0  0  0
 14 20  1  0  0  0  0
 11 12  1  0  0  0  0
 11 13  1  0  0  0  0
 11 14  1  0  0  0  0
  9 10  1  0  0  0  0
  9 11  1  0  0  0  0
  9 24  1  0  0  0  0
  7  8  1  0  0  0  0
  7  9  1  0  0  0  0
 28 29  1  0  0  0  0
 28 30  1  0  0  0  0
 28 31  1  0  0  0  0
 26 27  1  0  0  0  0
 26 28  1  0  0  0  0
M  END
$$$$
default_name
  -OEChem-02102213163D

 31 30  0     1  0  0  0  0  0999 V2000
   -3.5895   -3.5013    1.1082 H   0  0  0  0  0  0  0  0  0  0  0  0
   -3.5145   -2.5363    0.6082 C   0  0  0  0  0  0  0  0  0  0  0  0
   -4.2285   -1.8413    1.0452 H   0  0  0  0  0  0  0  0  0  0  0  0
   -3.7155   -2.6583   -0.4538 H   0  0  0  0  0  0  0  0  0  0  0  0
   -2.1155   -1.9963    0.7922 C   0  0  0  0  0  0  0  0  0  0  0  0
   -1.2875   -2.6383    1.4252 O   0  0  0  0  0  0  0  0  0  0  0  0
   -1.8575   -0.8123    0.2402 N   0  0  0  0  0  0  0  0  0  0  0  0
   -2.6005   -0.3333   -0.2478 H   0  0  0  0  0  0  0  0  0  0  0  0
   -0.5675   -0.1203    0.3102 C   0  0  1  0  0  0  0  0  0  0  0  0
    0.0191   -0.5718    1.1110 H   0  0  0  0  0  0  0  0  0  0  0  0
    0.1724   -0.3238   -1.0286 C   0  0  0  0  0  0  0  0  0  0  0  0
    0.2886   -1.3952   -1.2033 H   0  0  0  0  0  0  0  0  0  0  0  0
   -0.4581    0.0748   -1.8264 H   0  0  0  0  0  0  0  0  0  0  0  0
    1.5576    0.3399   -1.1357 C   0  0  0  0  0  0  0  0  0  0  0  0
    1.4981    1.2133   -1.7851 H   0  0  0  0  0  0  0  0  0  0  0  0
    2.1006    0.7707    0.2298 C   0  0  0  0  0  0  0  0  0  0  0  0
    2.1510   -0.0907    0.8971 H   0  0  0  0  0  0  0  0  0  0  0  0
    3.1004    1.1892    0.1119 H   0  0  0  0  0  0  0  0  0  0  0  0
    1.4607    1.5289    0.6760 H   0  0  0  0  0  0  0  0  0  0  0  0
    2.5538   -0.6412   -1.7524 C   0  0  0  0  0  0  0  0  0  0  0  0
    2.2084   -0.9414   -2.7416 H   0  0  0  0  0  0  0  0  0  0  0  0
    3.5287   -0.1644   -1.8548 H   0  0  0  0  0  0  0  0  0  0  0  0
    2.6502   -1.5253   -1.1212 H   0  0  0  0  0  0  0  0  0  0  0  0
   -0.7793    1.3659    0.6455 C   0  0  0  0  0  0  0  0  0  0  0  0
   -1.6464    2.0125    0.0623 O   0  0  0  0  0  0  0  0  0  0  0  0
    0.0189    1.9059    1.5756 N   0  0  0  0  0  0  0  0  0  0  0  0
    0.7024    1.3094    2.0137 H   0  0  0  0  0  0  0  0  0  0  0  0
   -0.0451    3.3046    1.9929 C   0  0  0  0  0  0  0  0  0  0  0  0
   -1.0415    3.5286    2.3805 H   0  0  0  0  0  0  0  0  0  0  0  0
    0.6954    3.5023    2.7695 H   0  0  0  0  0  0  0  0  0  0  0  0
    0.1474    3.9536    1.1372 H   0  0  0  0  0  0  0  0  0  0  0  0
  5  6  2  0  0  0  0
  5  7  1  0  0  0  0
  2  3  1  0  0  0  0
  2  4  1  0  0  0  0
  2  5  1  0  0  0  0
  1  2  1  0  0  0  0
 24 25  2  0  0  0  0
 24 26  1  0  0  0  0
 20 21  1  0  0  0  0
 20 22  1  0  0  0  0
 20 23  1  0  0  0  0
 16 17  1  0  0  0  0
 16 18  1  0  0  0  0
 16 19  1  0  0  0  0
 14 15  1  0  0  0  0
 14 16  1  0  0  0  0
 14 20  1  0  0  0  0
 11 12  1  0  0  0  0
 11 13  1  0  0  0  0
 11 14  1  0  0  0  0
  9 10  1  0  0  0  0
  9 11  1  0  0  0  0
  9 24  1  0  0  0  0
  7  8  1  0  0  0  0
  7  9  1  0  0  0  0
 28 29  1  0  0  0  0
 28 30  1  0  0  0  0
 28 31  1  0  0  0  0
 26 27  1  0  0  0  0
 26 28  1  0  0  0  0
M  END
$$$$
default_name
  -OEChem-02102213163D

 31 30  0     1  0  0  0  0  0999 V2000
   -3.5895   -3.5013    1.1082 H   0  0  0  0  0  0  0  0  0  0  0  0
   -3.5145   -2.5363    0.6082 C   0  0  0  0  0  0  0  0  0  0  0  0
   -4.2285   -1.8413    1.0452 H   0  0  0  0  0  0  0  0  0  0  0  0
   -3.7155   -2.6583   -0.4538 H   0  0  0  0  0  0  0  0  0  0  0  0
   -2.1155   -1.9963    0.7922 C   0  0  0  0  0  0  0  0  0  0  0  0
   -1.2875   -2.6383    1.4252 O   0  0  0  0  0  0  0  0  0  0  0  0
   -1.8575   -0.8123    0.2402 N   0  0  0  0  0  0  0  0  0  0  0  0
   -2.6005   -0.3333   -0.2478 H   0  0  0  0  0  0  0  0  0  0  0  0
   -0.5675   -0.1203    0.3102 C   0  0  1  0  0  0  0  0  0  0  0  0
    0.0191   -0.5718    1.1110 H   0  0  0  0  0  0  0  0  0  0  0  0
    0.1724   -0.3238   -1.0286 C   0  0  0  0  0  0  0  0  0  0  0  0
    0.2886   -1.3952   -1.2033 H   0  0  0  0  0  0  0  0  0  0  0  0
   -0.4581    0.0748   -1.8264 H   0  0  0  0  0  0  0  0  0  0  0  0
    1.5576    0.3399   -1.1357 C   0  0  0  0  0  0  0  0  0  0  0  0
    1.4547    1.3412   -1.5539 H   0  0  0  0  0  0  0  0  0  0  0  0
    2.2600    0.4368    0.2217 C   0  0  0  0  0  0  0  0  0  0  0  0
    2.3561   -0.5570    0.6609 H   0  0  0  0  0  0  0  0  0  0  0  0
    3.2535    0.8665    0.0911 H   0  0  0  0  0  0  0  0  0  0  0  0
    1.6967    1.0727    0.9012 H   0  0  0  0  0  0  0  0  0  0  0  0
    2.4493   -0.4745   -2.0722 C   0  0  0  0  0  0  0  0  0  0  0  0
    1.9884   -0.5334   -3.0582 H   0  0  0  0  0  0  0  0  0  0  0  0
    3.4214    0.0083   -2.1714 H   0  0  0  0  0  0  0  0  0  0  0  0
    2.5864   -1.4822   -1.6783 H   0  0  0  0  0  0  0  0  0  0  0  0
   -0.7793    1.3659    0.6455 C   0  0  0  0  0  0  0  0  0  0  0  0
   -1.6464    2.0125    0.0623 O   0  0  0  0  0  0  0  0  0  0  0  0
    0.0189    1.9059    1.5756 N   0  0  0  0  0  0  0  0  0  0  0  0
    0.7024    1.3094    2.0137 H   0  0  0  0  0  0  0  0  0  0  0  0
   -0.0451    3.3046    1.9929 C   0  0  0  0  0  0  0  0  0  0  0  0
   -1.0415    3.5286    2.3805 H   0  0  0  0  0  0  0  0  0  0  0  0
    0.6954    3.5023    2.7695 H   0  0  0  0  0  0  0  0  0  0  0  0
    0.1474    3.9536    1.1372 H   0  0  0  0  0  0  0  0  0  0  0  0
  5  6  2  0  0  0  0
  5  7  1  0  0  0  0
  2  3  1  0  0  0  0
  2  4  1  0  0  0  0
  2  5  1  0  0  0  0
  1  2  1  0  0  0  0
 24 25  2  0  0  0  0
 24 26  1  0  0  0  0
 20 21  1  0  0  0  0
 20 22  1  0  0  0  0
 20 23  1  0  0  0  0
 16 17  1  0  0  0  0
 16 18  1  0  0  0  0
 16 19  1  0  0  0  0
 14 15  1  0  0  0  0
 14 16  1  0  0  0  0
 14 20  1  0  0  0  0
 11 12  1  0  0  0  0
 11 13  1  0  0  0  0
 11 14  1  0  0  0  0
  9 10  1  0  0  0  0
  9 11  1  0  0  0  0
  9 24  1  0  0  0  0
  7  8  1  0  0  0  0
  7  9  1  0  0  0  0
 28 29  1  0  0  0  0
 28 30  1  0  0  0  0
 28 31  1  0  0  0  0
 26 27  1  0  0  0  0
 26 28  1  0  0  0  0
M  END
$$$$
default_name
  -OEChem-02102213163D

 31 30  0     1  0  0  0  0  0999 V2000
   -3.5895   -3.5013    1.1082 H   0  0  0  0  0  0  0  0  0  0  0  0
   -3.5145   -2.5363    0.6082 C   0  0  0  0  0  0  0  0  0  0  0  0
   -4.2285   -1.8413    1.0452 H   0  0  0  0  0  0  0  0  0  0  0  0
   -3.7155   -2.6583   -0.4538 H   0  0  0  0  0  0  0  0  0  0  0  0
   -2.1155   -1.9963    0.7922 C   0  0  0  0  0  0  0  0  0  0  0  0
   -1.2875   -2.6383    1.4252 O   0  0  0  0  0  0  0  0  0  0  0  0
   -1.8575   -0.8123    0.2402 N   0  0  0  0  0  0  0  0  0  0  0  0
   -2.6005   -0.3333   -0.2478 H   0  0  0  0  0  0  0  0  0  0  0  0
   -0.5675   -0.1203    0.3102 C   0  0  1  0  0  0  0  0  0  0  0  0
    0.0191   -0.5718    1.1110 H   0  0  0  0  0  0  0  0  0  0  0  0
    0.1724   -0.3238   -1.0286 C   0  0  0  0  0  0  0  0  0  0  0  0
    0.2886   -1.3952   -1.2033 H   0  0  0  0  0  0  0  0  0  0  0  0
   -0.4581    0.0748   -1.8264 H   0  0  0  0  0  0  0  0  0  0  0  0
    1.5576    0.3399   -1.1357 C   0  0  0  0  0  0  0  0  0  0  0  0
    1.4408    1.4117   -1.2959 H   0  0  0  0  0  0  0  0  0  0  0  0
    2.4070    0.1133    0.1182 C   0  0  0  0  0  0  0  0  0  0  0  0
    2.5196   -0.9561    0.3013 H   0  0  0  0  0  0  0  0  0  0  0  0
    3.3931    0.5569   -0.0213 H   0  0  0  0  0  0  0  0  0  0  0  0
    1.9415    0.5753    0.9862 H   0  0  0  0  0  0  0  0  0  0  0  0
    2.3156   -0.2372   -2.3307 C   0  0  0  0  0  0  0  0  0  0  0  0
    1.7479   -0.0616   -3.2444 H   0  0  0  0  0  0  0  0  0  0  0  0
    3.2856    0.2508   -2.4251 H   0  0  0  0  0  0  0  0  0  0  0  0
    2.4635   -1.3097   -2.1993 H   0  0  0  0  0  0  0  0  0  0  0  0
   -0.7793    1.3659    0.6455 C   0  0  0  0  0  0  0  0  0  0  0  0
   -1.6464    2.0125    0.0623 O   0  0  0  0  0  0  0  0  0  0  0  0
    0.0189    1.9059    1.5756 N   0  0  0  0  0  0  0  0  0  0  0  0
    0.7024    1.3094    2.0137 H   0  0  0  0  0  0  0  0  0  0  0  0
   -0.0451    3.3046    1.9929 C   0  0  0  0  0  0  0  0  0  0  0  0
   -1.0415    3.5286    2.3805 H   0  0  0  0  0  0  0  0  0  0  0  0
    0.6954    3.5023    2.7695 H   0  0  0  0  0  0  0  0  0  0  0  0
    0.1474    3.9536    1.1372 H   0  0  0  0  0  0  0  0  0  0  0  0
  5  6  2  0  0  0  0
  5  7  1  0  0  0  0
  2  3  1  0  0  0  0
  2  4  1  0  0  0  0
  2  5  1  0  0  0  0
  1  2  1  0  0  0  0
 24 25  2  0  0  0  0
 24 26  1  0  0  0  0
 20 21  1  0  0  0  0
 20 22  1  0  0  0  0
 20 23  1  0  0  0  0
 16 17  1  0  0  0  0
 16 18  1  0  0  0  0
 16 19  1  0  0  0  0
 14 15  1  0  0  0  0
 14 16  1  0  0  0  0
 14 20  1  0  0  0  0
 11 12  1  0  0  0  0
 11 13  1  0  0  0  0
 11 14  1  0  0  0  0
  9 10  1  0  0  0  0
  9 11  1  0  0  0  0
  9 24  1  0  0  0  0
  7  8  1  0  0  0  0
  7  9  1  0  0  0  0
 28 29  1  0  0  0  0
 28 30  1  0  0  0  0
 28 31  1  0  0  0  0
 26 27  1  0  0  0  0
 26 28  1  0  0  0  0
M  END
$$$$
default_name
  -OEChem-02102213163D

 31 30  0     1  0  0  0  0  0999 V2000
   -3.5895   -3.5013    1.1082 H   0  0  0  0  0  0  0  0  0  0  0  0
   -3.5145   -2.5363    0.6082 C   0  0  0  0  0  0  0  0  0  0  0  0
   -4.2285   -1.8413    1.0452 H   0  0  0  0  0  0  0  0  0  0  0  0
   -3.7155   -2.6583   -0.4538 H   0  0  0  0  0  0  0  0  0  0  0  0
   -2.1155   -1.9963    0.7922 C   0  0  0  0  0  0  0  0  0  0  0  0
   -1.2875   -2.6383    1.4252 O   0  0  0  0  0  0  0  0  0  0  0  0
   -1.8575   -0.8123    0.2402 N   0  0  0  0  0  0  0  0  0  0  0  0
   -2.6005   -0.3333   -0.2478 H   0  0  0  0  0  0  0  0  0  0  0  0
   -0.5675   -0.1203    0.3102 C   0  0  1  0  0  0  0  0  0  0  0  0
    0.0191   -0.5718    1.1110 H   0  0  0  0  0  0  0  0  0  0  0  0
    0.1724   -0.3238   -1.0286 C   0  0  0  0  0  0  0  0  0  0  0  0
    0.2886   -1.3952   -1.2033 H   0  0  0  0  0  0  0  0  0  0  0  0
   -0.4581    0.0748   -1.8264 H   0  0  0  0  0  0  0  0  0  0  0  0
    1.5576    0.3399   -1.1357 C   0  0  0  0  0  0  0  0  0  0  0  0
    1.4575    1.4200   -1.0287 H   0  0  0  0  0  0  0  0  0  0  0  0
    2.5316   -0.1777   -0.0734 C   0  0  0  0  0  0  0  0  0  0  0  0
    2.6301   -1.2609   -0.1573 H   0  0  0  0  0  0  0  0  0  0  0  0
    3.5099    0.2814   -0.2174 H   0  0  0  0  0  0  0  0  0  0  0  0
    2.1786    0.0707    0.9252 H   0  0  0  0  0  0  0  0  0  0  0  0
    2.1619    0.0546   -2.5101 C   0  0  0  0  0  0  0  0  0  0  0  0
    1.5034    0.4417   -3.2877 H   0  0  0  0  0  0  0  0  0  0  0  0
    3.1305    0.5465   -2.5985 H   0  0  0  0  0  0  0  0  0  0  0  0
    2.2897   -1.0195   -2.6486 H   0  0  0  0  0  0  0  0  0  0  0  0
   -0.7793    1.3659    0.6455 C   0  0  0  0  0  0  0  0  0  0  0  0
   -1.6464    2.0125    0.0623 O   0  0  0  0  0  0  0  0  0  0  0  0
    0.0189    1.9059    1.5756 N   0  0  0  0  0  0  0  0  0  0  0  0
    0.7024    1.3094    2.0137 H   0  0  0  0  0  0  0  0  0  0  0  0
   -0.0451    3.3046    1.9929 C   0  0  0  0  0  0  0  0  0  0  0  0
   -1.0415    3.5286    2.3805 H   0  0  0  0  0  0  0  0  0  0  0  0
    0.6954    3.5023    2.7695 H   0  0  0  0  0  0  0  0  0  0  0  0
    0.1474    3.9536    1.1372 H   0  0  0  0  0  0  0  0  0  0  0  0
  5  6  2  0  0  0  0
  5  7  1  0  0  0  0
  2  3  1  0  0  0  0
  2  4  1  0  0  0  0
  2  5  1  0  0  0  0
  1  2  1  0  0  0  0
 24 25  2  0  0  0  0
 24 26  1  0  0  0  0
 20 21  1  0  0  0  0
 20 22  1  0  0  0  0
 20 23  1  0  0  0  0
 16 17  1  0  0  0  0
 16 18  1  0  0  0  0
 16 19  1  0  0  0  0
 14 15  1  0  0  0  0
 14 16  1  0  0  0  0
 14 20  1  0  0  0  0
 11 12  1  0  0  0  0
 11 13  1  0  0  0  0
 11 14  1  0  0  0  0
  9 10  1  0  0  0  0
  9 11  1  0  0  0  0
  9 24  1  0  0  0  0
  7  8  1  0  0  0  0
  7  9  1  0  0  0  0
 28 29  1  0  0  0  0
 28 30  1  0  0  0  0
 28 31  1  0  0  0  0
 26 27  1  0  0  0  0
 26 28  1  0  0  0  0
M  END
$$$$
default_name
  -OEChem-02102213163D

 31 30  0     1  0  0  0  0  0999 V2000
   -3.5895   -3.5013    1.1082 H   0  0  0  0  0  0  0  0  0  0  0  0
   -3.5145   -2.5363    0.6082 C   0  0  0  0  0  0  0  0  0  0  0  0
   -4.2285   -1.8413    1.0452 H   0  0  0  0  0  0  0  0  0  0  0  0
   -3.7155   -2.6583   -0.4538 H   0  0  0  0  0  0  0  0  0  0  0  0
   -2.1155   -1.9963    0.7922 C   0  0  0  0  0  0  0  0  0  0  0  0
   -1.2875   -2.6383    1.4252 O   0  0  0  0  0  0  0  0  0  0  0  0
   -1.8575   -0.8123    0.2402 N   0  0  0  0  0  0  0  0  0  0  0  0
   -2.6005   -0.3333   -0.2478 H   0  0  0  0  0  0  0  0  0  0  0  0
   -0.5675   -0.1203    0.3102 C   0  0  1  0  0  0  0  0  0  0  0  0
    0.0191   -0.5718    1.1110 H   0  0  0  0  0  0  0  0  0  0  0  0
    0.1724   -0.3238   -1.0286 C   0  0  0  0  0  0  0  0  0  0  0  0
    0.2886   -1.3952   -1.2033 H   0  0  0  0  0  0  0  0  0  0  0  0
   -0.4581    0.0748   -1.8264 H   0  0  0  0  0  0  0  0  0  0  0  0
    1.5576    0.3399   -1.1357 C   0  0  0  0  0  0  0  0  0  0  0  0
    1.5036    1.3655   -0.7705 H   0  0  0  0  0  0  0  0  0  0  0  0
    2.6254   -0.4165   -0.3401 C   0  0  0  0  0  0  0  0  0  0  0  0
    2.6802   -1.4504   -0.6835 H   0  0  0  0  0  0  0  0  0  0  0  0
    3.5959    0.0589   -0.4841 H   0  0  0  0  0  0  0  0  0  0  0  0
    2.3917   -0.4068    0.7223 H   0  0  0  0  0  0  0  0  0  0  0  0
    1.9986    0.3811   -2.5983 C   0  0  0  0  0  0  0  0  0  0  0  0
    1.2715    0.9424   -3.1849 H   0  0  0  0  0  0  0  0  0  0  0  0
    2.9667    0.8754   -2.6798 H   0  0  0  0  0  0  0  0  0  0  0  0
    2.0770   -0.6315   -2.9957 H   0  0  0  0  0  0  0  0  0  0  0  0
   -0.7793    1.3659    0.6455 C   0  0  0  0  0  0  0  0  0  0  0  0
   -1.6464    2.0125    0.0623 O   0  0  0  0  0  0  0  0  0  0  0  0
    0.0189    1.9059    1.5756 N   0  0  0  0  0  0  0  0  0  0  0  0
    0.7024    1.3094    2.0137 H   0  0  0  0  0  0  0  0  0  0  0  0
   -0.0451    3.3046    1.9929 C   0  0  0  0  0  0  0  0  0  0  0  0
   -1.0415    3.5286    2.3805 H   0  0  0  0  0  0  0  0  0  0  0  0
    0.6954    3.5023    2.7695 H   0  0  0  0  0  0  0  0  0  0  0  0
    0.1474    3.9536    1.1372 H   0  0  0  0  0  0  0  0  0  0  0  0
  5  6  2  0  0  0  0
  5  7  1  0  0  0  0
  2  3  1  0  0  0  0
  2  4  1  0  0  0  0
  2  5  1  0  0  0  0
  1  2  1  0  0  0  0
 24 25  2  0  0  0  0
 24 26  1  0  0  0  0
 20 21  1  0  0  0  0
 20 22  1  0  0  0  0
 20 23  1  0  0  0  0
 16 17  1  0  0  0  0
 16 18  1  0  0  0  0
 16 19  1  0  0  0  0
 14 15  1  0  0  0  0
 14 16  1  0  0  0  0
 14 20  1  0  0  0  0
 11 12  1  0  0  0  0
 11 13  1  0  0  0  0
 11 14  1  0  0  0  0
  9 10  1  0  0  0  0
  9 11  1  0  0  0  0
  9 24  1  0  0  0  0
  7  8  1  0  0  0  0
  7  9  1  0  0  0  0
 28 29  1  0  0  0  0
 28 30  1  0  0  0  0
 28 31  1  0  0  0  0
 26 27  1  0  0  0  0
 26 28  1  0  0  0  0
M  END
$$$$
default_name
  -OEChem-02102213163D

 31 30  0     1  0  0  0  0  0999 V2000
   -3.5895   -3.5013    1.1082 H   0  0  0  0  0  0  0  0  0  0  0  0
   -3.5145   -2.5363    0.6082 C   0  0  0  0  0  0  0  0  0  0  0  0
   -4.2285   -1.8413    1.0452 H   0  0  0  0  0  0  0  0  0  0  0  0
   -3.7155   -2.6583   -0.4538 H   0  0  0  0  0  0  0  0  0  0  0  0
   -2.1155   -1.9963    0.7922 C   0  0  0  0  0  0  0  0  0  0  0  0
   -1.2875   -2.6383    1.4252 O   0  0  0  0  0  0  0  0  0  0  0  0
   -1.8575   -0.8123    0.2402 N   0  0  0  0  0  0  0  0  0  0  0  0
   -2.6005   -0.3333   -0.2478 H   0  0  0  0  0  0  0  0  0  0  0  0
   -0.5675   -0.1203    0.3102 C   0  0  1  0  0  0  0  0  0  0  0  0
    0.0191   -0.5718    1.1110 H   0  0  0  0  0  0  0  0  0  0  0  0
    0.1724   -0.3238   -1.0286 C   0  0  0  0  0  0  0  0  0  0  0  0
    0.2886   -1.3952   -1.2033 H   0  0  0  0  0  0  0  0  0  0  0  0
   -0.4581    0.0748   -1.8264 H   0  0  0  0  0  0  0  0  0  0  0  0
    1.5576    0.3399   -1.1357 C   0  0  0  0  0  0  0  0  0  0  0  0
    1.5759    1.2519   -0.5390 H   0  0  0  0  0  0  0  0  0  0  0  0
    2.6819   -0.5866   -0.6639 C   0  0  0  0  0  0  0  0  0  0  0  0
    2.6666   -1.5119   -1.2415 H   0  0  0  0  0  0  0  0  0  0  0  0
    3.6452   -0.0954   -0.8031 H   0  0  0  0  0  0  0  0  0  0  0  0
    2.5663   -0.8246    0.3914 H   0  0  0  0  0  0  0  0  0  0  0  0
    1.8370    0.7199   -2.5893 C   0  0  0  0  0  0  0  0  0  0  0  0
    1.0679    1.4063   -2.9432 H   0  0  0  0  0  0  0  0  0  0  0  0
    2.8053    1.2149   -2.6636 H   0  0  0  0  0  0  0  0  0  0  0  0
    1.8397   -0.1720   -3.2169 H   0  0  0  0  0  0  0  0  0  0  0  0
   -0.7793    1.3659    0.6455 C   0  0  0  0  0  0  0  0  0  0  0  0
   -1.6464    2.0125    0.0623 O   0  0  0  0  0  0  0  0  0  0  0  0
    0.0189    1.9059    1.5756 N   0  0  0  0  0  0  0  0  0  0  0  0
    0.7024    1.3094    2.0137 H   0  0  0  0  0  0  0  0  0  0  0  0
   -0.0451    3.3046    1.9929 C   0  0  0  0  0  0  0  0  0  0  0  0
   -1.0415    3.5286    2.3805 H   0  0  0  0  0  0  0  0  0  0  0  0
    0.6954    3.5023    2.7695 H   0  0  0  0  0  0  0  0  0  0  0  0
    0.1474    3.9536    1.1372 H   0  0  0  0  0  0  0  0  0  0  0  0
  5  6  2  0  0  0  0
  5  7  1  0  0  0  0
  2  3  1  0  0  0  0
  2  4  1  0  0  0  0
  2  5  1  0  0  0  0
  1  2  1  0  0  0  0
 24 25  2  0  0  0  0
 24 26  1  0  0  0  0
 20 21  1  0  0  0  0
 20 22  1  0  0  0  0
 20 23  1  0  0  0  0
 16 17  1  0  0  0  0
 16 18  1  0  0  0  0
 16 19  1  0  0  0  0
 14 15  1  0  0  0  0
 14 16  1  0  0  0  0
 14 20  1  0  0  0  0
 11 12  1  0  0  0  0
 11 13  1  0  0  0  0
 11 14  1  0  0  0  0
  9 10  1  0  0  0  0
  9 11  1  0  0  0  0
  9 24  1  0  0  0  0
  7  8  1  0  0  0  0
  7  9  1  0  0  0  0
 28 29  1  0  0  0  0
 28 30  1  0  0  0  0
 28 31  1  0  0  0  0
 26 27  1  0  0  0  0
 26 28  1  0  0  0  0
M  END
$$$$
default_name
  -OEChem-02102213163D

 31 30  0     1  0  0  0  0  0999 V2000
   -3.5895   -3.5013    1.1082 H   0  0  0  0  0  0  0  0  0  0  0  0
   -3.5145   -2.5363    0.6082 C   0  0  0  0  0  0  0  0  0  0  0  0
   -4.2285   -1.8413    1.0452 H   0  0  0  0  0  0  0  0  0  0  0  0
   -3.7155   -2.6583   -0.4538 H   0  0  0  0  0  0  0  0  0  0  0  0
   -2.1155   -1.9963    0.7922 C   0  0  0  0  0  0  0  0  0  0  0  0
   -1.2875   -2.6383    1.4252 O   0  0  0  0  0  0  0  0  0  0  0  0
   -1.8575   -0.8123    0.2402 N   0  0  0  0  0  0  0  0  0  0  0  0
   -2.6005   -0.3333   -0.2478 H   0  0  0  0  0  0  0  0  0  0  0  0
   -0.5675   -0.1203    0.3102 C   0  0  1  0  0  0  0  0  0  0  0  0
    0.0191   -0.5718    1.1110 H   0  0  0  0  0  0  0  0  0  0  0  0
    0.1724   -0.3238   -1.0286 C   0  0  0  0  0  0  0  0  0  0  0  0
    0.2886   -1.3952   -1.2033 H   0  0  0  0  0  0  0  0  0  0  0  0
   -0.4581    0.0748   -1.8264 H   0  0  0  0  0  0  0  0  0  0  0  0
    1.5576    0.3399   -1.1357 C   0  0  0  0  0  0  0  0  0  0  0  0
    1.6696    1.0870   -0.3499 H   0  0  0  0  0  0  0  0  0  0  0  0
    2.6973   -0.6767   -1.0225 C   0  0  0  0  0  0  0  0  0  0  0  0
    2.5900   -1.4411   -1.7933 H   0  0  0  0  0  0  0  0  0  0  0  0
    3.6545   -0.1711   -1.1526 H   0  0  0  0  0  0  0  0  0  0  0  0
    2.6905   -1.1542   -0.0451 H   0  0  0  0  0  0  0  0  0  0  0  0
    1.6880    1.0480   -2.4837 C   0  0  0  0  0  0  0  0  0  0  0  0
    0.9065    1.8018   -2.5790 H   0  0  0  0  0  0  0  0  0  0  0  0
    2.6573    1.5420   -2.5508 H   0  0  0  0  0  0  0  0  0  0  0  0
    1.5942    0.3275   -3.2971 H   0  0  0  0  0  0  0  0  0  0  0  0
   -0.7793    1.3659    0.6455 C   0  0  0  0  0  0  0  0  0  0  0  0
   -1.6464    2.0125    0.0623 O   0  0  0  0  0  0  0  0  0  0  0  0
    0.0189    1.9059    1.5756 N   0  0  0  0  0  0  0  0  0  0  0  0
    0.7024    1.3094    2.0137 H   0  0  0  0  0  0  0  0  0  0  0  0
   -0.0451    3.3046    1.9929 C   0  0  0  0  0  0  0  0  0  0  0  0
   -1.0415    3.5286    2.3805 H   0  0  0  0  0  0  0  0  0  0  0  0
    0.6954    3.5023    2.7695 H   0  0  0  0  0  0  0  0  0  0  0  0
    0.1474    3.9536    1.1372 H   0  0  0  0  0  0  0  0  0  0  0  0
  5  6  2  0  0  0  0
  5  7  1  0  0  0  0
  2  3  1  0  0  0  0
  2  4  1  0  0  0  0
  2  5  1  0  0  0  0
  1  2  1  0  0  0  0
 24 25  2  0  0  0  0
 24 26  1  0  0  0  0
 20 21  1  0  0  0  0
 20 22  1  0  0  0  0
 20 23  1  0  0  0  0
 16 17  1  0  0  0  0
 16 18  1  0  0  0  0
 16 19  1  0  0  0  0
 14 15  1  0  0  0  0
 14 16  1  0  0  0  0
 14 20  1  0  0  0  0
 11 12  1  0  0  0  0
 11 13  1  0  0  0  0
 11 14  1  0  0  0  0
  9 10  1  0  0  0  0
  9 11  1  0  0  0  0
  9 24  1  0  0  0  0
  7  8  1  0  0  0  0
  7  9  1  0  0  0  0
 28 29  1  0  0  0  0
 28 30  1  0  0  0  0
 28 31  1  0  0  0  0
 26 27  1  0  0  0  0
 26 28  1  0  0  0  0
M  END
$$$$
default_name
  -OEChem-02102213163D

 31 30  0     1  0  0  0  0  0999 V2000
   -3.5895   -3.5013    1.1082 H   0  0  0  0  0  0  0  0  0  0  0  0
   -3.5145   -2.5363    0.6082 C   0  0  0  0  0  0  0  0  0  0  0  0
   -4.2285   -1.8413    1.0452 H   0  0  0  0  0  0  0  0  0  0  0  0
   -3.7155   -2.6583   -0.4538 H   0  0  0  0  0  0  0  0  0  0  0  0
   -2.1155   -1.9963    0.7922 C   0  0  0  0  0  0  0  0  0  0  0  0
   -1.2875   -2.6383    1.4252 O   0  0  0  0  0  0  0  0  0  0  0  0
   -1.8575   -0.8123    0.2402 N   0  0  0  0  0  0  0  0  0  0  0  0
   -2.6005   -0.3333   -0.2478 H   0  0  0  0  0  0  0  0  0  0  0  0
   -0.5675   -0.1203    0.3102 C   0  0  1  0  0  0  0  0  0  0  0  0
    0.0191   -0.5718    1.1110 H   0  0  0  0  0  0  0  0  0  0  0  0
    0.1724   -0.3238   -1.0286 C   0  0  0  0  0  0  0  0  0  0  0  0
    0.2886   -1.3952   -1.2033 H   0  0  0  0  0  0  0  0  0  0  0  0
   -0.4581    0.0748   -1.8264 H   0  0  0  0  0  0  0  0  0  0  0  0
    1.5576    0.3399   -1.1357 C   0  0  0  0  0  0  0  0  0  0  0  0
    1.7782    0.8819   -0.2161 H   0  0  0  0  0  0  0  0  0  0  0  0
    2.6706   -0.6804   -1.3916 C   0  0  0  0  0  0  0  0  0  0  0  0
    2.4557   -1.2428   -2.3012 H   0  0  0  0  0  0  0  0  0  0  0  0
    3.6231   -0.1630   -1.5089 H   0  0  0  0  0  0  0  0  0  0  0  0
    2.7559   -1.3733   -0.5572 H   0  0  0  0  0  0  0  0  0  0  0  0
    1.5617    1.3429   -2.2887 C   0  0  0  0  0  0  0  0  0  0  0  0
    0.7985    2.1019   -2.1171 H   0  0  0  0  0  0  0  0  0  0  0  0
    2.5328    1.8343   -2.3491 H   0  0  0  0  0  0  0  0  0  0  0  0
    1.3570    0.8332   -3.2308 H   0  0  0  0  0  0  0  0  0  0  0  0
   -0.7793    1.3659    0.6455 C   0  0  0  0  0  0  0  0  0  0  0  0
   -1.6464    2.0125    0.0623 O   0  0  0  0  0  0  0  0  0  0  0  0
    0.0189    1.9059    1.5756 N   0  0  0  0  0  0  0  0  0  0  0  0
    0.7024    1.3094    2.0137 H   0  0  0  0  0  0  0  0  0  0  0  0
   -0.0451    3.3046    1.9929 C   0  0  0  0  0  0  0  0  0  0  0  0
   -1.0415    3.5286    2.3805 H   0  0  0  0  0  0  0  0  0  0  0  0
    0.6954    3.5023    2.7695 H   0  0  0  0  0  0  0  0  0  0  0  0
    0.1474    3.9536    1.1372 H   0  0  0  0  0  0  0  0  0  0  0  0
  5  6  2  0  0  0  0
  5  7  1  0  0  0  0
  2  3  1  0  0  0  0
  2  4  1  0  0  0  0
  2  5  1  0  0  0  0
  1  2  1  0  0  0  0
 24 25  2  0  0  0  0
 24 26  1  0  0  0  0
 20 21  1  0  0  0  0
 20 22  1  0  0  0  0
 20 23  1  0  0  0  0
 16 17  1  0  0  0  0
 16 18  1  0  0  0  0
 16 19  1  0  0  0  0
 14 15  1  0  0  0  0
 14 16  1  0  0  0  0
 14 20  1  0  0  0  0
 11 12  1  0  0  0  0
 11 13  1  0  0  0  0
 11 14  1  0  0  0  0
  9 10  1  0  0  0  0
  9 11  1  0  0  0  0
  9 24  1  0  0  0  0
  7  8  1  0  0  0  0
  7  9  1  0  0  0  0
 28 29  1  0  0  0  0
 28 30  1  0  0  0  0
 28 31  1  0  0  0  0
 26 27  1  0  0  0  0
 26 28  1  0  0  0  0
M  END
$$$$
default_name
  -OEChem-02102213163D

 31 30  0     1  0  0  0  0  0999 V2000
   -3.5895   -3.5013    1.1082 H   0  0  0  0  0  0  0  0  0  0  0  0
   -3.5145   -2.5363    0.6082 C   0  0  0  0  0  0  0  0  0  0  0  0
   -4.2285   -1.8413    1.0452 H   0  0  0  0  0  0  0  0  0  0  0  0
   -3.7155   -2.6583   -0.4538 H   0  0  0  0  0  0  0  0  0  0  0  0
   -2.1155   -1.9963    0.7922 C   0  0  0  0  0  0  0  0  0  0  0  0
   -1.2875   -2.6383    1.4252 O   0  0  0  0  0  0  0  0  0  0  0  0
   -1.8575   -0.8123    0.2402 N   0  0  0  0  0  0  0  0  0  0  0  0
   -2.6005   -0.3333   -0.2478 H   0  0  0  0  0  0  0  0  0  0  0  0
   -0.5675   -0.1203    0.3102 C   0  0  1  0  0  0  0  0  0  0  0  0
    0.0191   -0.5718    1.1110 H   0  0  0  0  0  0  0  0  0  0  0  0
    0.1724   -0.3238   -1.0286 C   0  0  0  0  0  0  0  0  0  0  0  0
    0.2886   -1.3952   -1.2033 H   0  0  0  0  0  0  0  0  0  0  0  0
   -0.4581    0.0748   -1.8264 H   0  0  0  0  0  0  0  0  0  0  0  0
    1.5576    0.3399   -1.1357 C   0  0  0  0  0  0  0  0  0  0  0  0
    1.8943    0.6508   -0.1467 H   0  0  0  0  0  0  0  0  0  0  0  0
    2.6035   -0.5976   -1.7460 C   0  0  0  0  0  0  0  0  0  0  0  0
    2.2729   -0.9306   -2.7307 H   0  0  0  0  0  0  0  0  0  0  0  0
    3.5531   -0.0717   -1.8477 H   0  0  0  0  0  0  0  0  0  0  0  0
    2.7579   -1.4668   -1.1102 H   0  0  0  0  0  0  0  0  0  0  0  0
    1.4668    1.5847   -2.0175 C   0  0  0  0  0  0  0  0  0  0  0  0
    0.7510    2.2862   -1.5891 H   0  0  0  0  0  0  0  0  0  0  0  0
    2.4403    2.0719   -2.0724 H   0  0  0  0  0  0  0  0  0  0  0  0
    1.1445    1.3104   -3.0226 H   0  0  0  0  0  0  0  0  0  0  0  0
   -0.7793    1.3659    0.6455 C   0  0  0  0  0  0  0  0  0  0  0  0
   -1.6464    2.0125    0.0623 O   0  0  0  0  0  0  0  0  0  0  0  0
    0.0189    1.9059    1.5756 N   0  0  0  0  0  0  0  0  0  0  0  0
    0.7024    1.3094    2.0137 H   0  0  0  0  0  0  0  0  0  0  0  0
   -0.0451    3.3046    1.9929 C   0  0  0  0  0  0  0  0  0  0  0  0
   -1.0415    3.5286    2.3805 H   0  0  0  0  0  0  0  0  0  0  0  0
    0.6954    3.5023    2.7695 H   0  0  0  0  0  0  0  0  0  0  0  0
    0.1474    3.9536    1.1372 H   0  0  0  0  0  0  0  0  0  0  0  0
  5  6  2  0  0  0  0
  5  7  1  0  0  0  0
  2  3  1  0  0  0  0
  2  4  1  0  0  0  0
  2  5  1  0  0  0  0
  1  2  1  0  0  0  0
 24 25  2  0  0  0  0
 24 26  1  0  0  0  0
 20 21  1  0  0  0  0
 20 22  1  0  0  0  0
 20 23  1  0  0  0  0
 16 17  1  0  0  0  0
 16 18  1  0  0  0  0
 16 19  1  0  0  0  0
 14 15  1  0  0  0  0
 14 16  1  0  0  0  0
 14 20  1  0  0  0  0
 11 12  1  0  0  0  0
 11 13  1  0  0  0  0
 11 14  1  0  0  0  0
  9 10  1  0  0  0  0
  9 11  1  0  0  0  0
  9 24  1  0  0  0  0
  7  8  1  0  0  0  0
  7  9  1  0  0  0  0
 28 29  1  0  0  0  0
 28 30  1  0  0  0  0
 28 31  1  0  0  0  0
 26 27  1  0  0  0  0
 26 28  1  0  0  0  0
M  END
$$$$
default_name
  -OEChem-02102213163D

 31 30  0     1  0  0  0  0  0999 V2000
   -3.5895   -3.5013    1.1082 H   0  0  0  0  0  0  0  0  0  0  0  0
   -3.5145   -2.5363    0.6082 C   0  0  0  0  0  0  0  0  0  0  0  0
   -4.2285   -1.8413    1.0452 H   0  0  0  0  0  0  0  0  0  0  0  0
   -3.7155   -2.6583   -0.4538 H   0  0  0  0  0  0  0  0  0  0  0  0
   -2.1155   -1.9963    0.7922 C   0  0  0  0  0  0  0  0  0  0  0  0
   -1.2875   -2.6383    1.4252 O   0  0  0  0  0  0  0  0  0  0  0  0
   -1.8575   -0.8123    0.2402 N   0  0  0  0  0  0  0  0  0  0  0  0
   -2.6005   -0.3333   -0.2478 H   0  0  0  0  0  0  0  0  0  0  0  0
   -0.5675   -0.1203    0.3102 C   0  0  1  0  0  0  0  0  0  0  0  0
    0.0191   -0.5718    1.1110 H   0  0  0  0  0  0  0  0  0  0  0  0
    0.1724   -0.3238   -1.0286 C   0  0  0  0  0  0  0  0  0  0  0  0
    0.2886   -1.3952   -1.2033 H   0  0  0  0  0  0  0  0  0  0  0  0
   -0.4581    0.0748   -1.8264 H   0  0  0  0  0  0  0  0  0  0  0  0
    1.5576    0.3399   -1.1357 C   0  0  0  0  0  0  0  0  0  0  0  0
    2.0100    0.4092   -0.1465 H   0  0  0  0  0  0  0  0  0  0  0  0
    2.5007   -0.4339   -2.0615 C   0  0  0  0  0  0  0  0  0  0  0  0
    2.0541   -0.5258   -3.0525 H   0  0  0  0  0  0  0  0  0  0  0  0
    3.4494    0.0967   -2.1459 H   0  0  0  0  0  0  0  0  0  0  0  0
    2.6965   -1.4283   -1.6664 H   0  0  0  0  0  0  0  0  0  0  0  0
    1.4098    1.7568   -1.6887 C   0  0  0  0  0  0  0  0  0  0  0  0
    0.7674    2.3421   -1.0308 H   0  0  0  0  0  0  0  0  0  0  0  0
    2.3861    2.2387   -1.7395 H   0  0  0  0  0  0  0  0  0  0  0  0
    0.9709    1.7267   -2.6866 H   0  0  0  0  0  0  0  0  0  0  0  0
   -0.7793    1.3659    0.6455 C   0  0  0  0  0  0  0  0  0  0  0  0
   -1.6464    2.0125    0.0623 O   0  0  0  0  0  0  0  0  0  0  0  0
    0.0189    1.9059    1.5756 N   0  0  0  0  0  0  0  0  0  0  0  0
    0.7024    1.3094    2.0137 H   0  0  0  0  0  0  0  0  0  0  0  0
   -0.0451    3.3046    1.9929 C   0  0  0  0  0  0  0  0  0  0  0  0
   -1.0415    3.5286    2.3805 H   0  0  0  0  0  0  0  0  0  0  0  0
    0.6954    3.5023    2.7695 H   0  0  0  0  0  0  0  0  0  0  0  0
    0.1474    3.9536    1.1372 H   0  0  0  0  0  0  0  0  0  0  0  0
  5  6  2  0  0  0  0
  5  7  1  0  0  0  0
  2  3  1  0  0  0  0
  2  4  1  0  0  0  0
  2  5  1  0  0  0  0
  1  2  1  0  0  0  0
 24 25  2  0  0  0  0
 24 26  1  0  0  0  0
 20 21  1  0  0  0  0
 20 22  1  0  0  0  0
 20 23  1  0  0  0  0
 16 17  1  0  0  0  0
 16 18  1  0  0  0  0
 16 19  1  0  0  0  0
 14 15  1  0  0  0  0
 14 16  1  0  0  0  0
 14 20  1  0  0  0  0
 11 12  1  0  0  0  0
 11 13  1  0  0  0  0
 11 14  1  0  0  0  0
  9 10  1  0  0  0  0
  9 11  1  0  0  0  0
  9 24  1  0  0  0  0
  7  8  1  0  0  0  0
  7  9  1  0  0  0  0
 28 29  1  0  0  0  0
 28 30  1  0  0  0  0
 28 31  1  0  0  0  0
 26 27  1  0  0  0  0
 26 28  1  0  0  0  0
M  END
$$$$
default_name
  -OEChem-02102213163D

 31 30  0     1  0  0  0  0  0999 V2000
   -3.5895   -3.5013    1.1082 H   0  0  0  0  0  0  0  0  0  0  0  0
   -3.5145   -2.5363    0.6082 C   0  0  0  0  0  0  0  0  0  0  0  0
   -4.2285   -1.8413    1.0452 H   0  0  0  0  0  0  0  0  0  0  0  0
   -3.7155   -2.6583   -0.4538 H   0  0  0  0  0  0  0  0  0  0  0  0
   -2.1155   -1.9963    0.7922 C   0  0  0  0  0  0  0  0  0  0  0  0
   -1.2875   -2.6383    1.4252 O   0  0  0  0  0  0  0  0  0  0  0  0
   -1.8575   -0.8123    0.2402 N   0  0  0  0  0  0  0  0  0  0  0  0
   -2.6005   -0.3333   -0.2478 H   0  0  0  0  0  0  0  0  0  0  0  0
   -0.5675   -0.1203    0.3102 C   0  0  1  0  0  0  0  0  0  0  0  0
    0.0191   -0.5718    1.1110 H   0  0  0  0  0  0  0  0  0  0  0  0
    0.1724   -0.3238   -1.0286 C   0  0  0  0  0  0  0  0  0  0  0  0
    0.2886   -1.3952   -1.2033 H   0  0  0  0  0  0  0  0  0  0  0  0
   -0.4581    0.0748   -1.8264 H   0  0  0  0  0  0  0  0  0  0  0  0
    1.5576    0.3399   -1.1357 C   0  0  0  0  0  0  0  0  0  0  0  0
    2.1175    0.1738   -0.2154 H   0  0  0  0  0  0  0  0  0  0  0  0
    2.3691   -0.2004   -2.3167 C   0  0  0  0  0  0  0  0  0  0  0  0
    1.8141   -0.0559   -3.2446 H   0  0  0  0  0  0  0  0  0  0  0  0
    3.3189    0.3306   -2.3831 H   0  0  0  0  0  0  0  0  0  0  0  0
    2.5758   -1.2606   -2.1878 H   0  0  0  0  0  0  0  0  0  0  0  0
    1.3944    1.8476   -1.3247 C   0  0  0  0  0  0  0  0  0  0  0  0
    0.8465    2.2658   -0.4804 H   0  0  0  0  0  0  0  0  0  0  0  0
    2.3740    2.3233   -1.3731 H   0  0  0  0  0  0  0  0  0  0  0  0
    0.8483    2.0538   -2.2459 H   0  0  0  0  0  0  0  0  0  0  0  0
   -0.7793    1.3659    0.6455 C   0  0  0  0  0  0  0  0  0  0  0  0
   -1.6464    2.0125    0.0623 O   0  0  0  0  0  0  0  0  0  0  0  0
    0.0189    1.9059    1.5756 N   0  0  0  0  0  0  0  0  0  0  0  0
    0.7024    1.3094    2.0137 H   0  0  0  0  0  0  0  0  0  0  0  0
   -0.0451    3.3046    1.9929 C   0  0  0  0  0  0  0  0  0  0  0  0
   -1.0415    3.5286    2.3805 H   0  0  0  0  0  0  0  0  0  0  0  0
    0.6954    3.5023    2.7695 H   0  0  0  0  0  0  0  0  0  0  0  0
    0.1474    3.9536    1.1372 H   0  0  0  0  0  0  0  0  0  0  0  0
  5  6  2  0  0  0  0
  5  7  1  0  0  0  0
  2  3  1  0  0  0  0
  2  4  1  0  0  0  0
  2  5  1  0  0  0  0
  1  2  1  0  0  0  0
 24 25  2  0  0  0  0
 24 26  1  0  0  0  0
 20 21  1  0  0  0  0
 20 22  1  0  0  0  0
 20 23  1  0  0  0  0
 16 17  1  0  0  0  0
 16 18  1  0  0  0  0
 16 19  1  0  0  0  0
 14 15  1  0  0  0  0
 14 16  1  0  0  0  0
 14 20  1  0  0  0  0
 11 12  1  0  0  0  0
 11 13  1  0  0  0  0
 11 14  1  0  0  0  0
  9 10  1  0  0  0  0
  9 11  1  0  0  0  0
  9 24  1  0  0  0  0
  7  8  1  0  0  0  0
  7  9  1  0  0  0  0
 28 29  1  0  0  0  0
 28 30  1  0  0  0  0
 28 31  1  0  0  0  0
 26 27  1  0  0  0  0
 26 28  1  0  0  0  0
M  END
$$$$
default_name
  -OEChem-02102213163D

 31 30  0     1  0  0  0  0  0999 V2000
   -3.5895   -3.5013    1.1082 H   0  0  0  0  0  0  0  0  0  0  0  0
   -3.5145   -2.5363    0.6082 C   0  0  0  0  0  0  0  0  0  0  0  0
   -4.2285   -1.8413    1.0452 H   0  0  0  0  0  0  0  0  0  0  0  0
   -3.7155   -2.6583   -0.4538 H   0  0  0  0  0  0  0  0  0  0  0  0
   -2.1155   -1.9963    0.7922 C   0  0  0  0  0  0  0  0  0  0  0  0
   -1.2875   -2.6383    1.4252 O   0  0  0  0  0  0  0  0  0  0  0  0
   -1.8575   -0.8123    0.2402 N   0  0  0  0  0  0  0  0  0  0  0  0
   -2.6005   -0.3333   -0.2478 H   0  0  0  0  0  0  0  0  0  0  0  0
   -0.5675   -0.1203    0.3102 C   0  0  1  0  0  0  0  0  0  0  0  0
    0.0191   -0.5718    1.1110 H   0  0  0  0  0  0  0  0  0  0  0  0
    0.1724   -0.3238   -1.0286 C   0  0  0  0  0  0  0  0  0  0  0  0
    0.0558   -1.3647   -1.3366 H   0  0  0  0  0  0  0  0  0  0  0  0
   -0.3144    0.3003   -1.7813 H   0  0  0  0  0  0  0  0  0  0  0  0
    1.6740    0.0165   -1.0222 C   0  0  0  0  0  0  0  0  0  0  0  0
    2.1863   -0.5925   -0.2774 H   0  0  0  0  0  0  0  0  0  0  0  0
    2.3262   -0.2144   -2.3885 C   0  0  0  0  0  0  0  0  0  0  0  0
    1.8135    0.3769   -3.1484 H   0  0  0  0  0  0  0  0  0  0  0  0
    3.3738    0.0851   -2.3505 H   0  0  0  0  0  0  0  0  0  0  0  0
    2.2785   -1.2657   -2.6642 H   0  0  0  0  0  0  0  0  0  0  0  0
    1.8689    1.4852   -0.6476 C   0  0  0  0  0  0  0  0  0  0  0  0
    1.4415    1.6722    0.3375 H   0  0  0  0  0  0  0  0  0  0  0  0
    2.9325    1.7216   -0.6154 H   0  0  0  0  0  0  0  0  0  0  0  0
    1.3795    2.1279   -1.3802 H   0  0  0  0  0  0  0  0  0  0  0  0
   -0.7793    1.3659    0.6455 C   0  0  0  0  0  0  0  0  0  0  0  0
   -1.6464    2.0125    0.0623 O   0  0  0  0  0  0  0  0  0  0  0  0
    0.0189    1.9059    1.5756 N   0  0  0  0  0  0  0  0  0  0  0  0
    0.7024    1.3094    2.0137 H   0  0  0  0  0  0  0  0  0  0  0  0
   -0.0451    3.3046    1.9929 C   0  0  0  0  0  0  0  0  0  0  0  0
   -1.0415    3.5286    2.3805 H   0  0  0  0  0  0  0  0  0  0  0  0
    0.6954    3.5023    2.7695 H   0  0  0  0  0  0  0  0  0  0  0  0
    0.1474    3.9536    1.1372 H   0  0  0  0  0  0  0  0  0  0  0  0
  5  6  2  0  0  0  0
  5  7  1  0  0  0  0
  2  3  1  0  0  0  0
  2  4  1  0  0  0  0
  2  5  1  0  0  0  0
  1  2  1  0  0  0  0
 24 25  2  0  0  0  0
 24 26  1  0  0  0  0
 20 21  1  0  0  0  0
 20 22  1  0  0  0  0
 20 23  1  0  0  0  0
 16 17  1  0  0  0  0
 16 18  1  0  0  0  0
 16 19  1  0  0  0  0
 14 15  1  0  0  0  0
 14 16  1  0  0  0  0
 14 20  1  0  0  0  0
 11 12  1  0  0  0  0
 11 13  1  0  0  0  0
 11 14  1  0  0  0  0
  9 10  1  0  0  0  0
  9 11  1  0  0  0  0
  9 24  1  0  0  0  0
  7  8  1  0  0  0  0
  7  9  1  0  0  0  0
 28 29  1  0  0  0  0
 28 30  1  0  0  0  0
 28 31  1  0  0  0  0
 26 27  1  0  0  0  0
 26 28  1  0  0  0  0
M  END
$$$$
default_name
  -OEChem-02102213163D

 31 30  0     1  0  0  0  0  0999 V2000
   -3.5895   -3.5013    1.1082 H   0  0  0  0  0  0  0  0  0  0  0  0
   -3.5145   -2.5363    0.6082 C   0  0  0  0  0  0  0  0  0  0  0  0
   -4.2285   -1.8413    1.0452 H   0  0  0  0  0  0  0  0  0  0  0  0
   -3.7155   -2.6583   -0.4538 H   0  0  0  0  0  0  0  0  0  0  0  0
   -2.1155   -1.9963    0.7922 C   0  0  0  0  0  0  0  0  0  0  0  0
   -1.2875   -2.6383    1.4252 O   0  0  0  0  0  0  0  0  0  0  0  0
   -1.8575   -0.8123    0.2402 N   0  0  0  0  0  0  0  0  0  0  0  0
   -2.6005   -0.3333   -0.2478 H   0  0  0  0  0  0  0  0  0  0  0  0
   -0.5675   -0.1203    0.3102 C   0  0  1  0  0  0  0  0  0  0  0  0
    0.0191   -0.5718    1.1110 H   0  0  0  0  0  0  0  0  0  0  0  0
    0.1724   -0.3238   -1.0286 C   0  0  0  0  0  0  0  0  0  0  0  0
    0.0558   -1.3647   -1.3366 H   0  0  0  0  0  0  0  0  0  0  0  0
   -0.3144    0.3003   -1.7813 H   0  0  0  0  0  0  0  0  0  0  0  0
    1.6740    0.0165   -1.0222 C   0  0  0  0  0  0  0  0  0  0  0  0
    2.2244   -0.7565   -0.4858 H   0  0  0  0  0  0  0  0  0  0  0  0
    2.2453    0.1434   -2.4374 C   0  0  0  0  0  0  0  0  0  0  0  0
    1.6936    0.9030   -2.9929 H   0  0  0  0  0  0  0  0  0  0  0  0
    3.2952    0.4324   -2.3850 H   0  0  0  0  0  0  0  0  0  0  0  0
    2.1753   -0.8046   -2.9664 H   0  0  0  0  0  0  0  0  0  0  0  0
    1.8993    1.3447   -0.3007 C   0  0  0  0  0  0  0  0  0  0  0  0
    1.5302    1.2734    0.7224 H   0  0  0  0  0  0  0  0  0  0  0  0
    2.9644    1.5742   -0.2706 H   0  0  0  0  0  0  0  0  0  0  0  0
    1.3727    2.1473   -0.8182 H   0  0  0  0  0  0  0  0  0  0  0  0
   -0.7793    1.3659    0.6455 C   0  0  0  0  0  0  0  0  0  0  0  0
   -1.6464    2.0125    0.0623 O   0  0  0  0  0  0  0  0  0  0  0  0
    0.0189    1.9059    1.5756 N   0  0  0  0  0  0  0  0  0  0  0  0
    0.7024    1.3094    2.0137 H   0  0  0  0  0  0  0  0  0  0  0  0
   -0.0451    3.3046    1.9929 C   0  0  0  0  0  0  0  0  0  0  0  0
   -1.0415    3.5286    2.3805 H   0  0  0  0  0  0  0  0  0  0  0  0
    0.6954    3.5023    2.7695 H   0  0  0  0  0  0  0  0  0  0  0  0
    0.1474    3.9536    1.1372 H   0  0  0  0  0  0  0  0  0  0  0  0
  5  6  2  0  0  0  0
  5  7  1  0  0  0  0
  2  3  1  0  0  0  0
  2  4  1  0  0  0  0
  2  5  1  0  0  0  0
  1  2  1  0  0  0  0
 24 25  2  0  0  0  0
 24 26  1  0  0  0  0
 20 21  1  0  0  0  0
 20 22  1  0  0  0  0
 20 23  1  0  0  0  0
 16 17  1  0  0  0  0
 16 18  1  0  0  0  0
 16 19  1  0  0  0  0
 14 15  1  0  0  0  0
 14 16  1  0  0  0  0
 14 20  1  0  0  0  0
 11 12  1  0  0  0  0
 11 13  1  0  0  0  0
 11 14  1  0  0  0  0
  9 10  1  0  0  0  0
  9 11  1  0  0  0  0
  9 24  1  0  0  0  0
  7  8  1  0  0  0  0
  7  9  1  0  0  0  0
 28 29  1  0  0  0  0
 28 30  1  0  0  0  0
 28 31  1  0  0  0  0
 26 27  1  0  0  0  0
 26 28  1  0  0  0  0
M  END
$$$$
default_name
  -OEChem-02102213163D

 31 30  0     1  0  0  0  0  0999 V2000
   -3.5895   -3.5013    1.1082 H   0  0  0  0  0  0  0  0  0  0  0  0
   -3.5145   -2.5363    0.6082 C   0  0  0  0  0  0  0  0  0  0  0  0
   -4.2285   -1.8413    1.0452 H   0  0  0  0  0  0  0  0  0  0  0  0
   -3.7155   -2.6583   -0.4538 H   0  0  0  0  0  0  0  0  0  0  0  0
   -2.1155   -1.9963    0.7922 C   0  0  0  0  0  0  0  0  0  0  0  0
   -1.2875   -2.6383    1.4252 O   0  0  0  0  0  0  0  0  0  0  0  0
   -1.8575   -0.8123    0.2402 N   0  0  0  0  0  0  0  0  0  0  0  0
   -2.6005   -0.3333   -0.2478 H   0  0  0  0  0  0  0  0  0  0  0  0
   -0.5675   -0.1203    0.3102 C   0  0  1  0  0  0  0  0  0  0  0  0
    0.0191   -0.5718    1.1110 H   0  0  0  0  0  0  0  0  0  0  0  0
    0.1724   -0.3238   -1.0286 C   0  0  0  0  0  0  0  0  0  0  0  0
    0.0558   -1.3647   -1.3366 H   0  0  0  0  0  0  0  0  0  0  0  0
   -0.3144    0.3003   -1.7813 H   0  0  0  0  0  0  0  0  0  0  0  0
    1.6740    0.0165   -1.0222 C   0  0  0  0  0  0  0  0  0  0  0  0
    2.2494   -0.8622   -0.7306 H   0  0  0  0  0  0  0  0  0  0  0  0
    2.1640    0.5013   -2.3898 C   0  0  0  0  0  0  0  0  0  0  0  0
    1.5861    1.3718   -2.7031 H   0  0  0  0  0  0  0  0  0  0  0  0
    3.2170    0.7765   -2.3260 H   0  0  0  0  0  0  0  0  0  0  0  0
    2.0579   -0.2831   -3.1360 H   0  0  0  0  0  0  0  0  0  0  0  0
    1.9486    1.1215   -0.0029 C   0  0  0  0  0  0  0  0  0  0  0  0
    1.6384    0.7912    0.9884 H   0  0  0  0  0  0  0  0  0  0  0  0
    3.0151    1.3449    0.0234 H   0  0  0  0  0  0  0  0  0  0  0  0
    1.3982    2.0242   -0.2700 H   0  0  0  0  0  0  0  0  0  0  0  0
   -0.7793    1.3659    0.6455 C   0  0  0  0  0  0  0  0  0  0  0  0
   -1.6464    2.0125    0.0623 O   0  0  0  0  0  0  0  0  0  0  0  0
    0.0189    1.9059    1.5756 N   0  0  0  0  0  0  0  0  0  0  0  0
    0.7024    1.3094    2.0137 H   0  0  0  0  0  0  0  0  0  0  0  0
   -0.0451    3.3046    1.9929 C   0  0  0  0  0  0  0  0  0  0  0  0
   -1.0415    3.5286    2.3805 H   0  0  0  0  0  0  0  0  0  0  0  0
    0.6954    3.5023    2.7695 H   0  0  0  0  0  0  0  0  0  0  0  0
    0.1474    3.9536    1.1372 H   0  0  0  0  0  0  0  0  0  0  0  0
  5  6  2  0  0  0  0
  5  7  1  0  0  0  0
  2  3  1  0  0  0  0
  2  4  1  0  0  0  0
  2  5  1  0  0  0  0
  1  2  1  0  0  0  0
 24 25  2  0  0  0  0
 24 26  1  0  0  0  0
 20 21  1  0  0  0  0
 20 22  1  0  0  0  0
 20 23  1  0  0  0  0
 16 17  1  0  0  0  0
 16 18  1  0  0  0  0
 16 19  1  0  0  0  0
 14 15  1  0  0  0  0
 14 16  1  0  0  0  0
 14 20  1  0  0  0  0
 11 12  1  0  0  0  0
 11 13  1  0  0  0  0
 11 14  1  0  0  0  0
  9 10  1  0  0  0  0
  9 11  1  0  0  0  0
  9 24  1  0  0  0  0
  7  8  1  0  0  0  0
  7  9  1  0  0  0  0
 28 29  1  0  0  0  0
 28 30  1  0  0  0  0
 28 31  1  0  0  0  0
 26 27  1  0  0  0  0
 26 28  1  0  0  0  0
M  END
$$$$
default_name
  -OEChem-02102213163D

 31 30  0     1  0  0  0  0  0999 V2000
   -3.5895   -3.5013    1.1082 H   0  0  0  0  0  0  0  0  0  0  0  0
   -3.5145   -2.5363    0.6082 C   0  0  0  0  0  0  0  0  0  0  0  0
   -4.2285   -1.8413    1.0452 H   0  0  0  0  0  0  0  0  0  0  0  0
   -3.7155   -2.6583   -0.4538 H   0  0  0  0  0  0  0  0  0  0  0  0
   -2.1155   -1.9963    0.7922 C   0  0  0  0  0  0  0  0  0  0  0  0
   -1.2875   -2.6383    1.4252 O   0  0  0  0  0  0  0  0  0  0  0  0
   -1.8575   -0.8123    0.2402 N   0  0  0  0  0  0  0  0  0  0  0  0
   -2.6005   -0.3333   -0.2478 H   0  0  0  0  0  0  0  0  0  0  0  0
   -0.5675   -0.1203    0.3102 C   0  0  1  0  0  0  0  0  0  0  0  0
    0.0191   -0.5718    1.1110 H   0  0  0  0  0  0  0  0  0  0  0  0
    0.1724   -0.3238   -1.0286 C   0  0  0  0  0  0  0  0  0  0  0  0
    0.0558   -1.3647   -1.3366 H   0  0  0  0  0  0  0  0  0  0  0  0
   -0.3144    0.3003   -1.7813 H   0  0  0  0  0  0  0  0  0  0  0  0
    1.6740    0.0165   -1.0222 C   0  0  0  0  0  0  0  0  0  0  0  0
    2.2596   -0.9024   -0.9952 H   0  0  0  0  0  0  0  0  0  0  0  0
    2.0878    0.8348   -2.2487 C   0  0  0  0  0  0  0  0  0  0  0  0
    1.4983    1.7514   -2.2987 H   0  0  0  0  0  0  0  0  0  0  0  0
    3.1444    1.0939   -2.1778 H   0  0  0  0  0  0  0  0  0  0  0  0
    1.9341    0.2633   -3.1616 H   0  0  0  0  0  0  0  0  0  0  0  0
    2.0135    0.8307    0.2257 C   0  0  0  0  0  0  0  0  0  0  0  0
    1.7586    0.2583    1.1175 H   0  0  0  0  0  0  0  0  0  0  0  0
    3.0812    1.0493    0.2466 H   0  0  0  0  0  0  0  0  0  0  0  0
    1.4544    1.7670    0.2269 H   0  0  0  0  0  0  0  0  0  0  0  0
   -0.7793    1.3659    0.6455 C   0  0  0  0  0  0  0  0  0  0  0  0
   -1.6464    2.0125    0.0623 O   0  0  0  0  0  0  0  0  0  0  0  0
    0.0189    1.9059    1.5756 N   0  0  0  0  0  0  0  0  0  0  0  0
    0.7024    1.3094    2.0137 H   0  0  0  0  0  0  0  0  0  0  0  0
   -0.0451    3.3046    1.9929 C   0  0  0  0  0  0  0  0  0  0  0  0
   -1.0415    3.5286    2.3805 H   0  0  0  0  0  0  0  0  0  0  0  0
    0.6954    3.5023    2.7695 H   0  0  0  0  0  0  0  0  0  0  0  0
    0.1474    3.9536    1.1372 H   0  0  0  0  0  0  0  0  0  0  0  0
  5  6  2  0  0  0  0
  5  7  1  0  0  0  0
  2  3  1  0  0  0  0
  2  4  1  0  0  0  0
  2  5  1  0  0  0  0
  1  2  1  0  0  0  0
 24 25  2  0  0  0  0
 24 26  1  0  0  0  0
 20 21  1  0  0  0  0
 20 22  1  0  0  0  0
 20 23  1  0  0  0  0
 16 17  1  0  0  0  0
 16 18  1  0  0  0  0
 16 19  1  0  0  0  0
 14 15  1  0  0  0  0
 14 16  1  0  0  0  0
 14 20  1  0  0  0  0
 11 12  1  0  0  0  0
 11 13  1  0  0  0  0
 11 14  1  0  0  0  0
  9 10  1  0  0  0  0
  9 11  1  0  0  0  0
  9 24  1  0  0  0  0
  7  8  1  0  0  0  0
  7  9  1  0  0  0  0
 28 29  1  0  0  0  0
 28 30  1  0  0  0  0
 28 31  1  0  0  0  0
 26 27  1  0  0  0  0
 26 28  1  0  0  0  0
M  END
$$$$
default_name
  -OEChem-02102213163D

 31 30  0     1  0  0  0  0  0999 V2000
   -3.5895   -3.5013    1.1082 H   0  0  0  0  0  0  0  0  0  0  0  0
   -3.5145   -2.5363    0.6082 C   0  0  0  0  0  0  0  0  0  0  0  0
   -4.2285   -1.8413    1.0452 H   0  0  0  0  0  0  0  0  0  0  0  0
   -3.7155   -2.6583   -0.4538 H   0  0  0  0  0  0  0  0  0  0  0  0
   -2.1155   -1.9963    0.7922 C   0  0  0  0  0  0  0  0  0  0  0  0
   -1.2875   -2.6383    1.4252 O   0  0  0  0  0  0  0  0  0  0  0  0
   -1.8575   -0.8123    0.2402 N   0  0  0  0  0  0  0  0  0  0  0  0
   -2.6005   -0.3333   -0.2478 H   0  0  0  0  0  0  0  0  0  0  0  0
   -0.5675   -0.1203    0.3102 C   0  0  1  0  0  0  0  0  0  0  0  0
    0.0191   -0.5718    1.1110 H   0  0  0  0  0  0  0  0  0  0  0  0
    0.1724   -0.3238   -1.0286 C   0  0  0  0  0  0  0  0  0  0  0  0
    0.0558   -1.3647   -1.3366 H   0  0  0  0  0  0  0  0  0  0  0  0
   -0.3144    0.3003   -1.7813 H   0  0  0  0  0  0  0  0  0  0  0  0
    1.6740    0.0165   -1.0222 C   0  0  0  0  0  0  0  0  0  0  0  0
    2.2545   -0.8745   -1.2615 H   0  0  0  0  0  0  0  0  0  0  0  0
    2.0219    1.1214   -2.0240 C   0  0  0  0  0  0  0  0  0  0  0  0
    1.4363    2.0158   -1.8072 H   0  0  0  0  0  0  0  0  0  0  0  0
    3.0825    1.3631   -1.9504 H   0  0  0  0  0  0  0  0  0  0  0  0
    1.8126    0.7975   -3.0412 H   0  0  0  0  0  0  0  0  0  0  0  0
    2.0896    0.4922    0.3693 C   0  0  0  0  0  0  0  0  0  0  0  0
    1.8827   -0.2888    1.1008 H   0  0  0  0  0  0  0  0  0  0  0  0
    3.1581    0.7074    0.3838 H   0  0  0  0  0  0  0  0  0  0  0  0
    1.5374    1.3932    0.6388 H   0  0  0  0  0  0  0  0  0  0  0  0
   -0.7793    1.3659    0.6455 C   0  0  0  0  0  0  0  0  0  0  0  0
   -1.6464    2.0125    0.0623 O   0  0  0  0  0  0  0  0  0  0  0  0
    0.0189    1.9059    1.5756 N   0  0  0  0  0  0  0  0  0  0  0  0
    0.7024    1.3094    2.0137 H   0  0  0  0  0  0  0  0  0  0  0  0
   -0.0451    3.3046    1.9929 C   0  0  0  0  0  0  0  0  0  0  0  0
   -1.0415    3.5286    2.3805 H   0  0  0  0  0  0  0  0  0  0  0  0
    0.6954    3.5023    2.7695 H   0  0  0  0  0  0  0  0  0  0  0  0
    0.1474    3.9536    1.1372 H   0  0  0  0  0  0  0  0  0  0  0  0
  5  6  2  0  0  0  0
  5  7  1  0  0  0  0
  2  3  1  0  0  0  0
  2  4  1  0  0  0  0
  2  5  1  0  0  0  0
  1  2  1  0  0  0  0
 24 25  2  0  0  0  0
 24 26  1  0  0  0  0
 20 21  1  0  0  0  0
 20 22  1  0  0  0  0
 20 23  1  0  0  0  0
 16 17  1  0  0  0  0
 16 18  1  0  0  0  0
 16 19  1  0  0  0  0
 14 15  1  0  0  0  0
 14 16  1  0  0  0  0
 14 20  1  0  0  0  0
 11 12  1  0  0  0  0
 11 13  1  0  0  0  0
 11 14  1  0  0  0  0
  9 10  1  0  0  0  0
  9 11  1  0  0  0  0
  9 24  1  0  0  0  0
  7  8  1  0  0  0  0
  7  9  1  0  0  0  0
 28 29  1  0  0  0  0
 28 30  1  0  0  0  0
 28 31  1  0  0  0  0
 26 27  1  0  0  0  0
 26 28  1  0  0  0  0
M  END
$$$$
default_name
  -OEChem-02102213163D

 31 30  0     1  0  0  0  0  0999 V2000
   -3.5895   -3.5013    1.1082 H   0  0  0  0  0  0  0  0  0  0  0  0
   -3.5145   -2.5363    0.6082 C   0  0  0  0  0  0  0  0  0  0  0  0
   -4.2285   -1.8413    1.0452 H   0  0  0  0  0  0  0  0  0  0  0  0
   -3.7155   -2.6583   -0.4538 H   0  0  0  0  0  0  0  0  0  0  0  0
   -2.1155   -1.9963    0.7922 C   0  0  0  0  0  0  0  0  0  0  0  0
   -1.2875   -2.6383    1.4252 O   0  0  0  0  0  0  0  0  0  0  0  0
   -1.8575   -0.8123    0.2402 N   0  0  0  0  0  0  0  0  0  0  0  0
   -2.6005   -0.3333   -0.2478 H   0  0  0  0  0  0  0  0  0  0  0  0
   -0.5675   -0.1203    0.3102 C   0  0  1  0  0  0  0  0  0  0  0  0
    0.0191   -0.5718    1.1110 H   0  0  0  0  0  0  0  0  0  0  0  0
    0.1724   -0.3238   -1.0286 C   0  0  0  0  0  0  0  0  0  0  0  0
    0.0558   -1.3647   -1.3366 H   0  0  0  0  0  0  0  0  0  0  0  0
   -0.3144    0.3003   -1.7813 H   0  0  0  0  0  0  0  0  0  0  0  0
    1.6740    0.0165   -1.0222 C   0  0  0  0  0  0  0  0  0  0  0  0
    2.2342   -0.7804   -1.5114 H   0  0  0  0  0  0  0  0  0  0  0  0
    1.9708    1.3413   -1.7308 C   0  0  0  0  0  0  0  0  0  0  0  0
    1.4042    2.1471   -1.2622 H   0  0  0  0  0  0  0  0  0  0  0  0
    3.0353    1.5655   -1.6592 H   0  0  0  0  0  0  0  0  0  0  0  0
    1.7014    1.2829   -2.7832 H   0  0  0  0  0  0  0  0  0  0  0  0
    2.1717    0.1291    0.4183 C   0  0  0  0  0  0  0  0  0  0  0  0
    2.0022   -0.8130    0.9395 H   0  0  0  0  0  0  0  0  0  0  0  0
    3.2406    0.3427    0.4256 H   0  0  0  0  0  0  0  0  0  0  0  0
    1.6415    0.9282    0.9375 H   0  0  0  0  0  0  0  0  0  0  0  0
   -0.7793    1.3659    0.6455 C   0  0  0  0  0  0  0  0  0  0  0  0
   -1.6464    2.0125    0.0623 O   0  0  0  0  0  0  0  0  0  0  0  0
    0.0189    1.9059    1.5756 N   0  0  0  0  0  0  0  0  0  0  0  0
    0.7024    1.3094    2.0137 H   0  0  0  0  0  0  0  0  0  0  0  0
   -0.0451    3.3046    1.9929 C   0  0  0  0  0  0  0  0  0  0  0  0
   -1.0415    3.5286    2.3805 H   0  0  0  0  0  0  0  0  0  0  0  0
    0.6954    3.5023    2.7695 H   0  0  0  0  0  0  0  0  0  0  0  0
    0.1474    3.9536    1.1372 H   0  0  0  0  0  0  0  0  0  0  0  0
  5  6  2  0  0  0  0
  5  7  1  0  0  0  0
  2  3  1  0  0  0  0
  2  4  1  0  0  0  0
  2  5  1  0  0  0  0
  1  2  1  0  0  0  0
 24 25  2  0  0  0  0
 24 26  1  0  0  0  0
 20 21  1  0  0  0  0
 20 22  1  0  0  0  0
 20 23  1  0  0  0  0
 16 17  1  0  0  0  0
 16 18  1  0  0  0  0
 16 19  1  0  0  0  0
 14 15  1  0  0  0  0
 14 16  1  0  0  0  0
 14 20  1  0  0  0  0
 11 12  1  0  0  0  0
 11 13  1  0  0  0  0
 11 14  1  0  0  0  0
  9 10  1  0  0  0  0
  9 11  1  0  0  0  0
  9 24  1  0  0  0  0
  7  8  1  0  0  0  0
  7  9  1  0  0  0  0
 28 29  1  0  0  0  0
 28 30  1  0  0  0  0
 28 31  1  0  0  0  0
 26 27  1  0  0  0  0
 26 28  1  0  0  0  0
M  END
$$$$
default_name
  -OEChem-02102213163D

 31 30  0     1  0  0  0  0  0999 V2000
   -3.5895   -3.5013    1.1082 H   0  0  0  0  0  0  0  0  0  0  0  0
   -3.5145   -2.5363    0.6082 C   0  0  0  0  0  0  0  0  0  0  0  0
   -4.2285   -1.8413    1.0452 H   0  0  0  0  0  0  0  0  0  0  0  0
   -3.7155   -2.6583   -0.4538 H   0  0  0  0  0  0  0  0  0  0  0  0
   -2.1155   -1.9963    0.7922 C   0  0  0  0  0  0  0  0  0  0  0  0
   -1.2875   -2.6383    1.4252 O   0  0  0  0  0  0  0  0  0  0  0  0
   -1.8575   -0.8123    0.2402 N   0  0  0  0  0  0  0  0  0  0  0  0
   -2.6005   -0.3333   -0.2478 H   0  0  0  0  0  0  0  0  0  0  0  0
   -0.5675   -0.1203    0.3102 C   0  0  1  0  0  0  0  0  0  0  0  0
    0.0191   -0.5718    1.1110 H   0  0  0  0  0  0  0  0  0  0  0  0
    0.1724   -0.3238   -1.0286 C   0  0  0  0  0  0  0  0  0  0  0  0
    0.0558   -1.3647   -1.3366 H   0  0  0  0  0  0  0  0  0  0  0  0
   -0.3144    0.3003   -1.7813 H   0  0  0  0  0  0  0  0  0  0  0  0
    1.6740    0.0165   -1.0222 C   0  0  0  0  0  0  0  0  0  0  0  0
    2.2002   -0.6264   -1.7279 H   0  0  0  0  0  0  0  0  0  0  0  0
    1.9380    1.4797   -1.3891 C   0  0  0  0  0  0  0  0  0  0  0  0
    1.4043    2.1364   -0.7007 H   0  0  0  0  0  0  0  0  0  0  0  0
    3.0062    1.6875   -1.3241 H   0  0  0  0  0  0  0  0  0  0  0  0
    1.6084    1.6865   -2.4050 H   0  0  0  0  0  0  0  0  0  0  0  0
    2.2542   -0.2339    0.3692 C   0  0  0  0  0  0  0  0  0  0  0  0
    2.1089   -1.2785    0.6445 H   0  0  0  0  0  0  0  0  0  0  0  0
    3.3230   -0.0201    0.3692 H   0  0  0  0  0  0  0  0  0  0  0  0
    1.7596    0.4038    1.1028 H   0  0  0  0  0  0  0  0  0  0  0  0
   -0.7793    1.3659    0.6455 C   0  0  0  0  0  0  0  0  0  0  0  0
   -1.6464    2.0125    0.0623 O   0  0  0  0  0  0  0  0  0  0  0  0
    0.0189    1.9059    1.5756 N   0  0  0  0  0  0  0  0  0  0  0  0
    0.7024    1.3094    2.0137 H   0  0  0  0  0  0  0  0  0  0  0  0
   -0.0451    3.3046    1.9929 C   0  0  0  0  0  0  0  0  0  0  0  0
   -1.0415    3.5286    2.3805 H   0  0  0  0  0  0  0  0  0  0  0  0
    0.6954    3.5023    2.7695 H   0  0  0  0  0  0  0  0  0  0  0  0
    0.1474    3.9536    1.1372 H   0  0  0  0  0  0  0  0  0  0  0  0
  5  6  2  0  0  0  0
  5  7  1  0  0  0  0
  2  3  1  0  0  0  0
  2  4  1  0  0  0  0
  2  5  1  0  0  0  0
  1  2  1  0  0  0  0
 24 25  2  0  0  0  0
 24 26  1  0  0  0  0
 20 21  1  0  0  0  0
 20 22  1  0  0  0  0
 20 23  1  0  0  0  0
 16 17  1  0  0  0  0
 16 18  1  0  0  0  0
 16 19  1  0  0  0  0
 14 15  1  0  0  0  0
 14 16  1  0  0  0  0
 14 20  1  0  0  0  0
 11 12  1  0  0  0  0
 11 13  1  0  0  0  0
 11 14  1  0  0  0  0
  9 10  1  0  0  0  0
  9 11  1  0  0  0  0
  9 24  1  0  0  0  0
  7  8  1  0  0  0  0
  7  9  1  0  0  0  0
 28 29  1  0  0  0  0
 28 30  1  0  0  0  0
 28 31  1  0  0  0  0
 26 27  1  0  0  0  0
 26 28  1  0  0  0  0
M  END
$$$$
default_name
  -OEChem-02102213163D

 31 30  0     1  0  0  0  0  0999 V2000
   -3.5895   -3.5013    1.1082 H   0  0  0  0  0  0  0  0  0  0  0  0
   -3.5145   -2.5363    0.6082 C   0  0  0  0  0  0  0  0  0  0  0  0
   -4.2285   -1.8413    1.0452 H   0  0  0  0  0  0  0  0  0  0  0  0
   -3.7155   -2.6583   -0.4538 H   0  0  0  0  0  0  0  0  0  0  0  0
   -2.1155   -1.9963    0.7922 C   0  0  0  0  0  0  0  0  0  0  0  0
   -1.2875   -2.6383    1.4252 O   0  0  0  0  0  0  0  0  0  0  0  0
   -1.8575   -0.8123    0.2402 N   0  0  0  0  0  0  0  0  0  0  0  0
   -2.6005   -0.3333   -0.2478 H   0  0  0  0  0  0  0  0  0  0  0  0
   -0.5675   -0.1203    0.3102 C   0  0  1  0  0  0  0  0  0  0  0  0
    0.0191   -0.5718    1.1110 H   0  0  0  0  0  0  0  0  0  0  0  0
    0.1724   -0.3238   -1.0286 C   0  0  0  0  0  0  0  0  0  0  0  0
    0.0558   -1.3647   -1.3366 H   0  0  0  0  0  0  0  0  0  0  0  0
   -0.3144    0.3003   -1.7813 H   0  0  0  0  0  0  0  0  0  0  0  0
    1.6740    0.0165   -1.0222 C   0  0  0  0  0  0  0  0  0  0  0  0
    2.1548   -0.4230   -1.8962 H   0  0  0  0  0  0  0  0  0  0  0  0
    1.9257    1.5271   -1.0223 C   0  0  0  0  0  0  0  0  0  0  0  0
    1.4364    1.9843   -0.1611 H   0  0  0  0  0  0  0  0  0  0  0  0
    2.9972    1.7208   -0.9680 H   0  0  0  0  0  0  0  0  0  0  0  0
    1.5396    1.9808   -1.9326 H   0  0  0  0  0  0  0  0  0  0  0  0
    2.3315   -0.5721    0.2255 C   0  0  0  0  0  0  0  0  0  0  0  0
    2.1957   -1.6535    0.2360 H   0  0  0  0  0  0  0  0  0  0  0  0
    3.3998   -0.3562    0.2185 H   0  0  0  0  0  0  0  0  0  0  0  0
    1.8838   -0.1444    1.1232 H   0  0  0  0  0  0  0  0  0  0  0  0
   -0.7793    1.3659    0.6455 C   0  0  0  0  0  0  0  0  0  0  0  0
   -1.6464    2.0125    0.0623 O   0  0  0  0  0  0  0  0  0  0  0  0
    0.0189    1.9059    1.5756 N   0  0  0  0  0  0  0  0  0  0  0  0
    0.7024    1.3094    2.0137 H   0  0  0  0  0  0  0  0  0  0  0  0
   -0.0451    3.3046    1.9929 C   0  0  0  0  0  0  0  0  0  0  0  0
   -1.0415    3.5286    2.3805 H   0  0  0  0  0  0  0  0  0  0  0  0
    0.6954    3.5023    2.7695 H   0  0  0  0  0  0  0  0  0  0  0  0
    0.1474    3.9536    1.1372 H   0  0  0  0  0  0  0  0  0  0  0  0
  5  6  2  0  0  0  0
  5  7  1  0  0  0  0
  2  3  1  0  0  0  0
  2  4  1  0  0  0  0
  2  5  1  0  0  0  0
  1  2  1  0  0  0  0
 24 25  2  0  0  0  0
 24 26  1  0  0  0  0
 20 21  1  0  0  0  0
 20 22  1  0  0  0  0
 20 23  1  0  0  0  0
 16 17  1  0  0  0  0
 16 18  1  0  0  0  0
 16 19  1  0  0  0  0
 14 15  1  0  0  0  0
 14 16  1  0  0  0  0
 14 20  1  0  0  0  0
 11 12  1  0  0  0  0
 11 13  1  0  0  0  0
 11 14  1  0  0  0  0
  9 10  1  0  0  0  0
  9 11  1  0  0  0  0
  9 24  1  0  0  0  0
  7  8  1  0  0  0  0
  7  9  1  0  0  0  0
 28 29  1  0  0  0  0
 28 30  1  0  0  0  0
 28 31  1  0  0  0  0
 26 27  1  0  0  0  0
 26 28  1  0  0  0  0
M  END
$$$$
default_name
  -OEChem-02102213163D

 31 30  0     1  0  0  0  0  0999 V2000
   -3.5895   -3.5013    1.1082 H   0  0  0  0  0  0  0  0  0  0  0  0
   -3.5145   -2.5363    0.6082 C   0  0  0  0  0  0  0  0  0  0  0  0
   -4.2285   -1.8413    1.0452 H   0  0  0  0  0  0  0  0  0  0  0  0
   -3.7155   -2.6583   -0.4538 H   0  0  0  0  0  0  0  0  0  0  0  0
   -2.1155   -1.9963    0.7922 C   0  0  0  0  0  0  0  0  0  0  0  0
   -1.2875   -2.6383    1.4252 O   0  0  0  0  0  0  0  0  0  0  0  0
   -1.8575   -0.8123    0.2402 N   0  0  0  0  0  0  0  0  0  0  0  0
   -2.6005   -0.3333   -0.2478 H   0  0  0  0  0  0  0  0  0  0  0  0
   -0.5675   -0.1203    0.3102 C   0  0  1  0  0  0  0  0  0  0  0  0
    0.0191   -0.5718    1.1110 H   0  0  0  0  0  0  0  0  0  0  0  0
    0.1724   -0.3238   -1.0286 C   0  0  0  0  0  0  0  0  0  0  0  0
    0.0558   -1.3647   -1.3366 H   0  0  0  0  0  0  0  0  0  0  0  0
   -0.3144    0.3003   -1.7813 H   0  0  0  0  0  0  0  0  0  0  0  0
    1.6740    0.0165   -1.0222 C   0  0  0  0  0  0  0  0  0  0  0  0
    2.1012   -0.1841   -2.0048 H   0  0  0  0  0  0  0  0  0  0  0  0
    1.9347    1.4803   -0.6553 C   0  0  0  0  0  0  0  0  0  0  0  0
    1.4985    1.7012    0.3198 H   0  0  0  0  0  0  0  0  0  0  0  0
    3.0088    1.6630   -0.6151 H   0  0  0  0  0  0  0  0  0  0  0  0
    1.5000    2.1458   -1.3980 H   0  0  0  0  0  0  0  0  0  0  0  0
    2.3982   -0.8624   -0.0031 C   0  0  0  0  0  0  0  0  0  0  0  0
    2.2565   -1.9125   -0.2582 H   0  0  0  0  0  0  0  0  0  0  0  0
    3.4658   -0.6427   -0.0164 H   0  0  0  0  0  0  0  0  0  0  0  0
    2.0054   -0.6789    0.9976 H   0  0  0  0  0  0  0  0  0  0  0  0
   -0.7793    1.3659    0.6455 C   0  0  0  0  0  0  0  0  0  0  0  0
   -1.6464    2.0125    0.0623 O   0  0  0  0  0  0  0  0  0  0  0  0
    0.0189    1.9059    1.5756 N   0  0  0  0  0  0  0  0  0  0  0  0
    0.7024    1.3094    2.0137 H   0  0  0  0  0  0  0  0  0  0  0  0
   -0.0451    3.3046    1.9929 C   0  0  0  0  0  0  0  0  0  0  0  0
   -1.0415    3.5286    2.3805 H   0  0  0  0  0  0  0  0  0  0  0  0
    0.6954    3.5023    2.7695 H   0  0  0  0  0  0  0  0  0  0  0  0
    0.1474    3.9536    1.1372 H   0  0  0  0  0  0  0  0  0  0  0  0
  5  6  2  0  0  0  0
  5  7  1  0  0  0  0
  2  3  1  0  0  0  0
  2  4  1  0  0  0  0
  2  5  1  0  0  0  0
  1  2  1  0  0  0  0
 24 25  2  0  0  0  0
 24 26  1  0  0  0  0
 20 21  1  0  0  0  0
 20 22  1  0  0  0  0
 20 23  1  0  0  0  0
 16 17  1  0  0  0  0
 16 18  1  0  0  0  0
 16 19  1  0  0  0  0
 14 15  1  0  0  0  0
 14 16  1  0  0  0  0
 14 20  1  0  0  0  0
 11 12  1  0  0  0  0
 11 13  1  0  0  0  0
 11 14  1  0  0  0  0
  9 10  1  0  0  0  0
  9 11  1  0  0  0  0
  9 24  1  0  0  0  0
  7  8  1  0  0  0  0
  7  9  1  0  0  0  0
 28 29  1  0  0  0  0
 28 30  1  0  0  0  0
 28 31  1  0  0  0  0
 26 27  1  0  0  0  0
 26 28  1  0  0  0  0
M  END
$$$$
default_name
  -OEChem-02102213163D

 31 30  0     1  0  0  0  0  0999 V2000
   -3.5895   -3.5013    1.1082 H   0  0  0  0  0  0  0  0  0  0  0  0
   -3.5145   -2.5363    0.6082 C   0  0  0  0  0  0  0  0  0  0  0  0
   -4.2285   -1.8413    1.0452 H   0  0  0  0  0  0  0  0  0  0  0  0
   -3.7155   -2.6583   -0.4538 H   0  0  0  0  0  0  0  0  0  0  0  0
   -2.1155   -1.9963    0.7922 C   0  0  0  0  0  0  0  0  0  0  0  0
   -1.2875   -2.6383    1.4252 O   0  0  0  0  0  0  0  0  0  0  0  0
   -1.8575   -0.8123    0.2402 N   0  0  0  0  0  0  0  0  0  0  0  0
   -2.6005   -0.3333   -0.2478 H   0  0  0  0  0  0  0  0  0  0  0  0
   -0.5675   -0.1203    0.3102 C   0  0  1  0  0  0  0  0  0  0  0  0
    0.0191   -0.5718    1.1110 H   0  0  0  0  0  0  0  0  0  0  0  0
    0.1724   -0.3238   -1.0286 C   0  0  0  0  0  0  0  0  0  0  0  0
    0.0558   -1.3647   -1.3366 H   0  0  0  0  0  0  0  0  0  0  0  0
   -0.3144    0.3003   -1.7813 H   0  0  0  0  0  0  0  0  0  0  0  0
    1.6740    0.0165   -1.0222 C   0  0  0  0  0  0  0  0  0  0  0  0
    2.0428    0.0740   -2.0463 H   0  0  0  0  0  0  0  0  0  0  0  0
    1.9645    1.3425   -0.3132 C   0  0  0  0  0  0  0  0  0  0  0  0
    1.5864    1.3064    0.7094 H   0  0  0  0  0  0  0  0  0  0  0  0
    3.0402    1.5182   -0.2895 H   0  0  0  0  0  0  0  0  0  0  0  0
    1.4921    2.1702   -0.8377 H   0  0  0  0  0  0  0  0  0  0  0  0
    2.4499   -1.0850   -0.3011 C   0  0  0  0  0  0  0  0  0  0  0  0
    2.2872   -2.0379   -0.8045 H   0  0  0  0  0  0  0  0  0  0  0  0
    3.5163   -0.8601   -0.3193 H   0  0  0  0  0  0  0  0  0  0  0  0
    2.1163   -1.1633    0.7343 H   0  0  0  0  0  0  0  0  0  0  0  0
   -0.7793    1.3659    0.6455 C   0  0  0  0  0  0  0  0  0  0  0  0
   -1.6464    2.0125    0.0623 O   0  0  0  0  0  0  0  0  0  0  0  0
    0.0189    1.9059    1.5756 N   0  0  0  0  0  0  0  0  0  0  0  0
    0.7024    1.3094    2.0137 H   0  0  0  0  0  0  0  0  0  0  0  0
   -0.0451    3.3046    1.9929 C   0  0  0  0  0  0  0  0  0  0  0  0
   -1.0415    3.5286    2.3805 H   0  0  0  0  0  0  0  0  0  0  0  0
    0.6954    3.5023    2.7695 H   0  0  0  0  0  0  0  0  0  0  0  0
    0.1474    3.9536    1.1372 H   0  0  0  0  0  0  0  0  0  0  0  0
  5  6  2  0  0  0  0
  5  7  1  0  0  0  0
  2  3  1  0  0  0  0
  2  4  1  0  0  0  0
  2  5  1  0  0  0  0
  1  2  1  0  0  0  0
 24 25  2  0  0  0  0
 24 26  1  0  0  0  0
 20 21  1  0  0  0  0
 20 22  1  0  0  0  0
 20 23  1  0  0  0  0
 16 17  1  0  0  0  0
 16 18  1  0  0  0  0
 16 19  1  0  0  0  0
 14 15  1  0  0  0  0
 14 16  1  0  0  0  0
 14 20  1  0  0  0  0
 11 12  1  0  0  0  0
 11 13  1  0  0  0  0
 11 14  1  0  0  0  0
  9 10  1  0  0  0  0
  9 11  1  0  0  0  0
  9 24  1  0  0  0  0
  7  8  1  0  0  0  0
  7  9  1  0  0  0  0
 28 29  1  0  0  0  0
 28 30  1  0  0  0  0
 28 31  1  0  0  0  0
 26 27  1  0  0  0  0
 26 28  1  0  0  0  0
M  END
$$$$
default_name
  -OEChem-02102213163D

 31 30  0     1  0  0  0  0  0999 V2000
   -3.5895   -3.5013    1.1082 H   0  0  0  0  0  0  0  0  0  0  0  0
   -3.5145   -2.5363    0.6082 C   0  0  0  0  0  0  0  0  0  0  0  0
   -4.2285   -1.8413    1.0452 H   0  0  0  0  0  0  0  0  0  0  0  0
   -3.7155   -2.6583   -0.4538 H   0  0  0  0  0  0  0  0  0  0  0  0
   -2.1155   -1.9963    0.7922 C   0  0  0  0  0  0  0  0  0  0  0  0
   -1.2875   -2.6383    1.4252 O   0  0  0  0  0  0  0  0  0  0  0  0
   -1.8575   -0.8123    0.2402 N   0  0  0  0  0  0  0  0  0  0  0  0
   -2.6005   -0.3333   -0.2478 H   0  0  0  0  0  0  0  0  0  0  0  0
   -0.5675   -0.1203    0.3102 C   0  0  1  0  0  0  0  0  0  0  0  0
    0.0191   -0.5718    1.1110 H   0  0  0  0  0  0  0  0  0  0  0  0
    0.1724   -0.3238   -1.0286 C   0  0  0  0  0  0  0  0  0  0  0  0
    0.0558   -1.3647   -1.3366 H   0  0  0  0  0  0  0  0  0  0  0  0
   -0.3144    0.3003   -1.7813 H   0  0  0  0  0  0  0  0  0  0  0  0
    1.6740    0.0165   -1.0222 C   0  0  0  0  0  0  0  0  0  0  0  0
    1.9839    0.3337   -2.0180 H   0  0  0  0  0  0  0  0  0  0  0  0
    2.0130    1.1230   -0.0192 C   0  0  0  0  0  0  0  0  0  0  0  0
    1.6939    0.8268    0.9810 H   0  0  0  0  0  0  0  0  0  0  0  0
    3.0894    1.2961   -0.0133 H   0  0  0  0  0  0  0  0  0  0  0  0
    1.5164    2.0523   -0.2899 H   0  0  0  0  0  0  0  0  0  0  0  0
    2.4831   -1.2248   -0.6480 C   0  0  0  0  0  0  0  0  0  0  0  0
    2.2858   -2.0211   -1.3655 H   0  0  0  0  0  0  0  0  0  0  0  0
    3.5481   -0.9936   -0.6697 H   0  0  0  0  0  0  0  0  0  0  0  0
    2.2089   -1.5647    0.3513 H   0  0  0  0  0  0  0  0  0  0  0  0
   -0.7793    1.3659    0.6455 C   0  0  0  0  0  0  0  0  0  0  0  0
   -1.6464    2.0125    0.0623 O   0  0  0  0  0  0  0  0  0  0  0  0
    0.0189    1.9059    1.5756 N   0  0  0  0  0  0  0  0  0  0  0  0
    0.7024    1.3094    2.0137 H   0  0  0  0  0  0  0  0  0  0  0  0
   -0.0451    3.3046    1.9929 C   0  0  0  0  0  0  0  0  0  0  0  0
   -1.0415    3.5286    2.3805 H   0  0  0  0  0  0  0  0  0  0  0  0
    0.6954    3.5023    2.7695 H   0  0  0  0  0  0  0  0  0  0  0  0
    0.1474    3.9536    1.1372 H   0  0  0  0  0  0  0  0  0  0  0  0
  5  6  2  0  0  0  0
  5  7  1  0  0  0  0
  2  3  1  0  0  0  0
  2  4  1  0  0  0  0
  2  5  1  0  0  0  0
  1  2  1  0  0  0  0
 24 25  2  0  0  0  0
 24 26  1  0  0  0  0
 20 21  1  0  0  0  0
 20 22  1  0  0  0  0
 20 23  1  0  0  0  0
 16 17  1  0  0  0  0
 16 18  1  0  0  0  0
 16 19  1  0  0  0  0
 14 15  1  0  0  0  0
 14 16  1  0  0  0  0
 14 20  1  0  0  0  0
 11 12  1  0  0  0  0
 11 13  1  0  0  0  0
 11 14  1  0  0  0  0
  9 10  1  0  0  0  0
  9 11  1  0  0  0  0
  9 24  1  0  0  0  0
  7  8  1  0  0  0  0
  7  9  1  0  0  0  0
 28 29  1  0  0  0  0
 28 30  1  0  0  0  0
 28 31  1  0  0  0  0
 26 27  1  0  0  0  0
 26 28  1  0  0  0  0
M  END
$$$$
default_name
  -OEChem-02102213163D

 31 30  0     1  0  0  0  0  0999 V2000
   -3.5895   -3.5013    1.1082 H   0  0  0  0  0  0  0  0  0  0  0  0
   -3.5145   -2.5363    0.6082 C   0  0  0  0  0  0  0  0  0  0  0  0
   -4.2285   -1.8413    1.0452 H   0  0  0  0  0  0  0  0  0  0  0  0
   -3.7155   -2.6583   -0.4538 H   0  0  0  0  0  0  0  0  0  0  0  0
   -2.1155   -1.9963    0.7922 C   0  0  0  0  0  0  0  0  0  0  0  0
   -1.2875   -2.6383    1.4252 O   0  0  0  0  0  0  0  0  0  0  0  0
   -1.8575   -0.8123    0.2402 N   0  0  0  0  0  0  0  0  0  0  0  0
   -2.6005   -0.3333   -0.2478 H   0  0  0  0  0  0  0  0  0  0  0  0
   -0.5675   -0.1203    0.3102 C   0  0  1  0  0  0  0  0  0  0  0  0
    0.0191   -0.5718    1.1110 H   0  0  0  0  0  0  0  0  0  0  0  0
    0.1724   -0.3238   -1.0286 C   0  0  0  0  0  0  0  0  0  0  0  0
    0.0558   -1.3647   -1.3366 H   0  0  0  0  0  0  0  0  0  0  0  0
   -0.3144    0.3003   -1.7813 H   0  0  0  0  0  0  0  0  0  0  0  0
    1.6740    0.0165   -1.0222 C   0  0  0  0  0  0  0  0  0  0  0  0
    1.9282    0.5773   -1.9217 H   0  0  0  0  0  0  0  0  0  0  0  0
    2.0769    0.8368    0.2066 C   0  0  0  0  0  0  0  0  0  0  0  0
    1.8138    0.2951    1.1162 H   0  0  0  0  0  0  0  0  0  0  0  0
    3.1529    1.0119    0.1945 H   0  0  0  0  0  0  0  0  0  0  0  0
    1.5714    1.8001    0.2080 H   0  0  0  0  0  0  0  0  0  0  0  0
    2.4954   -1.2722   -1.0203 C   0  0  0  0  0  0  0  0  0  0  0  0
    2.2523   -1.8633   -1.9031 H   0  0  0  0  0  0  0  0  0  0  0  0
    3.5588   -1.0340   -1.0436 H   0  0  0  0  0  0  0  0  0  0  0  0
    2.2769   -1.8556   -0.1251 H   0  0  0  0  0  0  0  0  0  0  0  0
   -0.7793    1.3659    0.6455 C   0  0  0  0  0  0  0  0  0  0  0  0
   -1.6464    2.0125    0.0623 O   0  0  0  0  0  0  0  0  0  0  0  0
    0.0189    1.9059    1.5756 N   0  0  0  0  0  0  0  0  0  0  0  0
    0.7024    1.3094    2.0137 H   0  0  0  0  0  0  0  0  0  0  0  0
   -0.0451    3.3046    1.9929 C   0  0  0  0  0  0  0  0  0  0  0  0
   -1.0415    3.5286    2.3805 H   0  0  0  0  0  0  0  0  0  0  0  0
    0.6954    3.5023    2.7695 H   0  0  0  0  0  0  0  0  0  0  0  0
    0.1474    3.9536    1.1372 H   0  0  0  0  0  0  0  0  0  0  0  0
  5  6  2  0  0  0  0
  5  7  1  0  0  0  0
  2  3  1  0  0  0  0
  2  4  1  0  0  0  0
  2  5  1  0  0  0  0
  1  2  1  0  0  0  0
 24 25  2  0  0  0  0
 24 26  1  0  0  0  0
 20 21  1  0  0  0  0
 20 22  1  0  0  0  0
 20 23  1  0  0  0  0
 16 17  1  0  0  0  0
 16 18  1  0  0  0  0
 16 19  1  0  0  0  0
 14 15  1  0  0  0  0
 14 16  1  0  0  0  0
 14 20  1  0  0  0  0
 11 12  1  0  0  0  0
 11 13  1  0  0  0  0
 11 14  1  0  0  0  0
  9 10  1  0  0  0  0
  9 11  1  0  0  0  0
  9 24  1  0  0  0  0
  7  8  1  0  0  0  0
  7  9  1  0  0  0  0
 28 29  1  0  0  0  0
 28 30  1  0  0  0  0
 28 31  1  0  0  0  0
 26 27  1  0  0  0  0
 26 28  1  0  0  0  0
M  END
$$$$
default_name
  -OEChem-02102213163D

 31 30  0     1  0  0  0  0  0999 V2000
   -3.5895   -3.5013    1.1082 H   0  0  0  0  0  0  0  0  0  0  0  0
   -3.5145   -2.5363    0.6082 C   0  0  0  0  0  0  0  0  0  0  0  0
   -4.2285   -1.8413    1.0452 H   0  0  0  0  0  0  0  0  0  0  0  0
   -3.7155   -2.6583   -0.4538 H   0  0  0  0  0  0  0  0  0  0  0  0
   -2.1155   -1.9963    0.7922 C   0  0  0  0  0  0  0  0  0  0  0  0
   -1.2875   -2.6383    1.4252 O   0  0  0  0  0  0  0  0  0  0  0  0
   -1.8575   -0.8123    0.2402 N   0  0  0  0  0  0  0  0  0  0  0  0
   -2.6005   -0.3333   -0.2478 H   0  0  0  0  0  0  0  0  0  0  0  0
   -0.5675   -0.1203    0.3102 C   0  0  1  0  0  0  0  0  0  0  0  0
    0.0191   -0.5718    1.1110 H   0  0  0  0  0  0  0  0  0  0  0  0
    0.1724   -0.3238   -1.0286 C   0  0  0  0  0  0  0  0  0  0  0  0
    0.0558   -1.3647   -1.3366 H   0  0  0  0  0  0  0  0  0  0  0  0
   -0.3144    0.3003   -1.7813 H   0  0  0  0  0  0  0  0  0  0  0  0
    1.6740    0.0165   -1.0222 C   0  0  0  0  0  0  0  0  0  0  0  0
    1.8797    0.7883   -1.7639 H   0  0  0  0  0  0  0  0  0  0  0  0
    2.1518    0.5035    0.3489 C   0  0  0  0  0  0  0  0  0  0  0  0
    1.9379   -0.2524    1.1057 H   0  0  0  0  0  0  0  0  0  0  0  0
    3.2264    0.6850    0.3200 H   0  0  0  0  0  0  0  0  0  0  0  0
    1.6533    1.4310    0.6222 H   0  0  0  0  0  0  0  0  0  0  0  0
    2.4861   -1.2240   -1.3925 C   0  0  0  0  0  0  0  0  0  0  0  0
    2.1891   -1.5752   -2.3807 H   0  0  0  0  0  0  0  0  0  0  0  0
    3.5479   -0.9787   -1.4157 H   0  0  0  0  0  0  0  0  0  0  0  0
    2.3156   -2.0162   -0.6627 H   0  0  0  0  0  0  0  0  0  0  0  0
   -0.7793    1.3659    0.6455 C   0  0  0  0  0  0  0  0  0  0  0  0
   -1.6464    2.0125    0.0623 O   0  0  0  0  0  0  0  0  0  0  0  0
    0.0189    1.9059    1.5756 N   0  0  0  0  0  0  0  0  0  0  0  0
    0.7024    1.3094    2.0137 H   0  0  0  0  0  0  0  0  0  0  0  0
   -0.0451    3.3046    1.9929 C   0  0  0  0  0  0  0  0  0  0  0  0
   -1.0415    3.5286    2.3805 H   0  0  0  0  0  0  0  0  0  0  0  0
    0.6954    3.5023    2.7695 H   0  0  0  0  0  0  0  0  0  0  0  0
    0.1474    3.9536    1.1372 H   0  0  0  0  0  0  0  0  0  0  0  0
  5  6  2  0  0  0  0
  5  7  1  0  0  0  0
  2  3  1  0  0  0  0
  2  4  1  0  0  0  0
  2  5  1  0  0  0  0
  1  2  1  0  0  0  0
 24 25  2  0  0  0  0
 24 26  1  0  0  0  0
 20 21  1  0  0  0  0
 20 22  1  0  0  0  0
 20 23  1  0  0  0  0
 16 17  1  0  0  0  0
 16 18  1  0  0  0  0
 16 19  1  0  0  0  0
 14 15  1  0  0  0  0
 14 16  1  0  0  0  0
 14 20  1  0  0  0  0
 11 12  1  0  0  0  0
 11 13  1  0  0  0  0
 11 14  1  0  0  0  0
  9 10  1  0  0  0  0
  9 11  1  0  0  0  0
  9 24  1  0  0  0  0
  7  8  1  0  0  0  0
  7  9  1  0  0  0  0
 28 29  1  0  0  0  0
 28 30  1  0  0  0  0
 28 31  1  0  0  0  0
 26 27  1  0  0  0  0
 26 28  1  0  0  0  0
M  END
$$$$
default_name
  -OEChem-02102213163D

 31 30  0     1  0  0  0  0  0999 V2000
   -3.5895   -3.5013    1.1082 H   0  0  0  0  0  0  0  0  0  0  0  0
   -3.5145   -2.5363    0.6082 C   0  0  0  0  0  0  0  0  0  0  0  0
   -4.2285   -1.8413    1.0452 H   0  0  0  0  0  0  0  0  0  0  0  0
   -3.7155   -2.6583   -0.4538 H   0  0  0  0  0  0  0  0  0  0  0  0
   -2.1155   -1.9963    0.7922 C   0  0  0  0  0  0  0  0  0  0  0  0
   -1.2875   -2.6383    1.4252 O   0  0  0  0  0  0  0  0  0  0  0  0
   -1.8575   -0.8123    0.2402 N   0  0  0  0  0  0  0  0  0  0  0  0
   -2.6005   -0.3333   -0.2478 H   0  0  0  0  0  0  0  0  0  0  0  0
   -0.5675   -0.1203    0.3102 C   0  0  1  0  0  0  0  0  0  0  0  0
    0.0191   -0.5718    1.1110 H   0  0  0  0  0  0  0  0  0  0  0  0
    0.1724   -0.3238   -1.0286 C   0  0  0  0  0  0  0  0  0  0  0  0
    0.0558   -1.3647   -1.3366 H   0  0  0  0  0  0  0  0  0  0  0  0
   -0.3144    0.3003   -1.7813 H   0  0  0  0  0  0  0  0  0  0  0  0
    1.6740    0.0165   -1.0222 C   0  0  0  0  0  0  0  0  0  0  0  0
    1.8417    0.9522   -1.5556 H   0  0  0  0  0  0  0  0  0  0  0  0
    2.2327    0.1457    0.3978 C   0  0  0  0  0  0  0  0  0  0  0  0
    2.0578   -0.7785    0.9502 H   0  0  0  0  0  0  0  0  0  0  0  0
    3.3050    0.3377    0.3544 H   0  0  0  0  0  0  0  0  0  0  0  0
    1.7565    0.9699    0.9245 H   0  0  0  0  0  0  0  0  0  0  0  0
    2.4557   -1.0835   -1.7394 C   0  0  0  0  0  0  0  0  0  0  0  0
    2.1003   -1.1764   -2.7656 H   0  0  0  0  0  0  0  0  0  0  0  0
    3.5160   -0.8313   -1.7604 H   0  0  0  0  0  0  0  0  0  0  0  0
    2.3224   -2.0357   -1.2247 H   0  0  0  0  0  0  0  0  0  0  0  0
   -0.7793    1.3659    0.6455 C   0  0  0  0  0  0  0  0  0  0  0  0
   -1.6464    2.0125    0.0623 O   0  0  0  0  0  0  0  0  0  0  0  0
    0.0189    1.9059    1.5756 N   0  0  0  0  0  0  0  0  0  0  0  0
    0.7024    1.3094    2.0137 H   0  0  0  0  0  0  0  0  0  0  0  0
   -0.0451    3.3046    1.9929 C   0  0  0  0  0  0  0  0  0  0  0  0
   -1.0415    3.5286    2.3805 H   0  0  0  0  0  0  0  0  0  0  0  0
    0.6954    3.5023    2.7695 H   0  0  0  0  0  0  0  0  0  0  0  0
    0.1474    3.9536    1.1372 H   0  0  0  0  0  0  0  0  0  0  0  0
  5  6  2  0  0  0  0
  5  7  1  0  0  0  0
  2  3  1  0  0  0  0
  2  4  1  0  0  0  0
  2  5  1  0  0  0  0
  1  2  1  0  0  0  0
 24 25  2  0  0  0  0
 24 26  1  0  0  0  0
 20 21  1  0  0  0  0
 20 22  1  0  0  0  0
 20 23  1  0  0  0  0
 16 17  1  0  0  0  0
 16 18  1  0  0  0  0
 16 19  1  0  0  0  0
 14 15  1  0  0  0  0
 14 16  1  0  0  0  0
 14 20  1  0  0  0  0
 11 12  1  0  0  0  0
 11 13  1  0  0  0  0
 11 14  1  0  0  0  0
  9 10  1  0  0  0  0
  9 11  1  0  0  0  0
  9 24  1  0  0  0  0
  7  8  1  0  0  0  0
  7  9  1  0  0  0  0
 28 29  1  0  0  0  0
 28 30  1  0  0  0  0
 28 31  1  0  0  0  0
 26 27  1  0  0  0  0
 26 28  1  0  0  0  0
M  END
$$$$
default_name
  -OEChem-02102213163D

 31 30  0     1  0  0  0  0  0999 V2000
   -3.5895   -3.5013    1.1082 H   0  0  0  0  0  0  0  0  0  0  0  0
   -3.5145   -2.5363    0.6082 C   0  0  0  0  0  0  0  0  0  0  0  0
   -4.2285   -1.8413    1.0452 H   0  0  0  0  0  0  0  0  0  0  0  0
   -3.7155   -2.6583   -0.4538 H   0  0  0  0  0  0  0  0  0  0  0  0
   -2.1155   -1.9963    0.7922 C   0  0  0  0  0  0  0  0  0  0  0  0
   -1.2875   -2.6383    1.4252 O   0  0  0  0  0  0  0  0  0  0  0  0
   -1.8575   -0.8123    0.2402 N   0  0  0  0  0  0  0  0  0  0  0  0
   -2.6005   -0.3333   -0.2478 H   0  0  0  0  0  0  0  0  0  0  0  0
   -0.5675   -0.1203    0.3102 C   0  0  1  0  0  0  0  0  0  0  0  0
    0.0191   -0.5718    1.1110 H   0  0  0  0  0  0  0  0  0  0  0  0
    0.1724   -0.3238   -1.0286 C   0  0  0  0  0  0  0  0  0  0  0  0
    0.0558   -1.3647   -1.3366 H   0  0  0  0  0  0  0  0  0  0  0  0
   -0.3144    0.3003   -1.7813 H   0  0  0  0  0  0  0  0  0  0  0  0
    1.6740    0.0165   -1.0222 C   0  0  0  0  0  0  0  0  0  0  0  0
    1.8167    1.0579   -1.3108 H   0  0  0  0  0  0  0  0  0  0  0  0
    2.3140   -0.2122    0.3502 C   0  0  0  0  0  0  0  0  0  0  0  0
    2.1653   -1.2474    0.6604 H   0  0  0  0  0  0  0  0  0  0  0  0
    3.3832   -0.0064    0.2955 H   0  0  0  0  0  0  0  0  0  0  0  0
    1.8740    0.4484    1.0941 H   0  0  0  0  0  0  0  0  0  0  0  0
    2.4064   -0.8602   -2.0373 C   0  0  0  0  0  0  0  0  0  0  0  0
    1.9922   -0.6942   -3.0317 H   0  0  0  0  0  0  0  0  0  0  0  0
    3.4653   -0.6020   -2.0544 H   0  0  0  0  0  0  0  0  0  0  0  0
    2.2969   -1.9126   -1.7729 H   0  0  0  0  0  0  0  0  0  0  0  0
   -0.7793    1.3659    0.6455 C   0  0  0  0  0  0  0  0  0  0  0  0
   -1.6464    2.0125    0.0623 O   0  0  0  0  0  0  0  0  0  0  0  0
    0.0189    1.9059    1.5756 N   0  0  0  0  0  0  0  0  0  0  0  0
    0.7024    1.3094    2.0137 H   0  0  0  0  0  0  0  0  0  0  0  0
   -0.0451    3.3046    1.9929 C   0  0  0  0  0  0  0  0  0  0  0  0
   -1.0415    3.5286    2.3805 H   0  0  0  0  0  0  0  0  0  0  0  0
    0.6954    3.5023    2.7695 H   0  0  0  0  0  0  0  0  0  0  0  0
    0.1474    3.9536    1.1372 H   0  0  0  0  0  0  0  0  0  0  0  0
  5  6  2  0  0  0  0
  5  7  1  0  0  0  0
  2  3  1  0  0  0  0
  2  4  1  0  0  0  0
  2  5  1  0  0  0  0
  1  2  1  0  0  0  0
 24 25  2  0  0  0  0
 24 26  1  0  0  0  0
 20 21  1  0  0  0  0
 20 22  1  0  0  0  0
 20 23  1  0  0  0  0
 16 17  1  0  0  0  0
 16 18  1  0  0  0  0
 16 19  1  0  0  0  0
 14 15  1  0  0  0  0
 14 16  1  0  0  0  0
 14 20  1  0  0  0  0
 11 12  1  0  0  0  0
 11 13  1  0  0  0  0
 11 14  1  0  0  0  0
  9 10  1  0  0  0  0
  9 11  1  0  0  0  0
  9 24  1  0  0  0  0
  7  8  1  0  0  0  0
  7  9  1  0  0  0  0
 28 29  1  0  0  0  0
 28 30  1  0  0  0  0
 28 31  1  0  0  0  0
 26 27  1  0  0  0  0
 26 28  1  0  0  0  0
M  END
$$$$
default_name
  -OEChem-02102213163D

 31 30  0     1  0  0  0  0  0999 V2000
   -3.5895   -3.5013    1.1082 H   0  0  0  0  0  0  0  0  0  0  0  0
   -3.5145   -2.5363    0.6082 C   0  0  0  0  0  0  0  0  0  0  0  0
   -4.2285   -1.8413    1.0452 H   0  0  0  0  0  0  0  0  0  0  0  0
   -3.7155   -2.6583   -0.4538 H   0  0  0  0  0  0  0  0  0  0  0  0
   -2.1155   -1.9963    0.7922 C   0  0  0  0  0  0  0  0  0  0  0  0
   -1.2875   -2.6383    1.4252 O   0  0  0  0  0  0  0  0  0  0  0  0
   -1.8575   -0.8123    0.2402 N   0  0  0  0  0  0  0  0  0  0  0  0
   -2.6005   -0.3333   -0.2478 H   0  0  0  0  0  0  0  0  0  0  0  0
   -0.5675   -0.1203    0.3102 C   0  0  1  0  0  0  0  0  0  0  0  0
    0.0191   -0.5718    1.1110 H   0  0  0  0  0  0  0  0  0  0  0  0
    0.1724   -0.3238   -1.0286 C   0  0  0  0  0  0  0  0  0  0  0  0
    0.0558   -1.3647   -1.3366 H   0  0  0  0  0  0  0  0  0  0  0  0
   -0.3144    0.3003   -1.7813 H   0  0  0  0  0  0  0  0  0  0  0  0
    1.6740    0.0165   -1.0222 C   0  0  0  0  0  0  0  0  0  0  0  0
    1.8064    1.0982   -1.0462 H   0  0  0  0  0  0  0  0  0  0  0  0
    2.3902   -0.5457    0.2091 C   0  0  0  0  0  0  0  0  0  0  0  0
    2.2531   -1.6269    0.2560 H   0  0  0  0  0  0  0  0  0  0  0  0
    3.4558   -0.3239    0.1473 H   0  0  0  0  0  0  0  0  0  0  0  0
    1.9977   -0.0980    1.1196 H   0  0  0  0  0  0  0  0  0  0  0  0
    2.3415   -0.5695   -2.2658 C   0  0  0  0  0  0  0  0  0  0  0  0
    1.8720   -0.1613   -3.1607 H   0  0  0  0  0  0  0  0  0  0  0  0
    3.3992   -0.3064   -2.2776 H   0  0  0  0  0  0  0  0  0  0  0  0
    2.2407   -1.6554   -2.2699 H   0  0  0  0  0  0  0  0  0  0  0  0
   -0.7793    1.3659    0.6455 C   0  0  0  0  0  0  0  0  0  0  0  0
   -1.6464    2.0125    0.0623 O   0  0  0  0  0  0  0  0  0  0  0  0
    0.0189    1.9059    1.5756 N   0  0  0  0  0  0  0  0  0  0  0  0
    0.7024    1.3094    2.0137 H   0  0  0  0  0  0  0  0  0  0  0  0
   -0.0451    3.3046    1.9929 C   0  0  0  0  0  0  0  0  0  0  0  0
   -1.0415    3.5286    2.3805 H   0  0  0  0  0  0  0  0  0  0  0  0
    0.6954    3.5023    2.7695 H   0  0  0  0  0  0  0  0  0  0  0  0
    0.1474    3.9536    1.1372 H   0  0  0  0  0  0  0  0  0  0  0  0
  5  6  2  0  0  0  0
  5  7  1  0  0  0  0
  2  3  1  0  0  0  0
  2  4  1  0  0  0  0
  2  5  1  0  0  0  0
  1  2  1  0  0  0  0
 24 25  2  0  0  0  0
 24 26  1  0  0  0  0
 20 21  1  0  0  0  0
 20 22  1  0  0  0  0
 20 23  1  0  0  0  0
 16 17  1  0  0  0  0
 16 18  1  0  0  0  0
 16 19  1  0  0  0  0
 14 15  1  0  0  0  0
 14 16  1  0  0  0  0
 14 20  1  0  0  0  0
 11 12  1  0  0  0  0
 11 13  1  0  0  0  0
 11 14  1  0  0  0  0
  9 10  1  0  0  0  0
  9 11  1  0  0  0  0
  9 24  1  0  0  0  0
  7  8  1  0  0  0  0
  7  9  1  0  0  0  0
 28 29  1  0  0  0  0
 28 30  1  0  0  0  0
 28 31  1  0  0  0  0
 26 27  1  0  0  0  0
 26 28  1  0  0  0  0
M  END
$$$$
default_name
  -OEChem-02102213163D

 31 30  0     1  0  0  0  0  0999 V2000
   -3.5895   -3.5013    1.1082 H   0  0  0  0  0  0  0  0  0  0  0  0
   -3.5145   -2.5363    0.6082 C   0  0  0  0  0  0  0  0  0  0  0  0
   -4.2285   -1.8413    1.0452 H   0  0  0  0  0  0  0  0  0  0  0  0
   -3.7155   -2.6583   -0.4538 H   0  0  0  0  0  0  0  0  0  0  0  0
   -2.1155   -1.9963    0.7922 C   0  0  0  0  0  0  0  0  0  0  0  0
   -1.2875   -2.6383    1.4252 O   0  0  0  0  0  0  0  0  0  0  0  0
   -1.8575   -0.8123    0.2402 N   0  0  0  0  0  0  0  0  0  0  0  0
   -2.6005   -0.3333   -0.2478 H   0  0  0  0  0  0  0  0  0  0  0  0
   -0.5675   -0.1203    0.3102 C   0  0  1  0  0  0  0  0  0  0  0  0
    0.0191   -0.5718    1.1110 H   0  0  0  0  0  0  0  0  0  0  0  0
    0.1724   -0.3238   -1.0286 C   0  0  0  0  0  0  0  0  0  0  0  0
    0.0558   -1.3647   -1.3366 H   0  0  0  0  0  0  0  0  0  0  0  0
   -0.3144    0.3003   -1.7813 H   0  0  0  0  0  0  0  0  0  0  0  0
    1.6740    0.0165   -1.0222 C   0  0  0  0  0  0  0  0  0  0  0  0
    1.8116    1.0703   -0.7798 H   0  0  0  0  0  0  0  0  0  0  0  0
    2.4561   -0.8323   -0.0156 C   0  0  0  0  0  0  0  0  0  0  0  0
    2.3151   -1.8914   -0.2355 H   0  0  0  0  0  0  0  0  0  0  0  0
    3.5178   -0.5930   -0.0802 H   0  0  0  0  0  0  0  0  0  0  0  0
    2.1193   -0.6321    0.9993 H   0  0  0  0  0  0  0  0  0  0  0  0
    2.2654   -0.2310   -2.4094 C   0  0  0  0  0  0  0  0  0  0  0  0
    1.7479    0.3859   -3.1441 H   0  0  0  0  0  0  0  0  0  0  0  0
    3.3223    0.0355   -2.4148 H   0  0  0  0  0  0  0  0  0  0  0  0
    2.1577   -1.2815   -2.6817 H   0  0  0  0  0  0  0  0  0  0  0  0
   -0.7793    1.3659    0.6455 C   0  0  0  0  0  0  0  0  0  0  0  0
   -1.6464    2.0125    0.0623 O   0  0  0  0  0  0  0  0  0  0  0  0
    0.0189    1.9059    1.5756 N   0  0  0  0  0  0  0  0  0  0  0  0
    0.7024    1.3094    2.0137 H   0  0  0  0  0  0  0  0  0  0  0  0
   -0.0451    3.3046    1.9929 C   0  0  0  0  0  0  0  0  0  0  0  0
   -1.0415    3.5286    2.3805 H   0  0  0  0  0  0  0  0  0  0  0  0
    0.6954    3.5023    2.7695 H   0  0  0  0  0  0  0  0  0  0  0  0
    0.1474    3.9536    1.1372 H   0  0  0  0  0  0  0  0  0  0  0  0
  5  6  2  0  0  0  0
  5  7  1  0  0  0  0
  2  3  1  0  0  0  0
  2  4  1  0  0  0  0
  2  5  1  0  0  0  0
  1  2  1  0  0  0  0
 24 25  2  0  0  0  0
 24 26  1  0  0  0  0
 20 21  1  0  0  0  0
 20 22  1  0  0  0  0
 20 23  1  0  0  0  0
 16 17  1  0  0  0  0
 16 18  1  0  0  0  0
 16 19  1  0  0  0  0
 14 15  1  0  0  0  0
 14 16  1  0  0  0  0
 14 20  1  0  0  0  0
 11 12  1  0  0  0  0
 11 13  1  0  0  0  0
 11 14  1  0  0  0  0
  9 10  1  0  0  0  0
  9 11  1  0  0  0  0
  9 24  1  0  0  0  0
  7  8  1  0  0  0  0
  7  9  1  0  0  0  0
 28 29  1  0  0  0  0
 28 30  1  0  0  0  0
 28 31  1  0  0  0  0
 26 27  1  0  0  0  0
 26 28  1  0  0  0  0
M  END
$$$$
default_name
  -OEChem-02102213163D

 31 30  0     1  0  0  0  0  0999 V2000
   -3.5895   -3.5013    1.1082 H   0  0  0  0  0  0  0  0  0  0  0  0
   -3.5145   -2.5363    0.6082 C   0  0  0  0  0  0  0  0  0  0  0  0
   -4.2285   -1.8413    1.0452 H   0  0  0  0  0  0  0  0  0  0  0  0
   -3.7155   -2.6583   -0.4538 H   0  0  0  0  0  0  0  0  0  0  0  0
   -2.1155   -1.9963    0.7922 C   0  0  0  0  0  0  0  0  0  0  0  0
   -1.2875   -2.6383    1.4252 O   0  0  0  0  0  0  0  0  0  0  0  0
   -1.8575   -0.8123    0.2402 N   0  0  0  0  0  0  0  0  0  0  0  0
   -2.6005   -0.3333   -0.2478 H   0  0  0  0  0  0  0  0  0  0  0  0
   -0.5675   -0.1203    0.3102 C   0  0  1  0  0  0  0  0  0  0  0  0
    0.0191   -0.5718    1.1110 H   0  0  0  0  0  0  0  0  0  0  0  0
    0.1724   -0.3238   -1.0286 C   0  0  0  0  0  0  0  0  0  0  0  0
    0.0558   -1.3647   -1.3366 H   0  0  0  0  0  0  0  0  0  0  0  0
   -0.3144    0.3003   -1.7813 H   0  0  0  0  0  0  0  0  0  0  0  0
    1.6740    0.0165   -1.0222 C   0  0  0  0  0  0  0  0  0  0  0  0
    1.8319    0.9761   -0.5299 H   0  0  0  0  0  0  0  0  0  0  0  0
    2.5072   -1.0522   -0.3088 C   0  0  0  0  0  0  0  0  0  0  0  0
    2.3472   -2.0227   -0.7805 H   0  0  0  0  0  0  0  0  0  0  0  0
    3.5649   -0.7955   -0.3714 H   0  0  0  0  0  0  0  0  0  0  0  0
    2.2304   -1.1176    0.7412 H   0  0  0  0  0  0  0  0  0  0  0  0
    2.1833    0.1321   -2.4584 C   0  0  0  0  0  0  0  0  0  0  0  0
    1.6284    0.9100   -2.9827 H   0  0  0  0  0  0  0  0  0  0  0  0
    3.2398    0.4002   -2.4567 H   0  0  0  0  0  0  0  0  0  0  0  0
    2.0536   -0.8165   -2.9805 H   0  0  0  0  0  0  0  0  0  0  0  0
   -0.7793    1.3659    0.6455 C   0  0  0  0  0  0  0  0  0  0  0  0
   -1.6464    2.0125    0.0623 O   0  0  0  0  0  0  0  0  0  0  0  0
    0.0189    1.9059    1.5756 N   0  0  0  0  0  0  0  0  0  0  0  0
    0.7024    1.3094    2.0137 H   0  0  0  0  0  0  0  0  0  0  0  0
   -0.0451    3.3046    1.9929 C   0  0  0  0  0  0  0  0  0  0  0  0
   -1.0415    3.5286    2.3805 H   0  0  0  0  0  0  0  0  0  0  0  0
    0.6954    3.5023    2.7695 H   0  0  0  0  0  0  0  0  0  0  0  0
    0.1474    3.9536    1.1372 H   0  0  0  0  0  0  0  0  0  0  0  0
  5  6  2  0  0  0  0
  5  7  1  0  0  0  0
  2  3  1  0  0  0  0
  2  4  1  0  0  0  0
  2  5  1  0  0  0  0
  1  2  1  0  0  0  0
 24 25  2  0  0  0  0
 24 26  1  0  0  0  0
 20 21  1  0  0  0  0
 20 22  1  0  0  0  0
 20 23  1  0  0  0  0
 16 17  1  0  0  0  0
 16 18  1  0  0  0  0
 16 19  1  0  0  0  0
 14 15  1  0  0  0  0
 14 16  1  0  0  0  0
 14 20  1  0  0  0  0
 11 12  1  0  0  0  0
 11 13  1  0  0  0  0
 11 14  1  0  0  0  0
  9 10  1  0  0  0  0
  9 11  1  0  0  0  0
  9 24  1  0  0  0  0
  7  8  1  0  0  0  0
  7  9  1  0  0  0  0
 28 29  1  0  0  0  0
 28 30  1  0  0  0  0
 28 31  1  0  0  0  0
 26 27  1  0  0  0  0
 26 28  1  0  0  0  0
M  END
$$$$
default_name
  -OEChem-02102213163D

 31 30  0     1  0  0  0  0  0999 V2000
   -3.5895   -3.5013    1.1082 H   0  0  0  0  0  0  0  0  0  0  0  0
   -3.5145   -2.5363    0.6082 C   0  0  0  0  0  0  0  0  0  0  0  0
   -4.2285   -1.8413    1.0452 H   0  0  0  0  0  0  0  0  0  0  0  0
   -3.7155   -2.6583   -0.4538 H   0  0  0  0  0  0  0  0  0  0  0  0
   -2.1155   -1.9963    0.7922 C   0  0  0  0  0  0  0  0  0  0  0  0
   -1.2875   -2.6383    1.4252 O   0  0  0  0  0  0  0  0  0  0  0  0
   -1.8575   -0.8123    0.2402 N   0  0  0  0  0  0  0  0  0  0  0  0
   -2.6005   -0.3333   -0.2478 H   0  0  0  0  0  0  0  0  0  0  0  0
   -0.5675   -0.1203    0.3102 C   0  0  1  0  0  0  0  0  0  0  0  0
    0.0191   -0.5718    1.1110 H   0  0  0  0  0  0  0  0  0  0  0  0
    0.1724   -0.3238   -1.0286 C   0  0  0  0  0  0  0  0  0  0  0  0
    0.0558   -1.3647   -1.3366 H   0  0  0  0  0  0  0  0  0  0  0  0
   -0.3144    0.3003   -1.7813 H   0  0  0  0  0  0  0  0  0  0  0  0
    1.6740    0.0165   -1.0222 C   0  0  0  0  0  0  0  0  0  0  0  0
    1.8659    0.8221   -0.3135 H   0  0  0  0  0  0  0  0  0  0  0  0
    2.5400   -1.1906   -0.6505 C   0  0  0  0  0  0  0  0  0  0  0  0
    2.3472   -2.0120   -1.3420 H   0  0  0  0  0  0  0  0  0  0  0  0
    3.5940   -0.9175   -0.7064 H   0  0  0  0  0  0  0  0  0  0  0  0
    2.3235   -1.5212    0.3631 H   0  0  0  0  0  0  0  0  0  0  0  0
    2.1008    0.4951   -2.4093 C   0  0  0  0  0  0  0  0  0  0  0  0
    1.5216    1.3755   -2.6878 H   0  0  0  0  0  0  0  0  0  0  0  0
    3.1574    0.7630   -2.4003 H   0  0  0  0  0  0  0  0  0  0  0  0
    1.9355   -0.2921   -3.1457 H   0  0  0  0  0  0  0  0  0  0  0  0
   -0.7793    1.3659    0.6455 C   0  0  0  0  0  0  0  0  0  0  0  0
   -1.6464    2.0125    0.0623 O   0  0  0  0  0  0  0  0  0  0  0  0
    0.0189    1.9059    1.5756 N   0  0  0  0  0  0  0  0  0  0  0  0
    0.7024    1.3094    2.0137 H   0  0  0  0  0  0  0  0  0  0  0  0
   -0.0451    3.3046    1.9929 C   0  0  0  0  0  0  0  0  0  0  0  0
   -1.0415    3.5286    2.3805 H   0  0  0  0  0  0  0  0  0  0  0  0
    0.6954    3.5023    2.7695 H   0  0  0  0  0  0  0  0  0  0  0  0
    0.1474    3.9536    1.1372 H   0  0  0  0  0  0  0  0  0  0  0  0
  5  6  2  0  0  0  0
  5  7  1  0  0  0  0
  2  3  1  0  0  0  0
  2  4  1  0  0  0  0
  2  5  1  0  0  0  0
  1  2  1  0  0  0  0
 24 25  2  0  0  0  0
 24 26  1  0  0  0  0
 20 21  1  0  0  0  0
 20 22  1  0  0  0  0
 20 23  1  0  0  0  0
 16 17  1  0  0  0  0
 16 18  1  0  0  0  0
 16 19  1  0  0  0  0
 14 15  1  0  0  0  0
 14 16  1  0  0  0  0
 14 20  1  0  0  0  0
 11 12  1  0  0  0  0
 11 13  1  0  0  0  0
 11 14  1  0  0  0  0
  9 10  1  0  0  0  0
  9 11  1  0  0  0  0
  9 24  1  0  0  0  0
  7  8  1  0  0  0  0
  7  9  1  0  0  0  0
 28 29  1  0  0  0  0
 28 30  1  0  0  0  0
 28 31  1  0  0  0  0
 26 27  1  0  0  0  0
 26 28  1  0  0  0  0
M  END
$$$$
default_name
  -OEChem-02102213163D

 31 30  0     1  0  0  0  0  0999 V2000
   -3.5895   -3.5013    1.1082 H   0  0  0  0  0  0  0  0  0  0  0  0
   -3.5145   -2.5363    0.6082 C   0  0  0  0  0  0  0  0  0  0  0  0
   -4.2285   -1.8413    1.0452 H   0  0  0  0  0  0  0  0  0  0  0  0
   -3.7155   -2.6583   -0.4538 H   0  0  0  0  0  0  0  0  0  0  0  0
   -2.1155   -1.9963    0.7922 C   0  0  0  0  0  0  0  0  0  0  0  0
   -1.2875   -2.6383    1.4252 O   0  0  0  0  0  0  0  0  0  0  0  0
   -1.8575   -0.8123    0.2402 N   0  0  0  0  0  0  0  0  0  0  0  0
   -2.6005   -0.3333   -0.2478 H   0  0  0  0  0  0  0  0  0  0  0  0
   -0.5675   -0.1203    0.3102 C   0  0  1  0  0  0  0  0  0  0  0  0
    0.0191   -0.5718    1.1110 H   0  0  0  0  0  0  0  0  0  0  0  0
    0.1724   -0.3238   -1.0286 C   0  0  0  0  0  0  0  0  0  0  0  0
    0.0558   -1.3647   -1.3366 H   0  0  0  0  0  0  0  0  0  0  0  0
   -0.3144    0.3003   -1.7813 H   0  0  0  0  0  0  0  0  0  0  0  0
    1.6740    0.0165   -1.0222 C   0  0  0  0  0  0  0  0  0  0  0  0
    1.9113    0.6187   -0.1452 H   0  0  0  0  0  0  0  0  0  0  0  0
    2.5523   -1.2380   -1.0173 C   0  0  0  0  0  0  0  0  0  0  0  0
    2.3150   -1.8598   -1.8816 H   0  0  0  0  0  0  0  0  0  0  0  0
    3.6031   -0.9507   -1.0625 H   0  0  0  0  0  0  0  0  0  0  0  0
    2.3922   -1.8155   -0.1094 H   0  0  0  0  0  0  0  0  0  0  0  0
    2.0236    0.8333   -2.2656 C   0  0  0  0  0  0  0  0  0  0  0  0
    1.4349    1.7505   -2.2792 H   0  0  0  0  0  0  0  0  0  0  0  0
    3.0805    1.0991   -2.2495 H   0  0  0  0  0  0  0  0  0  0  0  0
    1.8113    0.2560   -3.1662 H   0  0  0  0  0  0  0  0  0  0  0  0
   -0.7793    1.3659    0.6455 C   0  0  0  0  0  0  0  0  0  0  0  0
   -1.6464    2.0125    0.0623 O   0  0  0  0  0  0  0  0  0  0  0  0
    0.0189    1.9059    1.5756 N   0  0  0  0  0  0  0  0  0  0  0  0
    0.7024    1.3094    2.0137 H   0  0  0  0  0  0  0  0  0  0  0  0
   -0.0451    3.3046    1.9929 C   0  0  0  0  0  0  0  0  0  0  0  0
   -1.0415    3.5286    2.3805 H   0  0  0  0  0  0  0  0  0  0  0  0
    0.6954    3.5023    2.7695 H   0  0  0  0  0  0  0  0  0  0  0  0
    0.1474    3.9536    1.1372 H   0  0  0  0  0  0  0  0  0  0  0  0
  5  6  2  0  0  0  0
  5  7  1  0  0  0  0
  2  3  1  0  0  0  0
  2  4  1  0  0  0  0
  2  5  1  0  0  0  0
  1  2  1  0  0  0  0
 24 25  2  0  0  0  0
 24 26  1  0  0  0  0
 20 21  1  0  0  0  0
 20 22  1  0  0  0  0
 20 23  1  0  0  0  0
 16 17  1  0  0  0  0
 16 18  1  0  0  0  0
 16 19  1  0  0  0  0
 14 15  1  0  0  0  0
 14 16  1  0  0  0  0
 14 20  1  0  0  0  0
 11 12  1  0  0  0  0
 11 13  1  0  0  0  0
 11 14  1  0  0  0  0
  9 10  1  0  0  0  0
  9 11  1  0  0  0  0
  9 24  1  0  0  0  0
  7  8  1  0  0  0  0
  7  9  1  0  0  0  0
 28 29  1  0  0  0  0
 28 30  1  0  0  0  0
 28 31  1  0  0  0  0
 26 27  1  0  0  0  0
 26 28  1  0  0  0  0
M  END
$$$$
default_name
  -OEChem-02102213163D

 31 30  0     1  0  0  0  0  0999 V2000
   -3.5895   -3.5013    1.1082 H   0  0  0  0  0  0  0  0  0  0  0  0
   -3.5145   -2.5363    0.6082 C   0  0  0  0  0  0  0  0  0  0  0  0
   -4.2285   -1.8413    1.0452 H   0  0  0  0  0  0  0  0  0  0  0  0
   -3.7155   -2.6583   -0.4538 H   0  0  0  0  0  0  0  0  0  0  0  0
   -2.1155   -1.9963    0.7922 C   0  0  0  0  0  0  0  0  0  0  0  0
   -1.2875   -2.6383    1.4252 O   0  0  0  0  0  0  0  0  0  0  0  0
   -1.8575   -0.8123    0.2402 N   0  0  0  0  0  0  0  0  0  0  0  0
   -2.6005   -0.3333   -0.2478 H   0  0  0  0  0  0  0  0  0  0  0  0
   -0.5675   -0.1203    0.3102 C   0  0  1  0  0  0  0  0  0  0  0  0
    0.0191   -0.5718    1.1110 H   0  0  0  0  0  0  0  0  0  0  0  0
    0.1724   -0.3238   -1.0286 C   0  0  0  0  0  0  0  0  0  0  0  0
    0.0558   -1.3647   -1.3366 H   0  0  0  0  0  0  0  0  0  0  0  0
   -0.3144    0.3003   -1.7813 H   0  0  0  0  0  0  0  0  0  0  0  0
    1.6740    0.0165   -1.0222 C   0  0  0  0  0  0  0  0  0  0  0  0
    1.9649    0.3799   -0.0366 H   0  0  0  0  0  0  0  0  0  0  0  0
    2.5433   -1.1912   -1.3843 C   0  0  0  0  0  0  0  0  0  0  0  0
    2.2529   -1.5767   -2.3625 H   0  0  0  0  0  0  0  0  0  0  0  0
    3.5915   -0.8930   -1.4154 H   0  0  0  0  0  0  0  0  0  0  0  0
    2.4319   -1.9805   -0.6439 H   0  0  0  0  0  0  0  0  0  0  0  0
    1.9568    1.1236   -2.0370 C   0  0  0  0  0  0  0  0  0  0  0  0
    1.3741    2.0096   -1.7850 H   0  0  0  0  0  0  0  0  0  0  0  0
    3.0146    1.3856   -2.0147 H   0  0  0  0  0  0  0  0  0  0  0  0
    1.6896    0.7905   -3.0405 H   0  0  0  0  0  0  0  0  0  0  0  0
   -0.7793    1.3659    0.6455 C   0  0  0  0  0  0  0  0  0  0  0  0
   -1.6464    2.0125    0.0623 O   0  0  0  0  0  0  0  0  0  0  0  0
    0.0189    1.9059    1.5756 N   0  0  0  0  0  0  0  0  0  0  0  0
    0.7024    1.3094    2.0137 H   0  0  0  0  0  0  0  0  0  0  0  0
   -0.0451    3.3046    1.9929 C   0  0  0  0  0  0  0  0  0  0  0  0
   -1.0415    3.5286    2.3805 H   0  0  0  0  0  0  0  0  0  0  0  0
    0.6954    3.5023    2.7695 H   0  0  0  0  0  0  0  0  0  0  0  0
    0.1474    3.9536    1.1372 H   0  0  0  0  0  0  0  0  0  0  0  0
  5  6  2  0  0  0  0
  5  7  1  0  0  0  0
  2  3  1  0  0  0  0
  2  4  1  0  0  0  0
  2  5  1  0  0  0  0
  1  2  1  0  0  0  0
 24 25  2  0  0  0  0
 24 26  1  0  0  0  0
 20 21  1  0  0  0  0
 20 22  1  0  0  0  0
 20 23  1  0  0  0  0
 16 17  1  0  0  0  0
 16 18  1  0  0  0  0
 16 19  1  0  0  0  0
 14 15  1  0  0  0  0
 14 16  1  0  0  0  0
 14 20  1  0  0  0  0
 11 12  1  0  0  0  0
 11 13  1  0  0  0  0
 11 14  1  0  0  0  0
  9 10  1  0  0  0  0
  9 11  1  0  0  0  0
  9 24  1  0  0  0  0
  7  8  1  0  0  0  0
  7  9  1  0  0  0  0
 28 29  1  0  0  0  0
 28 30  1  0  0  0  0
 28 31  1  0  0  0  0
 26 27  1  0  0  0  0
 26 28  1  0  0  0  0
M  END
$$$$
default_name
  -OEChem-02102213163D

 31 30  0     1  0  0  0  0  0999 V2000
   -3.5895   -3.5013    1.1082 H   0  0  0  0  0  0  0  0  0  0  0  0
   -3.5145   -2.5363    0.6082 C   0  0  0  0  0  0  0  0  0  0  0  0
   -4.2285   -1.8413    1.0452 H   0  0  0  0  0  0  0  0  0  0  0  0
   -3.7155   -2.6583   -0.4538 H   0  0  0  0  0  0  0  0  0  0  0  0
   -2.1155   -1.9963    0.7922 C   0  0  0  0  0  0  0  0  0  0  0  0
   -1.2875   -2.6383    1.4252 O   0  0  0  0  0  0  0  0  0  0  0  0
   -1.8575   -0.8123    0.2402 N   0  0  0  0  0  0  0  0  0  0  0  0
   -2.6005   -0.3333   -0.2478 H   0  0  0  0  0  0  0  0  0  0  0  0
   -0.5675   -0.1203    0.3102 C   0  0  1  0  0  0  0  0  0  0  0  0
    0.0191   -0.5718    1.1110 H   0  0  0  0  0  0  0  0  0  0  0  0
    0.1724   -0.3238   -1.0286 C   0  0  0  0  0  0  0  0  0  0  0  0
    0.0558   -1.3647   -1.3366 H   0  0  0  0  0  0  0  0  0  0  0  0
   -0.3144    0.3003   -1.7813 H   0  0  0  0  0  0  0  0  0  0  0  0
    1.6740    0.0165   -1.0222 C   0  0  0  0  0  0  0  0  0  0  0  0
    2.0232    0.1218    0.0050 H   0  0  0  0  0  0  0  0  0  0  0  0
    2.5135   -1.0534   -1.7264 C   0  0  0  0  0  0  0  0  0  0  0  0
    2.1651   -1.1820   -2.7521 H   0  0  0  0  0  0  0  0  0  0  0  0
    3.5600   -0.7481   -1.7410 H   0  0  0  0  0  0  0  0  0  0  0  0
    2.4398   -2.0048   -1.2042 H   0  0  0  0  0  0  0  0  0  0  0  0
    1.9051    1.3462   -1.7391 C   0  0  0  0  0  0  0  0  0  0  0  0
    1.3433    2.1350   -1.2388 H   0  0  0  0  0  0  0  0  0  0  0  0
    2.9640    1.6030   -1.7117 H   0  0  0  0  0  0  0  0  0  0  0  0
    1.5787    1.2750   -2.7772 H   0  0  0  0  0  0  0  0  0  0  0  0
   -0.7793    1.3659    0.6455 C   0  0  0  0  0  0  0  0  0  0  0  0
   -1.6464    2.0125    0.0623 O   0  0  0  0  0  0  0  0  0  0  0  0
    0.0189    1.9059    1.5756 N   0  0  0  0  0  0  0  0  0  0  0  0
    0.7024    1.3094    2.0137 H   0  0  0  0  0  0  0  0  0  0  0  0
   -0.0451    3.3046    1.9929 C   0  0  0  0  0  0  0  0  0  0  0  0
   -1.0415    3.5286    2.3805 H   0  0  0  0  0  0  0  0  0  0  0  0
    0.6954    3.5023    2.7695 H   0  0  0  0  0  0  0  0  0  0  0  0
    0.1474    3.9536    1.1372 H   0  0  0  0  0  0  0  0  0  0  0  0
  5  6  2  0  0  0  0
  5  7  1  0  0  0  0
  2  3  1  0  0  0  0
  2  4  1  0  0  0  0
  2  5  1  0  0  0  0
  1  2  1  0  0  0  0
 24 25  2  0  0  0  0
 24 26  1  0  0  0  0
 20 21  1  0  0  0  0
 20 22  1  0  0  0  0
 20 23  1  0  0  0  0
 16 17  1  0  0  0  0
 16 18  1  0  0  0  0
 16 19  1  0  0  0  0
 14 15  1  0  0  0  0
 14 16  1  0  0  0  0
 14 20  1  0  0  0  0
 11 12  1  0  0  0  0
 11 13  1  0  0  0  0
 11 14  1  0  0  0  0
  9 10  1  0  0  0  0
  9 11  1  0  0  0  0
  9 24  1  0  0  0  0
  7  8  1  0  0  0  0
  7  9  1  0  0  0  0
 28 29  1  0  0  0  0
 28 30  1  0  0  0  0
 28 31  1  0  0  0  0
 26 27  1  0  0  0  0
 26 28  1  0  0  0  0
M  END
$$$$
default_name
  -OEChem-02102213163D

 31 30  0     1  0  0  0  0  0999 V2000
   -3.5895   -3.5013    1.1082 H   0  0  0  0  0  0  0  0  0  0  0  0
   -3.5145   -2.5363    0.6082 C   0  0  0  0  0  0  0  0  0  0  0  0
   -4.2285   -1.8413    1.0452 H   0  0  0  0  0  0  0  0  0  0  0  0
   -3.7155   -2.6583   -0.4538 H   0  0  0  0  0  0  0  0  0  0  0  0
   -2.1155   -1.9963    0.7922 C   0  0  0  0  0  0  0  0  0  0  0  0
   -1.2875   -2.6383    1.4252 O   0  0  0  0  0  0  0  0  0  0  0  0
   -1.8575   -0.8123    0.2402 N   0  0  0  0  0  0  0  0  0  0  0  0
   -2.6005   -0.3333   -0.2478 H   0  0  0  0  0  0  0  0  0  0  0  0
   -0.5675   -0.1203    0.3102 C   0  0  1  0  0  0  0  0  0  0  0  0
    0.0191   -0.5718    1.1110 H   0  0  0  0  0  0  0  0  0  0  0  0
    0.1724   -0.3238   -1.0286 C   0  0  0  0  0  0  0  0  0  0  0  0
    0.0558   -1.3647   -1.3366 H   0  0  0  0  0  0  0  0  0  0  0  0
   -0.3144    0.3003   -1.7813 H   0  0  0  0  0  0  0  0  0  0  0  0
    1.6740    0.0165   -1.0222 C   0  0  0  0  0  0  0  0  0  0  0  0
    2.0822   -0.1379   -0.0234 H   0  0  0  0  0  0  0  0  0  0  0  0
    2.4650   -0.8339   -2.0204 C   0  0  0  0  0  0  0  0  0  0  0  0
    2.0575   -0.7024   -3.0237 H   0  0  0  0  0  0  0  0  0  0  0  0
    3.5109   -0.5260   -2.0172 H   0  0  0  0  0  0  0  0  0  0  0  0
    2.4154   -1.8869   -1.7520 H   0  0  0  0  0  0  0  0  0  0  0  0
    1.8719    1.4860   -1.3921 C   0  0  0  0  0  0  0  0  0  0  0  0
    1.3448    2.1182   -0.6777 H   0  0  0  0  0  0  0  0  0  0  0  0
    2.9323    1.7365   -1.3614 H   0  0  0  0  0  0  0  0  0  0  0  0
    1.4861    1.6763   -2.3943 H   0  0  0  0  0  0  0  0  0  0  0  0
   -0.7793    1.3659    0.6455 C   0  0  0  0  0  0  0  0  0  0  0  0
   -1.6464    2.0125    0.0623 O   0  0  0  0  0  0  0  0  0  0  0  0
    0.0189    1.9059    1.5756 N   0  0  0  0  0  0  0  0  0  0  0  0
    0.7024    1.3094    2.0137 H   0  0  0  0  0  0  0  0  0  0  0  0
   -0.0451    3.3046    1.9929 C   0  0  0  0  0  0  0  0  0  0  0  0
   -1.0415    3.5286    2.3805 H   0  0  0  0  0  0  0  0  0  0  0  0
    0.6954    3.5023    2.7695 H   0  0  0  0  0  0  0  0  0  0  0  0
    0.1474    3.9536    1.1372 H   0  0  0  0  0  0  0  0  0  0  0  0
  5  6  2  0  0  0  0
  5  7  1  0  0  0  0
  2  3  1  0  0  0  0
  2  4  1  0  0  0  0
  2  5  1  0  0  0  0
  1  2  1  0  0  0  0
 24 25  2  0  0  0  0
 24 26  1  0  0  0  0
 20 21  1  0  0  0  0
 20 22  1  0  0  0  0
 20 23  1  0  0  0  0
 16 17  1  0  0  0  0
 16 18  1  0  0  0  0
 16 19  1  0  0  0  0
 14 15  1  0  0  0  0
 14 16  1  0  0  0  0
 14 20  1  0  0  0  0
 11 12  1  0  0  0  0
 11 13  1  0  0  0  0
 11 14  1  0  0  0  0
  9 10  1  0  0  0  0
  9 11  1  0  0  0  0
  9 24  1  0  0  0  0
  7  8  1  0  0  0  0
  7  9  1  0  0  0  0
 28 29  1  0  0  0  0
 28 30  1  0  0  0  0
 28 31  1  0  0  0  0
 26 27  1  0  0  0  0
 26 28  1  0  0  0  0
M  END
$$$$
default_name
  -OEChem-02102213163D

 31 30  0     1  0  0  0  0  0999 V2000
   -3.5895   -3.5013    1.1082 H   0  0  0  0  0  0  0  0  0  0  0  0
   -3.5145   -2.5363    0.6082 C   0  0  0  0  0  0  0  0  0  0  0  0
   -4.2285   -1.8413    1.0452 H   0  0  0  0  0  0  0  0  0  0  0  0
   -3.7155   -2.6583   -0.4538 H   0  0  0  0  0  0  0  0  0  0  0  0
   -2.1155   -1.9963    0.7922 C   0  0  0  0  0  0  0  0  0  0  0  0
   -1.2875   -2.6383    1.4252 O   0  0  0  0  0  0  0  0  0  0  0  0
   -1.8575   -0.8123    0.2402 N   0  0  0  0  0  0  0  0  0  0  0  0
   -2.6005   -0.3333   -0.2478 H   0  0  0  0  0  0  0  0  0  0  0  0
   -0.5675   -0.1203    0.3102 C   0  0  1  0  0  0  0  0  0  0  0  0
    0.0191   -0.5718    1.1110 H   0  0  0  0  0  0  0  0  0  0  0  0
    0.1724   -0.3238   -1.0286 C   0  0  0  0  0  0  0  0  0  0  0  0
    0.0558   -1.3647   -1.3366 H   0  0  0  0  0  0  0  0  0  0  0  0
   -0.3144    0.3003   -1.7813 H   0  0  0  0  0  0  0  0  0  0  0  0
    1.6740    0.0165   -1.0222 C   0  0  0  0  0  0  0  0  0  0  0  0
    2.1379   -0.3816   -0.1197 H   0  0  0  0  0  0  0  0  0  0  0  0
    2.4011   -0.5477   -2.2462 C   0  0  0  0  0  0  0  0  0  0  0  0
    1.9376   -0.1707   -3.1589 H   0  0  0  0  0  0  0  0  0  0  0  0
    3.4474   -0.2418   -2.2251 H   0  0  0  0  0  0  0  0  0  0  0  0
    2.3604   -1.6348   -2.2499 H   0  0  0  0  0  0  0  0  0  0  0  0
    1.8596    1.5334   -1.0199 C   0  0  0  0  0  0  0  0  0  0  0  0
    1.3782    1.9603   -0.1401 H   0  0  0  0  0  0  0  0  0  0  0  0
    2.9215    1.7769   -0.9874 H   0  0  0  0  0  0  0  0  0  0  0  0
    1.4182    1.9672   -1.9178 H   0  0  0  0  0  0  0  0  0  0  0  0
   -0.7793    1.3659    0.6455 C   0  0  0  0  0  0  0  0  0  0  0  0
   -1.6464    2.0125    0.0623 O   0  0  0  0  0  0  0  0  0  0  0  0
    0.0189    1.9059    1.5756 N   0  0  0  0  0  0  0  0  0  0  0  0
    0.7024    1.3094    2.0137 H   0  0  0  0  0  0  0  0  0  0  0  0
   -0.0451    3.3046    1.9929 C   0  0  0  0  0  0  0  0  0  0  0  0
   -1.0415    3.5286    2.3805 H   0  0  0  0  0  0  0  0  0  0  0  0
    0.6954    3.5023    2.7695 H   0  0  0  0  0  0  0  0  0  0  0  0
    0.1474    3.9536    1.1372 H   0  0  0  0  0  0  0  0  0  0  0  0
  5  6  2  0  0  0  0
  5  7  1  0  0  0  0
  2  3  1  0  0  0  0
  2  4  1  0  0  0  0
  2  5  1  0  0  0  0
  1  2  1  0  0  0  0
 24 25  2  0  0  0  0
 24 26  1  0  0  0  0
 20 21  1  0  0  0  0
 20 22  1  0  0  0  0
 20 23  1  0  0  0  0
 16 17  1  0  0  0  0
 16 18  1  0  0  0  0
 16 19  1  0  0  0  0
 14 15  1  0  0  0  0
 14 16  1  0  0  0  0
 14 20  1  0  0  0  0
 11 12  1  0  0  0  0
 11 13  1  0  0  0  0
 11 14  1  0  0  0  0
  9 10  1  0  0  0  0
  9 11  1  0  0  0  0
  9 24  1  0  0  0  0
  7  8  1  0  0  0  0
  7  9  1  0  0  0  0
 28 29  1  0  0  0  0
 28 30  1  0  0  0  0
 28 31  1  0  0  0  0
 26 27  1  0  0  0  0
 26 28  1  0  0  0  0
M  END
$$$$
default_name
  -OEChem-02102213163D

 31 30  0     1  0  0  0  0  0999 V2000
   -3.5895   -3.5013    1.1082 H   0  0  0  0  0  0  0  0  0  0  0  0
   -3.5145   -2.5363    0.6082 C   0  0  0  0  0  0  0  0  0  0  0  0
   -4.2285   -1.8413    1.0452 H   0  0  0  0  0  0  0  0  0  0  0  0
   -3.7155   -2.6583   -0.4538 H   0  0  0  0  0  0  0  0  0  0  0  0
   -2.1155   -1.9963    0.7922 C   0  0  0  0  0  0  0  0  0  0  0  0
   -1.2875   -2.6383    1.4252 O   0  0  0  0  0  0  0  0  0  0  0  0
   -1.8575   -0.8123    0.2402 N   0  0  0  0  0  0  0  0  0  0  0  0
   -2.6005   -0.3333   -0.2478 H   0  0  0  0  0  0  0  0  0  0  0  0
   -0.5675   -0.1203    0.3102 C   0  0  1  0  0  0  0  0  0  0  0  0
    0.0191   -0.5718    1.1110 H   0  0  0  0  0  0  0  0  0  0  0  0
    0.1724   -0.3238   -1.0286 C   0  0  0  0  0  0  0  0  0  0  0  0
   -0.1578   -1.2664   -1.4696 H   0  0  0  0  0  0  0  0  0  0  0  0
   -0.1265    0.4802   -1.7048 H   0  0  0  0  0  0  0  0  0  0  0  0
    1.7100   -0.3361   -0.9487 C   0  0  0  0  0  0  0  0  0  0  0  0
    2.0374   -1.1304   -0.2779 H   0  0  0  0  0  0  0  0  0  0  0  0
    2.3597   -0.5429   -2.3200 C   0  0  0  0  0  0  0  0  0  0  0  0
    2.0287    0.2361   -3.0081 H   0  0  0  0  0  0  0  0  0  0  0  0
    3.4446   -0.4955   -2.2231 H   0  0  0  0  0  0  0  0  0  0  0  0
    2.0928   -1.5150   -2.7289 H   0  0  0  0  0  0  0  0  0  0  0  0
    2.2083    0.9942   -0.3854 C   0  0  0  0  0  0  0  0  0  0  0  0
    1.7861    1.1535    0.6068 H   0  0  0  0  0  0  0  0  0  0  0  0
    3.2950    0.9777   -0.3019 H   0  0  0  0  0  0  0  0  0  0  0  0
    1.9100    1.8144   -1.0394 H   0  0  0  0  0  0  0  0  0  0  0  0
   -0.7793    1.3659    0.6455 C   0  0  0  0  0  0  0  0  0  0  0  0
   -1.6464    2.0125    0.0623 O   0  0  0  0  0  0  0  0  0  0  0  0
    0.0189    1.9059    1.5756 N   0  0  0  0  0  0  0  0  0  0  0  0
    0.7024    1.3094    2.0137 H   0  0  0  0  0  0  0  0  0  0  0  0
   -0.0451    3.3046    1.9929 C   0  0  0  0  0  0  0  0  0  0  0  0
   -1.0415    3.5286    2.3805 H   0  0  0  0  0  0  0  0  0  0  0  0
    0.6954    3.5023    2.7695 H   0  0  0  0  0  0  0  0  0  0  0  0
    0.1474    3.9536    1.1372 H   0  0  0  0  0  0  0  0  0  0  0  0
  5  6  2  0  0  0  0
  5  7  1  0  0  0  0
  2  3  1  0  0  0  0
  2  4  1  0  0  0  0
  2  5  1  0  0  0  0
  1  2  1  0  0  0  0
 24 25  2  0  0  0  0
 24 26  1  0  0  0  0
 20 21  1  0  0  0  0
 20 22  1  0  0  0  0
 20 23  1  0  0  0  0
 16 17  1  0  0  0  0
 16 18  1  0  0  0  0
 16 19  1  0  0  0  0
 14 15  1  0  0  0  0
 14 16  1  0  0  0  0
 14 20  1  0  0  0  0
 11 12  1  0  0  0  0
 11 13  1  0  0  0  0
 11 14  1  0  0  0  0
  9 10  1  0  0  0  0
  9 11  1  0  0  0  0
  9 24  1  0  0  0  0
  7  8  1  0  0  0  0
  7  9  1  0  0  0  0
 28 29  1  0  0  0  0
 28 30  1  0  0  0  0
 28 31  1  0  0  0  0
 26 27  1  0  0  0  0
 26 28  1  0  0  0  0
M  END
$$$$
default_name
  -OEChem-02102213163D

 31 30  0     1  0  0  0  0  0999 V2000
   -3.5895   -3.5013    1.1082 H   0  0  0  0  0  0  0  0  0  0  0  0
   -3.5145   -2.5363    0.6082 C   0  0  0  0  0  0  0  0  0  0  0  0
   -4.2285   -1.8413    1.0452 H   0  0  0  0  0  0  0  0  0  0  0  0
   -3.7155   -2.6583   -0.4538 H   0  0  0  0  0  0  0  0  0  0  0  0
   -2.1155   -1.9963    0.7922 C   0  0  0  0  0  0  0  0  0  0  0  0
   -1.2875   -2.6383    1.4252 O   0  0  0  0  0  0  0  0  0  0  0  0
   -1.8575   -0.8123    0.2402 N   0  0  0  0  0  0  0  0  0  0  0  0
   -2.6005   -0.3333   -0.2478 H   0  0  0  0  0  0  0  0  0  0  0  0
   -0.5675   -0.1203    0.3102 C   0  0  1  0  0  0  0  0  0  0  0  0
    0.0191   -0.5718    1.1110 H   0  0  0  0  0  0  0  0  0  0  0  0
    0.1724   -0.3238   -1.0286 C   0  0  0  0  0  0  0  0  0  0  0  0
   -0.1578   -1.2664   -1.4696 H   0  0  0  0  0  0  0  0  0  0  0  0
   -0.1265    0.4802   -1.7048 H   0  0  0  0  0  0  0  0  0  0  0  0
    1.7100   -0.3361   -0.9487 C   0  0  0  0  0  0  0  0  0  0  0  0
    2.0481   -1.2724   -0.5048 H   0  0  0  0  0  0  0  0  0  0  0  0
    2.3629   -0.1729   -2.3244 C   0  0  0  0  0  0  0  0  0  0  0  0
    2.0214    0.7531   -2.7890 H   0  0  0  0  0  0  0  0  0  0  0  0
    3.4470   -0.1379   -2.2144 H   0  0  0  0  0  0  0  0  0  0  0  0
    2.1095   -1.0097   -2.9716 H   0  0  0  0  0  0  0  0  0  0  0  0
    2.1899    0.8098   -0.0588 C   0  0  0  0  0  0  0  0  0  0  0  0
    1.7652    0.7017    0.9392 H   0  0  0  0  0  0  0  0  0  0  0  0
    3.2766    0.7866    0.0217 H   0  0  0  0  0  0  0  0  0  0  0  0
    1.8806    1.7672   -0.4797 H   0  0  0  0  0  0  0  0  0  0  0  0
   -0.7793    1.3659    0.6455 C   0  0  0  0  0  0  0  0  0  0  0  0
   -1.6464    2.0125    0.0623 O   0  0  0  0  0  0  0  0  0  0  0  0
    0.0189    1.9059    1.5756 N   0  0  0  0  0  0  0  0  0  0  0  0
    0.7024    1.3094    2.0137 H   0  0  0  0  0  0  0  0  0  0  0  0
   -0.0451    3.3046    1.9929 C   0  0  0  0  0  0  0  0  0  0  0  0
   -1.0415    3.5286    2.3805 H   0  0  0  0  0  0  0  0  0  0  0  0
    0.6954    3.5023    2.7695 H   0  0  0  0  0  0  0  0  0  0  0  0
    0.1474    3.9536    1.1372 H   0  0  0  0  0  0  0  0  0  0  0  0
  5  6  2  0  0  0  0
  5  7  1  0  0  0  0
  2  3  1  0  0  0  0
  2  4  1  0  0  0  0
  2  5  1  0  0  0  0
  1  2  1  0  0  0  0
 24 25  2  0  0  0  0
 24 26  1  0  0  0  0
 20 21  1  0  0  0  0
 20 22  1  0  0  0  0
 20 23  1  0  0  0  0
 16 17  1  0  0  0  0
 16 18  1  0  0  0  0
 16 19  1  0  0  0  0
 14 15  1  0  0  0  0
 14 16  1  0  0  0  0
 14 20  1  0  0  0  0
 11 12  1  0  0  0  0
 11 13  1  0  0  0  0
 11 14  1  0  0  0  0
  9 10  1  0  0  0  0
  9 11  1  0  0  0  0
  9 24  1  0  0  0  0
  7  8  1  0  0  0  0
  7  9  1  0  0  0  0
 28 29  1  0  0  0  0
 28 30  1  0  0  0  0
 28 31  1  0  0  0  0
 26 27  1  0  0  0  0
 26 28  1  0  0  0  0
M  END
$$$$
default_name
  -OEChem-02102213163D

 31 30  0     1  0  0  0  0  0999 V2000
   -3.5895   -3.5013    1.1082 H   0  0  0  0  0  0  0  0  0  0  0  0
   -3.5145   -2.5363    0.6082 C   0  0  0  0  0  0  0  0  0  0  0  0
   -4.2285   -1.8413    1.0452 H   0  0  0  0  0  0  0  0  0  0  0  0
   -3.7155   -2.6583   -0.4538 H   0  0  0  0  0  0  0  0  0  0  0  0
   -2.1155   -1.9963    0.7922 C   0  0  0  0  0  0  0  0  0  0  0  0
   -1.2875   -2.6383    1.4252 O   0  0  0  0  0  0  0  0  0  0  0  0
   -1.8575   -0.8123    0.2402 N   0  0  0  0  0  0  0  0  0  0  0  0
   -2.6005   -0.3333   -0.2478 H   0  0  0  0  0  0  0  0  0  0  0  0
   -0.5675   -0.1203    0.3102 C   0  0  1  0  0  0  0  0  0  0  0  0
    0.0191   -0.5718    1.1110 H   0  0  0  0  0  0  0  0  0  0  0  0
    0.1724   -0.3238   -1.0286 C   0  0  0  0  0  0  0  0  0  0  0  0
   -0.1578   -1.2664   -1.4696 H   0  0  0  0  0  0  0  0  0  0  0  0
   -0.1265    0.4802   -1.7048 H   0  0  0  0  0  0  0  0  0  0  0  0
    1.7100   -0.3361   -0.9487 C   0  0  0  0  0  0  0  0  0  0  0  0
    2.0608   -1.3508   -0.7605 H   0  0  0  0  0  0  0  0  0  0  0  0
    2.3610    0.1857   -2.2329 C   0  0  0  0  0  0  0  0  0  0  0  0
    2.0070    1.1958   -2.4438 H   0  0  0  0  0  0  0  0  0  0  0  0
    3.4445    0.2054   -2.1135 H   0  0  0  0  0  0  0  0  0  0  0  0
    2.1193   -0.4586   -3.0754 H   0  0  0  0  0  0  0  0  0  0  0  0
    2.1739    0.5471    0.2089 C   0  0  0  0  0  0  0  0  0  0  0  0
    1.7504    0.1791    1.1434 H   0  0  0  0  0  0  0  0  0  0  0  0
    3.2608    0.5182    0.2849 H   0  0  0  0  0  0  0  0  0  0  0  0
    1.8516    1.5765    0.0486 H   0  0  0  0  0  0  0  0  0  0  0  0
   -0.7793    1.3659    0.6455 C   0  0  0  0  0  0  0  0  0  0  0  0
   -1.6464    2.0125    0.0623 O   0  0  0  0  0  0  0  0  0  0  0  0
    0.0189    1.9059    1.5756 N   0  0  0  0  0  0  0  0  0  0  0  0
    0.7024    1.3094    2.0137 H   0  0  0  0  0  0  0  0  0  0  0  0
   -0.0451    3.3046    1.9929 C   0  0  0  0  0  0  0  0  0  0  0  0
   -1.0415    3.5286    2.3805 H   0  0  0  0  0  0  0  0  0  0  0  0
    0.6954    3.5023    2.7695 H   0  0  0  0  0  0  0  0  0  0  0  0
    0.1474    3.9536    1.1372 H   0  0  0  0  0  0  0  0  0  0  0  0
  5  6  2  0  0  0  0
  5  7  1  0  0  0  0
  2  3  1  0  0  0  0
  2  4  1  0  0  0  0
  2  5  1  0  0  0  0
  1  2  1  0  0  0  0
 24 25  2  0  0  0  0
 24 26  1  0  0  0  0
 20 21  1  0  0  0  0
 20 22  1  0  0  0  0
 20 23  1  0  0  0  0
 16 17  1  0  0  0  0
 16 18  1  0  0  0  0
 16 19  1  0  0  0  0
 14 15  1  0  0  0  0
 14 16  1  0  0  0  0
 14 20  1  0  0  0  0
 11 12  1  0  0  0  0
 11 13  1  0  0  0  0
 11 14  1  0  0  0  0
  9 10  1  0  0  0  0
  9 11  1  0  0  0  0
  9 24  1  0  0  0  0
  7  8  1  0  0  0  0
  7  9  1  0  0  0  0
 28 29  1  0  0  0  0
 28 30  1  0  0  0  0
 28 31  1  0  0  0  0
 26 27  1  0  0  0  0
 26 28  1  0  0  0  0
M  END
$$$$
default_name
  -OEChem-02102213163D

 31 30  0     1  0  0  0  0  0999 V2000
   -3.5895   -3.5013    1.1082 H   0  0  0  0  0  0  0  0  0  0  0  0
   -3.5145   -2.5363    0.6082 C   0  0  0  0  0  0  0  0  0  0  0  0
   -4.2285   -1.8413    1.0452 H   0  0  0  0  0  0  0  0  0  0  0  0
   -3.7155   -2.6583   -0.4538 H   0  0  0  0  0  0  0  0  0  0  0  0
   -2.1155   -1.9963    0.7922 C   0  0  0  0  0  0  0  0  0  0  0  0
   -1.2875   -2.6383    1.4252 O   0  0  0  0  0  0  0  0  0  0  0  0
   -1.8575   -0.8123    0.2402 N   0  0  0  0  0  0  0  0  0  0  0  0
   -2.6005   -0.3333   -0.2478 H   0  0  0  0  0  0  0  0  0  0  0  0
   -0.5675   -0.1203    0.3102 C   0  0  1  0  0  0  0  0  0  0  0  0
    0.0191   -0.5718    1.1110 H   0  0  0  0  0  0  0  0  0  0  0  0
    0.1724   -0.3238   -1.0286 C   0  0  0  0  0  0  0  0  0  0  0  0
   -0.1578   -1.2664   -1.4696 H   0  0  0  0  0  0  0  0  0  0  0  0
   -0.1265    0.4802   -1.7048 H   0  0  0  0  0  0  0  0  0  0  0  0
    1.7100   -0.3361   -0.9487 C   0  0  0  0  0  0  0  0  0  0  0  0
    2.0746   -1.3603   -1.0279 H   0  0  0  0  0  0  0  0  0  0  0  0
    2.3542    0.5084   -2.0519 C   0  0  0  0  0  0  0  0  0  0  0  0
    1.9864    1.5339   -1.9959 H   0  0  0  0  0  0  0  0  0  0  0  0
    3.4373    0.5108   -1.9273 H   0  0  0  0  0  0  0  0  0  0  0  0
    2.1215    0.1006   -3.0333 H   0  0  0  0  0  0  0  0  0  0  0  0
    2.1614    0.2239    0.3996 C   0  0  0  0  0  0  0  0  0  0  0  0
    1.7428   -0.3787    1.2056 H   0  0  0  0  0  0  0  0  0  0  0  0
    3.2486    0.1906    0.4697 H   0  0  0  0  0  0  0  0  0  0  0  0
    1.8251    1.2555    0.5095 H   0  0  0  0  0  0  0  0  0  0  0  0
   -0.7793    1.3659    0.6455 C   0  0  0  0  0  0  0  0  0  0  0  0
   -1.6464    2.0125    0.0623 O   0  0  0  0  0  0  0  0  0  0  0  0
    0.0189    1.9059    1.5756 N   0  0  0  0  0  0  0  0  0  0  0  0
    0.7024    1.3094    2.0137 H   0  0  0  0  0  0  0  0  0  0  0  0
   -0.0451    3.3046    1.9929 C   0  0  0  0  0  0  0  0  0  0  0  0
   -1.0415    3.5286    2.3805 H   0  0  0  0  0  0  0  0  0  0  0  0
    0.6954    3.5023    2.7695 H   0  0  0  0  0  0  0  0  0  0  0  0
    0.1474    3.9536    1.1372 H   0  0  0  0  0  0  0  0  0  0  0  0
  5  6  2  0  0  0  0
  5  7  1  0  0  0  0
  2  3  1  0  0  0  0
  2  4  1  0  0  0  0
  2  5  1  0  0  0  0
  1  2  1  0  0  0  0
 24 25  2  0  0  0  0
 24 26  1  0  0  0  0
 20 21  1  0  0  0  0
 20 22  1  0  0  0  0
 20 23  1  0  0  0  0
 16 17  1  0  0  0  0
 16 18  1  0  0  0  0
 16 19  1  0  0  0  0
 14 15  1  0  0  0  0
 14 16  1  0  0  0  0
 14 20  1  0  0  0  0
 11 12  1  0  0  0  0
 11 13  1  0  0  0  0
 11 14  1  0  0  0  0
  9 10  1  0  0  0  0
  9 11  1  0  0  0  0
  9 24  1  0  0  0  0
  7  8  1  0  0  0  0
  7  9  1  0  0  0  0
 28 29  1  0  0  0  0
 28 30  1  0  0  0  0
 28 31  1  0  0  0  0
 26 27  1  0  0  0  0
 26 28  1  0  0  0  0
M  END
$$$$
default_name
  -OEChem-02102213163D

 31 30  0     1  0  0  0  0  0999 V2000
   -3.5895   -3.5013    1.1082 H   0  0  0  0  0  0  0  0  0  0  0  0
   -3.5145   -2.5363    0.6082 C   0  0  0  0  0  0  0  0  0  0  0  0
   -4.2285   -1.8413    1.0452 H   0  0  0  0  0  0  0  0  0  0  0  0
   -3.7155   -2.6583   -0.4538 H   0  0  0  0  0  0  0  0  0  0  0  0
   -2.1155   -1.9963    0.7922 C   0  0  0  0  0  0  0  0  0  0  0  0
   -1.2875   -2.6383    1.4252 O   0  0  0  0  0  0  0  0  0  0  0  0
   -1.8575   -0.8123    0.2402 N   0  0  0  0  0  0  0  0  0  0  0  0
   -2.6005   -0.3333   -0.2478 H   0  0  0  0  0  0  0  0  0  0  0  0
   -0.5675   -0.1203    0.3102 C   0  0  1  0  0  0  0  0  0  0  0  0
    0.0191   -0.5718    1.1110 H   0  0  0  0  0  0  0  0  0  0  0  0
    0.1724   -0.3238   -1.0286 C   0  0  0  0  0  0  0  0  0  0  0  0
   -0.1578   -1.2664   -1.4696 H   0  0  0  0  0  0  0  0  0  0  0  0
   -0.1265    0.4802   -1.7048 H   0  0  0  0  0  0  0  0  0  0  0  0
    1.7100   -0.3361   -0.9487 C   0  0  0  0  0  0  0  0  0  0  0  0
    2.0886   -1.3001   -1.2885 H   0  0  0  0  0  0  0  0  0  0  0  0
    2.3429    0.7733   -1.7937 C   0  0  0  0  0  0  0  0  0  0  0  0
    1.9611    1.7445   -1.4760 H   0  0  0  0  0  0  0  0  0  0  0  0
    3.4258    0.7576   -1.6686 H   0  0  0  0  0  0  0  0  0  0  0  0
    2.1161    0.6300   -2.8480 H   0  0  0  0  0  0  0  0  0  0  0  0
    2.1533   -0.1378    0.5003 C   0  0  0  0  0  0  0  0  0  0  0  0
    1.7427   -0.9337    1.1215 H   0  0  0  0  0  0  0  0  0  0  0  0
    3.2408   -0.1737    0.5635 H   0  0  0  0  0  0  0  0  0  0  0  0
    1.8028    0.8258    0.8718 H   0  0  0  0  0  0  0  0  0  0  0  0
   -0.7793    1.3659    0.6455 C   0  0  0  0  0  0  0  0  0  0  0  0
   -1.6464    2.0125    0.0623 O   0  0  0  0  0  0  0  0  0  0  0  0
    0.0189    1.9059    1.5756 N   0  0  0  0  0  0  0  0  0  0  0  0
    0.7024    1.3094    2.0137 H   0  0  0  0  0  0  0  0  0  0  0  0
   -0.0451    3.3046    1.9929 C   0  0  0  0  0  0  0  0  0  0  0  0
   -1.0415    3.5286    2.3805 H   0  0  0  0  0  0  0  0  0  0  0  0
    0.6954    3.5023    2.7695 H   0  0  0  0  0  0  0  0  0  0  0  0
    0.1474    3.9536    1.1372 H   0  0  0  0  0  0  0  0  0  0  0  0
  5  6  2  0  0  0  0
  5  7  1  0  0  0  0
  2  3  1  0  0  0  0
  2  4  1  0  0  0  0
  2  5  1  0  0  0  0
  1  2  1  0  0  0  0
 24 25  2  0  0  0  0
 24 26  1  0  0  0  0
 20 21  1  0  0  0  0
 20 22  1  0  0  0  0
 20 23  1  0  0  0  0
 16 17  1  0  0  0  0
 16 18  1  0  0  0  0
 16 19  1  0  0  0  0
 14 15  1  0  0  0  0
 14 16  1  0  0  0  0
 14 20  1  0  0  0  0
 11 12  1  0  0  0  0
 11 13  1  0  0  0  0
 11 14  1  0  0  0  0
  9 10  1  0  0  0  0
  9 11  1  0  0  0  0
  9 24  1  0  0  0  0
  7  8  1  0  0  0  0
  7  9  1  0  0  0  0
 28 29  1  0  0  0  0
 28 30  1  0  0  0  0
 28 31  1  0  0  0  0
 26 27  1  0  0  0  0
 26 28  1  0  0  0  0
M  END
$$$$
default_name
  -OEChem-02102213163D

 31 30  0     1  0  0  0  0  0999 V2000
   -3.5895   -3.5013    1.1082 H   0  0  0  0  0  0  0  0  0  0  0  0
   -3.5145   -2.5363    0.6082 C   0  0  0  0  0  0  0  0  0  0  0  0
   -4.2285   -1.8413    1.0452 H   0  0  0  0  0  0  0  0  0  0  0  0
   -3.7155   -2.6583   -0.4538 H   0  0  0  0  0  0  0  0  0  0  0  0
   -2.1155   -1.9963    0.7922 C   0  0  0  0  0  0  0  0  0  0  0  0
   -1.2875   -2.6383    1.4252 O   0  0  0  0  0  0  0  0  0  0  0  0
   -1.8575   -0.8123    0.2402 N   0  0  0  0  0  0  0  0  0  0  0  0
   -2.6005   -0.3333   -0.2478 H   0  0  0  0  0  0  0  0  0  0  0  0
   -0.5675   -0.1203    0.3102 C   0  0  1  0  0  0  0  0  0  0  0  0
    0.0191   -0.5718    1.1110 H   0  0  0  0  0  0  0  0  0  0  0  0
    0.1724   -0.3238   -1.0286 C   0  0  0  0  0  0  0  0  0  0  0  0
   -0.1578   -1.2664   -1.4696 H   0  0  0  0  0  0  0  0  0  0  0  0
   -0.1265    0.4802   -1.7048 H   0  0  0  0  0  0  0  0  0  0  0  0
    1.7100   -0.3361   -0.9487 C   0  0  0  0  0  0  0  0  0  0  0  0
    2.1019   -1.1745   -1.5246 H   0  0  0  0  0  0  0  0  0  0  0  0
    2.3278    0.9622   -1.4758 C   0  0  0  0  0  0  0  0  0  0  0  0
    1.9327    1.8132   -0.9194 H   0  0  0  0  0  0  0  0  0  0  0  0
    3.4108    0.9290   -1.3549 H   0  0  0  0  0  0  0  0  0  0  0  0
    2.1034    1.0933   -2.5322 H   0  0  0  0  0  0  0  0  0  0  0  0
    2.1501   -0.5132    0.5040 C   0  0  0  0  0  0  0  0  0  0  0  0
    1.7503   -1.4480    0.8969 H   0  0  0  0  0  0  0  0  0  0  0  0
    3.2380   -0.5500    0.5599 H   0  0  0  0  0  0  0  0  0  0  0  0
    1.7864    0.3169    1.1106 H   0  0  0  0  0  0  0  0  0  0  0  0
   -0.7793    1.3659    0.6455 C   0  0  0  0  0  0  0  0  0  0  0  0
   -1.6464    2.0125    0.0623 O   0  0  0  0  0  0  0  0  0  0  0  0
    0.0189    1.9059    1.5756 N   0  0  0  0  0  0  0  0  0  0  0  0
    0.7024    1.3094    2.0137 H   0  0  0  0  0  0  0  0  0  0  0  0
   -0.0451    3.3046    1.9929 C   0  0  0  0  0  0  0  0  0  0  0  0
   -1.0415    3.5286    2.3805 H   0  0  0  0  0  0  0  0  0  0  0  0
    0.6954    3.5023    2.7695 H   0  0  0  0  0  0  0  0  0  0  0  0
    0.1474    3.9536    1.1372 H   0  0  0  0  0  0  0  0  0  0  0  0
  5  6  2  0  0  0  0
  5  7  1  0  0  0  0
  2  3  1  0  0  0  0
  2  4  1  0  0  0  0
  2  5  1  0  0  0  0
  1  2  1  0  0  0  0
 24 25  2  0  0  0  0
 24 26  1  0  0  0  0
 20 21  1  0  0  0  0
 20 22  1  0  0  0  0
 20 23  1  0  0  0  0
 16 17  1  0  0  0  0
 16 18  1  0  0  0  0
 16 19  1  0  0  0  0
 14 15  1  0  0  0  0
 14 16  1  0  0  0  0
 14 20  1  0  0  0  0
 11 12  1  0  0  0  0
 11 13  1  0  0  0  0
 11 14  1  0  0  0  0
  9 10  1  0  0  0  0
  9 11  1  0  0  0  0
  9 24  1  0  0  0  0
  7  8  1  0  0  0  0
  7  9  1  0  0  0  0
 28 29  1  0  0  0  0
 28 30  1  0  0  0  0
 28 31  1  0  0  0  0
 26 27  1  0  0  0  0
 26 28  1  0  0  0  0
M  END
$$$$
default_name
  -OEChem-02102213163D

 31 30  0     1  0  0  0  0  0999 V2000
   -3.5895   -3.5013    1.1082 H   0  0  0  0  0  0  0  0  0  0  0  0
   -3.5145   -2.5363    0.6082 C   0  0  0  0  0  0  0  0  0  0  0  0
   -4.2285   -1.8413    1.0452 H   0  0  0  0  0  0  0  0  0  0  0  0
   -3.7155   -2.6583   -0.4538 H   0  0  0  0  0  0  0  0  0  0  0  0
   -2.1155   -1.9963    0.7922 C   0  0  0  0  0  0  0  0  0  0  0  0
   -1.2875   -2.6383    1.4252 O   0  0  0  0  0  0  0  0  0  0  0  0
   -1.8575   -0.8123    0.2402 N   0  0  0  0  0  0  0  0  0  0  0  0
   -2.6005   -0.3333   -0.2478 H   0  0  0  0  0  0  0  0  0  0  0  0
   -0.5675   -0.1203    0.3102 C   0  0  1  0  0  0  0  0  0  0  0  0
    0.0191   -0.5718    1.1110 H   0  0  0  0  0  0  0  0  0  0  0  0
    0.1724   -0.3238   -1.0286 C   0  0  0  0  0  0  0  0  0  0  0  0
   -0.1578   -1.2664   -1.4696 H   0  0  0  0  0  0  0  0  0  0  0  0
   -0.1265    0.4802   -1.7048 H   0  0  0  0  0  0  0  0  0  0  0  0
    1.7100   -0.3361   -0.9487 C   0  0  0  0  0  0  0  0  0  0  0  0
    2.1135   -0.9919   -1.7202 H   0  0  0  0  0  0  0  0  0  0  0  0
    2.3102    1.0624   -1.1200 C   0  0  0  0  0  0  0  0  0  0  0  0
    1.9032    1.7353   -0.3640 H   0  0  0  0  0  0  0  0  0  0  0  0
    3.3935    1.0133   -1.0076 H   0  0  0  0  0  0  0  0  0  0  0  0
    2.0843    1.4591   -2.1075 H   0  0  0  0  0  0  0  0  0  0  0  0
    2.1520   -0.8769    0.4105 C   0  0  0  0  0  0  0  0  0  0  0  0
    1.7650   -1.8866    0.5469 H   0  0  0  0  0  0  0  0  0  0  0  0
    3.2404   -0.9125    0.4592 H   0  0  0  0  0  0  0  0  0  0  0  0
    1.7768   -0.2366    1.2096 H   0  0  0  0  0  0  0  0  0  0  0  0
   -0.7793    1.3659    0.6455 C   0  0  0  0  0  0  0  0  0  0  0  0
   -1.6464    2.0125    0.0623 O   0  0  0  0  0  0  0  0  0  0  0  0
    0.0189    1.9059    1.5756 N   0  0  0  0  0  0  0  0  0  0  0  0
    0.7024    1.3094    2.0137 H   0  0  0  0  0  0  0  0  0  0  0  0
   -0.0451    3.3046    1.9929 C   0  0  0  0  0  0  0  0  0  0  0  0
   -1.0415    3.5286    2.3805 H   0  0  0  0  0  0  0  0  0  0  0  0
    0.6954    3.5023    2.7695 H   0  0  0  0  0  0  0  0  0  0  0  0
    0.1474    3.9536    1.1372 H   0  0  0  0  0  0  0  0  0  0  0  0
  5  6  2  0  0  0  0
  5  7  1  0  0  0  0
  2  3  1  0  0  0  0
  2  4  1  0  0  0  0
  2  5  1  0  0  0  0
  1  2  1  0  0  0  0
 24 25  2  0  0  0  0
 24 26  1  0  0  0  0
 20 21  1  0  0  0  0
 20 22  1  0  0  0  0
 20 23  1  0  0  0  0
 16 17  1  0  0  0  0
 16 18  1  0  0  0  0
 16 19  1  0  0  0  0
 14 15  1  0  0  0  0
 14 16  1  0  0  0  0
 14 20  1  0  0  0  0
 11 12  1  0  0  0  0
 11 13  1  0  0  0  0
 11 14  1  0  0  0  0
  9 10  1  0  0  0  0
  9 11  1  0  0  0  0
  9 24  1  0  0  0  0
  7  8  1  0  0  0  0
  7  9  1  0  0  0  0
 28 29  1  0  0  0  0
 28 30  1  0  0  0  0
 28 31  1  0  0  0  0
 26 27  1  0  0  0  0
 26 28  1  0  0  0  0
M  END
$$$$
default_name
  -OEChem-02102213163D

 31 30  0     1  0  0  0  0  0999 V2000
   -3.5895   -3.5013    1.1082 H   0  0  0  0  0  0  0  0  0  0  0  0
   -3.5145   -2.5363    0.6082 C   0  0  0  0  0  0  0  0  0  0  0  0
   -4.2285   -1.8413    1.0452 H   0  0  0  0  0  0  0  0  0  0  0  0
   -3.7155   -2.6583   -0.4538 H   0  0  0  0  0  0  0  0  0  0  0  0
   -2.1155   -1.9963    0.7922 C   0  0  0  0  0  0  0  0  0  0  0  0
   -1.2875   -2.6383    1.4252 O   0  0  0  0  0  0  0  0  0  0  0  0
   -1.8575   -0.8123    0.2402 N   0  0  0  0  0  0  0  0  0  0  0  0
   -2.6005   -0.3333   -0.2478 H   0  0  0  0  0  0  0  0  0  0  0  0
   -0.5675   -0.1203    0.3102 C   0  0  1  0  0  0  0  0  0  0  0  0
    0.0191   -0.5718    1.1110 H   0  0  0  0  0  0  0  0  0  0  0  0
    0.1724   -0.3238   -1.0286 C   0  0  0  0  0  0  0  0  0  0  0  0
   -0.1578   -1.2664   -1.4696 H   0  0  0  0  0  0  0  0  0  0  0  0
   -0.1265    0.4802   -1.7048 H   0  0  0  0  0  0  0  0  0  0  0  0
    1.7100   -0.3361   -0.9487 C   0  0  0  0  0  0  0  0  0  0  0  0
    2.1227   -0.7648   -1.8620 H   0  0  0  0  0  0  0  0  0  0  0  0
    2.2910    1.0669   -0.7505 C   0  0  0  0  0  0  0  0  0  0  0  0
    1.8747    1.5162    0.1522 H   0  0  0  0  0  0  0  0  0  0  0  0
    3.3748    1.0047   -0.6504 H   0  0  0  0  0  0  0  0  0  0  0  0
    2.0600    1.7023   -1.6027 H   0  0  0  0  0  0  0  0  0  0  0  0
    2.1590   -1.2040    0.2263 C   0  0  0  0  0  0  0  0  0  0  0  0
    1.7857   -2.2197    0.0956 H   0  0  0  0  0  0  0  0  0  0  0  0
    3.2477   -1.2367    0.2683 H   0  0  0  0  0  0  0  0  0  0  0  0
    1.7748   -0.7970    1.1623 H   0  0  0  0  0  0  0  0  0  0  0  0
   -0.7793    1.3659    0.6455 C   0  0  0  0  0  0  0  0  0  0  0  0
   -1.6464    2.0125    0.0623 O   0  0  0  0  0  0  0  0  0  0  0  0
    0.0189    1.9059    1.5756 N   0  0  0  0  0  0  0  0  0  0  0  0
    0.7024    1.3094    2.0137 H   0  0  0  0  0  0  0  0  0  0  0  0
   -0.0451    3.3046    1.9929 C   0  0  0  0  0  0  0  0  0  0  0  0
   -1.0415    3.5286    2.3805 H   0  0  0  0  0  0  0  0  0  0  0  0
    0.6954    3.5023    2.7695 H   0  0  0  0  0  0  0  0  0  0  0  0
    0.1474    3.9536    1.1372 H   0  0  0  0  0  0  0  0  0  0  0  0
  5  6  2  0  0  0  0
  5  7  1  0  0  0  0
  2  3  1  0  0  0  0
  2  4  1  0  0  0  0
  2  5  1  0  0  0  0
  1  2  1  0  0  0  0
 24 25  2  0  0  0  0
 24 26  1  0  0  0  0
 20 21  1  0  0  0  0
 20 22  1  0  0  0  0
 20 23  1  0  0  0  0
 16 17  1  0  0  0  0
 16 18  1  0  0  0  0
 16 19  1  0  0  0  0
 14 15  1  0  0  0  0
 14 16  1  0  0  0  0
 14 20  1  0  0  0  0
 11 12  1  0  0  0  0
 11 13  1  0  0  0  0
 11 14  1  0  0  0  0
  9 10  1  0  0  0  0
  9 11  1  0  0  0  0
  9 24  1  0  0  0  0
  7  8  1  0  0  0  0
  7  9  1  0  0  0  0
 28 29  1  0  0  0  0
 28 30  1  0  0  0  0
 28 31  1  0  0  0  0
 26 27  1  0  0  0  0
 26 28  1  0  0  0  0
M  END
$$$$
default_name
  -OEChem-02102213163D

 31 30  0     1  0  0  0  0  0999 V2000
   -3.5895   -3.5013    1.1082 H   0  0  0  0  0  0  0  0  0  0  0  0
   -3.5145   -2.5363    0.6082 C   0  0  0  0  0  0  0  0  0  0  0  0
   -4.2285   -1.8413    1.0452 H   0  0  0  0  0  0  0  0  0  0  0  0
   -3.7155   -2.6583   -0.4538 H   0  0  0  0  0  0  0  0  0  0  0  0
   -2.1155   -1.9963    0.7922 C   0  0  0  0  0  0  0  0  0  0  0  0
   -1.2875   -2.6383    1.4252 O   0  0  0  0  0  0  0  0  0  0  0  0
   -1.8575   -0.8123    0.2402 N   0  0  0  0  0  0  0  0  0  0  0  0
   -2.6005   -0.3333   -0.2478 H   0  0  0  0  0  0  0  0  0  0  0  0
   -0.5675   -0.1203    0.3102 C   0  0  1  0  0  0  0  0  0  0  0  0
    0.0191   -0.5718    1.1110 H   0  0  0  0  0  0  0  0  0  0  0  0
    0.1724   -0.3238   -1.0286 C   0  0  0  0  0  0  0  0  0  0  0  0
   -0.1578   -1.2664   -1.4696 H   0  0  0  0  0  0  0  0  0  0  0  0
   -0.1265    0.4802   -1.7048 H   0  0  0  0  0  0  0  0  0  0  0  0
    1.7100   -0.3361   -0.9487 C   0  0  0  0  0  0  0  0  0  0  0  0
    2.1288   -0.5087   -1.9402 H   0  0  0  0  0  0  0  0  0  0  0  0
    2.2717    0.9755   -0.3924 C   0  0  0  0  0  0  0  0  0  0  0  0
    1.8489    1.1706    0.5941 H   0  0  0  0  0  0  0  0  0  0  0  0
    3.3562    0.9038   -0.3077 H   0  0  0  0  0  0  0  0  0  0  0  0
    2.0322    1.8065   -1.0523 H   0  0  0  0  0  0  0  0  0  0  0  0
    2.1705   -1.4722   -0.0363 C   0  0  0  0  0  0  0  0  0  0  0  0
    1.8112   -2.4244   -0.4264 H   0  0  0  0  0  0  0  0  0  0  0  0
    3.2595   -1.5003    0.0000 H   0  0  0  0  0  0  0  0  0  0  0  0
    1.7805   -1.3261    0.9716 H   0  0  0  0  0  0  0  0  0  0  0  0
   -0.7793    1.3659    0.6455 C   0  0  0  0  0  0  0  0  0  0  0  0
   -1.6464    2.0125    0.0623 O   0  0  0  0  0  0  0  0  0  0  0  0
    0.0189    1.9059    1.5756 N   0  0  0  0  0  0  0  0  0  0  0  0
    0.7024    1.3094    2.0137 H   0  0  0  0  0  0  0  0  0  0  0  0
   -0.0451    3.3046    1.9929 C   0  0  0  0  0  0  0  0  0  0  0  0
   -1.0415    3.5286    2.3805 H   0  0  0  0  0  0  0  0  0  0  0  0
    0.6954    3.5023    2.7695 H   0  0  0  0  0  0  0  0  0  0  0  0
    0.1474    3.9536    1.1372 H   0  0  0  0  0  0  0  0  0  0  0  0
  5  6  2  0  0  0  0
  5  7  1  0  0  0  0
  2  3  1  0  0  0  0
  2  4  1  0  0  0  0
  2  5  1  0  0  0  0
  1  2  1  0  0  0  0
 24 25  2  0  0  0  0
 24 26  1  0  0  0  0
 20 21  1  0  0  0  0
 20 22  1  0  0  0  0
 20 23  1  0  0  0  0
 16 17  1  0  0  0  0
 16 18  1  0  0  0  0
 16 19  1  0  0  0  0
 14 15  1  0  0  0  0
 14 16  1  0  0  0  0
 14 20  1  0  0  0  0
 11 12  1  0  0  0  0
 11 13  1  0  0  0  0
 11 14  1  0  0  0  0
  9 10  1  0  0  0  0
  9 11  1  0  0  0  0
  9 24  1  0  0  0  0
  7  8  1  0  0  0  0
  7  9  1  0  0  0  0
 28 29  1  0  0  0  0
 28 30  1  0  0  0  0
 28 31  1  0  0  0  0
 26 27  1  0  0  0  0
 26 28  1  0  0  0  0
M  END
$$$$
default_name
  -OEChem-02102213163D

 31 30  0     1  0  0  0  0  0999 V2000
   -3.5895   -3.5013    1.1082 H   0  0  0  0  0  0  0  0  0  0  0  0
   -3.5145   -2.5363    0.6082 C   0  0  0  0  0  0  0  0  0  0  0  0
   -4.2285   -1.8413    1.0452 H   0  0  0  0  0  0  0  0  0  0  0  0
   -3.7155   -2.6583   -0.4538 H   0  0  0  0  0  0  0  0  0  0  0  0
   -2.1155   -1.9963    0.7922 C   0  0  0  0  0  0  0  0  0  0  0  0
   -1.2875   -2.6383    1.4252 O   0  0  0  0  0  0  0  0  0  0  0  0
   -1.8575   -0.8123    0.2402 N   0  0  0  0  0  0  0  0  0  0  0  0
   -2.6005   -0.3333   -0.2478 H   0  0  0  0  0  0  0  0  0  0  0  0
   -0.5675   -0.1203    0.3102 C   0  0  1  0  0  0  0  0  0  0  0  0
    0.0191   -0.5718    1.1110 H   0  0  0  0  0  0  0  0  0  0  0  0
    0.1724   -0.3238   -1.0286 C   0  0  0  0  0  0  0  0  0  0  0  0
   -0.1578   -1.2664   -1.4696 H   0  0  0  0  0  0  0  0  0  0  0  0
   -0.1265    0.4802   -1.7048 H   0  0  0  0  0  0  0  0  0  0  0  0
    1.7100   -0.3361   -0.9487 C   0  0  0  0  0  0  0  0  0  0  0  0
    2.1314   -0.2411   -1.9495 H   0  0  0  0  0  0  0  0  0  0  0  0
    2.2535    0.7944   -0.0702 C   0  0  0  0  0  0  0  0  0  0  0  0
    1.8278    0.7223    0.9317 H   0  0  0  0  0  0  0  0  0  0  0  0
    3.3389    0.7175   -0.0027 H   0  0  0  0  0  0  0  0  0  0  0  0
    2.0029    1.7645   -0.4938 H   0  0  0  0  0  0  0  0  0  0  0  0
    2.1857   -1.6633   -0.3591 C   0  0  0  0  0  0  0  0  0  0  0  0
    1.8397   -2.4869   -0.9835 H   0  0  0  0  0  0  0  0  0  0  0  0
    3.2750   -1.6855   -0.3272 H   0  0  0  0  0  0  0  0  0  0  0  0
    1.7935   -1.7878    0.6508 H   0  0  0  0  0  0  0  0  0  0  0  0
   -0.7793    1.3659    0.6455 C   0  0  0  0  0  0  0  0  0  0  0  0
   -1.6464    2.0125    0.0623 O   0  0  0  0  0  0  0  0  0  0  0  0
    0.0189    1.9059    1.5756 N   0  0  0  0  0  0  0  0  0  0  0  0
    0.7024    1.3094    2.0137 H   0  0  0  0  0  0  0  0  0  0  0  0
   -0.0451    3.3046    1.9929 C   0  0  0  0  0  0  0  0  0  0  0  0
   -1.0415    3.5286    2.3805 H   0  0  0  0  0  0  0  0  0  0  0  0
    0.6954    3.5023    2.7695 H   0  0  0  0  0  0  0  0  0  0  0  0
    0.1474    3.9536    1.1372 H   0  0  0  0  0  0  0  0  0  0  0  0
  5  6  2  0  0  0  0
  5  7  1  0  0  0  0
  2  3  1  0  0  0  0
  2  4  1  0  0  0  0
  2  5  1  0  0  0  0
  1  2  1  0  0  0  0
 24 25  2  0  0  0  0
 24 26  1  0  0  0  0
 20 21  1  0  0  0  0
 20 22  1  0  0  0  0
 20 23  1  0  0  0  0
 16 17  1  0  0  0  0
 16 18  1  0  0  0  0
 16 19  1  0  0  0  0
 14 15  1  0  0  0  0
 14 16  1  0  0  0  0
 14 20  1  0  0  0  0
 11 12  1  0  0  0  0
 11 13  1  0  0  0  0
 11 14  1  0  0  0  0
  9 10  1  0  0  0  0
  9 11  1  0  0  0  0
  9 24  1  0  0  0  0
  7  8  1  0  0  0  0
  7  9  1  0  0  0  0
 28 29  1  0  0  0  0
 28 30  1  0  0  0  0
 28 31  1  0  0  0  0
 26 27  1  0  0  0  0
 26 28  1  0  0  0  0
M  END
$$$$
default_name
  -OEChem-02102213163D

 31 30  0     1  0  0  0  0  0999 V2000
   -3.5895   -3.5013    1.1082 H   0  0  0  0  0  0  0  0  0  0  0  0
   -3.5145   -2.5363    0.6082 C   0  0  0  0  0  0  0  0  0  0  0  0
   -4.2285   -1.8413    1.0452 H   0  0  0  0  0  0  0  0  0  0  0  0
   -3.7155   -2.6583   -0.4538 H   0  0  0  0  0  0  0  0  0  0  0  0
   -2.1155   -1.9963    0.7922 C   0  0  0  0  0  0  0  0  0  0  0  0
   -1.2875   -2.6383    1.4252 O   0  0  0  0  0  0  0  0  0  0  0  0
   -1.8575   -0.8123    0.2402 N   0  0  0  0  0  0  0  0  0  0  0  0
   -2.6005   -0.3333   -0.2478 H   0  0  0  0  0  0  0  0  0  0  0  0
   -0.5675   -0.1203    0.3102 C   0  0  1  0  0  0  0  0  0  0  0  0
    0.0191   -0.5718    1.1110 H   0  0  0  0  0  0  0  0  0  0  0  0
    0.1724   -0.3238   -1.0286 C   0  0  0  0  0  0  0  0  0  0  0  0
   -0.1578   -1.2664   -1.4696 H   0  0  0  0  0  0  0  0  0  0  0  0
   -0.1265    0.4802   -1.7048 H   0  0  0  0  0  0  0  0  0  0  0  0
    1.7100   -0.3361   -0.9487 C   0  0  0  0  0  0  0  0  0  0  0  0
    2.1303    0.0199   -1.8893 H   0  0  0  0  0  0  0  0  0  0  0  0
    2.2377    0.5359    0.1942 C   0  0  0  0  0  0  0  0  0  0  0  0
    1.8128    0.2018    1.1418 H   0  0  0  0  0  0  0  0  0  0  0  0
    3.3240    0.4585    0.2437 H   0  0  0  0  0  0  0  0  0  0  0  0
    1.9739    1.5792    0.0348 H   0  0  0  0  0  0  0  0  0  0  0  0
    2.2037   -1.7642   -0.7204 C   0  0  0  0  0  0  0  0  0  0  0  0
    1.8692   -2.4030   -1.5377 H   0  0  0  0  0  0  0  0  0  0  0  0
    3.2932   -1.7796   -0.6910 H   0  0  0  0  0  0  0  0  0  0  0  0
    1.8129   -2.1507    0.2216 H   0  0  0  0  0  0  0  0  0  0  0  0
   -0.7793    1.3659    0.6455 C   0  0  0  0  0  0  0  0  0  0  0  0
   -1.6464    2.0125    0.0623 O   0  0  0  0  0  0  0  0  0  0  0  0
    0.0189    1.9059    1.5756 N   0  0  0  0  0  0  0  0  0  0  0  0
    0.7024    1.3094    2.0137 H   0  0  0  0  0  0  0  0  0  0  0  0
   -0.0451    3.3046    1.9929 C   0  0  0  0  0  0  0  0  0  0  0  0
   -1.0415    3.5286    2.3805 H   0  0  0  0  0  0  0  0  0  0  0  0
    0.6954    3.5023    2.7695 H   0  0  0  0  0  0  0  0  0  0  0  0
    0.1474    3.9536    1.1372 H   0  0  0  0  0  0  0  0  0  0  0  0
  5  6  2  0  0  0  0
  5  7  1  0  0  0  0
  2  3  1  0  0  0  0
  2  4  1  0  0  0  0
  2  5  1  0  0  0  0
  1  2  1  0  0  0  0
 24 25  2  0  0  0  0
 24 26  1  0  0  0  0
 20 21  1  0  0  0  0
 20 22  1  0  0  0  0
 20 23  1  0  0  0  0
 16 17  1  0  0  0  0
 16 18  1  0  0  0  0
 16 19  1  0  0  0  0
 14 15  1  0  0  0  0
 14 16  1  0  0  0  0
 14 20  1  0  0  0  0
 11 12  1  0  0  0  0
 11 13  1  0  0  0  0
 11 14  1  0  0  0  0
  9 10  1  0  0  0  0
  9 11  1  0  0  0  0
  9 24  1  0  0  0  0
  7  8  1  0  0  0  0
  7  9  1  0  0  0  0
 28 29  1  0  0  0  0
 28 30  1  0  0  0  0
 28 31  1  0  0  0  0
 26 27  1  0  0  0  0
 26 28  1  0  0  0  0
M  END
$$$$
default_name
  -OEChem-02102213163D

 31 30  0     1  0  0  0  0  0999 V2000
   -3.5895   -3.5013    1.1082 H   0  0  0  0  0  0  0  0  0  0  0  0
   -3.5145   -2.5363    0.6082 C   0  0  0  0  0  0  0  0  0  0  0  0
   -4.2285   -1.8413    1.0452 H   0  0  0  0  0  0  0  0  0  0  0  0
   -3.7155   -2.6583   -0.4538 H   0  0  0  0  0  0  0  0  0  0  0  0
   -2.1155   -1.9963    0.7922 C   0  0  0  0  0  0  0  0  0  0  0  0
   -1.2875   -2.6383    1.4252 O   0  0  0  0  0  0  0  0  0  0  0  0
   -1.8575   -0.8123    0.2402 N   0  0  0  0  0  0  0  0  0  0  0  0
   -2.6005   -0.3333   -0.2478 H   0  0  0  0  0  0  0  0  0  0  0  0
   -0.5675   -0.1203    0.3102 C   0  0  1  0  0  0  0  0  0  0  0  0
    0.0191   -0.5718    1.1110 H   0  0  0  0  0  0  0  0  0  0  0  0
    0.1724   -0.3238   -1.0286 C   0  0  0  0  0  0  0  0  0  0  0  0
   -0.1578   -1.2664   -1.4696 H   0  0  0  0  0  0  0  0  0  0  0  0
   -0.1265    0.4802   -1.7048 H   0  0  0  0  0  0  0  0  0  0  0  0
    1.7100   -0.3361   -0.9487 C   0  0  0  0  0  0  0  0  0  0  0  0
    2.1257    0.2564   -1.7637 H   0  0  0  0  0  0  0  0  0  0  0  0
    2.2253    0.2177    0.3828 C   0  0  0  0  0  0  0  0  0  0  0  0
    1.8048   -0.3555    1.2101 H   0  0  0  0  0  0  0  0  0  0  0  0
    3.3126    0.1445    0.4147 H   0  0  0  0  0  0  0  0  0  0  0  0
    1.9474    1.2632    0.4974 H   0  0  0  0  0  0  0  0  0  0  0  0
    2.2232   -1.7681   -1.0953 C   0  0  0  0  0  0  0  0  0  0  0  0
    1.8976   -2.1782   -2.0513 H   0  0  0  0  0  0  0  0  0  0  0  0
    3.3128   -1.7762   -1.0668 H   0  0  0  0  0  0  0  0  0  0  0  0
    1.8374   -2.3900   -0.2868 H   0  0  0  0  0  0  0  0  0  0  0  0
   -0.7793    1.3659    0.6455 C   0  0  0  0  0  0  0  0  0  0  0  0
   -1.6464    2.0125    0.0623 O   0  0  0  0  0  0  0  0  0  0  0  0
    0.0189    1.9059    1.5756 N   0  0  0  0  0  0  0  0  0  0  0  0
    0.7024    1.3094    2.0137 H   0  0  0  0  0  0  0  0  0  0  0  0
   -0.0451    3.3046    1.9929 C   0  0  0  0  0  0  0  0  0  0  0  0
   -1.0415    3.5286    2.3805 H   0  0  0  0  0  0  0  0  0  0  0  0
    0.6954    3.5023    2.7695 H   0  0  0  0  0  0  0  0  0  0  0  0
    0.1474    3.9536    1.1372 H   0  0  0  0  0  0  0  0  0  0  0  0
  5  6  2  0  0  0  0
  5  7  1  0  0  0  0
  2  3  1  0  0  0  0
  2  4  1  0  0  0  0
  2  5  1  0  0  0  0
  1  2  1  0  0  0  0
 24 25  2  0  0  0  0
 24 26  1  0  0  0  0
 20 21  1  0  0  0  0
 20 22  1  0  0  0  0
 20 23  1  0  0  0  0
 16 17  1  0  0  0  0
 16 18  1  0  0  0  0
 16 19  1  0  0  0  0
 14 15  1  0  0  0  0
 14 16  1  0  0  0  0
 14 20  1  0  0  0  0
 11 12  1  0  0  0  0
 11 13  1  0  0  0  0
 11 14  1  0  0  0  0
  9 10  1  0  0  0  0
  9 11  1  0  0  0  0
  9 24  1  0  0  0  0
  7  8  1  0  0  0  0
  7  9  1  0  0  0  0
 28 29  1  0  0  0  0
 28 30  1  0  0  0  0
 28 31  1  0  0  0  0
 26 27  1  0  0  0  0
 26 28  1  0  0  0  0
M  END
$$$$
default_name
  -OEChem-02102213163D

 31 30  0     1  0  0  0  0  0999 V2000
   -3.5895   -3.5013    1.1082 H   0  0  0  0  0  0  0  0  0  0  0  0
   -3.5145   -2.5363    0.6082 C   0  0  0  0  0  0  0  0  0  0  0  0
   -4.2285   -1.8413    1.0452 H   0  0  0  0  0  0  0  0  0  0  0  0
   -3.7155   -2.6583   -0.4538 H   0  0  0  0  0  0  0  0  0  0  0  0
   -2.1155   -1.9963    0.7922 C   0  0  0  0  0  0  0  0  0  0  0  0
   -1.2875   -2.6383    1.4252 O   0  0  0  0  0  0  0  0  0  0  0  0
   -1.8575   -0.8123    0.2402 N   0  0  0  0  0  0  0  0  0  0  0  0
   -2.6005   -0.3333   -0.2478 H   0  0  0  0  0  0  0  0  0  0  0  0
   -0.5675   -0.1203    0.3102 C   0  0  1  0  0  0  0  0  0  0  0  0
    0.0191   -0.5718    1.1110 H   0  0  0  0  0  0  0  0  0  0  0  0
    0.1724   -0.3238   -1.0286 C   0  0  0  0  0  0  0  0  0  0  0  0
   -0.1578   -1.2664   -1.4696 H   0  0  0  0  0  0  0  0  0  0  0  0
   -0.1265    0.4802   -1.7048 H   0  0  0  0  0  0  0  0  0  0  0  0
    1.7100   -0.3361   -0.9487 C   0  0  0  0  0  0  0  0  0  0  0  0
    2.1178    0.4524   -1.5813 H   0  0  0  0  0  0  0  0  0  0  0  0
    2.2173   -0.1385    0.4827 C   0  0  0  0  0  0  0  0  0  0  0  0
    1.8044   -0.9116    1.1321 H   0  0  0  0  0  0  0  0  0  0  0  0
    3.3055   -0.2032    0.4987 H   0  0  0  0  0  0  0  0  0  0  0  0
    1.9250    0.8381    0.8625 H   0  0  0  0  0  0  0  0  0  0  0  0
    2.2428   -1.6746   -1.4585 C   0  0  0  0  0  0  0  0  0  0  0  0
    1.9232   -1.8280   -2.4892 H   0  0  0  0  0  0  0  0  0  0  0  0
    3.3324   -1.6755   -1.4288 H   0  0  0  0  0  0  0  0  0  0  0  0
    1.8653   -2.4894   -0.8396 H   0  0  0  0  0  0  0  0  0  0  0  0
   -0.7793    1.3659    0.6455 C   0  0  0  0  0  0  0  0  0  0  0  0
   -1.6464    2.0125    0.0623 O   0  0  0  0  0  0  0  0  0  0  0  0
    0.0189    1.9059    1.5756 N   0  0  0  0  0  0  0  0  0  0  0  0
    0.7024    1.3094    2.0137 H   0  0  0  0  0  0  0  0  0  0  0  0
   -0.0451    3.3046    1.9929 C   0  0  0  0  0  0  0  0  0  0  0  0
   -1.0415    3.5286    2.3805 H   0  0  0  0  0  0  0  0  0  0  0  0
    0.6954    3.5023    2.7695 H   0  0  0  0  0  0  0  0  0  0  0  0
    0.1474    3.9536    1.1372 H   0  0  0  0  0  0  0  0  0  0  0  0
  5  6  2  0  0  0  0
  5  7  1  0  0  0  0
  2  3  1  0  0  0  0
  2  4  1  0  0  0  0
  2  5  1  0  0  0  0
  1  2  1  0  0  0  0
 24 25  2  0  0  0  0
 24 26  1  0  0  0  0
 20 21  1  0  0  0  0
 20 22  1  0  0  0  0
 20 23  1  0  0  0  0
 16 17  1  0  0  0  0
 16 18  1  0  0  0  0
 16 19  1  0  0  0  0
 14 15  1  0  0  0  0
 14 16  1  0  0  0  0
 14 20  1  0  0  0  0
 11 12  1  0  0  0  0
 11 13  1  0  0  0  0
 11 14  1  0  0  0  0
  9 10  1  0  0  0  0
  9 11  1  0  0  0  0
  9 24  1  0  0  0  0
  7  8  1  0  0  0  0
  7  9  1  0  0  0  0
 28 29  1  0  0  0  0
 28 30  1  0  0  0  0
 28 31  1  0  0  0  0
 26 27  1  0  0  0  0
 26 28  1  0  0  0  0
M  END
$$$$
default_name
  -OEChem-02102213163D

 31 30  0     1  0  0  0  0  0999 V2000
   -3.5895   -3.5013    1.1082 H   0  0  0  0  0  0  0  0  0  0  0  0
   -3.5145   -2.5363    0.6082 C   0  0  0  0  0  0  0  0  0  0  0  0
   -4.2285   -1.8413    1.0452 H   0  0  0  0  0  0  0  0  0  0  0  0
   -3.7155   -2.6583   -0.4538 H   0  0  0  0  0  0  0  0  0  0  0  0
   -2.1155   -1.9963    0.7922 C   0  0  0  0  0  0  0  0  0  0  0  0
   -1.2875   -2.6383    1.4252 O   0  0  0  0  0  0  0  0  0  0  0  0
   -1.8575   -0.8123    0.2402 N   0  0  0  0  0  0  0  0  0  0  0  0
   -2.6005   -0.3333   -0.2478 H   0  0  0  0  0  0  0  0  0  0  0  0
   -0.5675   -0.1203    0.3102 C   0  0  1  0  0  0  0  0  0  0  0  0
    0.0191   -0.5718    1.1110 H   0  0  0  0  0  0  0  0  0  0  0  0
    0.1724   -0.3238   -1.0286 C   0  0  0  0  0  0  0  0  0  0  0  0
   -0.1578   -1.2664   -1.4696 H   0  0  0  0  0  0  0  0  0  0  0  0
   -0.1265    0.4802   -1.7048 H   0  0  0  0  0  0  0  0  0  0  0  0
    1.7100   -0.3361   -0.9487 C   0  0  0  0  0  0  0  0  0  0  0  0
    2.1071    0.5944   -1.3545 H   0  0  0  0  0  0  0  0  0  0  0  0
    2.2141   -0.5086    0.4870 C   0  0  0  0  0  0  0  0  0  0  0  0
    1.8116   -1.4286    0.9130 H   0  0  0  0  0  0  0  0  0  0  0  0
    3.3031   -0.5609    0.4900 H   0  0  0  0  0  0  0  0  0  0  0  0
    1.9083    0.3327    1.1052 H   0  0  0  0  0  0  0  0  0  0  0  0
    2.2612   -1.4903   -1.7851 C   0  0  0  0  0  0  0  0  0  0  0  0
    1.9441   -1.3762   -2.8216 H   0  0  0  0  0  0  0  0  0  0  0  0
    3.3507   -1.4844   -1.7525 H   0  0  0  0  0  0  0  0  0  0  0  0
    1.8948   -2.4422   -1.3993 H   0  0  0  0  0  0  0  0  0  0  0  0
   -0.7793    1.3659    0.6455 C   0  0  0  0  0  0  0  0  0  0  0  0
   -1.6464    2.0125    0.0623 O   0  0  0  0  0  0  0  0  0  0  0  0
    0.0189    1.9059    1.5756 N   0  0  0  0  0  0  0  0  0  0  0  0
    0.7024    1.3094    2.0137 H   0  0  0  0  0  0  0  0  0  0  0  0
   -0.0451    3.3046    1.9929 C   0  0  0  0  0  0  0  0  0  0  0  0
   -1.0415    3.5286    2.3805 H   0  0  0  0  0  0  0  0  0  0  0  0
    0.6954    3.5023    2.7695 H   0  0  0  0  0  0  0  0  0  0  0  0
    0.1474    3.9536    1.1372 H   0  0  0  0  0  0  0  0  0  0  0  0
  5  6  2  0  0  0  0
  5  7  1  0  0  0  0
  2  3  1  0  0  0  0
  2  4  1  0  0  0  0
  2  5  1  0  0  0  0
  1  2  1  0  0  0  0
 24 25  2  0  0  0  0
 24 26  1  0  0  0  0
 20 21  1  0  0  0  0
 20 22  1  0  0  0  0
 20 23  1  0  0  0  0
 16 17  1  0  0  0  0
 16 18  1  0  0  0  0
 16 19  1  0  0  0  0
 14 15  1  0  0  0  0
 14 16  1  0  0  0  0
 14 20  1  0  0  0  0
 11 12  1  0  0  0  0
 11 13  1  0  0  0  0
 11 14  1  0  0  0  0
  9 10  1  0  0  0  0
  9 11  1  0  0  0  0
  9 24  1  0  0  0  0
  7  8  1  0  0  0  0
  7  9  1  0  0  0  0
 28 29  1  0  0  0  0
 28 30  1  0  0  0  0
 28 31  1  0  0  0  0
 26 27  1  0  0  0  0
 26 28  1  0  0  0  0
M  END
$$$$
default_name
  -OEChem-02102213163D

 31 30  0     1  0  0  0  0  0999 V2000
   -3.5895   -3.5013    1.1082 H   0  0  0  0  0  0  0  0  0  0  0  0
   -3.5145   -2.5363    0.6082 C   0  0  0  0  0  0  0  0  0  0  0  0
   -4.2285   -1.8413    1.0452 H   0  0  0  0  0  0  0  0  0  0  0  0
   -3.7155   -2.6583   -0.4538 H   0  0  0  0  0  0  0  0  0  0  0  0
   -2.1155   -1.9963    0.7922 C   0  0  0  0  0  0  0  0  0  0  0  0
   -1.2875   -2.6383    1.4252 O   0  0  0  0  0  0  0  0  0  0  0  0
   -1.8575   -0.8123    0.2402 N   0  0  0  0  0  0  0  0  0  0  0  0
   -2.6005   -0.3333   -0.2478 H   0  0  0  0  0  0  0  0  0  0  0  0
   -0.5675   -0.1203    0.3102 C   0  0  1  0  0  0  0  0  0  0  0  0
    0.0191   -0.5718    1.1110 H   0  0  0  0  0  0  0  0  0  0  0  0
    0.1724   -0.3238   -1.0286 C   0  0  0  0  0  0  0  0  0  0  0  0
   -0.1578   -1.2664   -1.4696 H   0  0  0  0  0  0  0  0  0  0  0  0
   -0.1265    0.4802   -1.7048 H   0  0  0  0  0  0  0  0  0  0  0  0
    1.7100   -0.3361   -0.9487 C   0  0  0  0  0  0  0  0  0  0  0  0
    2.0945    0.6728   -1.0987 H   0  0  0  0  0  0  0  0  0  0  0  0
    2.2160   -0.8672    0.3956 C   0  0  0  0  0  0  0  0  0  0  0  0
    1.8260   -1.8713    0.5678 H   0  0  0  0  0  0  0  0  0  0  0  0
    3.3056   -0.9041    0.3891 H   0  0  0  0  0  0  0  0  0  0  0  0
    1.8986   -0.2183    1.2090 H   0  0  0  0  0  0  0  0  0  0  0  0
    2.2772   -1.2275   -2.0528 C   0  0  0  0  0  0  0  0  0  0  0  0
    1.9588   -0.8536   -3.0258 H   0  0  0  0  0  0  0  0  0  0  0  0
    3.3665   -1.2159   -2.0157 H   0  0  0  0  0  0  0  0  0  0  0  0
    1.9237   -2.2516   -1.9276 H   0  0  0  0  0  0  0  0  0  0  0  0
   -0.7793    1.3659    0.6455 C   0  0  0  0  0  0  0  0  0  0  0  0
   -1.6464    2.0125    0.0623 O   0  0  0  0  0  0  0  0  0  0  0  0
    0.0189    1.9059    1.5756 N   0  0  0  0  0  0  0  0  0  0  0  0
    0.7024    1.3094    2.0137 H   0  0  0  0  0  0  0  0  0  0  0  0
   -0.0451    3.3046    1.9929 C   0  0  0  0  0  0  0  0  0  0  0  0
   -1.0415    3.5286    2.3805 H   0  0  0  0  0  0  0  0  0  0  0  0
    0.6954    3.5023    2.7695 H   0  0  0  0  0  0  0  0  0  0  0  0
    0.1474    3.9536    1.1372 H   0  0  0  0  0  0  0  0  0  0  0  0
  5  6  2  0  0  0  0
  5  7  1  0  0  0  0
  2  3  1  0  0  0  0
  2  4  1  0  0  0  0
  2  5  1  0  0  0  0
  1  2  1  0  0  0  0
 24 25  2  0  0  0  0
 24 26  1  0  0  0  0
 20 21  1  0  0  0  0
 20 22  1  0  0  0  0
 20 23  1  0  0  0  0
 16 17  1  0  0  0  0
 16 18  1  0  0  0  0
 16 19  1  0  0  0  0
 14 15  1  0  0  0  0
 14 16  1  0  0  0  0
 14 20  1  0  0  0  0
 11 12  1  0  0  0  0
 11 13  1  0  0  0  0
 11 14  1  0  0  0  0
  9 10  1  0  0  0  0
  9 11  1  0  0  0  0
  9 24  1  0  0  0  0
  7  8  1  0  0  0  0
  7  9  1  0  0  0  0
 28 29  1  0  0  0  0
 28 30  1  0  0  0  0
 28 31  1  0  0  0  0
 26 27  1  0  0  0  0
 26 28  1  0  0  0  0
M  END
$$$$
default_name
  -OEChem-02102213163D

 31 30  0     1  0  0  0  0  0999 V2000
   -3.5895   -3.5013    1.1082 H   0  0  0  0  0  0  0  0  0  0  0  0
   -3.5145   -2.5363    0.6082 C   0  0  0  0  0  0  0  0  0  0  0  0
   -4.2285   -1.8413    1.0452 H   0  0  0  0  0  0  0  0  0  0  0  0
   -3.7155   -2.6583   -0.4538 H   0  0  0  0  0  0  0  0  0  0  0  0
   -2.1155   -1.9963    0.7922 C   0  0  0  0  0  0  0  0  0  0  0  0
   -1.2875   -2.6383    1.4252 O   0  0  0  0  0  0  0  0  0  0  0  0
   -1.8575   -0.8123    0.2402 N   0  0  0  0  0  0  0  0  0  0  0  0
   -2.6005   -0.3333   -0.2478 H   0  0  0  0  0  0  0  0  0  0  0  0
   -0.5675   -0.1203    0.3102 C   0  0  1  0  0  0  0  0  0  0  0  0
    0.0191   -0.5718    1.1110 H   0  0  0  0  0  0  0  0  0  0  0  0
    0.1724   -0.3238   -1.0286 C   0  0  0  0  0  0  0  0  0  0  0  0
   -0.1578   -1.2664   -1.4696 H   0  0  0  0  0  0  0  0  0  0  0  0
   -0.1265    0.4802   -1.7048 H   0  0  0  0  0  0  0  0  0  0  0  0
    1.7100   -0.3361   -0.9487 C   0  0  0  0  0  0  0  0  0  0  0  0
    2.0807    0.6822   -0.8314 H   0  0  0  0  0  0  0  0  0  0  0  0
    2.2228   -1.1899    0.2146 C   0  0  0  0  0  0  0  0  0  0  0  0
    1.8466   -2.2094    0.1199 H   0  0  0  0  0  0  0  0  0  0  0  0
    3.3128   -1.2096    0.2029 H   0  0  0  0  0  0  0  0  0  0  0  0
    1.8963   -0.7776    1.1669 H   0  0  0  0  0  0  0  0  0  0  0  0
    2.2897   -0.9043   -2.2435 C   0  0  0  0  0  0  0  0  0  0  0  0
    1.9665   -0.2958   -3.0880 H   0  0  0  0  0  0  0  0  0  0  0  0
    3.3787   -0.8884   -2.2005 H   0  0  0  0  0  0  0  0  0  0  0  0
    1.9502   -1.9305   -2.3885 H   0  0  0  0  0  0  0  0  0  0  0  0
   -0.7793    1.3659    0.6455 C   0  0  0  0  0  0  0  0  0  0  0  0
   -1.6464    2.0125    0.0623 O   0  0  0  0  0  0  0  0  0  0  0  0
    0.0189    1.9059    1.5756 N   0  0  0  0  0  0  0  0  0  0  0  0
    0.7024    1.3094    2.0137 H   0  0  0  0  0  0  0  0  0  0  0  0
   -0.0451    3.3046    1.9929 C   0  0  0  0  0  0  0  0  0  0  0  0
   -1.0415    3.5286    2.3805 H   0  0  0  0  0  0  0  0  0  0  0  0
    0.6954    3.5023    2.7695 H   0  0  0  0  0  0  0  0  0  0  0  0
    0.1474    3.9536    1.1372 H   0  0  0  0  0  0  0  0  0  0  0  0
  5  6  2  0  0  0  0
  5  7  1  0  0  0  0
  2  3  1  0  0  0  0
  2  4  1  0  0  0  0
  2  5  1  0  0  0  0
  1  2  1  0  0  0  0
 24 25  2  0  0  0  0
 24 26  1  0  0  0  0
 20 21  1  0  0  0  0
 20 22  1  0  0  0  0
 20 23  1  0  0  0  0
 16 17  1  0  0  0  0
 16 18  1  0  0  0  0
 16 19  1  0  0  0  0
 14 15  1  0  0  0  0
 14 16  1  0  0  0  0
 14 20  1  0  0  0  0
 11 12  1  0  0  0  0
 11 13  1  0  0  0  0
 11 14  1  0  0  0  0
  9 10  1  0  0  0  0
  9 11  1  0  0  0  0
  9 24  1  0  0  0  0
  7  8  1  0  0  0  0
  7  9  1  0  0  0  0
 28 29  1  0  0  0  0
 28 30  1  0  0  0  0
 28 31  1  0  0  0  0
 26 27  1  0  0  0  0
 26 28  1  0  0  0  0
M  END
$$$$
default_name
  -OEChem-02102213163D

 31 30  0     1  0  0  0  0  0999 V2000
   -3.5895   -3.5013    1.1082 H   0  0  0  0  0  0  0  0  0  0  0  0
   -3.5145   -2.5363    0.6082 C   0  0  0  0  0  0  0  0  0  0  0  0
   -4.2285   -1.8413    1.0452 H   0  0  0  0  0  0  0  0  0  0  0  0
   -3.7155   -2.6583   -0.4538 H   0  0  0  0  0  0  0  0  0  0  0  0
   -2.1155   -1.9963    0.7922 C   0  0  0  0  0  0  0  0  0  0  0  0
   -1.2875   -2.6383    1.4252 O   0  0  0  0  0  0  0  0  0  0  0  0
   -1.8575   -0.8123    0.2402 N   0  0  0  0  0  0  0  0  0  0  0  0
   -2.6005   -0.3333   -0.2478 H   0  0  0  0  0  0  0  0  0  0  0  0
   -0.5675   -0.1203    0.3102 C   0  0  1  0  0  0  0  0  0  0  0  0
    0.0191   -0.5718    1.1110 H   0  0  0  0  0  0  0  0  0  0  0  0
    0.1724   -0.3238   -1.0286 C   0  0  0  0  0  0  0  0  0  0  0  0
   -0.1578   -1.2664   -1.4696 H   0  0  0  0  0  0  0  0  0  0  0  0
   -0.1265    0.4802   -1.7048 H   0  0  0  0  0  0  0  0  0  0  0  0
    1.7100   -0.3361   -0.9487 C   0  0  0  0  0  0  0  0  0  0  0  0
    2.0666    0.6221   -0.5708 H   0  0  0  0  0  0  0  0  0  0  0  0
    2.2341   -1.4547   -0.0436 C   0  0  0  0  0  0  0  0  0  0  0  0
    1.8720   -2.4200   -0.4000 H   0  0  0  0  0  0  0  0  0  0  0  0
    3.3243   -1.4564   -0.0558 H   0  0  0  0  0  0  0  0  0  0  0  0
    1.9017   -1.3069    0.9816 H   0  0  0  0  0  0  0  0  0  0  0  0
    2.2978   -0.5426   -2.3441 C   0  0  0  0  0  0  0  0  0  0  0  0
    1.9666    0.2592   -3.0039 H   0  0  0  0  0  0  0  0  0  0  0  0
    3.3865   -0.5241   -2.2943 H   0  0  0  0  0  0  0  0  0  0  0  0
    1.9725   -1.5009   -2.7508 H   0  0  0  0  0  0  0  0  0  0  0  0
   -0.7793    1.3659    0.6455 C   0  0  0  0  0  0  0  0  0  0  0  0
   -1.6464    2.0125    0.0623 O   0  0  0  0  0  0  0  0  0  0  0  0
    0.0189    1.9059    1.5756 N   0  0  0  0  0  0  0  0  0  0  0  0
    0.7024    1.3094    2.0137 H   0  0  0  0  0  0  0  0  0  0  0  0
   -0.0451    3.3046    1.9929 C   0  0  0  0  0  0  0  0  0  0  0  0
   -1.0415    3.5286    2.3805 H   0  0  0  0  0  0  0  0  0  0  0  0
    0.6954    3.5023    2.7695 H   0  0  0  0  0  0  0  0  0  0  0  0
    0.1474    3.9536    1.1372 H   0  0  0  0  0  0  0  0  0  0  0  0
  5  6  2  0  0  0  0
  5  7  1  0  0  0  0
  2  3  1  0  0  0  0
  2  4  1  0  0  0  0
  2  5  1  0  0  0  0
  1  2  1  0  0  0  0
 24 25  2  0  0  0  0
 24 26  1  0  0  0  0
 20 21  1  0  0  0  0
 20 22  1  0  0  0  0
 20 23  1  0  0  0  0
 16 17  1  0  0  0  0
 16 18  1  0  0  0  0
 16 19  1  0  0  0  0
 14 15  1  0  0  0  0
 14 16  1  0  0  0  0
 14 20  1  0  0  0  0
 11 12  1  0  0  0  0
 11 13  1  0  0  0  0
 11 14  1  0  0  0  0
  9 10  1  0  0  0  0
  9 11  1  0  0  0  0
  9 24  1  0  0  0  0
  7  8  1  0  0  0  0
  7  9  1  0  0  0  0
 28 29  1  0  0  0  0
 28 30  1  0  0  0  0
 28 31  1  0  0  0  0
 26 27  1  0  0  0  0
 26 28  1  0  0  0  0
M  END
$$$$
default_name
  -OEChem-02102213163D

 31 30  0     1  0  0  0  0  0999 V2000
   -3.5895   -3.5013    1.1082 H   0  0  0  0  0  0  0  0  0  0  0  0
   -3.5145   -2.5363    0.6082 C   0  0  0  0  0  0  0  0  0  0  0  0
   -4.2285   -1.8413    1.0452 H   0  0  0  0  0  0  0  0  0  0  0  0
   -3.7155   -2.6583   -0.4538 H   0  0  0  0  0  0  0  0  0  0  0  0
   -2.1155   -1.9963    0.7922 C   0  0  0  0  0  0  0  0  0  0  0  0
   -1.2875   -2.6383    1.4252 O   0  0  0  0  0  0  0  0  0  0  0  0
   -1.8575   -0.8123    0.2402 N   0  0  0  0  0  0  0  0  0  0  0  0
   -2.6005   -0.3333   -0.2478 H   0  0  0  0  0  0  0  0  0  0  0  0
   -0.5675   -0.1203    0.3102 C   0  0  1  0  0  0  0  0  0  0  0  0
    0.0191   -0.5718    1.1110 H   0  0  0  0  0  0  0  0  0  0  0  0
    0.1724   -0.3238   -1.0286 C   0  0  0  0  0  0  0  0  0  0  0  0
   -0.1578   -1.2664   -1.4696 H   0  0  0  0  0  0  0  0  0  0  0  0
   -0.1265    0.4802   -1.7048 H   0  0  0  0  0  0  0  0  0  0  0  0
    1.7100   -0.3361   -0.9487 C   0  0  0  0  0  0  0  0  0  0  0  0
    2.0534    0.4964   -0.3346 H   0  0  0  0  0  0  0  0  0  0  0  0
    2.2492   -1.6437   -0.3615 C   0  0  0  0  0  0  0  0  0  0  0  0
    1.9003   -2.4887   -0.9566 H   0  0  0  0  0  0  0  0  0  0  0  0
    3.3392   -1.6278   -0.3695 H   0  0  0  0  0  0  0  0  0  0  0  0
    1.9144   -1.7703    0.6658 H   0  0  0  0  0  0  0  0  0  0  0  0
    2.3010   -0.1672   -2.3479 C   0  0  0  0  0  0  0  0  0  0  0  0
    1.9590    0.7735   -2.7793 H   0  0  0  0  0  0  0  0  0  0  0  0
    3.3893   -0.1478   -2.2907 H   0  0  0  0  0  0  0  0  0  0  0  0
    1.9890   -0.9919   -2.9895 H   0  0  0  0  0  0  0  0  0  0  0  0
   -0.7793    1.3659    0.6455 C   0  0  0  0  0  0  0  0  0  0  0  0
   -1.6464    2.0125    0.0623 O   0  0  0  0  0  0  0  0  0  0  0  0
    0.0189    1.9059    1.5756 N   0  0  0  0  0  0  0  0  0  0  0  0
    0.7024    1.3094    2.0137 H   0  0  0  0  0  0  0  0  0  0  0  0
   -0.0451    3.3046    1.9929 C   0  0  0  0  0  0  0  0  0  0  0  0
   -1.0415    3.5286    2.3805 H   0  0  0  0  0  0  0  0  0  0  0  0
    0.6954    3.5023    2.7695 H   0  0  0  0  0  0  0  0  0  0  0  0
    0.1474    3.9536    1.1372 H   0  0  0  0  0  0  0  0  0  0  0  0
  5  6  2  0  0  0  0
  5  7  1  0  0  0  0
  2  3  1  0  0  0  0
  2  4  1  0  0  0  0
  2  5  1  0  0  0  0
  1  2  1  0  0  0  0
 24 25  2  0  0  0  0
 24 26  1  0  0  0  0
 20 21  1  0  0  0  0
 20 22  1  0  0  0  0
 20 23  1  0  0  0  0
 16 17  1  0  0  0  0
 16 18  1  0  0  0  0
 16 19  1  0  0  0  0
 14 15  1  0  0  0  0
 14 16  1  0  0  0  0
 14 20  1  0  0  0  0
 11 12  1  0  0  0  0
 11 13  1  0  0  0  0
 11 14  1  0  0  0  0
  9 10  1  0  0  0  0
  9 11  1  0  0  0  0
  9 24  1  0  0  0  0
  7  8  1  0  0  0  0
  7  9  1  0  0  0  0
 28 29  1  0  0  0  0
 28 30  1  0  0  0  0
 28 31  1  0  0  0  0
 26 27  1  0  0  0  0
 26 28  1  0  0  0  0
M  END
$$$$
default_name
  -OEChem-02102213163D

 31 30  0     1  0  0  0  0  0999 V2000
   -3.5895   -3.5013    1.1082 H   0  0  0  0  0  0  0  0  0  0  0  0
   -3.5145   -2.5363    0.6082 C   0  0  0  0  0  0  0  0  0  0  0  0
   -4.2285   -1.8413    1.0452 H   0  0  0  0  0  0  0  0  0  0  0  0
   -3.7155   -2.6583   -0.4538 H   0  0  0  0  0  0  0  0  0  0  0  0
   -2.1155   -1.9963    0.7922 C   0  0  0  0  0  0  0  0  0  0  0  0
   -1.2875   -2.6383    1.4252 O   0  0  0  0  0  0  0  0  0  0  0  0
   -1.8575   -0.8123    0.2402 N   0  0  0  0  0  0  0  0  0  0  0  0
   -2.6005   -0.3333   -0.2478 H   0  0  0  0  0  0  0  0  0  0  0  0
   -0.5675   -0.1203    0.3102 C   0  0  1  0  0  0  0  0  0  0  0  0
    0.0191   -0.5718    1.1110 H   0  0  0  0  0  0  0  0  0  0  0  0
    0.1724   -0.3238   -1.0286 C   0  0  0  0  0  0  0  0  0  0  0  0
   -0.1578   -1.2664   -1.4696 H   0  0  0  0  0  0  0  0  0  0  0  0
   -0.1265    0.4802   -1.7048 H   0  0  0  0  0  0  0  0  0  0  0  0
    1.7100   -0.3361   -0.9487 C   0  0  0  0  0  0  0  0  0  0  0  0
    2.0417    0.3138   -0.1390 H   0  0  0  0  0  0  0  0  0  0  0  0
    2.2668   -1.7438   -0.7173 C   0  0  0  0  0  0  0  0  0  0  0  0
    1.9298   -2.4108   -1.5120 H   0  0  0  0  0  0  0  0  0  0  0  0
    3.3566   -1.7120   -0.7168 H   0  0  0  0  0  0  0  0  0  0  0  0
    1.9335   -2.1360    0.2411 H   0  0  0  0  0  0  0  0  0  0  0  0
    2.2991    0.1965   -2.2544 C   0  0  0  0  0  0  0  0  0  0  0  0
    1.9443    1.2121   -2.4293 H   0  0  0  0  0  0  0  0  0  0  0  0
    3.3870    0.2147   -2.1900 H   0  0  0  0  0  0  0  0  0  0  0  0
    1.9985   -0.4384   -3.0886 H   0  0  0  0  0  0  0  0  0  0  0  0
   -0.7793    1.3659    0.6455 C   0  0  0  0  0  0  0  0  0  0  0  0
   -1.6464    2.0125    0.0623 O   0  0  0  0  0  0  0  0  0  0  0  0
    0.0189    1.9059    1.5756 N   0  0  0  0  0  0  0  0  0  0  0  0
    0.7024    1.3094    2.0137 H   0  0  0  0  0  0  0  0  0  0  0  0
   -0.0451    3.3046    1.9929 C   0  0  0  0  0  0  0  0  0  0  0  0
   -1.0415    3.5286    2.3805 H   0  0  0  0  0  0  0  0  0  0  0  0
    0.6954    3.5023    2.7695 H   0  0  0  0  0  0  0  0  0  0  0  0
    0.1474    3.9536    1.1372 H   0  0  0  0  0  0  0  0  0  0  0  0
  5  6  2  0  0  0  0
  5  7  1  0  0  0  0
  2  3  1  0  0  0  0
  2  4  1  0  0  0  0
  2  5  1  0  0  0  0
  1  2  1  0  0  0  0
 24 25  2  0  0  0  0
 24 26  1  0  0  0  0
 20 21  1  0  0  0  0
 20 22  1  0  0  0  0
 20 23  1  0  0  0  0
 16 17  1  0  0  0  0
 16 18  1  0  0  0  0
 16 19  1  0  0  0  0
 14 15  1  0  0  0  0
 14 16  1  0  0  0  0
 14 20  1  0  0  0  0
 11 12  1  0  0  0  0
 11 13  1  0  0  0  0
 11 14  1  0  0  0  0
  9 10  1  0  0  0  0
  9 11  1  0  0  0  0
  9 24  1  0  0  0  0
  7  8  1  0  0  0  0
  7  9  1  0  0  0  0
 28 29  1  0  0  0  0
 28 30  1  0  0  0  0
 28 31  1  0  0  0  0
 26 27  1  0  0  0  0
 26 28  1  0  0  0  0
M  END
$$$$
default_name
  -OEChem-02102213163D

 31 30  0     1  0  0  0  0  0999 V2000
   -3.5895   -3.5013    1.1082 H   0  0  0  0  0  0  0  0  0  0  0  0
   -3.5145   -2.5363    0.6082 C   0  0  0  0  0  0  0  0  0  0  0  0
   -4.2285   -1.8413    1.0452 H   0  0  0  0  0  0  0  0  0  0  0  0
   -3.7155   -2.6583   -0.4538 H   0  0  0  0  0  0  0  0  0  0  0  0
   -2.1155   -1.9963    0.7922 C   0  0  0  0  0  0  0  0  0  0  0  0
   -1.2875   -2.6383    1.4252 O   0  0  0  0  0  0  0  0  0  0  0  0
   -1.8575   -0.8123    0.2402 N   0  0  0  0  0  0  0  0  0  0  0  0
   -2.6005   -0.3333   -0.2478 H   0  0  0  0  0  0  0  0  0  0  0  0
   -0.5675   -0.1203    0.3102 C   0  0  1  0  0  0  0  0  0  0  0  0
    0.0191   -0.5718    1.1110 H   0  0  0  0  0  0  0  0  0  0  0  0
    0.1724   -0.3238   -1.0286 C   0  0  0  0  0  0  0  0  0  0  0  0
   -0.1578   -1.2664   -1.4696 H   0  0  0  0  0  0  0  0  0  0  0  0
   -0.1265    0.4802   -1.7048 H   0  0  0  0  0  0  0  0  0  0  0  0
    1.7100   -0.3361   -0.9487 C   0  0  0  0  0  0  0  0  0  0  0  0
    2.0326    0.0868    0.0027 H   0  0  0  0  0  0  0  0  0  0  0  0
    2.2860   -1.7483   -1.0869 C   0  0  0  0  0  0  0  0  0  0  0  0
    1.9584   -2.1916   -2.0282 H   0  0  0  0  0  0  0  0  0  0  0  0
    3.3752   -1.7034   -1.0740 H   0  0  0  0  0  0  0  0  0  0  0  0
    1.9578   -2.3793   -0.2637 H   0  0  0  0  0  0  0  0  0  0  0  0
    2.2921    0.5236   -2.0701 C   0  0  0  0  0  0  0  0  0  0  0  0
    1.9235    1.5452   -1.9780 H   0  0  0  0  0  0  0  0  0  0  0  0
    3.3797    0.5389   -1.9990 H   0  0  0  0  0  0  0  0  0  0  0  0
    2.0005    0.1220   -3.0412 H   0  0  0  0  0  0  0  0  0  0  0  0
   -0.7793    1.3659    0.6455 C   0  0  0  0  0  0  0  0  0  0  0  0
   -1.6464    2.0125    0.0623 O   0  0  0  0  0  0  0  0  0  0  0  0
    0.0189    1.9059    1.5756 N   0  0  0  0  0  0  0  0  0  0  0  0
    0.7024    1.3094    2.0137 H   0  0  0  0  0  0  0  0  0  0  0  0
   -0.0451    3.3046    1.9929 C   0  0  0  0  0  0  0  0  0  0  0  0
   -1.0415    3.5286    2.3805 H   0  0  0  0  0  0  0  0  0  0  0  0
    0.6954    3.5023    2.7695 H   0  0  0  0  0  0  0  0  0  0  0  0
    0.1474    3.9536    1.1372 H   0  0  0  0  0  0  0  0  0  0  0  0
  5  6  2  0  0  0  0
  5  7  1  0  0  0  0
  2  3  1  0  0  0  0
  2  4  1  0  0  0  0
  2  5  1  0  0  0  0
  1  2  1  0  0  0  0
 24 25  2  0  0  0  0
 24 26  1  0  0  0  0
 20 21  1  0  0  0  0
 20 22  1  0  0  0  0
 20 23  1  0  0  0  0
 16 17  1  0  0  0  0
 16 18  1  0  0  0  0
 16 19  1  0  0  0  0
 14 15  1  0  0  0  0
 14 16  1  0  0  0  0
 14 20  1  0  0  0  0
 11 12  1  0  0  0  0
 11 13  1  0  0  0  0
 11 14  1  0  0  0  0
  9 10  1  0  0  0  0
  9 11  1  0  0  0  0
  9 24  1  0  0  0  0
  7  8  1  0  0  0  0
  7  9  1  0  0  0  0
 28 29  1  0  0  0  0
 28 30  1  0  0  0  0
 28 31  1  0  0  0  0
 26 27  1  0  0  0  0
 26 28  1  0  0  0  0
M  END
$$$$
default_name
  -OEChem-02102213163D

 31 30  0     1  0  0  0  0  0999 V2000
   -3.5895   -3.5013    1.1082 H   0  0  0  0  0  0  0  0  0  0  0  0
   -3.5145   -2.5363    0.6082 C   0  0  0  0  0  0  0  0  0  0  0  0
   -4.2285   -1.8413    1.0452 H   0  0  0  0  0  0  0  0  0  0  0  0
   -3.7155   -2.6583   -0.4538 H   0  0  0  0  0  0  0  0  0  0  0  0
   -2.1155   -1.9963    0.7922 C   0  0  0  0  0  0  0  0  0  0  0  0
   -1.2875   -2.6383    1.4252 O   0  0  0  0  0  0  0  0  0  0  0  0
   -1.8575   -0.8123    0.2402 N   0  0  0  0  0  0  0  0  0  0  0  0
   -2.6005   -0.3333   -0.2478 H   0  0  0  0  0  0  0  0  0  0  0  0
   -0.5675   -0.1203    0.3102 C   0  0  1  0  0  0  0  0  0  0  0  0
    0.0191   -0.5718    1.1110 H   0  0  0  0  0  0  0  0  0  0  0  0
    0.1724   -0.3238   -1.0286 C   0  0  0  0  0  0  0  0  0  0  0  0
   -0.1578   -1.2664   -1.4696 H   0  0  0  0  0  0  0  0  0  0  0  0
   -0.1265    0.4802   -1.7048 H   0  0  0  0  0  0  0  0  0  0  0  0
    1.7100   -0.3361   -0.9487 C   0  0  0  0  0  0  0  0  0  0  0  0
    2.0265   -0.1693    0.0809 H   0  0  0  0  0  0  0  0  0  0  0  0
    2.3053   -1.6569   -1.4450 C   0  0  0  0  0  0  0  0  0  0  0  0
    1.9841   -1.8461   -2.4701 H   0  0  0  0  0  0  0  0  0  0  0  0
    3.3939   -1.6026   -1.4167 H   0  0  0  0  0  0  0  0  0  0  0  0
    1.9856   -2.4835   -0.8141 H   0  0  0  0  0  0  0  0  0  0  0  0
    2.2806    0.7918   -1.8076 C   0  0  0  0  0  0  0  0  0  0  0  0
    1.8980    1.7499   -1.4560 H   0  0  0  0  0  0  0  0  0  0  0  0
    3.3678    0.8025   -1.7308 H   0  0  0  0  0  0  0  0  0  0  0  0
    1.9949    0.6511   -2.8506 H   0  0  0  0  0  0  0  0  0  0  0  0
   -0.7793    1.3659    0.6455 C   0  0  0  0  0  0  0  0  0  0  0  0
   -1.6464    2.0125    0.0623 O   0  0  0  0  0  0  0  0  0  0  0  0
    0.0189    1.9059    1.5756 N   0  0  0  0  0  0  0  0  0  0  0  0
    0.7024    1.3094    2.0137 H   0  0  0  0  0  0  0  0  0  0  0  0
   -0.0451    3.3046    1.9929 C   0  0  0  0  0  0  0  0  0  0  0  0
   -1.0415    3.5286    2.3805 H   0  0  0  0  0  0  0  0  0  0  0  0
    0.6954    3.5023    2.7695 H   0  0  0  0  0  0  0  0  0  0  0  0
    0.1474    3.9536    1.1372 H   0  0  0  0  0  0  0  0  0  0  0  0
  5  6  2  0  0  0  0
  5  7  1  0  0  0  0
  2  3  1  0  0  0  0
  2  4  1  0  0  0  0
  2  5  1  0  0  0  0
  1  2  1  0  0  0  0
 24 25  2  0  0  0  0
 24 26  1  0  0  0  0
 20 21  1  0  0  0  0
 20 22  1  0  0  0  0
 20 23  1  0  0  0  0
 16 17  1  0  0  0  0
 16 18  1  0  0  0  0
 16 19  1  0  0  0  0
 14 15  1  0  0  0  0
 14 16  1  0  0  0  0
 14 20  1  0  0  0  0
 11 12  1  0  0  0  0
 11 13  1  0  0  0  0
 11 14  1  0  0  0  0
  9 10  1  0  0  0  0
  9 11  1  0  0  0  0
  9 24  1  0  0  0  0
  7  8  1  0  0  0  0
  7  9  1  0  0  0  0
 28 29  1  0  0  0  0
 28 30  1  0  0  0  0
 28 31  1  0  0  0  0
 26 27  1  0  0  0  0
 26 28  1  0  0  0  0
M  END
$$$$
default_name
  -OEChem-02102213163D

 31 30  0     1  0  0  0  0  0999 V2000
   -3.5895   -3.5013    1.1082 H   0  0  0  0  0  0  0  0  0  0  0  0
   -3.5145   -2.5363    0.6082 C   0  0  0  0  0  0  0  0  0  0  0  0
   -4.2285   -1.8413    1.0452 H   0  0  0  0  0  0  0  0  0  0  0  0
   -3.7155   -2.6583   -0.4538 H   0  0  0  0  0  0  0  0  0  0  0  0
   -2.1155   -1.9963    0.7922 C   0  0  0  0  0  0  0  0  0  0  0  0
   -1.2875   -2.6383    1.4252 O   0  0  0  0  0  0  0  0  0  0  0  0
   -1.8575   -0.8123    0.2402 N   0  0  0  0  0  0  0  0  0  0  0  0
   -2.6005   -0.3333   -0.2478 H   0  0  0  0  0  0  0  0  0  0  0  0
   -0.5675   -0.1203    0.3102 C   0  0  1  0  0  0  0  0  0  0  0  0
    0.0191   -0.5718    1.1110 H   0  0  0  0  0  0  0  0  0  0  0  0
    0.1724   -0.3238   -1.0286 C   0  0  0  0  0  0  0  0  0  0  0  0
   -0.1578   -1.2664   -1.4696 H   0  0  0  0  0  0  0  0  0  0  0  0
   -0.1265    0.4802   -1.7048 H   0  0  0  0  0  0  0  0  0  0  0  0
    1.7100   -0.3361   -0.9487 C   0  0  0  0  0  0  0  0  0  0  0  0
    2.0238   -0.4370    0.0902 H   0  0  0  0  0  0  0  0  0  0  0  0
    2.3235   -1.4758   -1.7672 C   0  0  0  0  0  0  0  0  0  0  0  0
    2.0052   -1.3978   -2.8076 H   0  0  0  0  0  0  0  0  0  0  0  0
    3.4112   -1.4163   -1.7217 H   0  0  0  0  0  0  0  0  0  0  0  0
    2.0150   -2.4415   -1.3726 H   0  0  0  0  0  0  0  0  0  0  0  0
    2.2653    0.9829   -1.4847 C   0  0  0  0  0  0  0  0  0  0  0  0
    1.8696    1.8124   -0.8989 H   0  0  0  0  0  0  0  0  0  0  0  0
    3.3523    0.9877   -1.4036 H   0  0  0  0  0  0  0  0  0  0  0  0
    1.9819    1.1128   -2.5298 H   0  0  0  0  0  0  0  0  0  0  0  0
   -0.7793    1.3659    0.6455 C   0  0  0  0  0  0  0  0  0  0  0  0
   -1.6464    2.0125    0.0623 O   0  0  0  0  0  0  0  0  0  0  0  0
    0.0189    1.9059    1.5756 N   0  0  0  0  0  0  0  0  0  0  0  0
    0.7024    1.3094    2.0137 H   0  0  0  0  0  0  0  0  0  0  0  0
   -0.0451    3.3046    1.9929 C   0  0  0  0  0  0  0  0  0  0  0  0
   -1.0415    3.5286    2.3805 H   0  0  0  0  0  0  0  0  0  0  0  0
    0.6954    3.5023    2.7695 H   0  0  0  0  0  0  0  0  0  0  0  0
    0.1474    3.9536    1.1372 H   0  0  0  0  0  0  0  0  0  0  0  0
  5  6  2  0  0  0  0
  5  7  1  0  0  0  0
  2  3  1  0  0  0  0
  2  4  1  0  0  0  0
  2  5  1  0  0  0  0
  1  2  1  0  0  0  0
 24 25  2  0  0  0  0
 24 26  1  0  0  0  0
 20 21  1  0  0  0  0
 20 22  1  0  0  0  0
 20 23  1  0  0  0  0
 16 17  1  0  0  0  0
 16 18  1  0  0  0  0
 16 19  1  0  0  0  0
 14 15  1  0  0  0  0
 14 16  1  0  0  0  0
 14 20  1  0  0  0  0
 11 12  1  0  0  0  0
 11 13  1  0  0  0  0
 11 14  1  0  0  0  0
  9 10  1  0  0  0  0
  9 11  1  0  0  0  0
  9 24  1  0  0  0  0
  7  8  1  0  0  0  0
  7  9  1  0  0  0  0
 28 29  1  0  0  0  0
 28 30  1  0  0  0  0
 28 31  1  0  0  0  0
 26 27  1  0  0  0  0
 26 28  1  0  0  0  0
M  END
$$$$
default_name
  -OEChem-02102213163D

 31 30  0     1  0  0  0  0  0999 V2000
   -3.5895   -3.5013    1.1082 H   0  0  0  0  0  0  0  0  0  0  0  0
   -3.5145   -2.5363    0.6082 C   0  0  0  0  0  0  0  0  0  0  0  0
   -4.2285   -1.8413    1.0452 H   0  0  0  0  0  0  0  0  0  0  0  0
   -3.7155   -2.6583   -0.4538 H   0  0  0  0  0  0  0  0  0  0  0  0
   -2.1155   -1.9963    0.7922 C   0  0  0  0  0  0  0  0  0  0  0  0
   -1.2875   -2.6383    1.4252 O   0  0  0  0  0  0  0  0  0  0  0  0
   -1.8575   -0.8123    0.2402 N   0  0  0  0  0  0  0  0  0  0  0  0
   -2.6005   -0.3333   -0.2478 H   0  0  0  0  0  0  0  0  0  0  0  0
   -0.5675   -0.1203    0.3102 C   0  0  1  0  0  0  0  0  0  0  0  0
    0.0191   -0.5718    1.1110 H   0  0  0  0  0  0  0  0  0  0  0  0
    0.1724   -0.3238   -1.0286 C   0  0  0  0  0  0  0  0  0  0  0  0
   -0.1578   -1.2664   -1.4696 H   0  0  0  0  0  0  0  0  0  0  0  0
   -0.1265    0.4802   -1.7048 H   0  0  0  0  0  0  0  0  0  0  0  0
    1.7100   -0.3361   -0.9487 C   0  0  0  0  0  0  0  0  0  0  0  0
    2.0249   -0.6980    0.0301 H   0  0  0  0  0  0  0  0  0  0  0  0
    2.3393   -1.2174   -2.0316 C   0  0  0  0  0  0  0  0  0  0  0  0
    2.0203   -0.8773   -3.0177 H   0  0  0  0  0  0  0  0  0  0  0  0
    3.4261   -1.1573   -1.9681 H   0  0  0  0  0  0  0  0  0  0  0  0
    2.0439   -2.2562   -1.9012 H   0  0  0  0  0  0  0  0  0  0  0  0
    2.2474    1.0838   -1.1235 C   0  0  0  0  0  0  0  0  0  0  0  0
    1.8401    1.7284   -0.3447 H   0  0  0  0  0  0  0  0  0  0  0  0
    3.3342    1.0818   -1.0397 H   0  0  0  0  0  0  0  0  0  0  0  0
    1.9625    1.4756   -2.1005 H   0  0  0  0  0  0  0  0  0  0  0  0
   -0.7793    1.3659    0.6455 C   0  0  0  0  0  0  0  0  0  0  0  0
   -1.6464    2.0125    0.0623 O   0  0  0  0  0  0  0  0  0  0  0  0
    0.0189    1.9059    1.5756 N   0  0  0  0  0  0  0  0  0  0  0  0
    0.7024    1.3094    2.0137 H   0  0  0  0  0  0  0  0  0  0  0  0
   -0.0451    3.3046    1.9929 C   0  0  0  0  0  0  0  0  0  0  0  0
   -1.0415    3.5286    2.3805 H   0  0  0  0  0  0  0  0  0  0  0  0
    0.6954    3.5023    2.7695 H   0  0  0  0  0  0  0  0  0  0  0  0
    0.1474    3.9536    1.1372 H   0  0  0  0  0  0  0  0  0  0  0  0
  5  6  2  0  0  0  0
  5  7  1  0  0  0  0
  2  3  1  0  0  0  0
  2  4  1  0  0  0  0
  2  5  1  0  0  0  0
  1  2  1  0  0  0  0
 24 25  2  0  0  0  0
 24 26  1  0  0  0  0
 20 21  1  0  0  0  0
 20 22  1  0  0  0  0
 20 23  1  0  0  0  0
 16 17  1  0  0  0  0
 16 18  1  0  0  0  0
 16 19  1  0  0  0  0
 14 15  1  0  0  0  0
 14 16  1  0  0  0  0
 14 20  1  0  0  0  0
 11 12  1  0  0  0  0
 11 13  1  0  0  0  0
 11 14  1  0  0  0  0
  9 10  1  0  0  0  0
  9 11  1  0  0  0  0
  9 24  1  0  0  0  0
  7  8  1  0  0  0  0
  7  9  1  0  0  0  0
 28 29  1  0  0  0  0
 28 30  1  0  0  0  0
 28 31  1  0  0  0  0
 26 27  1  0  0  0  0
 26 28  1  0  0  0  0
M  END
$$$$
default_name
  -OEChem-02102213163D

 31 30  0     1  0  0  0  0  0999 V2000
   -3.5895   -3.5013    1.1082 H   0  0  0  0  0  0  0  0  0  0  0  0
   -3.5145   -2.5363    0.6082 C   0  0  0  0  0  0  0  0  0  0  0  0
   -4.2285   -1.8413    1.0452 H   0  0  0  0  0  0  0  0  0  0  0  0
   -3.7155   -2.6583   -0.4538 H   0  0  0  0  0  0  0  0  0  0  0  0
   -2.1155   -1.9963    0.7922 C   0  0  0  0  0  0  0  0  0  0  0  0
   -1.2875   -2.6383    1.4252 O   0  0  0  0  0  0  0  0  0  0  0  0
   -1.8575   -0.8123    0.2402 N   0  0  0  0  0  0  0  0  0  0  0  0
   -2.6005   -0.3333   -0.2478 H   0  0  0  0  0  0  0  0  0  0  0  0
   -0.5675   -0.1203    0.3102 C   0  0  1  0  0  0  0  0  0  0  0  0
    0.0191   -0.5718    1.1110 H   0  0  0  0  0  0  0  0  0  0  0  0
    0.1724   -0.3238   -1.0286 C   0  0  0  0  0  0  0  0  0  0  0  0
   -0.1578   -1.2664   -1.4696 H   0  0  0  0  0  0  0  0  0  0  0  0
   -0.1265    0.4802   -1.7048 H   0  0  0  0  0  0  0  0  0  0  0  0
    1.7100   -0.3361   -0.9487 C   0  0  0  0  0  0  0  0  0  0  0  0
    2.0295   -0.9345   -0.0955 H   0  0  0  0  0  0  0  0  0  0  0  0
    2.3517   -0.8992   -2.2201 C   0  0  0  0  0  0  0  0  0  0  0  0
    2.0283   -0.3200   -3.0861 H   0  0  0  0  0  0  0  0  0  0  0  0
    3.4375   -0.8432   -2.1391 H   0  0  0  0  0  0  0  0  0  0  0  0
    2.0705   -1.9402   -2.3638 H   0  0  0  0  0  0  0  0  0  0  0  0
    2.2279    1.0877   -0.7485 C   0  0  0  0  0  0  0  0  0  0  0  0
    1.8116    1.5037    0.1689 H   0  0  0  0  0  0  0  0  0  0  0  0
    3.3146    1.0784   -0.6640 H   0  0  0  0  0  0  0  0  0  0  0  0
    1.9380    1.7150   -1.5922 H   0  0  0  0  0  0  0  0  0  0  0  0
   -0.7793    1.3659    0.6455 C   0  0  0  0  0  0  0  0  0  0  0  0
   -1.6464    2.0125    0.0623 O   0  0  0  0  0  0  0  0  0  0  0  0
    0.0189    1.9059    1.5756 N   0  0  0  0  0  0  0  0  0  0  0  0
    0.7024    1.3094    2.0137 H   0  0  0  0  0  0  0  0  0  0  0  0
   -0.0451    3.3046    1.9929 C   0  0  0  0  0  0  0  0  0  0  0  0
   -1.0415    3.5286    2.3805 H   0  0  0  0  0  0  0  0  0  0  0  0
    0.6954    3.5023    2.7695 H   0  0  0  0  0  0  0  0  0  0  0  0
    0.1474    3.9536    1.1372 H   0  0  0  0  0  0  0  0  0  0  0  0
  5  6  2  0  0  0  0
  5  7  1  0  0  0  0
  2  3  1  0  0  0  0
  2  4  1  0  0  0  0
  2  5  1  0  0  0  0
  1  2  1  0  0  0  0
 24 25  2  0  0  0  0
 24 26  1  0  0  0  0
 20 21  1  0  0  0  0
 20 22  1  0  0  0  0
 20 23  1  0  0  0  0
 16 17  1  0  0  0  0
 16 18  1  0  0  0  0
 16 19  1  0  0  0  0
 14 15  1  0  0  0  0
 14 16  1  0  0  0  0
 14 20  1  0  0  0  0
 11 12  1  0  0  0  0
 11 13  1  0  0  0  0
 11 14  1  0  0  0  0
  9 10  1  0  0  0  0
  9 11  1  0  0  0  0
  9 24  1  0  0  0  0
  7  8  1  0  0  0  0
  7  9  1  0  0  0  0
 28 29  1  0  0  0  0
 28 30  1  0  0  0  0
 28 31  1  0  0  0  0
 26 27  1  0  0  0  0
 26 28  1  0  0  0  0
M  END
$$$$
default_name
  -OEChem-02102213163D

 31 30  0     1  0  0  0  0  0999 V2000
   -3.5895   -3.5013    1.1082 H   0  0  0  0  0  0  0  0  0  0  0  0
   -3.5145   -2.5363    0.6082 C   0  0  0  0  0  0  0  0  0  0  0  0
   -4.2285   -1.8413    1.0452 H   0  0  0  0  0  0  0  0  0  0  0  0
   -3.7155   -2.6583   -0.4538 H   0  0  0  0  0  0  0  0  0  0  0  0
   -2.1155   -1.9963    0.7922 C   0  0  0  0  0  0  0  0  0  0  0  0
   -1.2875   -2.6383    1.4252 O   0  0  0  0  0  0  0  0  0  0  0  0
   -1.8575   -0.8123    0.2402 N   0  0  0  0  0  0  0  0  0  0  0  0
   -2.6005   -0.3333   -0.2478 H   0  0  0  0  0  0  0  0  0  0  0  0
   -0.5675   -0.1203    0.3102 C   0  0  1  0  0  0  0  0  0  0  0  0
    0.0191   -0.5718    1.1110 H   0  0  0  0  0  0  0  0  0  0  0  0
    0.1724   -0.3238   -1.0286 C   0  0  0  0  0  0  0  0  0  0  0  0
   -0.3374   -1.1070   -1.5931 H   0  0  0  0  0  0  0  0  0  0  0  0
    0.0929    0.6023   -1.6021 H   0  0  0  0  0  0  0  0  0  0  0  0
    1.6631   -0.6939   -0.9203 C   0  0  0  0  0  0  0  0  0  0  0  0
    1.7728   -1.6165   -0.3503 H   0  0  0  0  0  0  0  0  0  0  0  0
    2.3160   -0.8762   -2.2935 C   0  0  0  0  0  0  0  0  0  0  0  0
    2.2001    0.0345   -2.8827 H   0  0  0  0  0  0  0  0  0  0  0  0
    3.3782   -1.0881   -2.1697 H   0  0  0  0  0  0  0  0  0  0  0  0
    1.8596   -1.7062   -2.8287 H   0  0  0  0  0  0  0  0  0  0  0  0
    2.4169    0.4112   -0.1815 C   0  0  0  0  0  0  0  0  0  0  0  0
    1.9933    0.5416    0.8143 H   0  0  0  0  0  0  0  0  0  0  0  0
    3.4674    0.1389   -0.0791 H   0  0  0  0  0  0  0  0  0  0  0  0
    2.3405    1.3502   -0.7309 H   0  0  0  0  0  0  0  0  0  0  0  0
   -0.7793    1.3659    0.6455 C   0  0  0  0  0  0  0  0  0  0  0  0
   -1.6464    2.0125    0.0623 O   0  0  0  0  0  0  0  0  0  0  0  0
    0.0189    1.9059    1.5756 N   0  0  0  0  0  0  0  0  0  0  0  0
    0.7024    1.3094    2.0137 H   0  0  0  0  0  0  0  0  0  0  0  0
   -0.0451    3.3046    1.9929 C   0  0  0  0  0  0  0  0  0  0  0  0
   -1.0415    3.5286    2.3805 H   0  0  0  0  0  0  0  0  0  0  0  0
    0.6954    3.5023    2.7695 H   0  0  0  0  0  0  0  0  0  0  0  0
    0.1474    3.9536    1.1372 H   0  0  0  0  0  0  0  0  0  0  0  0
  5  6  2  0  0  0  0
  5  7  1  0  0  0  0
  2  3  1  0  0  0  0
  2  4  1  0  0  0  0
  2  5  1  0  0  0  0
  1  2  1  0  0  0  0
 24 25  2  0  0  0  0
 24 26  1  0  0  0  0
 20 21  1  0  0  0  0
 20 22  1  0  0  0  0
 20 23  1  0  0  0  0
 16 17  1  0  0  0  0
 16 18  1  0  0  0  0
 16 19  1  0  0  0  0
 14 15  1  0  0  0  0
 14 16  1  0  0  0  0
 14 20  1  0  0  0  0
 11 12  1  0  0  0  0
 11 13  1  0  0  0  0
 11 14  1  0  0  0  0
  9 10  1  0  0  0  0
  9 11  1  0  0  0  0
  9 24  1  0  0  0  0
  7  8  1  0  0  0  0
  7  9  1  0  0  0  0
 28 29  1  0  0  0  0
 28 30  1  0  0  0  0
 28 31  1  0  0  0  0
 26 27  1  0  0  0  0
 26 28  1  0  0  0  0
M  END
$$$$
default_name
  -OEChem-02102213163D

 31 30  0     1  0  0  0  0  0999 V2000
   -3.5895   -3.5013    1.1082 H   0  0  0  0  0  0  0  0  0  0  0  0
   -3.5145   -2.5363    0.6082 C   0  0  0  0  0  0  0  0  0  0  0  0
   -4.2285   -1.8413    1.0452 H   0  0  0  0  0  0  0  0  0  0  0  0
   -3.7155   -2.6583   -0.4538 H   0  0  0  0  0  0  0  0  0  0  0  0
   -2.1155   -1.9963    0.7922 C   0  0  0  0  0  0  0  0  0  0  0  0
   -1.2875   -2.6383    1.4252 O   0  0  0  0  0  0  0  0  0  0  0  0
   -1.8575   -0.8123    0.2402 N   0  0  0  0  0  0  0  0  0  0  0  0
   -2.6005   -0.3333   -0.2478 H   0  0  0  0  0  0  0  0  0  0  0  0
   -0.5675   -0.1203    0.3102 C   0  0  1  0  0  0  0  0  0  0  0  0
    0.0191   -0.5718    1.1110 H   0  0  0  0  0  0  0  0  0  0  0  0
    0.1724   -0.3238   -1.0286 C   0  0  0  0  0  0  0  0  0  0  0  0
   -0.3374   -1.1070   -1.5931 H   0  0  0  0  0  0  0  0  0  0  0  0
    0.0929    0.6023   -1.6021 H   0  0  0  0  0  0  0  0  0  0  0  0
    1.6631   -0.6939   -0.9203 C   0  0  0  0  0  0  0  0  0  0  0  0
    1.7626   -1.7289   -0.5931 H   0  0  0  0  0  0  0  0  0  0  0  0
    2.4016   -0.5188   -2.2504 C   0  0  0  0  0  0  0  0  0  0  0  0
    2.2974    0.5095   -2.5994 H   0  0  0  0  0  0  0  0  0  0  0  0
    3.4597   -0.7440   -2.1152 H   0  0  0  0  0  0  0  0  0  0  0  0
    2.0000   -1.1924   -3.0043 H   0  0  0  0  0  0  0  0  0  0  0  0
    2.3422    0.1979    0.1184 C   0  0  0  0  0  0  0  0  0  0  0  0
    1.8564    0.0697    1.0856 H   0  0  0  0  0  0  0  0  0  0  0  0
    3.3914   -0.0806    0.2169 H   0  0  0  0  0  0  0  0  0  0  0  0
    2.2743    1.2440   -0.1826 H   0  0  0  0  0  0  0  0  0  0  0  0
   -0.7793    1.3659    0.6455 C   0  0  0  0  0  0  0  0  0  0  0  0
   -1.6464    2.0125    0.0623 O   0  0  0  0  0  0  0  0  0  0  0  0
    0.0189    1.9059    1.5756 N   0  0  0  0  0  0  0  0  0  0  0  0
    0.7024    1.3094    2.0137 H   0  0  0  0  0  0  0  0  0  0  0  0
   -0.0451    3.3046    1.9929 C   0  0  0  0  0  0  0  0  0  0  0  0
   -1.0415    3.5286    2.3805 H   0  0  0  0  0  0  0  0  0  0  0  0
    0.6954    3.5023    2.7695 H   0  0  0  0  0  0  0  0  0  0  0  0
    0.1474    3.9536    1.1372 H   0  0  0  0  0  0  0  0  0  0  0  0
  5  6  2  0  0  0  0
  5  7  1  0  0  0  0
  2  3  1  0  0  0  0
  2  4  1  0  0  0  0
  2  5  1  0  0  0  0
  1  2  1  0  0  0  0
 24 25  2  0  0  0  0
 24 26  1  0  0  0  0
 20 21  1  0  0  0  0
 20 22  1  0  0  0  0
 20 23  1  0  0  0  0
 16 17  1  0  0  0  0
 16 18  1  0  0  0  0
 16 19  1  0  0  0  0
 14 15  1  0  0  0  0
 14 16  1  0  0  0  0
 14 20  1  0  0  0  0
 11 12  1  0  0  0  0
 11 13  1  0  0  0  0
 11 14  1  0  0  0  0
  9 10  1  0  0  0  0
  9 11  1  0  0  0  0
  9 24  1  0  0  0  0
  7  8  1  0  0  0  0
  7  9  1  0  0  0  0
 28 29  1  0  0  0  0
 28 30  1  0  0  0  0
 28 31  1  0  0  0  0
 26 27  1  0  0  0  0
 26 28  1  0  0  0  0
M  END
$$$$
default_name
  -OEChem-02102213163D

 31 30  0     1  0  0  0  0  0999 V2000
   -3.5895   -3.5013    1.1082 H   0  0  0  0  0  0  0  0  0  0  0  0
   -3.5145   -2.5363    0.6082 C   0  0  0  0  0  0  0  0  0  0  0  0
   -4.2285   -1.8413    1.0452 H   0  0  0  0  0  0  0  0  0  0  0  0
   -3.7155   -2.6583   -0.4538 H   0  0  0  0  0  0  0  0  0  0  0  0
   -2.1155   -1.9963    0.7922 C   0  0  0  0  0  0  0  0  0  0  0  0
   -1.2875   -2.6383    1.4252 O   0  0  0  0  0  0  0  0  0  0  0  0
   -1.8575   -0.8123    0.2402 N   0  0  0  0  0  0  0  0  0  0  0  0
   -2.6005   -0.3333   -0.2478 H   0  0  0  0  0  0  0  0  0  0  0  0
   -0.5675   -0.1203    0.3102 C   0  0  1  0  0  0  0  0  0  0  0  0
    0.0191   -0.5718    1.1110 H   0  0  0  0  0  0  0  0  0  0  0  0
    0.1724   -0.3238   -1.0286 C   0  0  0  0  0  0  0  0  0  0  0  0
   -0.3374   -1.1070   -1.5931 H   0  0  0  0  0  0  0  0  0  0  0  0
    0.0929    0.6023   -1.6021 H   0  0  0  0  0  0  0  0  0  0  0  0
    1.6631   -0.6939   -0.9203 C   0  0  0  0  0  0  0  0  0  0  0  0
    1.7699   -1.7768   -0.8565 H   0  0  0  0  0  0  0  0  0  0  0  0
    2.4751   -0.1828   -2.1139 C   0  0  0  0  0  0  0  0  0  0  0  0
    2.3652    0.8991   -2.2007 H   0  0  0  0  0  0  0  0  0  0  0  0
    3.5287   -0.4238   -1.9713 H   0  0  0  0  0  0  0  0  0  0  0  0
    2.1371   -0.6495   -3.0366 H   0  0  0  0  0  0  0  0  0  0  0  0
    2.2552   -0.0846    0.3500 C   0  0  0  0  0  0  0  0  0  0  0  0
    1.7159   -0.4566    1.2210 H   0  0  0  0  0  0  0  0  0  0  0  0
    3.3036   -0.3681    0.4432 H   0  0  0  0  0  0  0  0  0  0  0  0
    2.1781    1.0028    0.3163 H   0  0  0  0  0  0  0  0  0  0  0  0
   -0.7793    1.3659    0.6455 C   0  0  0  0  0  0  0  0  0  0  0  0
   -1.6464    2.0125    0.0623 O   0  0  0  0  0  0  0  0  0  0  0  0
    0.0189    1.9059    1.5756 N   0  0  0  0  0  0  0  0  0  0  0  0
    0.7024    1.3094    2.0137 H   0  0  0  0  0  0  0  0  0  0  0  0
   -0.0451    3.3046    1.9929 C   0  0  0  0  0  0  0  0  0  0  0  0
   -1.0415    3.5286    2.3805 H   0  0  0  0  0  0  0  0  0  0  0  0
    0.6954    3.5023    2.7695 H   0  0  0  0  0  0  0  0  0  0  0  0
    0.1474    3.9536    1.1372 H   0  0  0  0  0  0  0  0  0  0  0  0
  5  6  2  0  0  0  0
  5  7  1  0  0  0  0
  2  3  1  0  0  0  0
  2  4  1  0  0  0  0
  2  5  1  0  0  0  0
  1  2  1  0  0  0  0
 24 25  2  0  0  0  0
 24 26  1  0  0  0  0
 20 21  1  0  0  0  0
 20 22  1  0  0  0  0
 20 23  1  0  0  0  0
 16 17  1  0  0  0  0
 16 18  1  0  0  0  0
 16 19  1  0  0  0  0
 14 15  1  0  0  0  0
 14 16  1  0  0  0  0
 14 20  1  0  0  0  0
 11 12  1  0  0  0  0
 11 13  1  0  0  0  0
 11 14  1  0  0  0  0
  9 10  1  0  0  0  0
  9 11  1  0  0  0  0
  9 24  1  0  0  0  0
  7  8  1  0  0  0  0
  7  9  1  0  0  0  0
 28 29  1  0  0  0  0
 28 30  1  0  0  0  0
 28 31  1  0  0  0  0
 26 27  1  0  0  0  0
 26 28  1  0  0  0  0
M  END
$$$$
default_name
  -OEChem-02102213163D

 31 30  0     1  0  0  0  0  0999 V2000
   -3.5895   -3.5013    1.1082 H   0  0  0  0  0  0  0  0  0  0  0  0
   -3.5145   -2.5363    0.6082 C   0  0  0  0  0  0  0  0  0  0  0  0
   -4.2285   -1.8413    1.0452 H   0  0  0  0  0  0  0  0  0  0  0  0
   -3.7155   -2.6583   -0.4538 H   0  0  0  0  0  0  0  0  0  0  0  0
   -2.1155   -1.9963    0.7922 C   0  0  0  0  0  0  0  0  0  0  0  0
   -1.2875   -2.6383    1.4252 O   0  0  0  0  0  0  0  0  0  0  0  0
   -1.8575   -0.8123    0.2402 N   0  0  0  0  0  0  0  0  0  0  0  0
   -2.6005   -0.3333   -0.2478 H   0  0  0  0  0  0  0  0  0  0  0  0
   -0.5675   -0.1203    0.3102 C   0  0  1  0  0  0  0  0  0  0  0  0
    0.0191   -0.5718    1.1110 H   0  0  0  0  0  0  0  0  0  0  0  0
    0.1724   -0.3238   -1.0286 C   0  0  0  0  0  0  0  0  0  0  0  0
   -0.3374   -1.1070   -1.5931 H   0  0  0  0  0  0  0  0  0  0  0  0
    0.0929    0.6023   -1.6021 H   0  0  0  0  0  0  0  0  0  0  0  0
    1.6631   -0.6939   -0.9203 C   0  0  0  0  0  0  0  0  0  0  0  0
    1.7941   -1.7569   -1.1225 H   0  0  0  0  0  0  0  0  0  0  0  0
    2.5314    0.1090   -1.8932 C   0  0  0  0  0  0  0  0  0  0  0  0
    2.3987    1.1767   -1.7138 H   0  0  0  0  0  0  0  0  0  0  0  0
    3.5806   -0.1493   -1.7478 H   0  0  0  0  0  0  0  0  0  0  0  0
    2.2616   -0.1145   -2.9231 H   0  0  0  0  0  0  0  0  0  0  0  0
    2.1620   -0.4170    0.4974 C   0  0  0  0  0  0  0  0  0  0  0  0
    1.5814   -1.0014    1.2111 H   0  0  0  0  0  0  0  0  0  0  0  0
    3.2099   -0.7041    0.5843 H   0  0  0  0  0  0  0  0  0  0  0  0
    2.0586    0.6430    0.7317 H   0  0  0  0  0  0  0  0  0  0  0  0
   -0.7793    1.3659    0.6455 C   0  0  0  0  0  0  0  0  0  0  0  0
   -1.6464    2.0125    0.0623 O   0  0  0  0  0  0  0  0  0  0  0  0
    0.0189    1.9059    1.5756 N   0  0  0  0  0  0  0  0  0  0  0  0
    0.7024    1.3094    2.0137 H   0  0  0  0  0  0  0  0  0  0  0  0
   -0.0451    3.3046    1.9929 C   0  0  0  0  0  0  0  0  0  0  0  0
   -1.0415    3.5286    2.3805 H   0  0  0  0  0  0  0  0  0  0  0  0
    0.6954    3.5023    2.7695 H   0  0  0  0  0  0  0  0  0  0  0  0
    0.1474    3.9536    1.1372 H   0  0  0  0  0  0  0  0  0  0  0  0
  5  6  2  0  0  0  0
  5  7  1  0  0  0  0
  2  3  1  0  0  0  0
  2  4  1  0  0  0  0
  2  5  1  0  0  0  0
  1  2  1  0  0  0  0
 24 25  2  0  0  0  0
 24 26  1  0  0  0  0
 20 21  1  0  0  0  0
 20 22  1  0  0  0  0
 20 23  1  0  0  0  0
 16 17  1  0  0  0  0
 16 18  1  0  0  0  0
 16 19  1  0  0  0  0
 14 15  1  0  0  0  0
 14 16  1  0  0  0  0
 14 20  1  0  0  0  0
 11 12  1  0  0  0  0
 11 13  1  0  0  0  0
 11 14  1  0  0  0  0
  9 10  1  0  0  0  0
  9 11  1  0  0  0  0
  9 24  1  0  0  0  0
  7  8  1  0  0  0  0
  7  9  1  0  0  0  0
 28 29  1  0  0  0  0
 28 30  1  0  0  0  0
 28 31  1  0  0  0  0
 26 27  1  0  0  0  0
 26 28  1  0  0  0  0
M  END
$$$$
default_name
  -OEChem-02102213163D

 31 30  0     1  0  0  0  0  0999 V2000
   -3.5895   -3.5013    1.1082 H   0  0  0  0  0  0  0  0  0  0  0  0
   -3.5145   -2.5363    0.6082 C   0  0  0  0  0  0  0  0  0  0  0  0
   -4.2285   -1.8413    1.0452 H   0  0  0  0  0  0  0  0  0  0  0  0
   -3.7155   -2.6583   -0.4538 H   0  0  0  0  0  0  0  0  0  0  0  0
   -2.1155   -1.9963    0.7922 C   0  0  0  0  0  0  0  0  0  0  0  0
   -1.2875   -2.6383    1.4252 O   0  0  0  0  0  0  0  0  0  0  0  0
   -1.8575   -0.8123    0.2402 N   0  0  0  0  0  0  0  0  0  0  0  0
   -2.6005   -0.3333   -0.2478 H   0  0  0  0  0  0  0  0  0  0  0  0
   -0.5675   -0.1203    0.3102 C   0  0  1  0  0  0  0  0  0  0  0  0
    0.0191   -0.5718    1.1110 H   0  0  0  0  0  0  0  0  0  0  0  0
    0.1724   -0.3238   -1.0286 C   0  0  0  0  0  0  0  0  0  0  0  0
   -0.3374   -1.1070   -1.5931 H   0  0  0  0  0  0  0  0  0  0  0  0
    0.0929    0.6023   -1.6021 H   0  0  0  0  0  0  0  0  0  0  0  0
    1.6631   -0.6939   -0.9203 C   0  0  0  0  0  0  0  0  0  0  0  0
    1.8337   -1.6706   -1.3730 H   0  0  0  0  0  0  0  0  0  0  0  0
    2.5669    0.3365   -1.6035 C   0  0  0  0  0  0  0  0  0  0  0  0
    2.3958    1.3235   -1.1718 H   0  0  0  0  0  0  0  0  0  0  0  0
    3.6118    0.0608   -1.4598 H   0  0  0  0  0  0  0  0  0  0  0  0
    2.3651    0.3760   -2.6718 H   0  0  0  0  0  0  0  0  0  0  0  0
    2.0688   -0.7769    0.5508 C   0  0  0  0  0  0  0  0  0  0  0  0
    1.4620   -1.5277    1.0567 H   0  0  0  0  0  0  0  0  0  0  0  0
    3.1168   -1.0657    0.6305 H   0  0  0  0  0  0  0  0  0  0  0  0
    1.9239    0.1893    1.0355 H   0  0  0  0  0  0  0  0  0  0  0  0
   -0.7793    1.3659    0.6455 C   0  0  0  0  0  0  0  0  0  0  0  0
   -1.6464    2.0125    0.0623 O   0  0  0  0  0  0  0  0  0  0  0  0
    0.0189    1.9059    1.5756 N   0  0  0  0  0  0  0  0  0  0  0  0
    0.7024    1.3094    2.0137 H   0  0  0  0  0  0  0  0  0  0  0  0
   -0.0451    3.3046    1.9929 C   0  0  0  0  0  0  0  0  0  0  0  0
   -1.0415    3.5286    2.3805 H   0  0  0  0  0  0  0  0  0  0  0  0
    0.6954    3.5023    2.7695 H   0  0  0  0  0  0  0  0  0  0  0  0
    0.1474    3.9536    1.1372 H   0  0  0  0  0  0  0  0  0  0  0  0
  5  6  2  0  0  0  0
  5  7  1  0  0  0  0
  2  3  1  0  0  0  0
  2  4  1  0  0  0  0
  2  5  1  0  0  0  0
  1  2  1  0  0  0  0
 24 25  2  0  0  0  0
 24 26  1  0  0  0  0
 20 21  1  0  0  0  0
 20 22  1  0  0  0  0
 20 23  1  0  0  0  0
 16 17  1  0  0  0  0
 16 18  1  0  0  0  0
 16 19  1  0  0  0  0
 14 15  1  0  0  0  0
 14 16  1  0  0  0  0
 14 20  1  0  0  0  0
 11 12  1  0  0  0  0
 11 13  1  0  0  0  0
 11 14  1  0  0  0  0
  9 10  1  0  0  0  0
  9 11  1  0  0  0  0
  9 24  1  0  0  0  0
  7  8  1  0  0  0  0
  7  9  1  0  0  0  0
 28 29  1  0  0  0  0
 28 30  1  0  0  0  0
 28 31  1  0  0  0  0
 26 27  1  0  0  0  0
 26 28  1  0  0  0  0
M  END
$$$$
default_name
  -OEChem-02102213163D

 31 30  0     1  0  0  0  0  0999 V2000
   -3.5895   -3.5013    1.1082 H   0  0  0  0  0  0  0  0  0  0  0  0
   -3.5145   -2.5363    0.6082 C   0  0  0  0  0  0  0  0  0  0  0  0
   -4.2285   -1.8413    1.0452 H   0  0  0  0  0  0  0  0  0  0  0  0
   -3.7155   -2.6583   -0.4538 H   0  0  0  0  0  0  0  0  0  0  0  0
   -2.1155   -1.9963    0.7922 C   0  0  0  0  0  0  0  0  0  0  0  0
   -1.2875   -2.6383    1.4252 O   0  0  0  0  0  0  0  0  0  0  0  0
   -1.8575   -0.8123    0.2402 N   0  0  0  0  0  0  0  0  0  0  0  0
   -2.6005   -0.3333   -0.2478 H   0  0  0  0  0  0  0  0  0  0  0  0
   -0.5675   -0.1203    0.3102 C   0  0  1  0  0  0  0  0  0  0  0  0
    0.0191   -0.5718    1.1110 H   0  0  0  0  0  0  0  0  0  0  0  0
    0.1724   -0.3238   -1.0286 C   0  0  0  0  0  0  0  0  0  0  0  0
   -0.3374   -1.1070   -1.5931 H   0  0  0  0  0  0  0  0  0  0  0  0
    0.0929    0.6023   -1.6021 H   0  0  0  0  0  0  0  0  0  0  0  0
    1.6631   -0.6939   -0.9203 C   0  0  0  0  0  0  0  0  0  0  0  0
    1.8860   -1.5238   -1.5908 H   0  0  0  0  0  0  0  0  0  0  0  0
    2.5789    0.4843   -1.2644 C   0  0  0  0  0  0  0  0  0  0  0  0
    2.3565    1.3294   -0.6116 H   0  0  0  0  0  0  0  0  0  0  0  0
    3.6203    0.1921   -1.1271 H   0  0  0  0  0  0  0  0  0  0  0  0
    2.4406    0.7888   -2.2996 H   0  0  0  0  0  0  0  0  0  0  0  0
    1.9820   -1.1395    0.5063 C   0  0  0  0  0  0  0  0  0  0  0  0
    1.3658   -1.9995    0.7683 H   0  0  0  0  0  0  0  0  0  0  0  0
    3.0305   -1.4283    0.5788 H   0  0  0  0  0  0  0  0  0  0  0  0
    1.7832   -0.3276    1.2068 H   0  0  0  0  0  0  0  0  0  0  0  0
   -0.7793    1.3659    0.6455 C   0  0  0  0  0  0  0  0  0  0  0  0
   -1.6464    2.0125    0.0623 O   0  0  0  0  0  0  0  0  0  0  0  0
    0.0189    1.9059    1.5756 N   0  0  0  0  0  0  0  0  0  0  0  0
    0.7024    1.3094    2.0137 H   0  0  0  0  0  0  0  0  0  0  0  0
   -0.0451    3.3046    1.9929 C   0  0  0  0  0  0  0  0  0  0  0  0
   -1.0415    3.5286    2.3805 H   0  0  0  0  0  0  0  0  0  0  0  0
    0.6954    3.5023    2.7695 H   0  0  0  0  0  0  0  0  0  0  0  0
    0.1474    3.9536    1.1372 H   0  0  0  0  0  0  0  0  0  0  0  0
  5  6  2  0  0  0  0
  5  7  1  0  0  0  0
  2  3  1  0  0  0  0
  2  4  1  0  0  0  0
  2  5  1  0  0  0  0
  1  2  1  0  0  0  0
 24 25  2  0  0  0  0
 24 26  1  0  0  0  0
 20 21  1  0  0  0  0
 20 22  1  0  0  0  0
 20 23  1  0  0  0  0
 16 17  1  0  0  0  0
 16 18  1  0  0  0  0
 16 19  1  0  0  0  0
 14 15  1  0  0  0  0
 14 16  1  0  0  0  0
 14 20  1  0  0  0  0
 11 12  1  0  0  0  0
 11 13  1  0  0  0  0
 11 14  1  0  0  0  0
  9 10  1  0  0  0  0
  9 11  1  0  0  0  0
  9 24  1  0  0  0  0
  7  8  1  0  0  0  0
  7  9  1  0  0  0  0
 28 29  1  0  0  0  0
 28 30  1  0  0  0  0
 28 31  1  0  0  0  0
 26 27  1  0  0  0  0
 26 28  1  0  0  0  0
M  END
$$$$
default_name
  -OEChem-02102213163D

 31 30  0     1  0  0  0  0  0999 V2000
   -3.5895   -3.5013    1.1082 H   0  0  0  0  0  0  0  0  0  0  0  0
   -3.5145   -2.5363    0.6082 C   0  0  0  0  0  0  0  0  0  0  0  0
   -4.2285   -1.8413    1.0452 H   0  0  0  0  0  0  0  0  0  0  0  0
   -3.7155   -2.6583   -0.4538 H   0  0  0  0  0  0  0  0  0  0  0  0
   -2.1155   -1.9963    0.7922 C   0  0  0  0  0  0  0  0  0  0  0  0
   -1.2875   -2.6383    1.4252 O   0  0  0  0  0  0  0  0  0  0  0  0
   -1.8575   -0.8123    0.2402 N   0  0  0  0  0  0  0  0  0  0  0  0
   -2.6005   -0.3333   -0.2478 H   0  0  0  0  0  0  0  0  0  0  0  0
   -0.5675   -0.1203    0.3102 C   0  0  1  0  0  0  0  0  0  0  0  0
    0.0191   -0.5718    1.1110 H   0  0  0  0  0  0  0  0  0  0  0  0
    0.1724   -0.3238   -1.0286 C   0  0  0  0  0  0  0  0  0  0  0  0
   -0.3374   -1.1070   -1.5931 H   0  0  0  0  0  0  0  0  0  0  0  0
    0.0929    0.6023   -1.6021 H   0  0  0  0  0  0  0  0  0  0  0  0
    1.6631   -0.6939   -0.9203 C   0  0  0  0  0  0  0  0  0  0  0  0
    1.9474   -1.3265   -1.7612 H   0  0  0  0  0  0  0  0  0  0  0  0
    2.5668    0.5423   -0.8991 C   0  0  0  0  0  0  0  0  0  0  0  0
    2.2837    1.1941   -0.0715 H   0  0  0  0  0  0  0  0  0  0  0  0
    3.6053    0.2357   -0.7723 H   0  0  0  0  0  0  0  0  0  0  0  0
    2.4827    1.0956   -1.8320 H   0  0  0  0  0  0  0  0  0  0  0  0
    1.9075   -1.4802    0.3671 C   0  0  0  0  0  0  0  0  0  0  0  0
    1.2995   -2.3847    0.3654 H   0  0  0  0  0  0  0  0  0  0  0  0
    2.9570   -1.7672    0.4326 H   0  0  0  0  0  0  0  0  0  0  0  0
    1.6460   -0.8723    1.2340 H   0  0  0  0  0  0  0  0  0  0  0  0
   -0.7793    1.3659    0.6455 C   0  0  0  0  0  0  0  0  0  0  0  0
   -1.6464    2.0125    0.0623 O   0  0  0  0  0  0  0  0  0  0  0  0
    0.0189    1.9059    1.5756 N   0  0  0  0  0  0  0  0  0  0  0  0
    0.7024    1.3094    2.0137 H   0  0  0  0  0  0  0  0  0  0  0  0
   -0.0451    3.3046    1.9929 C   0  0  0  0  0  0  0  0  0  0  0  0
   -1.0415    3.5286    2.3805 H   0  0  0  0  0  0  0  0  0  0  0  0
    0.6954    3.5023    2.7695 H   0  0  0  0  0  0  0  0  0  0  0  0
    0.1474    3.9536    1.1372 H   0  0  0  0  0  0  0  0  0  0  0  0
  5  6  2  0  0  0  0
  5  7  1  0  0  0  0
  2  3  1  0  0  0  0
  2  4  1  0  0  0  0
  2  5  1  0  0  0  0
  1  2  1  0  0  0  0
 24 25  2  0  0  0  0
 24 26  1  0  0  0  0
 20 21  1  0  0  0  0
 20 22  1  0  0  0  0
 20 23  1  0  0  0  0
 16 17  1  0  0  0  0
 16 18  1  0  0  0  0
 16 19  1  0  0  0  0
 14 15  1  0  0  0  0
 14 16  1  0  0  0  0
 14 20  1  0  0  0  0
 11 12  1  0  0  0  0
 11 13  1  0  0  0  0
 11 14  1  0  0  0  0
  9 10  1  0  0  0  0
  9 11  1  0  0  0  0
  9 24  1  0  0  0  0
  7  8  1  0  0  0  0
  7  9  1  0  0  0  0
 28 29  1  0  0  0  0
 28 30  1  0  0  0  0
 28 31  1  0  0  0  0
 26 27  1  0  0  0  0
 26 28  1  0  0  0  0
M  END
$$$$
default_name
  -OEChem-02102213163D

 31 30  0     1  0  0  0  0  0999 V2000
   -3.5895   -3.5013    1.1082 H   0  0  0  0  0  0  0  0  0  0  0  0
   -3.5145   -2.5363    0.6082 C   0  0  0  0  0  0  0  0  0  0  0  0
   -4.2285   -1.8413    1.0452 H   0  0  0  0  0  0  0  0  0  0  0  0
   -3.7155   -2.6583   -0.4538 H   0  0  0  0  0  0  0  0  0  0  0  0
   -2.1155   -1.9963    0.7922 C   0  0  0  0  0  0  0  0  0  0  0  0
   -1.2875   -2.6383    1.4252 O   0  0  0  0  0  0  0  0  0  0  0  0
   -1.8575   -0.8123    0.2402 N   0  0  0  0  0  0  0  0  0  0  0  0
   -2.6005   -0.3333   -0.2478 H   0  0  0  0  0  0  0  0  0  0  0  0
   -0.5675   -0.1203    0.3102 C   0  0  1  0  0  0  0  0  0  0  0  0
    0.0191   -0.5718    1.1110 H   0  0  0  0  0  0  0  0  0  0  0  0
    0.1724   -0.3238   -1.0286 C   0  0  0  0  0  0  0  0  0  0  0  0
   -0.3374   -1.1070   -1.5931 H   0  0  0  0  0  0  0  0  0  0  0  0
    0.0929    0.6023   -1.6021 H   0  0  0  0  0  0  0  0  0  0  0  0
    1.6631   -0.6939   -0.9203 C   0  0  0  0  0  0  0  0  0  0  0  0
    2.0137   -1.0921   -1.8725 H   0  0  0  0  0  0  0  0  0  0  0  0
    2.5312    0.5066   -0.5325 C   0  0  0  0  0  0  0  0  0  0  0  0
    2.1822    0.9267    0.4117 H   0  0  0  0  0  0  0  0  0  0  0  0
    3.5680    0.1887   -0.4196 H   0  0  0  0  0  0  0  0  0  0  0  0
    2.4888    1.2756   -1.3008 H   0  0  0  0  0  0  0  0  0  0  0  0
    1.8505   -1.7757    0.1427 C   0  0  0  0  0  0  0  0  0  0  0  0
    1.2675   -2.6571   -0.1243 H   0  0  0  0  0  0  0  0  0  0  0  0
    2.9013   -2.0592    0.2019 H   0  0  0  0  0  0  0  0  0  0  0  0
    1.5217   -1.4078    1.1152 H   0  0  0  0  0  0  0  0  0  0  0  0
   -0.7793    1.3659    0.6455 C   0  0  0  0  0  0  0  0  0  0  0  0
   -1.6464    2.0125    0.0623 O   0  0  0  0  0  0  0  0  0  0  0  0
    0.0189    1.9059    1.5756 N   0  0  0  0  0  0  0  0  0  0  0  0
    0.7024    1.3094    2.0137 H   0  0  0  0  0  0  0  0  0  0  0  0
   -0.0451    3.3046    1.9929 C   0  0  0  0  0  0  0  0  0  0  0  0
   -1.0415    3.5286    2.3805 H   0  0  0  0  0  0  0  0  0  0  0  0
    0.6954    3.5023    2.7695 H   0  0  0  0  0  0  0  0  0  0  0  0
    0.1474    3.9536    1.1372 H   0  0  0  0  0  0  0  0  0  0  0  0
  5  6  2  0  0  0  0
  5  7  1  0  0  0  0
  2  3  1  0  0  0  0
  2  4  1  0  0  0  0
  2  5  1  0  0  0  0
  1  2  1  0  0  0  0
 24 25  2  0  0  0  0
 24 26  1  0  0  0  0
 20 21  1  0  0  0  0
 20 22  1  0  0  0  0
 20 23  1  0  0  0  0
 16 17  1  0  0  0  0
 16 18  1  0  0  0  0
 16 19  1  0  0  0  0
 14 15  1  0  0  0  0
 14 16  1  0  0  0  0
 14 20  1  0  0  0  0
 11 12  1  0  0  0  0
 11 13  1  0  0  0  0
 11 14  1  0  0  0  0
  9 10  1  0  0  0  0
  9 11  1  0  0  0  0
  9 24  1  0  0  0  0
  7  8  1  0  0  0  0
  7  9  1  0  0  0  0
 28 29  1  0  0  0  0
 28 30  1  0  0  0  0
 28 31  1  0  0  0  0
 26 27  1  0  0  0  0
 26 28  1  0  0  0  0
M  END
$$$$
default_name
  -OEChem-02102213163D

 31 30  0     1  0  0  0  0  0999 V2000
   -3.5895   -3.5013    1.1082 H   0  0  0  0  0  0  0  0  0  0  0  0
   -3.5145   -2.5363    0.6082 C   0  0  0  0  0  0  0  0  0  0  0  0
   -4.2285   -1.8413    1.0452 H   0  0  0  0  0  0  0  0  0  0  0  0
   -3.7155   -2.6583   -0.4538 H   0  0  0  0  0  0  0  0  0  0  0  0
   -2.1155   -1.9963    0.7922 C   0  0  0  0  0  0  0  0  0  0  0  0
   -1.2875   -2.6383    1.4252 O   0  0  0  0  0  0  0  0  0  0  0  0
   -1.8575   -0.8123    0.2402 N   0  0  0  0  0  0  0  0  0  0  0  0
   -2.6005   -0.3333   -0.2478 H   0  0  0  0  0  0  0  0  0  0  0  0
   -0.5675   -0.1203    0.3102 C   0  0  1  0  0  0  0  0  0  0  0  0
    0.0191   -0.5718    1.1110 H   0  0  0  0  0  0  0  0  0  0  0  0
    0.1724   -0.3238   -1.0286 C   0  0  0  0  0  0  0  0  0  0  0  0
   -0.3374   -1.1070   -1.5931 H   0  0  0  0  0  0  0  0  0  0  0  0
    0.0929    0.6023   -1.6021 H   0  0  0  0  0  0  0  0  0  0  0  0
    1.6631   -0.6939   -0.9203 C   0  0  0  0  0  0  0  0  0  0  0  0
    2.0803   -0.8365   -1.9171 H   0  0  0  0  0  0  0  0  0  0  0  0
    2.4748    0.3796   -0.1895 C   0  0  0  0  0  0  0  0  0  0  0  0
    2.0589    0.5455    0.8052 H   0  0  0  0  0  0  0  0  0  0  0  0
    3.5109    0.0542   -0.0931 H   0  0  0  0  0  0  0  0  0  0  0  0
    2.4583    1.3164   -0.7423 H   0  0  0  0  0  0  0  0  0  0  0  0
    1.8147   -2.0060   -0.1517 C   0  0  0  0  0  0  0  0  0  0  0  0
    1.2720   -2.7980   -0.6676 H   0  0  0  0  0  0  0  0  0  0  0  0
    2.8672   -2.2844   -0.0976 H   0  0  0  0  0  0  0  0  0  0  0  0
    1.4187   -1.8975    0.8586 H   0  0  0  0  0  0  0  0  0  0  0  0
   -0.7793    1.3659    0.6455 C   0  0  0  0  0  0  0  0  0  0  0  0
   -1.6464    2.0125    0.0623 O   0  0  0  0  0  0  0  0  0  0  0  0
    0.0189    1.9059    1.5756 N   0  0  0  0  0  0  0  0  0  0  0  0
    0.7024    1.3094    2.0137 H   0  0  0  0  0  0  0  0  0  0  0  0
   -0.0451    3.3046    1.9929 C   0  0  0  0  0  0  0  0  0  0  0  0
   -1.0415    3.5286    2.3805 H   0  0  0  0  0  0  0  0  0  0  0  0
    0.6954    3.5023    2.7695 H   0  0  0  0  0  0  0  0  0  0  0  0
    0.1474    3.9536    1.1372 H   0  0  0  0  0  0  0  0  0  0  0  0
  5  6  2  0  0  0  0
  5  7  1  0  0  0  0
  2  3  1  0  0  0  0
  2  4  1  0  0  0  0
  2  5  1  0  0  0  0
  1  2  1  0  0  0  0
 24 25  2  0  0  0  0
 24 26  1  0  0  0  0
 20 21  1  0  0  0  0
 20 22  1  0  0  0  0
 20 23  1  0  0  0  0
 16 17  1  0  0  0  0
 16 18  1  0  0  0  0
 16 19  1  0  0  0  0
 14 15  1  0  0  0  0
 14 16  1  0  0  0  0
 14 20  1  0  0  0  0
 11 12  1  0  0  0  0
 11 13  1  0  0  0  0
 11 14  1  0  0  0  0
  9 10  1  0  0  0  0
  9 11  1  0  0  0  0
  9 24  1  0  0  0  0
  7  8  1  0  0  0  0
  7  9  1  0  0  0  0
 28 29  1  0  0  0  0
 28 30  1  0  0  0  0
 28 31  1  0  0  0  0
 26 27  1  0  0  0  0
 26 28  1  0  0  0  0
M  END
$$$$
default_name
  -OEChem-02102213163D

 31 30  0     1  0  0  0  0  0999 V2000
   -3.5895   -3.5013    1.1082 H   0  0  0  0  0  0  0  0  0  0  0  0
   -3.5145   -2.5363    0.6082 C   0  0  0  0  0  0  0  0  0  0  0  0
   -4.2285   -1.8413    1.0452 H   0  0  0  0  0  0  0  0  0  0  0  0
   -3.7155   -2.6583   -0.4538 H   0  0  0  0  0  0  0  0  0  0  0  0
   -2.1155   -1.9963    0.7922 C   0  0  0  0  0  0  0  0  0  0  0  0
   -1.2875   -2.6383    1.4252 O   0  0  0  0  0  0  0  0  0  0  0  0
   -1.8575   -0.8123    0.2402 N   0  0  0  0  0  0  0  0  0  0  0  0
   -2.6005   -0.3333   -0.2478 H   0  0  0  0  0  0  0  0  0  0  0  0
   -0.5675   -0.1203    0.3102 C   0  0  1  0  0  0  0  0  0  0  0  0
    0.0191   -0.5718    1.1110 H   0  0  0  0  0  0  0  0  0  0  0  0
    0.1724   -0.3238   -1.0286 C   0  0  0  0  0  0  0  0  0  0  0  0
   -0.3374   -1.1070   -1.5931 H   0  0  0  0  0  0  0  0  0  0  0  0
    0.0929    0.6023   -1.6021 H   0  0  0  0  0  0  0  0  0  0  0  0
    1.6631   -0.6939   -0.9203 C   0  0  0  0  0  0  0  0  0  0  0  0
    2.1429   -0.5773   -1.8920 H   0  0  0  0  0  0  0  0  0  0  0  0
    2.4012    0.1700    0.1064 C   0  0  0  0  0  0  0  0  0  0  0  0
    1.9223    0.0764    1.0821 H   0  0  0  0  0  0  0  0  0  0  0  0
    3.4378   -0.1585    0.1851 H   0  0  0  0  0  0  0  0  0  0  0  0
    2.3934    1.2153   -0.1945 H   0  0  0  0  0  0  0  0  0  0  0  0
    1.8027   -2.1554   -0.4960 C   0  0  0  0  0  0  0  0  0  0  0  0
    1.3127   -2.7979   -1.2275 H   0  0  0  0  0  0  0  0  0  0  0  0
    2.8569   -2.4276   -0.4454 H   0  0  0  0  0  0  0  0  0  0  0  0
    1.3442   -2.3081    0.4816 H   0  0  0  0  0  0  0  0  0  0  0  0
   -0.7793    1.3659    0.6455 C   0  0  0  0  0  0  0  0  0  0  0  0
   -1.6464    2.0125    0.0623 O   0  0  0  0  0  0  0  0  0  0  0  0
    0.0189    1.9059    1.5756 N   0  0  0  0  0  0  0  0  0  0  0  0
    0.7024    1.3094    2.0137 H   0  0  0  0  0  0  0  0  0  0  0  0
   -0.0451    3.3046    1.9929 C   0  0  0  0  0  0  0  0  0  0  0  0
   -1.0415    3.5286    2.3805 H   0  0  0  0  0  0  0  0  0  0  0  0
    0.6954    3.5023    2.7695 H   0  0  0  0  0  0  0  0  0  0  0  0
    0.1474    3.9536    1.1372 H   0  0  0  0  0  0  0  0  0  0  0  0
  5  6  2  0  0  0  0
  5  7  1  0  0  0  0
  2  3  1  0  0  0  0
  2  4  1  0  0  0  0
  2  5  1  0  0  0  0
  1  2  1  0  0  0  0
 24 25  2  0  0  0  0
 24 26  1  0  0  0  0
 20 21  1  0  0  0  0
 20 22  1  0  0  0  0
 20 23  1  0  0  0  0
 16 17  1  0  0  0  0
 16 18  1  0  0  0  0
 16 19  1  0  0  0  0
 14 15  1  0  0  0  0
 14 16  1  0  0  0  0
 14 20  1  0  0  0  0
 11 12  1  0  0  0  0
 11 13  1  0  0  0  0
 11 14  1  0  0  0  0
  9 10  1  0  0  0  0
  9 11  1  0  0  0  0
  9 24  1  0  0  0  0
  7  8  1  0  0  0  0
  7  9  1  0  0  0  0
 28 29  1  0  0  0  0
 28 30  1  0  0  0  0
 28 31  1  0  0  0  0
 26 27  1  0  0  0  0
 26 28  1  0  0  0  0
M  END
$$$$
default_name
  -OEChem-02102213163D

 31 30  0     1  0  0  0  0  0999 V2000
   -3.5895   -3.5013    1.1082 H   0  0  0  0  0  0  0  0  0  0  0  0
   -3.5145   -2.5363    0.6082 C   0  0  0  0  0  0  0  0  0  0  0  0
   -4.2285   -1.8413    1.0452 H   0  0  0  0  0  0  0  0  0  0  0  0
   -3.7155   -2.6583   -0.4538 H   0  0  0  0  0  0  0  0  0  0  0  0
   -2.1155   -1.9963    0.7922 C   0  0  0  0  0  0  0  0  0  0  0  0
   -1.2875   -2.6383    1.4252 O   0  0  0  0  0  0  0  0  0  0  0  0
   -1.8575   -0.8123    0.2402 N   0  0  0  0  0  0  0  0  0  0  0  0
   -2.6005   -0.3333   -0.2478 H   0  0  0  0  0  0  0  0  0  0  0  0
   -0.5675   -0.1203    0.3102 C   0  0  1  0  0  0  0  0  0  0  0  0
    0.0191   -0.5718    1.1110 H   0  0  0  0  0  0  0  0  0  0  0  0
    0.1724   -0.3238   -1.0286 C   0  0  0  0  0  0  0  0  0  0  0  0
   -0.3374   -1.1070   -1.5931 H   0  0  0  0  0  0  0  0  0  0  0  0
    0.0929    0.6023   -1.6021 H   0  0  0  0  0  0  0  0  0  0  0  0
    1.6631   -0.6939   -0.9203 C   0  0  0  0  0  0  0  0  0  0  0  0
    2.1970   -0.3321   -1.7990 H   0  0  0  0  0  0  0  0  0  0  0  0
    2.3156   -0.1080    0.3352 C   0  0  0  0  0  0  0  0  0  0  0  0
    1.7818   -0.4485    1.2235 H   0  0  0  0  0  0  0  0  0  0  0  0
    3.3538   -0.4351    0.3960 H   0  0  0  0  0  0  0  0  0  0  0  0
    2.2985    0.9793    0.3054 H   0  0  0  0  0  0  0  0  0  0  0  0
    1.8152   -2.2136   -0.8668 C   0  0  0  0  0  0  0  0  0  0  0  0
    1.3868   -2.6568   -1.7657 H   0  0  0  0  0  0  0  0  0  0  0  0
    2.8712   -2.4789   -0.8179 H   0  0  0  0  0  0  0  0  0  0  0  0
    1.3031   -2.6117    0.0100 H   0  0  0  0  0  0  0  0  0  0  0  0
   -0.7793    1.3659    0.6455 C   0  0  0  0  0  0  0  0  0  0  0  0
   -1.6464    2.0125    0.0623 O   0  0  0  0  0  0  0  0  0  0  0  0
    0.0189    1.9059    1.5756 N   0  0  0  0  0  0  0  0  0  0  0  0
    0.7024    1.3094    2.0137 H   0  0  0  0  0  0  0  0  0  0  0  0
   -0.0451    3.3046    1.9929 C   0  0  0  0  0  0  0  0  0  0  0  0
   -1.0415    3.5286    2.3805 H   0  0  0  0  0  0  0  0  0  0  0  0
    0.6954    3.5023    2.7695 H   0  0  0  0  0  0  0  0  0  0  0  0
    0.1474    3.9536    1.1372 H   0  0  0  0  0  0  0  0  0  0  0  0
  5  6  2  0  0  0  0
  5  7  1  0  0  0  0
  2  3  1  0  0  0  0
  2  4  1  0  0  0  0
  2  5  1  0  0  0  0
  1  2  1  0  0  0  0
 24 25  2  0  0  0  0
 24 26  1  0  0  0  0
 20 21  1  0  0  0  0
 20 22  1  0  0  0  0
 20 23  1  0  0  0  0
 16 17  1  0  0  0  0
 16 18  1  0  0  0  0
 16 19  1  0  0  0  0
 14 15  1  0  0  0  0
 14 16  1  0  0  0  0
 14 20  1  0  0  0  0
 11 12  1  0  0  0  0
 11 13  1  0  0  0  0
 11 14  1  0  0  0  0
  9 10  1  0  0  0  0
  9 11  1  0  0  0  0
  9 24  1  0  0  0  0
  7  8  1  0  0  0  0
  7  9  1  0  0  0  0
 28 29  1  0  0  0  0
 28 30  1  0  0  0  0
 28 31  1  0  0  0  0
 26 27  1  0  0  0  0
 26 28  1  0  0  0  0
M  END
$$$$
default_name
  -OEChem-02102213163D

 31 30  0     1  0  0  0  0  0999 V2000
   -3.5895   -3.5013    1.1082 H   0  0  0  0  0  0  0  0  0  0  0  0
   -3.5145   -2.5363    0.6082 C   0  0  0  0  0  0  0  0  0  0  0  0
   -4.2285   -1.8413    1.0452 H   0  0  0  0  0  0  0  0  0  0  0  0
   -3.7155   -2.6583   -0.4538 H   0  0  0  0  0  0  0  0  0  0  0  0
   -2.1155   -1.9963    0.7922 C   0  0  0  0  0  0  0  0  0  0  0  0
   -1.2875   -2.6383    1.4252 O   0  0  0  0  0  0  0  0  0  0  0  0
   -1.8575   -0.8123    0.2402 N   0  0  0  0  0  0  0  0  0  0  0  0
   -2.6005   -0.3333   -0.2478 H   0  0  0  0  0  0  0  0  0  0  0  0
   -0.5675   -0.1203    0.3102 C   0  0  1  0  0  0  0  0  0  0  0  0
    0.0191   -0.5718    1.1110 H   0  0  0  0  0  0  0  0  0  0  0  0
    0.1724   -0.3238   -1.0286 C   0  0  0  0  0  0  0  0  0  0  0  0
   -0.3374   -1.1070   -1.5931 H   0  0  0  0  0  0  0  0  0  0  0  0
    0.0929    0.6023   -1.6021 H   0  0  0  0  0  0  0  0  0  0  0  0
    1.6631   -0.6939   -0.9203 C   0  0  0  0  0  0  0  0  0  0  0  0
    2.2390   -0.1175   -1.6443 H   0  0  0  0  0  0  0  0  0  0  0  0
    2.2237   -0.4355    0.4812 C   0  0  0  0  0  0  0  0  0  0  0  0
    1.6467   -0.9936    1.2198 H   0  0  0  0  0  0  0  0  0  0  0  0
    3.2646   -0.7566    0.5252 H   0  0  0  0  0  0  0  0  0  0  0  0
    2.1800    0.6243    0.7231 H   0  0  0  0  0  0  0  0  0  0  0  0
    1.8514   -2.1766   -1.2387 C   0  0  0  0  0  0  0  0  0  0  0  0
    1.4894   -2.3843   -2.2455 H   0  0  0  0  0  0  0  0  0  0  0  0
    2.9092   -2.4349   -1.1897 H   0  0  0  0  0  0  0  0  0  0  0  0
    1.2983   -2.7874   -0.5242 H   0  0  0  0  0  0  0  0  0  0  0  0
   -0.7793    1.3659    0.6455 C   0  0  0  0  0  0  0  0  0  0  0  0
   -1.6464    2.0125    0.0623 O   0  0  0  0  0  0  0  0  0  0  0  0
    0.0189    1.9059    1.5756 N   0  0  0  0  0  0  0  0  0  0  0  0
    0.7024    1.3094    2.0137 H   0  0  0  0  0  0  0  0  0  0  0  0
   -0.0451    3.3046    1.9929 C   0  0  0  0  0  0  0  0  0  0  0  0
   -1.0415    3.5286    2.3805 H   0  0  0  0  0  0  0  0  0  0  0  0
    0.6954    3.5023    2.7695 H   0  0  0  0  0  0  0  0  0  0  0  0
    0.1474    3.9536    1.1372 H   0  0  0  0  0  0  0  0  0  0  0  0
  5  6  2  0  0  0  0
  5  7  1  0  0  0  0
  2  3  1  0  0  0  0
  2  4  1  0  0  0  0
  2  5  1  0  0  0  0
  1  2  1  0  0  0  0
 24 25  2  0  0  0  0
 24 26  1  0  0  0  0
 20 21  1  0  0  0  0
 20 22  1  0  0  0  0
 20 23  1  0  0  0  0
 16 17  1  0  0  0  0
 16 18  1  0  0  0  0
 16 19  1  0  0  0  0
 14 15  1  0  0  0  0
 14 16  1  0  0  0  0
 14 20  1  0  0  0  0
 11 12  1  0  0  0  0
 11 13  1  0  0  0  0
 11 14  1  0  0  0  0
  9 10  1  0  0  0  0
  9 11  1  0  0  0  0
  9 24  1  0  0  0  0
  7  8  1  0  0  0  0
  7  9  1  0  0  0  0
 28 29  1  0  0  0  0
 28 30  1  0  0  0  0
 28 31  1  0  0  0  0
 26 27  1  0  0  0  0
 26 28  1  0  0  0  0
M  END
$$$$
default_name
  -OEChem-02102213163D

 31 30  0     1  0  0  0  0  0999 V2000
   -3.5895   -3.5013    1.1082 H   0  0  0  0  0  0  0  0  0  0  0  0
   -3.5145   -2.5363    0.6082 C   0  0  0  0  0  0  0  0  0  0  0  0
   -4.2285   -1.8413    1.0452 H   0  0  0  0  0  0  0  0  0  0  0  0
   -3.7155   -2.6583   -0.4538 H   0  0  0  0  0  0  0  0  0  0  0  0
   -2.1155   -1.9963    0.7922 C   0  0  0  0  0  0  0  0  0  0  0  0
   -1.2875   -2.6383    1.4252 O   0  0  0  0  0  0  0  0  0  0  0  0
   -1.8575   -0.8123    0.2402 N   0  0  0  0  0  0  0  0  0  0  0  0
   -2.6005   -0.3333   -0.2478 H   0  0  0  0  0  0  0  0  0  0  0  0
   -0.5675   -0.1203    0.3102 C   0  0  1  0  0  0  0  0  0  0  0  0
    0.0191   -0.5718    1.1110 H   0  0  0  0  0  0  0  0  0  0  0  0
    0.1724   -0.3238   -1.0286 C   0  0  0  0  0  0  0  0  0  0  0  0
   -0.3374   -1.1070   -1.5931 H   0  0  0  0  0  0  0  0  0  0  0  0
    0.0929    0.6023   -1.6021 H   0  0  0  0  0  0  0  0  0  0  0  0
    1.6631   -0.6939   -0.9203 C   0  0  0  0  0  0  0  0  0  0  0  0
    2.2661    0.0518   -1.4385 H   0  0  0  0  0  0  0  0  0  0  0  0
    2.1318   -0.7900    0.5345 C   0  0  0  0  0  0  0  0  0  0  0  0
    1.5264   -1.5216    1.0713 H   0  0  0  0  0  0  0  0  0  0  0  0
    3.1763   -1.1011    0.5638 H   0  0  0  0  0  0  0  0  0  0  0  0
    2.0460    0.1745    1.0303 H   0  0  0  0  0  0  0  0  0  0  0  0
    1.9088   -2.0471   -1.5864 C   0  0  0  0  0  0  0  0  0  0  0  0
    1.6133   -1.9990   -2.6344 H   0  0  0  0  0  0  0  0  0  0  0  0
    2.9682   -2.2985   -1.5354 H   0  0  0  0  0  0  0  0  0  0  0  0
    1.3301   -2.8234   -1.0846 H   0  0  0  0  0  0  0  0  0  0  0  0
   -0.7793    1.3659    0.6455 C   0  0  0  0  0  0  0  0  0  0  0  0
   -1.6464    2.0125    0.0623 O   0  0  0  0  0  0  0  0  0  0  0  0
    0.0189    1.9059    1.5756 N   0  0  0  0  0  0  0  0  0  0  0  0
    0.7024    1.3094    2.0137 H   0  0  0  0  0  0  0  0  0  0  0  0
   -0.0451    3.3046    1.9929 C   0  0  0  0  0  0  0  0  0  0  0  0
   -1.0415    3.5286    2.3805 H   0  0  0  0  0  0  0  0  0  0  0  0
    0.6954    3.5023    2.7695 H   0  0  0  0  0  0  0  0  0  0  0  0
    0.1474    3.9536    1.1372 H   0  0  0  0  0  0  0  0  0  0  0  0
  5  6  2  0  0  0  0
  5  7  1  0  0  0  0
  2  3  1  0  0  0  0
  2  4  1  0  0  0  0
  2  5  1  0  0  0  0
  1  2  1  0  0  0  0
 24 25  2  0  0  0  0
 24 26  1  0  0  0  0
 20 21  1  0  0  0  0
 20 22  1  0  0  0  0
 20 23  1  0  0  0  0
 16 17  1  0  0  0  0
 16 18  1  0  0  0  0
 16 19  1  0  0  0  0
 14 15  1  0  0  0  0
 14 16  1  0  0  0  0
 14 20  1  0  0  0  0
 11 12  1  0  0  0  0
 11 13  1  0  0  0  0
 11 14  1  0  0  0  0
  9 10  1  0  0  0  0
  9 11  1  0  0  0  0
  9 24  1  0  0  0  0
  7  8  1  0  0  0  0
  7  9  1  0  0  0  0
 28 29  1  0  0  0  0
 28 30  1  0  0  0  0
 28 31  1  0  0  0  0
 26 27  1  0  0  0  0
 26 28  1  0  0  0  0
M  END
$$$$
default_name
  -OEChem-02102213163D

 31 30  0     1  0  0  0  0  0999 V2000
   -3.5895   -3.5013    1.1082 H   0  0  0  0  0  0  0  0  0  0  0  0
   -3.5145   -2.5363    0.6082 C   0  0  0  0  0  0  0  0  0  0  0  0
   -4.2285   -1.8413    1.0452 H   0  0  0  0  0  0  0  0  0  0  0  0
   -3.7155   -2.6583   -0.4538 H   0  0  0  0  0  0  0  0  0  0  0  0
   -2.1155   -1.9963    0.7922 C   0  0  0  0  0  0  0  0  0  0  0  0
   -1.2875   -2.6383    1.4252 O   0  0  0  0  0  0  0  0  0  0  0  0
   -1.8575   -0.8123    0.2402 N   0  0  0  0  0  0  0  0  0  0  0  0
   -2.6005   -0.3333   -0.2478 H   0  0  0  0  0  0  0  0  0  0  0  0
   -0.5675   -0.1203    0.3102 C   0  0  1  0  0  0  0  0  0  0  0  0
    0.0191   -0.5718    1.1110 H   0  0  0  0  0  0  0  0  0  0  0  0
    0.1724   -0.3238   -1.0286 C   0  0  0  0  0  0  0  0  0  0  0  0
   -0.3374   -1.1070   -1.5931 H   0  0  0  0  0  0  0  0  0  0  0  0
    0.0929    0.6023   -1.6021 H   0  0  0  0  0  0  0  0  0  0  0  0
    1.6631   -0.6939   -0.9203 C   0  0  0  0  0  0  0  0  0  0  0  0
    2.2763    0.1642   -1.1956 H   0  0  0  0  0  0  0  0  0  0  0  0
    2.0462   -1.1474    0.4914 C   0  0  0  0  0  0  0  0  0  0  0  0
    1.4291   -1.9966    0.7880 H   0  0  0  0  0  0  0  0  0  0  0  0
    3.0949   -1.4452    0.5093 H   0  0  0  0  0  0  0  0  0  0  0  0
    1.9057   -0.3393    1.2059 H   0  0  0  0  0  0  0  0  0  0  0  0
    1.9835   -1.8339   -1.8863 C   0  0  0  0  0  0  0  0  0  0  0  0
    1.7501   -1.5271   -2.9058 H   0  0  0  0  0  0  0  0  0  0  0  0
    3.0442   -2.0791   -1.8315 H   0  0  0  0  0  0  0  0  0  0  0  0
    1.3963   -2.7172   -1.6329 H   0  0  0  0  0  0  0  0  0  0  0  0
   -0.7793    1.3659    0.6455 C   0  0  0  0  0  0  0  0  0  0  0  0
   -1.6464    2.0125    0.0623 O   0  0  0  0  0  0  0  0  0  0  0  0
    0.0189    1.9059    1.5756 N   0  0  0  0  0  0  0  0  0  0  0  0
    0.7024    1.3094    2.0137 H   0  0  0  0  0  0  0  0  0  0  0  0
   -0.0451    3.3046    1.9929 C   0  0  0  0  0  0  0  0  0  0  0  0
   -1.0415    3.5286    2.3805 H   0  0  0  0  0  0  0  0  0  0  0  0
    0.6954    3.5023    2.7695 H   0  0  0  0  0  0  0  0  0  0  0  0
    0.1474    3.9536    1.1372 H   0  0  0  0  0  0  0  0  0  0  0  0
  5  6  2  0  0  0  0
  5  7  1  0  0  0  0
  2  3  1  0  0  0  0
  2  4  1  0  0  0  0
  2  5  1  0  0  0  0
  1  2  1  0  0  0  0
 24 25  2  0  0  0  0
 24 26  1  0  0  0  0
 20 21  1  0  0  0  0
 20 22  1  0  0  0  0
 20 23  1  0  0  0  0
 16 17  1  0  0  0  0
 16 18  1  0  0  0  0
 16 19  1  0  0  0  0
 14 15  1  0  0  0  0
 14 16  1  0  0  0  0
 14 20  1  0  0  0  0
 11 12  1  0  0  0  0
 11 13  1  0  0  0  0
 11 14  1  0  0  0  0
  9 10  1  0  0  0  0
  9 11  1  0  0  0  0
  9 24  1  0  0  0  0
  7  8  1  0  0  0  0
  7  9  1  0  0  0  0
 28 29  1  0  0  0  0
 28 30  1  0  0  0  0
 28 31  1  0  0  0  0
 26 27  1  0  0  0  0
 26 28  1  0  0  0  0
M  END
$$$$
default_name
  -OEChem-02102213163D

 31 30  0     1  0  0  0  0  0999 V2000
   -3.5895   -3.5013    1.1082 H   0  0  0  0  0  0  0  0  0  0  0  0
   -3.5145   -2.5363    0.6082 C   0  0  0  0  0  0  0  0  0  0  0  0
   -4.2285   -1.8413    1.0452 H   0  0  0  0  0  0  0  0  0  0  0  0
   -3.7155   -2.6583   -0.4538 H   0  0  0  0  0  0  0  0  0  0  0  0
   -2.1155   -1.9963    0.7922 C   0  0  0  0  0  0  0  0  0  0  0  0
   -1.2875   -2.6383    1.4252 O   0  0  0  0  0  0  0  0  0  0  0  0
   -1.8575   -0.8123    0.2402 N   0  0  0  0  0  0  0  0  0  0  0  0
   -2.6005   -0.3333   -0.2478 H   0  0  0  0  0  0  0  0  0  0  0  0
   -0.5675   -0.1203    0.3102 C   0  0  1  0  0  0  0  0  0  0  0  0
    0.0191   -0.5718    1.1110 H   0  0  0  0  0  0  0  0  0  0  0  0
    0.1724   -0.3238   -1.0286 C   0  0  0  0  0  0  0  0  0  0  0  0
   -0.3374   -1.1070   -1.5931 H   0  0  0  0  0  0  0  0  0  0  0  0
    0.0929    0.6023   -1.6021 H   0  0  0  0  0  0  0  0  0  0  0  0
    1.6631   -0.6939   -0.9203 C   0  0  0  0  0  0  0  0  0  0  0  0
    2.2691    0.2121   -0.9322 H   0  0  0  0  0  0  0  0  0  0  0  0
    1.9727   -1.4834    0.3549 C   0  0  0  0  0  0  0  0  0  0  0  0
    1.3614   -2.3862    0.3893 H   0  0  0  0  0  0  0  0  0  0  0  0
    3.0258   -1.7654    0.3654 H   0  0  0  0  0  0  0  0  0  0  0  0
    1.7686   -0.8821    1.2382 H   0  0  0  0  0  0  0  0  0  0  0  0
    2.0705   -1.5513   -2.1178 C   0  0  0  0  0  0  0  0  0  0  0  0
    1.8906   -1.0008   -3.0412 H   0  0  0  0  0  0  0  0  0  0  0  0
    3.1320   -1.7916   -2.0578 H   0  0  0  0  0  0  0  0  0  0  0  0
    1.4925   -2.4760   -2.1318 H   0  0  0  0  0  0  0  0  0  0  0  0
   -0.7793    1.3659    0.6455 C   0  0  0  0  0  0  0  0  0  0  0  0
   -1.6464    2.0125    0.0623 O   0  0  0  0  0  0  0  0  0  0  0  0
    0.0189    1.9059    1.5756 N   0  0  0  0  0  0  0  0  0  0  0  0
    0.7024    1.3094    2.0137 H   0  0  0  0  0  0  0  0  0  0  0  0
   -0.0451    3.3046    1.9929 C   0  0  0  0  0  0  0  0  0  0  0  0
   -1.0415    3.5286    2.3805 H   0  0  0  0  0  0  0  0  0  0  0  0
    0.6954    3.5023    2.7695 H   0  0  0  0  0  0  0  0  0  0  0  0
    0.1474    3.9536    1.1372 H   0  0  0  0  0  0  0  0  0  0  0  0
  5  6  2  0  0  0  0
  5  7  1  0  0  0  0
  2  3  1  0  0  0  0
  2  4  1  0  0  0  0
  2  5  1  0  0  0  0
  1  2  1  0  0  0  0
 24 25  2  0  0  0  0
 24 26  1  0  0  0  0
 20 21  1  0  0  0  0
 20 22  1  0  0  0  0
 20 23  1  0  0  0  0
 16 17  1  0  0  0  0
 16 18  1  0  0  0  0
 16 19  1  0  0  0  0
 14 15  1  0  0  0  0
 14 16  1  0  0  0  0
 14 20  1  0  0  0  0
 11 12  1  0  0  0  0
 11 13  1  0  0  0  0
 11 14  1  0  0  0  0
  9 10  1  0  0  0  0
  9 11  1  0  0  0  0
  9 24  1  0  0  0  0
  7  8  1  0  0  0  0
  7  9  1  0  0  0  0
 28 29  1  0  0  0  0
 28 30  1  0  0  0  0
 28 31  1  0  0  0  0
 26 27  1  0  0  0  0
 26 28  1  0  0  0  0
M  END
$$$$
default_name
  -OEChem-02102213163D

 31 30  0     1  0  0  0  0  0999 V2000
   -3.5895   -3.5013    1.1082 H   0  0  0  0  0  0  0  0  0  0  0  0
   -3.5145   -2.5363    0.6082 C   0  0  0  0  0  0  0  0  0  0  0  0
   -4.2285   -1.8413    1.0452 H   0  0  0  0  0  0  0  0  0  0  0  0
   -3.7155   -2.6583   -0.4538 H   0  0  0  0  0  0  0  0  0  0  0  0
   -2.1155   -1.9963    0.7922 C   0  0  0  0  0  0  0  0  0  0  0  0
   -1.2875   -2.6383    1.4252 O   0  0  0  0  0  0  0  0  0  0  0  0
   -1.8575   -0.8123    0.2402 N   0  0  0  0  0  0  0  0  0  0  0  0
   -2.6005   -0.3333   -0.2478 H   0  0  0  0  0  0  0  0  0  0  0  0
   -0.5675   -0.1203    0.3102 C   0  0  1  0  0  0  0  0  0  0  0  0
    0.0191   -0.5718    1.1110 H   0  0  0  0  0  0  0  0  0  0  0  0
    0.1724   -0.3238   -1.0286 C   0  0  0  0  0  0  0  0  0  0  0  0
   -0.3374   -1.1070   -1.5931 H   0  0  0  0  0  0  0  0  0  0  0  0
    0.0929    0.6023   -1.6021 H   0  0  0  0  0  0  0  0  0  0  0  0
    1.6631   -0.6939   -0.9203 C   0  0  0  0  0  0  0  0  0  0  0  0
    2.2448    0.1922   -0.6662 H   0  0  0  0  0  0  0  0  0  0  0  0
    1.9164   -1.7752    0.1342 C   0  0  0  0  0  0  0  0  0  0  0  0
    1.3278   -2.6639   -0.0977 H   0  0  0  0  0  0  0  0  0  0  0  0
    2.9739   -2.0399    0.1419 H   0  0  0  0  0  0  0  0  0  0  0  0
    1.6441   -1.4171    1.1247 H   0  0  0  0  0  0  0  0  0  0  0  0
    2.1638   -1.2189   -2.2653 C   0  0  0  0  0  0  0  0  0  0  0  0
    2.0252   -0.4559   -3.0313 H   0  0  0  0  0  0  0  0  0  0  0  0
    3.2257   -1.4555   -2.1988 H   0  0  0  0  0  0  0  0  0  0  0  0
    1.6120   -2.1163   -2.5472 H   0  0  0  0  0  0  0  0  0  0  0  0
   -0.7793    1.3659    0.6455 C   0  0  0  0  0  0  0  0  0  0  0  0
   -1.6464    2.0125    0.0623 O   0  0  0  0  0  0  0  0  0  0  0  0
    0.0189    1.9059    1.5756 N   0  0  0  0  0  0  0  0  0  0  0  0
    0.7024    1.3094    2.0137 H   0  0  0  0  0  0  0  0  0  0  0  0
   -0.0451    3.3046    1.9929 C   0  0  0  0  0  0  0  0  0  0  0  0
   -1.0415    3.5286    2.3805 H   0  0  0  0  0  0  0  0  0  0  0  0
    0.6954    3.5023    2.7695 H   0  0  0  0  0  0  0  0  0  0  0  0
    0.1474    3.9536    1.1372 H   0  0  0  0  0  0  0  0  0  0  0  0
  5  6  2  0  0  0  0
  5  7  1  0  0  0  0
  2  3  1  0  0  0  0
  2  4  1  0  0  0  0
  2  5  1  0  0  0  0
  1  2  1  0  0  0  0
 24 25  2  0  0  0  0
 24 26  1  0  0  0  0
 20 21  1  0  0  0  0
 20 22  1  0  0  0  0
 20 23  1  0  0  0  0
 16 17  1  0  0  0  0
 16 18  1  0  0  0  0
 16 19  1  0  0  0  0
 14 15  1  0  0  0  0
 14 16  1  0  0  0  0
 14 20  1  0  0  0  0
 11 12  1  0  0  0  0
 11 13  1  0  0  0  0
 11 14  1  0  0  0  0
  9 10  1  0  0  0  0
  9 11  1  0  0  0  0
  9 24  1  0  0  0  0
  7  8  1  0  0  0  0
  7  9  1  0  0  0  0
 28 29  1  0  0  0  0
 28 30  1  0  0  0  0
 28 31  1  0  0  0  0
 26 27  1  0  0  0  0
 26 28  1  0  0  0  0
M  END
$$$$
default_name
  -OEChem-02102213163D

 31 30  0     1  0  0  0  0  0999 V2000
   -3.5895   -3.5013    1.1082 H   0  0  0  0  0  0  0  0  0  0  0  0
   -3.5145   -2.5363    0.6082 C   0  0  0  0  0  0  0  0  0  0  0  0
   -4.2285   -1.8413    1.0452 H   0  0  0  0  0  0  0  0  0  0  0  0
   -3.7155   -2.6583   -0.4538 H   0  0  0  0  0  0  0  0  0  0  0  0
   -2.1155   -1.9963    0.7922 C   0  0  0  0  0  0  0  0  0  0  0  0
   -1.2875   -2.6383    1.4252 O   0  0  0  0  0  0  0  0  0  0  0  0
   -1.8575   -0.8123    0.2402 N   0  0  0  0  0  0  0  0  0  0  0  0
   -2.6005   -0.3333   -0.2478 H   0  0  0  0  0  0  0  0  0  0  0  0
   -0.5675   -0.1203    0.3102 C   0  0  1  0  0  0  0  0  0  0  0  0
    0.0191   -0.5718    1.1110 H   0  0  0  0  0  0  0  0  0  0  0  0
    0.1724   -0.3238   -1.0286 C   0  0  0  0  0  0  0  0  0  0  0  0
   -0.3374   -1.1070   -1.5931 H   0  0  0  0  0  0  0  0  0  0  0  0
    0.0929    0.6023   -1.6021 H   0  0  0  0  0  0  0  0  0  0  0  0
    1.6631   -0.6939   -0.9203 C   0  0  0  0  0  0  0  0  0  0  0  0
    2.2052    0.1059   -0.4157 H   0  0  0  0  0  0  0  0  0  0  0  0
    1.8809   -2.0027   -0.1555 C   0  0  0  0  0  0  0  0  0  0  0  0
    1.3308   -2.8107   -0.6397 H   0  0  0  0  0  0  0  0  0  0  0  0
    2.9427   -2.2500   -0.1460 H   0  0  0  0  0  0  0  0  0  0  0  0
    1.5405   -1.9077    0.8734 H   0  0  0  0  0  0  0  0  0  0  0  0
    2.2570   -0.8591   -2.3186 C   0  0  0  0  0  0  0  0  0  0  0  0
    2.1446    0.0703   -2.8769 H   0  0  0  0  0  0  0  0  0  0  0  0
    3.3188   -1.0939   -2.2451 H   0  0  0  0  0  0  0  0  0  0  0  0
    1.7467   -1.6626   -2.8509 H   0  0  0  0  0  0  0  0  0  0  0  0
   -0.7793    1.3659    0.6455 C   0  0  0  0  0  0  0  0  0  0  0  0
   -1.6464    2.0125    0.0623 O   0  0  0  0  0  0  0  0  0  0  0  0
    0.0189    1.9059    1.5756 N   0  0  0  0  0  0  0  0  0  0  0  0
    0.7024    1.3094    2.0137 H   0  0  0  0  0  0  0  0  0  0  0  0
   -0.0451    3.3046    1.9929 C   0  0  0  0  0  0  0  0  0  0  0  0
   -1.0415    3.5286    2.3805 H   0  0  0  0  0  0  0  0  0  0  0  0
    0.6954    3.5023    2.7695 H   0  0  0  0  0  0  0  0  0  0  0  0
    0.1474    3.9536    1.1372 H   0  0  0  0  0  0  0  0  0  0  0  0
  5  6  2  0  0  0  0
  5  7  1  0  0  0  0
  2  3  1  0  0  0  0
  2  4  1  0  0  0  0
  2  5  1  0  0  0  0
  1  2  1  0  0  0  0
 24 25  2  0  0  0  0
 24 26  1  0  0  0  0
 20 21  1  0  0  0  0
 20 22  1  0  0  0  0
 20 23  1  0  0  0  0
 16 17  1  0  0  0  0
 16 18  1  0  0  0  0
 16 19  1  0  0  0  0
 14 15  1  0  0  0  0
 14 16  1  0  0  0  0
 14 20  1  0  0  0  0
 11 12  1  0  0  0  0
 11 13  1  0  0  0  0
 11 14  1  0  0  0  0
  9 10  1  0  0  0  0
  9 11  1  0  0  0  0
  9 24  1  0  0  0  0
  7  8  1  0  0  0  0
  7  9  1  0  0  0  0
 28 29  1  0  0  0  0
 28 30  1  0  0  0  0
 28 31  1  0  0  0  0
 26 27  1  0  0  0  0
 26 28  1  0  0  0  0
M  END
$$$$
default_name
  -OEChem-02102213163D

 31 30  0     1  0  0  0  0  0999 V2000
   -3.5895   -3.5013    1.1082 H   0  0  0  0  0  0  0  0  0  0  0  0
   -3.5145   -2.5363    0.6082 C   0  0  0  0  0  0  0  0  0  0  0  0
   -4.2285   -1.8413    1.0452 H   0  0  0  0  0  0  0  0  0  0  0  0
   -3.7155   -2.6583   -0.4538 H   0  0  0  0  0  0  0  0  0  0  0  0
   -2.1155   -1.9963    0.7922 C   0  0  0  0  0  0  0  0  0  0  0  0
   -1.2875   -2.6383    1.4252 O   0  0  0  0  0  0  0  0  0  0  0  0
   -1.8575   -0.8123    0.2402 N   0  0  0  0  0  0  0  0  0  0  0  0
   -2.6005   -0.3333   -0.2478 H   0  0  0  0  0  0  0  0  0  0  0  0
   -0.5675   -0.1203    0.3102 C   0  0  1  0  0  0  0  0  0  0  0  0
    0.0191   -0.5718    1.1110 H   0  0  0  0  0  0  0  0  0  0  0  0
    0.1724   -0.3238   -1.0286 C   0  0  0  0  0  0  0  0  0  0  0  0
   -0.3374   -1.1070   -1.5931 H   0  0  0  0  0  0  0  0  0  0  0  0
    0.0929    0.6023   -1.6021 H   0  0  0  0  0  0  0  0  0  0  0  0
    1.6631   -0.6939   -0.9203 C   0  0  0  0  0  0  0  0  0  0  0  0
    2.1529   -0.0409   -0.1979 H   0  0  0  0  0  0  0  0  0  0  0  0
    1.8689   -2.1505   -0.4946 C   0  0  0  0  0  0  0  0  0  0  0  0
    1.3700   -2.8166   -1.1998 H   0  0  0  0  0  0  0  0  0  0  0  0
    2.9343   -2.3813   -0.4787 H   0  0  0  0  0  0  0  0  0  0  0  0
    1.4651   -2.3204    0.5012 H   0  0  0  0  0  0  0  0  0  0  0  0
    2.3437   -0.4964   -2.2742 C   0  0  0  0  0  0  0  0  0  0  0  0
    2.2407    0.5421   -2.5884 H   0  0  0  0  0  0  0  0  0  0  0  0
    3.4050   -0.7313   -2.1933 H   0  0  0  0  0  0  0  0  0  0  0  0
    1.8874   -1.1457   -3.0223 H   0  0  0  0  0  0  0  0  0  0  0  0
   -0.7793    1.3659    0.6455 C   0  0  0  0  0  0  0  0  0  0  0  0
   -1.6464    2.0125    0.0623 O   0  0  0  0  0  0  0  0  0  0  0  0
    0.0189    1.9059    1.5756 N   0  0  0  0  0  0  0  0  0  0  0  0
    0.7024    1.3094    2.0137 H   0  0  0  0  0  0  0  0  0  0  0  0
   -0.0451    3.3046    1.9929 C   0  0  0  0  0  0  0  0  0  0  0  0
   -1.0415    3.5286    2.3805 H   0  0  0  0  0  0  0  0  0  0  0  0
    0.6954    3.5023    2.7695 H   0  0  0  0  0  0  0  0  0  0  0  0
    0.1474    3.9536    1.1372 H   0  0  0  0  0  0  0  0  0  0  0  0
  5  6  2  0  0  0  0
  5  7  1  0  0  0  0
  2  3  1  0  0  0  0
  2  4  1  0  0  0  0
  2  5  1  0  0  0  0
  1  2  1  0  0  0  0
 24 25  2  0  0  0  0
 24 26  1  0  0  0  0
 20 21  1  0  0  0  0
 20 22  1  0  0  0  0
 20 23  1  0  0  0  0
 16 17  1  0  0  0  0
 16 18  1  0  0  0  0
 16 19  1  0  0  0  0
 14 15  1  0  0  0  0
 14 16  1  0  0  0  0
 14 20  1  0  0  0  0
 11 12  1  0  0  0  0
 11 13  1  0  0  0  0
 11 14  1  0  0  0  0
  9 10  1  0  0  0  0
  9 11  1  0  0  0  0
  9 24  1  0  0  0  0
  7  8  1  0  0  0  0
  7  9  1  0  0  0  0
 28 29  1  0  0  0  0
 28 30  1  0  0  0  0
 28 31  1  0  0  0  0
 26 27  1  0  0  0  0
 26 28  1  0  0  0  0
M  END
$$$$
default_name
  -OEChem-02102213163D

 31 30  0     1  0  0  0  0  0999 V2000
   -3.5895   -3.5013    1.1082 H   0  0  0  0  0  0  0  0  0  0  0  0
   -3.5145   -2.5363    0.6082 C   0  0  0  0  0  0  0  0  0  0  0  0
   -4.2285   -1.8413    1.0452 H   0  0  0  0  0  0  0  0  0  0  0  0
   -3.7155   -2.6583   -0.4538 H   0  0  0  0  0  0  0  0  0  0  0  0
   -2.1155   -1.9963    0.7922 C   0  0  0  0  0  0  0  0  0  0  0  0
   -1.2875   -2.6383    1.4252 O   0  0  0  0  0  0  0  0  0  0  0  0
   -1.8575   -0.8123    0.2402 N   0  0  0  0  0  0  0  0  0  0  0  0
   -2.6005   -0.3333   -0.2478 H   0  0  0  0  0  0  0  0  0  0  0  0
   -0.5675   -0.1203    0.3102 C   0  0  1  0  0  0  0  0  0  0  0  0
    0.0191   -0.5718    1.1110 H   0  0  0  0  0  0  0  0  0  0  0  0
    0.1724   -0.3238   -1.0286 C   0  0  0  0  0  0  0  0  0  0  0  0
   -0.3374   -1.1070   -1.5931 H   0  0  0  0  0  0  0  0  0  0  0  0
    0.0929    0.6023   -1.6021 H   0  0  0  0  0  0  0  0  0  0  0  0
    1.6631   -0.6939   -0.9203 C   0  0  0  0  0  0  0  0  0  0  0  0
    2.0915   -0.2382   -0.0276 H   0  0  0  0  0  0  0  0  0  0  0  0
    1.8810   -2.2085   -0.8599 C   0  0  0  0  0  0  0  0  0  0  0  0
    1.4429   -2.6813   -1.7399 H   0  0  0  0  0  0  0  0  0  0  0  0
    2.9493   -2.4249   -0.8335 H   0  0  0  0  0  0  0  0  0  0  0  0
    1.4230   -2.6272    0.0336 H   0  0  0  0  0  0  0  0  0  0  0  0
    2.4182   -0.1557   -2.1350 C   0  0  0  0  0  0  0  0  0  0  0  0
    2.3071    0.9273   -2.1856 H   0  0  0  0  0  0  0  0  0  0  0  0
    3.4785   -0.3925   -2.0471 H   0  0  0  0  0  0  0  0  0  0  0  0
    2.0246   -0.6010   -3.0495 H   0  0  0  0  0  0  0  0  0  0  0  0
   -0.7793    1.3659    0.6455 C   0  0  0  0  0  0  0  0  0  0  0  0
   -1.6464    2.0125    0.0623 O   0  0  0  0  0  0  0  0  0  0  0  0
    0.0189    1.9059    1.5756 N   0  0  0  0  0  0  0  0  0  0  0  0
    0.7024    1.3094    2.0137 H   0  0  0  0  0  0  0  0  0  0  0  0
   -0.0451    3.3046    1.9929 C   0  0  0  0  0  0  0  0  0  0  0  0
   -1.0415    3.5286    2.3805 H   0  0  0  0  0  0  0  0  0  0  0  0
    0.6954    3.5023    2.7695 H   0  0  0  0  0  0  0  0  0  0  0  0
    0.1474    3.9536    1.1372 H   0  0  0  0  0  0  0  0  0  0  0  0
  5  6  2  0  0  0  0
  5  7  1  0  0  0  0
  2  3  1  0  0  0  0
  2  4  1  0  0  0  0
  2  5  1  0  0  0  0
  1  2  1  0  0  0  0
 24 25  2  0  0  0  0
 24 26  1  0  0  0  0
 20 21  1  0  0  0  0
 20 22  1  0  0  0  0
 20 23  1  0  0  0  0
 16 17  1  0  0  0  0
 16 18  1  0  0  0  0
 16 19  1  0  0  0  0
 14 15  1  0  0  0  0
 14 16  1  0  0  0  0
 14 20  1  0  0  0  0
 11 12  1  0  0  0  0
 11 13  1  0  0  0  0
 11 14  1  0  0  0  0
  9 10  1  0  0  0  0
  9 11  1  0  0  0  0
  9 24  1  0  0  0  0
  7  8  1  0  0  0  0
  7  9  1  0  0  0  0
 28 29  1  0  0  0  0
 28 30  1  0  0  0  0
 28 31  1  0  0  0  0
 26 27  1  0  0  0  0
 26 28  1  0  0  0  0
M  END
$$$$
default_name
  -OEChem-02102213163D

 31 30  0     1  0  0  0  0  0999 V2000
   -3.5895   -3.5013    1.1082 H   0  0  0  0  0  0  0  0  0  0  0  0
   -3.5145   -2.5363    0.6082 C   0  0  0  0  0  0  0  0  0  0  0  0
   -4.2285   -1.8413    1.0452 H   0  0  0  0  0  0  0  0  0  0  0  0
   -3.7155   -2.6583   -0.4538 H   0  0  0  0  0  0  0  0  0  0  0  0
   -2.1155   -1.9963    0.7922 C   0  0  0  0  0  0  0  0  0  0  0  0
   -1.2875   -2.6383    1.4252 O   0  0  0  0  0  0  0  0  0  0  0  0
   -1.8575   -0.8123    0.2402 N   0  0  0  0  0  0  0  0  0  0  0  0
   -2.6005   -0.3333   -0.2478 H   0  0  0  0  0  0  0  0  0  0  0  0
   -0.5675   -0.1203    0.3102 C   0  0  1  0  0  0  0  0  0  0  0  0
    0.0191   -0.5718    1.1110 H   0  0  0  0  0  0  0  0  0  0  0  0
    0.1724   -0.3238   -1.0286 C   0  0  0  0  0  0  0  0  0  0  0  0
   -0.3374   -1.1070   -1.5931 H   0  0  0  0  0  0  0  0  0  0  0  0
    0.0929    0.6023   -1.6021 H   0  0  0  0  0  0  0  0  0  0  0  0
    1.6631   -0.6939   -0.9203 C   0  0  0  0  0  0  0  0  0  0  0  0
    2.0252   -0.4726    0.0837 H   0  0  0  0  0  0  0  0  0  0  0  0
    1.9166   -2.1728   -1.2265 C   0  0  0  0  0  0  0  0  0  0  0  0
    1.5444   -2.4139   -2.2232 H   0  0  0  0  0  0  0  0  0  0  0  0
    2.9866   -2.3779   -1.1862 H   0  0  0  0  0  0  0  0  0  0  0  0
    1.4169   -2.8072   -0.4976 H   0  0  0  0  0  0  0  0  0  0  0  0
    2.4753    0.1398   -1.9106 C   0  0  0  0  0  0  0  0  0  0  0  0
    2.3391    1.1997   -1.6958 H   0  0  0  0  0  0  0  0  0  0  0  0
    3.5343   -0.1005   -1.8164 H   0  0  0  0  0  0  0  0  0  0  0  0
    2.1489   -0.0655   -2.9307 H   0  0  0  0  0  0  0  0  0  0  0  0
   -0.7793    1.3659    0.6455 C   0  0  0  0  0  0  0  0  0  0  0  0
   -1.6464    2.0125    0.0623 O   0  0  0  0  0  0  0  0  0  0  0  0
    0.0189    1.9059    1.5756 N   0  0  0  0  0  0  0  0  0  0  0  0
    0.7024    1.3094    2.0137 H   0  0  0  0  0  0  0  0  0  0  0  0
   -0.0451    3.3046    1.9929 C   0  0  0  0  0  0  0  0  0  0  0  0
   -1.0415    3.5286    2.3805 H   0  0  0  0  0  0  0  0  0  0  0  0
    0.6954    3.5023    2.7695 H   0  0  0  0  0  0  0  0  0  0  0  0
    0.1474    3.9536    1.1372 H   0  0  0  0  0  0  0  0  0  0  0  0
  5  6  2  0  0  0  0
  5  7  1  0  0  0  0
  2  3  1  0  0  0  0
  2  4  1  0  0  0  0
  2  5  1  0  0  0  0
  1  2  1  0  0  0  0
 24 25  2  0  0  0  0
 24 26  1  0  0  0  0
 20 21  1  0  0  0  0
 20 22  1  0  0  0  0
 20 23  1  0  0  0  0
 16 17  1  0  0  0  0
 16 18  1  0  0  0  0
 16 19  1  0  0  0  0
 14 15  1  0  0  0  0
 14 16  1  0  0  0  0
 14 20  1  0  0  0  0
 11 12  1  0  0  0  0
 11 13  1  0  0  0  0
 11 14  1  0  0  0  0
  9 10  1  0  0  0  0
  9 11  1  0  0  0  0
  9 24  1  0  0  0  0
  7  8  1  0  0  0  0
  7  9  1  0  0  0  0
 28 29  1  0  0  0  0
 28 30  1  0  0  0  0
 28 31  1  0  0  0  0
 26 27  1  0  0  0  0
 26 28  1  0  0  0  0
M  END
$$$$
default_name
  -OEChem-02102213163D

 31 30  0     1  0  0  0  0  0999 V2000
   -3.5895   -3.5013    1.1082 H   0  0  0  0  0  0  0  0  0  0  0  0
   -3.5145   -2.5363    0.6082 C   0  0  0  0  0  0  0  0  0  0  0  0
   -4.2285   -1.8413    1.0452 H   0  0  0  0  0  0  0  0  0  0  0  0
   -3.7155   -2.6583   -0.4538 H   0  0  0  0  0  0  0  0  0  0  0  0
   -2.1155   -1.9963    0.7922 C   0  0  0  0  0  0  0  0  0  0  0  0
   -1.2875   -2.6383    1.4252 O   0  0  0  0  0  0  0  0  0  0  0  0
   -1.8575   -0.8123    0.2402 N   0  0  0  0  0  0  0  0  0  0  0  0
   -2.6005   -0.3333   -0.2478 H   0  0  0  0  0  0  0  0  0  0  0  0
   -0.5675   -0.1203    0.3102 C   0  0  1  0  0  0  0  0  0  0  0  0
    0.0191   -0.5718    1.1110 H   0  0  0  0  0  0  0  0  0  0  0  0
    0.1724   -0.3238   -1.0286 C   0  0  0  0  0  0  0  0  0  0  0  0
   -0.3374   -1.1070   -1.5931 H   0  0  0  0  0  0  0  0  0  0  0  0
    0.0929    0.6023   -1.6021 H   0  0  0  0  0  0  0  0  0  0  0  0
    1.6631   -0.6939   -0.9203 C   0  0  0  0  0  0  0  0  0  0  0  0
    1.9586   -0.7282    0.1284 H   0  0  0  0  0  0  0  0  0  0  0  0
    1.9730   -2.0458   -1.5695 C   0  0  0  0  0  0  0  0  0  0  0  0
    1.6676   -2.0326   -2.6166 H   0  0  0  0  0  0  0  0  0  0  0  0
    3.0437   -2.2434   -1.5128 H   0  0  0  0  0  0  0  0  0  0  0  0
    1.4474   -2.8480   -1.0561 H   0  0  0  0  0  0  0  0  0  0  0  0
    2.5110    0.3701   -1.6162 C   0  0  0  0  0  0  0  0  0  0  0  0
    2.3346    1.3406   -1.1525 H   0  0  0  0  0  0  0  0  0  0  0  0
    3.5684    0.1248   -1.5169 H   0  0  0  0  0  0  0  0  0  0  0  0
    2.2519    0.4242   -2.6741 H   0  0  0  0  0  0  0  0  0  0  0  0
   -0.7793    1.3659    0.6455 C   0  0  0  0  0  0  0  0  0  0  0  0
   -1.6464    2.0125    0.0623 O   0  0  0  0  0  0  0  0  0  0  0  0
    0.0189    1.9059    1.5756 N   0  0  0  0  0  0  0  0  0  0  0  0
    0.7024    1.3094    2.0137 H   0  0  0  0  0  0  0  0  0  0  0  0
   -0.0451    3.3046    1.9929 C   0  0  0  0  0  0  0  0  0  0  0  0
   -1.0415    3.5286    2.3805 H   0  0  0  0  0  0  0  0  0  0  0  0
    0.6954    3.5023    2.7695 H   0  0  0  0  0  0  0  0  0  0  0  0
    0.1474    3.9536    1.1372 H   0  0  0  0  0  0  0  0  0  0  0  0
  5  6  2  0  0  0  0
  5  7  1  0  0  0  0
  2  3  1  0  0  0  0
  2  4  1  0  0  0  0
  2  5  1  0  0  0  0
  1  2  1  0  0  0  0
 24 25  2  0  0  0  0
 24 26  1  0  0  0  0
 20 21  1  0  0  0  0
 20 22  1  0  0  0  0
 20 23  1  0  0  0  0
 16 17  1  0  0  0  0
 16 18  1  0  0  0  0
 16 19  1  0  0  0  0
 14 15  1  0  0  0  0
 14 16  1  0  0  0  0
 14 20  1  0  0  0  0
 11 12  1  0  0  0  0
 11 13  1  0  0  0  0
 11 14  1  0  0  0  0
  9 10  1  0  0  0  0
  9 11  1  0  0  0  0
  9 24  1  0  0  0  0
  7  8  1  0  0  0  0
  7  9  1  0  0  0  0
 28 29  1  0  0  0  0
 28 30  1  0  0  0  0
 28 31  1  0  0  0  0
 26 27  1  0  0  0  0
 26 28  1  0  0  0  0
M  END
$$$$
default_name
  -OEChem-02102213163D

 31 30  0     1  0  0  0  0  0999 V2000
   -3.5895   -3.5013    1.1082 H   0  0  0  0  0  0  0  0  0  0  0  0
   -3.5145   -2.5363    0.6082 C   0  0  0  0  0  0  0  0  0  0  0  0
   -4.2285   -1.8413    1.0452 H   0  0  0  0  0  0  0  0  0  0  0  0
   -3.7155   -2.6583   -0.4538 H   0  0  0  0  0  0  0  0  0  0  0  0
   -2.1155   -1.9963    0.7922 C   0  0  0  0  0  0  0  0  0  0  0  0
   -1.2875   -2.6383    1.4252 O   0  0  0  0  0  0  0  0  0  0  0  0
   -1.8575   -0.8123    0.2402 N   0  0  0  0  0  0  0  0  0  0  0  0
   -2.6005   -0.3333   -0.2478 H   0  0  0  0  0  0  0  0  0  0  0  0
   -0.5675   -0.1203    0.3102 C   0  0  1  0  0  0  0  0  0  0  0  0
    0.0191   -0.5718    1.1110 H   0  0  0  0  0  0  0  0  0  0  0  0
    0.1724   -0.3238   -1.0286 C   0  0  0  0  0  0  0  0  0  0  0  0
   -0.3374   -1.1070   -1.5931 H   0  0  0  0  0  0  0  0  0  0  0  0
    0.0929    0.6023   -1.6021 H   0  0  0  0  0  0  0  0  0  0  0  0
    1.6631   -0.6939   -0.9203 C   0  0  0  0  0  0  0  0  0  0  0  0
    1.8960   -0.9874    0.1033 H   0  0  0  0  0  0  0  0  0  0  0  0
    2.0466   -1.8362   -1.8655 C   0  0  0  0  0  0  0  0  0  0  0  0
    1.8042   -1.5636   -2.8935 H   0  0  0  0  0  0  0  0  0  0  0  0
    3.1167   -2.0307   -1.7910 H   0  0  0  0  0  0  0  0  0  0  0  0
    1.5123   -2.7470   -1.6040 H   0  0  0  0  0  0  0  0  0  0  0  0
    2.5231    0.5195   -1.2719 C   0  0  0  0  0  0  0  0  0  0  0  0
    2.2939    1.3405   -0.5927 H   0  0  0  0  0  0  0  0  0  0  0  0
    3.5787    0.2680   -1.1691 H   0  0  0  0  0  0  0  0  0  0  0  0
    2.3264    0.8349   -2.2971 H   0  0  0  0  0  0  0  0  0  0  0  0
   -0.7793    1.3659    0.6455 C   0  0  0  0  0  0  0  0  0  0  0  0
   -1.6464    2.0125    0.0623 O   0  0  0  0  0  0  0  0  0  0  0  0
    0.0189    1.9059    1.5756 N   0  0  0  0  0  0  0  0  0  0  0  0
    0.7024    1.3094    2.0137 H   0  0  0  0  0  0  0  0  0  0  0  0
   -0.0451    3.3046    1.9929 C   0  0  0  0  0  0  0  0  0  0  0  0
   -1.0415    3.5286    2.3805 H   0  0  0  0  0  0  0  0  0  0  0  0
    0.6954    3.5023    2.7695 H   0  0  0  0  0  0  0  0  0  0  0  0
    0.1474    3.9536    1.1372 H   0  0  0  0  0  0  0  0  0  0  0  0
  5  6  2  0  0  0  0
  5  7  1  0  0  0  0
  2  3  1  0  0  0  0
  2  4  1  0  0  0  0
  2  5  1  0  0  0  0
  1  2  1  0  0  0  0
 24 25  2  0  0  0  0
 24 26  1  0  0  0  0
 20 21  1  0  0  0  0
 20 22  1  0  0  0  0
 20 23  1  0  0  0  0
 16 17  1  0  0  0  0
 16 18  1  0  0  0  0
 16 19  1  0  0  0  0
 14 15  1  0  0  0  0
 14 16  1  0  0  0  0
 14 20  1  0  0  0  0
 11 12  1  0  0  0  0
 11 13  1  0  0  0  0
 11 14  1  0  0  0  0
  9 10  1  0  0  0  0
  9 11  1  0  0  0  0
  9 24  1  0  0  0  0
  7  8  1  0  0  0  0
  7  9  1  0  0  0  0
 28 29  1  0  0  0  0
 28 30  1  0  0  0  0
 28 31  1  0  0  0  0
 26 27  1  0  0  0  0
 26 28  1  0  0  0  0
M  END
$$$$
default_name
  -OEChem-02102213163D

 31 30  0     1  0  0  0  0  0999 V2000
   -3.5895   -3.5013    1.1082 H   0  0  0  0  0  0  0  0  0  0  0  0
   -3.5145   -2.5363    0.6082 C   0  0  0  0  0  0  0  0  0  0  0  0
   -4.2285   -1.8413    1.0452 H   0  0  0  0  0  0  0  0  0  0  0  0
   -3.7155   -2.6583   -0.4538 H   0  0  0  0  0  0  0  0  0  0  0  0
   -2.1155   -1.9963    0.7922 C   0  0  0  0  0  0  0  0  0  0  0  0
   -1.2875   -2.6383    1.4252 O   0  0  0  0  0  0  0  0  0  0  0  0
   -1.8575   -0.8123    0.2402 N   0  0  0  0  0  0  0  0  0  0  0  0
   -2.6005   -0.3333   -0.2478 H   0  0  0  0  0  0  0  0  0  0  0  0
   -0.5675   -0.1203    0.3102 C   0  0  1  0  0  0  0  0  0  0  0  0
    0.0191   -0.5718    1.1110 H   0  0  0  0  0  0  0  0  0  0  0  0
    0.1724   -0.3238   -1.0286 C   0  0  0  0  0  0  0  0  0  0  0  0
   -0.3374   -1.1070   -1.5931 H   0  0  0  0  0  0  0  0  0  0  0  0
    0.0929    0.6023   -1.6021 H   0  0  0  0  0  0  0  0  0  0  0  0
    1.6631   -0.6939   -0.9203 C   0  0  0  0  0  0  0  0  0  0  0  0
    1.8419   -1.2326    0.0102 H   0  0  0  0  0  0  0  0  0  0  0  0
    2.1322   -1.5582   -2.0942 C   0  0  0  0  0  0  0  0  0  0  0  0
    1.9448   -1.0386   -3.0349 H   0  0  0  0  0  0  0  0  0  0  0  0
    3.2007   -1.7541   -2.0019 H   0  0  0  0  0  0  0  0  0  0  0  0
    1.6072   -2.5109   -2.1038 H   0  0  0  0  0  0  0  0  0  0  0  0
    2.5106    0.5776   -0.9011 C   0  0  0  0  0  0  0  0  0  0  0  0
    2.2197    1.1994   -0.0545 H   0  0  0  0  0  0  0  0  0  0  0  0
    3.5643    0.3193   -0.7966 H   0  0  0  0  0  0  0  0  0  0  0  0
    2.3675    1.1384   -1.8255 H   0  0  0  0  0  0  0  0  0  0  0  0
   -0.7793    1.3659    0.6455 C   0  0  0  0  0  0  0  0  0  0  0  0
   -1.6464    2.0125    0.0623 O   0  0  0  0  0  0  0  0  0  0  0  0
    0.0189    1.9059    1.5756 N   0  0  0  0  0  0  0  0  0  0  0  0
    0.7024    1.3094    2.0137 H   0  0  0  0  0  0  0  0  0  0  0  0
   -0.0451    3.3046    1.9929 C   0  0  0  0  0  0  0  0  0  0  0  0
   -1.0415    3.5286    2.3805 H   0  0  0  0  0  0  0  0  0  0  0  0
    0.6954    3.5023    2.7695 H   0  0  0  0  0  0  0  0  0  0  0  0
    0.1474    3.9536    1.1372 H   0  0  0  0  0  0  0  0  0  0  0  0
  5  6  2  0  0  0  0
  5  7  1  0  0  0  0
  2  3  1  0  0  0  0
  2  4  1  0  0  0  0
  2  5  1  0  0  0  0
  1  2  1  0  0  0  0
 24 25  2  0  0  0  0
 24 26  1  0  0  0  0
 20 21  1  0  0  0  0
 20 22  1  0  0  0  0
 20 23  1  0  0  0  0
 16 17  1  0  0  0  0
 16 18  1  0  0  0  0
 16 19  1  0  0  0  0
 14 15  1  0  0  0  0
 14 16  1  0  0  0  0
 14 20  1  0  0  0  0
 11 12  1  0  0  0  0
 11 13  1  0  0  0  0
 11 14  1  0  0  0  0
  9 10  1  0  0  0  0
  9 11  1  0  0  0  0
  9 24  1  0  0  0  0
  7  8  1  0  0  0  0
  7  9  1  0  0  0  0
 28 29  1  0  0  0  0
 28 30  1  0  0  0  0
 28 31  1  0  0  0  0
 26 27  1  0  0  0  0
 26 28  1  0  0  0  0
M  END
$$$$
default_name
  -OEChem-02102213163D

 31 30  0     1  0  0  0  0  0999 V2000
   -3.5895   -3.5013    1.1082 H   0  0  0  0  0  0  0  0  0  0  0  0
   -3.5145   -2.5363    0.6082 C   0  0  0  0  0  0  0  0  0  0  0  0
   -4.2285   -1.8413    1.0452 H   0  0  0  0  0  0  0  0  0  0  0  0
   -3.7155   -2.6583   -0.4538 H   0  0  0  0  0  0  0  0  0  0  0  0
   -2.1155   -1.9963    0.7922 C   0  0  0  0  0  0  0  0  0  0  0  0
   -1.2875   -2.6383    1.4252 O   0  0  0  0  0  0  0  0  0  0  0  0
   -1.8575   -0.8123    0.2402 N   0  0  0  0  0  0  0  0  0  0  0  0
   -2.6005   -0.3333   -0.2478 H   0  0  0  0  0  0  0  0  0  0  0  0
   -0.5675   -0.1203    0.3102 C   0  0  1  0  0  0  0  0  0  0  0  0
    0.0191   -0.5718    1.1110 H   0  0  0  0  0  0  0  0  0  0  0  0
    0.1724   -0.3238   -1.0286 C   0  0  0  0  0  0  0  0  0  0  0  0
   -0.3374   -1.1070   -1.5931 H   0  0  0  0  0  0  0  0  0  0  0  0
    0.0929    0.6023   -1.6021 H   0  0  0  0  0  0  0  0  0  0  0  0
    1.6631   -0.6939   -0.9203 C   0  0  0  0  0  0  0  0  0  0  0  0
    1.7999   -1.4472   -0.1444 H   0  0  0  0  0  0  0  0  0  0  0  0
    2.2241   -1.2307   -2.2402 C   0  0  0  0  0  0  0  0  0  0  0  0
    2.0798   -0.4936   -3.0312 H   0  0  0  0  0  0  0  0  0  0  0  0
    3.2899   -1.4326   -2.1311 H   0  0  0  0  0  0  0  0  0  0  0  0
    1.7257   -2.1559   -2.5215 H   0  0  0  0  0  0  0  0  0  0  0  0
    2.4744    0.5407   -0.5292 C   0  0  0  0  0  0  0  0  0  0  0  0
    2.1172    0.9269    0.4254 H   0  0  0  0  0  0  0  0  0  0  0  0
    3.5264    0.2752   -0.4249 H   0  0  0  0  0  0  0  0  0  0  0  0
    2.3723    1.3142   -1.2913 H   0  0  0  0  0  0  0  0  0  0  0  0
   -0.7793    1.3659    0.6455 C   0  0  0  0  0  0  0  0  0  0  0  0
   -1.6464    2.0125    0.0623 O   0  0  0  0  0  0  0  0  0  0  0  0
    0.0189    1.9059    1.5756 N   0  0  0  0  0  0  0  0  0  0  0  0
    0.7024    1.3094    2.0137 H   0  0  0  0  0  0  0  0  0  0  0  0
   -0.0451    3.3046    1.9929 C   0  0  0  0  0  0  0  0  0  0  0  0
   -1.0415    3.5286    2.3805 H   0  0  0  0  0  0  0  0  0  0  0  0
    0.6954    3.5023    2.7695 H   0  0  0  0  0  0  0  0  0  0  0  0
    0.1474    3.9536    1.1372 H   0  0  0  0  0  0  0  0  0  0  0  0
  5  6  2  0  0  0  0
  5  7  1  0  0  0  0
  2  3  1  0  0  0  0
  2  4  1  0  0  0  0
  2  5  1  0  0  0  0
  1  2  1  0  0  0  0
 24 25  2  0  0  0  0
 24 26  1  0  0  0  0
 20 21  1  0  0  0  0
 20 22  1  0  0  0  0
 20 23  1  0  0  0  0
 16 17  1  0  0  0  0
 16 18  1  0  0  0  0
 16 19  1  0  0  0  0
 14 15  1  0  0  0  0
 14 16  1  0  0  0  0
 14 20  1  0  0  0  0
 11 12  1  0  0  0  0
 11 13  1  0  0  0  0
 11 14  1  0  0  0  0
  9 10  1  0  0  0  0
  9 11  1  0  0  0  0
  9 24  1  0  0  0  0
  7  8  1  0  0  0  0
  7  9  1  0  0  0  0
 28 29  1  0  0  0  0
 28 30  1  0  0  0  0
 28 31  1  0  0  0  0
 26 27  1  0  0  0  0
 26 28  1  0  0  0  0
M  END
$$$$
default_name
  -OEChem-02102213163D

 31 30  0     1  0  0  0  0  0999 V2000
   -3.5895   -3.5013    1.1082 H   0  0  0  0  0  0  0  0  0  0  0  0
   -3.5145   -2.5363    0.6082 C   0  0  0  0  0  0  0  0  0  0  0  0
   -4.2285   -1.8413    1.0452 H   0  0  0  0  0  0  0  0  0  0  0  0
   -3.7155   -2.6583   -0.4538 H   0  0  0  0  0  0  0  0  0  0  0  0
   -2.1155   -1.9963    0.7922 C   0  0  0  0  0  0  0  0  0  0  0  0
   -1.2875   -2.6383    1.4252 O   0  0  0  0  0  0  0  0  0  0  0  0
   -1.8575   -0.8123    0.2402 N   0  0  0  0  0  0  0  0  0  0  0  0
   -2.6005   -0.3333   -0.2478 H   0  0  0  0  0  0  0  0  0  0  0  0
   -0.5675   -0.1203    0.3102 C   0  0  1  0  0  0  0  0  0  0  0  0
    0.0191   -0.5718    1.1110 H   0  0  0  0  0  0  0  0  0  0  0  0
    0.1724   -0.3238   -1.0286 C   0  0  0  0  0  0  0  0  0  0  0  0
   -0.4710   -0.8973   -1.6987 H   0  0  0  0  0  0  0  0  0  0  0  0
    0.3286    0.6583   -1.4804 H   0  0  0  0  0  0  0  0  0  0  0  0
    1.5364   -1.0325   -0.9388 C   0  0  0  0  0  0  0  0  0  0  0  0
    1.4106   -2.0175   -0.4895 H   0  0  0  0  0  0  0  0  0  0  0  0
    2.1980   -1.1917   -2.3107 C   0  0  0  0  0  0  0  0  0  0  0  0
    2.3162   -0.2144   -2.7807 H   0  0  0  0  0  0  0  0  0  0  0  0
    3.1793   -1.6521   -2.1939 H   0  0  0  0  0  0  0  0  0  0  0  0
    1.5949   -1.8261   -2.9567 H   0  0  0  0  0  0  0  0  0  0  0  0
    2.4806   -0.2241   -0.0497 C   0  0  0  0  0  0  0  0  0  0  0  0
    2.0489   -0.1217    0.9459 H   0  0  0  0  0  0  0  0  0  0  0  0
    3.4380   -0.7377    0.0379 H   0  0  0  0  0  0  0  0  0  0  0  0
    2.6415    0.7668   -0.4759 H   0  0  0  0  0  0  0  0  0  0  0  0
   -0.7793    1.3659    0.6455 C   0  0  0  0  0  0  0  0  0  0  0  0
   -1.6464    2.0125    0.0623 O   0  0  0  0  0  0  0  0  0  0  0  0
    0.0189    1.9059    1.5756 N   0  0  0  0  0  0  0  0  0  0  0  0
    0.7024    1.3094    2.0137 H   0  0  0  0  0  0  0  0  0  0  0  0
   -0.0451    3.3046    1.9929 C   0  0  0  0  0  0  0  0  0  0  0  0
   -1.0415    3.5286    2.3805 H   0  0  0  0  0  0  0  0  0  0  0  0
    0.6954    3.5023    2.7695 H   0  0  0  0  0  0  0  0  0  0  0  0
    0.1474    3.9536    1.1372 H   0  0  0  0  0  0  0  0  0  0  0  0
  5  6  2  0  0  0  0
  5  7  1  0  0  0  0
  2  3  1  0  0  0  0
  2  4  1  0  0  0  0
  2  5  1  0  0  0  0
  1  2  1  0  0  0  0
 24 25  2  0  0  0  0
 24 26  1  0  0  0  0
 20 21  1  0  0  0  0
 20 22  1  0  0  0  0
 20 23  1  0  0  0  0
 16 17  1  0  0  0  0
 16 18  1  0  0  0  0
 16 19  1  0  0  0  0
 14 15  1  0  0  0  0
 14 16  1  0  0  0  0
 14 20  1  0  0  0  0
 11 12  1  0  0  0  0
 11 13  1  0  0  0  0
 11 14  1  0  0  0  0
  9 10  1  0  0  0  0
  9 11  1  0  0  0  0
  9 24  1  0  0  0  0
  7  8  1  0  0  0  0
  7  9  1  0  0  0  0
 28 29  1  0  0  0  0
 28 30  1  0  0  0  0
 28 31  1  0  0  0  0
 26 27  1  0  0  0  0
 26 28  1  0  0  0  0
M  END
$$$$
default_name
  -OEChem-02102213163D

 31 30  0     1  0  0  0  0  0999 V2000
   -3.5895   -3.5013    1.1082 H   0  0  0  0  0  0  0  0  0  0  0  0
   -3.5145   -2.5363    0.6082 C   0  0  0  0  0  0  0  0  0  0  0  0
   -4.2285   -1.8413    1.0452 H   0  0  0  0  0  0  0  0  0  0  0  0
   -3.7155   -2.6583   -0.4538 H   0  0  0  0  0  0  0  0  0  0  0  0
   -2.1155   -1.9963    0.7922 C   0  0  0  0  0  0  0  0  0  0  0  0
   -1.2875   -2.6383    1.4252 O   0  0  0  0  0  0  0  0  0  0  0  0
   -1.8575   -0.8123    0.2402 N   0  0  0  0  0  0  0  0  0  0  0  0
   -2.6005   -0.3333   -0.2478 H   0  0  0  0  0  0  0  0  0  0  0  0
   -0.5675   -0.1203    0.3102 C   0  0  1  0  0  0  0  0  0  0  0  0
    0.0191   -0.5718    1.1110 H   0  0  0  0  0  0  0  0  0  0  0  0
    0.1724   -0.3238   -1.0286 C   0  0  0  0  0  0  0  0  0  0  0  0
   -0.4710   -0.8973   -1.6987 H   0  0  0  0  0  0  0  0  0  0  0  0
    0.3286    0.6583   -1.4804 H   0  0  0  0  0  0  0  0  0  0  0  0
    1.5364   -1.0325   -0.9388 C   0  0  0  0  0  0  0  0  0  0  0  0
    1.3874   -2.0947   -0.7449 H   0  0  0  0  0  0  0  0  0  0  0  0
    2.3587   -0.8708   -2.2205 C   0  0  0  0  0  0  0  0  0  0  0  0
    2.5029    0.1886   -2.4371 H   0  0  0  0  0  0  0  0  0  0  0  0
    3.3325   -1.3446   -2.0942 H   0  0  0  0  0  0  0  0  0  0  0  0
    1.8543   -1.3401   -3.0624 H   0  0  0  0  0  0  0  0  0  0  0  0
    2.3459   -0.4493    0.2188 C   0  0  0  0  0  0  0  0  0  0  0  0
    1.7976   -0.5794    1.1518 H   0  0  0  0  0  0  0  0  0  0  0  0
    3.3009   -0.9682    0.3019 H   0  0  0  0  0  0  0  0  0  0  0  0
    2.5269    0.6133    0.0529 H   0  0  0  0  0  0  0  0  0  0  0  0
   -0.7793    1.3659    0.6455 C   0  0  0  0  0  0  0  0  0  0  0  0
   -1.6464    2.0125    0.0623 O   0  0  0  0  0  0  0  0  0  0  0  0
    0.0189    1.9059    1.5756 N   0  0  0  0  0  0  0  0  0  0  0  0
    0.7024    1.3094    2.0137 H   0  0  0  0  0  0  0  0  0  0  0  0
   -0.0451    3.3046    1.9929 C   0  0  0  0  0  0  0  0  0  0  0  0
   -1.0415    3.5286    2.3805 H   0  0  0  0  0  0  0  0  0  0  0  0
    0.6954    3.5023    2.7695 H   0  0  0  0  0  0  0  0  0  0  0  0
    0.1474    3.9536    1.1372 H   0  0  0  0  0  0  0  0  0  0  0  0
  5  6  2  0  0  0  0
  5  7  1  0  0  0  0
  2  3  1  0  0  0  0
  2  4  1  0  0  0  0
  2  5  1  0  0  0  0
  1  2  1  0  0  0  0
 24 25  2  0  0  0  0
 24 26  1  0  0  0  0
 20 21  1  0  0  0  0
 20 22  1  0  0  0  0
 20 23  1  0  0  0  0
 16 17  1  0  0  0  0
 16 18  1  0  0  0  0
 16 19  1  0  0  0  0
 14 15  1  0  0  0  0
 14 16  1  0  0  0  0
 14 20  1  0  0  0  0
 11 12  1  0  0  0  0
 11 13  1  0  0  0  0
 11 14  1  0  0  0  0
  9 10  1  0  0  0  0
  9 11  1  0  0  0  0
  9 24  1  0  0  0  0
  7  8  1  0  0  0  0
  7  9  1  0  0  0  0
 28 29  1  0  0  0  0
 28 30  1  0  0  0  0
 28 31  1  0  0  0  0
 26 27  1  0  0  0  0
 26 28  1  0  0  0  0
M  END
$$$$
default_name
  -OEChem-02102213163D

 31 30  0     1  0  0  0  0  0999 V2000
   -3.5895   -3.5013    1.1082 H   0  0  0  0  0  0  0  0  0  0  0  0
   -3.5145   -2.5363    0.6082 C   0  0  0  0  0  0  0  0  0  0  0  0
   -4.2285   -1.8413    1.0452 H   0  0  0  0  0  0  0  0  0  0  0  0
   -3.7155   -2.6583   -0.4538 H   0  0  0  0  0  0  0  0  0  0  0  0
   -2.1155   -1.9963    0.7922 C   0  0  0  0  0  0  0  0  0  0  0  0
   -1.2875   -2.6383    1.4252 O   0  0  0  0  0  0  0  0  0  0  0  0
   -1.8575   -0.8123    0.2402 N   0  0  0  0  0  0  0  0  0  0  0  0
   -2.6005   -0.3333   -0.2478 H   0  0  0  0  0  0  0  0  0  0  0  0
   -0.5675   -0.1203    0.3102 C   0  0  1  0  0  0  0  0  0  0  0  0
    0.0191   -0.5718    1.1110 H   0  0  0  0  0  0  0  0  0  0  0  0
    0.1724   -0.3238   -1.0286 C   0  0  0  0  0  0  0  0  0  0  0  0
   -0.4710   -0.8973   -1.6987 H   0  0  0  0  0  0  0  0  0  0  0  0
    0.3286    0.6583   -1.4804 H   0  0  0  0  0  0  0  0  0  0  0  0
    1.5364   -1.0325   -0.9388 C   0  0  0  0  0  0  0  0  0  0  0  0
    1.3965   -2.1110   -1.0121 H   0  0  0  0  0  0  0  0  0  0  0  0
    2.4984   -0.5791   -2.0407 C   0  0  0  0  0  0  0  0  0  0  0  0
    2.6362    0.5019   -1.9905 H   0  0  0  0  0  0  0  0  0  0  0  0
    3.4640   -1.0680   -1.9091 H   0  0  0  0  0  0  0  0  0  0  0  0
    2.1101   -0.8426   -3.0221 H   0  0  0  0  0  0  0  0  0  0  0  0
    2.1872   -0.7305    0.4105 C   0  0  0  0  0  0  0  0  0  0  0  0
    1.5372   -1.0725    1.2159 H   0  0  0  0  0  0  0  0  0  0  0  0
    3.1405   -1.2534    0.4877 H   0  0  0  0  0  0  0  0  0  0  0  0
    2.3555    0.3420    0.5148 H   0  0  0  0  0  0  0  0  0  0  0  0
   -0.7793    1.3659    0.6455 C   0  0  0  0  0  0  0  0  0  0  0  0
   -1.6464    2.0125    0.0623 O   0  0  0  0  0  0  0  0  0  0  0  0
    0.0189    1.9059    1.5756 N   0  0  0  0  0  0  0  0  0  0  0  0
    0.7024    1.3094    2.0137 H   0  0  0  0  0  0  0  0  0  0  0  0
   -0.0451    3.3046    1.9929 C   0  0  0  0  0  0  0  0  0  0  0  0
   -1.0415    3.5286    2.3805 H   0  0  0  0  0  0  0  0  0  0  0  0
    0.6954    3.5023    2.7695 H   0  0  0  0  0  0  0  0  0  0  0  0
    0.1474    3.9536    1.1372 H   0  0  0  0  0  0  0  0  0  0  0  0
  5  6  2  0  0  0  0
  5  7  1  0  0  0  0
  2  3  1  0  0  0  0
  2  4  1  0  0  0  0
  2  5  1  0  0  0  0
  1  2  1  0  0  0  0
 24 25  2  0  0  0  0
 24 26  1  0  0  0  0
 20 21  1  0  0  0  0
 20 22  1  0  0  0  0
 20 23  1  0  0  0  0
 16 17  1  0  0  0  0
 16 18  1  0  0  0  0
 16 19  1  0  0  0  0
 14 15  1  0  0  0  0
 14 16  1  0  0  0  0
 14 20  1  0  0  0  0
 11 12  1  0  0  0  0
 11 13  1  0  0  0  0
 11 14  1  0  0  0  0
  9 10  1  0  0  0  0
  9 11  1  0  0  0  0
  9 24  1  0  0  0  0
  7  8  1  0  0  0  0
  7  9  1  0  0  0  0
 28 29  1  0  0  0  0
 28 30  1  0  0  0  0
 28 31  1  0  0  0  0
 26 27  1  0  0  0  0
 26 28  1  0  0  0  0
M  END
$$$$
default_name
  -OEChem-02102213163D

 31 30  0     1  0  0  0  0  0999 V2000
   -3.5895   -3.5013    1.1082 H   0  0  0  0  0  0  0  0  0  0  0  0
   -3.5145   -2.5363    0.6082 C   0  0  0  0  0  0  0  0  0  0  0  0
   -4.2285   -1.8413    1.0452 H   0  0  0  0  0  0  0  0  0  0  0  0
   -3.7155   -2.6583   -0.4538 H   0  0  0  0  0  0  0  0  0  0  0  0
   -2.1155   -1.9963    0.7922 C   0  0  0  0  0  0  0  0  0  0  0  0
   -1.2875   -2.6383    1.4252 O   0  0  0  0  0  0  0  0  0  0  0  0
   -1.8575   -0.8123    0.2402 N   0  0  0  0  0  0  0  0  0  0  0  0
   -2.6005   -0.3333   -0.2478 H   0  0  0  0  0  0  0  0  0  0  0  0
   -0.5675   -0.1203    0.3102 C   0  0  1  0  0  0  0  0  0  0  0  0
    0.0191   -0.5718    1.1110 H   0  0  0  0  0  0  0  0  0  0  0  0
    0.1724   -0.3238   -1.0286 C   0  0  0  0  0  0  0  0  0  0  0  0
   -0.4710   -0.8973   -1.6987 H   0  0  0  0  0  0  0  0  0  0  0  0
    0.3286    0.6583   -1.4804 H   0  0  0  0  0  0  0  0  0  0  0  0
    1.5364   -1.0325   -0.9388 C   0  0  0  0  0  0  0  0  0  0  0  0
    1.4374   -2.0653   -1.2728 H   0  0  0  0  0  0  0  0  0  0  0  0
    2.6076   -0.3364   -1.7834 C   0  0  0  0  0  0  0  0  0  0  0  0
    2.7071    0.7041   -1.4715 H   0  0  0  0  0  0  0  0  0  0  0  0
    3.5647   -0.8414   -1.6513 H   0  0  0  0  0  0  0  0  0  0  0  0
    2.3449   -0.3675   -2.8387 H   0  0  0  0  0  0  0  0  0  0  0  0
    2.0153   -1.0484    0.5124 C   0  0  0  0  0  0  0  0  0  0  0  0
    1.2855   -1.5674    1.1337 H   0  0  0  0  0  0  0  0  0  0  0  0
    2.9677   -1.5739    0.5827 H   0  0  0  0  0  0  0  0  0  0  0  0
    2.1391   -0.0285    0.8783 H   0  0  0  0  0  0  0  0  0  0  0  0
   -0.7793    1.3659    0.6455 C   0  0  0  0  0  0  0  0  0  0  0  0
   -1.6464    2.0125    0.0623 O   0  0  0  0  0  0  0  0  0  0  0  0
    0.0189    1.9059    1.5756 N   0  0  0  0  0  0  0  0  0  0  0  0
    0.7024    1.3094    2.0137 H   0  0  0  0  0  0  0  0  0  0  0  0
   -0.0451    3.3046    1.9929 C   0  0  0  0  0  0  0  0  0  0  0  0
   -1.0415    3.5286    2.3805 H   0  0  0  0  0  0  0  0  0  0  0  0
    0.6954    3.5023    2.7695 H   0  0  0  0  0  0  0  0  0  0  0  0
    0.1474    3.9536    1.1372 H   0  0  0  0  0  0  0  0  0  0  0  0
  5  6  2  0  0  0  0
  5  7  1  0  0  0  0
  2  3  1  0  0  0  0
  2  4  1  0  0  0  0
  2  5  1  0  0  0  0
  1  2  1  0  0  0  0
 24 25  2  0  0  0  0
 24 26  1  0  0  0  0
 20 21  1  0  0  0  0
 20 22  1  0  0  0  0
 20 23  1  0  0  0  0
 16 17  1  0  0  0  0
 16 18  1  0  0  0  0
 16 19  1  0  0  0  0
 14 15  1  0  0  0  0
 14 16  1  0  0  0  0
 14 20  1  0  0  0  0
 11 12  1  0  0  0  0
 11 13  1  0  0  0  0
 11 14  1  0  0  0  0
  9 10  1  0  0  0  0
  9 11  1  0  0  0  0
  9 24  1  0  0  0  0
  7  8  1  0  0  0  0
  7  9  1  0  0  0  0
 28 29  1  0  0  0  0
 28 30  1  0  0  0  0
 28 31  1  0  0  0  0
 26 27  1  0  0  0  0
 26 28  1  0  0  0  0
M  END
$$$$
default_name
  -OEChem-02102213163D

 31 30  0     1  0  0  0  0  0999 V2000
   -3.5895   -3.5013    1.1082 H   0  0  0  0  0  0  0  0  0  0  0  0
   -3.5145   -2.5363    0.6082 C   0  0  0  0  0  0  0  0  0  0  0  0
   -4.2285   -1.8413    1.0452 H   0  0  0  0  0  0  0  0  0  0  0  0
   -3.7155   -2.6583   -0.4538 H   0  0  0  0  0  0  0  0  0  0  0  0
   -2.1155   -1.9963    0.7922 C   0  0  0  0  0  0  0  0  0  0  0  0
   -1.2875   -2.6383    1.4252 O   0  0  0  0  0  0  0  0  0  0  0  0
   -1.8575   -0.8123    0.2402 N   0  0  0  0  0  0  0  0  0  0  0  0
   -2.6005   -0.3333   -0.2478 H   0  0  0  0  0  0  0  0  0  0  0  0
   -0.5675   -0.1203    0.3102 C   0  0  1  0  0  0  0  0  0  0  0  0
    0.0191   -0.5718    1.1110 H   0  0  0  0  0  0  0  0  0  0  0  0
    0.1724   -0.3238   -1.0286 C   0  0  0  0  0  0  0  0  0  0  0  0
   -0.4710   -0.8973   -1.6987 H   0  0  0  0  0  0  0  0  0  0  0  0
    0.3286    0.6583   -1.4804 H   0  0  0  0  0  0  0  0  0  0  0  0
    1.5364   -1.0325   -0.9388 C   0  0  0  0  0  0  0  0  0  0  0  0
    1.5073   -1.9608   -1.5093 H   0  0  0  0  0  0  0  0  0  0  0  0
    2.6786   -0.1594   -1.4663 C   0  0  0  0  0  0  0  0  0  0  0  0
    2.7107    0.7815   -0.9153 H   0  0  0  0  0  0  0  0  0  0  0  0
    3.6279   -0.6800   -1.3383 H   0  0  0  0  0  0  0  0  0  0  0  0
    2.5426    0.0530   -2.5246 H   0  0  0  0  0  0  0  0  0  0  0  0
    1.8420   -1.3814    0.5173 C   0  0  0  0  0  0  0  0  0  0  0  0
    1.0597   -2.0304    0.9108 H   0  0  0  0  0  0  0  0  0  0  0  0
    2.7944   -1.9078    0.5804 H   0  0  0  0  0  0  0  0  0  0  0  0
    1.8923   -0.4731    1.1187 H   0  0  0  0  0  0  0  0  0  0  0  0
   -0.7793    1.3659    0.6455 C   0  0  0  0  0  0  0  0  0  0  0  0
   -1.6464    2.0125    0.0623 O   0  0  0  0  0  0  0  0  0  0  0  0
    0.0189    1.9059    1.5756 N   0  0  0  0  0  0  0  0  0  0  0  0
    0.7024    1.3094    2.0137 H   0  0  0  0  0  0  0  0  0  0  0  0
   -0.0451    3.3046    1.9929 C   0  0  0  0  0  0  0  0  0  0  0  0
   -1.0415    3.5286    2.3805 H   0  0  0  0  0  0  0  0  0  0  0  0
    0.6954    3.5023    2.7695 H   0  0  0  0  0  0  0  0  0  0  0  0
    0.1474    3.9536    1.1372 H   0  0  0  0  0  0  0  0  0  0  0  0
  5  6  2  0  0  0  0
  5  7  1  0  0  0  0
  2  3  1  0  0  0  0
  2  4  1  0  0  0  0
  2  5  1  0  0  0  0
  1  2  1  0  0  0  0
 24 25  2  0  0  0  0
 24 26  1  0  0  0  0
 20 21  1  0  0  0  0
 20 22  1  0  0  0  0
 20 23  1  0  0  0  0
 16 17  1  0  0  0  0
 16 18  1  0  0  0  0
 16 19  1  0  0  0  0
 14 15  1  0  0  0  0
 14 16  1  0  0  0  0
 14 20  1  0  0  0  0
 11 12  1  0  0  0  0
 11 13  1  0  0  0  0
 11 14  1  0  0  0  0
  9 10  1  0  0  0  0
  9 11  1  0  0  0  0
  9 24  1  0  0  0  0
  7  8  1  0  0  0  0
  7  9  1  0  0  0  0
 28 29  1  0  0  0  0
 28 30  1  0  0  0  0
 28 31  1  0  0  0  0
 26 27  1  0  0  0  0
 26 28  1  0  0  0  0
M  END
$$$$
default_name
  -OEChem-02102213163D

 31 30  0     1  0  0  0  0  0999 V2000
   -3.5895   -3.5013    1.1082 H   0  0  0  0  0  0  0  0  0  0  0  0
   -3.5145   -2.5363    0.6082 C   0  0  0  0  0  0  0  0  0  0  0  0
   -4.2285   -1.8413    1.0452 H   0  0  0  0  0  0  0  0  0  0  0  0
   -3.7155   -2.6583   -0.4538 H   0  0  0  0  0  0  0  0  0  0  0  0
   -2.1155   -1.9963    0.7922 C   0  0  0  0  0  0  0  0  0  0  0  0
   -1.2875   -2.6383    1.4252 O   0  0  0  0  0  0  0  0  0  0  0  0
   -1.8575   -0.8123    0.2402 N   0  0  0  0  0  0  0  0  0  0  0  0
   -2.6005   -0.3333   -0.2478 H   0  0  0  0  0  0  0  0  0  0  0  0
   -0.5675   -0.1203    0.3102 C   0  0  1  0  0  0  0  0  0  0  0  0
    0.0191   -0.5718    1.1110 H   0  0  0  0  0  0  0  0  0  0  0  0
    0.1724   -0.3238   -1.0286 C   0  0  0  0  0  0  0  0  0  0  0  0
   -0.4710   -0.8973   -1.6987 H   0  0  0  0  0  0  0  0  0  0  0  0
    0.3286    0.6583   -1.4804 H   0  0  0  0  0  0  0  0  0  0  0  0
    1.5364   -1.0325   -0.9388 C   0  0  0  0  0  0  0  0  0  0  0  0
    1.6013   -1.8046   -1.7054 H   0  0  0  0  0  0  0  0  0  0  0  0
    2.7069   -0.0600   -1.1110 C   0  0  0  0  0  0  0  0  0  0  0  0
    2.6467    0.7288   -0.3599 H   0  0  0  0  0  0  0  0  0  0  0  0
    3.6493   -0.5950   -0.9914 H   0  0  0  0  0  0  0  0  0  0  0  0
    2.6899    0.3901   -2.1012 H   0  0  0  0  0  0  0  0  0  0  0  0
    1.6790   -1.7069    0.4251 C   0  0  0  0  0  0  0  0  0  0  0  0
    0.8750   -2.4299    0.5625 H   0  0  0  0  0  0  0  0  0  0  0  0
    2.6322   -2.2325    0.4810 H   0  0  0  0  0  0  0  0  0  0  0  0
    1.6321   -0.9613    1.2196 H   0  0  0  0  0  0  0  0  0  0  0  0
   -0.7793    1.3659    0.6455 C   0  0  0  0  0  0  0  0  0  0  0  0
   -1.6464    2.0125    0.0623 O   0  0  0  0  0  0  0  0  0  0  0  0
    0.0189    1.9059    1.5756 N   0  0  0  0  0  0  0  0  0  0  0  0
    0.7024    1.3094    2.0137 H   0  0  0  0  0  0  0  0  0  0  0  0
   -0.0451    3.3046    1.9929 C   0  0  0  0  0  0  0  0  0  0  0  0
   -1.0415    3.5286    2.3805 H   0  0  0  0  0  0  0  0  0  0  0  0
    0.6954    3.5023    2.7695 H   0  0  0  0  0  0  0  0  0  0  0  0
    0.1474    3.9536    1.1372 H   0  0  0  0  0  0  0  0  0  0  0  0
  5  6  2  0  0  0  0
  5  7  1  0  0  0  0
  2  3  1  0  0  0  0
  2  4  1  0  0  0  0
  2  5  1  0  0  0  0
  1  2  1  0  0  0  0
 24 25  2  0  0  0  0
 24 26  1  0  0  0  0
 20 21  1  0  0  0  0
 20 22  1  0  0  0  0
 20 23  1  0  0  0  0
 16 17  1  0  0  0  0
 16 18  1  0  0  0  0
 16 19  1  0  0  0  0
 14 15  1  0  0  0  0
 14 16  1  0  0  0  0
 14 20  1  0  0  0  0
 11 12  1  0  0  0  0
 11 13  1  0  0  0  0
 11 14  1  0  0  0  0
  9 10  1  0  0  0  0
  9 11  1  0  0  0  0
  9 24  1  0  0  0  0
  7  8  1  0  0  0  0
  7  9  1  0  0  0  0
 28 29  1  0  0  0  0
 28 30  1  0  0  0  0
 28 31  1  0  0  0  0
 26 27  1  0  0  0  0
 26 28  1  0  0  0  0
M  END
$$$$
default_name
  -OEChem-02102213163D

 31 30  0     1  0  0  0  0  0999 V2000
   -3.5895   -3.5013    1.1082 H   0  0  0  0  0  0  0  0  0  0  0  0
   -3.5145   -2.5363    0.6082 C   0  0  0  0  0  0  0  0  0  0  0  0
   -4.2285   -1.8413    1.0452 H   0  0  0  0  0  0  0  0  0  0  0  0
   -3.7155   -2.6583   -0.4538 H   0  0  0  0  0  0  0  0  0  0  0  0
   -2.1155   -1.9963    0.7922 C   0  0  0  0  0  0  0  0  0  0  0  0
   -1.2875   -2.6383    1.4252 O   0  0  0  0  0  0  0  0  0  0  0  0
   -1.8575   -0.8123    0.2402 N   0  0  0  0  0  0  0  0  0  0  0  0
   -2.6005   -0.3333   -0.2478 H   0  0  0  0  0  0  0  0  0  0  0  0
   -0.5675   -0.1203    0.3102 C   0  0  1  0  0  0  0  0  0  0  0  0
    0.0191   -0.5718    1.1110 H   0  0  0  0  0  0  0  0  0  0  0  0
    0.1724   -0.3238   -1.0286 C   0  0  0  0  0  0  0  0  0  0  0  0
   -0.4710   -0.8973   -1.6987 H   0  0  0  0  0  0  0  0  0  0  0  0
    0.3286    0.6583   -1.4804 H   0  0  0  0  0  0  0  0  0  0  0  0
    1.5364   -1.0325   -0.9388 C   0  0  0  0  0  0  0  0  0  0  0  0
    1.7132   -1.6073   -1.8479 H   0  0  0  0  0  0  0  0  0  0  0  0
    2.6903   -0.0451   -0.7416 C   0  0  0  0  0  0  0  0  0  0  0  0
    2.5196    0.5496    0.1569 H   0  0  0  0  0  0  0  0  0  0  0  0
    3.6273   -0.5921   -0.6343 H   0  0  0  0  0  0  0  0  0  0  0  0
    2.7766    0.6209   -1.5974 H   0  0  0  0  0  0  0  0  0  0  0  0
    1.5374   -2.0026    0.2420 C   0  0  0  0  0  0  0  0  0  0  0  0
    0.7442   -2.7388    0.1124 H   0  0  0  0  0  0  0  0  0  0  0  0
    2.4924   -2.5258    0.2911 H   0  0  0  0  0  0  0  0  0  0  0  0
    1.3760   -1.4599    1.1741 H   0  0  0  0  0  0  0  0  0  0  0  0
   -0.7793    1.3659    0.6455 C   0  0  0  0  0  0  0  0  0  0  0  0
   -1.6464    2.0125    0.0623 O   0  0  0  0  0  0  0  0  0  0  0  0
    0.0189    1.9059    1.5756 N   0  0  0  0  0  0  0  0  0  0  0  0
    0.7024    1.3094    2.0137 H   0  0  0  0  0  0  0  0  0  0  0  0
   -0.0451    3.3046    1.9929 C   0  0  0  0  0  0  0  0  0  0  0  0
   -1.0415    3.5286    2.3805 H   0  0  0  0  0  0  0  0  0  0  0  0
    0.6954    3.5023    2.7695 H   0  0  0  0  0  0  0  0  0  0  0  0
    0.1474    3.9536    1.1372 H   0  0  0  0  0  0  0  0  0  0  0  0
  5  6  2  0  0  0  0
  5  7  1  0  0  0  0
  2  3  1  0  0  0  0
  2  4  1  0  0  0  0
  2  5  1  0  0  0  0
  1  2  1  0  0  0  0
 24 25  2  0  0  0  0
 24 26  1  0  0  0  0
 20 21  1  0  0  0  0
 20 22  1  0  0  0  0
 20 23  1  0  0  0  0
 16 17  1  0  0  0  0
 16 18  1  0  0  0  0
 16 19  1  0  0  0  0
 14 15  1  0  0  0  0
 14 16  1  0  0  0  0
 14 20  1  0  0  0  0
 11 12  1  0  0  0  0
 11 13  1  0  0  0  0
 11 14  1  0  0  0  0
  9 10  1  0  0  0  0
  9 11  1  0  0  0  0
  9 24  1  0  0  0  0
  7  8  1  0  0  0  0
  7  9  1  0  0  0  0
 28 29  1  0  0  0  0
 28 30  1  0  0  0  0
 28 31  1  0  0  0  0
 26 27  1  0  0  0  0
 26 28  1  0  0  0  0
M  END
$$$$
default_name
  -OEChem-02102213163D

 31 30  0     1  0  0  0  0  0999 V2000
   -3.5895   -3.5013    1.1082 H   0  0  0  0  0  0  0  0  0  0  0  0
   -3.5145   -2.5363    0.6082 C   0  0  0  0  0  0  0  0  0  0  0  0
   -4.2285   -1.8413    1.0452 H   0  0  0  0  0  0  0  0  0  0  0  0
   -3.7155   -2.6583   -0.4538 H   0  0  0  0  0  0  0  0  0  0  0  0
   -2.1155   -1.9963    0.7922 C   0  0  0  0  0  0  0  0  0  0  0  0
   -1.2875   -2.6383    1.4252 O   0  0  0  0  0  0  0  0  0  0  0  0
   -1.8575   -0.8123    0.2402 N   0  0  0  0  0  0  0  0  0  0  0  0
   -2.6005   -0.3333   -0.2478 H   0  0  0  0  0  0  0  0  0  0  0  0
   -0.5675   -0.1203    0.3102 C   0  0  1  0  0  0  0  0  0  0  0  0
    0.0191   -0.5718    1.1110 H   0  0  0  0  0  0  0  0  0  0  0  0
    0.1724   -0.3238   -1.0286 C   0  0  0  0  0  0  0  0  0  0  0  0
   -0.4710   -0.8973   -1.6987 H   0  0  0  0  0  0  0  0  0  0  0  0
    0.3286    0.6583   -1.4804 H   0  0  0  0  0  0  0  0  0  0  0  0
    1.5364   -1.0325   -0.9388 C   0  0  0  0  0  0  0  0  0  0  0  0
    1.8353   -1.3823   -1.9269 H   0  0  0  0  0  0  0  0  0  0  0  0
    2.6301   -0.1156   -0.3833 C   0  0  0  0  0  0  0  0  0  0  0  0
    2.3379    0.2561    0.5998 H   0  0  0  0  0  0  0  0  0  0  0  0
    3.5634   -0.6715   -0.2914 H   0  0  0  0  0  0  0  0  0  0  0  0
    2.7969    0.7296   -1.0476 H   0  0  0  0  0  0  0  0  0  0  0  0
    1.4270   -2.2483   -0.0195 C   0  0  0  0  0  0  0  0  0  0  0  0
    0.6761   -2.9359   -0.4087 H   0  0  0  0  0  0  0  0  0  0  0  0
    2.3843   -2.7676    0.0239 H   0  0  0  0  0  0  0  0  0  0  0  0
    1.1416   -1.9350    0.9854 H   0  0  0  0  0  0  0  0  0  0  0  0
   -0.7793    1.3659    0.6455 C   0  0  0  0  0  0  0  0  0  0  0  0
   -1.6464    2.0125    0.0623 O   0  0  0  0  0  0  0  0  0  0  0  0
    0.0189    1.9059    1.5756 N   0  0  0  0  0  0  0  0  0  0  0  0
    0.7024    1.3094    2.0137 H   0  0  0  0  0  0  0  0  0  0  0  0
   -0.0451    3.3046    1.9929 C   0  0  0  0  0  0  0  0  0  0  0  0
   -1.0415    3.5286    2.3805 H   0  0  0  0  0  0  0  0  0  0  0  0
    0.6954    3.5023    2.7695 H   0  0  0  0  0  0  0  0  0  0  0  0
    0.1474    3.9536    1.1372 H   0  0  0  0  0  0  0  0  0  0  0  0
  5  6  2  0  0  0  0
  5  7  1  0  0  0  0
  2  3  1  0  0  0  0
  2  4  1  0  0  0  0
  2  5  1  0  0  0  0
  1  2  1  0  0  0  0
 24 25  2  0  0  0  0
 24 26  1  0  0  0  0
 20 21  1  0  0  0  0
 20 22  1  0  0  0  0
 20 23  1  0  0  0  0
 16 17  1  0  0  0  0
 16 18  1  0  0  0  0
 16 19  1  0  0  0  0
 14 15  1  0  0  0  0
 14 16  1  0  0  0  0
 14 20  1  0  0  0  0
 11 12  1  0  0  0  0
 11 13  1  0  0  0  0
 11 14  1  0  0  0  0
  9 10  1  0  0  0  0
  9 11  1  0  0  0  0
  9 24  1  0  0  0  0
  7  8  1  0  0  0  0
  7  9  1  0  0  0  0
 28 29  1  0  0  0  0
 28 30  1  0  0  0  0
 28 31  1  0  0  0  0
 26 27  1  0  0  0  0
 26 28  1  0  0  0  0
M  END
$$$$
default_name
  -OEChem-02102213163D

 31 30  0     1  0  0  0  0  0999 V2000
   -3.5895   -3.5013    1.1082 H   0  0  0  0  0  0  0  0  0  0  0  0
   -3.5145   -2.5363    0.6082 C   0  0  0  0  0  0  0  0  0  0  0  0
   -4.2285   -1.8413    1.0452 H   0  0  0  0  0  0  0  0  0  0  0  0
   -3.7155   -2.6583   -0.4538 H   0  0  0  0  0  0  0  0  0  0  0  0
   -2.1155   -1.9963    0.7922 C   0  0  0  0  0  0  0  0  0  0  0  0
   -1.2875   -2.6383    1.4252 O   0  0  0  0  0  0  0  0  0  0  0  0
   -1.8575   -0.8123    0.2402 N   0  0  0  0  0  0  0  0  0  0  0  0
   -2.6005   -0.3333   -0.2478 H   0  0  0  0  0  0  0  0  0  0  0  0
   -0.5675   -0.1203    0.3102 C   0  0  1  0  0  0  0  0  0  0  0  0
    0.0191   -0.5718    1.1110 H   0  0  0  0  0  0  0  0  0  0  0  0
    0.1724   -0.3238   -1.0286 C   0  0  0  0  0  0  0  0  0  0  0  0
   -0.4710   -0.8973   -1.6987 H   0  0  0  0  0  0  0  0  0  0  0  0
    0.3286    0.6583   -1.4804 H   0  0  0  0  0  0  0  0  0  0  0  0
    1.5364   -1.0325   -0.9388 C   0  0  0  0  0  0  0  0  0  0  0  0
    1.9592   -1.1451   -1.9371 H   0  0  0  0  0  0  0  0  0  0  0  0
    2.5303   -0.2668   -0.0606 C   0  0  0  0  0  0  0  0  0  0  0  0
    2.1141   -0.1317    0.9387 H   0  0  0  0  0  0  0  0  0  0  0  0
    3.4621   -0.8277    0.0141 H   0  0  0  0  0  0  0  0  0  0  0  0
    2.7493    0.7088   -0.4891 H   0  0  0  0  0  0  0  0  0  0  0  0
    1.3551   -2.4274   -0.3416 C   0  0  0  0  0  0  0  0  0  0  0  0
    0.6754   -3.0078   -0.9654 H   0  0  0  0  0  0  0  0  0  0  0  0
    2.3154   -2.9416   -0.3026 H   0  0  0  0  0  0  0  0  0  0  0  0
    0.9449   -2.3542    0.6662 H   0  0  0  0  0  0  0  0  0  0  0  0
   -0.7793    1.3659    0.6455 C   0  0  0  0  0  0  0  0  0  0  0  0
   -1.6464    2.0125    0.0623 O   0  0  0  0  0  0  0  0  0  0  0  0
    0.0189    1.9059    1.5756 N   0  0  0  0  0  0  0  0  0  0  0  0
    0.7024    1.3094    2.0137 H   0  0  0  0  0  0  0  0  0  0  0  0
   -0.0451    3.3046    1.9929 C   0  0  0  0  0  0  0  0  0  0  0  0
   -1.0415    3.5286    2.3805 H   0  0  0  0  0  0  0  0  0  0  0  0
    0.6954    3.5023    2.7695 H   0  0  0  0  0  0  0  0  0  0  0  0
    0.1474    3.9536    1.1372 H   0  0  0  0  0  0  0  0  0  0  0  0
  5  6  2  0  0  0  0
  5  7  1  0  0  0  0
  2  3  1  0  0  0  0
  2  4  1  0  0  0  0
  2  5  1  0  0  0  0
  1  2  1  0  0  0  0
 24 25  2  0  0  0  0
 24 26  1  0  0  0  0
 20 21  1  0  0  0  0
 20 22  1  0  0  0  0
 20 23  1  0  0  0  0
 16 17  1  0  0  0  0
 16 18  1  0  0  0  0
 16 19  1  0  0  0  0
 14 15  1  0  0  0  0
 14 16  1  0  0  0  0
 14 20  1  0  0  0  0
 11 12  1  0  0  0  0
 11 13  1  0  0  0  0
 11 14  1  0  0  0  0
  9 10  1  0  0  0  0
  9 11  1  0  0  0  0
  9 24  1  0  0  0  0
  7  8  1  0  0  0  0
  7  9  1  0  0  0  0
 28 29  1  0  0  0  0
 28 30  1  0  0  0  0
 28 31  1  0  0  0  0
 26 27  1  0  0  0  0
 26 28  1  0  0  0  0
M  END
$$$$
default_name
  -OEChem-02102213163D

 31 30  0     1  0  0  0  0  0999 V2000
   -3.5895   -3.5013    1.1082 H   0  0  0  0  0  0  0  0  0  0  0  0
   -3.5145   -2.5363    0.6082 C   0  0  0  0  0  0  0  0  0  0  0  0
   -4.2285   -1.8413    1.0452 H   0  0  0  0  0  0  0  0  0  0  0  0
   -3.7155   -2.6583   -0.4538 H   0  0  0  0  0  0  0  0  0  0  0  0
   -2.1155   -1.9963    0.7922 C   0  0  0  0  0  0  0  0  0  0  0  0
   -1.2875   -2.6383    1.4252 O   0  0  0  0  0  0  0  0  0  0  0  0
   -1.8575   -0.8123    0.2402 N   0  0  0  0  0  0  0  0  0  0  0  0
   -2.6005   -0.3333   -0.2478 H   0  0  0  0  0  0  0  0  0  0  0  0
   -0.5675   -0.1203    0.3102 C   0  0  1  0  0  0  0  0  0  0  0  0
    0.0191   -0.5718    1.1110 H   0  0  0  0  0  0  0  0  0  0  0  0
    0.1724   -0.3238   -1.0286 C   0  0  0  0  0  0  0  0  0  0  0  0
   -0.4710   -0.8973   -1.6987 H   0  0  0  0  0  0  0  0  0  0  0  0
    0.3286    0.6583   -1.4804 H   0  0  0  0  0  0  0  0  0  0  0  0
    1.5364   -1.0325   -0.9388 C   0  0  0  0  0  0  0  0  0  0  0  0
    2.0765   -0.9118   -1.8779 H   0  0  0  0  0  0  0  0  0  0  0  0
    2.3977   -0.4883    0.2046 C   0  0  0  0  0  0  0  0  0  0  0  0
    1.8635   -0.5874    1.1505 H   0  0  0  0  0  0  0  0  0  0  0  0
    3.3303   -1.0503    0.2613 H   0  0  0  0  0  0  0  0  0  0  0  0
    2.6371    0.5600    0.0399 H   0  0  0  0  0  0  0  0  0  0  0  0
    1.3268   -2.5276   -0.7024 C   0  0  0  0  0  0  0  0  0  0  0  0
    0.7421   -2.9497   -1.5197 H   0  0  0  0  0  0  0  0  0  0  0  0
    2.2904   -3.0359   -0.6660 H   0  0  0  0  0  0  0  0  0  0  0  0
    0.7992   -2.6889    0.2383 H   0  0  0  0  0  0  0  0  0  0  0  0
   -0.7793    1.3659    0.6455 C   0  0  0  0  0  0  0  0  0  0  0  0
   -1.6464    2.0125    0.0623 O   0  0  0  0  0  0  0  0  0  0  0  0
    0.0189    1.9059    1.5756 N   0  0  0  0  0  0  0  0  0  0  0  0
    0.7024    1.3094    2.0137 H   0  0  0  0  0  0  0  0  0  0  0  0
   -0.0451    3.3046    1.9929 C   0  0  0  0  0  0  0  0  0  0  0  0
   -1.0415    3.5286    2.3805 H   0  0  0  0  0  0  0  0  0  0  0  0
    0.6954    3.5023    2.7695 H   0  0  0  0  0  0  0  0  0  0  0  0
    0.1474    3.9536    1.1372 H   0  0  0  0  0  0  0  0  0  0  0  0
  5  6  2  0  0  0  0
  5  7  1  0  0  0  0
  2  3  1  0  0  0  0
  2  4  1  0  0  0  0
  2  5  1  0  0  0  0
  1  2  1  0  0  0  0
 24 25  2  0  0  0  0
 24 26  1  0  0  0  0
 20 21  1  0  0  0  0
 20 22  1  0  0  0  0
 20 23  1  0  0  0  0
 16 17  1  0  0  0  0
 16 18  1  0  0  0  0
 16 19  1  0  0  0  0
 14 15  1  0  0  0  0
 14 16  1  0  0  0  0
 14 20  1  0  0  0  0
 11 12  1  0  0  0  0
 11 13  1  0  0  0  0
 11 14  1  0  0  0  0
  9 10  1  0  0  0  0
  9 11  1  0  0  0  0
  9 24  1  0  0  0  0
  7  8  1  0  0  0  0
  7  9  1  0  0  0  0
 28 29  1  0  0  0  0
 28 30  1  0  0  0  0
 28 31  1  0  0  0  0
 26 27  1  0  0  0  0
 26 28  1  0  0  0  0
M  END
$$$$
default_name
  -OEChem-02102213163D

 31 30  0     1  0  0  0  0  0999 V2000
   -3.5895   -3.5013    1.1082 H   0  0  0  0  0  0  0  0  0  0  0  0
   -3.5145   -2.5363    0.6082 C   0  0  0  0  0  0  0  0  0  0  0  0
   -4.2285   -1.8413    1.0452 H   0  0  0  0  0  0  0  0  0  0  0  0
   -3.7155   -2.6583   -0.4538 H   0  0  0  0  0  0  0  0  0  0  0  0
   -2.1155   -1.9963    0.7922 C   0  0  0  0  0  0  0  0  0  0  0  0
   -1.2875   -2.6383    1.4252 O   0  0  0  0  0  0  0  0  0  0  0  0
   -1.8575   -0.8123    0.2402 N   0  0  0  0  0  0  0  0  0  0  0  0
   -2.6005   -0.3333   -0.2478 H   0  0  0  0  0  0  0  0  0  0  0  0
   -0.5675   -0.1203    0.3102 C   0  0  1  0  0  0  0  0  0  0  0  0
    0.0191   -0.5718    1.1110 H   0  0  0  0  0  0  0  0  0  0  0  0
    0.1724   -0.3238   -1.0286 C   0  0  0  0  0  0  0  0  0  0  0  0
   -0.4710   -0.8973   -1.6987 H   0  0  0  0  0  0  0  0  0  0  0  0
    0.3286    0.6583   -1.4804 H   0  0  0  0  0  0  0  0  0  0  0  0
    1.5364   -1.0325   -0.9388 C   0  0  0  0  0  0  0  0  0  0  0  0
    2.1793   -0.6982   -1.7531 H   0  0  0  0  0  0  0  0  0  0  0  0
    2.2415   -0.7651    0.3941 C   0  0  0  0  0  0  0  0  0  0  0  0
    1.6030   -1.0799    1.2207 H   0  0  0  0  0  0  0  0  0  0  0  0
    3.1768   -1.3239    0.4333 H   0  0  0  0  0  0  0  0  0  0  0  0
    2.4681    0.2933    0.5034 H   0  0  0  0  0  0  0  0  0  0  0  0
    1.3440   -2.5422   -1.0772 C   0  0  0  0  0  0  0  0  0  0  0  0
    0.8717   -2.7654   -2.0338 H   0  0  0  0  0  0  0  0  0  0  0  0
    2.3110   -3.0439   -1.0416 H   0  0  0  0  0  0  0  0  0  0  0  0
    0.7145   -2.9163   -0.2690 H   0  0  0  0  0  0  0  0  0  0  0  0
   -0.7793    1.3659    0.6455 C   0  0  0  0  0  0  0  0  0  0  0  0
   -1.6464    2.0125    0.0623 O   0  0  0  0  0  0  0  0  0  0  0  0
    0.0189    1.9059    1.5756 N   0  0  0  0  0  0  0  0  0  0  0  0
    0.7024    1.3094    2.0137 H   0  0  0  0  0  0  0  0  0  0  0  0
   -0.0451    3.3046    1.9929 C   0  0  0  0  0  0  0  0  0  0  0  0
   -1.0415    3.5286    2.3805 H   0  0  0  0  0  0  0  0  0  0  0  0
    0.6954    3.5023    2.7695 H   0  0  0  0  0  0  0  0  0  0  0  0
    0.1474    3.9536    1.1372 H   0  0  0  0  0  0  0  0  0  0  0  0
  5  6  2  0  0  0  0
  5  7  1  0  0  0  0
  2  3  1  0  0  0  0
  2  4  1  0  0  0  0
  2  5  1  0  0  0  0
  1  2  1  0  0  0  0
 24 25  2  0  0  0  0
 24 26  1  0  0  0  0
 20 21  1  0  0  0  0
 20 22  1  0  0  0  0
 20 23  1  0  0  0  0
 16 17  1  0  0  0  0
 16 18  1  0  0  0  0
 16 19  1  0  0  0  0
 14 15  1  0  0  0  0
 14 16  1  0  0  0  0
 14 20  1  0  0  0  0
 11 12  1  0  0  0  0
 11 13  1  0  0  0  0
 11 14  1  0  0  0  0
  9 10  1  0  0  0  0
  9 11  1  0  0  0  0
  9 24  1  0  0  0  0
  7  8  1  0  0  0  0
  7  9  1  0  0  0  0
 28 29  1  0  0  0  0
 28 30  1  0  0  0  0
 28 31  1  0  0  0  0
 26 27  1  0  0  0  0
 26 28  1  0  0  0  0
M  END
$$$$
default_name
  -OEChem-02102213163D

 31 30  0     1  0  0  0  0  0999 V2000
   -3.5895   -3.5013    1.1082 H   0  0  0  0  0  0  0  0  0  0  0  0
   -3.5145   -2.5363    0.6082 C   0  0  0  0  0  0  0  0  0  0  0  0
   -4.2285   -1.8413    1.0452 H   0  0  0  0  0  0  0  0  0  0  0  0
   -3.7155   -2.6583   -0.4538 H   0  0  0  0  0  0  0  0  0  0  0  0
   -2.1155   -1.9963    0.7922 C   0  0  0  0  0  0  0  0  0  0  0  0
   -1.2875   -2.6383    1.4252 O   0  0  0  0  0  0  0  0  0  0  0  0
   -1.8575   -0.8123    0.2402 N   0  0  0  0  0  0  0  0  0  0  0  0
   -2.6005   -0.3333   -0.2478 H   0  0  0  0  0  0  0  0  0  0  0  0
   -0.5675   -0.1203    0.3102 C   0  0  1  0  0  0  0  0  0  0  0  0
    0.0191   -0.5718    1.1110 H   0  0  0  0  0  0  0  0  0  0  0  0
    0.1724   -0.3238   -1.0286 C   0  0  0  0  0  0  0  0  0  0  0  0
   -0.4710   -0.8973   -1.6987 H   0  0  0  0  0  0  0  0  0  0  0  0
    0.3286    0.6583   -1.4804 H   0  0  0  0  0  0  0  0  0  0  0  0
    1.5364   -1.0325   -0.9388 C   0  0  0  0  0  0  0  0  0  0  0  0
    2.2604   -0.5189   -1.5714 H   0  0  0  0  0  0  0  0  0  0  0  0
    2.0721   -1.0782    0.4952 C   0  0  0  0  0  0  0  0  0  0  0  0
    1.3504   -1.5757    1.1446 H   0  0  0  0  0  0  0  0  0  0  0  0
    3.0122   -1.6299    0.5184 H   0  0  0  0  0  0  0  0  0  0  0  0
    2.2535   -0.0731    0.8698 H   0  0  0  0  0  0  0  0  0  0  0  0
    1.4054   -2.4700   -1.4405 C   0  0  0  0  0  0  0  0  0  0  0  0
    1.0553   -2.4676   -2.4727 H   0  0  0  0  0  0  0  0  0  0  0  0
    2.3757   -2.9653   -1.4039 H   0  0  0  0  0  0  0  0  0  0  0  0
    0.6965   -3.0208   -0.8213 H   0  0  0  0  0  0  0  0  0  0  0  0
   -0.7793    1.3659    0.6455 C   0  0  0  0  0  0  0  0  0  0  0  0
   -1.6464    2.0125    0.0623 O   0  0  0  0  0  0  0  0  0  0  0  0
    0.0189    1.9059    1.5756 N   0  0  0  0  0  0  0  0  0  0  0  0
    0.7024    1.3094    2.0137 H   0  0  0  0  0  0  0  0  0  0  0  0
   -0.0451    3.3046    1.9929 C   0  0  0  0  0  0  0  0  0  0  0  0
   -1.0415    3.5286    2.3805 H   0  0  0  0  0  0  0  0  0  0  0  0
    0.6954    3.5023    2.7695 H   0  0  0  0  0  0  0  0  0  0  0  0
    0.1474    3.9536    1.1372 H   0  0  0  0  0  0  0  0  0  0  0  0
  5  6  2  0  0  0  0
  5  7  1  0  0  0  0
  2  3  1  0  0  0  0
  2  4  1  0  0  0  0
  2  5  1  0  0  0  0
  1  2  1  0  0  0  0
 24 25  2  0  0  0  0
 24 26  1  0  0  0  0
 20 21  1  0  0  0  0
 20 22  1  0  0  0  0
 20 23  1  0  0  0  0
 16 17  1  0  0  0  0
 16 18  1  0  0  0  0
 16 19  1  0  0  0  0
 14 15  1  0  0  0  0
 14 16  1  0  0  0  0
 14 20  1  0  0  0  0
 11 12  1  0  0  0  0
 11 13  1  0  0  0  0
 11 14  1  0  0  0  0
  9 10  1  0  0  0  0
  9 11  1  0  0  0  0
  9 24  1  0  0  0  0
  7  8  1  0  0  0  0
  7  9  1  0  0  0  0
 28 29  1  0  0  0  0
 28 30  1  0  0  0  0
 28 31  1  0  0  0  0
 26 27  1  0  0  0  0
 26 28  1  0  0  0  0
M  END
$$$$
default_name
  -OEChem-02102213163D

 31 30  0     1  0  0  0  0  0999 V2000
   -3.5895   -3.5013    1.1082 H   0  0  0  0  0  0  0  0  0  0  0  0
   -3.5145   -2.5363    0.6082 C   0  0  0  0  0  0  0  0  0  0  0  0
   -4.2285   -1.8413    1.0452 H   0  0  0  0  0  0  0  0  0  0  0  0
   -3.7155   -2.6583   -0.4538 H   0  0  0  0  0  0  0  0  0  0  0  0
   -2.1155   -1.9963    0.7922 C   0  0  0  0  0  0  0  0  0  0  0  0
   -1.2875   -2.6383    1.4252 O   0  0  0  0  0  0  0  0  0  0  0  0
   -1.8575   -0.8123    0.2402 N   0  0  0  0  0  0  0  0  0  0  0  0
   -2.6005   -0.3333   -0.2478 H   0  0  0  0  0  0  0  0  0  0  0  0
   -0.5675   -0.1203    0.3102 C   0  0  1  0  0  0  0  0  0  0  0  0
    0.0191   -0.5718    1.1110 H   0  0  0  0  0  0  0  0  0  0  0  0
    0.1724   -0.3238   -1.0286 C   0  0  0  0  0  0  0  0  0  0  0  0
   -0.4710   -0.8973   -1.6987 H   0  0  0  0  0  0  0  0  0  0  0  0
    0.3286    0.6583   -1.4804 H   0  0  0  0  0  0  0  0  0  0  0  0
    1.5364   -1.0325   -0.9388 C   0  0  0  0  0  0  0  0  0  0  0  0
    2.3145   -0.3862   -1.3451 H   0  0  0  0  0  0  0  0  0  0  0  0
    1.9012   -1.4064    0.5008 C   0  0  0  0  0  0  0  0  0  0  0  0
    1.1231   -2.0409    0.9273 H   0  0  0  0  0  0  0  0  0  0  0  0
    2.8477   -1.9475    0.5109 H   0  0  0  0  0  0  0  0  0  0  0  0
    2.0082   -0.5144    1.1141 H   0  0  0  0  0  0  0  0  0  0  0  0
    1.5069   -2.3160   -1.7676 C   0  0  0  0  0  0  0  0  0  0  0  0
    1.2805   -2.0766   -2.8065 H   0  0  0  0  0  0  0  0  0  0  0  0
    2.4801   -2.8053   -1.7280 H   0  0  0  0  0  0  0  0  0  0  0  0
    0.7465   -2.9955   -1.3809 H   0  0  0  0  0  0  0  0  0  0  0  0
   -0.7793    1.3659    0.6455 C   0  0  0  0  0  0  0  0  0  0  0  0
   -1.6464    2.0125    0.0623 O   0  0  0  0  0  0  0  0  0  0  0  0
    0.0189    1.9059    1.5756 N   0  0  0  0  0  0  0  0  0  0  0  0
    0.7024    1.3094    2.0137 H   0  0  0  0  0  0  0  0  0  0  0  0
   -0.0451    3.3046    1.9929 C   0  0  0  0  0  0  0  0  0  0  0  0
   -1.0415    3.5286    2.3805 H   0  0  0  0  0  0  0  0  0  0  0  0
    0.6954    3.5023    2.7695 H   0  0  0  0  0  0  0  0  0  0  0  0
    0.1474    3.9536    1.1372 H   0  0  0  0  0  0  0  0  0  0  0  0
  5  6  2  0  0  0  0
  5  7  1  0  0  0  0
  2  3  1  0  0  0  0
  2  4  1  0  0  0  0
  2  5  1  0  0  0  0
  1  2  1  0  0  0  0
 24 25  2  0  0  0  0
 24 26  1  0  0  0  0
 20 21  1  0  0  0  0
 20 22  1  0  0  0  0
 20 23  1  0  0  0  0
 16 17  1  0  0  0  0
 16 18  1  0  0  0  0
 16 19  1  0  0  0  0
 14 15  1  0  0  0  0
 14 16  1  0  0  0  0
 14 20  1  0  0  0  0
 11 12  1  0  0  0  0
 11 13  1  0  0  0  0
 11 14  1  0  0  0  0
  9 10  1  0  0  0  0
  9 11  1  0  0  0  0
  9 24  1  0  0  0  0
  7  8  1  0  0  0  0
  7  9  1  0  0  0  0
 28 29  1  0  0  0  0
 28 30  1  0  0  0  0
 28 31  1  0  0  0  0
 26 27  1  0  0  0  0
 26 28  1  0  0  0  0
M  END
$$$$
default_name
  -OEChem-02102213163D

 31 30  0     1  0  0  0  0  0999 V2000
   -3.5895   -3.5013    1.1082 H   0  0  0  0  0  0  0  0  0  0  0  0
   -3.5145   -2.5363    0.6082 C   0  0  0  0  0  0  0  0  0  0  0  0
   -4.2285   -1.8413    1.0452 H   0  0  0  0  0  0  0  0  0  0  0  0
   -3.7155   -2.6583   -0.4538 H   0  0  0  0  0  0  0  0  0  0  0  0
   -2.1155   -1.9963    0.7922 C   0  0  0  0  0  0  0  0  0  0  0  0
   -1.2875   -2.6383    1.4252 O   0  0  0  0  0  0  0  0  0  0  0  0
   -1.8575   -0.8123    0.2402 N   0  0  0  0  0  0  0  0  0  0  0  0
   -2.6005   -0.3333   -0.2478 H   0  0  0  0  0  0  0  0  0  0  0  0
   -0.5675   -0.1203    0.3102 C   0  0  1  0  0  0  0  0  0  0  0  0
    0.0191   -0.5718    1.1110 H   0  0  0  0  0  0  0  0  0  0  0  0
    0.1724   -0.3238   -1.0286 C   0  0  0  0  0  0  0  0  0  0  0  0
   -0.4710   -0.8973   -1.6987 H   0  0  0  0  0  0  0  0  0  0  0  0
    0.3286    0.6583   -1.4804 H   0  0  0  0  0  0  0  0  0  0  0  0
    1.5364   -1.0325   -0.9388 C   0  0  0  0  0  0  0  0  0  0  0  0
    2.3377   -0.3091   -1.0897 H   0  0  0  0  0  0  0  0  0  0  0  0
    1.7405   -1.7273    0.4106 C   0  0  0  0  0  0  0  0  0  0  0  0
    0.9363   -2.4439    0.5837 H   0  0  0  0  0  0  0  0  0  0  0  0
    2.6945   -2.2551    0.4112 H   0  0  0  0  0  0  0  0  0  0  0  0
    1.7488   -1.0003    1.2197 H   0  0  0  0  0  0  0  0  0  0  0  0
    1.6416   -2.0908   -2.0362 C   0  0  0  0  0  0  0  0  0  0  0  0
    1.5318   -1.6189   -3.0125 H   0  0  0  0  0  0  0  0  0  0  0  0
    2.6172   -2.5749   -1.9920 H   0  0  0  0  0  0  0  0  0  0  0  0
    0.8611   -2.8419   -1.9097 H   0  0  0  0  0  0  0  0  0  0  0  0
   -0.7793    1.3659    0.6455 C   0  0  0  0  0  0  0  0  0  0  0  0
   -1.6464    2.0125    0.0623 O   0  0  0  0  0  0  0  0  0  0  0  0
    0.0189    1.9059    1.5756 N   0  0  0  0  0  0  0  0  0  0  0  0
    0.7024    1.3094    2.0137 H   0  0  0  0  0  0  0  0  0  0  0  0
   -0.0451    3.3046    1.9929 C   0  0  0  0  0  0  0  0  0  0  0  0
   -1.0415    3.5286    2.3805 H   0  0  0  0  0  0  0  0  0  0  0  0
    0.6954    3.5023    2.7695 H   0  0  0  0  0  0  0  0  0  0  0  0
    0.1474    3.9536    1.1372 H   0  0  0  0  0  0  0  0  0  0  0  0
  5  6  2  0  0  0  0
  5  7  1  0  0  0  0
  2  3  1  0  0  0  0
  2  4  1  0  0  0  0
  2  5  1  0  0  0  0
  1  2  1  0  0  0  0
 24 25  2  0  0  0  0
 24 26  1  0  0  0  0
 20 21  1  0  0  0  0
 20 22  1  0  0  0  0
 20 23  1  0  0  0  0
 16 17  1  0  0  0  0
 16 18  1  0  0  0  0
 16 19  1  0  0  0  0
 14 15  1  0  0  0  0
 14 16  1  0  0  0  0
 14 20  1  0  0  0  0
 11 12  1  0  0  0  0
 11 13  1  0  0  0  0
 11 14  1  0  0  0  0
  9 10  1  0  0  0  0
  9 11  1  0  0  0  0
  9 24  1  0  0  0  0
  7  8  1  0  0  0  0
  7  9  1  0  0  0  0
 28 29  1  0  0  0  0
 28 30  1  0  0  0  0
 28 31  1  0  0  0  0
 26 27  1  0  0  0  0
 26 28  1  0  0  0  0
M  END
$$$$
default_name
  -OEChem-02102213163D

 31 30  0     1  0  0  0  0  0999 V2000
   -3.5895   -3.5013    1.1082 H   0  0  0  0  0  0  0  0  0  0  0  0
   -3.5145   -2.5363    0.6082 C   0  0  0  0  0  0  0  0  0  0  0  0
   -4.2285   -1.8413    1.0452 H   0  0  0  0  0  0  0  0  0  0  0  0
   -3.7155   -2.6583   -0.4538 H   0  0  0  0  0  0  0  0  0  0  0  0
   -2.1155   -1.9963    0.7922 C   0  0  0  0  0  0  0  0  0  0  0  0
   -1.2875   -2.6383    1.4252 O   0  0  0  0  0  0  0  0  0  0  0  0
   -1.8575   -0.8123    0.2402 N   0  0  0  0  0  0  0  0  0  0  0  0
   -2.6005   -0.3333   -0.2478 H   0  0  0  0  0  0  0  0  0  0  0  0
   -0.5675   -0.1203    0.3102 C   0  0  1  0  0  0  0  0  0  0  0  0
    0.0191   -0.5718    1.1110 H   0  0  0  0  0  0  0  0  0  0  0  0
    0.1724   -0.3238   -1.0286 C   0  0  0  0  0  0  0  0  0  0  0  0
   -0.4710   -0.8973   -1.6987 H   0  0  0  0  0  0  0  0  0  0  0  0
    0.3286    0.6583   -1.4804 H   0  0  0  0  0  0  0  0  0  0  0  0
    1.5364   -1.0325   -0.9388 C   0  0  0  0  0  0  0  0  0  0  0  0
    2.3286   -0.2928   -0.8225 H   0  0  0  0  0  0  0  0  0  0  0  0
    1.6008   -2.0191    0.2307 C   0  0  0  0  0  0  0  0  0  0  0  0
    0.8030   -2.7571    0.1371 H   0  0  0  0  0  0  0  0  0  0  0  0
    2.5630   -2.5316    0.2261 H   0  0  0  0  0  0  0  0  0  0  0  0
    1.4930   -1.4978    1.1795 H   0  0  0  0  0  0  0  0  0  0  0  0
    1.8003   -1.8096   -2.2279 C   0  0  0  0  0  0  0  0  0  0  0  0
    1.7922   -1.1258   -3.0765 H   0  0  0  0  0  0  0  0  0  0  0  0
    2.7776   -2.2897   -2.1779 H   0  0  0  0  0  0  0  0  0  0  0  0
    1.0325   -2.5707   -2.3716 H   0  0  0  0  0  0  0  0  0  0  0  0
   -0.7793    1.3659    0.6455 C   0  0  0  0  0  0  0  0  0  0  0  0
   -1.6464    2.0125    0.0623 O   0  0  0  0  0  0  0  0  0  0  0  0
    0.0189    1.9059    1.5756 N   0  0  0  0  0  0  0  0  0  0  0  0
    0.7024    1.3094    2.0137 H   0  0  0  0  0  0  0  0  0  0  0  0
   -0.0451    3.3046    1.9929 C   0  0  0  0  0  0  0  0  0  0  0  0
   -1.0415    3.5286    2.3805 H   0  0  0  0  0  0  0  0  0  0  0  0
    0.6954    3.5023    2.7695 H   0  0  0  0  0  0  0  0  0  0  0  0
    0.1474    3.9536    1.1372 H   0  0  0  0  0  0  0  0  0  0  0  0
  5  6  2  0  0  0  0
  5  7  1  0  0  0  0
  2  3  1  0  0  0  0
  2  4  1  0  0  0  0
  2  5  1  0  0  0  0
  1  2  1  0  0  0  0
 24 25  2  0  0  0  0
 24 26  1  0  0  0  0
 20 21  1  0  0  0  0
 20 22  1  0  0  0  0
 20 23  1  0  0  0  0
 16 17  1  0  0  0  0
 16 18  1  0  0  0  0
 16 19  1  0  0  0  0
 14 15  1  0  0  0  0
 14 16  1  0  0  0  0
 14 20  1  0  0  0  0
 11 12  1  0  0  0  0
 11 13  1  0  0  0  0
 11 14  1  0  0  0  0
  9 10  1  0  0  0  0
  9 11  1  0  0  0  0
  9 24  1  0  0  0  0
  7  8  1  0  0  0  0
  7  9  1  0  0  0  0
 28 29  1  0  0  0  0
 28 30  1  0  0  0  0
 28 31  1  0  0  0  0
 26 27  1  0  0  0  0
 26 28  1  0  0  0  0
M  END
$$$$
default_name
  -OEChem-02102213163D

 31 30  0     1  0  0  0  0  0999 V2000
   -3.5895   -3.5013    1.1082 H   0  0  0  0  0  0  0  0  0  0  0  0
   -3.5145   -2.5363    0.6082 C   0  0  0  0  0  0  0  0  0  0  0  0
   -4.2285   -1.8413    1.0452 H   0  0  0  0  0  0  0  0  0  0  0  0
   -3.7155   -2.6583   -0.4538 H   0  0  0  0  0  0  0  0  0  0  0  0
   -2.1155   -1.9963    0.7922 C   0  0  0  0  0  0  0  0  0  0  0  0
   -1.2875   -2.6383    1.4252 O   0  0  0  0  0  0  0  0  0  0  0  0
   -1.8575   -0.8123    0.2402 N   0  0  0  0  0  0  0  0  0  0  0  0
   -2.6005   -0.3333   -0.2478 H   0  0  0  0  0  0  0  0  0  0  0  0
   -0.5675   -0.1203    0.3102 C   0  0  1  0  0  0  0  0  0  0  0  0
    0.0191   -0.5718    1.1110 H   0  0  0  0  0  0  0  0  0  0  0  0
    0.1724   -0.3238   -1.0286 C   0  0  0  0  0  0  0  0  0  0  0  0
   -0.4710   -0.8973   -1.6987 H   0  0  0  0  0  0  0  0  0  0  0  0
    0.3286    0.6583   -1.4804 H   0  0  0  0  0  0  0  0  0  0  0  0
    1.5364   -1.0325   -0.9388 C   0  0  0  0  0  0  0  0  0  0  0  0
    2.2877   -0.3385   -0.5618 H   0  0  0  0  0  0  0  0  0  0  0  0
    1.4916   -2.2617   -0.0265 C   0  0  0  0  0  0  0  0  0  0  0  0
    0.7321   -2.9594   -0.3819 H   0  0  0  0  0  0  0  0  0  0  0  0
    2.4622   -2.7583   -0.0317 H   0  0  0  0  0  0  0  0  0  0  0  0
    1.2583   -1.9730    0.9960 H   0  0  0  0  0  0  0  0  0  0  0  0
    1.9722   -1.4917   -2.3297 C   0  0  0  0  0  0  0  0  0  0  0  0
    2.0439   -0.6309   -2.9943 H   0  0  0  0  0  0  0  0  0  0  0  0
    2.9504   -1.9692   -2.2729 H   0  0  0  0  0  0  0  0  0  0  0  0
    1.2489   -2.2001   -2.7351 H   0  0  0  0  0  0  0  0  0  0  0  0
   -0.7793    1.3659    0.6455 C   0  0  0  0  0  0  0  0  0  0  0  0
   -1.6464    2.0125    0.0623 O   0  0  0  0  0  0  0  0  0  0  0  0
    0.0189    1.9059    1.5756 N   0  0  0  0  0  0  0  0  0  0  0  0
    0.7024    1.3094    2.0137 H   0  0  0  0  0  0  0  0  0  0  0  0
   -0.0451    3.3046    1.9929 C   0  0  0  0  0  0  0  0  0  0  0  0
   -1.0415    3.5286    2.3805 H   0  0  0  0  0  0  0  0  0  0  0  0
    0.6954    3.5023    2.7695 H   0  0  0  0  0  0  0  0  0  0  0  0
    0.1474    3.9536    1.1372 H   0  0  0  0  0  0  0  0  0  0  0  0
  5  6  2  0  0  0  0
  5  7  1  0  0  0  0
  2  3  1  0  0  0  0
  2  4  1  0  0  0  0
  2  5  1  0  0  0  0
  1  2  1  0  0  0  0
 24 25  2  0  0  0  0
 24 26  1  0  0  0  0
 20 21  1  0  0  0  0
 20 22  1  0  0  0  0
 20 23  1  0  0  0  0
 16 17  1  0  0  0  0
 16 18  1  0  0  0  0
 16 19  1  0  0  0  0
 14 15  1  0  0  0  0
 14 16  1  0  0  0  0
 14 20  1  0  0  0  0
 11 12  1  0  0  0  0
 11 13  1  0  0  0  0
 11 14  1  0  0  0  0
  9 10  1  0  0  0  0
  9 11  1  0  0  0  0
  9 24  1  0  0  0  0
  7  8  1  0  0  0  0
  7  9  1  0  0  0  0
 28 29  1  0  0  0  0
 28 30  1  0  0  0  0
 28 31  1  0  0  0  0
 26 27  1  0  0  0  0
 26 28  1  0  0  0  0
M  END
$$$$
default_name
  -OEChem-02102213163D

 31 30  0     1  0  0  0  0  0999 V2000
   -3.5895   -3.5013    1.1082 H   0  0  0  0  0  0  0  0  0  0  0  0
   -3.5145   -2.5363    0.6082 C   0  0  0  0  0  0  0  0  0  0  0  0
   -4.2285   -1.8413    1.0452 H   0  0  0  0  0  0  0  0  0  0  0  0
   -3.7155   -2.6583   -0.4538 H   0  0  0  0  0  0  0  0  0  0  0  0
   -2.1155   -1.9963    0.7922 C   0  0  0  0  0  0  0  0  0  0  0  0
   -1.2875   -2.6383    1.4252 O   0  0  0  0  0  0  0  0  0  0  0  0
   -1.8575   -0.8123    0.2402 N   0  0  0  0  0  0  0  0  0  0  0  0
   -2.6005   -0.3333   -0.2478 H   0  0  0  0  0  0  0  0  0  0  0  0
   -0.5675   -0.1203    0.3102 C   0  0  1  0  0  0  0  0  0  0  0  0
    0.0191   -0.5718    1.1110 H   0  0  0  0  0  0  0  0  0  0  0  0
    0.1724   -0.3238   -1.0286 C   0  0  0  0  0  0  0  0  0  0  0  0
   -0.4710   -0.8973   -1.6987 H   0  0  0  0  0  0  0  0  0  0  0  0
    0.3286    0.6583   -1.4804 H   0  0  0  0  0  0  0  0  0  0  0  0
    1.5364   -1.0325   -0.9388 C   0  0  0  0  0  0  0  0  0  0  0  0
    2.2178   -0.4430   -0.3253 H   0  0  0  0  0  0  0  0  0  0  0  0
    1.4206   -2.4387   -0.3436 C   0  0  0  0  0  0  0  0  0  0  0  0
    0.7285   -3.0368   -0.9381 H   0  0  0  0  0  0  0  0  0  0  0  0
    2.3990   -2.9196   -0.3447 H   0  0  0  0  0  0  0  0  0  0  0  0
    1.0605   -2.3934    0.6819 H   0  0  0  0  0  0  0  0  0  0  0  0
    2.1455   -1.1587   -2.3346 C   0  0  0  0  0  0  0  0  0  0  0  0
    2.2698   -0.1678   -2.7715 H   0  0  0  0  0  0  0  0  0  0  0  0
    3.1237   -1.6352   -2.2706 H   0  0  0  0  0  0  0  0  0  0  0  0
    1.4957   -1.7556   -2.9755 H   0  0  0  0  0  0  0  0  0  0  0  0
   -0.7793    1.3659    0.6455 C   0  0  0  0  0  0  0  0  0  0  0  0
   -1.6464    2.0125    0.0623 O   0  0  0  0  0  0  0  0  0  0  0  0
    0.0189    1.9059    1.5756 N   0  0  0  0  0  0  0  0  0  0  0  0
    0.7024    1.3094    2.0137 H   0  0  0  0  0  0  0  0  0  0  0  0
   -0.0451    3.3046    1.9929 C   0  0  0  0  0  0  0  0  0  0  0  0
   -1.0415    3.5286    2.3805 H   0  0  0  0  0  0  0  0  0  0  0  0
    0.6954    3.5023    2.7695 H   0  0  0  0  0  0  0  0  0  0  0  0
    0.1474    3.9536    1.1372 H   0  0  0  0  0  0  0  0  0  0  0  0
  5  6  2  0  0  0  0
  5  7  1  0  0  0  0
  2  3  1  0  0  0  0
  2  4  1  0  0  0  0
  2  5  1  0  0  0  0
  1  2  1  0  0  0  0
 24 25  2  0  0  0  0
 24 26  1  0  0  0  0
 20 21  1  0  0  0  0
 20 22  1  0  0  0  0
 20 23  1  0  0  0  0
 16 17  1  0  0  0  0
 16 18  1  0  0  0  0
 16 19  1  0  0  0  0
 14 15  1  0  0  0  0
 14 16  1  0  0  0  0
 14 20  1  0  0  0  0
 11 12  1  0  0  0  0
 11 13  1  0  0  0  0
 11 14  1  0  0  0  0
  9 10  1  0  0  0  0
  9 11  1  0  0  0  0
  9 24  1  0  0  0  0
  7  8  1  0  0  0  0
  7  9  1  0  0  0  0
 28 29  1  0  0  0  0
 28 30  1  0  0  0  0
 28 31  1  0  0  0  0
 26 27  1  0  0  0  0
 26 28  1  0  0  0  0
M  END
$$$$
default_name
  -OEChem-02102213163D

 31 30  0     1  0  0  0  0  0999 V2000
   -3.5895   -3.5013    1.1082 H   0  0  0  0  0  0  0  0  0  0  0  0
   -3.5145   -2.5363    0.6082 C   0  0  0  0  0  0  0  0  0  0  0  0
   -4.2285   -1.8413    1.0452 H   0  0  0  0  0  0  0  0  0  0  0  0
   -3.7155   -2.6583   -0.4538 H   0  0  0  0  0  0  0  0  0  0  0  0
   -2.1155   -1.9963    0.7922 C   0  0  0  0  0  0  0  0  0  0  0  0
   -1.2875   -2.6383    1.4252 O   0  0  0  0  0  0  0  0  0  0  0  0
   -1.8575   -0.8123    0.2402 N   0  0  0  0  0  0  0  0  0  0  0  0
   -2.6005   -0.3333   -0.2478 H   0  0  0  0  0  0  0  0  0  0  0  0
   -0.5675   -0.1203    0.3102 C   0  0  1  0  0  0  0  0  0  0  0  0
    0.0191   -0.5718    1.1110 H   0  0  0  0  0  0  0  0  0  0  0  0
    0.1724   -0.3238   -1.0286 C   0  0  0  0  0  0  0  0  0  0  0  0
   -0.4710   -0.8973   -1.6987 H   0  0  0  0  0  0  0  0  0  0  0  0
    0.3286    0.6583   -1.4804 H   0  0  0  0  0  0  0  0  0  0  0  0
    1.5364   -1.0325   -0.9388 C   0  0  0  0  0  0  0  0  0  0  0  0
    2.1237   -0.5992   -0.1292 H   0  0  0  0  0  0  0  0  0  0  0  0
    1.3923   -2.5381   -0.6990 C   0  0  0  0  0  0  0  0  0  0  0  0
    0.7925   -2.9841   -1.4935 H   0  0  0  0  0  0  0  0  0  0  0  0
    2.3777   -3.0046   -0.6916 H   0  0  0  0  0  0  0  0  0  0  0  0
    0.9133   -2.7305    0.2586 H   0  0  0  0  0  0  0  0  0  0  0  0
    2.3085   -0.8332   -2.2424 C   0  0  0  0  0  0  0  0  0  0  0  0
    2.4544    0.2317   -2.4231 H   0  0  0  0  0  0  0  0  0  0  0  0
    3.2859   -1.3106   -2.1711 H   0  0  0  0  0  0  0  0  0  0  0  0
    1.7560   -1.2674   -3.0764 H   0  0  0  0  0  0  0  0  0  0  0  0
   -0.7793    1.3659    0.6455 C   0  0  0  0  0  0  0  0  0  0  0  0
   -1.6464    2.0125    0.0623 O   0  0  0  0  0  0  0  0  0  0  0  0
    0.0189    1.9059    1.5756 N   0  0  0  0  0  0  0  0  0  0  0  0
    0.7024    1.3094    2.0137 H   0  0  0  0  0  0  0  0  0  0  0  0
   -0.0451    3.3046    1.9929 C   0  0  0  0  0  0  0  0  0  0  0  0
   -1.0415    3.5286    2.3805 H   0  0  0  0  0  0  0  0  0  0  0  0
    0.6954    3.5023    2.7695 H   0  0  0  0  0  0  0  0  0  0  0  0
    0.1474    3.9536    1.1372 H   0  0  0  0  0  0  0  0  0  0  0  0
  5  6  2  0  0  0  0
  5  7  1  0  0  0  0
  2  3  1  0  0  0  0
  2  4  1  0  0  0  0
  2  5  1  0  0  0  0
  1  2  1  0  0  0  0
 24 25  2  0  0  0  0
 24 26  1  0  0  0  0
 20 21  1  0  0  0  0
 20 22  1  0  0  0  0
 20 23  1  0  0  0  0
 16 17  1  0  0  0  0
 16 18  1  0  0  0  0
 16 19  1  0  0  0  0
 14 15  1  0  0  0  0
 14 16  1  0  0  0  0
 14 20  1  0  0  0  0
 11 12  1  0  0  0  0
 11 13  1  0  0  0  0
 11 14  1  0  0  0  0
  9 10  1  0  0  0  0
  9 11  1  0  0  0  0
  9 24  1  0  0  0  0
  7  8  1  0  0  0  0
  7  9  1  0  0  0  0
 28 29  1  0  0  0  0
 28 30  1  0  0  0  0
 28 31  1  0  0  0  0
 26 27  1  0  0  0  0
 26 28  1  0  0  0  0
M  END
$$$$
default_name
  -OEChem-02102213163D

 31 30  0     1  0  0  0  0  0999 V2000
   -3.5895   -3.5013    1.1082 H   0  0  0  0  0  0  0  0  0  0  0  0
   -3.5145   -2.5363    0.6082 C   0  0  0  0  0  0  0  0  0  0  0  0
   -4.2285   -1.8413    1.0452 H   0  0  0  0  0  0  0  0  0  0  0  0
   -3.7155   -2.6583   -0.4538 H   0  0  0  0  0  0  0  0  0  0  0  0
   -2.1155   -1.9963    0.7922 C   0  0  0  0  0  0  0  0  0  0  0  0
   -1.2875   -2.6383    1.4252 O   0  0  0  0  0  0  0  0  0  0  0  0
   -1.8575   -0.8123    0.2402 N   0  0  0  0  0  0  0  0  0  0  0  0
   -2.6005   -0.3333   -0.2478 H   0  0  0  0  0  0  0  0  0  0  0  0
   -0.5675   -0.1203    0.3102 C   0  0  1  0  0  0  0  0  0  0  0  0
    0.0191   -0.5718    1.1110 H   0  0  0  0  0  0  0  0  0  0  0  0
    0.1724   -0.3238   -1.0286 C   0  0  0  0  0  0  0  0  0  0  0  0
   -0.4710   -0.8973   -1.6987 H   0  0  0  0  0  0  0  0  0  0  0  0
    0.3286    0.6583   -1.4804 H   0  0  0  0  0  0  0  0  0  0  0  0
    1.5364   -1.0325   -0.9388 C   0  0  0  0  0  0  0  0  0  0  0  0
    2.0118   -0.7965    0.0133 H   0  0  0  0  0  0  0  0  0  0  0  0
    1.4089   -2.5530   -1.0684 C   0  0  0  0  0  0  0  0  0  0  0  0
    0.9196   -2.8049   -2.0103 H   0  0  0  0  0  0  0  0  0  0  0  0
    2.3997   -3.0076   -1.0487 H   0  0  0  0  0  0  0  0  0  0  0  0
    0.8265   -2.9613   -0.2452 H   0  0  0  0  0  0  0  0  0  0  0  0
    2.4501   -0.5375   -2.0593 C   0  0  0  0  0  0  0  0  0  0  0  0
    2.5852    0.5406   -1.9731 H   0  0  0  0  0  0  0  0  0  0  0  0
    3.4257   -1.0173   -1.9813 H   0  0  0  0  0  0  0  0  0  0  0  0
    2.0120   -0.7687   -3.0309 H   0  0  0  0  0  0  0  0  0  0  0  0
   -0.7793    1.3659    0.6455 C   0  0  0  0  0  0  0  0  0  0  0  0
   -1.6464    2.0125    0.0623 O   0  0  0  0  0  0  0  0  0  0  0  0
    0.0189    1.9059    1.5756 N   0  0  0  0  0  0  0  0  0  0  0  0
    0.7024    1.3094    2.0137 H   0  0  0  0  0  0  0  0  0  0  0  0
   -0.0451    3.3046    1.9929 C   0  0  0  0  0  0  0  0  0  0  0  0
   -1.0415    3.5286    2.3805 H   0  0  0  0  0  0  0  0  0  0  0  0
    0.6954    3.5023    2.7695 H   0  0  0  0  0  0  0  0  0  0  0  0
    0.1474    3.9536    1.1372 H   0  0  0  0  0  0  0  0  0  0  0  0
  5  6  2  0  0  0  0
  5  7  1  0  0  0  0
  2  3  1  0  0  0  0
  2  4  1  0  0  0  0
  2  5  1  0  0  0  0
  1  2  1  0  0  0  0
 24 25  2  0  0  0  0
 24 26  1  0  0  0  0
 20 21  1  0  0  0  0
 20 22  1  0  0  0  0
 20 23  1  0  0  0  0
 16 17  1  0  0  0  0
 16 18  1  0  0  0  0
 16 19  1  0  0  0  0
 14 15  1  0  0  0  0
 14 16  1  0  0  0  0
 14 20  1  0  0  0  0
 11 12  1  0  0  0  0
 11 13  1  0  0  0  0
 11 14  1  0  0  0  0
  9 10  1  0  0  0  0
  9 11  1  0  0  0  0
  9 24  1  0  0  0  0
  7  8  1  0  0  0  0
  7  9  1  0  0  0  0
 28 29  1  0  0  0  0
 28 30  1  0  0  0  0
 28 31  1  0  0  0  0
 26 27  1  0  0  0  0
 26 28  1  0  0  0  0
M  END
$$$$
default_name
  -OEChem-02102213163D

 31 30  0     1  0  0  0  0  0999 V2000
   -3.5895   -3.5013    1.1082 H   0  0  0  0  0  0  0  0  0  0  0  0
   -3.5145   -2.5363    0.6082 C   0  0  0  0  0  0  0  0  0  0  0  0
   -4.2285   -1.8413    1.0452 H   0  0  0  0  0  0  0  0  0  0  0  0
   -3.7155   -2.6583   -0.4538 H   0  0  0  0  0  0  0  0  0  0  0  0
   -2.1155   -1.9963    0.7922 C   0  0  0  0  0  0  0  0  0  0  0  0
   -1.2875   -2.6383    1.4252 O   0  0  0  0  0  0  0  0  0  0  0  0
   -1.8575   -0.8123    0.2402 N   0  0  0  0  0  0  0  0  0  0  0  0
   -2.6005   -0.3333   -0.2478 H   0  0  0  0  0  0  0  0  0  0  0  0
   -0.5675   -0.1203    0.3102 C   0  0  1  0  0  0  0  0  0  0  0  0
    0.0191   -0.5718    1.1110 H   0  0  0  0  0  0  0  0  0  0  0  0
    0.1724   -0.3238   -1.0286 C   0  0  0  0  0  0  0  0  0  0  0  0
   -0.4710   -0.8973   -1.6987 H   0  0  0  0  0  0  0  0  0  0  0  0
    0.3286    0.6583   -1.4804 H   0  0  0  0  0  0  0  0  0  0  0  0
    1.5364   -1.0325   -0.9388 C   0  0  0  0  0  0  0  0  0  0  0  0
    1.8898   -1.0214    0.0923 H   0  0  0  0  0  0  0  0  0  0  0  0
    1.4691   -2.4825   -1.4267 C   0  0  0  0  0  0  0  0  0  0  0  0
    1.1013   -2.5114   -2.4532 H   0  0  0  0  0  0  0  0  0  0  0  0
    2.4635   -2.9282   -1.3916 H   0  0  0  0  0  0  0  0  0  0  0  0
    0.8063   -3.0700   -0.7950 H   0  0  0  0  0  0  0  0  0  0  0  0
    2.5605   -0.2918   -1.7978 C   0  0  0  0  0  0  0  0  0  0  0  0
    2.6533    0.7377   -1.4519 H   0  0  0  0  0  0  0  0  0  0  0  0
    3.5338   -0.7754   -1.7141 H   0  0  0  0  0  0  0  0  0  0  0  0
    2.2464   -0.2936   -2.8422 H   0  0  0  0  0  0  0  0  0  0  0  0
   -0.7793    1.3659    0.6455 C   0  0  0  0  0  0  0  0  0  0  0  0
   -1.6464    2.0125    0.0623 O   0  0  0  0  0  0  0  0  0  0  0  0
    0.0189    1.9059    1.5756 N   0  0  0  0  0  0  0  0  0  0  0  0
    0.7024    1.3094    2.0137 H   0  0  0  0  0  0  0  0  0  0  0  0
   -0.0451    3.3046    1.9929 C   0  0  0  0  0  0  0  0  0  0  0  0
   -1.0415    3.5286    2.3805 H   0  0  0  0  0  0  0  0  0  0  0  0
    0.6954    3.5023    2.7695 H   0  0  0  0  0  0  0  0  0  0  0  0
    0.1474    3.9536    1.1372 H   0  0  0  0  0  0  0  0  0  0  0  0
  5  6  2  0  0  0  0
  5  7  1  0  0  0  0
  2  3  1  0  0  0  0
  2  4  1  0  0  0  0
  2  5  1  0  0  0  0
  1  2  1  0  0  0  0
 24 25  2  0  0  0  0
 24 26  1  0  0  0  0
 20 21  1  0  0  0  0
 20 22  1  0  0  0  0
 20 23  1  0  0  0  0
 16 17  1  0  0  0  0
 16 18  1  0  0  0  0
 16 19  1  0  0  0  0
 14 15  1  0  0  0  0
 14 16  1  0  0  0  0
 14 20  1  0  0  0  0
 11 12  1  0  0  0  0
 11 13  1  0  0  0  0
 11 14  1  0  0  0  0
  9 10  1  0  0  0  0
  9 11  1  0  0  0  0
  9 24  1  0  0  0  0
  7  8  1  0  0  0  0
  7  9  1  0  0  0  0
 28 29  1  0  0  0  0
 28 30  1  0  0  0  0
 28 31  1  0  0  0  0
 26 27  1  0  0  0  0
 26 28  1  0  0  0  0
M  END
$$$$
default_name
  -OEChem-02102213163D

 31 30  0     1  0  0  0  0  0999 V2000
   -3.5895   -3.5013    1.1082 H   0  0  0  0  0  0  0  0  0  0  0  0
   -3.5145   -2.5363    0.6082 C   0  0  0  0  0  0  0  0  0  0  0  0
   -4.2285   -1.8413    1.0452 H   0  0  0  0  0  0  0  0  0  0  0  0
   -3.7155   -2.6583   -0.4538 H   0  0  0  0  0  0  0  0  0  0  0  0
   -2.1155   -1.9963    0.7922 C   0  0  0  0  0  0  0  0  0  0  0  0
   -1.2875   -2.6383    1.4252 O   0  0  0  0  0  0  0  0  0  0  0  0
   -1.8575   -0.8123    0.2402 N   0  0  0  0  0  0  0  0  0  0  0  0
   -2.6005   -0.3333   -0.2478 H   0  0  0  0  0  0  0  0  0  0  0  0
   -0.5675   -0.1203    0.3102 C   0  0  1  0  0  0  0  0  0  0  0  0
    0.0191   -0.5718    1.1110 H   0  0  0  0  0  0  0  0  0  0  0  0
    0.1724   -0.3238   -1.0286 C   0  0  0  0  0  0  0  0  0  0  0  0
   -0.4710   -0.8973   -1.6987 H   0  0  0  0  0  0  0  0  0  0  0  0
    0.3286    0.6583   -1.4804 H   0  0  0  0  0  0  0  0  0  0  0  0
    1.5364   -1.0325   -0.9388 C   0  0  0  0  0  0  0  0  0  0  0  0
    1.7659   -1.2586    0.1025 H   0  0  0  0  0  0  0  0  0  0  0  0
    1.5689   -2.3314   -1.7494 C   0  0  0  0  0  0  0  0  0  0  0  0
    1.3251   -2.1235   -2.7921 H   0  0  0  0  0  0  0  0  0  0  0  0
    2.5648   -2.7719   -1.6971 H   0  0  0  0  0  0  0  0  0  0  0  0
    0.8538   -3.0493   -1.3535 H   0  0  0  0  0  0  0  0  0  0  0  0
    2.6324   -0.1127   -1.4757 C   0  0  0  0  0  0  0  0  0  0  0  0
    2.6540    0.8096   -0.8953 H   0  0  0  0  0  0  0  0  0  0  0  0
    3.6027   -0.6014   -1.3876 H   0  0  0  0  0  0  0  0  0  0  0  0
    2.4432    0.1255   -2.5230 H   0  0  0  0  0  0  0  0  0  0  0  0
   -0.7793    1.3659    0.6455 C   0  0  0  0  0  0  0  0  0  0  0  0
   -1.6464    2.0125    0.0623 O   0  0  0  0  0  0  0  0  0  0  0  0
    0.0189    1.9059    1.5756 N   0  0  0  0  0  0  0  0  0  0  0  0
    0.7024    1.3094    2.0137 H   0  0  0  0  0  0  0  0  0  0  0  0
   -0.0451    3.3046    1.9929 C   0  0  0  0  0  0  0  0  0  0  0  0
   -1.0415    3.5286    2.3805 H   0  0  0  0  0  0  0  0  0  0  0  0
    0.6954    3.5023    2.7695 H   0  0  0  0  0  0  0  0  0  0  0  0
    0.1474    3.9536    1.1372 H   0  0  0  0  0  0  0  0  0  0  0  0
  5  6  2  0  0  0  0
  5  7  1  0  0  0  0
  2  3  1  0  0  0  0
  2  4  1  0  0  0  0
  2  5  1  0  0  0  0
  1  2  1  0  0  0  0
 24 25  2  0  0  0  0
 24 26  1  0  0  0  0
 20 21  1  0  0  0  0
 20 22  1  0  0  0  0
 20 23  1  0  0  0  0
 16 17  1  0  0  0  0
 16 18  1  0  0  0  0
 16 19  1  0  0  0  0
 14 15  1  0  0  0  0
 14 16  1  0  0  0  0
 14 20  1  0  0  0  0
 11 12  1  0  0  0  0
 11 13  1  0  0  0  0
 11 14  1  0  0  0  0
  9 10  1  0  0  0  0
  9 11  1  0  0  0  0
  9 24  1  0  0  0  0
  7  8  1  0  0  0  0
  7  9  1  0  0  0  0
 28 29  1  0  0  0  0
 28 30  1  0  0  0  0
 28 31  1  0  0  0  0
 26 27  1  0  0  0  0
 26 28  1  0  0  0  0
M  END
$$$$
default_name
  -OEChem-02102213163D

 31 30  0     1  0  0  0  0  0999 V2000
   -3.5895   -3.5013    1.1082 H   0  0  0  0  0  0  0  0  0  0  0  0
   -3.5145   -2.5363    0.6082 C   0  0  0  0  0  0  0  0  0  0  0  0
   -4.2285   -1.8413    1.0452 H   0  0  0  0  0  0  0  0  0  0  0  0
   -3.7155   -2.6583   -0.4538 H   0  0  0  0  0  0  0  0  0  0  0  0
   -2.1155   -1.9963    0.7922 C   0  0  0  0  0  0  0  0  0  0  0  0
   -1.2875   -2.6383    1.4252 O   0  0  0  0  0  0  0  0  0  0  0  0
   -1.8575   -0.8123    0.2402 N   0  0  0  0  0  0  0  0  0  0  0  0
   -2.6005   -0.3333   -0.2478 H   0  0  0  0  0  0  0  0  0  0  0  0
   -0.5675   -0.1203    0.3102 C   0  0  1  0  0  0  0  0  0  0  0  0
    0.0191   -0.5718    1.1110 H   0  0  0  0  0  0  0  0  0  0  0  0
    0.1724   -0.3238   -1.0286 C   0  0  0  0  0  0  0  0  0  0  0  0
   -0.4710   -0.8973   -1.6987 H   0  0  0  0  0  0  0  0  0  0  0  0
    0.3286    0.6583   -1.4804 H   0  0  0  0  0  0  0  0  0  0  0  0
    1.5364   -1.0325   -0.9388 C   0  0  0  0  0  0  0  0  0  0  0  0
    1.6485   -1.4920    0.0432 H   0  0  0  0  0  0  0  0  0  0  0  0
    1.7015   -2.1098   -2.0145 C   0  0  0  0  0  0  0  0  0  0  0  0
    1.5758   -1.6679   -3.0039 H   0  0  0  0  0  0  0  0  0  0  0  0
    2.6967   -2.5494   -1.9443 H   0  0  0  0  0  0  0  0  0  0  0  0
    0.9660   -2.9005   -1.8825 H   0  0  0  0  0  0  0  0  0  0  0  0
    2.6607   -0.0125   -1.1149 C   0  0  0  0  0  0  0  0  0  0  0  0
    2.5873    0.7515   -0.3410 H   0  0  0  0  0  0  0  0  0  0  0  0
    3.6277   -0.5072   -1.0242 H   0  0  0  0  0  0  0  0  0  0  0  0
    2.5889    0.4602   -2.0951 H   0  0  0  0  0  0  0  0  0  0  0  0
   -0.7793    1.3659    0.6455 C   0  0  0  0  0  0  0  0  0  0  0  0
   -1.6464    2.0125    0.0623 O   0  0  0  0  0  0  0  0  0  0  0  0
    0.0189    1.9059    1.5756 N   0  0  0  0  0  0  0  0  0  0  0  0
    0.7024    1.3094    2.0137 H   0  0  0  0  0  0  0  0  0  0  0  0
   -0.0451    3.3046    1.9929 C   0  0  0  0  0  0  0  0  0  0  0  0
   -1.0415    3.5286    2.3805 H   0  0  0  0  0  0  0  0  0  0  0  0
    0.6954    3.5023    2.7695 H   0  0  0  0  0  0  0  0  0  0  0  0
    0.1474    3.9536    1.1372 H   0  0  0  0  0  0  0  0  0  0  0  0
  5  6  2  0  0  0  0
  5  7  1  0  0  0  0
  2  3  1  0  0  0  0
  2  4  1  0  0  0  0
  2  5  1  0  0  0  0
  1  2  1  0  0  0  0
 24 25  2  0  0  0  0
 24 26  1  0  0  0  0
 20 21  1  0  0  0  0
 20 22  1  0  0  0  0
 20 23  1  0  0  0  0
 16 17  1  0  0  0  0
 16 18  1  0  0  0  0
 16 19  1  0  0  0  0
 14 15  1  0  0  0  0
 14 16  1  0  0  0  0
 14 20  1  0  0  0  0
 11 12  1  0  0  0  0
 11 13  1  0  0  0  0
 11 14  1  0  0  0  0
  9 10  1  0  0  0  0
  9 11  1  0  0  0  0
  9 24  1  0  0  0  0
  7  8  1  0  0  0  0
  7  9  1  0  0  0  0
 28 29  1  0  0  0  0
 28 30  1  0  0  0  0
 28 31  1  0  0  0  0
 26 27  1  0  0  0  0
 26 28  1  0  0  0  0
M  END
$$$$
default_name
  -OEChem-02102213163D

 31 30  0     1  0  0  0  0  0999 V2000
   -3.5895   -3.5013    1.1082 H   0  0  0  0  0  0  0  0  0  0  0  0
   -3.5145   -2.5363    0.6082 C   0  0  0  0  0  0  0  0  0  0  0  0
   -4.2285   -1.8413    1.0452 H   0  0  0  0  0  0  0  0  0  0  0  0
   -3.7155   -2.6583   -0.4538 H   0  0  0  0  0  0  0  0  0  0  0  0
   -2.1155   -1.9963    0.7922 C   0  0  0  0  0  0  0  0  0  0  0  0
   -1.2875   -2.6383    1.4252 O   0  0  0  0  0  0  0  0  0  0  0  0
   -1.8575   -0.8123    0.2402 N   0  0  0  0  0  0  0  0  0  0  0  0
   -2.6005   -0.3333   -0.2478 H   0  0  0  0  0  0  0  0  0  0  0  0
   -0.5675   -0.1203    0.3102 C   0  0  1  0  0  0  0  0  0  0  0  0
    0.0191   -0.5718    1.1110 H   0  0  0  0  0  0  0  0  0  0  0  0
    0.1724   -0.3238   -1.0286 C   0  0  0  0  0  0  0  0  0  0  0  0
   -0.4710   -0.8973   -1.6987 H   0  0  0  0  0  0  0  0  0  0  0  0
    0.3286    0.6583   -1.4804 H   0  0  0  0  0  0  0  0  0  0  0  0
    1.5364   -1.0325   -0.9388 C   0  0  0  0  0  0  0  0  0  0  0  0
    1.5458   -1.7056   -0.0815 H   0  0  0  0  0  0  0  0  0  0  0  0
    1.8577   -1.8331   -2.2041 C   0  0  0  0  0  0  0  0  0  0  0  0
    1.8363   -1.1754   -3.0741 H   0  0  0  0  0  0  0  0  0  0  0  0
    2.8502   -2.2758   -2.1163 H   0  0  0  0  0  0  0  0  0  0  0  0
    1.1351   -2.6337   -2.3460 H   0  0  0  0  0  0  0  0  0  0  0  0
    2.6435    0.0021   -0.7401 C   0  0  0  0  0  0  0  0  0  0  0  0
    2.4577    0.5672    0.1731 H   0  0  0  0  0  0  0  0  0  0  0  0
    3.6071   -0.4991   -0.6485 H   0  0  0  0  0  0  0  0  0  0  0  0
    2.6736    0.6876   -1.5878 H   0  0  0  0  0  0  0  0  0  0  0  0
   -0.7793    1.3659    0.6455 C   0  0  0  0  0  0  0  0  0  0  0  0
   -1.6464    2.0125    0.0623 O   0  0  0  0  0  0  0  0  0  0  0  0
    0.0189    1.9059    1.5756 N   0  0  0  0  0  0  0  0  0  0  0  0
    0.7024    1.3094    2.0137 H   0  0  0  0  0  0  0  0  0  0  0  0
   -0.0451    3.3046    1.9929 C   0  0  0  0  0  0  0  0  0  0  0  0
   -1.0415    3.5286    2.3805 H   0  0  0  0  0  0  0  0  0  0  0  0
    0.6954    3.5023    2.7695 H   0  0  0  0  0  0  0  0  0  0  0  0
    0.1474    3.9536    1.1372 H   0  0  0  0  0  0  0  0  0  0  0  0
  5  6  2  0  0  0  0
  5  7  1  0  0  0  0
  2  3  1  0  0  0  0
  2  4  1  0  0  0  0
  2  5  1  0  0  0  0
  1  2  1  0  0  0  0
 24 25  2  0  0  0  0
 24 26  1  0  0  0  0
 20 21  1  0  0  0  0
 20 22  1  0  0  0  0
 20 23  1  0  0  0  0
 16 17  1  0  0  0  0
 16 18  1  0  0  0  0
 16 19  1  0  0  0  0
 14 15  1  0  0  0  0
 14 16  1  0  0  0  0
 14 20  1  0  0  0  0
 11 12  1  0  0  0  0
 11 13  1  0  0  0  0
 11 14  1  0  0  0  0
  9 10  1  0  0  0  0
  9 11  1  0  0  0  0
  9 24  1  0  0  0  0
  7  8  1  0  0  0  0
  7  9  1  0  0  0  0
 28 29  1  0  0  0  0
 28 30  1  0  0  0  0
 28 31  1  0  0  0  0
 26 27  1  0  0  0  0
 26 28  1  0  0  0  0
M  END
$$$$
default_name
  -OEChem-02102213163D

 31 30  0     1  0  0  0  0  0999 V2000
   -3.5895   -3.5013    1.1082 H   0  0  0  0  0  0  0  0  0  0  0  0
   -3.5145   -2.5363    0.6082 C   0  0  0  0  0  0  0  0  0  0  0  0
   -4.2285   -1.8413    1.0452 H   0  0  0  0  0  0  0  0  0  0  0  0
   -3.7155   -2.6583   -0.4538 H   0  0  0  0  0  0  0  0  0  0  0  0
   -2.1155   -1.9963    0.7922 C   0  0  0  0  0  0  0  0  0  0  0  0
   -1.2875   -2.6383    1.4252 O   0  0  0  0  0  0  0  0  0  0  0  0
   -1.8575   -0.8123    0.2402 N   0  0  0  0  0  0  0  0  0  0  0  0
   -2.6005   -0.3333   -0.2478 H   0  0  0  0  0  0  0  0  0  0  0  0
   -0.5675   -0.1203    0.3102 C   0  0  1  0  0  0  0  0  0  0  0  0
    0.0191   -0.5718    1.1110 H   0  0  0  0  0  0  0  0  0  0  0  0
    0.1724   -0.3238   -1.0286 C   0  0  0  0  0  0  0  0  0  0  0  0
   -0.4710   -0.8973   -1.6987 H   0  0  0  0  0  0  0  0  0  0  0  0
    0.3286    0.6583   -1.4804 H   0  0  0  0  0  0  0  0  0  0  0  0
    1.5364   -1.0325   -0.9388 C   0  0  0  0  0  0  0  0  0  0  0  0
    1.4646   -1.8848   -0.2632 H   0  0  0  0  0  0  0  0  0  0  0  0
    2.0271   -1.5199   -2.3051 C   0  0  0  0  0  0  0  0  0  0  0  0
    2.0888   -0.6796   -2.9980 H   0  0  0  0  0  0  0  0  0  0  0  0
    3.0148   -1.9697   -2.2014 H   0  0  0  0  0  0  0  0  0  0  0  0
    1.3496   -2.2673   -2.7124 H   0  0  0  0  0  0  0  0  0  0  0  0
    2.5821   -0.0701   -0.3768 C   0  0  0  0  0  0  0  0  0  0  0  0
    2.2741    0.2694    0.6121 H   0  0  0  0  0  0  0  0  0  0  0  0
    3.5424   -0.5778   -0.2863 H   0  0  0  0  0  0  0  0  0  0  0  0
    2.6915    0.7922   -1.0355 H   0  0  0  0  0  0  0  0  0  0  0  0
   -0.7793    1.3659    0.6455 C   0  0  0  0  0  0  0  0  0  0  0  0
   -1.6464    2.0125    0.0623 O   0  0  0  0  0  0  0  0  0  0  0  0
    0.0189    1.9059    1.5756 N   0  0  0  0  0  0  0  0  0  0  0  0
    0.7024    1.3094    2.0137 H   0  0  0  0  0  0  0  0  0  0  0  0
   -0.0451    3.3046    1.9929 C   0  0  0  0  0  0  0  0  0  0  0  0
   -1.0415    3.5286    2.3805 H   0  0  0  0  0  0  0  0  0  0  0  0
    0.6954    3.5023    2.7695 H   0  0  0  0  0  0  0  0  0  0  0  0
    0.1474    3.9536    1.1372 H   0  0  0  0  0  0  0  0  0  0  0  0
  5  6  2  0  0  0  0
  5  7  1  0  0  0  0
  2  3  1  0  0  0  0
  2  4  1  0  0  0  0
  2  5  1  0  0  0  0
  1  2  1  0  0  0  0
 24 25  2  0  0  0  0
 24 26  1  0  0  0  0
 20 21  1  0  0  0  0
 20 22  1  0  0  0  0
 20 23  1  0  0  0  0
 16 17  1  0  0  0  0
 16 18  1  0  0  0  0
 16 19  1  0  0  0  0
 14 15  1  0  0  0  0
 14 16  1  0  0  0  0
 14 20  1  0  0  0  0
 11 12  1  0  0  0  0
 11 13  1  0  0  0  0
 11 14  1  0  0  0  0
  9 10  1  0  0  0  0
  9 11  1  0  0  0  0
  9 24  1  0  0  0  0
  7  8  1  0  0  0  0
  7  9  1  0  0  0  0
 28 29  1  0  0  0  0
 28 30  1  0  0  0  0
 28 31  1  0  0  0  0
 26 27  1  0  0  0  0
 26 28  1  0  0  0  0
M  END
$$$$
default_name
  -OEChem-02102213163D

 31 30  0     1  0  0  0  0  0999 V2000
   -3.5895   -3.5013    1.1082 H   0  0  0  0  0  0  0  0  0  0  0  0
   -3.5145   -2.5363    0.6082 C   0  0  0  0  0  0  0  0  0  0  0  0
   -4.2285   -1.8413    1.0452 H   0  0  0  0  0  0  0  0  0  0  0  0
   -3.7155   -2.6583   -0.4538 H   0  0  0  0  0  0  0  0  0  0  0  0
   -2.1155   -1.9963    0.7922 C   0  0  0  0  0  0  0  0  0  0  0  0
   -1.2875   -2.6383    1.4252 O   0  0  0  0  0  0  0  0  0  0  0  0
   -1.8575   -0.8123    0.2402 N   0  0  0  0  0  0  0  0  0  0  0  0
   -2.6005   -0.3333   -0.2478 H   0  0  0  0  0  0  0  0  0  0  0  0
   -0.5675   -0.1203    0.3102 C   0  0  1  0  0  0  0  0  0  0  0  0
    0.0191   -0.5718    1.1110 H   0  0  0  0  0  0  0  0  0  0  0  0
    0.1724   -0.3238   -1.0286 C   0  0  0  0  0  0  0  0  0  0  0  0
   -0.5493   -0.6517   -1.7793 H   0  0  0  0  0  0  0  0  0  0  0  0
    0.5648    0.6443   -1.3477 H   0  0  0  0  0  0  0  0  0  0  0  0
    1.3387   -1.3288   -1.0030 C   0  0  0  0  0  0  0  0  0  0  0  0
    0.9754   -2.3064   -0.6861 H   0  0  0  0  0  0  0  0  0  0  0  0
    2.0138   -1.4677   -2.3706 C   0  0  0  0  0  0  0  0  0  0  0  0
    2.3689   -0.4935   -2.7092 H   0  0  0  0  0  0  0  0  0  0  0  0
    2.8613   -2.1493   -2.2941 H   0  0  0  0  0  0  0  0  0  0  0  0
    1.3166   -1.8665   -3.1044 H   0  0  0  0  0  0  0  0  0  0  0  0
    2.3949   -0.8683    0.0009 C   0  0  0  0  0  0  0  0  0  0  0  0
    1.9493   -0.7912    0.9926 H   0  0  0  0  0  0  0  0  0  0  0  0
    3.2087   -1.5924    0.0411 H   0  0  0  0  0  0  0  0  0  0  0  0
    2.7925    0.1041   -0.2917 H   0  0  0  0  0  0  0  0  0  0  0  0
   -0.7793    1.3659    0.6455 C   0  0  0  0  0  0  0  0  0  0  0  0
   -1.6464    2.0125    0.0623 O   0  0  0  0  0  0  0  0  0  0  0  0
    0.0189    1.9059    1.5756 N   0  0  0  0  0  0  0  0  0  0  0  0
    0.7024    1.3094    2.0137 H   0  0  0  0  0  0  0  0  0  0  0  0
   -0.0451    3.3046    1.9929 C   0  0  0  0  0  0  0  0  0  0  0  0
   -1.0415    3.5286    2.3805 H   0  0  0  0  0  0  0  0  0  0  0  0
    0.6954    3.5023    2.7695 H   0  0  0  0  0  0  0  0  0  0  0  0
    0.1474    3.9536    1.1372 H   0  0  0  0  0  0  0  0  0  0  0  0
  5  6  2  0  0  0  0
  5  7  1  0  0  0  0
  2  3  1  0  0  0  0
  2  4  1  0  0  0  0
  2  5  1  0  0  0  0
  1  2  1  0  0  0  0
 24 25  2  0  0  0  0
 24 26  1  0  0  0  0
 20 21  1  0  0  0  0
 20 22  1  0  0  0  0
 20 23  1  0  0  0  0
 16 17  1  0  0  0  0
 16 18  1  0  0  0  0
 16 19  1  0  0  0  0
 14 15  1  0  0  0  0
 14 16  1  0  0  0  0
 14 20  1  0  0  0  0
 11 12  1  0  0  0  0
 11 13  1  0  0  0  0
 11 14  1  0  0  0  0
  9 10  1  0  0  0  0
  9 11  1  0  0  0  0
  9 24  1  0  0  0  0
  7  8  1  0  0  0  0
  7  9  1  0  0  0  0
 28 29  1  0  0  0  0
 28 30  1  0  0  0  0
 28 31  1  0  0  0  0
 26 27  1  0  0  0  0
 26 28  1  0  0  0  0
M  END
$$$$
default_name
  -OEChem-02102213163D

 31 30  0     1  0  0  0  0  0999 V2000
   -3.5895   -3.5013    1.1082 H   0  0  0  0  0  0  0  0  0  0  0  0
   -3.5145   -2.5363    0.6082 C   0  0  0  0  0  0  0  0  0  0  0  0
   -4.2285   -1.8413    1.0452 H   0  0  0  0  0  0  0  0  0  0  0  0
   -3.7155   -2.6583   -0.4538 H   0  0  0  0  0  0  0  0  0  0  0  0
   -2.1155   -1.9963    0.7922 C   0  0  0  0  0  0  0  0  0  0  0  0
   -1.2875   -2.6383    1.4252 O   0  0  0  0  0  0  0  0  0  0  0  0
   -1.8575   -0.8123    0.2402 N   0  0  0  0  0  0  0  0  0  0  0  0
   -2.6005   -0.3333   -0.2478 H   0  0  0  0  0  0  0  0  0  0  0  0
   -0.5675   -0.1203    0.3102 C   0  0  1  0  0  0  0  0  0  0  0  0
    0.0191   -0.5718    1.1110 H   0  0  0  0  0  0  0  0  0  0  0  0
    0.1724   -0.3238   -1.0286 C   0  0  0  0  0  0  0  0  0  0  0  0
   -0.5493   -0.6517   -1.7793 H   0  0  0  0  0  0  0  0  0  0  0  0
    0.5648    0.6443   -1.3477 H   0  0  0  0  0  0  0  0  0  0  0  0
    1.3387   -1.3288   -1.0030 C   0  0  0  0  0  0  0  0  0  0  0  0
    0.9479   -2.3449   -0.9497 H   0  0  0  0  0  0  0  0  0  0  0  0
    2.2373   -1.2049   -2.2368 C   0  0  0  0  0  0  0  0  0  0  0  0
    2.6237   -0.1876   -2.3131 H   0  0  0  0  0  0  0  0  0  0  0  0
    3.0740   -1.8987   -2.1528 H   0  0  0  0  0  0  0  0  0  0  0  0
    1.6824   -1.4430   -3.1417 H   0  0  0  0  0  0  0  0  0  0  0  0
    2.2007   -1.0878    0.2357 C   0  0  0  0  0  0  0  0  0  0  0  0
    1.5928   -1.2013    1.1332 H   0  0  0  0  0  0  0  0  0  0  0  0
    3.0112   -1.8158    0.2706 H   0  0  0  0  0  0  0  0  0  0  0  0
    2.6213   -0.0819    0.2107 H   0  0  0  0  0  0  0  0  0  0  0  0
   -0.7793    1.3659    0.6455 C   0  0  0  0  0  0  0  0  0  0  0  0
   -1.6464    2.0125    0.0623 O   0  0  0  0  0  0  0  0  0  0  0  0
    0.0189    1.9059    1.5756 N   0  0  0  0  0  0  0  0  0  0  0  0
    0.7024    1.3094    2.0137 H   0  0  0  0  0  0  0  0  0  0  0  0
   -0.0451    3.3046    1.9929 C   0  0  0  0  0  0  0  0  0  0  0  0
   -1.0415    3.5286    2.3805 H   0  0  0  0  0  0  0  0  0  0  0  0
    0.6954    3.5023    2.7695 H   0  0  0  0  0  0  0  0  0  0  0  0
    0.1474    3.9536    1.1372 H   0  0  0  0  0  0  0  0  0  0  0  0
  5  6  2  0  0  0  0
  5  7  1  0  0  0  0
  2  3  1  0  0  0  0
  2  4  1  0  0  0  0
  2  5  1  0  0  0  0
  1  2  1  0  0  0  0
 24 25  2  0  0  0  0
 24 26  1  0  0  0  0
 20 21  1  0  0  0  0
 20 22  1  0  0  0  0
 20 23  1  0  0  0  0
 16 17  1  0  0  0  0
 16 18  1  0  0  0  0
 16 19  1  0  0  0  0
 14 15  1  0  0  0  0
 14 16  1  0  0  0  0
 14 20  1  0  0  0  0
 11 12  1  0  0  0  0
 11 13  1  0  0  0  0
 11 14  1  0  0  0  0
  9 10  1  0  0  0  0
  9 11  1  0  0  0  0
  9 24  1  0  0  0  0
  7  8  1  0  0  0  0
  7  9  1  0  0  0  0
 28 29  1  0  0  0  0
 28 30  1  0  0  0  0
 28 31  1  0  0  0  0
 26 27  1  0  0  0  0
 26 28  1  0  0  0  0
M  END
$$$$
default_name
  -OEChem-02102213163D

 31 30  0     1  0  0  0  0  0999 V2000
   -3.5895   -3.5013    1.1082 H   0  0  0  0  0  0  0  0  0  0  0  0
   -3.5145   -2.5363    0.6082 C   0  0  0  0  0  0  0  0  0  0  0  0
   -4.2285   -1.8413    1.0452 H   0  0  0  0  0  0  0  0  0  0  0  0
   -3.7155   -2.6583   -0.4538 H   0  0  0  0  0  0  0  0  0  0  0  0
   -2.1155   -1.9963    0.7922 C   0  0  0  0  0  0  0  0  0  0  0  0
   -1.2875   -2.6383    1.4252 O   0  0  0  0  0  0  0  0  0  0  0  0
   -1.8575   -0.8123    0.2402 N   0  0  0  0  0  0  0  0  0  0  0  0
   -2.6005   -0.3333   -0.2478 H   0  0  0  0  0  0  0  0  0  0  0  0
   -0.5675   -0.1203    0.3102 C   0  0  1  0  0  0  0  0  0  0  0  0
    0.0191   -0.5718    1.1110 H   0  0  0  0  0  0  0  0  0  0  0  0
    0.1724   -0.3238   -1.0286 C   0  0  0  0  0  0  0  0  0  0  0  0
   -0.5493   -0.6517   -1.7793 H   0  0  0  0  0  0  0  0  0  0  0  0
    0.5648    0.6443   -1.3477 H   0  0  0  0  0  0  0  0  0  0  0  0
    1.3387   -1.3288   -1.0030 C   0  0  0  0  0  0  0  0  0  0  0  0
    0.9661   -2.3306   -1.2165 H   0  0  0  0  0  0  0  0  0  0  0  0
    2.4295   -0.9762   -2.0184 C   0  0  0  0  0  0  0  0  0  0  0  0
    2.8017    0.0313   -1.8276 H   0  0  0  0  0  0  0  0  0  0  0  0
    3.2546   -1.6835   -1.9313 H   0  0  0  0  0  0  0  0  0  0  0  0
    2.0402   -1.0250   -3.0330 H   0  0  0  0  0  0  0  0  0  0  0  0
    1.9744   -1.3466    0.3866 C   0  0  0  0  0  0  0  0  0  0  0  0
    1.2265   -1.6266    1.1284 H   0  0  0  0  0  0  0  0  0  0  0  0
    2.7826   -2.0774    0.4152 H   0  0  0  0  0  0  0  0  0  0  0  0
    2.3718   -0.3607    0.6306 H   0  0  0  0  0  0  0  0  0  0  0  0
   -0.7793    1.3659    0.6455 C   0  0  0  0  0  0  0  0  0  0  0  0
   -1.6464    2.0125    0.0623 O   0  0  0  0  0  0  0  0  0  0  0  0
    0.0189    1.9059    1.5756 N   0  0  0  0  0  0  0  0  0  0  0  0
    0.7024    1.3094    2.0137 H   0  0  0  0  0  0  0  0  0  0  0  0
   -0.0451    3.3046    1.9929 C   0  0  0  0  0  0  0  0  0  0  0  0
   -1.0415    3.5286    2.3805 H   0  0  0  0  0  0  0  0  0  0  0  0
    0.6954    3.5023    2.7695 H   0  0  0  0  0  0  0  0  0  0  0  0
    0.1474    3.9536    1.1372 H   0  0  0  0  0  0  0  0  0  0  0  0
  5  6  2  0  0  0  0
  5  7  1  0  0  0  0
  2  3  1  0  0  0  0
  2  4  1  0  0  0  0
  2  5  1  0  0  0  0
  1  2  1  0  0  0  0
 24 25  2  0  0  0  0
 24 26  1  0  0  0  0
 20 21  1  0  0  0  0
 20 22  1  0  0  0  0
 20 23  1  0  0  0  0
 16 17  1  0  0  0  0
 16 18  1  0  0  0  0
 16 19  1  0  0  0  0
 14 15  1  0  0  0  0
 14 16  1  0  0  0  0
 14 20  1  0  0  0  0
 11 12  1  0  0  0  0
 11 13  1  0  0  0  0
 11 14  1  0  0  0  0
  9 10  1  0  0  0  0
  9 11  1  0  0  0  0
  9 24  1  0  0  0  0
  7  8  1  0  0  0  0
  7  9  1  0  0  0  0
 28 29  1  0  0  0  0
 28 30  1  0  0  0  0
 28 31  1  0  0  0  0
 26 27  1  0  0  0  0
 26 28  1  0  0  0  0
M  END
$$$$
default_name
  -OEChem-02102213163D

 31 30  0     1  0  0  0  0  0999 V2000
   -3.5895   -3.5013    1.1082 H   0  0  0  0  0  0  0  0  0  0  0  0
   -3.5145   -2.5363    0.6082 C   0  0  0  0  0  0  0  0  0  0  0  0
   -4.2285   -1.8413    1.0452 H   0  0  0  0  0  0  0  0  0  0  0  0
   -3.7155   -2.6583   -0.4538 H   0  0  0  0  0  0  0  0  0  0  0  0
   -2.1155   -1.9963    0.7922 C   0  0  0  0  0  0  0  0  0  0  0  0
   -1.2875   -2.6383    1.4252 O   0  0  0  0  0  0  0  0  0  0  0  0
   -1.8575   -0.8123    0.2402 N   0  0  0  0  0  0  0  0  0  0  0  0
   -2.6005   -0.3333   -0.2478 H   0  0  0  0  0  0  0  0  0  0  0  0
   -0.5675   -0.1203    0.3102 C   0  0  1  0  0  0  0  0  0  0  0  0
    0.0191   -0.5718    1.1110 H   0  0  0  0  0  0  0  0  0  0  0  0
    0.1724   -0.3238   -1.0286 C   0  0  0  0  0  0  0  0  0  0  0  0
   -0.5493   -0.6517   -1.7793 H   0  0  0  0  0  0  0  0  0  0  0  0
    0.5648    0.6443   -1.3477 H   0  0  0  0  0  0  0  0  0  0  0  0
    1.3387   -1.3288   -1.0030 C   0  0  0  0  0  0  0  0  0  0  0  0
    1.0287   -2.2644   -1.4684 H   0  0  0  0  0  0  0  0  0  0  0  0
    2.5773   -0.7974   -1.7301 C   0  0  0  0  0  0  0  0  0  0  0  0
    2.8906    0.1483   -1.2856 H   0  0  0  0  0  0  0  0  0  0  0  0
    3.3907   -1.5183   -1.6446 H   0  0  0  0  0  0  0  0  0  0  0  0
    2.3656   -0.6410   -2.7856 H   0  0  0  0  0  0  0  0  0  0  0  0
    1.7314   -1.6272    0.4434 C   0  0  0  0  0  0  0  0  0  0  0  0
    0.8753   -2.0380    0.9785 H   0  0  0  0  0  0  0  0  0  0  0  0
    2.5385   -2.3594    0.4649 H   0  0  0  0  0  0  0  0  0  0  0  0
    2.0610   -0.7135    0.9393 H   0  0  0  0  0  0  0  0  0  0  0  0
   -0.7793    1.3659    0.6455 C   0  0  0  0  0  0  0  0  0  0  0  0
   -1.6464    2.0125    0.0623 O   0  0  0  0  0  0  0  0  0  0  0  0
    0.0189    1.9059    1.5756 N   0  0  0  0  0  0  0  0  0  0  0  0
    0.7024    1.3094    2.0137 H   0  0  0  0  0  0  0  0  0  0  0  0
   -0.0451    3.3046    1.9929 C   0  0  0  0  0  0  0  0  0  0  0  0
   -1.0415    3.5286    2.3805 H   0  0  0  0  0  0  0  0  0  0  0  0
    0.6954    3.5023    2.7695 H   0  0  0  0  0  0  0  0  0  0  0  0
    0.1474    3.9536    1.1372 H   0  0  0  0  0  0  0  0  0  0  0  0
  5  6  2  0  0  0  0
  5  7  1  0  0  0  0
  2  3  1  0  0  0  0
  2  4  1  0  0  0  0
  2  5  1  0  0  0  0
  1  2  1  0  0  0  0
 24 25  2  0  0  0  0
 24 26  1  0  0  0  0
 20 21  1  0  0  0  0
 20 22  1  0  0  0  0
 20 23  1  0  0  0  0
 16 17  1  0  0  0  0
 16 18  1  0  0  0  0
 16 19  1  0  0  0  0
 14 15  1  0  0  0  0
 14 16  1  0  0  0  0
 14 20  1  0  0  0  0
 11 12  1  0  0  0  0
 11 13  1  0  0  0  0
 11 14  1  0  0  0  0
  9 10  1  0  0  0  0
  9 11  1  0  0  0  0
  9 24  1  0  0  0  0
  7  8  1  0  0  0  0
  7  9  1  0  0  0  0
 28 29  1  0  0  0  0
 28 30  1  0  0  0  0
 28 31  1  0  0  0  0
 26 27  1  0  0  0  0
 26 28  1  0  0  0  0
M  END
$$$$
default_name
  -OEChem-02102213163D

 31 30  0     1  0  0  0  0  0999 V2000
   -3.5895   -3.5013    1.1082 H   0  0  0  0  0  0  0  0  0  0  0  0
   -3.5145   -2.5363    0.6082 C   0  0  0  0  0  0  0  0  0  0  0  0
   -4.2285   -1.8413    1.0452 H   0  0  0  0  0  0  0  0  0  0  0  0
   -3.7155   -2.6583   -0.4538 H   0  0  0  0  0  0  0  0  0  0  0  0
   -2.1155   -1.9963    0.7922 C   0  0  0  0  0  0  0  0  0  0  0  0
   -1.2875   -2.6383    1.4252 O   0  0  0  0  0  0  0  0  0  0  0  0
   -1.8575   -0.8123    0.2402 N   0  0  0  0  0  0  0  0  0  0  0  0
   -2.6005   -0.3333   -0.2478 H   0  0  0  0  0  0  0  0  0  0  0  0
   -0.5675   -0.1203    0.3102 C   0  0  1  0  0  0  0  0  0  0  0  0
    0.0191   -0.5718    1.1110 H   0  0  0  0  0  0  0  0  0  0  0  0
    0.1724   -0.3238   -1.0286 C   0  0  0  0  0  0  0  0  0  0  0  0
   -0.5493   -0.6517   -1.7793 H   0  0  0  0  0  0  0  0  0  0  0  0
    0.5648    0.6443   -1.3477 H   0  0  0  0  0  0  0  0  0  0  0  0
    1.3387   -1.3288   -1.0030 C   0  0  0  0  0  0  0  0  0  0  0  0
    1.1314   -2.1508   -1.6881 H   0  0  0  0  0  0  0  0  0  0  0  0
    2.6706   -0.6805   -1.3916 C   0  0  0  0  0  0  0  0  0  0  0  0
    2.8844    0.1554   -0.7241 H   0  0  0  0  0  0  0  0  0  0  0  0
    3.4730   -1.4143   -1.3123 H   0  0  0  0  0  0  0  0  0  0  0  0
    2.6365   -0.3172   -2.4164 H   0  0  0  0  0  0  0  0  0  0  0  0
    1.4883   -1.9103    0.4023 C   0  0  0  0  0  0  0  0  0  0  0  0
    0.5631   -2.4075    0.6938 H   0  0  0  0  0  0  0  0  0  0  0  0
    2.2955   -2.6426    0.4164 H   0  0  0  0  0  0  0  0  0  0  0  0
    1.7103   -1.1161    1.1159 H   0  0  0  0  0  0  0  0  0  0  0  0
   -0.7793    1.3659    0.6455 C   0  0  0  0  0  0  0  0  0  0  0  0
   -1.6464    2.0125    0.0623 O   0  0  0  0  0  0  0  0  0  0  0  0
    0.0189    1.9059    1.5756 N   0  0  0  0  0  0  0  0  0  0  0  0
    0.7024    1.3094    2.0137 H   0  0  0  0  0  0  0  0  0  0  0  0
   -0.0451    3.3046    1.9929 C   0  0  0  0  0  0  0  0  0  0  0  0
   -1.0415    3.5286    2.3805 H   0  0  0  0  0  0  0  0  0  0  0  0
    0.6954    3.5023    2.7695 H   0  0  0  0  0  0  0  0  0  0  0  0
    0.1474    3.9536    1.1372 H   0  0  0  0  0  0  0  0  0  0  0  0
  5  6  2  0  0  0  0
  5  7  1  0  0  0  0
  2  3  1  0  0  0  0
  2  4  1  0  0  0  0
  2  5  1  0  0  0  0
  1  2  1  0  0  0  0
 24 25  2  0  0  0  0
 24 26  1  0  0  0  0
 20 21  1  0  0  0  0
 20 22  1  0  0  0  0
 20 23  1  0  0  0  0
 16 17  1  0  0  0  0
 16 18  1  0  0  0  0
 16 19  1  0  0  0  0
 14 15  1  0  0  0  0
 14 16  1  0  0  0  0
 14 20  1  0  0  0  0
 11 12  1  0  0  0  0
 11 13  1  0  0  0  0
 11 14  1  0  0  0  0
  9 10  1  0  0  0  0
  9 11  1  0  0  0  0
  9 24  1  0  0  0  0
  7  8  1  0  0  0  0
  7  9  1  0  0  0  0
 28 29  1  0  0  0  0
 28 30  1  0  0  0  0
 28 31  1  0  0  0  0
 26 27  1  0  0  0  0
 26 28  1  0  0  0  0
M  END
$$$$
default_name
  -OEChem-02102213163D

 31 30  0     1  0  0  0  0  0999 V2000
   -3.5895   -3.5013    1.1082 H   0  0  0  0  0  0  0  0  0  0  0  0
   -3.5145   -2.5363    0.6082 C   0  0  0  0  0  0  0  0  0  0  0  0
   -4.2285   -1.8413    1.0452 H   0  0  0  0  0  0  0  0  0  0  0  0
   -3.7155   -2.6583   -0.4538 H   0  0  0  0  0  0  0  0  0  0  0  0
   -2.1155   -1.9963    0.7922 C   0  0  0  0  0  0  0  0  0  0  0  0
   -1.2875   -2.6383    1.4252 O   0  0  0  0  0  0  0  0  0  0  0  0
   -1.8575   -0.8123    0.2402 N   0  0  0  0  0  0  0  0  0  0  0  0
   -2.6005   -0.3333   -0.2478 H   0  0  0  0  0  0  0  0  0  0  0  0
   -0.5675   -0.1203    0.3102 C   0  0  1  0  0  0  0  0  0  0  0  0
    0.0191   -0.5718    1.1110 H   0  0  0  0  0  0  0  0  0  0  0  0
    0.1724   -0.3238   -1.0286 C   0  0  0  0  0  0  0  0  0  0  0  0
   -0.5493   -0.6517   -1.7793 H   0  0  0  0  0  0  0  0  0  0  0  0
    0.5648    0.6443   -1.3477 H   0  0  0  0  0  0  0  0  0  0  0  0
    1.3387   -1.3288   -1.0030 C   0  0  0  0  0  0  0  0  0  0  0  0
    1.2672   -1.9976   -1.8607 H   0  0  0  0  0  0  0  0  0  0  0  0
    2.7030   -0.6335   -1.0259 C   0  0  0  0  0  0  0  0  0  0  0  0
    2.7836    0.0522   -0.1814 H   0  0  0  0  0  0  0  0  0  0  0  0
    3.4959   -1.3786   -0.9570 H   0  0  0  0  0  0  0  0  0  0  0  0
    2.8344   -0.0756   -1.9505 H   0  0  0  0  0  0  0  0  0  0  0  0
    1.2616   -2.1769    0.2659 C   0  0  0  0  0  0  0  0  0  0  0  0
    0.3113   -2.7100    0.2935 H   0  0  0  0  0  0  0  0  0  0  0  0
    2.0703   -2.9077    0.2731 H   0  0  0  0  0  0  0  0  0  0  0  0
    1.3434   -1.5411    1.1482 H   0  0  0  0  0  0  0  0  0  0  0  0
   -0.7793    1.3659    0.6455 C   0  0  0  0  0  0  0  0  0  0  0  0
   -1.6464    2.0125    0.0623 O   0  0  0  0  0  0  0  0  0  0  0  0
    0.0189    1.9059    1.5756 N   0  0  0  0  0  0  0  0  0  0  0  0
    0.7024    1.3094    2.0137 H   0  0  0  0  0  0  0  0  0  0  0  0
   -0.0451    3.3046    1.9929 C   0  0  0  0  0  0  0  0  0  0  0  0
   -1.0415    3.5286    2.3805 H   0  0  0  0  0  0  0  0  0  0  0  0
    0.6954    3.5023    2.7695 H   0  0  0  0  0  0  0  0  0  0  0  0
    0.1474    3.9536    1.1372 H   0  0  0  0  0  0  0  0  0  0  0  0
  5  6  2  0  0  0  0
  5  7  1  0  0  0  0
  2  3  1  0  0  0  0
  2  4  1  0  0  0  0
  2  5  1  0  0  0  0
  1  2  1  0  0  0  0
 24 25  2  0  0  0  0
 24 26  1  0  0  0  0
 20 21  1  0  0  0  0
 20 22  1  0  0  0  0
 20 23  1  0  0  0  0
 16 17  1  0  0  0  0
 16 18  1  0  0  0  0
 16 19  1  0  0  0  0
 14 15  1  0  0  0  0
 14 16  1  0  0  0  0
 14 20  1  0  0  0  0
 11 12  1  0  0  0  0
 11 13  1  0  0  0  0
 11 14  1  0  0  0  0
  9 10  1  0  0  0  0
  9 11  1  0  0  0  0
  9 24  1  0  0  0  0
  7  8  1  0  0  0  0
  7  9  1  0  0  0  0
 28 29  1  0  0  0  0
 28 30  1  0  0  0  0
 28 31  1  0  0  0  0
 26 27  1  0  0  0  0
 26 28  1  0  0  0  0
M  END
$$$$
default_name
  -OEChem-02102213163D

 31 30  0     1  0  0  0  0  0999 V2000
   -3.5895   -3.5013    1.1082 H   0  0  0  0  0  0  0  0  0  0  0  0
   -3.5145   -2.5363    0.6082 C   0  0  0  0  0  0  0  0  0  0  0  0
   -4.2285   -1.8413    1.0452 H   0  0  0  0  0  0  0  0  0  0  0  0
   -3.7155   -2.6583   -0.4538 H   0  0  0  0  0  0  0  0  0  0  0  0
   -2.1155   -1.9963    0.7922 C   0  0  0  0  0  0  0  0  0  0  0  0
   -1.2875   -2.6383    1.4252 O   0  0  0  0  0  0  0  0  0  0  0  0
   -1.8575   -0.8123    0.2402 N   0  0  0  0  0  0  0  0  0  0  0  0
   -2.6005   -0.3333   -0.2478 H   0  0  0  0  0  0  0  0  0  0  0  0
   -0.5675   -0.1203    0.3102 C   0  0  1  0  0  0  0  0  0  0  0  0
    0.0191   -0.5718    1.1110 H   0  0  0  0  0  0  0  0  0  0  0  0
    0.1724   -0.3238   -1.0286 C   0  0  0  0  0  0  0  0  0  0  0  0
   -0.5493   -0.6517   -1.7793 H   0  0  0  0  0  0  0  0  0  0  0  0
    0.5648    0.6443   -1.3477 H   0  0  0  0  0  0  0  0  0  0  0  0
    1.3387   -1.3288   -1.0030 C   0  0  0  0  0  0  0  0  0  0  0  0
    1.4269   -1.8151   -1.9745 H   0  0  0  0  0  0  0  0  0  0  0  0
    2.6723   -0.6597   -0.6580 C   0  0  0  0  0  0  0  0  0  0  0  0
    2.5950   -0.1543    0.3055 H   0  0  0  0  0  0  0  0  0  0  0  0
    3.4579   -1.4137   -0.6030 H   0  0  0  0  0  0  0  0  0  0  0  0
    2.9458    0.0672   -1.4197 H   0  0  0  0  0  0  0  0  0  0  0  0
    1.0669   -2.4085    0.0437 C   0  0  0  0  0  0  0  0  0  0  0  0
    0.1370   -2.9247   -0.1949 H   0  0  0  0  0  0  0  0  0  0  0  0
    1.8780   -3.1366    0.0445 H   0  0  0  0  0  0  0  0  0  0  0  0
    0.9853   -1.9595    1.0342 H   0  0  0  0  0  0  0  0  0  0  0  0
   -0.7793    1.3659    0.6455 C   0  0  0  0  0  0  0  0  0  0  0  0
   -1.6464    2.0125    0.0623 O   0  0  0  0  0  0  0  0  0  0  0  0
    0.0189    1.9059    1.5756 N   0  0  0  0  0  0  0  0  0  0  0  0
    0.7024    1.3094    2.0137 H   0  0  0  0  0  0  0  0  0  0  0  0
   -0.0451    3.3046    1.9929 C   0  0  0  0  0  0  0  0  0  0  0  0
   -1.0415    3.5286    2.3805 H   0  0  0  0  0  0  0  0  0  0  0  0
    0.6954    3.5023    2.7695 H   0  0  0  0  0  0  0  0  0  0  0  0
    0.1474    3.9536    1.1372 H   0  0  0  0  0  0  0  0  0  0  0  0
  5  6  2  0  0  0  0
  5  7  1  0  0  0  0
  2  3  1  0  0  0  0
  2  4  1  0  0  0  0
  2  5  1  0  0  0  0
  1  2  1  0  0  0  0
 24 25  2  0  0  0  0
 24 26  1  0  0  0  0
 20 21  1  0  0  0  0
 20 22  1  0  0  0  0
 20 23  1  0  0  0  0
 16 17  1  0  0  0  0
 16 18  1  0  0  0  0
 16 19  1  0  0  0  0
 14 15  1  0  0  0  0
 14 16  1  0  0  0  0
 14 20  1  0  0  0  0
 11 12  1  0  0  0  0
 11 13  1  0  0  0  0
 11 14  1  0  0  0  0
  9 10  1  0  0  0  0
  9 11  1  0  0  0  0
  9 24  1  0  0  0  0
  7  8  1  0  0  0  0
  7  9  1  0  0  0  0
 28 29  1  0  0  0  0
 28 30  1  0  0  0  0
 28 31  1  0  0  0  0
 26 27  1  0  0  0  0
 26 28  1  0  0  0  0
M  END
$$$$
default_name
  -OEChem-02102213163D

 31 30  0     1  0  0  0  0  0999 V2000
   -3.5895   -3.5013    1.1082 H   0  0  0  0  0  0  0  0  0  0  0  0
   -3.5145   -2.5363    0.6082 C   0  0  0  0  0  0  0  0  0  0  0  0
   -4.2285   -1.8413    1.0452 H   0  0  0  0  0  0  0  0  0  0  0  0
   -3.7155   -2.6583   -0.4538 H   0  0  0  0  0  0  0  0  0  0  0  0
   -2.1155   -1.9963    0.7922 C   0  0  0  0  0  0  0  0  0  0  0  0
   -1.2875   -2.6383    1.4252 O   0  0  0  0  0  0  0  0  0  0  0  0
   -1.8575   -0.8123    0.2402 N   0  0  0  0  0  0  0  0  0  0  0  0
   -2.6005   -0.3333   -0.2478 H   0  0  0  0  0  0  0  0  0  0  0  0
   -0.5675   -0.1203    0.3102 C   0  0  1  0  0  0  0  0  0  0  0  0
    0.0191   -0.5718    1.1110 H   0  0  0  0  0  0  0  0  0  0  0  0
    0.1724   -0.3238   -1.0286 C   0  0  0  0  0  0  0  0  0  0  0  0
   -0.5493   -0.6517   -1.7793 H   0  0  0  0  0  0  0  0  0  0  0  0
    0.5648    0.6443   -1.3477 H   0  0  0  0  0  0  0  0  0  0  0  0
    1.3387   -1.3288   -1.0030 C   0  0  0  0  0  0  0  0  0  0  0  0
    1.5996   -1.6159   -2.0216 H   0  0  0  0  0  0  0  0  0  0  0  0
    2.5807   -0.7573   -0.3130 C   0  0  0  0  0  0  0  0  0  0  0  0
    2.3314   -0.4500    0.7035 H   0  0  0  0  0  0  0  0  0  0  0  0
    3.3615   -1.5172   -0.2744 H   0  0  0  0  0  0  0  0  0  0  0  0
    2.9632    0.1016   -0.8602 H   0  0  0  0  0  0  0  0  0  0  0  0
    0.9173   -2.5896   -0.2493 C   0  0  0  0  0  0  0  0  0  0  0  0
    0.0521   -3.0372   -0.7382 H   0  0  0  0  0  0  0  0  0  0  0  0
    1.7319   -3.3138   -0.2536 H   0  0  0  0  0  0  0  0  0  0  0  0
    0.6605   -2.3429    0.7815 H   0  0  0  0  0  0  0  0  0  0  0  0
   -0.7793    1.3659    0.6455 C   0  0  0  0  0  0  0  0  0  0  0  0
   -1.6464    2.0125    0.0623 O   0  0  0  0  0  0  0  0  0  0  0  0
    0.0189    1.9059    1.5756 N   0  0  0  0  0  0  0  0  0  0  0  0
    0.7024    1.3094    2.0137 H   0  0  0  0  0  0  0  0  0  0  0  0
   -0.0451    3.3046    1.9929 C   0  0  0  0  0  0  0  0  0  0  0  0
   -1.0415    3.5286    2.3805 H   0  0  0  0  0  0  0  0  0  0  0  0
    0.6954    3.5023    2.7695 H   0  0  0  0  0  0  0  0  0  0  0  0
    0.1474    3.9536    1.1372 H   0  0  0  0  0  0  0  0  0  0  0  0
  5  6  2  0  0  0  0
  5  7  1  0  0  0  0
  2  3  1  0  0  0  0
  2  4  1  0  0  0  0
  2  5  1  0  0  0  0
  1  2  1  0  0  0  0
 24 25  2  0  0  0  0
 24 26  1  0  0  0  0
 20 21  1  0  0  0  0
 20 22  1  0  0  0  0
 20 23  1  0  0  0  0
 16 17  1  0  0  0  0
 16 18  1  0  0  0  0
 16 19  1  0  0  0  0
 14 15  1  0  0  0  0
 14 16  1  0  0  0  0
 14 20  1  0  0  0  0
 11 12  1  0  0  0  0
 11 13  1  0  0  0  0
 11 14  1  0  0  0  0
  9 10  1  0  0  0  0
  9 11  1  0  0  0  0
  9 24  1  0  0  0  0
  7  8  1  0  0  0  0
  7  9  1  0  0  0  0
 28 29  1  0  0  0  0
 28 30  1  0  0  0  0
 28 31  1  0  0  0  0
 26 27  1  0  0  0  0
 26 28  1  0  0  0  0
M  END
$$$$
default_name
  -OEChem-02102213163D

 31 30  0     1  0  0  0  0  0999 V2000
   -3.5895   -3.5013    1.1082 H   0  0  0  0  0  0  0  0  0  0  0  0
   -3.5145   -2.5363    0.6082 C   0  0  0  0  0  0  0  0  0  0  0  0
   -4.2285   -1.8413    1.0452 H   0  0  0  0  0  0  0  0  0  0  0  0
   -3.7155   -2.6583   -0.4538 H   0  0  0  0  0  0  0  0  0  0  0  0
   -2.1155   -1.9963    0.7922 C   0  0  0  0  0  0  0  0  0  0  0  0
   -1.2875   -2.6383    1.4252 O   0  0  0  0  0  0  0  0  0  0  0  0
   -1.8575   -0.8123    0.2402 N   0  0  0  0  0  0  0  0  0  0  0  0
   -2.6005   -0.3333   -0.2478 H   0  0  0  0  0  0  0  0  0  0  0  0
   -0.5675   -0.1203    0.3102 C   0  0  1  0  0  0  0  0  0  0  0  0
    0.0191   -0.5718    1.1110 H   0  0  0  0  0  0  0  0  0  0  0  0
    0.1724   -0.3238   -1.0286 C   0  0  0  0  0  0  0  0  0  0  0  0
   -0.5493   -0.6517   -1.7793 H   0  0  0  0  0  0  0  0  0  0  0  0
    0.5648    0.6443   -1.3477 H   0  0  0  0  0  0  0  0  0  0  0  0
    1.3387   -1.3288   -1.0030 C   0  0  0  0  0  0  0  0  0  0  0  0
    1.7735   -1.4135   -1.9989 H   0  0  0  0  0  0  0  0  0  0  0  0
    2.4343   -0.9196   -0.0144 C   0  0  0  0  0  0  0  0  0  0  0  0
    2.0109   -0.8148    0.9855 H   0  0  0  0  0  0  0  0  0  0  0  0
    3.2134   -1.6820    0.0065 H   0  0  0  0  0  0  0  0  0  0  0  0
    2.8853    0.0252   -0.3101 H   0  0  0  0  0  0  0  0  0  0  0  0
    0.8231   -2.7077   -0.5930 C   0  0  0  0  0  0  0  0  0  0  0  0
    0.0623   -3.0396   -1.2994 H   0  0  0  0  0  0  0  0  0  0  0  0
    1.6419   -3.4271   -0.6009 H   0  0  0  0  0  0  0  0  0  0  0  0
    0.3912   -2.6651    0.4075 H   0  0  0  0  0  0  0  0  0  0  0  0
   -0.7793    1.3659    0.6455 C   0  0  0  0  0  0  0  0  0  0  0  0
   -1.6464    2.0125    0.0623 O   0  0  0  0  0  0  0  0  0  0  0  0
    0.0189    1.9059    1.5756 N   0  0  0  0  0  0  0  0  0  0  0  0
    0.7024    1.3094    2.0137 H   0  0  0  0  0  0  0  0  0  0  0  0
   -0.0451    3.3046    1.9929 C   0  0  0  0  0  0  0  0  0  0  0  0
   -1.0415    3.5286    2.3805 H   0  0  0  0  0  0  0  0  0  0  0  0
    0.6954    3.5023    2.7695 H   0  0  0  0  0  0  0  0  0  0  0  0
    0.1474    3.9536    1.1372 H   0  0  0  0  0  0  0  0  0  0  0  0
  5  6  2  0  0  0  0
  5  7  1  0  0  0  0
  2  3  1  0  0  0  0
  2  4  1  0  0  0  0
  2  5  1  0  0  0  0
  1  2  1  0  0  0  0
 24 25  2  0  0  0  0
 24 26  1  0  0  0  0
 20 21  1  0  0  0  0
 20 22  1  0  0  0  0
 20 23  1  0  0  0  0
 16 17  1  0  0  0  0
 16 18  1  0  0  0  0
 16 19  1  0  0  0  0
 14 15  1  0  0  0  0
 14 16  1  0  0  0  0
 14 20  1  0  0  0  0
 11 12  1  0  0  0  0
 11 13  1  0  0  0  0
 11 14  1  0  0  0  0
  9 10  1  0  0  0  0
  9 11  1  0  0  0  0
  9 24  1  0  0  0  0
  7  8  1  0  0  0  0
  7  9  1  0  0  0  0
 28 29  1  0  0  0  0
 28 30  1  0  0  0  0
 28 31  1  0  0  0  0
 26 27  1  0  0  0  0
 26 28  1  0  0  0  0
M  END
$$$$
default_name
  -OEChem-02102213163D

 31 30  0     1  0  0  0  0  0999 V2000
   -3.5895   -3.5013    1.1082 H   0  0  0  0  0  0  0  0  0  0  0  0
   -3.5145   -2.5363    0.6082 C   0  0  0  0  0  0  0  0  0  0  0  0
   -4.2285   -1.8413    1.0452 H   0  0  0  0  0  0  0  0  0  0  0  0
   -3.7155   -2.6583   -0.4538 H   0  0  0  0  0  0  0  0  0  0  0  0
   -2.1155   -1.9963    0.7922 C   0  0  0  0  0  0  0  0  0  0  0  0
   -1.2875   -2.6383    1.4252 O   0  0  0  0  0  0  0  0  0  0  0  0
   -1.8575   -0.8123    0.2402 N   0  0  0  0  0  0  0  0  0  0  0  0
   -2.6005   -0.3333   -0.2478 H   0  0  0  0  0  0  0  0  0  0  0  0
   -0.5675   -0.1203    0.3102 C   0  0  1  0  0  0  0  0  0  0  0  0
    0.0191   -0.5718    1.1110 H   0  0  0  0  0  0  0  0  0  0  0  0
    0.1724   -0.3238   -1.0286 C   0  0  0  0  0  0  0  0  0  0  0  0
   -0.5493   -0.6517   -1.7793 H   0  0  0  0  0  0  0  0  0  0  0  0
    0.5648    0.6443   -1.3477 H   0  0  0  0  0  0  0  0  0  0  0  0
    1.3387   -1.3288   -1.0030 C   0  0  0  0  0  0  0  0  0  0  0  0
    1.9368   -1.2217   -1.9079 H   0  0  0  0  0  0  0  0  0  0  0  0
    2.2432   -1.1355    0.2176 C   0  0  0  0  0  0  0  0  0  0  0  0
    1.6552   -1.2239    1.1321 H   0  0  0  0  0  0  0  0  0  0  0  0
    3.0235   -1.8969    0.2205 H   0  0  0  0  0  0  0  0  0  0  0  0
    2.7174   -0.1568    0.1932 H   0  0  0  0  0  0  0  0  0  0  0  0
    0.7907   -2.7548   -0.9641 C   0  0  0  0  0  0  0  0  0  0  0  0
    0.1669   -2.9319   -1.8403 H   0  0  0  0  0  0  0  0  0  0  0  0
    1.6142   -3.4688   -0.9739 H   0  0  0  0  0  0  0  0  0  0  0  0
    0.1955   -2.9041   -0.0625 H   0  0  0  0  0  0  0  0  0  0  0  0
   -0.7793    1.3659    0.6455 C   0  0  0  0  0  0  0  0  0  0  0  0
   -1.6464    2.0125    0.0623 O   0  0  0  0  0  0  0  0  0  0  0  0
    0.0189    1.9059    1.5756 N   0  0  0  0  0  0  0  0  0  0  0  0
    0.7024    1.3094    2.0137 H   0  0  0  0  0  0  0  0  0  0  0  0
   -0.0451    3.3046    1.9929 C   0  0  0  0  0  0  0  0  0  0  0  0
   -1.0415    3.5286    2.3805 H   0  0  0  0  0  0  0  0  0  0  0  0
    0.6954    3.5023    2.7695 H   0  0  0  0  0  0  0  0  0  0  0  0
    0.1474    3.9536    1.1372 H   0  0  0  0  0  0  0  0  0  0  0  0
  5  6  2  0  0  0  0
  5  7  1  0  0  0  0
  2  3  1  0  0  0  0
  2  4  1  0  0  0  0
  2  5  1  0  0  0  0
  1  2  1  0  0  0  0
 24 25  2  0  0  0  0
 24 26  1  0  0  0  0
 20 21  1  0  0  0  0
 20 22  1  0  0  0  0
 20 23  1  0  0  0  0
 16 17  1  0  0  0  0
 16 18  1  0  0  0  0
 16 19  1  0  0  0  0
 14 15  1  0  0  0  0
 14 16  1  0  0  0  0
 14 20  1  0  0  0  0
 11 12  1  0  0  0  0
 11 13  1  0  0  0  0
 11 14  1  0  0  0  0
  9 10  1  0  0  0  0
  9 11  1  0  0  0  0
  9 24  1  0  0  0  0
  7  8  1  0  0  0  0
  7  9  1  0  0  0  0
 28 29  1  0  0  0  0
 28 30  1  0  0  0  0
 28 31  1  0  0  0  0
 26 27  1  0  0  0  0
 26 28  1  0  0  0  0
M  END
$$$$
default_name
  -OEChem-02102213163D

 31 30  0     1  0  0  0  0  0999 V2000
   -3.5895   -3.5013    1.1082 H   0  0  0  0  0  0  0  0  0  0  0  0
   -3.5145   -2.5363    0.6082 C   0  0  0  0  0  0  0  0  0  0  0  0
   -4.2285   -1.8413    1.0452 H   0  0  0  0  0  0  0  0  0  0  0  0
   -3.7155   -2.6583   -0.4538 H   0  0  0  0  0  0  0  0  0  0  0  0
   -2.1155   -1.9963    0.7922 C   0  0  0  0  0  0  0  0  0  0  0  0
   -1.2875   -2.6383    1.4252 O   0  0  0  0  0  0  0  0  0  0  0  0
   -1.8575   -0.8123    0.2402 N   0  0  0  0  0  0  0  0  0  0  0  0
   -2.6005   -0.3333   -0.2478 H   0  0  0  0  0  0  0  0  0  0  0  0
   -0.5675   -0.1203    0.3102 C   0  0  1  0  0  0  0  0  0  0  0  0
    0.0191   -0.5718    1.1110 H   0  0  0  0  0  0  0  0  0  0  0  0
    0.1724   -0.3238   -1.0286 C   0  0  0  0  0  0  0  0  0  0  0  0
   -0.5493   -0.6517   -1.7793 H   0  0  0  0  0  0  0  0  0  0  0  0
    0.5648    0.6443   -1.3477 H   0  0  0  0  0  0  0  0  0  0  0  0
    1.3387   -1.3288   -1.0030 C   0  0  0  0  0  0  0  0  0  0  0  0
    2.0783   -1.0535   -1.7549 H   0  0  0  0  0  0  0  0  0  0  0  0
    2.0203   -1.3904    0.3670 C   0  0  0  0  0  0  0  0  0  0  0  0
    1.2886   -1.6493    1.1335 H   0  0  0  0  0  0  0  0  0  0  0  0
    2.8049   -2.1472    0.3530 H   0  0  0  0  0  0  0  0  0  0  0  0
    2.4710   -0.4319    0.6153 H   0  0  0  0  0  0  0  0  0  0  0  0
    0.8222   -2.7277   -1.3373 C   0  0  0  0  0  0  0  0  0  0  0  0
    0.3589   -2.7214   -2.3239 H   0  0  0  0  0  0  0  0  0  0  0  0
    1.6505   -3.4361   -1.3470 H   0  0  0  0  0  0  0  0  0  0  0  0
    0.0870   -3.0437   -0.5964 H   0  0  0  0  0  0  0  0  0  0  0  0
   -0.7793    1.3659    0.6455 C   0  0  0  0  0  0  0  0  0  0  0  0
   -1.6464    2.0125    0.0623 O   0  0  0  0  0  0  0  0  0  0  0  0
    0.0189    1.9059    1.5756 N   0  0  0  0  0  0  0  0  0  0  0  0
    0.7024    1.3094    2.0137 H   0  0  0  0  0  0  0  0  0  0  0  0
   -0.0451    3.3046    1.9929 C   0  0  0  0  0  0  0  0  0  0  0  0
   -1.0415    3.5286    2.3805 H   0  0  0  0  0  0  0  0  0  0  0  0
    0.6954    3.5023    2.7695 H   0  0  0  0  0  0  0  0  0  0  0  0
    0.1474    3.9536    1.1372 H   0  0  0  0  0  0  0  0  0  0  0  0
  5  6  2  0  0  0  0
  5  7  1  0  0  0  0
  2  3  1  0  0  0  0
  2  4  1  0  0  0  0
  2  5  1  0  0  0  0
  1  2  1  0  0  0  0
 24 25  2  0  0  0  0
 24 26  1  0  0  0  0
 20 21  1  0  0  0  0
 20 22  1  0  0  0  0
 20 23  1  0  0  0  0
 16 17  1  0  0  0  0
 16 18  1  0  0  0  0
 16 19  1  0  0  0  0
 14 15  1  0  0  0  0
 14 16  1  0  0  0  0
 14 20  1  0  0  0  0
 11 12  1  0  0  0  0
 11 13  1  0  0  0  0
 11 14  1  0  0  0  0
  9 10  1  0  0  0  0
  9 11  1  0  0  0  0
  9 24  1  0  0  0  0
  7  8  1  0  0  0  0
  7  9  1  0  0  0  0
 28 29  1  0  0  0  0
 28 30  1  0  0  0  0
 28 31  1  0  0  0  0
 26 27  1  0  0  0  0
 26 28  1  0  0  0  0
M  END
$$$$
default_name
  -OEChem-02102213163D

 31 30  0     1  0  0  0  0  0999 V2000
   -3.5895   -3.5013    1.1082 H   0  0  0  0  0  0  0  0  0  0  0  0
   -3.5145   -2.5363    0.6082 C   0  0  0  0  0  0  0  0  0  0  0  0
   -4.2285   -1.8413    1.0452 H   0  0  0  0  0  0  0  0  0  0  0  0
   -3.7155   -2.6583   -0.4538 H   0  0  0  0  0  0  0  0  0  0  0  0
   -2.1155   -1.9963    0.7922 C   0  0  0  0  0  0  0  0  0  0  0  0
   -1.2875   -2.6383    1.4252 O   0  0  0  0  0  0  0  0  0  0  0  0
   -1.8575   -0.8123    0.2402 N   0  0  0  0  0  0  0  0  0  0  0  0
   -2.6005   -0.3333   -0.2478 H   0  0  0  0  0  0  0  0  0  0  0  0
   -0.5675   -0.1203    0.3102 C   0  0  1  0  0  0  0  0  0  0  0  0
    0.0191   -0.5718    1.1110 H   0  0  0  0  0  0  0  0  0  0  0  0
    0.1724   -0.3238   -1.0286 C   0  0  0  0  0  0  0  0  0  0  0  0
   -0.5493   -0.6517   -1.7793 H   0  0  0  0  0  0  0  0  0  0  0  0
    0.5648    0.6443   -1.3477 H   0  0  0  0  0  0  0  0  0  0  0  0
    1.3387   -1.3288   -1.0030 C   0  0  0  0  0  0  0  0  0  0  0  0
    2.1885   -0.9205   -1.5501 H   0  0  0  0  0  0  0  0  0  0  0  0
    1.7809   -1.6668    0.4237 C   0  0  0  0  0  0  0  0  0  0  0  0
    0.9361   -2.0620    0.9896 H   0  0  0  0  0  0  0  0  0  0  0  0
    2.5725   -2.4159    0.3949 H   0  0  0  0  0  0  0  0  0  0  0  0
    2.1630   -0.7815    0.9274 H   0  0  0  0  0  0  0  0  0  0  0  0
    0.9156   -2.6282   -1.6871 C   0  0  0  0  0  0  0  0  0  0  0  0
    0.6252   -2.4225   -2.7173 H   0  0  0  0  0  0  0  0  0  0  0  0
    1.7485   -3.3313   -1.6948 H   0  0  0  0  0  0  0  0  0  0  0  0
    0.0729   -3.0743   -1.1578 H   0  0  0  0  0  0  0  0  0  0  0  0
   -0.7793    1.3659    0.6455 C   0  0  0  0  0  0  0  0  0  0  0  0
   -1.6464    2.0125    0.0623 O   0  0  0  0  0  0  0  0  0  0  0  0
    0.0189    1.9059    1.5756 N   0  0  0  0  0  0  0  0  0  0  0  0
    0.7024    1.3094    2.0137 H   0  0  0  0  0  0  0  0  0  0  0  0
   -0.0451    3.3046    1.9929 C   0  0  0  0  0  0  0  0  0  0  0  0
   -1.0415    3.5286    2.3805 H   0  0  0  0  0  0  0  0  0  0  0  0
    0.6954    3.5023    2.7695 H   0  0  0  0  0  0  0  0  0  0  0  0
    0.1474    3.9536    1.1372 H   0  0  0  0  0  0  0  0  0  0  0  0
  5  6  2  0  0  0  0
  5  7  1  0  0  0  0
  2  3  1  0  0  0  0
  2  4  1  0  0  0  0
  2  5  1  0  0  0  0
  1  2  1  0  0  0  0
 24 25  2  0  0  0  0
 24 26  1  0  0  0  0
 20 21  1  0  0  0  0
 20 22  1  0  0  0  0
 20 23  1  0  0  0  0
 16 17  1  0  0  0  0
 16 18  1  0  0  0  0
 16 19  1  0  0  0  0
 14 15  1  0  0  0  0
 14 16  1  0  0  0  0
 14 20  1  0  0  0  0
 11 12  1  0  0  0  0
 11 13  1  0  0  0  0
 11 14  1  0  0  0  0
  9 10  1  0  0  0  0
  9 11  1  0  0  0  0
  9 24  1  0  0  0  0
  7  8  1  0  0  0  0
  7  9  1  0  0  0  0
 28 29  1  0  0  0  0
 28 30  1  0  0  0  0
 28 31  1  0  0  0  0
 26 27  1  0  0  0  0
 26 28  1  0  0  0  0
M  END
$$$$
default_name
  -OEChem-02102213163D

 31 30  0     1  0  0  0  0  0999 V2000
   -3.5895   -3.5013    1.1082 H   0  0  0  0  0  0  0  0  0  0  0  0
   -3.5145   -2.5363    0.6082 C   0  0  0  0  0  0  0  0  0  0  0  0
   -4.2285   -1.8413    1.0452 H   0  0  0  0  0  0  0  0  0  0  0  0
   -3.7155   -2.6583   -0.4538 H   0  0  0  0  0  0  0  0  0  0  0  0
   -2.1155   -1.9963    0.7922 C   0  0  0  0  0  0  0  0  0  0  0  0
   -1.2875   -2.6383    1.4252 O   0  0  0  0  0  0  0  0  0  0  0  0
   -1.8575   -0.8123    0.2402 N   0  0  0  0  0  0  0  0  0  0  0  0
   -2.6005   -0.3333   -0.2478 H   0  0  0  0  0  0  0  0  0  0  0  0
   -0.5675   -0.1203    0.3102 C   0  0  1  0  0  0  0  0  0  0  0  0
    0.0191   -0.5718    1.1110 H   0  0  0  0  0  0  0  0  0  0  0  0
    0.1724   -0.3238   -1.0286 C   0  0  0  0  0  0  0  0  0  0  0  0
   -0.5493   -0.6517   -1.7793 H   0  0  0  0  0  0  0  0  0  0  0  0
    0.5648    0.6443   -1.3477 H   0  0  0  0  0  0  0  0  0  0  0  0
    1.3387   -1.3288   -1.0030 C   0  0  0  0  0  0  0  0  0  0  0  0
    2.2597   -0.8317   -1.3077 H   0  0  0  0  0  0  0  0  0  0  0  0
    1.5412   -1.9460    0.3838 C   0  0  0  0  0  0  0  0  0  0  0  0
    0.6218   -2.4340    0.7100 H   0  0  0  0  0  0  0  0  0  0  0  0
    2.3420   -2.6847    0.3435 H   0  0  0  0  0  0  0  0  0  0  0  0
    1.8142   -1.1817    1.1083 H   0  0  0  0  0  0  0  0  0  0  0  0
    1.0645   -2.4631   -1.9897 C   0  0  0  0  0  0  0  0  0  0  0  0
    0.9475   -2.0554   -2.9938 H   0  0  0  0  0  0  0  0  0  0  0  0
    1.9015   -3.1614   -1.9937 H   0  0  0  0  0  0  0  0  0  0  0  0
    0.1543   -2.9939   -1.7084 H   0  0  0  0  0  0  0  0  0  0  0  0
   -0.7793    1.3659    0.6455 C   0  0  0  0  0  0  0  0  0  0  0  0
   -1.6464    2.0125    0.0623 O   0  0  0  0  0  0  0  0  0  0  0  0
    0.0189    1.9059    1.5756 N   0  0  0  0  0  0  0  0  0  0  0  0
    0.7024    1.3094    2.0137 H   0  0  0  0  0  0  0  0  0  0  0  0
   -0.0451    3.3046    1.9929 C   0  0  0  0  0  0  0  0  0  0  0  0
   -1.0415    3.5286    2.3805 H   0  0  0  0  0  0  0  0  0  0  0  0
    0.6954    3.5023    2.7695 H   0  0  0  0  0  0  0  0  0  0  0  0
    0.1474    3.9536    1.1372 H   0  0  0  0  0  0  0  0  0  0  0  0
  5  6  2  0  0  0  0
  5  7  1  0  0  0  0
  2  3  1  0  0  0  0
  2  4  1  0  0  0  0
  2  5  1  0  0  0  0
  1  2  1  0  0  0  0
 24 25  2  0  0  0  0
 24 26  1  0  0  0  0
 20 21  1  0  0  0  0
 20 22  1  0  0  0  0
 20 23  1  0  0  0  0
 16 17  1  0  0  0  0
 16 18  1  0  0  0  0
 16 19  1  0  0  0  0
 14 15  1  0  0  0  0
 14 16  1  0  0  0  0
 14 20  1  0  0  0  0
 11 12  1  0  0  0  0
 11 13  1  0  0  0  0
 11 14  1  0  0  0  0
  9 10  1  0  0  0  0
  9 11  1  0  0  0  0
  9 24  1  0  0  0  0
  7  8  1  0  0  0  0
  7  9  1  0  0  0  0
 28 29  1  0  0  0  0
 28 30  1  0  0  0  0
 28 31  1  0  0  0  0
 26 27  1  0  0  0  0
 26 28  1  0  0  0  0
M  END
$$$$
default_name
  -OEChem-02102213163D

 31 30  0     1  0  0  0  0  0999 V2000
   -3.5895   -3.5013    1.1082 H   0  0  0  0  0  0  0  0  0  0  0  0
   -3.5145   -2.5363    0.6082 C   0  0  0  0  0  0  0  0  0  0  0  0
   -4.2285   -1.8413    1.0452 H   0  0  0  0  0  0  0  0  0  0  0  0
   -3.7155   -2.6583   -0.4538 H   0  0  0  0  0  0  0  0  0  0  0  0
   -2.1155   -1.9963    0.7922 C   0  0  0  0  0  0  0  0  0  0  0  0
   -1.2875   -2.6383    1.4252 O   0  0  0  0  0  0  0  0  0  0  0  0
   -1.8575   -0.8123    0.2402 N   0  0  0  0  0  0  0  0  0  0  0  0
   -2.6005   -0.3333   -0.2478 H   0  0  0  0  0  0  0  0  0  0  0  0
   -0.5675   -0.1203    0.3102 C   0  0  1  0  0  0  0  0  0  0  0  0
    0.0191   -0.5718    1.1110 H   0  0  0  0  0  0  0  0  0  0  0  0
    0.1724   -0.3238   -1.0286 C   0  0  0  0  0  0  0  0  0  0  0  0
   -0.5493   -0.6517   -1.7793 H   0  0  0  0  0  0  0  0  0  0  0  0
    0.5648    0.6443   -1.3477 H   0  0  0  0  0  0  0  0  0  0  0  0
    1.3387   -1.3288   -1.0030 C   0  0  0  0  0  0  0  0  0  0  0  0
    2.2871   -0.7931   -1.0441 H   0  0  0  0  0  0  0  0  0  0  0  0
    1.3176   -2.2088    0.2501 C   0  0  0  0  0  0  0  0  0  0  0  0
    0.3669   -2.7399    0.3140 H   0  0  0  0  0  0  0  0  0  0  0  0
    2.1292   -2.9352    0.2022 H   0  0  0  0  0  0  0  0  0  0  0  0
    1.4484   -1.6053    1.1457 H   0  0  0  0  0  0  0  0  0  0  0  0
    1.2588   -2.2436   -2.2245 C   0  0  0  0  0  0  0  0  0  0  0  0
    1.3040   -1.6453   -3.1344 H   0  0  0  0  0  0  0  0  0  0  0  0
    2.0990   -2.9380   -2.2232 H   0  0  0  0  0  0  0  0  0  0  0  0
    0.3256   -2.8079   -2.2108 H   0  0  0  0  0  0  0  0  0  0  0  0
   -0.7793    1.3659    0.6455 C   0  0  0  0  0  0  0  0  0  0  0  0
   -1.6464    2.0125    0.0623 O   0  0  0  0  0  0  0  0  0  0  0  0
    0.0189    1.9059    1.5756 N   0  0  0  0  0  0  0  0  0  0  0  0
    0.7024    1.3094    2.0137 H   0  0  0  0  0  0  0  0  0  0  0  0
   -0.0451    3.3046    1.9929 C   0  0  0  0  0  0  0  0  0  0  0  0
   -1.0415    3.5286    2.3805 H   0  0  0  0  0  0  0  0  0  0  0  0
    0.6954    3.5023    2.7695 H   0  0  0  0  0  0  0  0  0  0  0  0
    0.1474    3.9536    1.1372 H   0  0  0  0  0  0  0  0  0  0  0  0
  5  6  2  0  0  0  0
  5  7  1  0  0  0  0
  2  3  1  0  0  0  0
  2  4  1  0  0  0  0
  2  5  1  0  0  0  0
  1  2  1  0  0  0  0
 24 25  2  0  0  0  0
 24 26  1  0  0  0  0
 20 21  1  0  0  0  0
 20 22  1  0  0  0  0
 20 23  1  0  0  0  0
 16 17  1  0  0  0  0
 16 18  1  0  0  0  0
 16 19  1  0  0  0  0
 14 15  1  0  0  0  0
 14 16  1  0  0  0  0
 14 20  1  0  0  0  0
 11 12  1  0  0  0  0
 11 13  1  0  0  0  0
 11 14  1  0  0  0  0
  9 10  1  0  0  0  0
  9 11  1  0  0  0  0
  9 24  1  0  0  0  0
  7  8  1  0  0  0  0
  7  9  1  0  0  0  0
 28 29  1  0  0  0  0
 28 30  1  0  0  0  0
 28 31  1  0  0  0  0
 26 27  1  0  0  0  0
 26 28  1  0  0  0  0
M  END
$$$$
default_name
  -OEChem-02102213163D

 31 30  0     1  0  0  0  0  0999 V2000
   -3.5895   -3.5013    1.1082 H   0  0  0  0  0  0  0  0  0  0  0  0
   -3.5145   -2.5363    0.6082 C   0  0  0  0  0  0  0  0  0  0  0  0
   -4.2285   -1.8413    1.0452 H   0  0  0  0  0  0  0  0  0  0  0  0
   -3.7155   -2.6583   -0.4538 H   0  0  0  0  0  0  0  0  0  0  0  0
   -2.1155   -1.9963    0.7922 C   0  0  0  0  0  0  0  0  0  0  0  0
   -1.2875   -2.6383    1.4252 O   0  0  0  0  0  0  0  0  0  0  0  0
   -1.8575   -0.8123    0.2402 N   0  0  0  0  0  0  0  0  0  0  0  0
   -2.6005   -0.3333   -0.2478 H   0  0  0  0  0  0  0  0  0  0  0  0
   -0.5675   -0.1203    0.3102 C   0  0  1  0  0  0  0  0  0  0  0  0
    0.0191   -0.5718    1.1110 H   0  0  0  0  0  0  0  0  0  0  0  0
    0.1724   -0.3238   -1.0286 C   0  0  0  0  0  0  0  0  0  0  0  0
   -0.5493   -0.6517   -1.7793 H   0  0  0  0  0  0  0  0  0  0  0  0
    0.5648    0.6443   -1.3477 H   0  0  0  0  0  0  0  0  0  0  0  0
    1.3387   -1.3288   -1.0030 C   0  0  0  0  0  0  0  0  0  0  0  0
    2.2689   -0.8074   -0.7773 H   0  0  0  0  0  0  0  0  0  0  0  0
    1.1254   -2.4375    0.0317 C   0  0  0  0  0  0  0  0  0  0  0  0
    0.1890   -2.9588   -0.1716 H   0  0  0  0  0  0  0  0  0  0  0  0
    1.9486   -3.1505   -0.0193 H   0  0  0  0  0  0  0  0  0  0  0  0
    1.0906   -2.0233    1.0370 H   0  0  0  0  0  0  0  0  0  0  0  0
    1.4851   -1.9848   -2.3754 C   0  0  0  0  0  0  0  0  0  0  0  0
    1.6703   -1.2200   -3.1296 H   0  0  0  0  0  0  0  0  0  0  0  0
    2.3276   -2.6764   -2.3678 H   0  0  0  0  0  0  0  0  0  0  0  0
    0.5751   -2.5290   -2.6306 H   0  0  0  0  0  0  0  0  0  0  0  0
   -0.7793    1.3659    0.6455 C   0  0  0  0  0  0  0  0  0  0  0  0
   -1.6464    2.0125    0.0623 O   0  0  0  0  0  0  0  0  0  0  0  0
    0.0189    1.9059    1.5756 N   0  0  0  0  0  0  0  0  0  0  0  0
    0.7024    1.3094    2.0137 H   0  0  0  0  0  0  0  0  0  0  0  0
   -0.0451    3.3046    1.9929 C   0  0  0  0  0  0  0  0  0  0  0  0
   -1.0415    3.5286    2.3805 H   0  0  0  0  0  0  0  0  0  0  0  0
    0.6954    3.5023    2.7695 H   0  0  0  0  0  0  0  0  0  0  0  0
    0.1474    3.9536    1.1372 H   0  0  0  0  0  0  0  0  0  0  0  0
  5  6  2  0  0  0  0
  5  7  1  0  0  0  0
  2  3  1  0  0  0  0
  2  4  1  0  0  0  0
  2  5  1  0  0  0  0
  1  2  1  0  0  0  0
 24 25  2  0  0  0  0
 24 26  1  0  0  0  0
 20 21  1  0  0  0  0
 20 22  1  0  0  0  0
 20 23  1  0  0  0  0
 16 17  1  0  0  0  0
 16 18  1  0  0  0  0
 16 19  1  0  0  0  0
 14 15  1  0  0  0  0
 14 16  1  0  0  0  0
 14 20  1  0  0  0  0
 11 12  1  0  0  0  0
 11 13  1  0  0  0  0
 11 14  1  0  0  0  0
  9 10  1  0  0  0  0
  9 11  1  0  0  0  0
  9 24  1  0  0  0  0
  7  8  1  0  0  0  0
  7  9  1  0  0  0  0
 28 29  1  0  0  0  0
 28 30  1  0  0  0  0
 28 31  1  0  0  0  0
 26 27  1  0  0  0  0
 26 28  1  0  0  0  0
M  END
$$$$
default_name
  -OEChem-02102213163D

 31 30  0     1  0  0  0  0  0999 V2000
   -3.5895   -3.5013    1.1082 H   0  0  0  0  0  0  0  0  0  0  0  0
   -3.5145   -2.5363    0.6082 C   0  0  0  0  0  0  0  0  0  0  0  0
   -4.2285   -1.8413    1.0452 H   0  0  0  0  0  0  0  0  0  0  0  0
   -3.7155   -2.6583   -0.4538 H   0  0  0  0  0  0  0  0  0  0  0  0
   -2.1155   -1.9963    0.7922 C   0  0  0  0  0  0  0  0  0  0  0  0
   -1.2875   -2.6383    1.4252 O   0  0  0  0  0  0  0  0  0  0  0  0
   -1.8575   -0.8123    0.2402 N   0  0  0  0  0  0  0  0  0  0  0  0
   -2.6005   -0.3333   -0.2478 H   0  0  0  0  0  0  0  0  0  0  0  0
   -0.5675   -0.1203    0.3102 C   0  0  1  0  0  0  0  0  0  0  0  0
    0.0191   -0.5718    1.1110 H   0  0  0  0  0  0  0  0  0  0  0  0
    0.1724   -0.3238   -1.0286 C   0  0  0  0  0  0  0  0  0  0  0  0
   -0.5493   -0.6517   -1.7793 H   0  0  0  0  0  0  0  0  0  0  0  0
    0.5648    0.6443   -1.3477 H   0  0  0  0  0  0  0  0  0  0  0  0
    1.3387   -1.3288   -1.0030 C   0  0  0  0  0  0  0  0  0  0  0  0
    2.2064   -0.8736   -0.5254 H   0  0  0  0  0  0  0  0  0  0  0  0
    0.9776   -2.6163   -0.2567 C   0  0  0  0  0  0  0  0  0  0  0  0
    0.1001   -3.0758   -0.7135 H   0  0  0  0  0  0  0  0  0  0  0  0
    1.8126   -3.3157   -0.3060 H   0  0  0  0  0  0  0  0  0  0  0  0
    0.7652   -2.4073    0.7896 H   0  0  0  0  0  0  0  0  0  0  0  0
    1.7281   -1.7043   -2.4323 C   0  0  0  0  0  0  0  0  0  0  0  0
    2.0215   -0.8086   -2.9797 H   0  0  0  0  0  0  0  0  0  0  0  0
    2.5717   -2.3944   -2.4175 H   0  0  0  0  0  0  0  0  0  0  0  0
    0.8858   -2.1763   -2.9394 H   0  0  0  0  0  0  0  0  0  0  0  0
   -0.7793    1.3659    0.6455 C   0  0  0  0  0  0  0  0  0  0  0  0
   -1.6464    2.0125    0.0623 O   0  0  0  0  0  0  0  0  0  0  0  0
    0.0189    1.9059    1.5756 N   0  0  0  0  0  0  0  0  0  0  0  0
    0.7024    1.3094    2.0137 H   0  0  0  0  0  0  0  0  0  0  0  0
   -0.0451    3.3046    1.9929 C   0  0  0  0  0  0  0  0  0  0  0  0
   -1.0415    3.5286    2.3805 H   0  0  0  0  0  0  0  0  0  0  0  0
    0.6954    3.5023    2.7695 H   0  0  0  0  0  0  0  0  0  0  0  0
    0.1474    3.9536    1.1372 H   0  0  0  0  0  0  0  0  0  0  0  0
  5  6  2  0  0  0  0
  5  7  1  0  0  0  0
  2  3  1  0  0  0  0
  2  4  1  0  0  0  0
  2  5  1  0  0  0  0
  1  2  1  0  0  0  0
 24 25  2  0  0  0  0
 24 26  1  0  0  0  0
 20 21  1  0  0  0  0
 20 22  1  0  0  0  0
 20 23  1  0  0  0  0
 16 17  1  0  0  0  0
 16 18  1  0  0  0  0
 16 19  1  0  0  0  0
 14 15  1  0  0  0  0
 14 16  1  0  0  0  0
 14 20  1  0  0  0  0
 11 12  1  0  0  0  0
 11 13  1  0  0  0  0
 11 14  1  0  0  0  0
  9 10  1  0  0  0  0
  9 11  1  0  0  0  0
  9 24  1  0  0  0  0
  7  8  1  0  0  0  0
  7  9  1  0  0  0  0
 28 29  1  0  0  0  0
 28 30  1  0  0  0  0
 28 31  1  0  0  0  0
 26 27  1  0  0  0  0
 26 28  1  0  0  0  0
M  END
$$$$
default_name
  -OEChem-02102213163D

 31 30  0     1  0  0  0  0  0999 V2000
   -3.5895   -3.5013    1.1082 H   0  0  0  0  0  0  0  0  0  0  0  0
   -3.5145   -2.5363    0.6082 C   0  0  0  0  0  0  0  0  0  0  0  0
   -4.2285   -1.8413    1.0452 H   0  0  0  0  0  0  0  0  0  0  0  0
   -3.7155   -2.6583   -0.4538 H   0  0  0  0  0  0  0  0  0  0  0  0
   -2.1155   -1.9963    0.7922 C   0  0  0  0  0  0  0  0  0  0  0  0
   -1.2875   -2.6383    1.4252 O   0  0  0  0  0  0  0  0  0  0  0  0
   -1.8575   -0.8123    0.2402 N   0  0  0  0  0  0  0  0  0  0  0  0
   -2.6005   -0.3333   -0.2478 H   0  0  0  0  0  0  0  0  0  0  0  0
   -0.5675   -0.1203    0.3102 C   0  0  1  0  0  0  0  0  0  0  0  0
    0.0191   -0.5718    1.1110 H   0  0  0  0  0  0  0  0  0  0  0  0
    0.1724   -0.3238   -1.0286 C   0  0  0  0  0  0  0  0  0  0  0  0
   -0.5493   -0.6517   -1.7793 H   0  0  0  0  0  0  0  0  0  0  0  0
    0.5648    0.6443   -1.3477 H   0  0  0  0  0  0  0  0  0  0  0  0
    1.3387   -1.3288   -1.0030 C   0  0  0  0  0  0  0  0  0  0  0  0
    2.1037   -0.9872   -0.3057 H   0  0  0  0  0  0  0  0  0  0  0  0
    0.8844   -2.7332   -0.5952 C   0  0  0  0  0  0  0  0  0  0  0  0
    0.1062   -3.0829   -1.2750 H   0  0  0  0  0  0  0  0  0  0  0  0
    1.7303   -3.4197   -0.6382 H   0  0  0  0  0  0  0  0  0  0  0  0
    0.4943   -2.7311    0.4204 H   0  0  0  0  0  0  0  0  0  0  0  0
    1.9712   -1.4211   -2.3911 C   0  0  0  0  0  0  0  0  0  0  0  0
    2.3336   -0.4391   -2.6949 H   0  0  0  0  0  0  0  0  0  0  0  0
    2.8146   -2.1111   -2.3690 H   0  0  0  0  0  0  0  0  0  0  0  0
    1.2366   -1.7737   -3.1159 H   0  0  0  0  0  0  0  0  0  0  0  0
   -0.7793    1.3659    0.6455 C   0  0  0  0  0  0  0  0  0  0  0  0
   -1.6464    2.0125    0.0623 O   0  0  0  0  0  0  0  0  0  0  0  0
    0.0189    1.9059    1.5756 N   0  0  0  0  0  0  0  0  0  0  0  0
    0.7024    1.3094    2.0137 H   0  0  0  0  0  0  0  0  0  0  0  0
   -0.0451    3.3046    1.9929 C   0  0  0  0  0  0  0  0  0  0  0  0
   -1.0415    3.5286    2.3805 H   0  0  0  0  0  0  0  0  0  0  0  0
    0.6954    3.5023    2.7695 H   0  0  0  0  0  0  0  0  0  0  0  0
    0.1474    3.9536    1.1372 H   0  0  0  0  0  0  0  0  0  0  0  0
  5  6  2  0  0  0  0
  5  7  1  0  0  0  0
  2  3  1  0  0  0  0
  2  4  1  0  0  0  0
  2  5  1  0  0  0  0
  1  2  1  0  0  0  0
 24 25  2  0  0  0  0
 24 26  1  0  0  0  0
 20 21  1  0  0  0  0
 20 22  1  0  0  0  0
 20 23  1  0  0  0  0
 16 17  1  0  0  0  0
 16 18  1  0  0  0  0
 16 19  1  0  0  0  0
 14 15  1  0  0  0  0
 14 16  1  0  0  0  0
 14 20  1  0  0  0  0
 11 12  1  0  0  0  0
 11 13  1  0  0  0  0
 11 14  1  0  0  0  0
  9 10  1  0  0  0  0
  9 11  1  0  0  0  0
  9 24  1  0  0  0  0
  7  8  1  0  0  0  0
  7  9  1  0  0  0  0
 28 29  1  0  0  0  0
 28 30  1  0  0  0  0
 28 31  1  0  0  0  0
 26 27  1  0  0  0  0
 26 28  1  0  0  0  0
M  END
$$$$
default_name
  -OEChem-02102213163D

 31 30  0     1  0  0  0  0  0999 V2000
   -3.5895   -3.5013    1.1082 H   0  0  0  0  0  0  0  0  0  0  0  0
   -3.5145   -2.5363    0.6082 C   0  0  0  0  0  0  0  0  0  0  0  0
   -4.2285   -1.8413    1.0452 H   0  0  0  0  0  0  0  0  0  0  0  0
   -3.7155   -2.6583   -0.4538 H   0  0  0  0  0  0  0  0  0  0  0  0
   -2.1155   -1.9963    0.7922 C   0  0  0  0  0  0  0  0  0  0  0  0
   -1.2875   -2.6383    1.4252 O   0  0  0  0  0  0  0  0  0  0  0  0
   -1.8575   -0.8123    0.2402 N   0  0  0  0  0  0  0  0  0  0  0  0
   -2.6005   -0.3333   -0.2478 H   0  0  0  0  0  0  0  0  0  0  0  0
   -0.5675   -0.1203    0.3102 C   0  0  1  0  0  0  0  0  0  0  0  0
    0.0191   -0.5718    1.1110 H   0  0  0  0  0  0  0  0  0  0  0  0
    0.1724   -0.3238   -1.0286 C   0  0  0  0  0  0  0  0  0  0  0  0
   -0.5493   -0.6517   -1.7793 H   0  0  0  0  0  0  0  0  0  0  0  0
    0.5648    0.6443   -1.3477 H   0  0  0  0  0  0  0  0  0  0  0  0
    1.3387   -1.3288   -1.0030 C   0  0  0  0  0  0  0  0  0  0  0  0
    1.9678   -1.1405   -0.1330 H   0  0  0  0  0  0  0  0  0  0  0  0
    0.8519   -2.7802   -0.9608 C   0  0  0  0  0  0  0  0  0  0  0  0
    0.2071   -2.9797   -1.8177 H   0  0  0  0  0  0  0  0  0  0  0  0
    1.7073   -3.4553   -0.9935 H   0  0  0  0  0  0  0  0  0  0  0  0
    0.2964   -2.9726   -0.0455 H   0  0  0  0  0  0  0  0  0  0  0  0
    2.1978   -1.1546   -2.2548 C   0  0  0  0  0  0  0  0  0  0  0  0
    2.5855   -0.1366   -2.2947 H   0  0  0  0  0  0  0  0  0  0  0  0
    3.0399   -1.8460   -2.2256 H   0  0  0  0  0  0  0  0  0  0  0  0
    1.6035   -1.3487   -3.1483 H   0  0  0  0  0  0  0  0  0  0  0  0
   -0.7793    1.3659    0.6455 C   0  0  0  0  0  0  0  0  0  0  0  0
   -1.6464    2.0125    0.0623 O   0  0  0  0  0  0  0  0  0  0  0  0
    0.0189    1.9059    1.5756 N   0  0  0  0  0  0  0  0  0  0  0  0
    0.7024    1.3094    2.0137 H   0  0  0  0  0  0  0  0  0  0  0  0
   -0.0451    3.3046    1.9929 C   0  0  0  0  0  0  0  0  0  0  0  0
   -1.0415    3.5286    2.3805 H   0  0  0  0  0  0  0  0  0  0  0  0
    0.6954    3.5023    2.7695 H   0  0  0  0  0  0  0  0  0  0  0  0
    0.1474    3.9536    1.1372 H   0  0  0  0  0  0  0  0  0  0  0  0
  5  6  2  0  0  0  0
  5  7  1  0  0  0  0
  2  3  1  0  0  0  0
  2  4  1  0  0  0  0
  2  5  1  0  0  0  0
  1  2  1  0  0  0  0
 24 25  2  0  0  0  0
 24 26  1  0  0  0  0
 20 21  1  0  0  0  0
 20 22  1  0  0  0  0
 20 23  1  0  0  0  0
 16 17  1  0  0  0  0
 16 18  1  0  0  0  0
 16 19  1  0  0  0  0
 14 15  1  0  0  0  0
 14 16  1  0  0  0  0
 14 20  1  0  0  0  0
 11 12  1  0  0  0  0
 11 13  1  0  0  0  0
 11 14  1  0  0  0  0
  9 10  1  0  0  0  0
  9 11  1  0  0  0  0
  9 24  1  0  0  0  0
  7  8  1  0  0  0  0
  7  9  1  0  0  0  0
 28 29  1  0  0  0  0
 28 30  1  0  0  0  0
 28 31  1  0  0  0  0
 26 27  1  0  0  0  0
 26 28  1  0  0  0  0
M  END
$$$$
default_name
  -OEChem-02102213163D

 31 30  0     1  0  0  0  0  0999 V2000
   -3.5895   -3.5013    1.1082 H   0  0  0  0  0  0  0  0  0  0  0  0
   -3.5145   -2.5363    0.6082 C   0  0  0  0  0  0  0  0  0  0  0  0
   -4.2285   -1.8413    1.0452 H   0  0  0  0  0  0  0  0  0  0  0  0
   -3.7155   -2.6583   -0.4538 H   0  0  0  0  0  0  0  0  0  0  0  0
   -2.1155   -1.9963    0.7922 C   0  0  0  0  0  0  0  0  0  0  0  0
   -1.2875   -2.6383    1.4252 O   0  0  0  0  0  0  0  0  0  0  0  0
   -1.8575   -0.8123    0.2402 N   0  0  0  0  0  0  0  0  0  0  0  0
   -2.6005   -0.3333   -0.2478 H   0  0  0  0  0  0  0  0  0  0  0  0
   -0.5675   -0.1203    0.3102 C   0  0  1  0  0  0  0  0  0  0  0  0
    0.0191   -0.5718    1.1110 H   0  0  0  0  0  0  0  0  0  0  0  0
    0.1724   -0.3238   -1.0286 C   0  0  0  0  0  0  0  0  0  0  0  0
   -0.5493   -0.6517   -1.7793 H   0  0  0  0  0  0  0  0  0  0  0  0
    0.5648    0.6443   -1.3477 H   0  0  0  0  0  0  0  0  0  0  0  0
    1.3387   -1.3288   -1.0030 C   0  0  0  0  0  0  0  0  0  0  0  0
    1.8081   -1.3229   -0.0193 H   0  0  0  0  0  0  0  0  0  0  0  0
    0.8826   -2.7540   -1.3287 C   0  0  0  0  0  0  0  0  0  0  0  0
    0.3957   -2.7732   -2.3046 H   0  0  0  0  0  0  0  0  0  0  0  0
    1.7454   -3.4202   -1.3475 H   0  0  0  0  0  0  0  0  0  0  0  0
    0.1850   -3.1155   -0.5763 H   0  0  0  0  0  0  0  0  0  0  0  0
    2.3926   -0.9229   -2.0325 C   0  0  0  0  0  0  0  0  0  0  0  0
    2.7598    0.0781   -1.8063 H   0  0  0  0  0  0  0  0  0  0  0  0
    3.2321   -1.6171   -1.9971 H   0  0  0  0  0  0  0  0  0  0  0  0
    1.9615   -0.9302   -3.0343 H   0  0  0  0  0  0  0  0  0  0  0  0
   -0.7793    1.3659    0.6455 C   0  0  0  0  0  0  0  0  0  0  0  0
   -1.6464    2.0125    0.0623 O   0  0  0  0  0  0  0  0  0  0  0  0
    0.0189    1.9059    1.5756 N   0  0  0  0  0  0  0  0  0  0  0  0
    0.7024    1.3094    2.0137 H   0  0  0  0  0  0  0  0  0  0  0  0
   -0.0451    3.3046    1.9929 C   0  0  0  0  0  0  0  0  0  0  0  0
   -1.0415    3.5286    2.3805 H   0  0  0  0  0  0  0  0  0  0  0  0
    0.6954    3.5023    2.7695 H   0  0  0  0  0  0  0  0  0  0  0  0
    0.1474    3.9536    1.1372 H   0  0  0  0  0  0  0  0  0  0  0  0
  5  6  2  0  0  0  0
  5  7  1  0  0  0  0
  2  3  1  0  0  0  0
  2  4  1  0  0  0  0
  2  5  1  0  0  0  0
  1  2  1  0  0  0  0
 24 25  2  0  0  0  0
 24 26  1  0  0  0  0
 20 21  1  0  0  0  0
 20 22  1  0  0  0  0
 20 23  1  0  0  0  0
 16 17  1  0  0  0  0
 16 18  1  0  0  0  0
 16 19  1  0  0  0  0
 14 15  1  0  0  0  0
 14 16  1  0  0  0  0
 14 20  1  0  0  0  0
 11 12  1  0  0  0  0
 11 13  1  0  0  0  0
 11 14  1  0  0  0  0
  9 10  1  0  0  0  0
  9 11  1  0  0  0  0
  9 24  1  0  0  0  0
  7  8  1  0  0  0  0
  7  9  1  0  0  0  0
 28 29  1  0  0  0  0
 28 30  1  0  0  0  0
 28 31  1  0  0  0  0
 26 27  1  0  0  0  0
 26 28  1  0  0  0  0
M  END
$$$$
default_name
  -OEChem-02102213163D

 31 30  0     1  0  0  0  0  0999 V2000
   -3.5895   -3.5013    1.1082 H   0  0  0  0  0  0  0  0  0  0  0  0
   -3.5145   -2.5363    0.6082 C   0  0  0  0  0  0  0  0  0  0  0  0
   -4.2285   -1.8413    1.0452 H   0  0  0  0  0  0  0  0  0  0  0  0
   -3.7155   -2.6583   -0.4538 H   0  0  0  0  0  0  0  0  0  0  0  0
   -2.1155   -1.9963    0.7922 C   0  0  0  0  0  0  0  0  0  0  0  0
   -1.2875   -2.6383    1.4252 O   0  0  0  0  0  0  0  0  0  0  0  0
   -1.8575   -0.8123    0.2402 N   0  0  0  0  0  0  0  0  0  0  0  0
   -2.6005   -0.3333   -0.2478 H   0  0  0  0  0  0  0  0  0  0  0  0
   -0.5675   -0.1203    0.3102 C   0  0  1  0  0  0  0  0  0  0  0  0
    0.0191   -0.5718    1.1110 H   0  0  0  0  0  0  0  0  0  0  0  0
    0.1724   -0.3238   -1.0286 C   0  0  0  0  0  0  0  0  0  0  0  0
   -0.5493   -0.6517   -1.7793 H   0  0  0  0  0  0  0  0  0  0  0  0
    0.5648    0.6443   -1.3477 H   0  0  0  0  0  0  0  0  0  0  0  0
    1.3387   -1.3288   -1.0030 C   0  0  0  0  0  0  0  0  0  0  0  0
    1.6354   -1.5221    0.0279 H   0  0  0  0  0  0  0  0  0  0  0  0
    0.9743   -2.6564   -1.6737 C   0  0  0  0  0  0  0  0  0  0  0  0
    0.6592   -2.4775   -2.7027 H   0  0  0  0  0  0  0  0  0  0  0  0
    1.8417   -3.3168   -1.6762 H   0  0  0  0  0  0  0  0  0  0  0  0
    0.1676   -3.1499   -1.1358 H   0  0  0  0  0  0  0  0  0  0  0  0
    2.5422   -0.7418   -1.7396 C   0  0  0  0  0  0  0  0  0  0  0  0
    2.8447    0.1906   -1.2630 H   0  0  0  0  0  0  0  0  0  0  0  0
    3.3782   -1.4400   -1.6990 H   0  0  0  0  0  0  0  0  0  0  0  0
    2.2863   -0.5469   -2.7816 H   0  0  0  0  0  0  0  0  0  0  0  0
   -0.7793    1.3659    0.6455 C   0  0  0  0  0  0  0  0  0  0  0  0
   -1.6464    2.0125    0.0623 O   0  0  0  0  0  0  0  0  0  0  0  0
    0.0189    1.9059    1.5756 N   0  0  0  0  0  0  0  0  0  0  0  0
    0.7024    1.3094    2.0137 H   0  0  0  0  0  0  0  0  0  0  0  0
   -0.0451    3.3046    1.9929 C   0  0  0  0  0  0  0  0  0  0  0  0
   -1.0415    3.5286    2.3805 H   0  0  0  0  0  0  0  0  0  0  0  0
    0.6954    3.5023    2.7695 H   0  0  0  0  0  0  0  0  0  0  0  0
    0.1474    3.9536    1.1372 H   0  0  0  0  0  0  0  0  0  0  0  0
  5  6  2  0  0  0  0
  5  7  1  0  0  0  0
  2  3  1  0  0  0  0
  2  4  1  0  0  0  0
  2  5  1  0  0  0  0
  1  2  1  0  0  0  0
 24 25  2  0  0  0  0
 24 26  1  0  0  0  0
 20 21  1  0  0  0  0
 20 22  1  0  0  0  0
 20 23  1  0  0  0  0
 16 17  1  0  0  0  0
 16 18  1  0  0  0  0
 16 19  1  0  0  0  0
 14 15  1  0  0  0  0
 14 16  1  0  0  0  0
 14 20  1  0  0  0  0
 11 12  1  0  0  0  0
 11 13  1  0  0  0  0
 11 14  1  0  0  0  0
  9 10  1  0  0  0  0
  9 11  1  0  0  0  0
  9 24  1  0  0  0  0
  7  8  1  0  0  0  0
  7  9  1  0  0  0  0
 28 29  1  0  0  0  0
 28 30  1  0  0  0  0
 28 31  1  0  0  0  0
 26 27  1  0  0  0  0
 26 28  1  0  0  0  0
M  END
$$$$
default_name
  -OEChem-02102213163D

 31 30  0     1  0  0  0  0  0999 V2000
   -3.5895   -3.5013    1.1082 H   0  0  0  0  0  0  0  0  0  0  0  0
   -3.5145   -2.5363    0.6082 C   0  0  0  0  0  0  0  0  0  0  0  0
   -4.2285   -1.8413    1.0452 H   0  0  0  0  0  0  0  0  0  0  0  0
   -3.7155   -2.6583   -0.4538 H   0  0  0  0  0  0  0  0  0  0  0  0
   -2.1155   -1.9963    0.7922 C   0  0  0  0  0  0  0  0  0  0  0  0
   -1.2875   -2.6383    1.4252 O   0  0  0  0  0  0  0  0  0  0  0  0
   -1.8575   -0.8123    0.2402 N   0  0  0  0  0  0  0  0  0  0  0  0
   -2.6005   -0.3333   -0.2478 H   0  0  0  0  0  0  0  0  0  0  0  0
   -0.5675   -0.1203    0.3102 C   0  0  1  0  0  0  0  0  0  0  0  0
    0.0191   -0.5718    1.1110 H   0  0  0  0  0  0  0  0  0  0  0  0
    0.1724   -0.3238   -1.0286 C   0  0  0  0  0  0  0  0  0  0  0  0
   -0.5493   -0.6517   -1.7793 H   0  0  0  0  0  0  0  0  0  0  0  0
    0.5648    0.6443   -1.3477 H   0  0  0  0  0  0  0  0  0  0  0  0
    1.3387   -1.3288   -1.0030 C   0  0  0  0  0  0  0  0  0  0  0  0
    1.4615   -1.7245    0.0052 H   0  0  0  0  0  0  0  0  0  0  0  0
    1.1206   -2.4941   -1.9724 C   0  0  0  0  0  0  0  0  0  0  0  0
    0.9798   -2.1127   -2.9846 H   0  0  0  0  0  0  0  0  0  0  0  0
    1.9899   -3.1520   -1.9570 H   0  0  0  0  0  0  0  0  0  0  0  0
    0.2455   -3.0735   -1.6860 H   0  0  0  0  0  0  0  0  0  0  0  0
    2.6364   -0.6237   -1.3958 C   0  0  0  0  0  0  0  0  0  0  0  0
    2.8345    0.1930   -0.7018 H   0  0  0  0  0  0  0  0  0  0  0  0
    3.4682   -1.3267   -1.3516 H   0  0  0  0  0  0  0  0  0  0  0  0
    2.5557   -0.2247   -2.4075 H   0  0  0  0  0  0  0  0  0  0  0  0
   -0.7793    1.3659    0.6455 C   0  0  0  0  0  0  0  0  0  0  0  0
   -1.6464    2.0125    0.0623 O   0  0  0  0  0  0  0  0  0  0  0  0
    0.0189    1.9059    1.5756 N   0  0  0  0  0  0  0  0  0  0  0  0
    0.7024    1.3094    2.0137 H   0  0  0  0  0  0  0  0  0  0  0  0
   -0.0451    3.3046    1.9929 C   0  0  0  0  0  0  0  0  0  0  0  0
   -1.0415    3.5286    2.3805 H   0  0  0  0  0  0  0  0  0  0  0  0
    0.6954    3.5023    2.7695 H   0  0  0  0  0  0  0  0  0  0  0  0
    0.1474    3.9536    1.1372 H   0  0  0  0  0  0  0  0  0  0  0  0
  5  6  2  0  0  0  0
  5  7  1  0  0  0  0
  2  3  1  0  0  0  0
  2  4  1  0  0  0  0
  2  5  1  0  0  0  0
  1  2  1  0  0  0  0
 24 25  2  0  0  0  0
 24 26  1  0  0  0  0
 20 21  1  0  0  0  0
 20 22  1  0  0  0  0
 20 23  1  0  0  0  0
 16 17  1  0  0  0  0
 16 18  1  0  0  0  0
 16 19  1  0  0  0  0
 14 15  1  0  0  0  0
 14 16  1  0  0  0  0
 14 20  1  0  0  0  0
 11 12  1  0  0  0  0
 11 13  1  0  0  0  0
 11 14  1  0  0  0  0
  9 10  1  0  0  0  0
  9 11  1  0  0  0  0
  9 24  1  0  0  0  0
  7  8  1  0  0  0  0
  7  9  1  0  0  0  0
 28 29  1  0  0  0  0
 28 30  1  0  0  0  0
 28 31  1  0  0  0  0
 26 27  1  0  0  0  0
 26 28  1  0  0  0  0
M  END
$$$$
default_name
  -OEChem-02102213163D

 31 30  0     1  0  0  0  0  0999 V2000
   -3.5895   -3.5013    1.1082 H   0  0  0  0  0  0  0  0  0  0  0  0
   -3.5145   -2.5363    0.6082 C   0  0  0  0  0  0  0  0  0  0  0  0
   -4.2285   -1.8413    1.0452 H   0  0  0  0  0  0  0  0  0  0  0  0
   -3.7155   -2.6583   -0.4538 H   0  0  0  0  0  0  0  0  0  0  0  0
   -2.1155   -1.9963    0.7922 C   0  0  0  0  0  0  0  0  0  0  0  0
   -1.2875   -2.6383    1.4252 O   0  0  0  0  0  0  0  0  0  0  0  0
   -1.8575   -0.8123    0.2402 N   0  0  0  0  0  0  0  0  0  0  0  0
   -2.6005   -0.3333   -0.2478 H   0  0  0  0  0  0  0  0  0  0  0  0
   -0.5675   -0.1203    0.3102 C   0  0  1  0  0  0  0  0  0  0  0  0
    0.0191   -0.5718    1.1110 H   0  0  0  0  0  0  0  0  0  0  0  0
    0.1724   -0.3238   -1.0286 C   0  0  0  0  0  0  0  0  0  0  0  0
   -0.5493   -0.6517   -1.7793 H   0  0  0  0  0  0  0  0  0  0  0  0
    0.5648    0.6443   -1.3477 H   0  0  0  0  0  0  0  0  0  0  0  0
    1.3387   -1.3288   -1.0030 C   0  0  0  0  0  0  0  0  0  0  0  0
    1.2982   -1.9164   -0.0858 H   0  0  0  0  0  0  0  0  0  0  0  0
    1.3118   -2.2782   -2.2043 C   0  0  0  0  0  0  0  0  0  0  0  0
    1.3355   -1.7036   -3.1313 H   0  0  0  0  0  0  0  0  0  0  0  0
    2.1797   -2.9371   -2.1710 H   0  0  0  0  0  0  0  0  0  0  0  0
    0.4134   -2.8915   -2.1892 H   0  0  0  0  0  0  0  0  0  0  0  0
    2.6688   -0.5766   -1.0247 C   0  0  0  0  0  0  0  0  0  0  0  0
    2.7299    0.0853   -0.1609 H   0  0  0  0  0  0  0  0  0  0  0  0
    3.4960   -1.2849   -0.9787 H   0  0  0  0  0  0  0  0  0  0  0  0
    2.7513    0.0143   -1.9376 H   0  0  0  0  0  0  0  0  0  0  0  0
   -0.7793    1.3659    0.6455 C   0  0  0  0  0  0  0  0  0  0  0  0
   -1.6464    2.0125    0.0623 O   0  0  0  0  0  0  0  0  0  0  0  0
    0.0189    1.9059    1.5756 N   0  0  0  0  0  0  0  0  0  0  0  0
    0.7024    1.3094    2.0137 H   0  0  0  0  0  0  0  0  0  0  0  0
   -0.0451    3.3046    1.9929 C   0  0  0  0  0  0  0  0  0  0  0  0
   -1.0415    3.5286    2.3805 H   0  0  0  0  0  0  0  0  0  0  0  0
    0.6954    3.5023    2.7695 H   0  0  0  0  0  0  0  0  0  0  0  0
    0.1474    3.9536    1.1372 H   0  0  0  0  0  0  0  0  0  0  0  0
  5  6  2  0  0  0  0
  5  7  1  0  0  0  0
  2  3  1  0  0  0  0
  2  4  1  0  0  0  0
  2  5  1  0  0  0  0
  1  2  1  0  0  0  0
 24 25  2  0  0  0  0
 24 26  1  0  0  0  0
 20 21  1  0  0  0  0
 20 22  1  0  0  0  0
 20 23  1  0  0  0  0
 16 17  1  0  0  0  0
 16 18  1  0  0  0  0
 16 19  1  0  0  0  0
 14 15  1  0  0  0  0
 14 16  1  0  0  0  0
 14 20  1  0  0  0  0
 11 12  1  0  0  0  0
 11 13  1  0  0  0  0
 11 14  1  0  0  0  0
  9 10  1  0  0  0  0
  9 11  1  0  0  0  0
  9 24  1  0  0  0  0
  7  8  1  0  0  0  0
  7  9  1  0  0  0  0
 28 29  1  0  0  0  0
 28 30  1  0  0  0  0
 28 31  1  0  0  0  0
 26 27  1  0  0  0  0
 26 28  1  0  0  0  0
M  END
$$$$
default_name
  -OEChem-02102213163D

 31 30  0     1  0  0  0  0  0999 V2000
   -3.5895   -3.5013    1.1082 H   0  0  0  0  0  0  0  0  0  0  0  0
   -3.5145   -2.5363    0.6082 C   0  0  0  0  0  0  0  0  0  0  0  0
   -4.2285   -1.8413    1.0452 H   0  0  0  0  0  0  0  0  0  0  0  0
   -3.7155   -2.6583   -0.4538 H   0  0  0  0  0  0  0  0  0  0  0  0
   -2.1155   -1.9963    0.7922 C   0  0  0  0  0  0  0  0  0  0  0  0
   -1.2875   -2.6383    1.4252 O   0  0  0  0  0  0  0  0  0  0  0  0
   -1.8575   -0.8123    0.2402 N   0  0  0  0  0  0  0  0  0  0  0  0
   -2.6005   -0.3333   -0.2478 H   0  0  0  0  0  0  0  0  0  0  0  0
   -0.5675   -0.1203    0.3102 C   0  0  1  0  0  0  0  0  0  0  0  0
    0.0191   -0.5718    1.1110 H   0  0  0  0  0  0  0  0  0  0  0  0
    0.1724   -0.3238   -1.0286 C   0  0  0  0  0  0  0  0  0  0  0  0
   -0.5493   -0.6517   -1.7793 H   0  0  0  0  0  0  0  0  0  0  0  0
    0.5648    0.6443   -1.3477 H   0  0  0  0  0  0  0  0  0  0  0  0
    1.3387   -1.3288   -1.0030 C   0  0  0  0  0  0  0  0  0  0  0  0
    1.1567   -2.0845   -0.2389 H   0  0  0  0  0  0  0  0  0  0  0  0
    1.5347   -2.0233   -2.3537 C   0  0  0  0  0  0  0  0  0  0  0  0
    1.7020   -1.2782   -3.1327 H   0  0  0  0  0  0  0  0  0  0  0  0
    2.3983   -2.6868   -2.3035 H   0  0  0  0  0  0  0  0  0  0  0  0
    0.6598   -2.6163   -2.6113 H   0  0  0  0  0  0  0  0  0  0  0  0
    2.6372   -0.6038   -0.6515 C   0  0  0  0  0  0  0  0  0  0  0  0
    2.5379   -0.1252    0.3227 H   0  0  0  0  0  0  0  0  0  0  0  0
    3.4597   -1.3176   -0.6056 H   0  0  0  0  0  0  0  0  0  0  0  0
    2.8599    0.1539   -1.4037 H   0  0  0  0  0  0  0  0  0  0  0  0
   -0.7793    1.3659    0.6455 C   0  0  0  0  0  0  0  0  0  0  0  0
   -1.6464    2.0125    0.0623 O   0  0  0  0  0  0  0  0  0  0  0  0
    0.0189    1.9059    1.5756 N   0  0  0  0  0  0  0  0  0  0  0  0
    0.7024    1.3094    2.0137 H   0  0  0  0  0  0  0  0  0  0  0  0
   -0.0451    3.3046    1.9929 C   0  0  0  0  0  0  0  0  0  0  0  0
   -1.0415    3.5286    2.3805 H   0  0  0  0  0  0  0  0  0  0  0  0
    0.6954    3.5023    2.7695 H   0  0  0  0  0  0  0  0  0  0  0  0
    0.1474    3.9536    1.1372 H   0  0  0  0  0  0  0  0  0  0  0  0
  5  6  2  0  0  0  0
  5  7  1  0  0  0  0
  2  3  1  0  0  0  0
  2  4  1  0  0  0  0
  2  5  1  0  0  0  0
  1  2  1  0  0  0  0
 24 25  2  0  0  0  0
 24 26  1  0  0  0  0
 20 21  1  0  0  0  0
 20 22  1  0  0  0  0
 20 23  1  0  0  0  0
 16 17  1  0  0  0  0
 16 18  1  0  0  0  0
 16 19  1  0  0  0  0
 14 15  1  0  0  0  0
 14 16  1  0  0  0  0
 14 20  1  0  0  0  0
 11 12  1  0  0  0  0
 11 13  1  0  0  0  0
 11 14  1  0  0  0  0
  9 10  1  0  0  0  0
  9 11  1  0  0  0  0
  9 24  1  0  0  0  0
  7  8  1  0  0  0  0
  7  9  1  0  0  0  0
 28 29  1  0  0  0  0
 28 30  1  0  0  0  0
 28 31  1  0  0  0  0
 26 27  1  0  0  0  0
 26 28  1  0  0  0  0
M  END
$$$$
default_name
  -OEChem-02102213163D

 31 30  0     1  0  0  0  0  0999 V2000
   -3.5895   -3.5013    1.1082 H   0  0  0  0  0  0  0  0  0  0  0  0
   -3.5145   -2.5363    0.6082 C   0  0  0  0  0  0  0  0  0  0  0  0
   -4.2285   -1.8413    1.0452 H   0  0  0  0  0  0  0  0  0  0  0  0
   -3.7155   -2.6583   -0.4538 H   0  0  0  0  0  0  0  0  0  0  0  0
   -2.1155   -1.9963    0.7922 C   0  0  0  0  0  0  0  0  0  0  0  0
   -1.2875   -2.6383    1.4252 O   0  0  0  0  0  0  0  0  0  0  0  0
   -1.8575   -0.8123    0.2402 N   0  0  0  0  0  0  0  0  0  0  0  0
   -2.6005   -0.3333   -0.2478 H   0  0  0  0  0  0  0  0  0  0  0  0
   -0.5675   -0.1203    0.3102 C   0  0  1  0  0  0  0  0  0  0  0  0
    0.0191   -0.5718    1.1110 H   0  0  0  0  0  0  0  0  0  0  0  0
    0.1724   -0.3238   -1.0286 C   0  0  0  0  0  0  0  0  0  0  0  0
   -0.5493   -0.6517   -1.7793 H   0  0  0  0  0  0  0  0  0  0  0  0
    0.5648    0.6443   -1.3477 H   0  0  0  0  0  0  0  0  0  0  0  0
    1.3387   -1.3288   -1.0030 C   0  0  0  0  0  0  0  0  0  0  0  0
    1.0466   -2.2175   -0.4436 H   0  0  0  0  0  0  0  0  0  0  0  0
    1.7741   -1.7469   -2.4104 C   0  0  0  0  0  0  0  0  0  0  0  0
    2.0545   -0.8655   -2.9887 H   0  0  0  0  0  0  0  0  0  0  0  0
    2.6308   -2.4181   -2.3455 H   0  0  0  0  0  0  0  0  0  0  0  0
    0.9678   -2.2667   -2.9234 H   0  0  0  0  0  0  0  0  0  0  0  0
    2.5438   -0.7033   -0.3017 C   0  0  0  0  0  0  0  0  0  0  0  0
    2.2716   -0.4241    0.7161 H   0  0  0  0  0  0  0  0  0  0  0  0
    3.3617   -1.4225   -0.2578 H   0  0  0  0  0  0  0  0  0  0  0  0
    2.8739    0.1845   -0.8423 H   0  0  0  0  0  0  0  0  0  0  0  0
   -0.7793    1.3659    0.6455 C   0  0  0  0  0  0  0  0  0  0  0  0
   -1.6464    2.0125    0.0623 O   0  0  0  0  0  0  0  0  0  0  0  0
    0.0189    1.9059    1.5756 N   0  0  0  0  0  0  0  0  0  0  0  0
    0.7024    1.3094    2.0137 H   0  0  0  0  0  0  0  0  0  0  0  0
   -0.0451    3.3046    1.9929 C   0  0  0  0  0  0  0  0  0  0  0  0
   -1.0415    3.5286    2.3805 H   0  0  0  0  0  0  0  0  0  0  0  0
    0.6954    3.5023    2.7695 H   0  0  0  0  0  0  0  0  0  0  0  0
    0.1474    3.9536    1.1372 H   0  0  0  0  0  0  0  0  0  0  0  0
  5  6  2  0  0  0  0
  5  7  1  0  0  0  0
  2  3  1  0  0  0  0
  2  4  1  0  0  0  0
  2  5  1  0  0  0  0
  1  2  1  0  0  0  0
 24 25  2  0  0  0  0
 24 26  1  0  0  0  0
 20 21  1  0  0  0  0
 20 22  1  0  0  0  0
 20 23  1  0  0  0  0
 16 17  1  0  0  0  0
 16 18  1  0  0  0  0
 16 19  1  0  0  0  0
 14 15  1  0  0  0  0
 14 16  1  0  0  0  0
 14 20  1  0  0  0  0
 11 12  1  0  0  0  0
 11 13  1  0  0  0  0
 11 14  1  0  0  0  0
  9 10  1  0  0  0  0
  9 11  1  0  0  0  0
  9 24  1  0  0  0  0
  7  8  1  0  0  0  0
  7  9  1  0  0  0  0
 28 29  1  0  0  0  0
 28 30  1  0  0  0  0
 28 31  1  0  0  0  0
 26 27  1  0  0  0  0
 26 28  1  0  0  0  0
M  END
$$$$
default_name
  -OEChem-02102213163D

 31 30  0     1  0  0  0  0  0999 V2000
   -3.5895   -3.5013    1.1082 H   0  0  0  0  0  0  0  0  0  0  0  0
   -3.5145   -2.5363    0.6082 C   0  0  0  0  0  0  0  0  0  0  0  0
   -4.2285   -1.8413    1.0452 H   0  0  0  0  0  0  0  0  0  0  0  0
   -3.7155   -2.6583   -0.4538 H   0  0  0  0  0  0  0  0  0  0  0  0
   -2.1155   -1.9963    0.7922 C   0  0  0  0  0  0  0  0  0  0  0  0
   -1.2875   -2.6383    1.4252 O   0  0  0  0  0  0  0  0  0  0  0  0
   -1.8575   -0.8123    0.2402 N   0  0  0  0  0  0  0  0  0  0  0  0
   -2.6005   -0.3333   -0.2478 H   0  0  0  0  0  0  0  0  0  0  0  0
   -0.5675   -0.1203    0.3102 C   0  0  1  0  0  0  0  0  0  0  0  0
    0.0191   -0.5718    1.1110 H   0  0  0  0  0  0  0  0  0  0  0  0
    0.1724   -0.3238   -1.0286 C   0  0  0  0  0  0  0  0  0  0  0  0
   -0.5670   -0.3869   -1.8294 H   0  0  0  0  0  0  0  0  0  0  0  0
    0.7852    0.5612   -1.2133 H   0  0  0  0  0  0  0  0  0  0  0  0
    1.0833   -1.5626   -1.1086 C   0  0  0  0  0  0  0  0  0  0  0  0
    0.4968   -2.4632   -0.9267 H   0  0  0  0  0  0  0  0  0  0  0  0
    1.7759   -1.6856   -2.4689 C   0  0  0  0  0  0  0  0  0  0  0  0
    2.3547   -0.7838   -2.6729 H   0  0  0  0  0  0  0  0  0  0  0  0
    2.4459   -2.5456   -2.4633 H   0  0  0  0  0  0  0  0  0  0  0  0
    1.0438   -1.8248   -3.2615 H   0  0  0  0  0  0  0  0  0  0  0  0
    2.1657   -1.4777   -0.0331 C   0  0  0  0  0  0  0  0  0  0  0  0
    1.7011   -1.4213    0.9512 H   0  0  0  0  0  0  0  0  0  0  0  0
    2.7952   -2.3668   -0.0697 H   0  0  0  0  0  0  0  0  0  0  0  0
    2.7834   -0.5928   -0.1908 H   0  0  0  0  0  0  0  0  0  0  0  0
   -0.7793    1.3659    0.6455 C   0  0  0  0  0  0  0  0  0  0  0  0
   -1.6464    2.0125    0.0623 O   0  0  0  0  0  0  0  0  0  0  0  0
    0.0189    1.9059    1.5756 N   0  0  0  0  0  0  0  0  0  0  0  0
    0.7024    1.3094    2.0137 H   0  0  0  0  0  0  0  0  0  0  0  0
   -0.0451    3.3046    1.9929 C   0  0  0  0  0  0  0  0  0  0  0  0
   -1.0415    3.5286    2.3805 H   0  0  0  0  0  0  0  0  0  0  0  0
    0.6954    3.5023    2.7695 H   0  0  0  0  0  0  0  0  0  0  0  0
    0.1474    3.9536    1.1372 H   0  0  0  0  0  0  0  0  0  0  0  0
  5  6  2  0  0  0  0
  5  7  1  0  0  0  0
  2  3  1  0  0  0  0
  2  4  1  0  0  0  0
  2  5  1  0  0  0  0
  1  2  1  0  0  0  0
 24 25  2  0  0  0  0
 24 26  1  0  0  0  0
 20 21  1  0  0  0  0
 20 22  1  0  0  0  0
 20 23  1  0  0  0  0
 16 17  1  0  0  0  0
 16 18  1  0  0  0  0
 16 19  1  0  0  0  0
 14 15  1  0  0  0  0
 14 16  1  0  0  0  0
 14 20  1  0  0  0  0
 11 12  1  0  0  0  0
 11 13  1  0  0  0  0
 11 14  1  0  0  0  0
  9 10  1  0  0  0  0
  9 11  1  0  0  0  0
  9 24  1  0  0  0  0
  7  8  1  0  0  0  0
  7  9  1  0  0  0  0
 28 29  1  0  0  0  0
 28 30  1  0  0  0  0
 28 31  1  0  0  0  0
 26 27  1  0  0  0  0
 26 28  1  0  0  0  0
M  END
$$$$
default_name
  -OEChem-02102213163D

 31 30  0     1  0  0  0  0  0999 V2000
   -3.5895   -3.5013    1.1082 H   0  0  0  0  0  0  0  0  0  0  0  0
   -3.5145   -2.5363    0.6082 C   0  0  0  0  0  0  0  0  0  0  0  0
   -4.2285   -1.8413    1.0452 H   0  0  0  0  0  0  0  0  0  0  0  0
   -3.7155   -2.6583   -0.4538 H   0  0  0  0  0  0  0  0  0  0  0  0
   -2.1155   -1.9963    0.7922 C   0  0  0  0  0  0  0  0  0  0  0  0
   -1.2875   -2.6383    1.4252 O   0  0  0  0  0  0  0  0  0  0  0  0
   -1.8575   -0.8123    0.2402 N   0  0  0  0  0  0  0  0  0  0  0  0
   -2.6005   -0.3333   -0.2478 H   0  0  0  0  0  0  0  0  0  0  0  0
   -0.5675   -0.1203    0.3102 C   0  0  1  0  0  0  0  0  0  0  0  0
    0.0191   -0.5718    1.1110 H   0  0  0  0  0  0  0  0  0  0  0  0
    0.1724   -0.3238   -1.0286 C   0  0  0  0  0  0  0  0  0  0  0  0
   -0.5670   -0.3869   -1.8294 H   0  0  0  0  0  0  0  0  0  0  0  0
    0.7852    0.5612   -1.2133 H   0  0  0  0  0  0  0  0  0  0  0  0
    1.0833   -1.5626   -1.1086 C   0  0  0  0  0  0  0  0  0  0  0  0
    0.4743   -2.4626   -1.1935 H   0  0  0  0  0  0  0  0  0  0  0  0
    2.0456   -1.4983   -2.2982 C   0  0  0  0  0  0  0  0  0  0  0  0
    2.6518   -0.5935   -2.2359 H   0  0  0  0  0  0  0  0  0  0  0  0
    2.7020   -2.3687   -2.2869 H   0  0  0  0  0  0  0  0  0  0  0  0
    1.4960   -1.4939   -3.2370 H   0  0  0  0  0  0  0  0  0  0  0  0
    1.9165   -1.6740    0.1677 C   0  0  0  0  0  0  0  0  0  0  0  0
    1.2559   -1.7538    1.0310 H   0  0  0  0  0  0  0  0  0  0  0  0
    2.5421   -2.5655    0.1254 H   0  0  0  0  0  0  0  0  0  0  0  0
    2.5509   -0.7941    0.2801 H   0  0  0  0  0  0  0  0  0  0  0  0
   -0.7793    1.3659    0.6455 C   0  0  0  0  0  0  0  0  0  0  0  0
   -1.6464    2.0125    0.0623 O   0  0  0  0  0  0  0  0  0  0  0  0
    0.0189    1.9059    1.5756 N   0  0  0  0  0  0  0  0  0  0  0  0
    0.7024    1.3094    2.0137 H   0  0  0  0  0  0  0  0  0  0  0  0
   -0.0451    3.3046    1.9929 C   0  0  0  0  0  0  0  0  0  0  0  0
   -1.0415    3.5286    2.3805 H   0  0  0  0  0  0  0  0  0  0  0  0
    0.6954    3.5023    2.7695 H   0  0  0  0  0  0  0  0  0  0  0  0
    0.1474    3.9536    1.1372 H   0  0  0  0  0  0  0  0  0  0  0  0
  5  6  2  0  0  0  0
  5  7  1  0  0  0  0
  2  3  1  0  0  0  0
  2  4  1  0  0  0  0
  2  5  1  0  0  0  0
  1  2  1  0  0  0  0
 24 25  2  0  0  0  0
 24 26  1  0  0  0  0
 20 21  1  0  0  0  0
 20 22  1  0  0  0  0
 20 23  1  0  0  0  0
 16 17  1  0  0  0  0
 16 18  1  0  0  0  0
 16 19  1  0  0  0  0
 14 15  1  0  0  0  0
 14 16  1  0  0  0  0
 14 20  1  0  0  0  0
 11 12  1  0  0  0  0
 11 13  1  0  0  0  0
 11 14  1  0  0  0  0
  9 10  1  0  0  0  0
  9 11  1  0  0  0  0
  9 24  1  0  0  0  0
  7  8  1  0  0  0  0
  7  9  1  0  0  0  0
 28 29  1  0  0  0  0
 28 30  1  0  0  0  0
 28 31  1  0  0  0  0
 26 27  1  0  0  0  0
 26 28  1  0  0  0  0
M  END
$$$$
default_name
  -OEChem-02102213163D

 31 30  0     1  0  0  0  0  0999 V2000
   -3.5895   -3.5013    1.1082 H   0  0  0  0  0  0  0  0  0  0  0  0
   -3.5145   -2.5363    0.6082 C   0  0  0  0  0  0  0  0  0  0  0  0
   -4.2285   -1.8413    1.0452 H   0  0  0  0  0  0  0  0  0  0  0  0
   -3.7155   -2.6583   -0.4538 H   0  0  0  0  0  0  0  0  0  0  0  0
   -2.1155   -1.9963    0.7922 C   0  0  0  0  0  0  0  0  0  0  0  0
   -1.2875   -2.6383    1.4252 O   0  0  0  0  0  0  0  0  0  0  0  0
   -1.8575   -0.8123    0.2402 N   0  0  0  0  0  0  0  0  0  0  0  0
   -2.6005   -0.3333   -0.2478 H   0  0  0  0  0  0  0  0  0  0  0  0
   -0.5675   -0.1203    0.3102 C   0  0  1  0  0  0  0  0  0  0  0  0
    0.0191   -0.5718    1.1110 H   0  0  0  0  0  0  0  0  0  0  0  0
    0.1724   -0.3238   -1.0286 C   0  0  0  0  0  0  0  0  0  0  0  0
   -0.5670   -0.3869   -1.8294 H   0  0  0  0  0  0  0  0  0  0  0  0
    0.7852    0.5612   -1.2133 H   0  0  0  0  0  0  0  0  0  0  0  0
    1.0833   -1.5626   -1.1086 C   0  0  0  0  0  0  0  0  0  0  0  0
    0.5081   -2.4208   -1.4559 H   0  0  0  0  0  0  0  0  0  0  0  0
    2.2730   -1.3471   -2.0485 C   0  0  0  0  0  0  0  0  0  0  0  0
    2.8503   -0.4807   -1.7229 H   0  0  0  0  0  0  0  0  0  0  0  0
    2.9150   -2.2283   -2.0361 H   0  0  0  0  0  0  0  0  0  0  0  0
    1.9321   -1.1840   -3.0686 H   0  0  0  0  0  0  0  0  0  0  0  0
    1.6312   -1.8910    0.2797 C   0  0  0  0  0  0  0  0  0  0  0  0
    0.8049   -2.0812    0.9645 H   0  0  0  0  0  0  0  0  0  0  0  0
    2.2544   -2.7839    0.2307 H   0  0  0  0  0  0  0  0  0  0  0  0
    2.2257   -1.0575    0.6558 H   0  0  0  0  0  0  0  0  0  0  0  0
   -0.7793    1.3659    0.6455 C   0  0  0  0  0  0  0  0  0  0  0  0
   -1.6464    2.0125    0.0623 O   0  0  0  0  0  0  0  0  0  0  0  0
    0.0189    1.9059    1.5756 N   0  0  0  0  0  0  0  0  0  0  0  0
    0.7024    1.3094    2.0137 H   0  0  0  0  0  0  0  0  0  0  0  0
   -0.0451    3.3046    1.9929 C   0  0  0  0  0  0  0  0  0  0  0  0
   -1.0415    3.5286    2.3805 H   0  0  0  0  0  0  0  0  0  0  0  0
    0.6954    3.5023    2.7695 H   0  0  0  0  0  0  0  0  0  0  0  0
    0.1474    3.9536    1.1372 H   0  0  0  0  0  0  0  0  0  0  0  0
  5  6  2  0  0  0  0
  5  7  1  0  0  0  0
  2  3  1  0  0  0  0
  2  4  1  0  0  0  0
  2  5  1  0  0  0  0
  1  2  1  0  0  0  0
 24 25  2  0  0  0  0
 24 26  1  0  0  0  0
 20 21  1  0  0  0  0
 20 22  1  0  0  0  0
 20 23  1  0  0  0  0
 16 17  1  0  0  0  0
 16 18  1  0  0  0  0
 16 19  1  0  0  0  0
 14 15  1  0  0  0  0
 14 16  1  0  0  0  0
 14 20  1  0  0  0  0
 11 12  1  0  0  0  0
 11 13  1  0  0  0  0
 11 14  1  0  0  0  0
  9 10  1  0  0  0  0
  9 11  1  0  0  0  0
  9 24  1  0  0  0  0
  7  8  1  0  0  0  0
  7  9  1  0  0  0  0
 28 29  1  0  0  0  0
 28 30  1  0  0  0  0
 28 31  1  0  0  0  0
 26 27  1  0  0  0  0
 26 28  1  0  0  0  0
M  END
$$$$
default_name
  -OEChem-02102213163D

 31 30  0     1  0  0  0  0  0999 V2000
   -3.5895   -3.5013    1.1082 H   0  0  0  0  0  0  0  0  0  0  0  0
   -3.5145   -2.5363    0.6082 C   0  0  0  0  0  0  0  0  0  0  0  0
   -4.2285   -1.8413    1.0452 H   0  0  0  0  0  0  0  0  0  0  0  0
   -3.7155   -2.6583   -0.4538 H   0  0  0  0  0  0  0  0  0  0  0  0
   -2.1155   -1.9963    0.7922 C   0  0  0  0  0  0  0  0  0  0  0  0
   -1.2875   -2.6383    1.4252 O   0  0  0  0  0  0  0  0  0  0  0  0
   -1.8575   -0.8123    0.2402 N   0  0  0  0  0  0  0  0  0  0  0  0
   -2.6005   -0.3333   -0.2478 H   0  0  0  0  0  0  0  0  0  0  0  0
   -0.5675   -0.1203    0.3102 C   0  0  1  0  0  0  0  0  0  0  0  0
    0.0191   -0.5718    1.1110 H   0  0  0  0  0  0  0  0  0  0  0  0
    0.1724   -0.3238   -1.0286 C   0  0  0  0  0  0  0  0  0  0  0  0
   -0.5670   -0.3869   -1.8294 H   0  0  0  0  0  0  0  0  0  0  0  0
    0.7852    0.5612   -1.2133 H   0  0  0  0  0  0  0  0  0  0  0  0
    1.0833   -1.5626   -1.1086 C   0  0  0  0  0  0  0  0  0  0  0  0
    0.5959   -2.3407   -1.6959 H   0  0  0  0  0  0  0  0  0  0  0  0
    2.4428   -1.2424   -1.7368 C   0  0  0  0  0  0  0  0  0  0  0  0
    2.9367   -0.4529   -1.1687 H   0  0  0  0  0  0  0  0  0  0  0  0
    3.0704   -2.1339   -1.7280 H   0  0  0  0  0  0  0  0  0  0  0  0
    2.3224   -0.9164   -2.7676 H   0  0  0  0  0  0  0  0  0  0  0  0
    1.3295   -2.1139    0.2953 C   0  0  0  0  0  0  0  0  0  0  0  0
    0.3786   -2.3812    0.7562 H   0  0  0  0  0  0  0  0  0  0  0  0
    1.9515   -3.0072    0.2391 H   0  0  0  0  0  0  0  0  0  0  0  0
    1.8297   -1.3651    0.9105 H   0  0  0  0  0  0  0  0  0  0  0  0
   -0.7793    1.3659    0.6455 C   0  0  0  0  0  0  0  0  0  0  0  0
   -1.6464    2.0125    0.0623 O   0  0  0  0  0  0  0  0  0  0  0  0
    0.0189    1.9059    1.5756 N   0  0  0  0  0  0  0  0  0  0  0  0
    0.7024    1.3094    2.0137 H   0  0  0  0  0  0  0  0  0  0  0  0
   -0.0451    3.3046    1.9929 C   0  0  0  0  0  0  0  0  0  0  0  0
   -1.0415    3.5286    2.3805 H   0  0  0  0  0  0  0  0  0  0  0  0
    0.6954    3.5023    2.7695 H   0  0  0  0  0  0  0  0  0  0  0  0
    0.1474    3.9536    1.1372 H   0  0  0  0  0  0  0  0  0  0  0  0
  5  6  2  0  0  0  0
  5  7  1  0  0  0  0
  2  3  1  0  0  0  0
  2  4  1  0  0  0  0
  2  5  1  0  0  0  0
  1  2  1  0  0  0  0
 24 25  2  0  0  0  0
 24 26  1  0  0  0  0
 20 21  1  0  0  0  0
 20 22  1  0  0  0  0
 20 23  1  0  0  0  0
 16 17  1  0  0  0  0
 16 18  1  0  0  0  0
 16 19  1  0  0  0  0
 14 15  1  0  0  0  0
 14 16  1  0  0  0  0
 14 20  1  0  0  0  0
 11 12  1  0  0  0  0
 11 13  1  0  0  0  0
 11 14  1  0  0  0  0
  9 10  1  0  0  0  0
  9 11  1  0  0  0  0
  9 24  1  0  0  0  0
  7  8  1  0  0  0  0
  7  9  1  0  0  0  0
 28 29  1  0  0  0  0
 28 30  1  0  0  0  0
 28 31  1  0  0  0  0
 26 27  1  0  0  0  0
 26 28  1  0  0  0  0
M  END
$$$$
default_name
  -OEChem-02102213163D

 31 30  0     1  0  0  0  0  0999 V2000
   -3.5895   -3.5013    1.1082 H   0  0  0  0  0  0  0  0  0  0  0  0
   -3.5145   -2.5363    0.6082 C   0  0  0  0  0  0  0  0  0  0  0  0
   -4.2285   -1.8413    1.0452 H   0  0  0  0  0  0  0  0  0  0  0  0
   -3.7155   -2.6583   -0.4538 H   0  0  0  0  0  0  0  0  0  0  0  0
   -2.1155   -1.9963    0.7922 C   0  0  0  0  0  0  0  0  0  0  0  0
   -1.2875   -2.6383    1.4252 O   0  0  0  0  0  0  0  0  0  0  0  0
   -1.8575   -0.8123    0.2402 N   0  0  0  0  0  0  0  0  0  0  0  0
   -2.6005   -0.3333   -0.2478 H   0  0  0  0  0  0  0  0  0  0  0  0
   -0.5675   -0.1203    0.3102 C   0  0  1  0  0  0  0  0  0  0  0  0
    0.0191   -0.5718    1.1110 H   0  0  0  0  0  0  0  0  0  0  0  0
    0.1724   -0.3238   -1.0286 C   0  0  0  0  0  0  0  0  0  0  0  0
   -0.5670   -0.3869   -1.8294 H   0  0  0  0  0  0  0  0  0  0  0  0
    0.7852    0.5612   -1.2133 H   0  0  0  0  0  0  0  0  0  0  0  0
    1.0833   -1.5626   -1.1086 C   0  0  0  0  0  0  0  0  0  0  0  0
    0.7318   -2.2278   -1.8972 H   0  0  0  0  0  0  0  0  0  0  0  0
    2.5433   -1.1913   -1.3843 C   0  0  0  0  0  0  0  0  0  0  0  0
    2.9051   -0.5120   -0.6112 H   0  0  0  0  0  0  0  0  0  0  0  0
    3.1576   -2.0919   -1.3836 H   0  0  0  0  0  0  0  0  0  0  0  0
    2.6404   -0.7092   -2.3547 H   0  0  0  0  0  0  0  0  0  0  0  0
    1.0318   -2.3275    0.2134 C   0  0  0  0  0  0  0  0  0  0  0  0
    0.0063   -2.6333    0.4204 H   0  0  0  0  0  0  0  0  0  0  0  0
    1.6543   -3.2200    0.1499 H   0  0  0  0  0  0  0  0  0  0  0  0
    1.3901   -1.6959    1.0271 H   0  0  0  0  0  0  0  0  0  0  0  0
   -0.7793    1.3659    0.6455 C   0  0  0  0  0  0  0  0  0  0  0  0
   -1.6464    2.0125    0.0623 O   0  0  0  0  0  0  0  0  0  0  0  0
    0.0189    1.9059    1.5756 N   0  0  0  0  0  0  0  0  0  0  0  0
    0.7024    1.3094    2.0137 H   0  0  0  0  0  0  0  0  0  0  0  0
   -0.0451    3.3046    1.9929 C   0  0  0  0  0  0  0  0  0  0  0  0
   -1.0415    3.5286    2.3805 H   0  0  0  0  0  0  0  0  0  0  0  0
    0.6954    3.5023    2.7695 H   0  0  0  0  0  0  0  0  0  0  0  0
    0.1474    3.9536    1.1372 H   0  0  0  0  0  0  0  0  0  0  0  0
  5  6  2  0  0  0  0
  5  7  1  0  0  0  0
  2  3  1  0  0  0  0
  2  4  1  0  0  0  0
  2  5  1  0  0  0  0
  1  2  1  0  0  0  0
 24 25  2  0  0  0  0
 24 26  1  0  0  0  0
 20 21  1  0  0  0  0
 20 22  1  0  0  0  0
 20 23  1  0  0  0  0
 16 17  1  0  0  0  0
 16 18  1  0  0  0  0
 16 19  1  0  0  0  0
 14 15  1  0  0  0  0
 14 16  1  0  0  0  0
 14 20  1  0  0  0  0
 11 12  1  0  0  0  0
 11 13  1  0  0  0  0
 11 14  1  0  0  0  0
  9 10  1  0  0  0  0
  9 11  1  0  0  0  0
  9 24  1  0  0  0  0
  7  8  1  0  0  0  0
  7  9  1  0  0  0  0
 28 29  1  0  0  0  0
 28 30  1  0  0  0  0
 28 31  1  0  0  0  0
 26 27  1  0  0  0  0
 26 28  1  0  0  0  0
M  END
$$$$
default_name
  -OEChem-02102213163D

 31 30  0     1  0  0  0  0  0999 V2000
   -3.5895   -3.5013    1.1082 H   0  0  0  0  0  0  0  0  0  0  0  0
   -3.5145   -2.5363    0.6082 C   0  0  0  0  0  0  0  0  0  0  0  0
   -4.2285   -1.8413    1.0452 H   0  0  0  0  0  0  0  0  0  0  0  0
   -3.7155   -2.6583   -0.4538 H   0  0  0  0  0  0  0  0  0  0  0  0
   -2.1155   -1.9963    0.7922 C   0  0  0  0  0  0  0  0  0  0  0  0
   -1.2875   -2.6383    1.4252 O   0  0  0  0  0  0  0  0  0  0  0  0
   -1.8575   -0.8123    0.2402 N   0  0  0  0  0  0  0  0  0  0  0  0
   -2.6005   -0.3333   -0.2478 H   0  0  0  0  0  0  0  0  0  0  0  0
   -0.5675   -0.1203    0.3102 C   0  0  1  0  0  0  0  0  0  0  0  0
    0.0191   -0.5718    1.1110 H   0  0  0  0  0  0  0  0  0  0  0  0
    0.1724   -0.3238   -1.0286 C   0  0  0  0  0  0  0  0  0  0  0  0
   -0.5670   -0.3869   -1.8294 H   0  0  0  0  0  0  0  0  0  0  0  0
    0.7852    0.5612   -1.2133 H   0  0  0  0  0  0  0  0  0  0  0  0
    1.0833   -1.5626   -1.1086 C   0  0  0  0  0  0  0  0  0  0  0  0
    0.9065   -2.0898   -2.0461 H   0  0  0  0  0  0  0  0  0  0  0  0
    2.5676   -1.1972   -1.0151 C   0  0  0  0  0  0  0  0  0  0  0  0
    2.7578   -0.6541   -0.0883 H   0  0  0  0  0  0  0  0  0  0  0  0
    3.1707   -2.1054   -1.0263 H   0  0  0  0  0  0  0  0  0  0  0  0
    2.8643   -0.5766   -1.8578 H   0  0  0  0  0  0  0  0  0  0  0  0
    0.7584   -2.5174    0.0396 C   0  0  0  0  0  0  0  0  0  0  0  0
   -0.2869   -2.8205   -0.0202 H   0  0  0  0  0  0  0  0  0  0  0  0
    1.3829   -3.4079   -0.0307 H   0  0  0  0  0  0  0  0  0  0  0  0
    0.9368   -2.0274    0.9975 H   0  0  0  0  0  0  0  0  0  0  0  0
   -0.7793    1.3659    0.6455 C   0  0  0  0  0  0  0  0  0  0  0  0
   -1.6464    2.0125    0.0623 O   0  0  0  0  0  0  0  0  0  0  0  0
    0.0189    1.9059    1.5756 N   0  0  0  0  0  0  0  0  0  0  0  0
    0.7024    1.3094    2.0137 H   0  0  0  0  0  0  0  0  0  0  0  0
   -0.0451    3.3046    1.9929 C   0  0  0  0  0  0  0  0  0  0  0  0
   -1.0415    3.5286    2.3805 H   0  0  0  0  0  0  0  0  0  0  0  0
    0.6954    3.5023    2.7695 H   0  0  0  0  0  0  0  0  0  0  0  0
    0.1474    3.9536    1.1372 H   0  0  0  0  0  0  0  0  0  0  0  0
  5  6  2  0  0  0  0
  5  7  1  0  0  0  0
  2  3  1  0  0  0  0
  2  4  1  0  0  0  0
  2  5  1  0  0  0  0
  1  2  1  0  0  0  0
 24 25  2  0  0  0  0
 24 26  1  0  0  0  0
 20 21  1  0  0  0  0
 20 22  1  0  0  0  0
 20 23  1  0  0  0  0
 16 17  1  0  0  0  0
 16 18  1  0  0  0  0
 16 19  1  0  0  0  0
 14 15  1  0  0  0  0
 14 16  1  0  0  0  0
 14 20  1  0  0  0  0
 11 12  1  0  0  0  0
 11 13  1  0  0  0  0
 11 14  1  0  0  0  0
  9 10  1  0  0  0  0
  9 11  1  0  0  0  0
  9 24  1  0  0  0  0
  7  8  1  0  0  0  0
  7  9  1  0  0  0  0
 28 29  1  0  0  0  0
 28 30  1  0  0  0  0
 28 31  1  0  0  0  0
 26 27  1  0  0  0  0
 26 28  1  0  0  0  0
M  END
$$$$
default_name
  -OEChem-02102213163D

 31 30  0     1  0  0  0  0  0999 V2000
   -3.5895   -3.5013    1.1082 H   0  0  0  0  0  0  0  0  0  0  0  0
   -3.5145   -2.5363    0.6082 C   0  0  0  0  0  0  0  0  0  0  0  0
   -4.2285   -1.8413    1.0452 H   0  0  0  0  0  0  0  0  0  0  0  0
   -3.7155   -2.6583   -0.4538 H   0  0  0  0  0  0  0  0  0  0  0  0
   -2.1155   -1.9963    0.7922 C   0  0  0  0  0  0  0  0  0  0  0  0
   -1.2875   -2.6383    1.4252 O   0  0  0  0  0  0  0  0  0  0  0  0
   -1.8575   -0.8123    0.2402 N   0  0  0  0  0  0  0  0  0  0  0  0
   -2.6005   -0.3333   -0.2478 H   0  0  0  0  0  0  0  0  0  0  0  0
   -0.5675   -0.1203    0.3102 C   0  0  1  0  0  0  0  0  0  0  0  0
    0.0191   -0.5718    1.1110 H   0  0  0  0  0  0  0  0  0  0  0  0
    0.1724   -0.3238   -1.0286 C   0  0  0  0  0  0  0  0  0  0  0  0
   -0.5670   -0.3869   -1.8294 H   0  0  0  0  0  0  0  0  0  0  0  0
    0.7852    0.5612   -1.2133 H   0  0  0  0  0  0  0  0  0  0  0  0
    1.0833   -1.5626   -1.1086 C   0  0  0  0  0  0  0  0  0  0  0  0
    1.1080   -1.9359   -2.1323 H   0  0  0  0  0  0  0  0  0  0  0  0
    2.5141   -1.2598   -0.6542 C   0  0  0  0  0  0  0  0  0  0  0  0
    2.5047   -0.8695    0.3644 H   0  0  0  0  0  0  0  0  0  0  0  0
    3.1087   -2.1732   -0.6805 H   0  0  0  0  0  0  0  0  0  0  0  0
    2.9789   -0.5276   -1.3110 H   0  0  0  0  0  0  0  0  0  0  0  0
    0.5279   -2.6704   -0.2143 C   0  0  0  0  0  0  0  0  0  0  0  0
   -0.4808   -2.9298   -0.5355 H   0  0  0  0  0  0  0  0  0  0  0  0
    1.1559   -3.5581   -0.2905 H   0  0  0  0  0  0  0  0  0  0  0  0
    0.5006   -2.3370    0.8237 H   0  0  0  0  0  0  0  0  0  0  0  0
   -0.7793    1.3659    0.6455 C   0  0  0  0  0  0  0  0  0  0  0  0
   -1.6464    2.0125    0.0623 O   0  0  0  0  0  0  0  0  0  0  0  0
    0.0189    1.9059    1.5756 N   0  0  0  0  0  0  0  0  0  0  0  0
    0.7024    1.3094    2.0137 H   0  0  0  0  0  0  0  0  0  0  0  0
   -0.0451    3.3046    1.9929 C   0  0  0  0  0  0  0  0  0  0  0  0
   -1.0415    3.5286    2.3805 H   0  0  0  0  0  0  0  0  0  0  0  0
    0.6954    3.5023    2.7695 H   0  0  0  0  0  0  0  0  0  0  0  0
    0.1474    3.9536    1.1372 H   0  0  0  0  0  0  0  0  0  0  0  0
  5  6  2  0  0  0  0
  5  7  1  0  0  0  0
  2  3  1  0  0  0  0
  2  4  1  0  0  0  0
  2  5  1  0  0  0  0
  1  2  1  0  0  0  0
 24 25  2  0  0  0  0
 24 26  1  0  0  0  0
 20 21  1  0  0  0  0
 20 22  1  0  0  0  0
 20 23  1  0  0  0  0
 16 17  1  0  0  0  0
 16 18  1  0  0  0  0
 16 19  1  0  0  0  0
 14 15  1  0  0  0  0
 14 16  1  0  0  0  0
 14 20  1  0  0  0  0
 11 12  1  0  0  0  0
 11 13  1  0  0  0  0
 11 14  1  0  0  0  0
  9 10  1  0  0  0  0
  9 11  1  0  0  0  0
  9 24  1  0  0  0  0
  7  8  1  0  0  0  0
  7  9  1  0  0  0  0
 28 29  1  0  0  0  0
 28 30  1  0  0  0  0
 28 31  1  0  0  0  0
 26 27  1  0  0  0  0
 26 28  1  0  0  0  0
M  END
$$$$
default_name
  -OEChem-02102213163D

 31 30  0     1  0  0  0  0  0999 V2000
   -3.5895   -3.5013    1.1082 H   0  0  0  0  0  0  0  0  0  0  0  0
   -3.5145   -2.5363    0.6082 C   0  0  0  0  0  0  0  0  0  0  0  0
   -4.2285   -1.8413    1.0452 H   0  0  0  0  0  0  0  0  0  0  0  0
   -3.7155   -2.6583   -0.4538 H   0  0  0  0  0  0  0  0  0  0  0  0
   -2.1155   -1.9963    0.7922 C   0  0  0  0  0  0  0  0  0  0  0  0
   -1.2875   -2.6383    1.4252 O   0  0  0  0  0  0  0  0  0  0  0  0
   -1.8575   -0.8123    0.2402 N   0  0  0  0  0  0  0  0  0  0  0  0
   -2.6005   -0.3333   -0.2478 H   0  0  0  0  0  0  0  0  0  0  0  0
   -0.5675   -0.1203    0.3102 C   0  0  1  0  0  0  0  0  0  0  0  0
    0.0191   -0.5718    1.1110 H   0  0  0  0  0  0  0  0  0  0  0  0
    0.1724   -0.3238   -1.0286 C   0  0  0  0  0  0  0  0  0  0  0  0
   -0.5670   -0.3869   -1.8294 H   0  0  0  0  0  0  0  0  0  0  0  0
    0.7852    0.5612   -1.2133 H   0  0  0  0  0  0  0  0  0  0  0  0
    1.0833   -1.5626   -1.1086 C   0  0  0  0  0  0  0  0  0  0  0  0
    1.3228   -1.7769   -2.1501 H   0  0  0  0  0  0  0  0  0  0  0  0
    2.3865   -1.3748   -0.3265 C   0  0  0  0  0  0  0  0  0  0  0  0
    2.1630   -1.1434    0.7159 H   0  0  0  0  0  0  0  0  0  0  0  0
    2.9760   -2.2909   -0.3698 H   0  0  0  0  0  0  0  0  0  0  0  0
    2.9764   -0.5656   -0.7514 H   0  0  0  0  0  0  0  0  0  0  0  0
    0.3562   -2.7763   -0.5310 C   0  0  0  0  0  0  0  0  0  0  0  0
   -0.5623   -2.9539   -1.0903 H   0  0  0  0  0  0  0  0  0  0  0  0
    0.9886   -3.6604   -0.6117 H   0  0  0  0  0  0  0  0  0  0  0  0
    0.1112   -2.6035    0.5176 H   0  0  0  0  0  0  0  0  0  0  0  0
   -0.7793    1.3659    0.6455 C   0  0  0  0  0  0  0  0  0  0  0  0
   -1.6464    2.0125    0.0623 O   0  0  0  0  0  0  0  0  0  0  0  0
    0.0189    1.9059    1.5756 N   0  0  0  0  0  0  0  0  0  0  0  0
    0.7024    1.3094    2.0137 H   0  0  0  0  0  0  0  0  0  0  0  0
   -0.0451    3.3046    1.9929 C   0  0  0  0  0  0  0  0  0  0  0  0
   -1.0415    3.5286    2.3805 H   0  0  0  0  0  0  0  0  0  0  0  0
    0.6954    3.5023    2.7695 H   0  0  0  0  0  0  0  0  0  0  0  0
    0.1474    3.9536    1.1372 H   0  0  0  0  0  0  0  0  0  0  0  0
  5  6  2  0  0  0  0
  5  7  1  0  0  0  0
  2  3  1  0  0  0  0
  2  4  1  0  0  0  0
  2  5  1  0  0  0  0
  1  2  1  0  0  0  0
 24 25  2  0  0  0  0
 24 26  1  0  0  0  0
 20 21  1  0  0  0  0
 20 22  1  0  0  0  0
 20 23  1  0  0  0  0
 16 17  1  0  0  0  0
 16 18  1  0  0  0  0
 16 19  1  0  0  0  0
 14 15  1  0  0  0  0
 14 16  1  0  0  0  0
 14 20  1  0  0  0  0
 11 12  1  0  0  0  0
 11 13  1  0  0  0  0
 11 14  1  0  0  0  0
  9 10  1  0  0  0  0
  9 11  1  0  0  0  0
  9 24  1  0  0  0  0
  7  8  1  0  0  0  0
  7  9  1  0  0  0  0
 28 29  1  0  0  0  0
 28 30  1  0  0  0  0
 28 31  1  0  0  0  0
 26 27  1  0  0  0  0
 26 28  1  0  0  0  0
M  END
$$$$
default_name
  -OEChem-02102213163D

 31 30  0     1  0  0  0  0  0999 V2000
   -3.5895   -3.5013    1.1082 H   0  0  0  0  0  0  0  0  0  0  0  0
   -3.5145   -2.5363    0.6082 C   0  0  0  0  0  0  0  0  0  0  0  0
   -4.2285   -1.8413    1.0452 H   0  0  0  0  0  0  0  0  0  0  0  0
   -3.7155   -2.6583   -0.4538 H   0  0  0  0  0  0  0  0  0  0  0  0
   -2.1155   -1.9963    0.7922 C   0  0  0  0  0  0  0  0  0  0  0  0
   -1.2875   -2.6383    1.4252 O   0  0  0  0  0  0  0  0  0  0  0  0
   -1.8575   -0.8123    0.2402 N   0  0  0  0  0  0  0  0  0  0  0  0
   -2.6005   -0.3333   -0.2478 H   0  0  0  0  0  0  0  0  0  0  0  0
   -0.5675   -0.1203    0.3102 C   0  0  1  0  0  0  0  0  0  0  0  0
    0.0191   -0.5718    1.1110 H   0  0  0  0  0  0  0  0  0  0  0  0
    0.1724   -0.3238   -1.0286 C   0  0  0  0  0  0  0  0  0  0  0  0
   -0.5670   -0.3869   -1.8294 H   0  0  0  0  0  0  0  0  0  0  0  0
    0.7852    0.5612   -1.2133 H   0  0  0  0  0  0  0  0  0  0  0  0
    1.0833   -1.5626   -1.1086 C   0  0  0  0  0  0  0  0  0  0  0  0
    1.5361   -1.6234   -2.0982 H   0  0  0  0  0  0  0  0  0  0  0  0
    2.1935   -1.5343   -0.0540 C   0  0  0  0  0  0  0  0  0  0  0  0
    1.7561   -1.4573    0.9424 H   0  0  0  0  0  0  0  0  0  0  0  0
    2.7815   -2.4503   -0.1153 H   0  0  0  0  0  0  0  0  0  0  0  0
    2.8570   -0.6879   -0.2173 H   0  0  0  0  0  0  0  0  0  0  0  0
    0.2548   -2.8278   -0.8888 C   0  0  0  0  0  0  0  0  0  0  0  0
   -0.5258   -2.8912   -1.6469 H   0  0  0  0  0  0  0  0  0  0  0  0
    0.8926   -3.7077   -0.9724 H   0  0  0  0  0  0  0  0  0  0  0  0
   -0.2046   -2.8089    0.1001 H   0  0  0  0  0  0  0  0  0  0  0  0
   -0.7793    1.3659    0.6455 C   0  0  0  0  0  0  0  0  0  0  0  0
   -1.6464    2.0125    0.0623 O   0  0  0  0  0  0  0  0  0  0  0  0
    0.0189    1.9059    1.5756 N   0  0  0  0  0  0  0  0  0  0  0  0
    0.7024    1.3094    2.0137 H   0  0  0  0  0  0  0  0  0  0  0  0
   -0.0451    3.3046    1.9929 C   0  0  0  0  0  0  0  0  0  0  0  0
   -1.0415    3.5286    2.3805 H   0  0  0  0  0  0  0  0  0  0  0  0
    0.6954    3.5023    2.7695 H   0  0  0  0  0  0  0  0  0  0  0  0
    0.1474    3.9536    1.1372 H   0  0  0  0  0  0  0  0  0  0  0  0
  5  6  2  0  0  0  0
  5  7  1  0  0  0  0
  2  3  1  0  0  0  0
  2  4  1  0  0  0  0
  2  5  1  0  0  0  0
  1  2  1  0  0  0  0
 24 25  2  0  0  0  0
 24 26  1  0  0  0  0
 20 21  1  0  0  0  0
 20 22  1  0  0  0  0
 20 23  1  0  0  0  0
 16 17  1  0  0  0  0
 16 18  1  0  0  0  0
 16 19  1  0  0  0  0
 14 15  1  0  0  0  0
 14 16  1  0  0  0  0
 14 20  1  0  0  0  0
 11 12  1  0  0  0  0
 11 13  1  0  0  0  0
 11 14  1  0  0  0  0
  9 10  1  0  0  0  0
  9 11  1  0  0  0  0
  9 24  1  0  0  0  0
  7  8  1  0  0  0  0
  7  9  1  0  0  0  0
 28 29  1  0  0  0  0
 28 30  1  0  0  0  0
 28 31  1  0  0  0  0
 26 27  1  0  0  0  0
 26 28  1  0  0  0  0
M  END
$$$$
default_name
  -OEChem-02102213163D

 31 30  0     1  0  0  0  0  0999 V2000
   -3.5895   -3.5013    1.1082 H   0  0  0  0  0  0  0  0  0  0  0  0
   -3.5145   -2.5363    0.6082 C   0  0  0  0  0  0  0  0  0  0  0  0
   -4.2285   -1.8413    1.0452 H   0  0  0  0  0  0  0  0  0  0  0  0
   -3.7155   -2.6583   -0.4538 H   0  0  0  0  0  0  0  0  0  0  0  0
   -2.1155   -1.9963    0.7922 C   0  0  0  0  0  0  0  0  0  0  0  0
   -1.2875   -2.6383    1.4252 O   0  0  0  0  0  0  0  0  0  0  0  0
   -1.8575   -0.8123    0.2402 N   0  0  0  0  0  0  0  0  0  0  0  0
   -2.6005   -0.3333   -0.2478 H   0  0  0  0  0  0  0  0  0  0  0  0
   -0.5675   -0.1203    0.3102 C   0  0  1  0  0  0  0  0  0  0  0  0
    0.0191   -0.5718    1.1110 H   0  0  0  0  0  0  0  0  0  0  0  0
    0.1724   -0.3238   -1.0286 C   0  0  0  0  0  0  0  0  0  0  0  0
   -0.5670   -0.3869   -1.8294 H   0  0  0  0  0  0  0  0  0  0  0  0
    0.7852    0.5612   -1.2133 H   0  0  0  0  0  0  0  0  0  0  0  0
    1.0833   -1.5626   -1.1086 C   0  0  0  0  0  0  0  0  0  0  0  0
    1.7333   -1.4860   -1.9802 H   0  0  0  0  0  0  0  0  0  0  0  0
    1.9481   -1.7276    0.1445 C   0  0  0  0  0  0  0  0  0  0  0  0
    1.3117   -1.7896    1.0283 H   0  0  0  0  0  0  0  0  0  0  0  0
    2.5385   -2.6407    0.0655 H   0  0  0  0  0  0  0  0  0  0  0  0
    2.6288   -0.8862    0.2551 H   0  0  0  0  0  0  0  0  0  0  0  0
    0.2307   -2.8213   -1.2635 C   0  0  0  0  0  0  0  0  0  0  0  0
   -0.3738   -2.7458   -2.1673 H   0  0  0  0  0  0  0  0  0  0  0  0
    0.8742   -3.6970   -1.3481 H   0  0  0  0  0  0  0  0  0  0  0  0
   -0.4256   -2.9390   -0.4005 H   0  0  0  0  0  0  0  0  0  0  0  0
   -0.7793    1.3659    0.6455 C   0  0  0  0  0  0  0  0  0  0  0  0
   -1.6464    2.0125    0.0623 O   0  0  0  0  0  0  0  0  0  0  0  0
    0.0189    1.9059    1.5756 N   0  0  0  0  0  0  0  0  0  0  0  0
    0.7024    1.3094    2.0137 H   0  0  0  0  0  0  0  0  0  0  0  0
   -0.0451    3.3046    1.9929 C   0  0  0  0  0  0  0  0  0  0  0  0
   -1.0415    3.5286    2.3805 H   0  0  0  0  0  0  0  0  0  0  0  0
    0.6954    3.5023    2.7695 H   0  0  0  0  0  0  0  0  0  0  0  0
    0.1474    3.9536    1.1372 H   0  0  0  0  0  0  0  0  0  0  0  0
  5  6  2  0  0  0  0
  5  7  1  0  0  0  0
  2  3  1  0  0  0  0
  2  4  1  0  0  0  0
  2  5  1  0  0  0  0
  1  2  1  0  0  0  0
 24 25  2  0  0  0  0
 24 26  1  0  0  0  0
 20 21  1  0  0  0  0
 20 22  1  0  0  0  0
 20 23  1  0  0  0  0
 16 17  1  0  0  0  0
 16 18  1  0  0  0  0
 16 19  1  0  0  0  0
 14 15  1  0  0  0  0
 14 16  1  0  0  0  0
 14 20  1  0  0  0  0
 11 12  1  0  0  0  0
 11 13  1  0  0  0  0
 11 14  1  0  0  0  0
  9 10  1  0  0  0  0
  9 11  1  0  0  0  0
  9 24  1  0  0  0  0
  7  8  1  0  0  0  0
  7  9  1  0  0  0  0
 28 29  1  0  0  0  0
 28 30  1  0  0  0  0
 28 31  1  0  0  0  0
 26 27  1  0  0  0  0
 26 28  1  0  0  0  0
M  END
$$$$
default_name
  -OEChem-02102213163D

 31 30  0     1  0  0  0  0  0999 V2000
   -3.5895   -3.5013    1.1082 H   0  0  0  0  0  0  0  0  0  0  0  0
   -3.5145   -2.5363    0.6082 C   0  0  0  0  0  0  0  0  0  0  0  0
   -4.2285   -1.8413    1.0452 H   0  0  0  0  0  0  0  0  0  0  0  0
   -3.7155   -2.6583   -0.4538 H   0  0  0  0  0  0  0  0  0  0  0  0
   -2.1155   -1.9963    0.7922 C   0  0  0  0  0  0  0  0  0  0  0  0
   -1.2875   -2.6383    1.4252 O   0  0  0  0  0  0  0  0  0  0  0  0
   -1.8575   -0.8123    0.2402 N   0  0  0  0  0  0  0  0  0  0  0  0
   -2.6005   -0.3333   -0.2478 H   0  0  0  0  0  0  0  0  0  0  0  0
   -0.5675   -0.1203    0.3102 C   0  0  1  0  0  0  0  0  0  0  0  0
    0.0191   -0.5718    1.1110 H   0  0  0  0  0  0  0  0  0  0  0  0
    0.1724   -0.3238   -1.0286 C   0  0  0  0  0  0  0  0  0  0  0  0
   -0.5670   -0.3869   -1.8294 H   0  0  0  0  0  0  0  0  0  0  0  0
    0.7852    0.5612   -1.2133 H   0  0  0  0  0  0  0  0  0  0  0  0
    1.0833   -1.5626   -1.1086 C   0  0  0  0  0  0  0  0  0  0  0  0
    1.9011   -1.3739   -1.8041 H   0  0  0  0  0  0  0  0  0  0  0  0
    1.6672   -1.9413    0.2556 C   0  0  0  0  0  0  0  0  0  0  0  0
    0.8601   -2.1178    0.9680 H   0  0  0  0  0  0  0  0  0  0  0  0
    2.2636   -2.8490    0.1605 H   0  0  0  0  0  0  0  0  0  0  0  0
    2.3073   -1.1470    0.6335 H   0  0  0  0  0  0  0  0  0  0  0  0
    0.2855   -2.7574   -1.6294 C   0  0  0  0  0  0  0  0  0  0  0  0
   -0.1166   -2.5278   -2.6161 H   0  0  0  0  0  0  0  0  0  0  0  0
    0.9349   -3.6288   -1.7131 H   0  0  0  0  0  0  0  0  0  0  0  0
   -0.5365   -2.9852   -0.9499 H   0  0  0  0  0  0  0  0  0  0  0  0
   -0.7793    1.3659    0.6455 C   0  0  0  0  0  0  0  0  0  0  0  0
   -1.6464    2.0125    0.0623 O   0  0  0  0  0  0  0  0  0  0  0  0
    0.0189    1.9059    1.5756 N   0  0  0  0  0  0  0  0  0  0  0  0
    0.7024    1.3094    2.0137 H   0  0  0  0  0  0  0  0  0  0  0  0
   -0.0451    3.3046    1.9929 C   0  0  0  0  0  0  0  0  0  0  0  0
   -1.0415    3.5286    2.3805 H   0  0  0  0  0  0  0  0  0  0  0  0
    0.6954    3.5023    2.7695 H   0  0  0  0  0  0  0  0  0  0  0  0
    0.1474    3.9536    1.1372 H   0  0  0  0  0  0  0  0  0  0  0  0
  5  6  2  0  0  0  0
  5  7  1  0  0  0  0
  2  3  1  0  0  0  0
  2  4  1  0  0  0  0
  2  5  1  0  0  0  0
  1  2  1  0  0  0  0
 24 25  2  0  0  0  0
 24 26  1  0  0  0  0
 20 21  1  0  0  0  0
 20 22  1  0  0  0  0
 20 23  1  0  0  0  0
 16 17  1  0  0  0  0
 16 18  1  0  0  0  0
 16 19  1  0  0  0  0
 14 15  1  0  0  0  0
 14 16  1  0  0  0  0
 14 20  1  0  0  0  0
 11 12  1  0  0  0  0
 11 13  1  0  0  0  0
 11 14  1  0  0  0  0
  9 10  1  0  0  0  0
  9 11  1  0  0  0  0
  9 24  1  0  0  0  0
  7  8  1  0  0  0  0
  7  9  1  0  0  0  0
 28 29  1  0  0  0  0
 28 30  1  0  0  0  0
 28 31  1  0  0  0  0
 26 27  1  0  0  0  0
 26 28  1  0  0  0  0
M  END
$$$$
default_name
  -OEChem-02102213163D

 31 30  0     1  0  0  0  0  0999 V2000
   -3.5895   -3.5013    1.1082 H   0  0  0  0  0  0  0  0  0  0  0  0
   -3.5145   -2.5363    0.6082 C   0  0  0  0  0  0  0  0  0  0  0  0
   -4.2285   -1.8413    1.0452 H   0  0  0  0  0  0  0  0  0  0  0  0
   -3.7155   -2.6583   -0.4538 H   0  0  0  0  0  0  0  0  0  0  0  0
   -2.1155   -1.9963    0.7922 C   0  0  0  0  0  0  0  0  0  0  0  0
   -1.2875   -2.6383    1.4252 O   0  0  0  0  0  0  0  0  0  0  0  0
   -1.8575   -0.8123    0.2402 N   0  0  0  0  0  0  0  0  0  0  0  0
   -2.6005   -0.3333   -0.2478 H   0  0  0  0  0  0  0  0  0  0  0  0
   -0.5675   -0.1203    0.3102 C   0  0  1  0  0  0  0  0  0  0  0  0
    0.0191   -0.5718    1.1110 H   0  0  0  0  0  0  0  0  0  0  0  0
    0.1724   -0.3238   -1.0286 C   0  0  0  0  0  0  0  0  0  0  0  0
   -0.5670   -0.3869   -1.8294 H   0  0  0  0  0  0  0  0  0  0  0  0
    0.7852    0.5612   -1.2133 H   0  0  0  0  0  0  0  0  0  0  0  0
    1.0833   -1.5626   -1.1086 C   0  0  0  0  0  0  0  0  0  0  0  0
    2.0280   -1.2949   -1.5819 H   0  0  0  0  0  0  0  0  0  0  0  0
    1.3698   -2.1610    0.2717 C   0  0  0  0  0  0  0  0  0  0  0  0
    0.4320   -2.4195    0.7653 H   0  0  0  0  0  0  0  0  0  0  0  0
    1.9754   -3.0611    0.1631 H   0  0  0  0  0  0  0  0  0  0  0  0
    1.9144   -1.4526    0.8921 H   0  0  0  0  0  0  0  0  0  0  0  0
    0.4155   -2.6404   -1.9617 C   0  0  0  0  0  0  0  0  0  0  0  0
    0.2281   -2.2519   -2.9626 H   0  0  0  0  0  0  0  0  0  0  0  0
    1.0705   -3.5078   -2.0426 H   0  0  0  0  0  0  0  0  0  0  0  0
   -0.5299   -2.9441   -1.5107 H   0  0  0  0  0  0  0  0  0  0  0  0
   -0.7793    1.3659    0.6455 C   0  0  0  0  0  0  0  0  0  0  0  0
   -1.6464    2.0125    0.0623 O   0  0  0  0  0  0  0  0  0  0  0  0
    0.0189    1.9059    1.5756 N   0  0  0  0  0  0  0  0  0  0  0  0
    0.7024    1.3094    2.0137 H   0  0  0  0  0  0  0  0  0  0  0  0
   -0.0451    3.3046    1.9929 C   0  0  0  0  0  0  0  0  0  0  0  0
   -1.0415    3.5286    2.3805 H   0  0  0  0  0  0  0  0  0  0  0  0
    0.6954    3.5023    2.7695 H   0  0  0  0  0  0  0  0  0  0  0  0
    0.1474    3.9536    1.1372 H   0  0  0  0  0  0  0  0  0  0  0  0
  5  6  2  0  0  0  0
  5  7  1  0  0  0  0
  2  3  1  0  0  0  0
  2  4  1  0  0  0  0
  2  5  1  0  0  0  0
  1  2  1  0  0  0  0
 24 25  2  0  0  0  0
 24 26  1  0  0  0  0
 20 21  1  0  0  0  0
 20 22  1  0  0  0  0
 20 23  1  0  0  0  0
 16 17  1  0  0  0  0
 16 18  1  0  0  0  0
 16 19  1  0  0  0  0
 14 15  1  0  0  0  0
 14 16  1  0  0  0  0
 14 20  1  0  0  0  0
 11 12  1  0  0  0  0
 11 13  1  0  0  0  0
 11 14  1  0  0  0  0
  9 10  1  0  0  0  0
  9 11  1  0  0  0  0
  9 24  1  0  0  0  0
  7  8  1  0  0  0  0
  7  9  1  0  0  0  0
 28 29  1  0  0  0  0
 28 30  1  0  0  0  0
 28 31  1  0  0  0  0
 26 27  1  0  0  0  0
 26 28  1  0  0  0  0
M  END
$$$$
default_name
  -OEChem-02102213163D

 31 30  0     1  0  0  0  0  0999 V2000
   -3.5895   -3.5013    1.1082 H   0  0  0  0  0  0  0  0  0  0  0  0
   -3.5145   -2.5363    0.6082 C   0  0  0  0  0  0  0  0  0  0  0  0
   -4.2285   -1.8413    1.0452 H   0  0  0  0  0  0  0  0  0  0  0  0
   -3.7155   -2.6583   -0.4538 H   0  0  0  0  0  0  0  0  0  0  0  0
   -2.1155   -1.9963    0.7922 C   0  0  0  0  0  0  0  0  0  0  0  0
   -1.2875   -2.6383    1.4252 O   0  0  0  0  0  0  0  0  0  0  0  0
   -1.8575   -0.8123    0.2402 N   0  0  0  0  0  0  0  0  0  0  0  0
   -2.6005   -0.3333   -0.2478 H   0  0  0  0  0  0  0  0  0  0  0  0
   -0.5675   -0.1203    0.3102 C   0  0  1  0  0  0  0  0  0  0  0  0
    0.0191   -0.5718    1.1110 H   0  0  0  0  0  0  0  0  0  0  0  0
    0.1724   -0.3238   -1.0286 C   0  0  0  0  0  0  0  0  0  0  0  0
   -0.5670   -0.3869   -1.8294 H   0  0  0  0  0  0  0  0  0  0  0  0
    0.7852    0.5612   -1.2133 H   0  0  0  0  0  0  0  0  0  0  0  0
    1.0833   -1.5626   -1.1086 C   0  0  0  0  0  0  0  0  0  0  0  0
    2.1054   -1.2544   -1.3287 H   0  0  0  0  0  0  0  0  0  0  0  0
    1.0763   -2.3717    0.1916 C   0  0  0  0  0  0  0  0  0  0  0  0
    0.0567   -2.6742    0.4343 H   0  0  0  0  0  0  0  0  0  0  0  0
    1.6937   -3.2624    0.0731 H   0  0  0  0  0  0  0  0  0  0  0  0
    1.4770   -1.7820    1.0133 H   0  0  0  0  0  0  0  0  0  0  0  0
    0.6118   -2.4782   -2.2376 C   0  0  0  0  0  0  0  0  0  0  0  0
    0.6370   -1.9370   -3.1834 H   0  0  0  0  0  0  0  0  0  0  0  0
    1.2717   -3.3424   -2.3142 H   0  0  0  0  0  0  0  0  0  0  0  0
   -0.4062   -2.8187   -2.0448 H   0  0  0  0  0  0  0  0  0  0  0  0
   -0.7793    1.3659    0.6455 C   0  0  0  0  0  0  0  0  0  0  0  0
   -1.6464    2.0125    0.0623 O   0  0  0  0  0  0  0  0  0  0  0  0
    0.0189    1.9059    1.5756 N   0  0  0  0  0  0  0  0  0  0  0  0
    0.7024    1.3094    2.0137 H   0  0  0  0  0  0  0  0  0  0  0  0
   -0.0451    3.3046    1.9929 C   0  0  0  0  0  0  0  0  0  0  0  0
   -1.0415    3.5286    2.3805 H   0  0  0  0  0  0  0  0  0  0  0  0
    0.6954    3.5023    2.7695 H   0  0  0  0  0  0  0  0  0  0  0  0
    0.1474    3.9536    1.1372 H   0  0  0  0  0  0  0  0  0  0  0  0
  5  6  2  0  0  0  0
  5  7  1  0  0  0  0
  2  3  1  0  0  0  0
  2  4  1  0  0  0  0
  2  5  1  0  0  0  0
  1  2  1  0  0  0  0
 24 25  2  0  0  0  0
 24 26  1  0  0  0  0
 20 21  1  0  0  0  0
 20 22  1  0  0  0  0
 20 23  1  0  0  0  0
 16 17  1  0  0  0  0
 16 18  1  0  0  0  0
 16 19  1  0  0  0  0
 14 15  1  0  0  0  0
 14 16  1  0  0  0  0
 14 20  1  0  0  0  0
 11 12  1  0  0  0  0
 11 13  1  0  0  0  0
 11 14  1  0  0  0  0
  9 10  1  0  0  0  0
  9 11  1  0  0  0  0
  9 24  1  0  0  0  0
  7  8  1  0  0  0  0
  7  9  1  0  0  0  0
 28 29  1  0  0  0  0
 28 30  1  0  0  0  0
 28 31  1  0  0  0  0
 26 27  1  0  0  0  0
 26 28  1  0  0  0  0
M  END
$$$$
default_name
  -OEChem-02102213163D

 31 30  0     1  0  0  0  0  0999 V2000
   -3.5895   -3.5013    1.1082 H   0  0  0  0  0  0  0  0  0  0  0  0
   -3.5145   -2.5363    0.6082 C   0  0  0  0  0  0  0  0  0  0  0  0
   -4.2285   -1.8413    1.0452 H   0  0  0  0  0  0  0  0  0  0  0  0
   -3.7155   -2.6583   -0.4538 H   0  0  0  0  0  0  0  0  0  0  0  0
   -2.1155   -1.9963    0.7922 C   0  0  0  0  0  0  0  0  0  0  0  0
   -1.2875   -2.6383    1.4252 O   0  0  0  0  0  0  0  0  0  0  0  0
   -1.8575   -0.8123    0.2402 N   0  0  0  0  0  0  0  0  0  0  0  0
   -2.6005   -0.3333   -0.2478 H   0  0  0  0  0  0  0  0  0  0  0  0
   -0.5675   -0.1203    0.3102 C   0  0  1  0  0  0  0  0  0  0  0  0
    0.0191   -0.5718    1.1110 H   0  0  0  0  0  0  0  0  0  0  0  0
    0.1724   -0.3238   -1.0286 C   0  0  0  0  0  0  0  0  0  0  0  0
   -0.5670   -0.3869   -1.8294 H   0  0  0  0  0  0  0  0  0  0  0  0
    0.7852    0.5612   -1.2133 H   0  0  0  0  0  0  0  0  0  0  0  0
    1.0833   -1.5626   -1.1086 C   0  0  0  0  0  0  0  0  0  0  0  0
    2.1280   -1.2550   -1.0618 H   0  0  0  0  0  0  0  0  0  0  0  0
    0.8066   -2.5590    0.0209 C   0  0  0  0  0  0  0  0  0  0  0  0
   -0.2404   -2.8644   -0.0027 H   0  0  0  0  0  0  0  0  0  0  0  0
    1.4376   -3.4394   -0.1033 H   0  0  0  0  0  0  0  0  0  0  0  0
    1.0249   -2.1130    0.9888 H   0  0  0  0  0  0  0  0  0  0  0  0
    0.8611   -2.2819   -2.4384 C   0  0  0  0  0  0  0  0  0  0  0  0
    1.0821   -1.6045   -3.2632 H   0  0  0  0  0  0  0  0  0  0  0  0
    1.5248   -3.1437   -2.5093 H   0  0  0  0  0  0  0  0  0  0  0  0
   -0.1737   -2.6174   -2.5157 H   0  0  0  0  0  0  0  0  0  0  0  0
   -0.7793    1.3659    0.6455 C   0  0  0  0  0  0  0  0  0  0  0  0
   -1.6464    2.0125    0.0623 O   0  0  0  0  0  0  0  0  0  0  0  0
    0.0189    1.9059    1.5756 N   0  0  0  0  0  0  0  0  0  0  0  0
    0.7024    1.3094    2.0137 H   0  0  0  0  0  0  0  0  0  0  0  0
   -0.0451    3.3046    1.9929 C   0  0  0  0  0  0  0  0  0  0  0  0
   -1.0415    3.5286    2.3805 H   0  0  0  0  0  0  0  0  0  0  0  0
    0.6954    3.5023    2.7695 H   0  0  0  0  0  0  0  0  0  0  0  0
    0.1474    3.9536    1.1372 H   0  0  0  0  0  0  0  0  0  0  0  0
  5  6  2  0  0  0  0
  5  7  1  0  0  0  0
  2  3  1  0  0  0  0
  2  4  1  0  0  0  0
  2  5  1  0  0  0  0
  1  2  1  0  0  0  0
 24 25  2  0  0  0  0
 24 26  1  0  0  0  0
 20 21  1  0  0  0  0
 20 22  1  0  0  0  0
 20 23  1  0  0  0  0
 16 17  1  0  0  0  0
 16 18  1  0  0  0  0
 16 19  1  0  0  0  0
 14 15  1  0  0  0  0
 14 16  1  0  0  0  0
 14 20  1  0  0  0  0
 11 12  1  0  0  0  0
 11 13  1  0  0  0  0
 11 14  1  0  0  0  0
  9 10  1  0  0  0  0
  9 11  1  0  0  0  0
  9 24  1  0  0  0  0
  7  8  1  0  0  0  0
  7  9  1  0  0  0  0
 28 29  1  0  0  0  0
 28 30  1  0  0  0  0
 28 31  1  0  0  0  0
 26 27  1  0  0  0  0
 26 28  1  0  0  0  0
M  END
$$$$
default_name
  -OEChem-02102213163D

 31 30  0     1  0  0  0  0  0999 V2000
   -3.5895   -3.5013    1.1082 H   0  0  0  0  0  0  0  0  0  0  0  0
   -3.5145   -2.5363    0.6082 C   0  0  0  0  0  0  0  0  0  0  0  0
   -4.2285   -1.8413    1.0452 H   0  0  0  0  0  0  0  0  0  0  0  0
   -3.7155   -2.6583   -0.4538 H   0  0  0  0  0  0  0  0  0  0  0  0
   -2.1155   -1.9963    0.7922 C   0  0  0  0  0  0  0  0  0  0  0  0
   -1.2875   -2.6383    1.4252 O   0  0  0  0  0  0  0  0  0  0  0  0
   -1.8575   -0.8123    0.2402 N   0  0  0  0  0  0  0  0  0  0  0  0
   -2.6005   -0.3333   -0.2478 H   0  0  0  0  0  0  0  0  0  0  0  0
   -0.5675   -0.1203    0.3102 C   0  0  1  0  0  0  0  0  0  0  0  0
    0.0191   -0.5718    1.1110 H   0  0  0  0  0  0  0  0  0  0  0  0
    0.1724   -0.3238   -1.0286 C   0  0  0  0  0  0  0  0  0  0  0  0
   -0.5670   -0.3869   -1.8294 H   0  0  0  0  0  0  0  0  0  0  0  0
    0.7852    0.5612   -1.2133 H   0  0  0  0  0  0  0  0  0  0  0  0
    1.0833   -1.5626   -1.1086 C   0  0  0  0  0  0  0  0  0  0  0  0
    2.0942   -1.2967   -0.7994 H   0  0  0  0  0  0  0  0  0  0  0  0
    0.5791   -2.7102   -0.2288 C   0  0  0  0  0  0  0  0  0  0  0  0
   -0.4389   -2.9773   -0.5157 H   0  0  0  0  0  0  0  0  0  0  0  0
    1.2246   -3.5798   -0.3541 H   0  0  0  0  0  0  0  0  0  0  0  0
    0.5888   -2.4228    0.8204 H   0  0  0  0  0  0  0  0  0  0  0  0
    1.1463   -2.0649   -2.5505 C   0  0  0  0  0  0  0  0  0  0  0  0
    1.5332   -1.2771   -3.1967 H   0  0  0  0  0  0  0  0  0  0  0  0
    1.8125   -2.9253   -2.6146 H   0  0  0  0  0  0  0  0  0  0  0  0
    0.1515   -2.3539   -2.8913 H   0  0  0  0  0  0  0  0  0  0  0  0
   -0.7793    1.3659    0.6455 C   0  0  0  0  0  0  0  0  0  0  0  0
   -1.6464    2.0125    0.0623 O   0  0  0  0  0  0  0  0  0  0  0  0
    0.0189    1.9059    1.5756 N   0  0  0  0  0  0  0  0  0  0  0  0
    0.7024    1.3094    2.0137 H   0  0  0  0  0  0  0  0  0  0  0  0
   -0.0451    3.3046    1.9929 C   0  0  0  0  0  0  0  0  0  0  0  0
   -1.0415    3.5286    2.3805 H   0  0  0  0  0  0  0  0  0  0  0  0
    0.6954    3.5023    2.7695 H   0  0  0  0  0  0  0  0  0  0  0  0
    0.1474    3.9536    1.1372 H   0  0  0  0  0  0  0  0  0  0  0  0
  5  6  2  0  0  0  0
  5  7  1  0  0  0  0
  2  3  1  0  0  0  0
  2  4  1  0  0  0  0
  2  5  1  0  0  0  0
  1  2  1  0  0  0  0
 24 25  2  0  0  0  0
 24 26  1  0  0  0  0
 20 21  1  0  0  0  0
 20 22  1  0  0  0  0
 20 23  1  0  0  0  0
 16 17  1  0  0  0  0
 16 18  1  0  0  0  0
 16 19  1  0  0  0  0
 14 15  1  0  0  0  0
 14 16  1  0  0  0  0
 14 20  1  0  0  0  0
 11 12  1  0  0  0  0
 11 13  1  0  0  0  0
 11 14  1  0  0  0  0
  9 10  1  0  0  0  0
  9 11  1  0  0  0  0
  9 24  1  0  0  0  0
  7  8  1  0  0  0  0
  7  9  1  0  0  0  0
 28 29  1  0  0  0  0
 28 30  1  0  0  0  0
 28 31  1  0  0  0  0
 26 27  1  0  0  0  0
 26 28  1  0  0  0  0
M  END
$$$$
default_name
  -OEChem-02102213163D

 31 30  0     1  0  0  0  0  0999 V2000
   -3.5895   -3.5013    1.1082 H   0  0  0  0  0  0  0  0  0  0  0  0
   -3.5145   -2.5363    0.6082 C   0  0  0  0  0  0  0  0  0  0  0  0
   -4.2285   -1.8413    1.0452 H   0  0  0  0  0  0  0  0  0  0  0  0
   -3.7155   -2.6583   -0.4538 H   0  0  0  0  0  0  0  0  0  0  0  0
   -2.1155   -1.9963    0.7922 C   0  0  0  0  0  0  0  0  0  0  0  0
   -1.2875   -2.6383    1.4252 O   0  0  0  0  0  0  0  0  0  0  0  0
   -1.8575   -0.8123    0.2402 N   0  0  0  0  0  0  0  0  0  0  0  0
   -2.6005   -0.3333   -0.2478 H   0  0  0  0  0  0  0  0  0  0  0  0
   -0.5675   -0.1203    0.3102 C   0  0  1  0  0  0  0  0  0  0  0  0
    0.0191   -0.5718    1.1110 H   0  0  0  0  0  0  0  0  0  0  0  0
    0.1724   -0.3238   -1.0286 C   0  0  0  0  0  0  0  0  0  0  0  0
   -0.5670   -0.3869   -1.8294 H   0  0  0  0  0  0  0  0  0  0  0  0
    0.7852    0.5612   -1.2133 H   0  0  0  0  0  0  0  0  0  0  0  0
    1.0833   -1.5626   -1.1086 C   0  0  0  0  0  0  0  0  0  0  0  0
    2.0064   -1.3768   -0.5594 H   0  0  0  0  0  0  0  0  0  0  0  0
    0.4094   -2.8149   -0.5405 C   0  0  0  0  0  0  0  0  0  0  0  0
   -0.5253   -3.0051   -1.0699 H   0  0  0  0  0  0  0  0  0  0  0  0
    1.0692   -3.6742   -0.6622 H   0  0  0  0  0  0  0  0  0  0  0  0
    0.1984   -2.6904    0.5194 H   0  0  0  0  0  0  0  0  0  0  0  0
    1.4481   -1.8420   -2.5661 C   0  0  0  0  0  0  0  0  0  0  0  0
    1.9594   -0.9771   -2.9884 H   0  0  0  0  0  0  0  0  0  0  0  0
    2.1153   -2.7020   -2.6229 H   0  0  0  0  0  0  0  0  0  0  0  0
    0.5474   -2.0463   -3.1461 H   0  0  0  0  0  0  0  0  0  0  0  0
   -0.7793    1.3659    0.6455 C   0  0  0  0  0  0  0  0  0  0  0  0
   -1.6464    2.0125    0.0623 O   0  0  0  0  0  0  0  0  0  0  0  0
    0.0189    1.9059    1.5756 N   0  0  0  0  0  0  0  0  0  0  0  0
    0.7024    1.3094    2.0137 H   0  0  0  0  0  0  0  0  0  0  0  0
   -0.0451    3.3046    1.9929 C   0  0  0  0  0  0  0  0  0  0  0  0
   -1.0415    3.5286    2.3805 H   0  0  0  0  0  0  0  0  0  0  0  0
    0.6954    3.5023    2.7695 H   0  0  0  0  0  0  0  0  0  0  0  0
    0.1474    3.9536    1.1372 H   0  0  0  0  0  0  0  0  0  0  0  0
  5  6  2  0  0  0  0
  5  7  1  0  0  0  0
  2  3  1  0  0  0  0
  2  4  1  0  0  0  0
  2  5  1  0  0  0  0
  1  2  1  0  0  0  0
 24 25  2  0  0  0  0
 24 26  1  0  0  0  0
 20 21  1  0  0  0  0
 20 22  1  0  0  0  0
 20 23  1  0  0  0  0
 16 17  1  0  0  0  0
 16 18  1  0  0  0  0
 16 19  1  0  0  0  0
 14 15  1  0  0  0  0
 14 16  1  0  0  0  0
 14 20  1  0  0  0  0
 11 12  1  0  0  0  0
 11 13  1  0  0  0  0
 11 14  1  0  0  0  0
  9 10  1  0  0  0  0
  9 11  1  0  0  0  0
  9 24  1  0  0  0  0
  7  8  1  0  0  0  0
  7  9  1  0  0  0  0
 28 29  1  0  0  0  0
 28 30  1  0  0  0  0
 28 31  1  0  0  0  0
 26 27  1  0  0  0  0
 26 28  1  0  0  0  0
M  END
$$$$
default_name
  -OEChem-02102213163D

 31 30  0     1  0  0  0  0  0999 V2000
   -3.5895   -3.5013    1.1082 H   0  0  0  0  0  0  0  0  0  0  0  0
   -3.5145   -2.5363    0.6082 C   0  0  0  0  0  0  0  0  0  0  0  0
   -4.2285   -1.8413    1.0452 H   0  0  0  0  0  0  0  0  0  0  0  0
   -3.7155   -2.6583   -0.4538 H   0  0  0  0  0  0  0  0  0  0  0  0
   -2.1155   -1.9963    0.7922 C   0  0  0  0  0  0  0  0  0  0  0  0
   -1.2875   -2.6383    1.4252 O   0  0  0  0  0  0  0  0  0  0  0  0
   -1.8575   -0.8123    0.2402 N   0  0  0  0  0  0  0  0  0  0  0  0
   -2.6005   -0.3333   -0.2478 H   0  0  0  0  0  0  0  0  0  0  0  0
   -0.5675   -0.1203    0.3102 C   0  0  1  0  0  0  0  0  0  0  0  0
    0.0191   -0.5718    1.1110 H   0  0  0  0  0  0  0  0  0  0  0  0
    0.1724   -0.3238   -1.0286 C   0  0  0  0  0  0  0  0  0  0  0  0
   -0.5670   -0.3869   -1.8294 H   0  0  0  0  0  0  0  0  0  0  0  0
    0.7852    0.5612   -1.2133 H   0  0  0  0  0  0  0  0  0  0  0  0
    1.0833   -1.5626   -1.1086 C   0  0  0  0  0  0  0  0  0  0  0  0
    1.8705   -1.4897   -0.3581 H   0  0  0  0  0  0  0  0  0  0  0  0
    0.3089   -2.8661   -0.8930 C   0  0  0  0  0  0  0  0  0  0  0  0
   -0.4938   -2.9459   -1.6274 H   0  0  0  0  0  0  0  0  0  0  0  0
    0.9820   -3.7161   -1.0067 H   0  0  0  0  0  0  0  0  0  0  0  0
   -0.1195   -2.8976    0.1065 H   0  0  0  0  0  0  0  0  0  0  0  0
    1.7458   -1.6284   -2.4841 C   0  0  0  0  0  0  0  0  0  0  0  0
    2.3318   -0.7249   -2.6525 H   0  0  0  0  0  0  0  0  0  0  0  0
    2.4126   -2.4892   -2.5337 H   0  0  0  0  0  0  0  0  0  0  0  0
    0.9871   -1.7155   -3.2627 H   0  0  0  0  0  0  0  0  0  0  0  0
   -0.7793    1.3659    0.6455 C   0  0  0  0  0  0  0  0  0  0  0  0
   -1.6464    2.0125    0.0623 O   0  0  0  0  0  0  0  0  0  0  0  0
    0.0189    1.9059    1.5756 N   0  0  0  0  0  0  0  0  0  0  0  0
    0.7024    1.3094    2.0137 H   0  0  0  0  0  0  0  0  0  0  0  0
   -0.0451    3.3046    1.9929 C   0  0  0  0  0  0  0  0  0  0  0  0
   -1.0415    3.5286    2.3805 H   0  0  0  0  0  0  0  0  0  0  0  0
    0.6954    3.5023    2.7695 H   0  0  0  0  0  0  0  0  0  0  0  0
    0.1474    3.9536    1.1372 H   0  0  0  0  0  0  0  0  0  0  0  0
  5  6  2  0  0  0  0
  5  7  1  0  0  0  0
  2  3  1  0  0  0  0
  2  4  1  0  0  0  0
  2  5  1  0  0  0  0
  1  2  1  0  0  0  0
 24 25  2  0  0  0  0
 24 26  1  0  0  0  0
 20 21  1  0  0  0  0
 20 22  1  0  0  0  0
 20 23  1  0  0  0  0
 16 17  1  0  0  0  0
 16 18  1  0  0  0  0
 16 19  1  0  0  0  0
 14 15  1  0  0  0  0
 14 16  1  0  0  0  0
 14 20  1  0  0  0  0
 11 12  1  0  0  0  0
 11 13  1  0  0  0  0
 11 14  1  0  0  0  0
  9 10  1  0  0  0  0
  9 11  1  0  0  0  0
  9 24  1  0  0  0  0
  7  8  1  0  0  0  0
  7  9  1  0  0  0  0
 28 29  1  0  0  0  0
 28 30  1  0  0  0  0
 28 31  1  0  0  0  0
 26 27  1  0  0  0  0
 26 28  1  0  0  0  0
M  END
$$$$
default_name
  -OEChem-02102213163D

 31 30  0     1  0  0  0  0  0999 V2000
   -3.5895   -3.5013    1.1082 H   0  0  0  0  0  0  0  0  0  0  0  0
   -3.5145   -2.5363    0.6082 C   0  0  0  0  0  0  0  0  0  0  0  0
   -4.2285   -1.8413    1.0452 H   0  0  0  0  0  0  0  0  0  0  0  0
   -3.7155   -2.6583   -0.4538 H   0  0  0  0  0  0  0  0  0  0  0  0
   -2.1155   -1.9963    0.7922 C   0  0  0  0  0  0  0  0  0  0  0  0
   -1.2875   -2.6383    1.4252 O   0  0  0  0  0  0  0  0  0  0  0  0
   -1.8575   -0.8123    0.2402 N   0  0  0  0  0  0  0  0  0  0  0  0
   -2.6005   -0.3333   -0.2478 H   0  0  0  0  0  0  0  0  0  0  0  0
   -0.5675   -0.1203    0.3102 C   0  0  1  0  0  0  0  0  0  0  0  0
    0.0191   -0.5718    1.1110 H   0  0  0  0  0  0  0  0  0  0  0  0
    0.1724   -0.3238   -1.0286 C   0  0  0  0  0  0  0  0  0  0  0  0
   -0.5670   -0.3869   -1.8294 H   0  0  0  0  0  0  0  0  0  0  0  0
    0.7852    0.5612   -1.2133 H   0  0  0  0  0  0  0  0  0  0  0  0
    1.0833   -1.5626   -1.1086 C   0  0  0  0  0  0  0  0  0  0  0  0
    1.6958   -1.6278   -0.2093 H   0  0  0  0  0  0  0  0  0  0  0  0
    0.2846   -2.8601   -1.2622 C   0  0  0  0  0  0  0  0  0  0  0  0
   -0.3464   -2.8038   -2.1503 H   0  0  0  0  0  0  0  0  0  0  0  0
    0.9689   -3.7027   -1.3639 H   0  0  0  0  0  0  0  0  0  0  0  0
   -0.3434   -3.0302   -0.3903 H   0  0  0  0  0  0  0  0  0  0  0  0
    2.0192   -1.4386   -2.3103 C   0  0  0  0  0  0  0  0  0  0  0  0
    2.6249   -0.5378   -2.2119 H   0  0  0  0  0  0  0  0  0  0  0  0
    2.6840   -2.3013   -2.3531 H   0  0  0  0  0  0  0  0  0  0  0  0
    1.4404   -1.3840   -3.2330 H   0  0  0  0  0  0  0  0  0  0  0  0
   -0.7793    1.3659    0.6455 C   0  0  0  0  0  0  0  0  0  0  0  0
   -1.6464    2.0125    0.0623 O   0  0  0  0  0  0  0  0  0  0  0  0
    0.0189    1.9059    1.5756 N   0  0  0  0  0  0  0  0  0  0  0  0
    0.7024    1.3094    2.0137 H   0  0  0  0  0  0  0  0  0  0  0  0
   -0.0451    3.3046    1.9929 C   0  0  0  0  0  0  0  0  0  0  0  0
   -1.0415    3.5286    2.3805 H   0  0  0  0  0  0  0  0  0  0  0  0
    0.6954    3.5023    2.7695 H   0  0  0  0  0  0  0  0  0  0  0  0
    0.1474    3.9536    1.1372 H   0  0  0  0  0  0  0  0  0  0  0  0
  5  6  2  0  0  0  0
  5  7  1  0  0  0  0
  2  3  1  0  0  0  0
  2  4  1  0  0  0  0
  2  5  1  0  0  0  0
  1  2  1  0  0  0  0
 24 25  2  0  0  0  0
 24 26  1  0  0  0  0
 20 21  1  0  0  0  0
 20 22  1  0  0  0  0
 20 23  1  0  0  0  0
 16 17  1  0  0  0  0
 16 18  1  0  0  0  0
 16 19  1  0  0  0  0
 14 15  1  0  0  0  0
 14 16  1  0  0  0  0
 14 20  1  0  0  0  0
 11 12  1  0  0  0  0
 11 13  1  0  0  0  0
 11 14  1  0  0  0  0
  9 10  1  0  0  0  0
  9 11  1  0  0  0  0
  9 24  1  0  0  0  0
  7  8  1  0  0  0  0
  7  9  1  0  0  0  0
 28 29  1  0  0  0  0
 28 30  1  0  0  0  0
 28 31  1  0  0  0  0
 26 27  1  0  0  0  0
 26 28  1  0  0  0  0
M  END
$$$$
default_name
  -OEChem-02102213163D

 31 30  0     1  0  0  0  0  0999 V2000
   -3.5895   -3.5013    1.1082 H   0  0  0  0  0  0  0  0  0  0  0  0
   -3.5145   -2.5363    0.6082 C   0  0  0  0  0  0  0  0  0  0  0  0
   -4.2285   -1.8413    1.0452 H   0  0  0  0  0  0  0  0  0  0  0  0
   -3.7155   -2.6583   -0.4538 H   0  0  0  0  0  0  0  0  0  0  0  0
   -2.1155   -1.9963    0.7922 C   0  0  0  0  0  0  0  0  0  0  0  0
   -1.2875   -2.6383    1.4252 O   0  0  0  0  0  0  0  0  0  0  0  0
   -1.8575   -0.8123    0.2402 N   0  0  0  0  0  0  0  0  0  0  0  0
   -2.6005   -0.3333   -0.2478 H   0  0  0  0  0  0  0  0  0  0  0  0
   -0.5675   -0.1203    0.3102 C   0  0  1  0  0  0  0  0  0  0  0  0
    0.0191   -0.5718    1.1110 H   0  0  0  0  0  0  0  0  0  0  0  0
    0.1724   -0.3238   -1.0286 C   0  0  0  0  0  0  0  0  0  0  0  0
   -0.5670   -0.3869   -1.8294 H   0  0  0  0  0  0  0  0  0  0  0  0
    0.7852    0.5612   -1.2133 H   0  0  0  0  0  0  0  0  0  0  0  0
    1.0833   -1.5626   -1.1086 C   0  0  0  0  0  0  0  0  0  0  0  0
    1.4942   -1.7816   -0.1230 H   0  0  0  0  0  0  0  0  0  0  0  0
    0.3380   -2.7975   -1.6230 C   0  0  0  0  0  0  0  0  0  0  0  0
   -0.0933   -2.5885   -2.6029 H   0  0  0  0  0  0  0  0  0  0  0  0
    1.0309   -3.6348   -1.7097 H   0  0  0  0  0  0  0  0  0  0  0  0
   -0.4581   -3.0792   -0.9372 H   0  0  0  0  0  0  0  0  0  0  0  0
    2.2496   -1.2855   -2.0564 C   0  0  0  0  0  0  0  0  0  0  0  0
    2.8188   -0.4284   -1.6966 H   0  0  0  0  0  0  0  0  0  0  0  0
    2.9110   -2.1511   -2.0934 H   0  0  0  0  0  0  0  0  0  0  0  0
    1.8766   -1.0745   -3.0593 H   0  0  0  0  0  0  0  0  0  0  0  0
   -0.7793    1.3659    0.6455 C   0  0  0  0  0  0  0  0  0  0  0  0
   -1.6464    2.0125    0.0623 O   0  0  0  0  0  0  0  0  0  0  0  0
    0.0189    1.9059    1.5756 N   0  0  0  0  0  0  0  0  0  0  0  0
    0.7024    1.3094    2.0137 H   0  0  0  0  0  0  0  0  0  0  0  0
   -0.0451    3.3046    1.9929 C   0  0  0  0  0  0  0  0  0  0  0  0
   -1.0415    3.5286    2.3805 H   0  0  0  0  0  0  0  0  0  0  0  0
    0.6954    3.5023    2.7695 H   0  0  0  0  0  0  0  0  0  0  0  0
    0.1474    3.9536    1.1372 H   0  0  0  0  0  0  0  0  0  0  0  0
  5  6  2  0  0  0  0
  5  7  1  0  0  0  0
  2  3  1  0  0  0  0
  2  4  1  0  0  0  0
  2  5  1  0  0  0  0
  1  2  1  0  0  0  0
 24 25  2  0  0  0  0
 24 26  1  0  0  0  0
 20 21  1  0  0  0  0
 20 22  1  0  0  0  0
 20 23  1  0  0  0  0
 16 17  1  0  0  0  0
 16 18  1  0  0  0  0
 16 19  1  0  0  0  0
 14 15  1  0  0  0  0
 14 16  1  0  0  0  0
 14 20  1  0  0  0  0
 11 12  1  0  0  0  0
 11 13  1  0  0  0  0
 11 14  1  0  0  0  0
  9 10  1  0  0  0  0
  9 11  1  0  0  0  0
  9 24  1  0  0  0  0
  7  8  1  0  0  0  0
  7  9  1  0  0  0  0
 28 29  1  0  0  0  0
 28 30  1  0  0  0  0
 28 31  1  0  0  0  0
 26 27  1  0  0  0  0
 26 28  1  0  0  0  0
M  END
$$$$
default_name
  -OEChem-02102213163D

 31 30  0     1  0  0  0  0  0999 V2000
   -3.5895   -3.5013    1.1082 H   0  0  0  0  0  0  0  0  0  0  0  0
   -3.5145   -2.5363    0.6082 C   0  0  0  0  0  0  0  0  0  0  0  0
   -4.2285   -1.8413    1.0452 H   0  0  0  0  0  0  0  0  0  0  0  0
   -3.7155   -2.6583   -0.4538 H   0  0  0  0  0  0  0  0  0  0  0  0
   -2.1155   -1.9963    0.7922 C   0  0  0  0  0  0  0  0  0  0  0  0
   -1.2875   -2.6383    1.4252 O   0  0  0  0  0  0  0  0  0  0  0  0
   -1.8575   -0.8123    0.2402 N   0  0  0  0  0  0  0  0  0  0  0  0
   -2.6005   -0.3333   -0.2478 H   0  0  0  0  0  0  0  0  0  0  0  0
   -0.5675   -0.1203    0.3102 C   0  0  1  0  0  0  0  0  0  0  0  0
    0.0191   -0.5718    1.1110 H   0  0  0  0  0  0  0  0  0  0  0  0
    0.1724   -0.3238   -1.0286 C   0  0  0  0  0  0  0  0  0  0  0  0
   -0.5670   -0.3869   -1.8294 H   0  0  0  0  0  0  0  0  0  0  0  0
    0.7852    0.5612   -1.2133 H   0  0  0  0  0  0  0  0  0  0  0  0
    1.0833   -1.5626   -1.1086 C   0  0  0  0  0  0  0  0  0  0  0  0
    1.2795   -1.9407   -0.1052 H   0  0  0  0  0  0  0  0  0  0  0  0
    0.4656   -2.6826   -1.9508 C   0  0  0  0  0  0  0  0  0  0  0  0
    0.2484   -2.3145   -2.9545 H   0  0  0  0  0  0  0  0  0  0  0  0
    1.1636   -3.5172   -2.0204 H   0  0  0  0  0  0  0  0  0  0  0  0
   -0.4556   -3.0413   -1.4967 H   0  0  0  0  0  0  0  0  0  0  0  0
    2.4214   -1.1796   -1.7397 C   0  0  0  0  0  0  0  0  0  0  0  0
    2.9003   -0.4043   -1.1418 H   0  0  0  0  0  0  0  0  0  0  0  0
    3.0783   -2.0488   -1.7722 H   0  0  0  0  0  0  0  0  0  0  0  0
    2.2659   -0.8080   -2.7532 H   0  0  0  0  0  0  0  0  0  0  0  0
   -0.7793    1.3659    0.6455 C   0  0  0  0  0  0  0  0  0  0  0  0
   -1.6464    2.0125    0.0623 O   0  0  0  0  0  0  0  0  0  0  0  0
    0.0189    1.9059    1.5756 N   0  0  0  0  0  0  0  0  0  0  0  0
    0.7024    1.3094    2.0137 H   0  0  0  0  0  0  0  0  0  0  0  0
   -0.0451    3.3046    1.9929 C   0  0  0  0  0  0  0  0  0  0  0  0
   -1.0415    3.5286    2.3805 H   0  0  0  0  0  0  0  0  0  0  0  0
    0.6954    3.5023    2.7695 H   0  0  0  0  0  0  0  0  0  0  0  0
    0.1474    3.9536    1.1372 H   0  0  0  0  0  0  0  0  0  0  0  0
  5  6  2  0  0  0  0
  5  7  1  0  0  0  0
  2  3  1  0  0  0  0
  2  4  1  0  0  0  0
  2  5  1  0  0  0  0
  1  2  1  0  0  0  0
 24 25  2  0  0  0  0
 24 26  1  0  0  0  0
 20 21  1  0  0  0  0
 20 22  1  0  0  0  0
 20 23  1  0  0  0  0
 16 17  1  0  0  0  0
 16 18  1  0  0  0  0
 16 19  1  0  0  0  0
 14 15  1  0  0  0  0
 14 16  1  0  0  0  0
 14 20  1  0  0  0  0
 11 12  1  0  0  0  0
 11 13  1  0  0  0  0
 11 14  1  0  0  0  0
  9 10  1  0  0  0  0
  9 11  1  0  0  0  0
  9 24  1  0  0  0  0
  7  8  1  0  0  0  0
  7  9  1  0  0  0  0
 28 29  1  0  0  0  0
 28 30  1  0  0  0  0
 28 31  1  0  0  0  0
 26 27  1  0  0  0  0
 26 28  1  0  0  0  0
M  END
$$$$
default_name
  -OEChem-02102213163D

 31 30  0     1  0  0  0  0  0999 V2000
   -3.5895   -3.5013    1.1082 H   0  0  0  0  0  0  0  0  0  0  0  0
   -3.5145   -2.5363    0.6082 C   0  0  0  0  0  0  0  0  0  0  0  0
   -4.2285   -1.8413    1.0452 H   0  0  0  0  0  0  0  0  0  0  0  0
   -3.7155   -2.6583   -0.4538 H   0  0  0  0  0  0  0  0  0  0  0  0
   -2.1155   -1.9963    0.7922 C   0  0  0  0  0  0  0  0  0  0  0  0
   -1.2875   -2.6383    1.4252 O   0  0  0  0  0  0  0  0  0  0  0  0
   -1.8575   -0.8123    0.2402 N   0  0  0  0  0  0  0  0  0  0  0  0
   -2.6005   -0.3333   -0.2478 H   0  0  0  0  0  0  0  0  0  0  0  0
   -0.5675   -0.1203    0.3102 C   0  0  1  0  0  0  0  0  0  0  0  0
    0.0191   -0.5718    1.1110 H   0  0  0  0  0  0  0  0  0  0  0  0
    0.1724   -0.3238   -1.0286 C   0  0  0  0  0  0  0  0  0  0  0  0
   -0.5670   -0.3869   -1.8294 H   0  0  0  0  0  0  0  0  0  0  0  0
    0.7852    0.5612   -1.2133 H   0  0  0  0  0  0  0  0  0  0  0  0
    1.0833   -1.5626   -1.1086 C   0  0  0  0  0  0  0  0  0  0  0  0
    1.0662   -2.0942   -0.1571 H   0  0  0  0  0  0  0  0  0  0  0  0
    0.6587   -2.5230   -2.2233 C   0  0  0  0  0  0  0  0  0  0  0  0
    0.6553   -2.0007   -3.1809 H   0  0  0  0  0  0  0  0  0  0  0  0
    1.3581   -3.3577   -2.2749 H   0  0  0  0  0  0  0  0  0  0  0  0
   -0.3361   -2.9190   -2.0309 H   0  0  0  0  0  0  0  0  0  0  0  0
    2.5228   -1.1281   -1.3819 C   0  0  0  0  0  0  0  0  0  0  0  0
    2.8638   -0.4671   -0.5852 H   0  0  0  0  0  0  0  0  0  0  0  0
    3.1743   -2.0015   -1.4115 H   0  0  0  0  0  0  0  0  0  0  0  0
    2.5818   -0.6026   -2.3357 H   0  0  0  0  0  0  0  0  0  0  0  0
   -0.7793    1.3659    0.6455 C   0  0  0  0  0  0  0  0  0  0  0  0
   -1.6464    2.0125    0.0623 O   0  0  0  0  0  0  0  0  0  0  0  0
    0.0189    1.9059    1.5756 N   0  0  0  0  0  0  0  0  0  0  0  0
    0.7024    1.3094    2.0137 H   0  0  0  0  0  0  0  0  0  0  0  0
   -0.0451    3.3046    1.9929 C   0  0  0  0  0  0  0  0  0  0  0  0
   -1.0415    3.5286    2.3805 H   0  0  0  0  0  0  0  0  0  0  0  0
    0.6954    3.5023    2.7695 H   0  0  0  0  0  0  0  0  0  0  0  0
    0.1474    3.9536    1.1372 H   0  0  0  0  0  0  0  0  0  0  0  0
  5  6  2  0  0  0  0
  5  7  1  0  0  0  0
  2  3  1  0  0  0  0
  2  4  1  0  0  0  0
  2  5  1  0  0  0  0
  1  2  1  0  0  0  0
 24 25  2  0  0  0  0
 24 26  1  0  0  0  0
 20 21  1  0  0  0  0
 20 22  1  0  0  0  0
 20 23  1  0  0  0  0
 16 17  1  0  0  0  0
 16 18  1  0  0  0  0
 16 19  1  0  0  0  0
 14 15  1  0  0  0  0
 14 16  1  0  0  0  0
 14 20  1  0  0  0  0
 11 12  1  0  0  0  0
 11 13  1  0  0  0  0
 11 14  1  0  0  0  0
  9 10  1  0  0  0  0
  9 11  1  0  0  0  0
  9 24  1  0  0  0  0
  7  8  1  0  0  0  0
  7  9  1  0  0  0  0
 28 29  1  0  0  0  0
 28 30  1  0  0  0  0
 28 31  1  0  0  0  0
 26 27  1  0  0  0  0
 26 28  1  0  0  0  0
M  END
$$$$
default_name
  -OEChem-02102213163D

 31 30  0     1  0  0  0  0  0999 V2000
   -3.5895   -3.5013    1.1082 H   0  0  0  0  0  0  0  0  0  0  0  0
   -3.5145   -2.5363    0.6082 C   0  0  0  0  0  0  0  0  0  0  0  0
   -4.2285   -1.8413    1.0452 H   0  0  0  0  0  0  0  0  0  0  0  0
   -3.7155   -2.6583   -0.4538 H   0  0  0  0  0  0  0  0  0  0  0  0
   -2.1155   -1.9963    0.7922 C   0  0  0  0  0  0  0  0  0  0  0  0
   -1.2875   -2.6383    1.4252 O   0  0  0  0  0  0  0  0  0  0  0  0
   -1.8575   -0.8123    0.2402 N   0  0  0  0  0  0  0  0  0  0  0  0
   -2.6005   -0.3333   -0.2478 H   0  0  0  0  0  0  0  0  0  0  0  0
   -0.5675   -0.1203    0.3102 C   0  0  1  0  0  0  0  0  0  0  0  0
    0.0191   -0.5718    1.1110 H   0  0  0  0  0  0  0  0  0  0  0  0
    0.1724   -0.3238   -1.0286 C   0  0  0  0  0  0  0  0  0  0  0  0
   -0.5670   -0.3869   -1.8294 H   0  0  0  0  0  0  0  0  0  0  0  0
    0.7852    0.5612   -1.2133 H   0  0  0  0  0  0  0  0  0  0  0  0
    1.0833   -1.5626   -1.1086 C   0  0  0  0  0  0  0  0  0  0  0  0
    0.8690   -2.2316   -0.2751 H   0  0  0  0  0  0  0  0  0  0  0  0
    0.9040   -2.3298   -2.4218 C   0  0  0  0  0  0  0  0  0  0  0  0
    1.0997   -1.6684   -3.2669 H   0  0  0  0  0  0  0  0  0  0  0  0
    1.6011   -3.1674   -2.4558 H   0  0  0  0  0  0  0  0  0  0  0  0
   -0.1079   -2.7206   -2.5033 H   0  0  0  0  0  0  0  0  0  0  0  0
    2.5469   -1.1346   -1.0072 C   0  0  0  0  0  0  0  0  0  0  0  0
    2.7118   -0.6124   -0.0648 H   0  0  0  0  0  0  0  0  0  0  0  0
    3.1926   -2.0122   -1.0358 H   0  0  0  0  0  0  0  0  0  0  0  0
    2.8028   -0.4724   -1.8351 H   0  0  0  0  0  0  0  0  0  0  0  0
   -0.7793    1.3659    0.6455 C   0  0  0  0  0  0  0  0  0  0  0  0
   -1.6464    2.0125    0.0623 O   0  0  0  0  0  0  0  0  0  0  0  0
    0.0189    1.9059    1.5756 N   0  0  0  0  0  0  0  0  0  0  0  0
    0.7024    1.3094    2.0137 H   0  0  0  0  0  0  0  0  0  0  0  0
   -0.0451    3.3046    1.9929 C   0  0  0  0  0  0  0  0  0  0  0  0
   -1.0415    3.5286    2.3805 H   0  0  0  0  0  0  0  0  0  0  0  0
    0.6954    3.5023    2.7695 H   0  0  0  0  0  0  0  0  0  0  0  0
    0.1474    3.9536    1.1372 H   0  0  0  0  0  0  0  0  0  0  0  0
  5  6  2  0  0  0  0
  5  7  1  0  0  0  0
  2  3  1  0  0  0  0
  2  4  1  0  0  0  0
  2  5  1  0  0  0  0
  1  2  1  0  0  0  0
 24 25  2  0  0  0  0
 24 26  1  0  0  0  0
 20 21  1  0  0  0  0
 20 22  1  0  0  0  0
 20 23  1  0  0  0  0
 16 17  1  0  0  0  0
 16 18  1  0  0  0  0
 16 19  1  0  0  0  0
 14 15  1  0  0  0  0
 14 16  1  0  0  0  0
 14 20  1  0  0  0  0
 11 12  1  0  0  0  0
 11 13  1  0  0  0  0
 11 14  1  0  0  0  0
  9 10  1  0  0  0  0
  9 11  1  0  0  0  0
  9 24  1  0  0  0  0
  7  8  1  0  0  0  0
  7  9  1  0  0  0  0
 28 29  1  0  0  0  0
 28 30  1  0  0  0  0
 28 31  1  0  0  0  0
 26 27  1  0  0  0  0
 26 28  1  0  0  0  0
M  END
$$$$
default_name
  -OEChem-02102213163D

 31 30  0     1  0  0  0  0  0999 V2000
   -3.5895   -3.5013    1.1082 H   0  0  0  0  0  0  0  0  0  0  0  0
   -3.5145   -2.5363    0.6082 C   0  0  0  0  0  0  0  0  0  0  0  0
   -4.2285   -1.8413    1.0452 H   0  0  0  0  0  0  0  0  0  0  0  0
   -3.7155   -2.6583   -0.4538 H   0  0  0  0  0  0  0  0  0  0  0  0
   -2.1155   -1.9963    0.7922 C   0  0  0  0  0  0  0  0  0  0  0  0
   -1.2875   -2.6383    1.4252 O   0  0  0  0  0  0  0  0  0  0  0  0
   -1.8575   -0.8123    0.2402 N   0  0  0  0  0  0  0  0  0  0  0  0
   -2.6005   -0.3333   -0.2478 H   0  0  0  0  0  0  0  0  0  0  0  0
   -0.5675   -0.1203    0.3102 C   0  0  1  0  0  0  0  0  0  0  0  0
    0.0191   -0.5718    1.1110 H   0  0  0  0  0  0  0  0  0  0  0  0
    0.1724   -0.3238   -1.0286 C   0  0  0  0  0  0  0  0  0  0  0  0
   -0.5670   -0.3869   -1.8294 H   0  0  0  0  0  0  0  0  0  0  0  0
    0.7852    0.5612   -1.2133 H   0  0  0  0  0  0  0  0  0  0  0  0
    1.0833   -1.5626   -1.1086 C   0  0  0  0  0  0  0  0  0  0  0  0
    0.7012   -2.3436   -0.4513 H   0  0  0  0  0  0  0  0  0  0  0  0
    1.1850   -2.1160   -2.5329 C   0  0  0  0  0  0  0  0  0  0  0  0
    1.5513   -1.3402   -3.2065 H   0  0  0  0  0  0  0  0  0  0  0  0
    1.8760   -2.9591   -2.5507 H   0  0  0  0  0  0  0  0  0  0  0  0
    0.2136   -2.4598   -2.8817 H   0  0  0  0  0  0  0  0  0  0  0  0
    2.4921   -1.1985   -0.6413 C   0  0  0  0  0  0  0  0  0  0  0  0
    2.4547   -0.8305    0.3840 H   0  0  0  0  0  0  0  0  0  0  0  0
    3.1319   -2.0804   -0.6707 H   0  0  0  0  0  0  0  0  0  0  0  0
    2.9137   -0.4263   -1.2857 H   0  0  0  0  0  0  0  0  0  0  0  0
   -0.7793    1.3659    0.6455 C   0  0  0  0  0  0  0  0  0  0  0  0
   -1.6464    2.0125    0.0623 O   0  0  0  0  0  0  0  0  0  0  0  0
    0.0189    1.9059    1.5756 N   0  0  0  0  0  0  0  0  0  0  0  0
    0.7024    1.3094    2.0137 H   0  0  0  0  0  0  0  0  0  0  0  0
   -0.0451    3.3046    1.9929 C   0  0  0  0  0  0  0  0  0  0  0  0
   -1.0415    3.5286    2.3805 H   0  0  0  0  0  0  0  0  0  0  0  0
    0.6954    3.5023    2.7695 H   0  0  0  0  0  0  0  0  0  0  0  0
    0.1474    3.9536    1.1372 H   0  0  0  0  0  0  0  0  0  0  0  0
  5  6  2  0  0  0  0
  5  7  1  0  0  0  0
  2  3  1  0  0  0  0
  2  4  1  0  0  0  0
  2  5  1  0  0  0  0
  1  2  1  0  0  0  0
 24 25  2  0  0  0  0
 24 26  1  0  0  0  0
 20 21  1  0  0  0  0
 20 22  1  0  0  0  0
 20 23  1  0  0  0  0
 16 17  1  0  0  0  0
 16 18  1  0  0  0  0
 16 19  1  0  0  0  0
 14 15  1  0  0  0  0
 14 16  1  0  0  0  0
 14 20  1  0  0  0  0
 11 12  1  0  0  0  0
 11 13  1  0  0  0  0
 11 14  1  0  0  0  0
  9 10  1  0  0  0  0
  9 11  1  0  0  0  0
  9 24  1  0  0  0  0
  7  8  1  0  0  0  0
  7  9  1  0  0  0  0
 28 29  1  0  0  0  0
 28 30  1  0  0  0  0
 28 31  1  0  0  0  0
 26 27  1  0  0  0  0
 26 28  1  0  0  0  0
M  END
$$$$
default_name
  -OEChem-02102213163D

 31 30  0     1  0  0  0  0  0999 V2000
   -3.5895   -3.5013    1.1082 H   0  0  0  0  0  0  0  0  0  0  0  0
   -3.5145   -2.5363    0.6082 C   0  0  0  0  0  0  0  0  0  0  0  0
   -4.2285   -1.8413    1.0452 H   0  0  0  0  0  0  0  0  0  0  0  0
   -3.7155   -2.6583   -0.4538 H   0  0  0  0  0  0  0  0  0  0  0  0
   -2.1155   -1.9963    0.7922 C   0  0  0  0  0  0  0  0  0  0  0  0
   -1.2875   -2.6383    1.4252 O   0  0  0  0  0  0  0  0  0  0  0  0
   -1.8575   -0.8123    0.2402 N   0  0  0  0  0  0  0  0  0  0  0  0
   -2.6005   -0.3333   -0.2478 H   0  0  0  0  0  0  0  0  0  0  0  0
   -0.5675   -0.1203    0.3102 C   0  0  1  0  0  0  0  0  0  0  0  0
    0.0191   -0.5718    1.1110 H   0  0  0  0  0  0  0  0  0  0  0  0
    0.1724   -0.3238   -1.0286 C   0  0  0  0  0  0  0  0  0  0  0  0
   -0.5670   -0.3869   -1.8294 H   0  0  0  0  0  0  0  0  0  0  0  0
    0.7852    0.5612   -1.2133 H   0  0  0  0  0  0  0  0  0  0  0  0
    1.0833   -1.5626   -1.1086 C   0  0  0  0  0  0  0  0  0  0  0  0
    0.5742   -2.4226   -0.6735 H   0  0  0  0  0  0  0  0  0  0  0  0
    1.4823   -1.8963   -2.5489 C   0  0  0  0  0  0  0  0  0  0  0  0
    1.9794   -1.0384   -3.0039 H   0  0  0  0  0  0  0  0  0  0  0  0
    2.1642   -2.7470   -2.5533 H   0  0  0  0  0  0  0  0  0  0  0  0
    0.6064   -2.1543   -3.1403 H   0  0  0  0  0  0  0  0  0  0  0  0
    2.3621   -1.3155   -0.3091 C   0  0  0  0  0  0  0  0  0  0  0  0
    2.1099   -1.1064    0.7305 H   0  0  0  0  0  0  0  0  0  0  0  0
    2.9964   -2.2014   -0.3412 H   0  0  0  0  0  0  0  0  0  0  0  0
    2.9071   -0.4674   -0.7249 H   0  0  0  0  0  0  0  0  0  0  0  0
   -0.7793    1.3659    0.6455 C   0  0  0  0  0  0  0  0  0  0  0  0
   -1.6464    2.0125    0.0623 O   0  0  0  0  0  0  0  0  0  0  0  0
    0.0189    1.9059    1.5756 N   0  0  0  0  0  0  0  0  0  0  0  0
    0.7024    1.3094    2.0137 H   0  0  0  0  0  0  0  0  0  0  0  0
   -0.0451    3.3046    1.9929 C   0  0  0  0  0  0  0  0  0  0  0  0
   -1.0415    3.5286    2.3805 H   0  0  0  0  0  0  0  0  0  0  0  0
    0.6954    3.5023    2.7695 H   0  0  0  0  0  0  0  0  0  0  0  0
    0.1474    3.9536    1.1372 H   0  0  0  0  0  0  0  0  0  0  0  0
  5  6  2  0  0  0  0
  5  7  1  0  0  0  0
  2  3  1  0  0  0  0
  2  4  1  0  0  0  0
  2  5  1  0  0  0  0
  1  2  1  0  0  0  0
 24 25  2  0  0  0  0
 24 26  1  0  0  0  0
 20 21  1  0  0  0  0
 20 22  1  0  0  0  0
 20 23  1  0  0  0  0
 16 17  1  0  0  0  0
 16 18  1  0  0  0  0
 16 19  1  0  0  0  0
 14 15  1  0  0  0  0
 14 16  1  0  0  0  0
 14 20  1  0  0  0  0
 11 12  1  0  0  0  0
 11 13  1  0  0  0  0
 11 14  1  0  0  0  0
  9 10  1  0  0  0  0
  9 11  1  0  0  0  0
  9 24  1  0  0  0  0
  7  8  1  0  0  0  0
  7  9  1  0  0  0  0
 28 29  1  0  0  0  0
 28 30  1  0  0  0  0
 28 31  1  0  0  0  0
 26 27  1  0  0  0  0
 26 28  1  0  0  0  0
M  END
$$$$
default_name
  -OEChem-02102213163D

 31 30  0     1  0  0  0  0  0999 V2000
   -3.5895   -3.5013    1.1082 H   0  0  0  0  0  0  0  0  0  0  0  0
   -3.5145   -2.5363    0.6082 C   0  0  0  0  0  0  0  0  0  0  0  0
   -4.2285   -1.8413    1.0452 H   0  0  0  0  0  0  0  0  0  0  0  0
   -3.7155   -2.6583   -0.4538 H   0  0  0  0  0  0  0  0  0  0  0  0
   -2.1155   -1.9963    0.7922 C   0  0  0  0  0  0  0  0  0  0  0  0
   -1.2875   -2.6383    1.4252 O   0  0  0  0  0  0  0  0  0  0  0  0
   -1.8575   -0.8123    0.2402 N   0  0  0  0  0  0  0  0  0  0  0  0
   -2.6005   -0.3333   -0.2478 H   0  0  0  0  0  0  0  0  0  0  0  0
   -0.5675   -0.1203    0.3102 C   0  0  1  0  0  0  0  0  0  0  0  0
    0.0191   -0.5718    1.1110 H   0  0  0  0  0  0  0  0  0  0  0  0
    0.1724   -0.3238   -1.0286 C   0  0  0  0  0  0  0  0  0  0  0  0
   -0.5229   -0.1210   -1.8455 H   0  0  0  0  0  0  0  0  0  0  0  0
    0.9749    0.4149   -1.0862 H   0  0  0  0  0  0  0  0  0  0  0  0
    0.7878   -1.7180   -1.2482 C   0  0  0  0  0  0  0  0  0  0  0  0
    0.0076   -2.4774   -1.1949 H   0  0  0  0  0  0  0  0  0  0  0  0
    1.5005   -1.8304   -2.5990 C   0  0  0  0  0  0  0  0  0  0  0  0
    2.2746   -1.0655   -2.6743 H   0  0  0  0  0  0  0  0  0  0  0  0
    1.9614   -2.8142   -2.6902 H   0  0  0  0  0  0  0  0  0  0  0  0
    0.7950   -1.7037   -3.4174 H   0  0  0  0  0  0  0  0  0  0  0  0
    1.8087   -2.0106   -0.1494 C   0  0  0  0  0  0  0  0  0  0  0  0
    1.3212   -1.9691    0.8246 H   0  0  0  0  0  0  0  0  0  0  0  0
    2.2257   -3.0083   -0.2869 H   0  0  0  0  0  0  0  0  0  0  0  0
    2.6145   -1.2764   -0.1801 H   0  0  0  0  0  0  0  0  0  0  0  0
   -0.7793    1.3659    0.6455 C   0  0  0  0  0  0  0  0  0  0  0  0
   -1.6464    2.0125    0.0623 O   0  0  0  0  0  0  0  0  0  0  0  0
    0.0189    1.9059    1.5756 N   0  0  0  0  0  0  0  0  0  0  0  0
    0.7024    1.3094    2.0137 H   0  0  0  0  0  0  0  0  0  0  0  0
   -0.0451    3.3046    1.9929 C   0  0  0  0  0  0  0  0  0  0  0  0
   -1.0415    3.5286    2.3805 H   0  0  0  0  0  0  0  0  0  0  0  0
    0.6954    3.5023    2.7695 H   0  0  0  0  0  0  0  0  0  0  0  0
    0.1474    3.9536    1.1372 H   0  0  0  0  0  0  0  0  0  0  0  0
  5  6  2  0  0  0  0
  5  7  1  0  0  0  0
  2  3  1  0  0  0  0
  2  4  1  0  0  0  0
  2  5  1  0  0  0  0
  1  2  1  0  0  0  0
 24 25  2  0  0  0  0
 24 26  1  0  0  0  0
 20 21  1  0  0  0  0
 20 22  1  0  0  0  0
 20 23  1  0  0  0  0
 16 17  1  0  0  0  0
 16 18  1  0  0  0  0
 16 19  1  0  0  0  0
 14 15  1  0  0  0  0
 14 16  1  0  0  0  0
 14 20  1  0  0  0  0
 11 12  1  0  0  0  0
 11 13  1  0  0  0  0
 11 14  1  0  0  0  0
  9 10  1  0  0  0  0
  9 11  1  0  0  0  0
  9 24  1  0  0  0  0
  7  8  1  0  0  0  0
  7  9  1  0  0  0  0
 28 29  1  0  0  0  0
 28 30  1  0  0  0  0
 28 31  1  0  0  0  0
 26 27  1  0  0  0  0
 26 28  1  0  0  0  0
M  END
$$$$
default_name
  -OEChem-02102213163D

 31 30  0     1  0  0  0  0  0999 V2000
   -3.5895   -3.5013    1.1082 H   0  0  0  0  0  0  0  0  0  0  0  0
   -3.5145   -2.5363    0.6082 C   0  0  0  0  0  0  0  0  0  0  0  0
   -4.2285   -1.8413    1.0452 H   0  0  0  0  0  0  0  0  0  0  0  0
   -3.7155   -2.6583   -0.4538 H   0  0  0  0  0  0  0  0  0  0  0  0
   -2.1155   -1.9963    0.7922 C   0  0  0  0  0  0  0  0  0  0  0  0
   -1.2875   -2.6383    1.4252 O   0  0  0  0  0  0  0  0  0  0  0  0
   -1.8575   -0.8123    0.2402 N   0  0  0  0  0  0  0  0  0  0  0  0
   -2.6005   -0.3333   -0.2478 H   0  0  0  0  0  0  0  0  0  0  0  0
   -0.5675   -0.1203    0.3102 C   0  0  1  0  0  0  0  0  0  0  0  0
    0.0191   -0.5718    1.1110 H   0  0  0  0  0  0  0  0  0  0  0  0
    0.1724   -0.3238   -1.0286 C   0  0  0  0  0  0  0  0  0  0  0  0
   -0.5229   -0.1210   -1.8455 H   0  0  0  0  0  0  0  0  0  0  0  0
    0.9749    0.4149   -1.0862 H   0  0  0  0  0  0  0  0  0  0  0  0
    0.7878   -1.7180   -1.2482 C   0  0  0  0  0  0  0  0  0  0  0  0
   -0.0013   -2.4396   -1.4599 H   0  0  0  0  0  0  0  0  0  0  0  0
    1.7965   -1.7310   -2.4004 C   0  0  0  0  0  0  0  0  0  0  0  0
    2.5850   -1.0015   -2.2108 H   0  0  0  0  0  0  0  0  0  0  0  0
    2.2416   -2.7225   -2.4876 H   0  0  0  0  0  0  0  0  0  0  0  0
    1.3077   -1.4893   -3.3417 H   0  0  0  0  0  0  0  0  0  0  0  0
    1.5126   -2.1680    0.0197 C   0  0  0  0  0  0  0  0  0  0  0  0
    0.8100   -2.1991    0.8523 H   0  0  0  0  0  0  0  0  0  0  0  0
    1.9256   -3.1664   -0.1239 H   0  0  0  0  0  0  0  0  0  0  0  0
    2.3207   -1.4749    0.2564 H   0  0  0  0  0  0  0  0  0  0  0  0
   -0.7793    1.3659    0.6455 C   0  0  0  0  0  0  0  0  0  0  0  0
   -1.6464    2.0125    0.0623 O   0  0  0  0  0  0  0  0  0  0  0  0
    0.0189    1.9059    1.5756 N   0  0  0  0  0  0  0  0  0  0  0  0
    0.7024    1.3094    2.0137 H   0  0  0  0  0  0  0  0  0  0  0  0
   -0.0451    3.3046    1.9929 C   0  0  0  0  0  0  0  0  0  0  0  0
   -1.0415    3.5286    2.3805 H   0  0  0  0  0  0  0  0  0  0  0  0
    0.6954    3.5023    2.7695 H   0  0  0  0  0  0  0  0  0  0  0  0
    0.1474    3.9536    1.1372 H   0  0  0  0  0  0  0  0  0  0  0  0
  5  6  2  0  0  0  0
  5  7  1  0  0  0  0
  2  3  1  0  0  0  0
  2  4  1  0  0  0  0
  2  5  1  0  0  0  0
  1  2  1  0  0  0  0
 24 25  2  0  0  0  0
 24 26  1  0  0  0  0
 20 21  1  0  0  0  0
 20 22  1  0  0  0  0
 20 23  1  0  0  0  0
 16 17  1  0  0  0  0
 16 18  1  0  0  0  0
 16 19  1  0  0  0  0
 14 15  1  0  0  0  0
 14 16  1  0  0  0  0
 14 20  1  0  0  0  0
 11 12  1  0  0  0  0
 11 13  1  0  0  0  0
 11 14  1  0  0  0  0
  9 10  1  0  0  0  0
  9 11  1  0  0  0  0
  9 24  1  0  0  0  0
  7  8  1  0  0  0  0
  7  9  1  0  0  0  0
 28 29  1  0  0  0  0
 28 30  1  0  0  0  0
 28 31  1  0  0  0  0
 26 27  1  0  0  0  0
 26 28  1  0  0  0  0
M  END
$$$$
default_name
  -OEChem-02102213163D

 31 30  0     1  0  0  0  0  0999 V2000
   -3.5895   -3.5013    1.1082 H   0  0  0  0  0  0  0  0  0  0  0  0
   -3.5145   -2.5363    0.6082 C   0  0  0  0  0  0  0  0  0  0  0  0
   -4.2285   -1.8413    1.0452 H   0  0  0  0  0  0  0  0  0  0  0  0
   -3.7155   -2.6583   -0.4538 H   0  0  0  0  0  0  0  0  0  0  0  0
   -2.1155   -1.9963    0.7922 C   0  0  0  0  0  0  0  0  0  0  0  0
   -1.2875   -2.6383    1.4252 O   0  0  0  0  0  0  0  0  0  0  0  0
   -1.8575   -0.8123    0.2402 N   0  0  0  0  0  0  0  0  0  0  0  0
   -2.6005   -0.3333   -0.2478 H   0  0  0  0  0  0  0  0  0  0  0  0
   -0.5675   -0.1203    0.3102 C   0  0  1  0  0  0  0  0  0  0  0  0
    0.0191   -0.5718    1.1110 H   0  0  0  0  0  0  0  0  0  0  0  0
    0.1724   -0.3238   -1.0286 C   0  0  0  0  0  0  0  0  0  0  0  0
   -0.5229   -0.1210   -1.8455 H   0  0  0  0  0  0  0  0  0  0  0  0
    0.9749    0.4149   -1.0862 H   0  0  0  0  0  0  0  0  0  0  0  0
    0.7878   -1.7180   -1.2482 C   0  0  0  0  0  0  0  0  0  0  0  0
    0.0535   -2.3753   -1.7140 H   0  0  0  0  0  0  0  0  0  0  0  0
    2.0396   -1.6665   -2.1289 C   0  0  0  0  0  0  0  0  0  0  0  0
    2.7786   -0.9991   -1.6837 H   0  0  0  0  0  0  0  0  0  0  0  0
    2.4681   -2.6652   -2.2166 H   0  0  0  0  0  0  0  0  0  0  0  0
    1.7932   -1.3090   -3.1264 H   0  0  0  0  0  0  0  0  0  0  0  0
    1.1812   -2.3265    0.0973 C   0  0  0  0  0  0  0  0  0  0  0  0
    0.3011   -2.4053    0.7354 H   0  0  0  0  0  0  0  0  0  0  0  0
    1.5918   -3.3249   -0.0532 H   0  0  0  0  0  0  0  0  0  0  0  0
    1.9272   -1.7009    0.5887 H   0  0  0  0  0  0  0  0  0  0  0  0
   -0.7793    1.3659    0.6455 C   0  0  0  0  0  0  0  0  0  0  0  0
   -1.6464    2.0125    0.0623 O   0  0  0  0  0  0  0  0  0  0  0  0
    0.0189    1.9059    1.5756 N   0  0  0  0  0  0  0  0  0  0  0  0
    0.7024    1.3094    2.0137 H   0  0  0  0  0  0  0  0  0  0  0  0
   -0.0451    3.3046    1.9929 C   0  0  0  0  0  0  0  0  0  0  0  0
   -1.0415    3.5286    2.3805 H   0  0  0  0  0  0  0  0  0  0  0  0
    0.6954    3.5023    2.7695 H   0  0  0  0  0  0  0  0  0  0  0  0
    0.1474    3.9536    1.1372 H   0  0  0  0  0  0  0  0  0  0  0  0
  5  6  2  0  0  0  0
  5  7  1  0  0  0  0
  2  3  1  0  0  0  0
  2  4  1  0  0  0  0
  2  5  1  0  0  0  0
  1  2  1  0  0  0  0
 24 25  2  0  0  0  0
 24 26  1  0  0  0  0
 20 21  1  0  0  0  0
 20 22  1  0  0  0  0
 20 23  1  0  0  0  0
 16 17  1  0  0  0  0
 16 18  1  0  0  0  0
 16 19  1  0  0  0  0
 14 15  1  0  0  0  0
 14 16  1  0  0  0  0
 14 20  1  0  0  0  0
 11 12  1  0  0  0  0
 11 13  1  0  0  0  0
 11 14  1  0  0  0  0
  9 10  1  0  0  0  0
  9 11  1  0  0  0  0
  9 24  1  0  0  0  0
  7  8  1  0  0  0  0
  7  9  1  0  0  0  0
 28 29  1  0  0  0  0
 28 30  1  0  0  0  0
 28 31  1  0  0  0  0
 26 27  1  0  0  0  0
 26 28  1  0  0  0  0
M  END
$$$$
default_name
  -OEChem-02102213163D

 31 30  0     1  0  0  0  0  0999 V2000
   -3.5895   -3.5013    1.1082 H   0  0  0  0  0  0  0  0  0  0  0  0
   -3.5145   -2.5363    0.6082 C   0  0  0  0  0  0  0  0  0  0  0  0
   -4.2285   -1.8413    1.0452 H   0  0  0  0  0  0  0  0  0  0  0  0
   -3.7155   -2.6583   -0.4538 H   0  0  0  0  0  0  0  0  0  0  0  0
   -2.1155   -1.9963    0.7922 C   0  0  0  0  0  0  0  0  0  0  0  0
   -1.2875   -2.6383    1.4252 O   0  0  0  0  0  0  0  0  0  0  0  0
   -1.8575   -0.8123    0.2402 N   0  0  0  0  0  0  0  0  0  0  0  0
   -2.6005   -0.3333   -0.2478 H   0  0  0  0  0  0  0  0  0  0  0  0
   -0.5675   -0.1203    0.3102 C   0  0  1  0  0  0  0  0  0  0  0  0
    0.0191   -0.5718    1.1110 H   0  0  0  0  0  0  0  0  0  0  0  0
    0.1724   -0.3238   -1.0286 C   0  0  0  0  0  0  0  0  0  0  0  0
   -0.5229   -0.1210   -1.8455 H   0  0  0  0  0  0  0  0  0  0  0  0
    0.9749    0.4149   -1.0862 H   0  0  0  0  0  0  0  0  0  0  0  0
    0.7878   -1.7180   -1.2482 C   0  0  0  0  0  0  0  0  0  0  0  0
    0.1685   -2.2890   -1.9400 H   0  0  0  0  0  0  0  0  0  0  0  0
    2.2131   -1.6413   -1.8030 C   0  0  0  0  0  0  0  0  0  0  0  0
    2.8422   -1.0584   -1.1289 H   0  0  0  0  0  0  0  0  0  0  0  0
    2.6256   -2.6462   -1.8959 H   0  0  0  0  0  0  0  0  0  0  0  0
    2.2182   -1.1750   -2.7859 H   0  0  0  0  0  0  0  0  0  0  0  0
    0.8371   -2.4754    0.0782 C   0  0  0  0  0  0  0  0  0  0  0  0
   -0.1706   -2.5736    0.4820 H   0  0  0  0  0  0  0  0  0  0  0  0
    1.2468   -3.4730   -0.0795 H   0  0  0  0  0  0  0  0  0  0  0  0
    1.4610   -1.9391    0.7940 H   0  0  0  0  0  0  0  0  0  0  0  0
   -0.7793    1.3659    0.6455 C   0  0  0  0  0  0  0  0  0  0  0  0
   -1.6464    2.0125    0.0623 O   0  0  0  0  0  0  0  0  0  0  0  0
    0.0189    1.9059    1.5756 N   0  0  0  0  0  0  0  0  0  0  0  0
    0.7024    1.3094    2.0137 H   0  0  0  0  0  0  0  0  0  0  0  0
   -0.0451    3.3046    1.9929 C   0  0  0  0  0  0  0  0  0  0  0  0
   -1.0415    3.5286    2.3805 H   0  0  0  0  0  0  0  0  0  0  0  0
    0.6954    3.5023    2.7695 H   0  0  0  0  0  0  0  0  0  0  0  0
    0.1474    3.9536    1.1372 H   0  0  0  0  0  0  0  0  0  0  0  0
  5  6  2  0  0  0  0
  5  7  1  0  0  0  0
  2  3  1  0  0  0  0
  2  4  1  0  0  0  0
  2  5  1  0  0  0  0
  1  2  1  0  0  0  0
 24 25  2  0  0  0  0
 24 26  1  0  0  0  0
 20 21  1  0  0  0  0
 20 22  1  0  0  0  0
 20 23  1  0  0  0  0
 16 17  1  0  0  0  0
 16 18  1  0  0  0  0
 16 19  1  0  0  0  0
 14 15  1  0  0  0  0
 14 16  1  0  0  0  0
 14 20  1  0  0  0  0
 11 12  1  0  0  0  0
 11 13  1  0  0  0  0
 11 14  1  0  0  0  0
  9 10  1  0  0  0  0
  9 11  1  0  0  0  0
  9 24  1  0  0  0  0
  7  8  1  0  0  0  0
  7  9  1  0  0  0  0
 28 29  1  0  0  0  0
 28 30  1  0  0  0  0
 28 31  1  0  0  0  0
 26 27  1  0  0  0  0
 26 28  1  0  0  0  0
M  END
$$$$
default_name
  -OEChem-02102213163D

 31 30  0     1  0  0  0  0  0999 V2000
   -3.5895   -3.5013    1.1082 H   0  0  0  0  0  0  0  0  0  0  0  0
   -3.5145   -2.5363    0.6082 C   0  0  0  0  0  0  0  0  0  0  0  0
   -4.2285   -1.8413    1.0452 H   0  0  0  0  0  0  0  0  0  0  0  0
   -3.7155   -2.6583   -0.4538 H   0  0  0  0  0  0  0  0  0  0  0  0
   -2.1155   -1.9963    0.7922 C   0  0  0  0  0  0  0  0  0  0  0  0
   -1.2875   -2.6383    1.4252 O   0  0  0  0  0  0  0  0  0  0  0  0
   -1.8575   -0.8123    0.2402 N   0  0  0  0  0  0  0  0  0  0  0  0
   -2.6005   -0.3333   -0.2478 H   0  0  0  0  0  0  0  0  0  0  0  0
   -0.5675   -0.1203    0.3102 C   0  0  1  0  0  0  0  0  0  0  0  0
    0.0191   -0.5718    1.1110 H   0  0  0  0  0  0  0  0  0  0  0  0
    0.1724   -0.3238   -1.0286 C   0  0  0  0  0  0  0  0  0  0  0  0
   -0.5229   -0.1210   -1.8455 H   0  0  0  0  0  0  0  0  0  0  0  0
    0.9749    0.4149   -1.0862 H   0  0  0  0  0  0  0  0  0  0  0  0
    0.7878   -1.7180   -1.2482 C   0  0  0  0  0  0  0  0  0  0  0  0
    0.3356   -2.1865   -2.1224 H   0  0  0  0  0  0  0  0  0  0  0  0
    2.3053   -1.6570   -1.4450 C   0  0  0  0  0  0  0  0  0  0  0  0
    2.7714   -1.1754   -0.5842 H   0  0  0  0  0  0  0  0  0  0  0  0
    2.7032   -2.6669   -1.5473 H   0  0  0  0  0  0  0  0  0  0  0  0
    2.5540   -1.0965   -2.3435 H   0  0  0  0  0  0  0  0  0  0  0  0
    0.5036   -2.6046   -0.0363 C   0  0  0  0  0  0  0  0  0  0  0  0
   -0.5730   -2.6925    0.1092 H   0  0  0  0  0  0  0  0  0  0  0  0
    0.9144   -3.6006   -0.2011 H   0  0  0  0  0  0  0  0  0  0  0  0
    0.9537   -2.1732    0.8585 H   0  0  0  0  0  0  0  0  0  0  0  0
   -0.7793    1.3659    0.6455 C   0  0  0  0  0  0  0  0  0  0  0  0
   -1.6464    2.0125    0.0623 O   0  0  0  0  0  0  0  0  0  0  0  0
    0.0189    1.9059    1.5756 N   0  0  0  0  0  0  0  0  0  0  0  0
    0.7024    1.3094    2.0137 H   0  0  0  0  0  0  0  0  0  0  0  0
   -0.0451    3.3046    1.9929 C   0  0  0  0  0  0  0  0  0  0  0  0
   -1.0415    3.5286    2.3805 H   0  0  0  0  0  0  0  0  0  0  0  0
    0.6954    3.5023    2.7695 H   0  0  0  0  0  0  0  0  0  0  0  0
    0.1474    3.9536    1.1372 H   0  0  0  0  0  0  0  0  0  0  0  0
  5  6  2  0  0  0  0
  5  7  1  0  0  0  0
  2  3  1  0  0  0  0
  2  4  1  0  0  0  0
  2  5  1  0  0  0  0
  1  2  1  0  0  0  0
 24 25  2  0  0  0  0
 24 26  1  0  0  0  0
 20 21  1  0  0  0  0
 20 22  1  0  0  0  0
 20 23  1  0  0  0  0
 16 17  1  0  0  0  0
 16 18  1  0  0  0  0
 16 19  1  0  0  0  0
 14 15  1  0  0  0  0
 14 16  1  0  0  0  0
 14 20  1  0  0  0  0
 11 12  1  0  0  0  0
 11 13  1  0  0  0  0
 11 14  1  0  0  0  0
  9 10  1  0  0  0  0
  9 11  1  0  0  0  0
  9 24  1  0  0  0  0
  7  8  1  0  0  0  0
  7  9  1  0  0  0  0
 28 29  1  0  0  0  0
 28 30  1  0  0  0  0
 28 31  1  0  0  0  0
 26 27  1  0  0  0  0
 26 28  1  0  0  0  0
M  END
$$$$
default_name
  -OEChem-02102213163D

 31 30  0     1  0  0  0  0  0999 V2000
   -3.5895   -3.5013    1.1082 H   0  0  0  0  0  0  0  0  0  0  0  0
   -3.5145   -2.5363    0.6082 C   0  0  0  0  0  0  0  0  0  0  0  0
   -4.2285   -1.8413    1.0452 H   0  0  0  0  0  0  0  0  0  0  0  0
   -3.7155   -2.6583   -0.4538 H   0  0  0  0  0  0  0  0  0  0  0  0
   -2.1155   -1.9963    0.7922 C   0  0  0  0  0  0  0  0  0  0  0  0
   -1.2875   -2.6383    1.4252 O   0  0  0  0  0  0  0  0  0  0  0  0
   -1.8575   -0.8123    0.2402 N   0  0  0  0  0  0  0  0  0  0  0  0
   -2.6005   -0.3333   -0.2478 H   0  0  0  0  0  0  0  0  0  0  0  0
   -0.5675   -0.1203    0.3102 C   0  0  1  0  0  0  0  0  0  0  0  0
    0.0191   -0.5718    1.1110 H   0  0  0  0  0  0  0  0  0  0  0  0
    0.1724   -0.3238   -1.0286 C   0  0  0  0  0  0  0  0  0  0  0  0
   -0.5229   -0.1210   -1.8455 H   0  0  0  0  0  0  0  0  0  0  0  0
    0.9749    0.4149   -1.0862 H   0  0  0  0  0  0  0  0  0  0  0  0
    0.7878   -1.7180   -1.2482 C   0  0  0  0  0  0  0  0  0  0  0  0
    0.5436   -2.0748   -2.2489 H   0  0  0  0  0  0  0  0  0  0  0  0
    2.3098   -1.7126   -1.0791 C   0  0  0  0  0  0  0  0  0  0  0  0
    2.5710   -1.3422   -0.0869 H   0  0  0  0  0  0  0  0  0  0  0  0
    2.6957   -2.7257   -1.1945 H   0  0  0  0  0  0  0  0  0  0  0  0
    2.7775   -1.0788   -1.8295 H   0  0  0  0  0  0  0  0  0  0  0  0
    0.2036   -2.7052   -0.2384 C   0  0  0  0  0  0  0  0  0  0  0  0
   -0.8788   -2.7540   -0.3574 H   0  0  0  0  0  0  0  0  0  0  0  0
    0.6171   -3.6990   -0.4097 H   0  0  0  0  0  0  0  0  0  0  0  0
    0.4399   -2.3872    0.7776 H   0  0  0  0  0  0  0  0  0  0  0  0
   -0.7793    1.3659    0.6455 C   0  0  0  0  0  0  0  0  0  0  0  0
   -1.6464    2.0125    0.0623 O   0  0  0  0  0  0  0  0  0  0  0  0
    0.0189    1.9059    1.5756 N   0  0  0  0  0  0  0  0  0  0  0  0
    0.7024    1.3094    2.0137 H   0  0  0  0  0  0  0  0  0  0  0  0
   -0.0451    3.3046    1.9929 C   0  0  0  0  0  0  0  0  0  0  0  0
   -1.0415    3.5286    2.3805 H   0  0  0  0  0  0  0  0  0  0  0  0
    0.6954    3.5023    2.7695 H   0  0  0  0  0  0  0  0  0  0  0  0
    0.1474    3.9536    1.1372 H   0  0  0  0  0  0  0  0  0  0  0  0
  5  6  2  0  0  0  0
  5  7  1  0  0  0  0
  2  3  1  0  0  0  0
  2  4  1  0  0  0  0
  2  5  1  0  0  0  0
  1  2  1  0  0  0  0
 24 25  2  0  0  0  0
 24 26  1  0  0  0  0
 20 21  1  0  0  0  0
 20 22  1  0  0  0  0
 20 23  1  0  0  0  0
 16 17  1  0  0  0  0
 16 18  1  0  0  0  0
 16 19  1  0  0  0  0
 14 15  1  0  0  0  0
 14 16  1  0  0  0  0
 14 20  1  0  0  0  0
 11 12  1  0  0  0  0
 11 13  1  0  0  0  0
 11 14  1  0  0  0  0
  9 10  1  0  0  0  0
  9 11  1  0  0  0  0
  9 24  1  0  0  0  0
  7  8  1  0  0  0  0
  7  9  1  0  0  0  0
 28 29  1  0  0  0  0
 28 30  1  0  0  0  0
 28 31  1  0  0  0  0
 26 27  1  0  0  0  0
 26 28  1  0  0  0  0
M  END
$$$$
default_name
  -OEChem-02102213163D

 31 30  0     1  0  0  0  0  0999 V2000
   -3.5895   -3.5013    1.1082 H   0  0  0  0  0  0  0  0  0  0  0  0
   -3.5145   -2.5363    0.6082 C   0  0  0  0  0  0  0  0  0  0  0  0
   -4.2285   -1.8413    1.0452 H   0  0  0  0  0  0  0  0  0  0  0  0
   -3.7155   -2.6583   -0.4538 H   0  0  0  0  0  0  0  0  0  0  0  0
   -2.1155   -1.9963    0.7922 C   0  0  0  0  0  0  0  0  0  0  0  0
   -1.2875   -2.6383    1.4252 O   0  0  0  0  0  0  0  0  0  0  0  0
   -1.8575   -0.8123    0.2402 N   0  0  0  0  0  0  0  0  0  0  0  0
   -2.6005   -0.3333   -0.2478 H   0  0  0  0  0  0  0  0  0  0  0  0
   -0.5675   -0.1203    0.3102 C   0  0  1  0  0  0  0  0  0  0  0  0
    0.0191   -0.5718    1.1110 H   0  0  0  0  0  0  0  0  0  0  0  0
    0.1724   -0.3238   -1.0286 C   0  0  0  0  0  0  0  0  0  0  0  0
   -0.5229   -0.1210   -1.8455 H   0  0  0  0  0  0  0  0  0  0  0  0
    0.9749    0.4149   -1.0862 H   0  0  0  0  0  0  0  0  0  0  0  0
    0.7878   -1.7180   -1.2482 C   0  0  0  0  0  0  0  0  0  0  0  0
    0.7783   -1.9614   -2.3107 H   0  0  0  0  0  0  0  0  0  0  0  0
    2.2264   -1.8043   -0.7304 C   0  0  0  0  0  0  0  0  0  0  0  0
    2.2548   -1.5474    0.3293 H   0  0  0  0  0  0  0  0  0  0  0  0
    2.6036   -2.8188   -0.8615 H   0  0  0  0  0  0  0  0  0  0  0  0
    2.8736   -1.1231   -1.2787 H   0  0  0  0  0  0  0  0  0  0  0  0
   -0.0426   -2.7703   -0.5144 C   0  0  0  0  0  0  0  0  0  0  0  0
   -1.0670   -2.7538   -0.8862 H   0  0  0  0  0  0  0  0  0  0  0  0
    0.3751   -3.7615   -0.6910 H   0  0  0  0  0  0  0  0  0  0  0  0
   -0.0453   -2.5666    0.5570 H   0  0  0  0  0  0  0  0  0  0  0  0
   -0.7793    1.3659    0.6455 C   0  0  0  0  0  0  0  0  0  0  0  0
   -1.6464    2.0125    0.0623 O   0  0  0  0  0  0  0  0  0  0  0  0
    0.0189    1.9059    1.5756 N   0  0  0  0  0  0  0  0  0  0  0  0
    0.7024    1.3094    2.0137 H   0  0  0  0  0  0  0  0  0  0  0  0
   -0.0451    3.3046    1.9929 C   0  0  0  0  0  0  0  0  0  0  0  0
   -1.0415    3.5286    2.3805 H   0  0  0  0  0  0  0  0  0  0  0  0
    0.6954    3.5023    2.7695 H   0  0  0  0  0  0  0  0  0  0  0  0
    0.1474    3.9536    1.1372 H   0  0  0  0  0  0  0  0  0  0  0  0
  5  6  2  0  0  0  0
  5  7  1  0  0  0  0
  2  3  1  0  0  0  0
  2  4  1  0  0  0  0
  2  5  1  0  0  0  0
  1  2  1  0  0  0  0
 24 25  2  0  0  0  0
 24 26  1  0  0  0  0
 20 21  1  0  0  0  0
 20 22  1  0  0  0  0
 20 23  1  0  0  0  0
 16 17  1  0  0  0  0
 16 18  1  0  0  0  0
 16 19  1  0  0  0  0
 14 15  1  0  0  0  0
 14 16  1  0  0  0  0
 14 20  1  0  0  0  0
 11 12  1  0  0  0  0
 11 13  1  0  0  0  0
 11 14  1  0  0  0  0
  9 10  1  0  0  0  0
  9 11  1  0  0  0  0
  9 24  1  0  0  0  0
  7  8  1  0  0  0  0
  7  9  1  0  0  0  0
 28 29  1  0  0  0  0
 28 30  1  0  0  0  0
 28 31  1  0  0  0  0
 26 27  1  0  0  0  0
 26 28  1  0  0  0  0
M  END
$$$$
default_name
  -OEChem-02102213163D

 31 30  0     1  0  0  0  0  0999 V2000
   -3.5895   -3.5013    1.1082 H   0  0  0  0  0  0  0  0  0  0  0  0
   -3.5145   -2.5363    0.6082 C   0  0  0  0  0  0  0  0  0  0  0  0
   -4.2285   -1.8413    1.0452 H   0  0  0  0  0  0  0  0  0  0  0  0
   -3.7155   -2.6583   -0.4538 H   0  0  0  0  0  0  0  0  0  0  0  0
   -2.1155   -1.9963    0.7922 C   0  0  0  0  0  0  0  0  0  0  0  0
   -1.2875   -2.6383    1.4252 O   0  0  0  0  0  0  0  0  0  0  0  0
   -1.8575   -0.8123    0.2402 N   0  0  0  0  0  0  0  0  0  0  0  0
   -2.6005   -0.3333   -0.2478 H   0  0  0  0  0  0  0  0  0  0  0  0
   -0.5675   -0.1203    0.3102 C   0  0  1  0  0  0  0  0  0  0  0  0
    0.0191   -0.5718    1.1110 H   0  0  0  0  0  0  0  0  0  0  0  0
    0.1724   -0.3238   -1.0286 C   0  0  0  0  0  0  0  0  0  0  0  0
   -0.5229   -0.1210   -1.8455 H   0  0  0  0  0  0  0  0  0  0  0  0
    0.9749    0.4149   -1.0862 H   0  0  0  0  0  0  0  0  0  0  0  0
    0.7878   -1.7180   -1.2482 C   0  0  0  0  0  0  0  0  0  0  0  0
    1.0236   -1.8542   -2.3037 H   0  0  0  0  0  0  0  0  0  0  0  0
    2.0608   -1.9260   -0.4227 C   0  0  0  0  0  0  0  0  0  0  0  0
    1.8442   -1.7769    0.6360 H   0  0  0  0  0  0  0  0  0  0  0  0
    2.4331   -2.9398   -0.5711 H   0  0  0  0  0  0  0  0  0  0  0  0
    2.8357   -1.2265   -0.7287 H   0  0  0  0  0  0  0  0  0  0  0  0
   -0.2181   -2.7957   -0.8454 C   0  0  0  0  0  0  0  0  0  0  0  0
   -1.1249   -2.6919   -1.4411 H   0  0  0  0  0  0  0  0  0  0  0  0
    0.2050   -3.7838   -1.0259 H   0  0  0  0  0  0  0  0  0  0  0  0
   -0.4688   -2.6992    0.2116 H   0  0  0  0  0  0  0  0  0  0  0  0
   -0.7793    1.3659    0.6455 C   0  0  0  0  0  0  0  0  0  0  0  0
   -1.6464    2.0125    0.0623 O   0  0  0  0  0  0  0  0  0  0  0  0
    0.0189    1.9059    1.5756 N   0  0  0  0  0  0  0  0  0  0  0  0
    0.7024    1.3094    2.0137 H   0  0  0  0  0  0  0  0  0  0  0  0
   -0.0451    3.3046    1.9929 C   0  0  0  0  0  0  0  0  0  0  0  0
   -1.0415    3.5286    2.3805 H   0  0  0  0  0  0  0  0  0  0  0  0
    0.6954    3.5023    2.7695 H   0  0  0  0  0  0  0  0  0  0  0  0
    0.1474    3.9536    1.1372 H   0  0  0  0  0  0  0  0  0  0  0  0
  5  6  2  0  0  0  0
  5  7  1  0  0  0  0
  2  3  1  0  0  0  0
  2  4  1  0  0  0  0
  2  5  1  0  0  0  0
  1  2  1  0  0  0  0
 24 25  2  0  0  0  0
 24 26  1  0  0  0  0
 20 21  1  0  0  0  0
 20 22  1  0  0  0  0
 20 23  1  0  0  0  0
 16 17  1  0  0  0  0
 16 18  1  0  0  0  0
 16 19  1  0  0  0  0
 14 15  1  0  0  0  0
 14 16  1  0  0  0  0
 14 20  1  0  0  0  0
 11 12  1  0  0  0  0
 11 13  1  0  0  0  0
 11 14  1  0  0  0  0
  9 10  1  0  0  0  0
  9 11  1  0  0  0  0
  9 24  1  0  0  0  0
  7  8  1  0  0  0  0
  7  9  1  0  0  0  0
 28 29  1  0  0  0  0
 28 30  1  0  0  0  0
 28 31  1  0  0  0  0
 26 27  1  0  0  0  0
 26 28  1  0  0  0  0
M  END
$$$$
default_name
  -OEChem-02102213163D

 31 30  0     1  0  0  0  0  0999 V2000
   -3.5895   -3.5013    1.1082 H   0  0  0  0  0  0  0  0  0  0  0  0
   -3.5145   -2.5363    0.6082 C   0  0  0  0  0  0  0  0  0  0  0  0
   -4.2285   -1.8413    1.0452 H   0  0  0  0  0  0  0  0  0  0  0  0
   -3.7155   -2.6583   -0.4538 H   0  0  0  0  0  0  0  0  0  0  0  0
   -2.1155   -1.9963    0.7922 C   0  0  0  0  0  0  0  0  0  0  0  0
   -1.2875   -2.6383    1.4252 O   0  0  0  0  0  0  0  0  0  0  0  0
   -1.8575   -0.8123    0.2402 N   0  0  0  0  0  0  0  0  0  0  0  0
   -2.6005   -0.3333   -0.2478 H   0  0  0  0  0  0  0  0  0  0  0  0
   -0.5675   -0.1203    0.3102 C   0  0  1  0  0  0  0  0  0  0  0  0
    0.0191   -0.5718    1.1110 H   0  0  0  0  0  0  0  0  0  0  0  0
    0.1724   -0.3238   -1.0286 C   0  0  0  0  0  0  0  0  0  0  0  0
   -0.5229   -0.1210   -1.8455 H   0  0  0  0  0  0  0  0  0  0  0  0
    0.9749    0.4149   -1.0862 H   0  0  0  0  0  0  0  0  0  0  0  0
    0.7878   -1.7180   -1.2482 C   0  0  0  0  0  0  0  0  0  0  0  0
    1.2629   -1.7605   -2.2283 H   0  0  0  0  0  0  0  0  0  0  0  0
    1.8241   -2.0691   -0.1768 C   0  0  0  0  0  0  0  0  0  0  0  0
    1.3673   -2.0152    0.8123 H   0  0  0  0  0  0  0  0  0  0  0  0
    2.1960   -3.0804   -0.3431 H   0  0  0  0  0  0  0  0  0  0  0  0
    2.6664   -1.3818   -0.2171 H   0  0  0  0  0  0  0  0  0  0  0  0
   -0.3110   -2.7794   -1.2088 C   0  0  0  0  0  0  0  0  0  0  0  0
   -1.0485   -2.5726   -1.9842 H   0  0  0  0  0  0  0  0  0  0  0  0
    0.1184   -3.7645   -1.3916 H   0  0  0  0  0  0  0  0  0  0  0  0
   -0.8019   -2.7759   -0.2350 H   0  0  0  0  0  0  0  0  0  0  0  0
   -0.7793    1.3659    0.6455 C   0  0  0  0  0  0  0  0  0  0  0  0
   -1.6464    2.0125    0.0623 O   0  0  0  0  0  0  0  0  0  0  0  0
    0.0189    1.9059    1.5756 N   0  0  0  0  0  0  0  0  0  0  0  0
    0.7024    1.3094    2.0137 H   0  0  0  0  0  0  0  0  0  0  0  0
   -0.0451    3.3046    1.9929 C   0  0  0  0  0  0  0  0  0  0  0  0
   -1.0415    3.5286    2.3805 H   0  0  0  0  0  0  0  0  0  0  0  0
    0.6954    3.5023    2.7695 H   0  0  0  0  0  0  0  0  0  0  0  0
    0.1474    3.9536    1.1372 H   0  0  0  0  0  0  0  0  0  0  0  0
  5  6  2  0  0  0  0
  5  7  1  0  0  0  0
  2  3  1  0  0  0  0
  2  4  1  0  0  0  0
  2  5  1  0  0  0  0
  1  2  1  0  0  0  0
 24 25  2  0  0  0  0
 24 26  1  0  0  0  0
 20 21  1  0  0  0  0
 20 22  1  0  0  0  0
 20 23  1  0  0  0  0
 16 17  1  0  0  0  0
 16 18  1  0  0  0  0
 16 19  1  0  0  0  0
 14 15  1  0  0  0  0
 14 16  1  0  0  0  0
 14 20  1  0  0  0  0
 11 12  1  0  0  0  0
 11 13  1  0  0  0  0
 11 14  1  0  0  0  0
  9 10  1  0  0  0  0
  9 11  1  0  0  0  0
  9 24  1  0  0  0  0
  7  8  1  0  0  0  0
  7  9  1  0  0  0  0
 28 29  1  0  0  0  0
 28 30  1  0  0  0  0
 28 31  1  0  0  0  0
 26 27  1  0  0  0  0
 26 28  1  0  0  0  0
M  END
$$$$
default_name
  -OEChem-02102213163D

 31 30  0     1  0  0  0  0  0999 V2000
   -3.5895   -3.5013    1.1082 H   0  0  0  0  0  0  0  0  0  0  0  0
   -3.5145   -2.5363    0.6082 C   0  0  0  0  0  0  0  0  0  0  0  0
   -4.2285   -1.8413    1.0452 H   0  0  0  0  0  0  0  0  0  0  0  0
   -3.7155   -2.6583   -0.4538 H   0  0  0  0  0  0  0  0  0  0  0  0
   -2.1155   -1.9963    0.7922 C   0  0  0  0  0  0  0  0  0  0  0  0
   -1.2875   -2.6383    1.4252 O   0  0  0  0  0  0  0  0  0  0  0  0
   -1.8575   -0.8123    0.2402 N   0  0  0  0  0  0  0  0  0  0  0  0
   -2.6005   -0.3333   -0.2478 H   0  0  0  0  0  0  0  0  0  0  0  0
   -0.5675   -0.1203    0.3102 C   0  0  1  0  0  0  0  0  0  0  0  0
    0.0191   -0.5718    1.1110 H   0  0  0  0  0  0  0  0  0  0  0  0
    0.1724   -0.3238   -1.0286 C   0  0  0  0  0  0  0  0  0  0  0  0
   -0.5229   -0.1210   -1.8455 H   0  0  0  0  0  0  0  0  0  0  0  0
    0.9749    0.4149   -1.0862 H   0  0  0  0  0  0  0  0  0  0  0  0
    0.7878   -1.7180   -1.2482 C   0  0  0  0  0  0  0  0  0  0  0  0
    1.4799   -1.6865   -2.0898 H   0  0  0  0  0  0  0  0  0  0  0  0
    1.5326   -2.2241   -0.0096 C   0  0  0  0  0  0  0  0  0  0  0  0
    0.8565   -2.2460    0.8461 H   0  0  0  0  0  0  0  0  0  0  0  0
    1.9083   -3.2311   -0.1930 H   0  0  0  0  0  0  0  0  0  0  0  0
    2.3772   -1.5785    0.2213 H   0  0  0  0  0  0  0  0  0  0  0  0
   -0.3149   -2.7227   -1.5800 C   0  0  0  0  0  0  0  0  0  0  0  0
   -0.8430   -2.4041   -2.4786 H   0  0  0  0  0  0  0  0  0  0  0  0
    0.1211   -3.7048   -1.7631 H   0  0  0  0  0  0  0  0  0  0  0  0
   -1.0219   -2.7914   -0.7524 H   0  0  0  0  0  0  0  0  0  0  0  0
   -0.7793    1.3659    0.6455 C   0  0  0  0  0  0  0  0  0  0  0  0
   -1.6464    2.0125    0.0623 O   0  0  0  0  0  0  0  0  0  0  0  0
    0.0189    1.9059    1.5756 N   0  0  0  0  0  0  0  0  0  0  0  0
    0.7024    1.3094    2.0137 H   0  0  0  0  0  0  0  0  0  0  0  0
   -0.0451    3.3046    1.9929 C   0  0  0  0  0  0  0  0  0  0  0  0
   -1.0415    3.5286    2.3805 H   0  0  0  0  0  0  0  0  0  0  0  0
    0.6954    3.5023    2.7695 H   0  0  0  0  0  0  0  0  0  0  0  0
    0.1474    3.9536    1.1372 H   0  0  0  0  0  0  0  0  0  0  0  0
  5  6  2  0  0  0  0
  5  7  1  0  0  0  0
  2  3  1  0  0  0  0
  2  4  1  0  0  0  0
  2  5  1  0  0  0  0
  1  2  1  0  0  0  0
 24 25  2  0  0  0  0
 24 26  1  0  0  0  0
 20 21  1  0  0  0  0
 20 22  1  0  0  0  0
 20 23  1  0  0  0  0
 16 17  1  0  0  0  0
 16 18  1  0  0  0  0
 16 19  1  0  0  0  0
 14 15  1  0  0  0  0
 14 16  1  0  0  0  0
 14 20  1  0  0  0  0
 11 12  1  0  0  0  0
 11 13  1  0  0  0  0
 11 14  1  0  0  0  0
  9 10  1  0  0  0  0
  9 11  1  0  0  0  0
  9 24  1  0  0  0  0
  7  8  1  0  0  0  0
  7  9  1  0  0  0  0
 28 29  1  0  0  0  0
 28 30  1  0  0  0  0
 28 31  1  0  0  0  0
 26 27  1  0  0  0  0
 26 28  1  0  0  0  0
M  END
$$$$
default_name
  -OEChem-02102213163D

 31 30  0     1  0  0  0  0  0999 V2000
   -3.5895   -3.5013    1.1082 H   0  0  0  0  0  0  0  0  0  0  0  0
   -3.5145   -2.5363    0.6082 C   0  0  0  0  0  0  0  0  0  0  0  0
   -4.2285   -1.8413    1.0452 H   0  0  0  0  0  0  0  0  0  0  0  0
   -3.7155   -2.6583   -0.4538 H   0  0  0  0  0  0  0  0  0  0  0  0
   -2.1155   -1.9963    0.7922 C   0  0  0  0  0  0  0  0  0  0  0  0
   -1.2875   -2.6383    1.4252 O   0  0  0  0  0  0  0  0  0  0  0  0
   -1.8575   -0.8123    0.2402 N   0  0  0  0  0  0  0  0  0  0  0  0
   -2.6005   -0.3333   -0.2478 H   0  0  0  0  0  0  0  0  0  0  0  0
   -0.5675   -0.1203    0.3102 C   0  0  1  0  0  0  0  0  0  0  0  0
    0.0191   -0.5718    1.1110 H   0  0  0  0  0  0  0  0  0  0  0  0
    0.1724   -0.3238   -1.0286 C   0  0  0  0  0  0  0  0  0  0  0  0
   -0.5229   -0.1210   -1.8455 H   0  0  0  0  0  0  0  0  0  0  0  0
    0.9749    0.4149   -1.0862 H   0  0  0  0  0  0  0  0  0  0  0  0
    0.7878   -1.7180   -1.2482 C   0  0  0  0  0  0  0  0  0  0  0  0
    1.6597   -1.6375   -1.8974 H   0  0  0  0  0  0  0  0  0  0  0  0
    1.2062   -2.3804    0.0676 C   0  0  0  0  0  0  0  0  0  0  0  0
    0.3466   -2.4536    0.7352 H   0  0  0  0  0  0  0  0  0  0  0  0
    1.5897   -3.3815   -0.1310 H   0  0  0  0  0  0  0  0  0  0  0  0
    1.9879   -1.8032    0.5567 H   0  0  0  0  0  0  0  0  0  0  0  0
   -0.2297   -2.6294   -1.9336 C   0  0  0  0  0  0  0  0  0  0  0  0
   -0.5225   -2.1977   -2.8906 H   0  0  0  0  0  0  0  0  0  0  0  0
    0.2130   -3.6087   -2.1151 H   0  0  0  0  0  0  0  0  0  0  0  0
   -1.1136   -2.7448   -1.3053 H   0  0  0  0  0  0  0  0  0  0  0  0
   -0.7793    1.3659    0.6455 C   0  0  0  0  0  0  0  0  0  0  0  0
   -1.6464    2.0125    0.0623 O   0  0  0  0  0  0  0  0  0  0  0  0
    0.0189    1.9059    1.5756 N   0  0  0  0  0  0  0  0  0  0  0  0
    0.7024    1.3094    2.0137 H   0  0  0  0  0  0  0  0  0  0  0  0
   -0.0451    3.3046    1.9929 C   0  0  0  0  0  0  0  0  0  0  0  0
   -1.0415    3.5286    2.3805 H   0  0  0  0  0  0  0  0  0  0  0  0
    0.6954    3.5023    2.7695 H   0  0  0  0  0  0  0  0  0  0  0  0
    0.1474    3.9536    1.1372 H   0  0  0  0  0  0  0  0  0  0  0  0
  5  6  2  0  0  0  0
  5  7  1  0  0  0  0
  2  3  1  0  0  0  0
  2  4  1  0  0  0  0
  2  5  1  0  0  0  0
  1  2  1  0  0  0  0
 24 25  2  0  0  0  0
 24 26  1  0  0  0  0
 20 21  1  0  0  0  0
 20 22  1  0  0  0  0
 20 23  1  0  0  0  0
 16 17  1  0  0  0  0
 16 18  1  0  0  0  0
 16 19  1  0  0  0  0
 14 15  1  0  0  0  0
 14 16  1  0  0  0  0
 14 20  1  0  0  0  0
 11 12  1  0  0  0  0
 11 13  1  0  0  0  0
 11 14  1  0  0  0  0
  9 10  1  0  0  0  0
  9 11  1  0  0  0  0
  9 24  1  0  0  0  0
  7  8  1  0  0  0  0
  7  9  1  0  0  0  0
 28 29  1  0  0  0  0
 28 30  1  0  0  0  0
 28 31  1  0  0  0  0
 26 27  1  0  0  0  0
 26 28  1  0  0  0  0
M  END
$$$$
default_name
  -OEChem-02102213163D

 31 30  0     1  0  0  0  0  0999 V2000
   -3.5895   -3.5013    1.1082 H   0  0  0  0  0  0  0  0  0  0  0  0
   -3.5145   -2.5363    0.6082 C   0  0  0  0  0  0  0  0  0  0  0  0
   -4.2285   -1.8413    1.0452 H   0  0  0  0  0  0  0  0  0  0  0  0
   -3.7155   -2.6583   -0.4538 H   0  0  0  0  0  0  0  0  0  0  0  0
   -2.1155   -1.9963    0.7922 C   0  0  0  0  0  0  0  0  0  0  0  0
   -1.2875   -2.6383    1.4252 O   0  0  0  0  0  0  0  0  0  0  0  0
   -1.8575   -0.8123    0.2402 N   0  0  0  0  0  0  0  0  0  0  0  0
   -2.6005   -0.3333   -0.2478 H   0  0  0  0  0  0  0  0  0  0  0  0
   -0.5675   -0.1203    0.3102 C   0  0  1  0  0  0  0  0  0  0  0  0
    0.0191   -0.5718    1.1110 H   0  0  0  0  0  0  0  0  0  0  0  0
    0.1724   -0.3238   -1.0286 C   0  0  0  0  0  0  0  0  0  0  0  0
   -0.5229   -0.1210   -1.8455 H   0  0  0  0  0  0  0  0  0  0  0  0
    0.9749    0.4149   -1.0862 H   0  0  0  0  0  0  0  0  0  0  0  0
    0.7878   -1.7180   -1.2482 C   0  0  0  0  0  0  0  0  0  0  0  0
    1.7901   -1.6166   -1.6644 H   0  0  0  0  0  0  0  0  0  0  0  0
    0.8670   -2.5273    0.0495 C   0  0  0  0  0  0  0  0  0  0  0  0
   -0.1275   -2.6238    0.4872 H   0  0  0  0  0  0  0  0  0  0  0  0
    1.2618   -3.5214   -0.1613 H   0  0  0  0  0  0  0  0  0  0  0  0
    1.5249   -2.0406    0.7662 H   0  0  0  0  0  0  0  0  0  0  0  0
   -0.0610   -2.5058   -2.2454 C   0  0  0  0  0  0  0  0  0  0  0  0
   -0.1087   -1.9675   -3.1920 H   0  0  0  0  0  0  0  0  0  0  0  0
    0.3878   -3.4830   -2.4237 H   0  0  0  0  0  0  0  0  0  0  0  0
   -1.0709   -2.6392   -1.8561 H   0  0  0  0  0  0  0  0  0  0  0  0
   -0.7793    1.3659    0.6455 C   0  0  0  0  0  0  0  0  0  0  0  0
   -1.6464    2.0125    0.0623 O   0  0  0  0  0  0  0  0  0  0  0  0
    0.0189    1.9059    1.5756 N   0  0  0  0  0  0  0  0  0  0  0  0
    0.7024    1.3094    2.0137 H   0  0  0  0  0  0  0  0  0  0  0  0
   -0.0451    3.3046    1.9929 C   0  0  0  0  0  0  0  0  0  0  0  0
   -1.0415    3.5286    2.3805 H   0  0  0  0  0  0  0  0  0  0  0  0
    0.6954    3.5023    2.7695 H   0  0  0  0  0  0  0  0  0  0  0  0
    0.1474    3.9536    1.1372 H   0  0  0  0  0  0  0  0  0  0  0  0
  5  6  2  0  0  0  0
  5  7  1  0  0  0  0
  2  3  1  0  0  0  0
  2  4  1  0  0  0  0
  2  5  1  0  0  0  0
  1  2  1  0  0  0  0
 24 25  2  0  0  0  0
 24 26  1  0  0  0  0
 20 21  1  0  0  0  0
 20 22  1  0  0  0  0
 20 23  1  0  0  0  0
 16 17  1  0  0  0  0
 16 18  1  0  0  0  0
 16 19  1  0  0  0  0
 14 15  1  0  0  0  0
 14 16  1  0  0  0  0
 14 20  1  0  0  0  0
 11 12  1  0  0  0  0
 11 13  1  0  0  0  0
 11 14  1  0  0  0  0
  9 10  1  0  0  0  0
  9 11  1  0  0  0  0
  9 24  1  0  0  0  0
  7  8  1  0  0  0  0
  7  9  1  0  0  0  0
 28 29  1  0  0  0  0
 28 30  1  0  0  0  0
 28 31  1  0  0  0  0
 26 27  1  0  0  0  0
 26 28  1  0  0  0  0
M  END
$$$$
default_name
  -OEChem-02102213163D

 31 30  0     1  0  0  0  0  0999 V2000
   -3.5895   -3.5013    1.1082 H   0  0  0  0  0  0  0  0  0  0  0  0
   -3.5145   -2.5363    0.6082 C   0  0  0  0  0  0  0  0  0  0  0  0
   -4.2285   -1.8413    1.0452 H   0  0  0  0  0  0  0  0  0  0  0  0
   -3.7155   -2.6583   -0.4538 H   0  0  0  0  0  0  0  0  0  0  0  0
   -2.1155   -1.9963    0.7922 C   0  0  0  0  0  0  0  0  0  0  0  0
   -1.2875   -2.6383    1.4252 O   0  0  0  0  0  0  0  0  0  0  0  0
   -1.8575   -0.8123    0.2402 N   0  0  0  0  0  0  0  0  0  0  0  0
   -2.6005   -0.3333   -0.2478 H   0  0  0  0  0  0  0  0  0  0  0  0
   -0.5675   -0.1203    0.3102 C   0  0  1  0  0  0  0  0  0  0  0  0
    0.0191   -0.5718    1.1110 H   0  0  0  0  0  0  0  0  0  0  0  0
    0.1724   -0.3238   -1.0286 C   0  0  0  0  0  0  0  0  0  0  0  0
   -0.5229   -0.1210   -1.8455 H   0  0  0  0  0  0  0  0  0  0  0  0
    0.9749    0.4149   -1.0862 H   0  0  0  0  0  0  0  0  0  0  0  0
    0.7878   -1.7180   -1.2482 C   0  0  0  0  0  0  0  0  0  0  0  0
    1.8622   -1.6254   -1.4067 H   0  0  0  0  0  0  0  0  0  0  0  0
    0.5382   -2.6548   -0.0627 C   0  0  0  0  0  0  0  0  0  0  0  0
   -0.5337   -2.7451    0.1188 H   0  0  0  0  0  0  0  0  0  0  0  0
    0.9470   -3.6414   -0.2819 H   0  0  0  0  0  0  0  0  0  0  0  0
    1.0199   -2.2744    0.8355 H   0  0  0  0  0  0  0  0  0  0  0  0
    0.1796   -2.3604   -2.4944 C   0  0  0  0  0  0  0  0  0  0  0  0
    0.3702   -1.7293   -3.3624 H   0  0  0  0  0  0  0  0  0  0  0  0
    0.6336   -3.3360   -2.6678 H   0  0  0  0  0  0  0  0  0  0  0  0
   -0.8967   -2.4818   -2.3671 H   0  0  0  0  0  0  0  0  0  0  0  0
   -0.7793    1.3659    0.6455 C   0  0  0  0  0  0  0  0  0  0  0  0
   -1.6464    2.0125    0.0623 O   0  0  0  0  0  0  0  0  0  0  0  0
    0.0189    1.9059    1.5756 N   0  0  0  0  0  0  0  0  0  0  0  0
    0.7024    1.3094    2.0137 H   0  0  0  0  0  0  0  0  0  0  0  0
   -0.0451    3.3046    1.9929 C   0  0  0  0  0  0  0  0  0  0  0  0
   -1.0415    3.5286    2.3805 H   0  0  0  0  0  0  0  0  0  0  0  0
    0.6954    3.5023    2.7695 H   0  0  0  0  0  0  0  0  0  0  0  0
    0.1474    3.9536    1.1372 H   0  0  0  0  0  0  0  0  0  0  0  0
  5  6  2  0  0  0  0
  5  7  1  0  0  0  0
  2  3  1  0  0  0  0
  2  4  1  0  0  0  0
  2  5  1  0  0  0  0
  1  2  1  0  0  0  0
 24 25  2  0  0  0  0
 24 26  1  0  0  0  0
 20 21  1  0  0  0  0
 20 22  1  0  0  0  0
 20 23  1  0  0  0  0
 16 17  1  0  0  0  0
 16 18  1  0  0  0  0
 16 19  1  0  0  0  0
 14 15  1  0  0  0  0
 14 16  1  0  0  0  0
 14 20  1  0  0  0  0
 11 12  1  0  0  0  0
 11 13  1  0  0  0  0
 11 14  1  0  0  0  0
  9 10  1  0  0  0  0
  9 11  1  0  0  0  0
  9 24  1  0  0  0  0
  7  8  1  0  0  0  0
  7  9  1  0  0  0  0
 28 29  1  0  0  0  0
 28 30  1  0  0  0  0
 28 31  1  0  0  0  0
 26 27  1  0  0  0  0
 26 28  1  0  0  0  0
M  END
$$$$
default_name
  -OEChem-02102213163D

 31 30  0     1  0  0  0  0  0999 V2000
   -3.5895   -3.5013    1.1082 H   0  0  0  0  0  0  0  0  0  0  0  0
   -3.5145   -2.5363    0.6082 C   0  0  0  0  0  0  0  0  0  0  0  0
   -4.2285   -1.8413    1.0452 H   0  0  0  0  0  0  0  0  0  0  0  0
   -3.7155   -2.6583   -0.4538 H   0  0  0  0  0  0  0  0  0  0  0  0
   -2.1155   -1.9963    0.7922 C   0  0  0  0  0  0  0  0  0  0  0  0
   -1.2875   -2.6383    1.4252 O   0  0  0  0  0  0  0  0  0  0  0  0
   -1.8575   -0.8123    0.2402 N   0  0  0  0  0  0  0  0  0  0  0  0
   -2.6005   -0.3333   -0.2478 H   0  0  0  0  0  0  0  0  0  0  0  0
   -0.5675   -0.1203    0.3102 C   0  0  1  0  0  0  0  0  0  0  0  0
    0.0191   -0.5718    1.1110 H   0  0  0  0  0  0  0  0  0  0  0  0
    0.1724   -0.3238   -1.0286 C   0  0  0  0  0  0  0  0  0  0  0  0
   -0.5229   -0.1210   -1.8455 H   0  0  0  0  0  0  0  0  0  0  0  0
    0.9749    0.4149   -1.0862 H   0  0  0  0  0  0  0  0  0  0  0  0
    0.7878   -1.7180   -1.2482 C   0  0  0  0  0  0  0  0  0  0  0  0
    1.8712   -1.6632   -1.1417 H   0  0  0  0  0  0  0  0  0  0  0  0
    0.2421   -2.7541   -0.2613 C   0  0  0  0  0  0  0  0  0  0  0  0
   -0.8441   -2.8091   -0.3447 H   0  0  0  0  0  0  0  0  0  0  0  0
    0.6668   -3.7331   -0.4846 H   0  0  0  0  0  0  0  0  0  0  0  0
    0.5071   -2.4888    0.7599 H   0  0  0  0  0  0  0  0  0  0  0  0
    0.4756   -2.2030   -2.6634 C   0  0  0  0  0  0  0  0  0  0  0  0
    0.8814   -1.4993   -3.3901 H   0  0  0  0  0  0  0  0  0  0  0  0
    0.9337   -3.1779   -2.8307 H   0  0  0  0  0  0  0  0  0  0  0  0
   -0.6029   -2.2834   -2.8036 H   0  0  0  0  0  0  0  0  0  0  0  0
   -0.7793    1.3659    0.6455 C   0  0  0  0  0  0  0  0  0  0  0  0
   -1.6464    2.0125    0.0623 O   0  0  0  0  0  0  0  0  0  0  0  0
    0.0189    1.9059    1.5756 N   0  0  0  0  0  0  0  0  0  0  0  0
    0.7024    1.3094    2.0137 H   0  0  0  0  0  0  0  0  0  0  0  0
   -0.0451    3.3046    1.9929 C   0  0  0  0  0  0  0  0  0  0  0  0
   -1.0415    3.5286    2.3805 H   0  0  0  0  0  0  0  0  0  0  0  0
    0.6954    3.5023    2.7695 H   0  0  0  0  0  0  0  0  0  0  0  0
    0.1474    3.9536    1.1372 H   0  0  0  0  0  0  0  0  0  0  0  0
  5  6  2  0  0  0  0
  5  7  1  0  0  0  0
  2  3  1  0  0  0  0
  2  4  1  0  0  0  0
  2  5  1  0  0  0  0
  1  2  1  0  0  0  0
 24 25  2  0  0  0  0
 24 26  1  0  0  0  0
 20 21  1  0  0  0  0
 20 22  1  0  0  0  0
 20 23  1  0  0  0  0
 16 17  1  0  0  0  0
 16 18  1  0  0  0  0
 16 19  1  0  0  0  0
 14 15  1  0  0  0  0
 14 16  1  0  0  0  0
 14 20  1  0  0  0  0
 11 12  1  0  0  0  0
 11 13  1  0  0  0  0
 11 14  1  0  0  0  0
  9 10  1  0  0  0  0
  9 11  1  0  0  0  0
  9 24  1  0  0  0  0
  7  8  1  0  0  0  0
  7  9  1  0  0  0  0
 28 29  1  0  0  0  0
 28 30  1  0  0  0  0
 28 31  1  0  0  0  0
 26 27  1  0  0  0  0
 26 28  1  0  0  0  0
M  END
$$$$
default_name
  -OEChem-02102213163D

 31 30  0     1  0  0  0  0  0999 V2000
   -3.5895   -3.5013    1.1082 H   0  0  0  0  0  0  0  0  0  0  0  0
   -3.5145   -2.5363    0.6082 C   0  0  0  0  0  0  0  0  0  0  0  0
   -4.2285   -1.8413    1.0452 H   0  0  0  0  0  0  0  0  0  0  0  0
   -3.7155   -2.6583   -0.4538 H   0  0  0  0  0  0  0  0  0  0  0  0
   -2.1155   -1.9963    0.7922 C   0  0  0  0  0  0  0  0  0  0  0  0
   -1.2875   -2.6383    1.4252 O   0  0  0  0  0  0  0  0  0  0  0  0
   -1.8575   -0.8123    0.2402 N   0  0  0  0  0  0  0  0  0  0  0  0
   -2.6005   -0.3333   -0.2478 H   0  0  0  0  0  0  0  0  0  0  0  0
   -0.5675   -0.1203    0.3102 C   0  0  1  0  0  0  0  0  0  0  0  0
    0.0191   -0.5718    1.1110 H   0  0  0  0  0  0  0  0  0  0  0  0
    0.1724   -0.3238   -1.0286 C   0  0  0  0  0  0  0  0  0  0  0  0
   -0.5229   -0.1210   -1.8455 H   0  0  0  0  0  0  0  0  0  0  0  0
    0.9749    0.4149   -1.0862 H   0  0  0  0  0  0  0  0  0  0  0  0
    0.7878   -1.7180   -1.2482 C   0  0  0  0  0  0  0  0  0  0  0  0
    1.8163   -1.7274   -0.8875 H   0  0  0  0  0  0  0  0  0  0  0  0
   -0.0009   -2.8187   -0.5328 C   0  0  0  0  0  0  0  0  0  0  0  0
   -1.0377   -2.8115   -0.8718 H   0  0  0  0  0  0  0  0  0  0  0  0
    0.4403   -3.7904   -0.7555 H   0  0  0  0  0  0  0  0  0  0  0  0
    0.0217   -2.6692    0.5445 H   0  0  0  0  0  0  0  0  0  0  0  0
    0.8071   -2.0445   -2.7410 C   0  0  0  0  0  0  0  0  0  0  0  0
    1.3902   -1.2931   -3.2732 H   0  0  0  0  0  0  0  0  0  0  0  0
    1.2676   -3.0194   -2.9014 H   0  0  0  0  0  0  0  0  0  0  0  0
   -0.2094   -2.0574   -3.1359 H   0  0  0  0  0  0  0  0  0  0  0  0
   -0.7793    1.3659    0.6455 C   0  0  0  0  0  0  0  0  0  0  0  0
   -1.6464    2.0125    0.0623 O   0  0  0  0  0  0  0  0  0  0  0  0
    0.0189    1.9059    1.5756 N   0  0  0  0  0  0  0  0  0  0  0  0
    0.7024    1.3094    2.0137 H   0  0  0  0  0  0  0  0  0  0  0  0
   -0.0451    3.3046    1.9929 C   0  0  0  0  0  0  0  0  0  0  0  0
   -1.0415    3.5286    2.3805 H   0  0  0  0  0  0  0  0  0  0  0  0
    0.6954    3.5023    2.7695 H   0  0  0  0  0  0  0  0  0  0  0  0
    0.1474    3.9536    1.1372 H   0  0  0  0  0  0  0  0  0  0  0  0
  5  6  2  0  0  0  0
  5  7  1  0  0  0  0
  2  3  1  0  0  0  0
  2  4  1  0  0  0  0
  2  5  1  0  0  0  0
  1  2  1  0  0  0  0
 24 25  2  0  0  0  0
 24 26  1  0  0  0  0
 20 21  1  0  0  0  0
 20 22  1  0  0  0  0
 20 23  1  0  0  0  0
 16 17  1  0  0  0  0
 16 18  1  0  0  0  0
 16 19  1  0  0  0  0
 14 15  1  0  0  0  0
 14 16  1  0  0  0  0
 14 20  1  0  0  0  0
 11 12  1  0  0  0  0
 11 13  1  0  0  0  0
 11 14  1  0  0  0  0
  9 10  1  0  0  0  0
  9 11  1  0  0  0  0
  9 24  1  0  0  0  0
  7  8  1  0  0  0  0
  7  9  1  0  0  0  0
 28 29  1  0  0  0  0
 28 30  1  0  0  0  0
 28 31  1  0  0  0  0
 26 27  1  0  0  0  0
 26 28  1  0  0  0  0
M  END
$$$$
default_name
  -OEChem-02102213163D

 31 30  0     1  0  0  0  0  0999 V2000
   -3.5895   -3.5013    1.1082 H   0  0  0  0  0  0  0  0  0  0  0  0
   -3.5145   -2.5363    0.6082 C   0  0  0  0  0  0  0  0  0  0  0  0
   -4.2285   -1.8413    1.0452 H   0  0  0  0  0  0  0  0  0  0  0  0
   -3.7155   -2.6583   -0.4538 H   0  0  0  0  0  0  0  0  0  0  0  0
   -2.1155   -1.9963    0.7922 C   0  0  0  0  0  0  0  0  0  0  0  0
   -1.2875   -2.6383    1.4252 O   0  0  0  0  0  0  0  0  0  0  0  0
   -1.8575   -0.8123    0.2402 N   0  0  0  0  0  0  0  0  0  0  0  0
   -2.6005   -0.3333   -0.2478 H   0  0  0  0  0  0  0  0  0  0  0  0
   -0.5675   -0.1203    0.3102 C   0  0  1  0  0  0  0  0  0  0  0  0
    0.0191   -0.5718    1.1110 H   0  0  0  0  0  0  0  0  0  0  0  0
    0.1724   -0.3238   -1.0286 C   0  0  0  0  0  0  0  0  0  0  0  0
   -0.5229   -0.1210   -1.8455 H   0  0  0  0  0  0  0  0  0  0  0  0
    0.9749    0.4149   -1.0862 H   0  0  0  0  0  0  0  0  0  0  0  0
    0.7878   -1.7180   -1.2482 C   0  0  0  0  0  0  0  0  0  0  0  0
    1.7014   -1.8137   -0.6615 H   0  0  0  0  0  0  0  0  0  0  0  0
   -0.1745   -2.8439   -0.8587 C   0  0  0  0  0  0  0  0  0  0  0  0
   -1.1013   -2.7522   -1.4266 H   0  0  0  0  0  0  0  0  0  0  0  0
    0.2829   -3.8094   -1.0762 H   0  0  0  0  0  0  0  0  0  0  0  0
   -0.4034   -2.8032    0.2040 H   0  0  0  0  0  0  0  0  0  0  0  0
    1.1512   -1.8956   -2.7219 C   0  0  0  0  0  0  0  0  0  0  0  0
    1.8619   -1.1248   -3.0198 H   0  0  0  0  0  0  0  0  0  0  0  0
    1.6125   -2.8713   -2.8751 H   0  0  0  0  0  0  0  0  0  0  0  0
    0.2568   -1.8192   -3.3413 H   0  0  0  0  0  0  0  0  0  0  0  0
   -0.7793    1.3659    0.6455 C   0  0  0  0  0  0  0  0  0  0  0  0
   -1.6464    2.0125    0.0623 O   0  0  0  0  0  0  0  0  0  0  0  0
    0.0189    1.9059    1.5756 N   0  0  0  0  0  0  0  0  0  0  0  0
    0.7024    1.3094    2.0137 H   0  0  0  0  0  0  0  0  0  0  0  0
   -0.0451    3.3046    1.9929 C   0  0  0  0  0  0  0  0  0  0  0  0
   -1.0415    3.5286    2.3805 H   0  0  0  0  0  0  0  0  0  0  0  0
    0.6954    3.5023    2.7695 H   0  0  0  0  0  0  0  0  0  0  0  0
    0.1474    3.9536    1.1372 H   0  0  0  0  0  0  0  0  0  0  0  0
  5  6  2  0  0  0  0
  5  7  1  0  0  0  0
  2  3  1  0  0  0  0
  2  4  1  0  0  0  0
  2  5  1  0  0  0  0
  1  2  1  0  0  0  0
 24 25  2  0  0  0  0
 24 26  1  0  0  0  0
 20 21  1  0  0  0  0
 20 22  1  0  0  0  0
 20 23  1  0  0  0  0
 16 17  1  0  0  0  0
 16 18  1  0  0  0  0
 16 19  1  0  0  0  0
 14 15  1  0  0  0  0
 14 16  1  0  0  0  0
 14 20  1  0  0  0  0
 11 12  1  0  0  0  0
 11 13  1  0  0  0  0
 11 14  1  0  0  0  0
  9 10  1  0  0  0  0
  9 11  1  0  0  0  0
  9 24  1  0  0  0  0
  7  8  1  0  0  0  0
  7  9  1  0  0  0  0
 28 29  1  0  0  0  0
 28 30  1  0  0  0  0
 28 31  1  0  0  0  0
 26 27  1  0  0  0  0
 26 28  1  0  0  0  0
M  END
$$$$
default_name
  -OEChem-02102213163D

 31 30  0     1  0  0  0  0  0999 V2000
   -3.5895   -3.5013    1.1082 H   0  0  0  0  0  0  0  0  0  0  0  0
   -3.5145   -2.5363    0.6082 C   0  0  0  0  0  0  0  0  0  0  0  0
   -4.2285   -1.8413    1.0452 H   0  0  0  0  0  0  0  0  0  0  0  0
   -3.7155   -2.6583   -0.4538 H   0  0  0  0  0  0  0  0  0  0  0  0
   -2.1155   -1.9963    0.7922 C   0  0  0  0  0  0  0  0  0  0  0  0
   -1.2875   -2.6383    1.4252 O   0  0  0  0  0  0  0  0  0  0  0  0
   -1.8575   -0.8123    0.2402 N   0  0  0  0  0  0  0  0  0  0  0  0
   -2.6005   -0.3333   -0.2478 H   0  0  0  0  0  0  0  0  0  0  0  0
   -0.5675   -0.1203    0.3102 C   0  0  1  0  0  0  0  0  0  0  0  0
    0.0191   -0.5718    1.1110 H   0  0  0  0  0  0  0  0  0  0  0  0
    0.1724   -0.3238   -1.0286 C   0  0  0  0  0  0  0  0  0  0  0  0
   -0.5229   -0.1210   -1.8455 H   0  0  0  0  0  0  0  0  0  0  0  0
    0.9749    0.4149   -1.0862 H   0  0  0  0  0  0  0  0  0  0  0  0
    0.7878   -1.7180   -1.2482 C   0  0  0  0  0  0  0  0  0  0  0  0
    1.5343   -1.9163   -0.4791 H   0  0  0  0  0  0  0  0  0  0  0  0
   -0.2666   -2.8282   -1.2168 C   0  0  0  0  0  0  0  0  0  0  0  0
   -1.0305   -2.6352   -1.9712 H   0  0  0  0  0  0  0  0  0  0  0  0
    0.2053   -3.7887   -1.4249 H   0  0  0  0  0  0  0  0  0  0  0  0
   -0.7391   -2.8817   -0.2383 H   0  0  0  0  0  0  0  0  0  0  0  0
    1.4847   -1.7665   -2.6074 C   0  0  0  0  0  0  0  0  0  0  0  0
    2.2644   -1.0059   -2.6470 H   0  0  0  0  0  0  0  0  0  0  0  0
    1.9449   -2.7437   -2.7535 H   0  0  0  0  0  0  0  0  0  0  0  0
    0.7641   -1.5851   -3.4057 H   0  0  0  0  0  0  0  0  0  0  0  0
   -0.7793    1.3659    0.6455 C   0  0  0  0  0  0  0  0  0  0  0  0
   -1.6464    2.0125    0.0623 O   0  0  0  0  0  0  0  0  0  0  0  0
    0.0189    1.9059    1.5756 N   0  0  0  0  0  0  0  0  0  0  0  0
    0.7024    1.3094    2.0137 H   0  0  0  0  0  0  0  0  0  0  0  0
   -0.0451    3.3046    1.9929 C   0  0  0  0  0  0  0  0  0  0  0  0
   -1.0415    3.5286    2.3805 H   0  0  0  0  0  0  0  0  0  0  0  0
    0.6954    3.5023    2.7695 H   0  0  0  0  0  0  0  0  0  0  0  0
    0.1474    3.9536    1.1372 H   0  0  0  0  0  0  0  0  0  0  0  0
  5  6  2  0  0  0  0
  5  7  1  0  0  0  0
  2  3  1  0  0  0  0
  2  4  1  0  0  0  0
  2  5  1  0  0  0  0
  1  2  1  0  0  0  0
 24 25  2  0  0  0  0
 24 26  1  0  0  0  0
 20 21  1  0  0  0  0
 20 22  1  0  0  0  0
 20 23  1  0  0  0  0
 16 17  1  0  0  0  0
 16 18  1  0  0  0  0
 16 19  1  0  0  0  0
 14 15  1  0  0  0  0
 14 16  1  0  0  0  0
 14 20  1  0  0  0  0
 11 12  1  0  0  0  0
 11 13  1  0  0  0  0
 11 14  1  0  0  0  0
  9 10  1  0  0  0  0
  9 11  1  0  0  0  0
  9 24  1  0  0  0  0
  7  8  1  0  0  0  0
  7  9  1  0  0  0  0
 28 29  1  0  0  0  0
 28 30  1  0  0  0  0
 28 31  1  0  0  0  0
 26 27  1  0  0  0  0
 26 28  1  0  0  0  0
M  END
$$$$
default_name
  -OEChem-02102213163D

 31 30  0     1  0  0  0  0  0999 V2000
   -3.5895   -3.5013    1.1082 H   0  0  0  0  0  0  0  0  0  0  0  0
   -3.5145   -2.5363    0.6082 C   0  0  0  0  0  0  0  0  0  0  0  0
   -4.2285   -1.8413    1.0452 H   0  0  0  0  0  0  0  0  0  0  0  0
   -3.7155   -2.6583   -0.4538 H   0  0  0  0  0  0  0  0  0  0  0  0
   -2.1155   -1.9963    0.7922 C   0  0  0  0  0  0  0  0  0  0  0  0
   -1.2875   -2.6383    1.4252 O   0  0  0  0  0  0  0  0  0  0  0  0
   -1.8575   -0.8123    0.2402 N   0  0  0  0  0  0  0  0  0  0  0  0
   -2.6005   -0.3333   -0.2478 H   0  0  0  0  0  0  0  0  0  0  0  0
   -0.5675   -0.1203    0.3102 C   0  0  1  0  0  0  0  0  0  0  0  0
    0.0191   -0.5718    1.1110 H   0  0  0  0  0  0  0  0  0  0  0  0
    0.1724   -0.3238   -1.0286 C   0  0  0  0  0  0  0  0  0  0  0  0
   -0.5229   -0.1210   -1.8455 H   0  0  0  0  0  0  0  0  0  0  0  0
    0.9749    0.4149   -1.0862 H   0  0  0  0  0  0  0  0  0  0  0  0
    0.7878   -1.7180   -1.2482 C   0  0  0  0  0  0  0  0  0  0  0  0
    1.3263   -2.0280   -0.3526 H   0  0  0  0  0  0  0  0  0  0  0  0
   -0.2712   -2.7726   -1.5826 C   0  0  0  0  0  0  0  0  0  0  0  0
   -0.8301   -2.4684   -2.4686 H   0  0  0  0  0  0  0  0  0  0  0  0
    0.2128   -3.7299   -1.7777 H   0  0  0  0  0  0  0  0  0  0  0  0
   -0.9626   -2.8994   -0.7524 H   0  0  0  0  0  0  0  0  0  0  0  0
    1.7847   -1.6659   -2.4053 C   0  0  0  0  0  0  0  0  0  0  0  0
    2.5702   -0.9444   -2.1804 H   0  0  0  0  0  0  0  0  0  0  0  0
    2.2423   -2.6453   -2.5449 H   0  0  0  0  0  0  0  0  0  0  0  0
    1.2779   -1.3711   -3.3249 H   0  0  0  0  0  0  0  0  0  0  0  0
   -0.7793    1.3659    0.6455 C   0  0  0  0  0  0  0  0  0  0  0  0
   -1.6464    2.0125    0.0623 O   0  0  0  0  0  0  0  0  0  0  0  0
    0.0189    1.9059    1.5756 N   0  0  0  0  0  0  0  0  0  0  0  0
    0.7024    1.3094    2.0137 H   0  0  0  0  0  0  0  0  0  0  0  0
   -0.0451    3.3046    1.9929 C   0  0  0  0  0  0  0  0  0  0  0  0
   -1.0415    3.5286    2.3805 H   0  0  0  0  0  0  0  0  0  0  0  0
    0.6954    3.5023    2.7695 H   0  0  0  0  0  0  0  0  0  0  0  0
    0.1474    3.9536    1.1372 H   0  0  0  0  0  0  0  0  0  0  0  0
  5  6  2  0  0  0  0
  5  7  1  0  0  0  0
  2  3  1  0  0  0  0
  2  4  1  0  0  0  0
  2  5  1  0  0  0  0
  1  2  1  0  0  0  0
 24 25  2  0  0  0  0
 24 26  1  0  0  0  0
 20 21  1  0  0  0  0
 20 22  1  0  0  0  0
 20 23  1  0  0  0  0
 16 17  1  0  0  0  0
 16 18  1  0  0  0  0
 16 19  1  0  0  0  0
 14 15  1  0  0  0  0
 14 16  1  0  0  0  0
 14 20  1  0  0  0  0
 11 12  1  0  0  0  0
 11 13  1  0  0  0  0
 11 14  1  0  0  0  0
  9 10  1  0  0  0  0
  9 11  1  0  0  0  0
  9 24  1  0  0  0  0
  7  8  1  0  0  0  0
  7  9  1  0  0  0  0
 28 29  1  0  0  0  0
 28 30  1  0  0  0  0
 28 31  1  0  0  0  0
 26 27  1  0  0  0  0
 26 28  1  0  0  0  0
M  END
$$$$
default_name
  -OEChem-02102213163D

 31 30  0     1  0  0  0  0  0999 V2000
   -3.5895   -3.5013    1.1082 H   0  0  0  0  0  0  0  0  0  0  0  0
   -3.5145   -2.5363    0.6082 C   0  0  0  0  0  0  0  0  0  0  0  0
   -4.2285   -1.8413    1.0452 H   0  0  0  0  0  0  0  0  0  0  0  0
   -3.7155   -2.6583   -0.4538 H   0  0  0  0  0  0  0  0  0  0  0  0
   -2.1155   -1.9963    0.7922 C   0  0  0  0  0  0  0  0  0  0  0  0
   -1.2875   -2.6383    1.4252 O   0  0  0  0  0  0  0  0  0  0  0  0
   -1.8575   -0.8123    0.2402 N   0  0  0  0  0  0  0  0  0  0  0  0
   -2.6005   -0.3333   -0.2478 H   0  0  0  0  0  0  0  0  0  0  0  0
   -0.5675   -0.1203    0.3102 C   0  0  1  0  0  0  0  0  0  0  0  0
    0.0191   -0.5718    1.1110 H   0  0  0  0  0  0  0  0  0  0  0  0
    0.1724   -0.3238   -1.0286 C   0  0  0  0  0  0  0  0  0  0  0  0
   -0.5229   -0.1210   -1.8455 H   0  0  0  0  0  0  0  0  0  0  0  0
    0.9749    0.4149   -1.0862 H   0  0  0  0  0  0  0  0  0  0  0  0
    0.7878   -1.7180   -1.2482 C   0  0  0  0  0  0  0  0  0  0  0  0
    1.0916   -2.1413   -0.2908 H   0  0  0  0  0  0  0  0  0  0  0  0
   -0.1878   -2.6808   -1.9313 C   0  0  0  0  0  0  0  0  0  0  0  0
   -0.5139   -2.2632   -2.8848 H   0  0  0  0  0  0  0  0  0  0  0  0
    0.3049   -3.6367   -2.1106 H   0  0  0  0  0  0  0  0  0  0  0  0
   -1.0587   -2.8550   -1.3032 H   0  0  0  0  0  0  0  0  0  0  0  0
    2.0309   -1.6007   -2.1294 C   0  0  0  0  0  0  0  0  0  0  0  0
    2.7584   -0.9446   -1.6516 H   0  0  0  0  0  0  0  0  0  0  0  0
    2.4842   -2.5828   -2.2636 H   0  0  0  0  0  0  0  0  0  0  0  0
    1.7631   -1.1917   -3.1042 H   0  0  0  0  0  0  0  0  0  0  0  0
   -0.7793    1.3659    0.6455 C   0  0  0  0  0  0  0  0  0  0  0  0
   -1.6464    2.0125    0.0623 O   0  0  0  0  0  0  0  0  0  0  0  0
    0.0189    1.9059    1.5756 N   0  0  0  0  0  0  0  0  0  0  0  0
    0.7024    1.3094    2.0137 H   0  0  0  0  0  0  0  0  0  0  0  0
   -0.0451    3.3046    1.9929 C   0  0  0  0  0  0  0  0  0  0  0  0
   -1.0415    3.5286    2.3805 H   0  0  0  0  0  0  0  0  0  0  0  0
    0.6954    3.5023    2.7695 H   0  0  0  0  0  0  0  0  0  0  0  0
    0.1474    3.9536    1.1372 H   0  0  0  0  0  0  0  0  0  0  0  0
  5  6  2  0  0  0  0
  5  7  1  0  0  0  0
  2  3  1  0  0  0  0
  2  4  1  0  0  0  0
  2  5  1  0  0  0  0
  1  2  1  0  0  0  0
 24 25  2  0  0  0  0
 24 26  1  0  0  0  0
 20 21  1  0  0  0  0
 20 22  1  0  0  0  0
 20 23  1  0  0  0  0
 16 17  1  0  0  0  0
 16 18  1  0  0  0  0
 16 19  1  0  0  0  0
 14 15  1  0  0  0  0
 14 16  1  0  0  0  0
 14 20  1  0  0  0  0
 11 12  1  0  0  0  0
 11 13  1  0  0  0  0
 11 14  1  0  0  0  0
  9 10  1  0  0  0  0
  9 11  1  0  0  0  0
  9 24  1  0  0  0  0
  7  8  1  0  0  0  0
  7  9  1  0  0  0  0
 28 29  1  0  0  0  0
 28 30  1  0  0  0  0
 28 31  1  0  0  0  0
 26 27  1  0  0  0  0
 26 28  1  0  0  0  0
M  END
$$$$
default_name
  -OEChem-02102213163D

 31 30  0     1  0  0  0  0  0999 V2000
   -3.5895   -3.5013    1.1082 H   0  0  0  0  0  0  0  0  0  0  0  0
   -3.5145   -2.5363    0.6082 C   0  0  0  0  0  0  0  0  0  0  0  0
   -4.2285   -1.8413    1.0452 H   0  0  0  0  0  0  0  0  0  0  0  0
   -3.7155   -2.6583   -0.4538 H   0  0  0  0  0  0  0  0  0  0  0  0
   -2.1155   -1.9963    0.7922 C   0  0  0  0  0  0  0  0  0  0  0  0
   -1.2875   -2.6383    1.4252 O   0  0  0  0  0  0  0  0  0  0  0  0
   -1.8575   -0.8123    0.2402 N   0  0  0  0  0  0  0  0  0  0  0  0
   -2.6005   -0.3333   -0.2478 H   0  0  0  0  0  0  0  0  0  0  0  0
   -0.5675   -0.1203    0.3102 C   0  0  1  0  0  0  0  0  0  0  0  0
    0.0191   -0.5718    1.1110 H   0  0  0  0  0  0  0  0  0  0  0  0
    0.1724   -0.3238   -1.0286 C   0  0  0  0  0  0  0  0  0  0  0  0
   -0.5229   -0.1210   -1.8455 H   0  0  0  0  0  0  0  0  0  0  0  0
    0.9749    0.4149   -1.0862 H   0  0  0  0  0  0  0  0  0  0  0  0
    0.7878   -1.7180   -1.2482 C   0  0  0  0  0  0  0  0  0  0  0  0
    0.8462   -2.2485   -0.2978 H   0  0  0  0  0  0  0  0  0  0  0  0
   -0.0221   -2.5592   -2.2391 C   0  0  0  0  0  0  0  0  0  0  0  0
   -0.1033   -2.0337   -3.1915 H   0  0  0  0  0  0  0  0  0  0  0  0
    0.4753   -3.5158   -2.4010 H   0  0  0  0  0  0  0  0  0  0  0  0
   -1.0208   -2.7517   -1.8531 H   0  0  0  0  0  0  0  0  0  0  0  0
    2.2064   -1.5753   -1.7984 C   0  0  0  0  0  0  0  0  0  0  0  0
    2.8163   -1.0065   -1.0967 H   0  0  0  0  0  0  0  0  0  0  0  0
    2.6543   -2.5605   -1.9287 H   0  0  0  0  0  0  0  0  0  0  0  0
    2.1867   -1.0591   -2.7588 H   0  0  0  0  0  0  0  0  0  0  0  0
   -0.7793    1.3659    0.6455 C   0  0  0  0  0  0  0  0  0  0  0  0
   -1.6464    2.0125    0.0623 O   0  0  0  0  0  0  0  0  0  0  0  0
    0.0189    1.9059    1.5756 N   0  0  0  0  0  0  0  0  0  0  0  0
    0.7024    1.3094    2.0137 H   0  0  0  0  0  0  0  0  0  0  0  0
   -0.0451    3.3046    1.9929 C   0  0  0  0  0  0  0  0  0  0  0  0
   -1.0415    3.5286    2.3805 H   0  0  0  0  0  0  0  0  0  0  0  0
    0.6954    3.5023    2.7695 H   0  0  0  0  0  0  0  0  0  0  0  0
    0.1474    3.9536    1.1372 H   0  0  0  0  0  0  0  0  0  0  0  0
  5  6  2  0  0  0  0
  5  7  1  0  0  0  0
  2  3  1  0  0  0  0
  2  4  1  0  0  0  0
  2  5  1  0  0  0  0
  1  2  1  0  0  0  0
 24 25  2  0  0  0  0
 24 26  1  0  0  0  0
 20 21  1  0  0  0  0
 20 22  1  0  0  0  0
 20 23  1  0  0  0  0
 16 17  1  0  0  0  0
 16 18  1  0  0  0  0
 16 19  1  0  0  0  0
 14 15  1  0  0  0  0
 14 16  1  0  0  0  0
 14 20  1  0  0  0  0
 11 12  1  0  0  0  0
 11 13  1  0  0  0  0
 11 14  1  0  0  0  0
  9 10  1  0  0  0  0
  9 11  1  0  0  0  0
  9 24  1  0  0  0  0
  7  8  1  0  0  0  0
  7  9  1  0  0  0  0
 28 29  1  0  0  0  0
 28 30  1  0  0  0  0
 28 31  1  0  0  0  0
 26 27  1  0  0  0  0
 26 28  1  0  0  0  0
M  END
$$$$
default_name
  -OEChem-02102213163D

 31 30  0     1  0  0  0  0  0999 V2000
   -3.5895   -3.5013    1.1082 H   0  0  0  0  0  0  0  0  0  0  0  0
   -3.5145   -2.5363    0.6082 C   0  0  0  0  0  0  0  0  0  0  0  0
   -4.2285   -1.8413    1.0452 H   0  0  0  0  0  0  0  0  0  0  0  0
   -3.7155   -2.6583   -0.4538 H   0  0  0  0  0  0  0  0  0  0  0  0
   -2.1155   -1.9963    0.7922 C   0  0  0  0  0  0  0  0  0  0  0  0
   -1.2875   -2.6383    1.4252 O   0  0  0  0  0  0  0  0  0  0  0  0
   -1.8575   -0.8123    0.2402 N   0  0  0  0  0  0  0  0  0  0  0  0
   -2.6005   -0.3333   -0.2478 H   0  0  0  0  0  0  0  0  0  0  0  0
   -0.5675   -0.1203    0.3102 C   0  0  1  0  0  0  0  0  0  0  0  0
    0.0191   -0.5718    1.1110 H   0  0  0  0  0  0  0  0  0  0  0  0
    0.1724   -0.3238   -1.0286 C   0  0  0  0  0  0  0  0  0  0  0  0
   -0.5229   -0.1210   -1.8455 H   0  0  0  0  0  0  0  0  0  0  0  0
    0.9749    0.4149   -1.0862 H   0  0  0  0  0  0  0  0  0  0  0  0
    0.7878   -1.7180   -1.2482 C   0  0  0  0  0  0  0  0  0  0  0  0
    0.6069   -2.3423   -0.3732 H   0  0  0  0  0  0  0  0  0  0  0  0
    0.2145   -2.4160   -2.4850 C   0  0  0  0  0  0  0  0  0  0  0  0
    0.3736   -1.7954   -3.3678 H   0  0  0  0  0  0  0  0  0  0  0  0
    0.7125   -3.3752   -2.6290 H   0  0  0  0  0  0  0  0  0  0  0  0
   -0.8515   -2.5963   -2.3648 H   0  0  0  0  0  0  0  0  0  0  0  0
    2.2993   -1.5916   -1.4349 C   0  0  0  0  0  0  0  0  0  0  0  0
    2.7399   -1.1258   -0.5536 H   0  0  0  0  0  0  0  0  0  0  0  0
    2.7410   -2.5798   -1.5630 H   0  0  0  0  0  0  0  0  0  0  0  0
    2.5198   -0.9824   -2.3122 H   0  0  0  0  0  0  0  0  0  0  0  0
   -0.7793    1.3659    0.6455 C   0  0  0  0  0  0  0  0  0  0  0  0
   -1.6464    2.0125    0.0623 O   0  0  0  0  0  0  0  0  0  0  0  0
    0.0189    1.9059    1.5756 N   0  0  0  0  0  0  0  0  0  0  0  0
    0.7024    1.3094    2.0137 H   0  0  0  0  0  0  0  0  0  0  0  0
   -0.0451    3.3046    1.9929 C   0  0  0  0  0  0  0  0  0  0  0  0
   -1.0415    3.5286    2.3805 H   0  0  0  0  0  0  0  0  0  0  0  0
    0.6954    3.5023    2.7695 H   0  0  0  0  0  0  0  0  0  0  0  0
    0.1474    3.9536    1.1372 H   0  0  0  0  0  0  0  0  0  0  0  0
  5  6  2  0  0  0  0
  5  7  1  0  0  0  0
  2  3  1  0  0  0  0
  2  4  1  0  0  0  0
  2  5  1  0  0  0  0
  1  2  1  0  0  0  0
 24 25  2  0  0  0  0
 24 26  1  0  0  0  0
 20 21  1  0  0  0  0
 20 22  1  0  0  0  0
 20 23  1  0  0  0  0
 16 17  1  0  0  0  0
 16 18  1  0  0  0  0
 16 19  1  0  0  0  0
 14 15  1  0  0  0  0
 14 16  1  0  0  0  0
 14 20  1  0  0  0  0
 11 12  1  0  0  0  0
 11 13  1  0  0  0  0
 11 14  1  0  0  0  0
  9 10  1  0  0  0  0
  9 11  1  0  0  0  0
  9 24  1  0  0  0  0
  7  8  1  0  0  0  0
  7  9  1  0  0  0  0
 28 29  1  0  0  0  0
 28 30  1  0  0  0  0
 28 31  1  0  0  0  0
 26 27  1  0  0  0  0
 26 28  1  0  0  0  0
M  END
$$$$
default_name
  -OEChem-02102213163D

 31 30  0     1  0  0  0  0  0999 V2000
   -3.5895   -3.5013    1.1082 H   0  0  0  0  0  0  0  0  0  0  0  0
   -3.5145   -2.5363    0.6082 C   0  0  0  0  0  0  0  0  0  0  0  0
   -4.2285   -1.8413    1.0452 H   0  0  0  0  0  0  0  0  0  0  0  0
   -3.7155   -2.6583   -0.4538 H   0  0  0  0  0  0  0  0  0  0  0  0
   -2.1155   -1.9963    0.7922 C   0  0  0  0  0  0  0  0  0  0  0  0
   -1.2875   -2.6383    1.4252 O   0  0  0  0  0  0  0  0  0  0  0  0
   -1.8575   -0.8123    0.2402 N   0  0  0  0  0  0  0  0  0  0  0  0
   -2.6005   -0.3333   -0.2478 H   0  0  0  0  0  0  0  0  0  0  0  0
   -0.5675   -0.1203    0.3102 C   0  0  1  0  0  0  0  0  0  0  0  0
    0.0191   -0.5718    1.1110 H   0  0  0  0  0  0  0  0  0  0  0  0
    0.1724   -0.3238   -1.0286 C   0  0  0  0  0  0  0  0  0  0  0  0
   -0.5229   -0.1210   -1.8455 H   0  0  0  0  0  0  0  0  0  0  0  0
    0.9749    0.4149   -1.0862 H   0  0  0  0  0  0  0  0  0  0  0  0
    0.7878   -1.7180   -1.2482 C   0  0  0  0  0  0  0  0  0  0  0  0
    0.3900   -2.4162   -0.5117 H   0  0  0  0  0  0  0  0  0  0  0  0
    0.5060   -2.2610   -2.6522 C   0  0  0  0  0  0  0  0  0  0  0  0
    0.8845   -1.5646   -3.4016 H   0  0  0  0  0  0  0  0  0  0  0  0
    1.0001   -3.2245   -2.7792 H   0  0  0  0  0  0  0  0  0  0  0  0
   -0.5623   -2.3996   -2.8032 H   0  0  0  0  0  0  0  0  0  0  0  0
    2.3032   -1.6483   -1.0638 C   0  0  0  0  0  0  0  0  0  0  0  0
    2.5344   -1.2943   -0.0592 H   0  0  0  0  0  0  0  0  0  0  0  0
    2.7382   -2.6396   -1.1915 H   0  0  0  0  0  0  0  0  0  0  0  0
    2.7397   -0.9668   -1.7948 H   0  0  0  0  0  0  0  0  0  0  0  0
   -0.7793    1.3659    0.6455 C   0  0  0  0  0  0  0  0  0  0  0  0
   -1.6464    2.0125    0.0623 O   0  0  0  0  0  0  0  0  0  0  0  0
    0.0189    1.9059    1.5756 N   0  0  0  0  0  0  0  0  0  0  0  0
    0.7024    1.3094    2.0137 H   0  0  0  0  0  0  0  0  0  0  0  0
   -0.0451    3.3046    1.9929 C   0  0  0  0  0  0  0  0  0  0  0  0
   -1.0415    3.5286    2.3805 H   0  0  0  0  0  0  0  0  0  0  0  0
    0.6954    3.5023    2.7695 H   0  0  0  0  0  0  0  0  0  0  0  0
    0.1474    3.9536    1.1372 H   0  0  0  0  0  0  0  0  0  0  0  0
  5  6  2  0  0  0  0
  5  7  1  0  0  0  0
  2  3  1  0  0  0  0
  2  4  1  0  0  0  0
  2  5  1  0  0  0  0
  1  2  1  0  0  0  0
 24 25  2  0  0  0  0
 24 26  1  0  0  0  0
 20 21  1  0  0  0  0
 20 22  1  0  0  0  0
 20 23  1  0  0  0  0
 16 17  1  0  0  0  0
 16 18  1  0  0  0  0
 16 19  1  0  0  0  0
 14 15  1  0  0  0  0
 14 16  1  0  0  0  0
 14 20  1  0  0  0  0
 11 12  1  0  0  0  0
 11 13  1  0  0  0  0
 11 14  1  0  0  0  0
  9 10  1  0  0  0  0
  9 11  1  0  0  0  0
  9 24  1  0  0  0  0
  7  8  1  0  0  0  0
  7  9  1  0  0  0  0
 28 29  1  0  0  0  0
 28 30  1  0  0  0  0
 28 31  1  0  0  0  0
 26 27  1  0  0  0  0
 26 28  1  0  0  0  0
M  END
$$$$
default_name
  -OEChem-02102213163D

 31 30  0     1  0  0  0  0  0999 V2000
   -3.5895   -3.5013    1.1082 H   0  0  0  0  0  0  0  0  0  0  0  0
   -3.5145   -2.5363    0.6082 C   0  0  0  0  0  0  0  0  0  0  0  0
   -4.2285   -1.8413    1.0452 H   0  0  0  0  0  0  0  0  0  0  0  0
   -3.7155   -2.6583   -0.4538 H   0  0  0  0  0  0  0  0  0  0  0  0
   -2.1155   -1.9963    0.7922 C   0  0  0  0  0  0  0  0  0  0  0  0
   -1.2875   -2.6383    1.4252 O   0  0  0  0  0  0  0  0  0  0  0  0
   -1.8575   -0.8123    0.2402 N   0  0  0  0  0  0  0  0  0  0  0  0
   -2.6005   -0.3333   -0.2478 H   0  0  0  0  0  0  0  0  0  0  0  0
   -0.5675   -0.1203    0.3102 C   0  0  1  0  0  0  0  0  0  0  0  0
    0.0191   -0.5718    1.1110 H   0  0  0  0  0  0  0  0  0  0  0  0
    0.1724   -0.3238   -1.0286 C   0  0  0  0  0  0  0  0  0  0  0  0
   -0.5229   -0.1210   -1.8455 H   0  0  0  0  0  0  0  0  0  0  0  0
    0.9749    0.4149   -1.0862 H   0  0  0  0  0  0  0  0  0  0  0  0
    0.7878   -1.7180   -1.2482 C   0  0  0  0  0  0  0  0  0  0  0  0
    0.2102   -2.4653   -0.7041 H   0  0  0  0  0  0  0  0  0  0  0  0
    0.8325   -2.1048   -2.7294 C   0  0  0  0  0  0  0  0  0  0  0  0
    1.3943   -1.3570   -3.2907 H   0  0  0  0  0  0  0  0  0  0  0  0
    1.3188   -3.0741   -2.8412 H   0  0  0  0  0  0  0  0  0  0  0  0
   -0.1730   -2.1749   -3.1386 H   0  0  0  0  0  0  0  0  0  0  0  0
    2.2180   -1.7417   -0.7102 C   0  0  0  0  0  0  0  0  0  0  0  0
    2.2139   -1.5007    0.3528 H   0  0  0  0  0  0  0  0  0  0  0  0
    2.6463   -2.7356   -0.8395 H   0  0  0  0  0  0  0  0  0  0  0  0
    2.8314   -1.0134   -1.2419 H   0  0  0  0  0  0  0  0  0  0  0  0
   -0.7793    1.3659    0.6455 C   0  0  0  0  0  0  0  0  0  0  0  0
   -1.6464    2.0125    0.0623 O   0  0  0  0  0  0  0  0  0  0  0  0
    0.0189    1.9059    1.5756 N   0  0  0  0  0  0  0  0  0  0  0  0
    0.7024    1.3094    2.0137 H   0  0  0  0  0  0  0  0  0  0  0  0
   -0.0451    3.3046    1.9929 C   0  0  0  0  0  0  0  0  0  0  0  0
   -1.0415    3.5286    2.3805 H   0  0  0  0  0  0  0  0  0  0  0  0
    0.6954    3.5023    2.7695 H   0  0  0  0  0  0  0  0  0  0  0  0
    0.1474    3.9536    1.1372 H   0  0  0  0  0  0  0  0  0  0  0  0
  5  6  2  0  0  0  0
  5  7  1  0  0  0  0
  2  3  1  0  0  0  0
  2  4  1  0  0  0  0
  2  5  1  0  0  0  0
  1  2  1  0  0  0  0
 24 25  2  0  0  0  0
 24 26  1  0  0  0  0
 20 21  1  0  0  0  0
 20 22  1  0  0  0  0
 20 23  1  0  0  0  0
 16 17  1  0  0  0  0
 16 18  1  0  0  0  0
 16 19  1  0  0  0  0
 14 15  1  0  0  0  0
 14 16  1  0  0  0  0
 14 20  1  0  0  0  0
 11 12  1  0  0  0  0
 11 13  1  0  0  0  0
 11 14  1  0  0  0  0
  9 10  1  0  0  0  0
  9 11  1  0  0  0  0
  9 24  1  0  0  0  0
  7  8  1  0  0  0  0
  7  9  1  0  0  0  0
 28 29  1  0  0  0  0
 28 30  1  0  0  0  0
 28 31  1  0  0  0  0
 26 27  1  0  0  0  0
 26 28  1  0  0  0  0
M  END
$$$$
default_name
  -OEChem-02102213163D

 31 30  0     1  0  0  0  0  0999 V2000
   -3.5895   -3.5013    1.1082 H   0  0  0  0  0  0  0  0  0  0  0  0
   -3.5145   -2.5363    0.6082 C   0  0  0  0  0  0  0  0  0  0  0  0
   -4.2285   -1.8413    1.0452 H   0  0  0  0  0  0  0  0  0  0  0  0
   -3.7155   -2.6583   -0.4538 H   0  0  0  0  0  0  0  0  0  0  0  0
   -2.1155   -1.9963    0.7922 C   0  0  0  0  0  0  0  0  0  0  0  0
   -1.2875   -2.6383    1.4252 O   0  0  0  0  0  0  0  0  0  0  0  0
   -1.8575   -0.8123    0.2402 N   0  0  0  0  0  0  0  0  0  0  0  0
   -2.6005   -0.3333   -0.2478 H   0  0  0  0  0  0  0  0  0  0  0  0
   -0.5675   -0.1203    0.3102 C   0  0  1  0  0  0  0  0  0  0  0  0
    0.0191   -0.5718    1.1110 H   0  0  0  0  0  0  0  0  0  0  0  0
    0.1724   -0.3238   -1.0286 C   0  0  0  0  0  0  0  0  0  0  0  0
   -0.5229   -0.1210   -1.8455 H   0  0  0  0  0  0  0  0  0  0  0  0
    0.9749    0.4149   -1.0862 H   0  0  0  0  0  0  0  0  0  0  0  0
    0.7878   -1.7180   -1.2482 C   0  0  0  0  0  0  0  0  0  0  0  0
    0.0798   -2.4861   -0.9371 H   0  0  0  0  0  0  0  0  0  0  0  0
    1.1717   -1.9579   -2.7112 C   0  0  0  0  0  0  0  0  0  0  0  0
    1.8685   -1.1868   -3.0427 H   0  0  0  0  0  0  0  0  0  0  0  0
    1.6467   -2.9342   -2.8109 H   0  0  0  0  0  0  0  0  0  0  0  0
    0.2900   -1.9376   -3.3481 H   0  0  0  0  0  0  0  0  0  0  0  0
    2.0493   -1.8652   -0.3983 C   0  0  0  0  0  0  0  0  0  0  0  0
    1.8001   -1.7309    0.6542 H   0  0  0  0  0  0  0  0  0  0  0  0
    2.4715   -2.8614   -0.5309 H   0  0  0  0  0  0  0  0  0  0  0  0
    2.7887   -1.1190   -0.6912 H   0  0  0  0  0  0  0  0  0  0  0  0
   -0.7793    1.3659    0.6455 C   0  0  0  0  0  0  0  0  0  0  0  0
   -1.6464    2.0125    0.0623 O   0  0  0  0  0  0  0  0  0  0  0  0
    0.0189    1.9059    1.5756 N   0  0  0  0  0  0  0  0  0  0  0  0
    0.7024    1.3094    2.0137 H   0  0  0  0  0  0  0  0  0  0  0  0
   -0.0451    3.3046    1.9929 C   0  0  0  0  0  0  0  0  0  0  0  0
   -1.0415    3.5286    2.3805 H   0  0  0  0  0  0  0  0  0  0  0  0
    0.6954    3.5023    2.7695 H   0  0  0  0  0  0  0  0  0  0  0  0
    0.1474    3.9536    1.1372 H   0  0  0  0  0  0  0  0  0  0  0  0
  5  6  2  0  0  0  0
  5  7  1  0  0  0  0
  2  3  1  0  0  0  0
  2  4  1  0  0  0  0
  2  5  1  0  0  0  0
  1  2  1  0  0  0  0
 24 25  2  0  0  0  0
 24 26  1  0  0  0  0
 20 21  1  0  0  0  0
 20 22  1  0  0  0  0
 20 23  1  0  0  0  0
 16 17  1  0  0  0  0
 16 18  1  0  0  0  0
 16 19  1  0  0  0  0
 14 15  1  0  0  0  0
 14 16  1  0  0  0  0
 14 20  1  0  0  0  0
 11 12  1  0  0  0  0
 11 13  1  0  0  0  0
 11 14  1  0  0  0  0
  9 10  1  0  0  0  0
  9 11  1  0  0  0  0
  9 24  1  0  0  0  0
  7  8  1  0  0  0  0
  7  9  1  0  0  0  0
 28 29  1  0  0  0  0
 28 30  1  0  0  0  0
 28 31  1  0  0  0  0
 26 27  1  0  0  0  0
 26 28  1  0  0  0  0
M  END
$$$$
default_name
  -OEChem-02102213163D

 31 30  0     1  0  0  0  0  0999 V2000
   -3.5895   -3.5013    1.1082 H   0  0  0  0  0  0  0  0  0  0  0  0
   -3.5145   -2.5363    0.6082 C   0  0  0  0  0  0  0  0  0  0  0  0
   -4.2285   -1.8413    1.0452 H   0  0  0  0  0  0  0  0  0  0  0  0
   -3.7155   -2.6583   -0.4538 H   0  0  0  0  0  0  0  0  0  0  0  0
   -2.1155   -1.9963    0.7922 C   0  0  0  0  0  0  0  0  0  0  0  0
   -1.2875   -2.6383    1.4252 O   0  0  0  0  0  0  0  0  0  0  0  0
   -1.8575   -0.8123    0.2402 N   0  0  0  0  0  0  0  0  0  0  0  0
   -2.6005   -0.3333   -0.2478 H   0  0  0  0  0  0  0  0  0  0  0  0
   -0.5675   -0.1203    0.3102 C   0  0  1  0  0  0  0  0  0  0  0  0
    0.0191   -0.5718    1.1110 H   0  0  0  0  0  0  0  0  0  0  0  0
    0.1724   -0.3238   -1.0286 C   0  0  0  0  0  0  0  0  0  0  0  0
   -0.4201    0.1281   -1.8265 H   0  0  0  0  0  0  0  0  0  0  0  0
    1.1209    0.2151   -0.9752 H   0  0  0  0  0  0  0  0  0  0  0  0
    0.4722   -1.7845   -1.4126 C   0  0  0  0  0  0  0  0  0  0  0  0
   -0.4590   -2.3479   -1.4724 H   0  0  0  0  0  0  0  0  0  0  0  0
    1.2065   -1.8923   -2.7521 C   0  0  0  0  0  0  0  0  0  0  0  0
    2.1340   -1.3195   -2.7134 H   0  0  0  0  0  0  0  0  0  0  0  0
    1.4409   -2.9367   -2.9593 H   0  0  0  0  0  0  0  0  0  0  0  0
    0.5872   -1.5116   -3.5614 H   0  0  0  0  0  0  0  0  0  0  0  0
    1.3482   -2.4308   -0.3400 C   0  0  0  0  0  0  0  0  0  0  0  0
    0.8356   -2.3972    0.6213 H   0  0  0  0  0  0  0  0  0  0  0  0
    1.5390   -3.4731   -0.5957 H   0  0  0  0  0  0  0  0  0  0  0  0
    2.2976   -1.9002   -0.2604 H   0  0  0  0  0  0  0  0  0  0  0  0
   -0.7793    1.3659    0.6455 C   0  0  0  0  0  0  0  0  0  0  0  0
   -1.6464    2.0125    0.0623 O   0  0  0  0  0  0  0  0  0  0  0  0
    0.0189    1.9059    1.5756 N   0  0  0  0  0  0  0  0  0  0  0  0
    0.7024    1.3094    2.0137 H   0  0  0  0  0  0  0  0  0  0  0  0
   -0.0451    3.3046    1.9929 C   0  0  0  0  0  0  0  0  0  0  0  0
   -1.0415    3.5286    2.3805 H   0  0  0  0  0  0  0  0  0  0  0  0
    0.6954    3.5023    2.7695 H   0  0  0  0  0  0  0  0  0  0  0  0
    0.1474    3.9536    1.1372 H   0  0  0  0  0  0  0  0  0  0  0  0
  5  6  2  0  0  0  0
  5  7  1  0  0  0  0
  2  3  1  0  0  0  0
  2  4  1  0  0  0  0
  2  5  1  0  0  0  0
  1  2  1  0  0  0  0
 24 25  2  0  0  0  0
 24 26  1  0  0  0  0
 20 21  1  0  0  0  0
 20 22  1  0  0  0  0
 20 23  1  0  0  0  0
 16 17  1  0  0  0  0
 16 18  1  0  0  0  0
 16 19  1  0  0  0  0
 14 15  1  0  0  0  0
 14 16  1  0  0  0  0
 14 20  1  0  0  0  0
 11 12  1  0  0  0  0
 11 13  1  0  0  0  0
 11 14  1  0  0  0  0
  9 10  1  0  0  0  0
  9 11  1  0  0  0  0
  9 24  1  0  0  0  0
  7  8  1  0  0  0  0
  7  9  1  0  0  0  0
 28 29  1  0  0  0  0
 28 30  1  0  0  0  0
 28 31  1  0  0  0  0
 26 27  1  0  0  0  0
 26 28  1  0  0  0  0
M  END
$$$$
default_name
  -OEChem-02102213163D

 31 30  0     1  0  0  0  0  0999 V2000
   -3.5895   -3.5013    1.1082 H   0  0  0  0  0  0  0  0  0  0  0  0
   -3.5145   -2.5363    0.6082 C   0  0  0  0  0  0  0  0  0  0  0  0
   -4.2285   -1.8413    1.0452 H   0  0  0  0  0  0  0  0  0  0  0  0
   -3.7155   -2.6583   -0.4538 H   0  0  0  0  0  0  0  0  0  0  0  0
   -2.1155   -1.9963    0.7922 C   0  0  0  0  0  0  0  0  0  0  0  0
   -1.2875   -2.6383    1.4252 O   0  0  0  0  0  0  0  0  0  0  0  0
   -1.8575   -0.8123    0.2402 N   0  0  0  0  0  0  0  0  0  0  0  0
   -2.6005   -0.3333   -0.2478 H   0  0  0  0  0  0  0  0  0  0  0  0
   -0.5675   -0.1203    0.3102 C   0  0  1  0  0  0  0  0  0  0  0  0
    0.0191   -0.5718    1.1110 H   0  0  0  0  0  0  0  0  0  0  0  0
    0.1724   -0.3238   -1.0286 C   0  0  0  0  0  0  0  0  0  0  0  0
   -0.4201    0.1281   -1.8265 H   0  0  0  0  0  0  0  0  0  0  0  0
    1.1209    0.2151   -0.9752 H   0  0  0  0  0  0  0  0  0  0  0  0
    0.4722   -1.7845   -1.4126 C   0  0  0  0  0  0  0  0  0  0  0  0
   -0.4465   -2.2775   -1.7305 H   0  0  0  0  0  0  0  0  0  0  0  0
    1.5072   -1.8873   -2.5366 C   0  0  0  0  0  0  0  0  0  0  0  0
    2.4281   -1.3837   -2.2394 H   0  0  0  0  0  0  0  0  0  0  0  0
    1.7243   -2.9359   -2.7410 H   0  0  0  0  0  0  0  0  0  0  0  0
    1.1305   -1.4297   -3.4488 H   0  0  0  0  0  0  0  0  0  0  0  0
    1.0167   -2.5361   -0.1984 C   0  0  0  0  0  0  0  0  0  0  0  0
    0.2853   -2.5069    0.6091 H   0  0  0  0  0  0  0  0  0  0  0  0
    1.2037   -3.5775   -0.4604 H   0  0  0  0  0  0  0  0  0  0  0  0
    1.9462   -2.0778    0.1411 H   0  0  0  0  0  0  0  0  0  0  0  0
   -0.7793    1.3659    0.6455 C   0  0  0  0  0  0  0  0  0  0  0  0
   -1.6464    2.0125    0.0623 O   0  0  0  0  0  0  0  0  0  0  0  0
    0.0189    1.9059    1.5756 N   0  0  0  0  0  0  0  0  0  0  0  0
    0.7024    1.3094    2.0137 H   0  0  0  0  0  0  0  0  0  0  0  0
   -0.0451    3.3046    1.9929 C   0  0  0  0  0  0  0  0  0  0  0  0
   -1.0415    3.5286    2.3805 H   0  0  0  0  0  0  0  0  0  0  0  0
    0.6954    3.5023    2.7695 H   0  0  0  0  0  0  0  0  0  0  0  0
    0.1474    3.9536    1.1372 H   0  0  0  0  0  0  0  0  0  0  0  0
  5  6  2  0  0  0  0
  5  7  1  0  0  0  0
  2  3  1  0  0  0  0
  2  4  1  0  0  0  0
  2  5  1  0  0  0  0
  1  2  1  0  0  0  0
 24 25  2  0  0  0  0
 24 26  1  0  0  0  0
 20 21  1  0  0  0  0
 20 22  1  0  0  0  0
 20 23  1  0  0  0  0
 16 17  1  0  0  0  0
 16 18  1  0  0  0  0
 16 19  1  0  0  0  0
 14 15  1  0  0  0  0
 14 16  1  0  0  0  0
 14 20  1  0  0  0  0
 11 12  1  0  0  0  0
 11 13  1  0  0  0  0
 11 14  1  0  0  0  0
  9 10  1  0  0  0  0
  9 11  1  0  0  0  0
  9 24  1  0  0  0  0
  7  8  1  0  0  0  0
  7  9  1  0  0  0  0
 28 29  1  0  0  0  0
 28 30  1  0  0  0  0
 28 31  1  0  0  0  0
 26 27  1  0  0  0  0
 26 28  1  0  0  0  0
M  END
$$$$
default_name
  -OEChem-02102213163D

 31 30  0     1  0  0  0  0  0999 V2000
   -3.5895   -3.5013    1.1082 H   0  0  0  0  0  0  0  0  0  0  0  0
   -3.5145   -2.5363    0.6082 C   0  0  0  0  0  0  0  0  0  0  0  0
   -4.2285   -1.8413    1.0452 H   0  0  0  0  0  0  0  0  0  0  0  0
   -3.7155   -2.6583   -0.4538 H   0  0  0  0  0  0  0  0  0  0  0  0
   -2.1155   -1.9963    0.7922 C   0  0  0  0  0  0  0  0  0  0  0  0
   -1.2875   -2.6383    1.4252 O   0  0  0  0  0  0  0  0  0  0  0  0
   -1.8575   -0.8123    0.2402 N   0  0  0  0  0  0  0  0  0  0  0  0
   -2.6005   -0.3333   -0.2478 H   0  0  0  0  0  0  0  0  0  0  0  0
   -0.5675   -0.1203    0.3102 C   0  0  1  0  0  0  0  0  0  0  0  0
    0.0191   -0.5718    1.1110 H   0  0  0  0  0  0  0  0  0  0  0  0
    0.1724   -0.3238   -1.0286 C   0  0  0  0  0  0  0  0  0  0  0  0
   -0.4201    0.1281   -1.8265 H   0  0  0  0  0  0  0  0  0  0  0  0
    1.1209    0.2151   -0.9752 H   0  0  0  0  0  0  0  0  0  0  0  0
    0.4722   -1.7845   -1.4126 C   0  0  0  0  0  0  0  0  0  0  0  0
   -0.3665   -2.1973   -1.9732 H   0  0  0  0  0  0  0  0  0  0  0  0
    1.7451   -1.9126   -2.2542 C   0  0  0  0  0  0  0  0  0  0  0  0
    2.5917   -1.4886   -1.7125 H   0  0  0  0  0  0  0  0  0  0  0  0
    1.9446   -2.9644   -2.4605 H   0  0  0  0  0  0  0  0  0  0  0  0
    1.6329   -1.3913   -3.2024 H   0  0  0  0  0  0  0  0  0  0  0  0
    0.6550   -2.6235   -0.1484 C   0  0  0  0  0  0  0  0  0  0  0  0
   -0.2504   -2.5768    0.4567 H   0  0  0  0  0  0  0  0  0  0  0  0
    0.8400   -3.6635   -0.4172 H   0  0  0  0  0  0  0  0  0  0  0  0
    1.4968   -2.2470    0.4338 H   0  0  0  0  0  0  0  0  0  0  0  0
   -0.7793    1.3659    0.6455 C   0  0  0  0  0  0  0  0  0  0  0  0
   -1.6464    2.0125    0.0623 O   0  0  0  0  0  0  0  0  0  0  0  0
    0.0189    1.9059    1.5756 N   0  0  0  0  0  0  0  0  0  0  0  0
    0.7024    1.3094    2.0137 H   0  0  0  0  0  0  0  0  0  0  0  0
   -0.0451    3.3046    1.9929 C   0  0  0  0  0  0  0  0  0  0  0  0
   -1.0415    3.5286    2.3805 H   0  0  0  0  0  0  0  0  0  0  0  0
    0.6954    3.5023    2.7695 H   0  0  0  0  0  0  0  0  0  0  0  0
    0.1474    3.9536    1.1372 H   0  0  0  0  0  0  0  0  0  0  0  0
  5  6  2  0  0  0  0
  5  7  1  0  0  0  0
  2  3  1  0  0  0  0
  2  4  1  0  0  0  0
  2  5  1  0  0  0  0
  1  2  1  0  0  0  0
 24 25  2  0  0  0  0
 24 26  1  0  0  0  0
 20 21  1  0  0  0  0
 20 22  1  0  0  0  0
 20 23  1  0  0  0  0
 16 17  1  0  0  0  0
 16 18  1  0  0  0  0
 16 19  1  0  0  0  0
 14 15  1  0  0  0  0
 14 16  1  0  0  0  0
 14 20  1  0  0  0  0
 11 12  1  0  0  0  0
 11 13  1  0  0  0  0
 11 14  1  0  0  0  0
  9 10  1  0  0  0  0
  9 11  1  0  0  0  0
  9 24  1  0  0  0  0
  7  8  1  0  0  0  0
  7  9  1  0  0  0  0
 28 29  1  0  0  0  0
 28 30  1  0  0  0  0
 28 31  1  0  0  0  0
 26 27  1  0  0  0  0
 26 28  1  0  0  0  0
M  END
$$$$
default_name
  -OEChem-02102213163D

 31 30  0     1  0  0  0  0  0999 V2000
   -3.5895   -3.5013    1.1082 H   0  0  0  0  0  0  0  0  0  0  0  0
   -3.5145   -2.5363    0.6082 C   0  0  0  0  0  0  0  0  0  0  0  0
   -4.2285   -1.8413    1.0452 H   0  0  0  0  0  0  0  0  0  0  0  0
   -3.7155   -2.6583   -0.4538 H   0  0  0  0  0  0  0  0  0  0  0  0
   -2.1155   -1.9963    0.7922 C   0  0  0  0  0  0  0  0  0  0  0  0
   -1.2875   -2.6383    1.4252 O   0  0  0  0  0  0  0  0  0  0  0  0
   -1.8575   -0.8123    0.2402 N   0  0  0  0  0  0  0  0  0  0  0  0
   -2.6005   -0.3333   -0.2478 H   0  0  0  0  0  0  0  0  0  0  0  0
   -0.5675   -0.1203    0.3102 C   0  0  1  0  0  0  0  0  0  0  0  0
    0.0191   -0.5718    1.1110 H   0  0  0  0  0  0  0  0  0  0  0  0
    0.1724   -0.3238   -1.0286 C   0  0  0  0  0  0  0  0  0  0  0  0
   -0.4201    0.1281   -1.8265 H   0  0  0  0  0  0  0  0  0  0  0  0
    1.1209    0.2151   -0.9752 H   0  0  0  0  0  0  0  0  0  0  0  0
    0.4722   -1.7845   -1.4126 C   0  0  0  0  0  0  0  0  0  0  0  0
   -0.2245   -2.1128   -2.1839 H   0  0  0  0  0  0  0  0  0  0  0  0
    1.9040   -1.9667   -1.9244 C   0  0  0  0  0  0  0  0  0  0  0  0
    2.6136   -1.6270   -1.1687 H   0  0  0  0  0  0  0  0  0  0  0  0
    2.0866   -3.0203   -2.1369 H   0  0  0  0  0  0  0  0  0  0  0  0
    2.0601   -1.3991   -2.8392 H   0  0  0  0  0  0  0  0  0  0  0  0
    0.2876   -2.6871   -0.1933 C   0  0  0  0  0  0  0  0  0  0  0  0
   -0.7349   -2.6021    0.1745 H   0  0  0  0  0  0  0  0  0  0  0  0
    0.4724   -3.7253   -0.4692 H   0  0  0  0  0  0  0  0  0  0  0  0
    0.9799   -2.3962    0.5977 H   0  0  0  0  0  0  0  0  0  0  0  0
   -0.7793    1.3659    0.6455 C   0  0  0  0  0  0  0  0  0  0  0  0
   -1.6464    2.0125    0.0623 O   0  0  0  0  0  0  0  0  0  0  0  0
    0.0189    1.9059    1.5756 N   0  0  0  0  0  0  0  0  0  0  0  0
    0.7024    1.3094    2.0137 H   0  0  0  0  0  0  0  0  0  0  0  0
   -0.0451    3.3046    1.9929 C   0  0  0  0  0  0  0  0  0  0  0  0
   -1.0415    3.5286    2.3805 H   0  0  0  0  0  0  0  0  0  0  0  0
    0.6954    3.5023    2.7695 H   0  0  0  0  0  0  0  0  0  0  0  0
    0.1474    3.9536    1.1372 H   0  0  0  0  0  0  0  0  0  0  0  0
  5  6  2  0  0  0  0
  5  7  1  0  0  0  0
  2  3  1  0  0  0  0
  2  4  1  0  0  0  0
  2  5  1  0  0  0  0
  1  2  1  0  0  0  0
 24 25  2  0  0  0  0
 24 26  1  0  0  0  0
 20 21  1  0  0  0  0
 20 22  1  0  0  0  0
 20 23  1  0  0  0  0
 16 17  1  0  0  0  0
 16 18  1  0  0  0  0
 16 19  1  0  0  0  0
 14 15  1  0  0  0  0
 14 16  1  0  0  0  0
 14 20  1  0  0  0  0
 11 12  1  0  0  0  0
 11 13  1  0  0  0  0
 11 14  1  0  0  0  0
  9 10  1  0  0  0  0
  9 11  1  0  0  0  0
  9 24  1  0  0  0  0
  7  8  1  0  0  0  0
  7  9  1  0  0  0  0
 28 29  1  0  0  0  0
 28 30  1  0  0  0  0
 28 31  1  0  0  0  0
 26 27  1  0  0  0  0
 26 28  1  0  0  0  0
M  END
$$$$
default_name
  -OEChem-02102213163D

 31 30  0     1  0  0  0  0  0999 V2000
   -3.5895   -3.5013    1.1082 H   0  0  0  0  0  0  0  0  0  0  0  0
   -3.5145   -2.5363    0.6082 C   0  0  0  0  0  0  0  0  0  0  0  0
   -4.2285   -1.8413    1.0452 H   0  0  0  0  0  0  0  0  0  0  0  0
   -3.7155   -2.6583   -0.4538 H   0  0  0  0  0  0  0  0  0  0  0  0
   -2.1155   -1.9963    0.7922 C   0  0  0  0  0  0  0  0  0  0  0  0
   -1.2875   -2.6383    1.4252 O   0  0  0  0  0  0  0  0  0  0  0  0
   -1.8575   -0.8123    0.2402 N   0  0  0  0  0  0  0  0  0  0  0  0
   -2.6005   -0.3333   -0.2478 H   0  0  0  0  0  0  0  0  0  0  0  0
   -0.5675   -0.1203    0.3102 C   0  0  1  0  0  0  0  0  0  0  0  0
    0.0191   -0.5718    1.1110 H   0  0  0  0  0  0  0  0  0  0  0  0
    0.1724   -0.3238   -1.0286 C   0  0  0  0  0  0  0  0  0  0  0  0
   -0.4201    0.1281   -1.8265 H   0  0  0  0  0  0  0  0  0  0  0  0
    1.1209    0.2151   -0.9752 H   0  0  0  0  0  0  0  0  0  0  0  0
    0.4722   -1.7845   -1.4126 C   0  0  0  0  0  0  0  0  0  0  0  0
   -0.0301   -2.0297   -2.3484 H   0  0  0  0  0  0  0  0  0  0  0  0
    1.9730   -2.0458   -1.5695 C   0  0  0  0  0  0  0  0  0  0  0  0
    2.4923   -1.7896   -0.6451 H   0  0  0  0  0  0  0  0  0  0  0  0
    2.1407   -3.0998   -1.7923 H   0  0  0  0  0  0  0  0  0  0  0  0
    2.3832   -1.4525   -2.3838 H   0  0  0  0  0  0  0  0  0  0  0  0
   -0.0603   -2.7225   -0.3300 C   0  0  0  0  0  0  0  0  0  0  0  0
   -1.1352   -2.5810   -0.2184 H   0  0  0  0  0  0  0  0  0  0  0  0
    0.1262   -3.7586   -0.6127 H   0  0  0  0  0  0  0  0  0  0  0  0
    0.4307   -2.5152    0.6215 H   0  0  0  0  0  0  0  0  0  0  0  0
   -0.7793    1.3659    0.6455 C   0  0  0  0  0  0  0  0  0  0  0  0
   -1.6464    2.0125    0.0623 O   0  0  0  0  0  0  0  0  0  0  0  0
    0.0189    1.9059    1.5756 N   0  0  0  0  0  0  0  0  0  0  0  0
    0.7024    1.3094    2.0137 H   0  0  0  0  0  0  0  0  0  0  0  0
   -0.0451    3.3046    1.9929 C   0  0  0  0  0  0  0  0  0  0  0  0
   -1.0415    3.5286    2.3805 H   0  0  0  0  0  0  0  0  0  0  0  0
    0.6954    3.5023    2.7695 H   0  0  0  0  0  0  0  0  0  0  0  0
    0.1474    3.9536    1.1372 H   0  0  0  0  0  0  0  0  0  0  0  0
  5  6  2  0  0  0  0
  5  7  1  0  0  0  0
  2  3  1  0  0  0  0
  2  4  1  0  0  0  0
  2  5  1  0  0  0  0
  1  2  1  0  0  0  0
 24 25  2  0  0  0  0
 24 26  1  0  0  0  0
 20 21  1  0  0  0  0
 20 22  1  0  0  0  0
 20 23  1  0  0  0  0
 16 17  1  0  0  0  0
 16 18  1  0  0  0  0
 16 19  1  0  0  0  0
 14 15  1  0  0  0  0
 14 16  1  0  0  0  0
 14 20  1  0  0  0  0
 11 12  1  0  0  0  0
 11 13  1  0  0  0  0
 11 14  1  0  0  0  0
  9 10  1  0  0  0  0
  9 11  1  0  0  0  0
  9 24  1  0  0  0  0
  7  8  1  0  0  0  0
  7  9  1  0  0  0  0
 28 29  1  0  0  0  0
 28 30  1  0  0  0  0
 28 31  1  0  0  0  0
 26 27  1  0  0  0  0
 26 28  1  0  0  0  0
M  END
$$$$
default_name
  -OEChem-02102213163D

 31 30  0     1  0  0  0  0  0999 V2000
   -3.5895   -3.5013    1.1082 H   0  0  0  0  0  0  0  0  0  0  0  0
   -3.5145   -2.5363    0.6082 C   0  0  0  0  0  0  0  0  0  0  0  0
   -4.2285   -1.8413    1.0452 H   0  0  0  0  0  0  0  0  0  0  0  0
   -3.7155   -2.6583   -0.4538 H   0  0  0  0  0  0  0  0  0  0  0  0
   -2.1155   -1.9963    0.7922 C   0  0  0  0  0  0  0  0  0  0  0  0
   -1.2875   -2.6383    1.4252 O   0  0  0  0  0  0  0  0  0  0  0  0
   -1.8575   -0.8123    0.2402 N   0  0  0  0  0  0  0  0  0  0  0  0
   -2.6005   -0.3333   -0.2478 H   0  0  0  0  0  0  0  0  0  0  0  0
   -0.5675   -0.1203    0.3102 C   0  0  1  0  0  0  0  0  0  0  0  0
    0.0191   -0.5718    1.1110 H   0  0  0  0  0  0  0  0  0  0  0  0
    0.1724   -0.3238   -1.0286 C   0  0  0  0  0  0  0  0  0  0  0  0
   -0.4201    0.1281   -1.8265 H   0  0  0  0  0  0  0  0  0  0  0  0
    1.1209    0.2151   -0.9752 H   0  0  0  0  0  0  0  0  0  0  0  0
    0.4722   -1.7845   -1.4126 C   0  0  0  0  0  0  0  0  0  0  0  0
    0.2034   -1.9536   -2.4553 H   0  0  0  0  0  0  0  0  0  0  0  0
    1.9473   -2.1446   -1.2138 C   0  0  0  0  0  0  0  0  0  0  0  0
    2.2361   -1.9651   -0.1773 H   0  0  0  0  0  0  0  0  0  0  0  0
    2.1033   -3.1974   -1.4501 H   0  0  0  0  0  0  0  0  0  0  0  0
    2.5799   -1.5478   -1.8673 H   0  0  0  0  0  0  0  0  0  0  0  0
   -0.3650   -2.7275   -0.5493 C   0  0  0  0  0  0  0  0  0  0  0  0
   -1.4241   -2.5150   -0.6951 H   0  0  0  0  0  0  0  0  0  0  0  0
   -0.1751   -3.7612   -0.8380 H   0  0  0  0  0  0  0  0  0  0  0  0
   -0.1132   -2.5959    0.5036 H   0  0  0  0  0  0  0  0  0  0  0  0
   -0.7793    1.3659    0.6455 C   0  0  0  0  0  0  0  0  0  0  0  0
   -1.6464    2.0125    0.0623 O   0  0  0  0  0  0  0  0  0  0  0  0
    0.0189    1.9059    1.5756 N   0  0  0  0  0  0  0  0  0  0  0  0
    0.7024    1.3094    2.0137 H   0  0  0  0  0  0  0  0  0  0  0  0
   -0.0451    3.3046    1.9929 C   0  0  0  0  0  0  0  0  0  0  0  0
   -1.0415    3.5286    2.3805 H   0  0  0  0  0  0  0  0  0  0  0  0
    0.6954    3.5023    2.7695 H   0  0  0  0  0  0  0  0  0  0  0  0
    0.1474    3.9536    1.1372 H   0  0  0  0  0  0  0  0  0  0  0  0
  5  6  2  0  0  0  0
  5  7  1  0  0  0  0
  2  3  1  0  0  0  0
  2  4  1  0  0  0  0
  2  5  1  0  0  0  0
  1  2  1  0  0  0  0
 24 25  2  0  0  0  0
 24 26  1  0  0  0  0
 20 21  1  0  0  0  0
 20 22  1  0  0  0  0
 20 23  1  0  0  0  0
 16 17  1  0  0  0  0
 16 18  1  0  0  0  0
 16 19  1  0  0  0  0
 14 15  1  0  0  0  0
 14 16  1  0  0  0  0
 14 20  1  0  0  0  0
 11 12  1  0  0  0  0
 11 13  1  0  0  0  0
 11 14  1  0  0  0  0
  9 10  1  0  0  0  0
  9 11  1  0  0  0  0
  9 24  1  0  0  0  0
  7  8  1  0  0  0  0
  7  9  1  0  0  0  0
 28 29  1  0  0  0  0
 28 30  1  0  0  0  0
 28 31  1  0  0  0  0
 26 27  1  0  0  0  0
 26 28  1  0  0  0  0
M  END
$$$$
default_name
  -OEChem-02102213163D

 31 30  0     1  0  0  0  0  0999 V2000
   -3.5895   -3.5013    1.1082 H   0  0  0  0  0  0  0  0  0  0  0  0
   -3.5145   -2.5363    0.6082 C   0  0  0  0  0  0  0  0  0  0  0  0
   -4.2285   -1.8413    1.0452 H   0  0  0  0  0  0  0  0  0  0  0  0
   -3.7155   -2.6583   -0.4538 H   0  0  0  0  0  0  0  0  0  0  0  0
   -2.1155   -1.9963    0.7922 C   0  0  0  0  0  0  0  0  0  0  0  0
   -1.2875   -2.6383    1.4252 O   0  0  0  0  0  0  0  0  0  0  0  0
   -1.8575   -0.8123    0.2402 N   0  0  0  0  0  0  0  0  0  0  0  0
   -2.6005   -0.3333   -0.2478 H   0  0  0  0  0  0  0  0  0  0  0  0
   -0.5675   -0.1203    0.3102 C   0  0  1  0  0  0  0  0  0  0  0  0
    0.0191   -0.5718    1.1110 H   0  0  0  0  0  0  0  0  0  0  0  0
    0.1724   -0.3238   -1.0286 C   0  0  0  0  0  0  0  0  0  0  0  0
   -0.4201    0.1281   -1.8265 H   0  0  0  0  0  0  0  0  0  0  0  0
    1.1209    0.2151   -0.9752 H   0  0  0  0  0  0  0  0  0  0  0  0
    0.4722   -1.7845   -1.4126 C   0  0  0  0  0  0  0  0  0  0  0  0
    0.4601   -1.8899   -2.4974 H   0  0  0  0  0  0  0  0  0  0  0  0
    1.8289   -2.2563   -0.8814 C   0  0  0  0  0  0  0  0  0  0  0  0
    1.8624   -2.1417    0.2029 H   0  0  0  0  0  0  0  0  0  0  0  0
    1.9768   -3.3066   -1.1337 H   0  0  0  0  0  0  0  0  0  0  0  0
    2.6370   -1.6787   -1.3249 H   0  0  0  0  0  0  0  0  0  0  0  0
   -0.6059   -2.7015   -0.8362 C   0  0  0  0  0  0  0  0  0  0  0  0
   -1.5818   -2.4085   -1.2232 H   0  0  0  0  0  0  0  0  0  0  0  0
   -0.4111   -3.7329   -1.1298 H   0  0  0  0  0  0  0  0  0  0  0  0
   -0.6149   -2.6328    0.2522 H   0  0  0  0  0  0  0  0  0  0  0  0
   -0.7793    1.3659    0.6455 C   0  0  0  0  0  0  0  0  0  0  0  0
   -1.6464    2.0125    0.0623 O   0  0  0  0  0  0  0  0  0  0  0  0
    0.0189    1.9059    1.5756 N   0  0  0  0  0  0  0  0  0  0  0  0
    0.7024    1.3094    2.0137 H   0  0  0  0  0  0  0  0  0  0  0  0
   -0.0451    3.3046    1.9929 C   0  0  0  0  0  0  0  0  0  0  0  0
   -1.0415    3.5286    2.3805 H   0  0  0  0  0  0  0  0  0  0  0  0
    0.6954    3.5023    2.7695 H   0  0  0  0  0  0  0  0  0  0  0  0
    0.1474    3.9536    1.1372 H   0  0  0  0  0  0  0  0  0  0  0  0
  5  6  2  0  0  0  0
  5  7  1  0  0  0  0
  2  3  1  0  0  0  0
  2  4  1  0  0  0  0
  2  5  1  0  0  0  0
  1  2  1  0  0  0  0
 24 25  2  0  0  0  0
 24 26  1  0  0  0  0
 20 21  1  0  0  0  0
 20 22  1  0  0  0  0
 20 23  1  0  0  0  0
 16 17  1  0  0  0  0
 16 18  1  0  0  0  0
 16 19  1  0  0  0  0
 14 15  1  0  0  0  0
 14 16  1  0  0  0  0
 14 20  1  0  0  0  0
 11 12  1  0  0  0  0
 11 13  1  0  0  0  0
 11 14  1  0  0  0  0
  9 10  1  0  0  0  0
  9 11  1  0  0  0  0
  9 24  1  0  0  0  0
  7  8  1  0  0  0  0
  7  9  1  0  0  0  0
 28 29  1  0  0  0  0
 28 30  1  0  0  0  0
 28 31  1  0  0  0  0
 26 27  1  0  0  0  0
 26 28  1  0  0  0  0
M  END
$$$$
default_name
  -OEChem-02102213163D

 31 30  0     1  0  0  0  0  0999 V2000
   -3.5895   -3.5013    1.1082 H   0  0  0  0  0  0  0  0  0  0  0  0
   -3.5145   -2.5363    0.6082 C   0  0  0  0  0  0  0  0  0  0  0  0
   -4.2285   -1.8413    1.0452 H   0  0  0  0  0  0  0  0  0  0  0  0
   -3.7155   -2.6583   -0.4538 H   0  0  0  0  0  0  0  0  0  0  0  0
   -2.1155   -1.9963    0.7922 C   0  0  0  0  0  0  0  0  0  0  0  0
   -1.2875   -2.6383    1.4252 O   0  0  0  0  0  0  0  0  0  0  0  0
   -1.8575   -0.8123    0.2402 N   0  0  0  0  0  0  0  0  0  0  0  0
   -2.6005   -0.3333   -0.2478 H   0  0  0  0  0  0  0  0  0  0  0  0
   -0.5675   -0.1203    0.3102 C   0  0  1  0  0  0  0  0  0  0  0  0
    0.0191   -0.5718    1.1110 H   0  0  0  0  0  0  0  0  0  0  0  0
    0.1724   -0.3238   -1.0286 C   0  0  0  0  0  0  0  0  0  0  0  0
   -0.4201    0.1281   -1.8265 H   0  0  0  0  0  0  0  0  0  0  0  0
    1.1209    0.2151   -0.9752 H   0  0  0  0  0  0  0  0  0  0  0  0
    0.4722   -1.7845   -1.4126 C   0  0  0  0  0  0  0  0  0  0  0  0
    0.7225   -1.8427   -2.4718 H   0  0  0  0  0  0  0  0  0  0  0  0
    1.6256   -2.3733   -0.5951 C   0  0  0  0  0  0  0  0  0  0  0  0
    1.3967   -2.3074    0.4694 H   0  0  0  0  0  0  0  0  0  0  0  0
    1.7699   -3.4197   -0.8647 H   0  0  0  0  0  0  0  0  0  0  0  0
    2.5506   -1.8361   -0.7936 H   0  0  0  0  0  0  0  0  0  0  0  0
   -0.7664   -2.6464   -1.1711 C   0  0  0  0  0  0  0  0  0  0  0  0
   -1.5976   -2.2689   -1.7666 H   0  0  0  0  0  0  0  0  0  0  0  0
   -0.5655   -3.6757   -1.4681 H   0  0  0  0  0  0  0  0  0  0  0  0
   -1.0402   -2.6233   -0.1157 H   0  0  0  0  0  0  0  0  0  0  0  0
   -0.7793    1.3659    0.6455 C   0  0  0  0  0  0  0  0  0  0  0  0
   -1.6464    2.0125    0.0623 O   0  0  0  0  0  0  0  0  0  0  0  0
    0.0189    1.9059    1.5756 N   0  0  0  0  0  0  0  0  0  0  0  0
    0.7024    1.3094    2.0137 H   0  0  0  0  0  0  0  0  0  0  0  0
   -0.0451    3.3046    1.9929 C   0  0  0  0  0  0  0  0  0  0  0  0
   -1.0415    3.5286    2.3805 H   0  0  0  0  0  0  0  0  0  0  0  0
    0.6954    3.5023    2.7695 H   0  0  0  0  0  0  0  0  0  0  0  0
    0.1474    3.9536    1.1372 H   0  0  0  0  0  0  0  0  0  0  0  0
  5  6  2  0  0  0  0
  5  7  1  0  0  0  0
  2  3  1  0  0  0  0
  2  4  1  0  0  0  0
  2  5  1  0  0  0  0
  1  2  1  0  0  0  0
 24 25  2  0  0  0  0
 24 26  1  0  0  0  0
 20 21  1  0  0  0  0
 20 22  1  0  0  0  0
 20 23  1  0  0  0  0
 16 17  1  0  0  0  0
 16 18  1  0  0  0  0
 16 19  1  0  0  0  0
 14 15  1  0  0  0  0
 14 16  1  0  0  0  0
 14 20  1  0  0  0  0
 11 12  1  0  0  0  0
 11 13  1  0  0  0  0
 11 14  1  0  0  0  0
  9 10  1  0  0  0  0
  9 11  1  0  0  0  0
  9 24  1  0  0  0  0
  7  8  1  0  0  0  0
  7  9  1  0  0  0  0
 28 29  1  0  0  0  0
 28 30  1  0  0  0  0
 28 31  1  0  0  0  0
 26 27  1  0  0  0  0
 26 28  1  0  0  0  0
M  END
$$$$
default_name
  -OEChem-02102213163D

 31 30  0     1  0  0  0  0  0999 V2000
   -3.5895   -3.5013    1.1082 H   0  0  0  0  0  0  0  0  0  0  0  0
   -3.5145   -2.5363    0.6082 C   0  0  0  0  0  0  0  0  0  0  0  0
   -4.2285   -1.8413    1.0452 H   0  0  0  0  0  0  0  0  0  0  0  0
   -3.7155   -2.6583   -0.4538 H   0  0  0  0  0  0  0  0  0  0  0  0
   -2.1155   -1.9963    0.7922 C   0  0  0  0  0  0  0  0  0  0  0  0
   -1.2875   -2.6383    1.4252 O   0  0  0  0  0  0  0  0  0  0  0  0
   -1.8575   -0.8123    0.2402 N   0  0  0  0  0  0  0  0  0  0  0  0
   -2.6005   -0.3333   -0.2478 H   0  0  0  0  0  0  0  0  0  0  0  0
   -0.5675   -0.1203    0.3102 C   0  0  1  0  0  0  0  0  0  0  0  0
    0.0191   -0.5718    1.1110 H   0  0  0  0  0  0  0  0  0  0  0  0
    0.1724   -0.3238   -1.0286 C   0  0  0  0  0  0  0  0  0  0  0  0
   -0.4201    0.1281   -1.8265 H   0  0  0  0  0  0  0  0  0  0  0  0
    1.1209    0.2151   -0.9752 H   0  0  0  0  0  0  0  0  0  0  0  0
    0.4722   -1.7845   -1.4126 C   0  0  0  0  0  0  0  0  0  0  0  0
    0.9728   -1.8154   -2.3803 H   0  0  0  0  0  0  0  0  0  0  0  0
    1.3515   -2.4876   -0.3744 C   0  0  0  0  0  0  0  0  0  0  0  0
    0.8708   -2.4508    0.6042 H   0  0  0  0  0  0  0  0  0  0  0  0
    1.4967   -3.5293   -0.6613 H   0  0  0  0  0  0  0  0  0  0  0  0
    2.3264   -2.0093   -0.3096 H   0  0  0  0  0  0  0  0  0  0  0  0
   -0.8357   -2.5660   -1.5313 C   0  0  0  0  0  0  0  0  0  0  0  0
   -1.4705   -2.1057   -2.2884 H   0  0  0  0  0  0  0  0  0  0  0  0
   -0.6279   -3.5934   -1.8300 H   0  0  0  0  0  0  0  0  0  0  0  0
   -1.3600   -2.5683   -0.5750 H   0  0  0  0  0  0  0  0  0  0  0  0
   -0.7793    1.3659    0.6455 C   0  0  0  0  0  0  0  0  0  0  0  0
   -1.6464    2.0125    0.0623 O   0  0  0  0  0  0  0  0  0  0  0  0
    0.0189    1.9059    1.5756 N   0  0  0  0  0  0  0  0  0  0  0  0
    0.7024    1.3094    2.0137 H   0  0  0  0  0  0  0  0  0  0  0  0
   -0.0451    3.3046    1.9929 C   0  0  0  0  0  0  0  0  0  0  0  0
   -1.0415    3.5286    2.3805 H   0  0  0  0  0  0  0  0  0  0  0  0
    0.6954    3.5023    2.7695 H   0  0  0  0  0  0  0  0  0  0  0  0
    0.1474    3.9536    1.1372 H   0  0  0  0  0  0  0  0  0  0  0  0
  5  6  2  0  0  0  0
  5  7  1  0  0  0  0
  2  3  1  0  0  0  0
  2  4  1  0  0  0  0
  2  5  1  0  0  0  0
  1  2  1  0  0  0  0
 24 25  2  0  0  0  0
 24 26  1  0  0  0  0
 20 21  1  0  0  0  0
 20 22  1  0  0  0  0
 20 23  1  0  0  0  0
 16 17  1  0  0  0  0
 16 18  1  0  0  0  0
 16 19  1  0  0  0  0
 14 15  1  0  0  0  0
 14 16  1  0  0  0  0
 14 20  1  0  0  0  0
 11 12  1  0  0  0  0
 11 13  1  0  0  0  0
 11 14  1  0  0  0  0
  9 10  1  0  0  0  0
  9 11  1  0  0  0  0
  9 24  1  0  0  0  0
  7  8  1  0  0  0  0
  7  9  1  0  0  0  0
 28 29  1  0  0  0  0
 28 30  1  0  0  0  0
 28 31  1  0  0  0  0
 26 27  1  0  0  0  0
 26 28  1  0  0  0  0
M  END
$$$$
default_name
  -OEChem-02102213163D

 31 30  0     1  0  0  0  0  0999 V2000
   -3.5895   -3.5013    1.1082 H   0  0  0  0  0  0  0  0  0  0  0  0
   -3.5145   -2.5363    0.6082 C   0  0  0  0  0  0  0  0  0  0  0  0
   -4.2285   -1.8413    1.0452 H   0  0  0  0  0  0  0  0  0  0  0  0
   -3.7155   -2.6583   -0.4538 H   0  0  0  0  0  0  0  0  0  0  0  0
   -2.1155   -1.9963    0.7922 C   0  0  0  0  0  0  0  0  0  0  0  0
   -1.2875   -2.6383    1.4252 O   0  0  0  0  0  0  0  0  0  0  0  0
   -1.8575   -0.8123    0.2402 N   0  0  0  0  0  0  0  0  0  0  0  0
   -2.6005   -0.3333   -0.2478 H   0  0  0  0  0  0  0  0  0  0  0  0
   -0.5675   -0.1203    0.3102 C   0  0  1  0  0  0  0  0  0  0  0  0
    0.0191   -0.5718    1.1110 H   0  0  0  0  0  0  0  0  0  0  0  0
    0.1724   -0.3238   -1.0286 C   0  0  0  0  0  0  0  0  0  0  0  0
   -0.4201    0.1281   -1.8265 H   0  0  0  0  0  0  0  0  0  0  0  0
    1.1209    0.2151   -0.9752 H   0  0  0  0  0  0  0  0  0  0  0  0
    0.4722   -1.7845   -1.4126 C   0  0  0  0  0  0  0  0  0  0  0  0
    1.1938   -1.8098   -2.2291 H   0  0  0  0  0  0  0  0  0  0  0  0
    1.0251   -2.5914   -0.2342 C   0  0  0  0  0  0  0  0  0  0  0  0
    0.3204   -2.5621    0.5980 H   0  0  0  0  0  0  0  0  0  0  0  0
    1.1758   -3.6277   -0.5375 H   0  0  0  0  0  0  0  0  0  0  0  0
    1.9799   -2.1866    0.0942 H   0  0  0  0  0  0  0  0  0  0  0  0
   -0.8090   -2.4656   -1.8921 C   0  0  0  0  0  0  0  0  0  0  0  0
   -1.2090   -1.9299   -2.7529 H   0  0  0  0  0  0  0  0  0  0  0  0
   -0.5940   -3.4916   -2.1907 H   0  0  0  0  0  0  0  0  0  0  0  0
   -1.5526   -2.4713   -1.0944 H   0  0  0  0  0  0  0  0  0  0  0  0
   -0.7793    1.3659    0.6455 C   0  0  0  0  0  0  0  0  0  0  0  0
   -1.6464    2.0125    0.0623 O   0  0  0  0  0  0  0  0  0  0  0  0
    0.0189    1.9059    1.5756 N   0  0  0  0  0  0  0  0  0  0  0  0
    0.7024    1.3094    2.0137 H   0  0  0  0  0  0  0  0  0  0  0  0
   -0.0451    3.3046    1.9929 C   0  0  0  0  0  0  0  0  0  0  0  0
   -1.0415    3.5286    2.3805 H   0  0  0  0  0  0  0  0  0  0  0  0
    0.6954    3.5023    2.7695 H   0  0  0  0  0  0  0  0  0  0  0  0
    0.1474    3.9536    1.1372 H   0  0  0  0  0  0  0  0  0  0  0  0
  5  6  2  0  0  0  0
  5  7  1  0  0  0  0
  2  3  1  0  0  0  0
  2  4  1  0  0  0  0
  2  5  1  0  0  0  0
  1  2  1  0  0  0  0
 24 25  2  0  0  0  0
 24 26  1  0  0  0  0
 20 21  1  0  0  0  0
 20 22  1  0  0  0  0
 20 23  1  0  0  0  0
 16 17  1  0  0  0  0
 16 18  1  0  0  0  0
 16 19  1  0  0  0  0
 14 15  1  0  0  0  0
 14 16  1  0  0  0  0
 14 20  1  0  0  0  0
 11 12  1  0  0  0  0
 11 13  1  0  0  0  0
 11 14  1  0  0  0  0
  9 10  1  0  0  0  0
  9 11  1  0  0  0  0
  9 24  1  0  0  0  0
  7  8  1  0  0  0  0
  7  9  1  0  0  0  0
 28 29  1  0  0  0  0
 28 30  1  0  0  0  0
 28 31  1  0  0  0  0
 26 27  1  0  0  0  0
 26 28  1  0  0  0  0
M  END
$$$$
default_name
  -OEChem-02102213163D

 31 30  0     1  0  0  0  0  0999 V2000
   -3.5895   -3.5013    1.1082 H   0  0  0  0  0  0  0  0  0  0  0  0
   -3.5145   -2.5363    0.6082 C   0  0  0  0  0  0  0  0  0  0  0  0
   -4.2285   -1.8413    1.0452 H   0  0  0  0  0  0  0  0  0  0  0  0
   -3.7155   -2.6583   -0.4538 H   0  0  0  0  0  0  0  0  0  0  0  0
   -2.1155   -1.9963    0.7922 C   0  0  0  0  0  0  0  0  0  0  0  0
   -1.2875   -2.6383    1.4252 O   0  0  0  0  0  0  0  0  0  0  0  0
   -1.8575   -0.8123    0.2402 N   0  0  0  0  0  0  0  0  0  0  0  0
   -2.6005   -0.3333   -0.2478 H   0  0  0  0  0  0  0  0  0  0  0  0
   -0.5675   -0.1203    0.3102 C   0  0  1  0  0  0  0  0  0  0  0  0
    0.0191   -0.5718    1.1110 H   0  0  0  0  0  0  0  0  0  0  0  0
    0.1724   -0.3238   -1.0286 C   0  0  0  0  0  0  0  0  0  0  0  0
   -0.4201    0.1281   -1.8265 H   0  0  0  0  0  0  0  0  0  0  0  0
    1.1209    0.2151   -0.9752 H   0  0  0  0  0  0  0  0  0  0  0  0
    0.4722   -1.7845   -1.4126 C   0  0  0  0  0  0  0  0  0  0  0  0
    1.3705   -1.8262   -2.0286 H   0  0  0  0  0  0  0  0  0  0  0  0
    0.6687   -2.6777   -0.1842 C   0  0  0  0  0  0  0  0  0  0  0  0
   -0.2168   -2.6338    0.4513 H   0  0  0  0  0  0  0  0  0  0  0  0
    0.8291   -3.7083   -0.5016 H   0  0  0  0  0  0  0  0  0  0  0  0
    1.5346   -2.3558    0.3903 H   0  0  0  0  0  0  0  0  0  0  0  0
   -0.6881   -2.3523   -2.2290 C   0  0  0  0  0  0  0  0  0  0  0  0
   -0.8310   -1.7536   -3.1286 H   0  0  0  0  0  0  0  0  0  0  0  0
   -0.4661   -3.3774   -2.5256 H   0  0  0  0  0  0  0  0  0  0  0  0
   -1.6049   -2.3390   -1.6385 H   0  0  0  0  0  0  0  0  0  0  0  0
   -0.7793    1.3659    0.6455 C   0  0  0  0  0  0  0  0  0  0  0  0
   -1.6464    2.0125    0.0623 O   0  0  0  0  0  0  0  0  0  0  0  0
    0.0189    1.9059    1.5756 N   0  0  0  0  0  0  0  0  0  0  0  0
    0.7024    1.3094    2.0137 H   0  0  0  0  0  0  0  0  0  0  0  0
   -0.0451    3.3046    1.9929 C   0  0  0  0  0  0  0  0  0  0  0  0
   -1.0415    3.5286    2.3805 H   0  0  0  0  0  0  0  0  0  0  0  0
    0.6954    3.5023    2.7695 H   0  0  0  0  0  0  0  0  0  0  0  0
    0.1474    3.9536    1.1372 H   0  0  0  0  0  0  0  0  0  0  0  0
  5  6  2  0  0  0  0
  5  7  1  0  0  0  0
  2  3  1  0  0  0  0
  2  4  1  0  0  0  0
  2  5  1  0  0  0  0
  1  2  1  0  0  0  0
 24 25  2  0  0  0  0
 24 26  1  0  0  0  0
 20 21  1  0  0  0  0
 20 22  1  0  0  0  0
 20 23  1  0  0  0  0
 16 17  1  0  0  0  0
 16 18  1  0  0  0  0
 16 19  1  0  0  0  0
 14 15  1  0  0  0  0
 14 16  1  0  0  0  0
 14 20  1  0  0  0  0
 11 12  1  0  0  0  0
 11 13  1  0  0  0  0
 11 14  1  0  0  0  0
  9 10  1  0  0  0  0
  9 11  1  0  0  0  0
  9 24  1  0  0  0  0
  7  8  1  0  0  0  0
  7  9  1  0  0  0  0
 28 29  1  0  0  0  0
 28 30  1  0  0  0  0
 28 31  1  0  0  0  0
 26 27  1  0  0  0  0
 26 28  1  0  0  0  0
M  END
$$$$
default_name
  -OEChem-02102213163D

 31 30  0     1  0  0  0  0  0999 V2000
   -3.5895   -3.5013    1.1082 H   0  0  0  0  0  0  0  0  0  0  0  0
   -3.5145   -2.5363    0.6082 C   0  0  0  0  0  0  0  0  0  0  0  0
   -4.2285   -1.8413    1.0452 H   0  0  0  0  0  0  0  0  0  0  0  0
   -3.7155   -2.6583   -0.4538 H   0  0  0  0  0  0  0  0  0  0  0  0
   -2.1155   -1.9963    0.7922 C   0  0  0  0  0  0  0  0  0  0  0  0
   -1.2875   -2.6383    1.4252 O   0  0  0  0  0  0  0  0  0  0  0  0
   -1.8575   -0.8123    0.2402 N   0  0  0  0  0  0  0  0  0  0  0  0
   -2.6005   -0.3333   -0.2478 H   0  0  0  0  0  0  0  0  0  0  0  0
   -0.5675   -0.1203    0.3102 C   0  0  1  0  0  0  0  0  0  0  0  0
    0.0191   -0.5718    1.1110 H   0  0  0  0  0  0  0  0  0  0  0  0
    0.1724   -0.3238   -1.0286 C   0  0  0  0  0  0  0  0  0  0  0  0
   -0.4201    0.1281   -1.8265 H   0  0  0  0  0  0  0  0  0  0  0  0
    1.1209    0.2151   -0.9752 H   0  0  0  0  0  0  0  0  0  0  0  0
    0.4722   -1.7845   -1.4126 C   0  0  0  0  0  0  0  0  0  0  0  0
    1.4909   -1.8636   -1.7922 H   0  0  0  0  0  0  0  0  0  0  0  0
    0.3066   -2.7406   -0.2277 C   0  0  0  0  0  0  0  0  0  0  0  0
   -0.7044   -2.6610    0.1740 H   0  0  0  0  0  0  0  0  0  0  0  0
    0.4802   -3.7656   -0.5561 H   0  0  0  0  0  0  0  0  0  0  0  0
    1.0209   -2.5054    0.5584 H   0  0  0  0  0  0  0  0  0  0  0  0
   -0.4814   -2.2336   -2.5191 C   0  0  0  0  0  0  0  0  0  0  0  0
   -0.3623   -1.5888   -3.3898 H   0  0  0  0  0  0  0  0  0  0  0  0
   -0.2530   -3.2584   -2.8120 H   0  0  0  0  0  0  0  0  0  0  0  0
   -1.5133   -2.1804   -2.1703 H   0  0  0  0  0  0  0  0  0  0  0  0
   -0.7793    1.3659    0.6455 C   0  0  0  0  0  0  0  0  0  0  0  0
   -1.6464    2.0125    0.0623 O   0  0  0  0  0  0  0  0  0  0  0  0
    0.0189    1.9059    1.5756 N   0  0  0  0  0  0  0  0  0  0  0  0
    0.7024    1.3094    2.0137 H   0  0  0  0  0  0  0  0  0  0  0  0
   -0.0451    3.3046    1.9929 C   0  0  0  0  0  0  0  0  0  0  0  0
   -1.0415    3.5286    2.3805 H   0  0  0  0  0  0  0  0  0  0  0  0
    0.6954    3.5023    2.7695 H   0  0  0  0  0  0  0  0  0  0  0  0
    0.1474    3.9536    1.1372 H   0  0  0  0  0  0  0  0  0  0  0  0
  5  6  2  0  0  0  0
  5  7  1  0  0  0  0
  2  3  1  0  0  0  0
  2  4  1  0  0  0  0
  2  5  1  0  0  0  0
  1  2  1  0  0  0  0
 24 25  2  0  0  0  0
 24 26  1  0  0  0  0
 20 21  1  0  0  0  0
 20 22  1  0  0  0  0
 20 23  1  0  0  0  0
 16 17  1  0  0  0  0
 16 18  1  0  0  0  0
 16 19  1  0  0  0  0
 14 15  1  0  0  0  0
 14 16  1  0  0  0  0
 14 20  1  0  0  0  0
 11 12  1  0  0  0  0
 11 13  1  0  0  0  0
 11 14  1  0  0  0  0
  9 10  1  0  0  0  0
  9 11  1  0  0  0  0
  9 24  1  0  0  0  0
  7  8  1  0  0  0  0
  7  9  1  0  0  0  0
 28 29  1  0  0  0  0
 28 30  1  0  0  0  0
 28 31  1  0  0  0  0
 26 27  1  0  0  0  0
 26 28  1  0  0  0  0
M  END
$$$$
default_name
  -OEChem-02102213163D

 31 30  0     1  0  0  0  0  0999 V2000
   -3.5895   -3.5013    1.1082 H   0  0  0  0  0  0  0  0  0  0  0  0
   -3.5145   -2.5363    0.6082 C   0  0  0  0  0  0  0  0  0  0  0  0
   -4.2285   -1.8413    1.0452 H   0  0  0  0  0  0  0  0  0  0  0  0
   -3.7155   -2.6583   -0.4538 H   0  0  0  0  0  0  0  0  0  0  0  0
   -2.1155   -1.9963    0.7922 C   0  0  0  0  0  0  0  0  0  0  0  0
   -1.2875   -2.6383    1.4252 O   0  0  0  0  0  0  0  0  0  0  0  0
   -1.8575   -0.8123    0.2402 N   0  0  0  0  0  0  0  0  0  0  0  0
   -2.6005   -0.3333   -0.2478 H   0  0  0  0  0  0  0  0  0  0  0  0
   -0.5675   -0.1203    0.3102 C   0  0  1  0  0  0  0  0  0  0  0  0
    0.0191   -0.5718    1.1110 H   0  0  0  0  0  0  0  0  0  0  0  0
    0.1724   -0.3238   -1.0286 C   0  0  0  0  0  0  0  0  0  0  0  0
   -0.4201    0.1281   -1.8265 H   0  0  0  0  0  0  0  0  0  0  0  0
    1.1209    0.2151   -0.9752 H   0  0  0  0  0  0  0  0  0  0  0  0
    0.4722   -1.7845   -1.4126 C   0  0  0  0  0  0  0  0  0  0  0  0
    1.5467   -1.9195   -1.5363 H   0  0  0  0  0  0  0  0  0  0  0  0
   -0.0365   -2.7757   -0.3619 C   0  0  0  0  0  0  0  0  0  0  0  0
   -1.1091   -2.6419   -0.2149 H   0  0  0  0  0  0  0  0  0  0  0  0
    0.1528   -3.7957   -0.6973 H   0  0  0  0  0  0  0  0  0  0  0  0
    0.4738   -2.6253    0.5871 H   0  0  0  0  0  0  0  0  0  0  0  0
   -0.2027   -2.1176   -2.7425 C   0  0  0  0  0  0  0  0  0  0  0  0
    0.1652   -1.4466   -3.5187 H   0  0  0  0  0  0  0  0  0  0  0  0
    0.0308   -3.1427   -3.0303 H   0  0  0  0  0  0  0  0  0  0  0  0
   -1.2839   -2.0063   -2.6534 H   0  0  0  0  0  0  0  0  0  0  0  0
   -0.7793    1.3659    0.6455 C   0  0  0  0  0  0  0  0  0  0  0  0
   -1.6464    2.0125    0.0623 O   0  0  0  0  0  0  0  0  0  0  0  0
    0.0189    1.9059    1.5756 N   0  0  0  0  0  0  0  0  0  0  0  0
    0.7024    1.3094    2.0137 H   0  0  0  0  0  0  0  0  0  0  0  0
   -0.0451    3.3046    1.9929 C   0  0  0  0  0  0  0  0  0  0  0  0
   -1.0415    3.5286    2.3805 H   0  0  0  0  0  0  0  0  0  0  0  0
    0.6954    3.5023    2.7695 H   0  0  0  0  0  0  0  0  0  0  0  0
    0.1474    3.9536    1.1372 H   0  0  0  0  0  0  0  0  0  0  0  0
  5  6  2  0  0  0  0
  5  7  1  0  0  0  0
  2  3  1  0  0  0  0
  2  4  1  0  0  0  0
  2  5  1  0  0  0  0
  1  2  1  0  0  0  0
 24 25  2  0  0  0  0
 24 26  1  0  0  0  0
 20 21  1  0  0  0  0
 20 22  1  0  0  0  0
 20 23  1  0  0  0  0
 16 17  1  0  0  0  0
 16 18  1  0  0  0  0
 16 19  1  0  0  0  0
 14 15  1  0  0  0  0
 14 16  1  0  0  0  0
 14 20  1  0  0  0  0
 11 12  1  0  0  0  0
 11 13  1  0  0  0  0
 11 14  1  0  0  0  0
  9 10  1  0  0  0  0
  9 11  1  0  0  0  0
  9 24  1  0  0  0  0
  7  8  1  0  0  0  0
  7  9  1  0  0  0  0
 28 29  1  0  0  0  0
 28 30  1  0  0  0  0
 28 31  1  0  0  0  0
 26 27  1  0  0  0  0
 26 28  1  0  0  0  0
M  END
$$$$
default_name
  -OEChem-02102213163D

 31 30  0     1  0  0  0  0  0999 V2000
   -3.5895   -3.5013    1.1082 H   0  0  0  0  0  0  0  0  0  0  0  0
   -3.5145   -2.5363    0.6082 C   0  0  0  0  0  0  0  0  0  0  0  0
   -4.2285   -1.8413    1.0452 H   0  0  0  0  0  0  0  0  0  0  0  0
   -3.7155   -2.6583   -0.4538 H   0  0  0  0  0  0  0  0  0  0  0  0
   -2.1155   -1.9963    0.7922 C   0  0  0  0  0  0  0  0  0  0  0  0
   -1.2875   -2.6383    1.4252 O   0  0  0  0  0  0  0  0  0  0  0  0
   -1.8575   -0.8123    0.2402 N   0  0  0  0  0  0  0  0  0  0  0  0
   -2.6005   -0.3333   -0.2478 H   0  0  0  0  0  0  0  0  0  0  0  0
   -0.5675   -0.1203    0.3102 C   0  0  1  0  0  0  0  0  0  0  0  0
    0.0191   -0.5718    1.1110 H   0  0  0  0  0  0  0  0  0  0  0  0
    0.1724   -0.3238   -1.0286 C   0  0  0  0  0  0  0  0  0  0  0  0
   -0.4201    0.1281   -1.8265 H   0  0  0  0  0  0  0  0  0  0  0  0
    1.1209    0.2151   -0.9752 H   0  0  0  0  0  0  0  0  0  0  0  0
    0.4722   -1.7845   -1.4126 C   0  0  0  0  0  0  0  0  0  0  0  0
    1.5342   -1.9899   -1.2782 H   0  0  0  0  0  0  0  0  0  0  0  0
   -0.3373   -2.7808   -0.5774 C   0  0  0  0  0  0  0  0  0  0  0  0
   -1.4032   -2.5777   -0.6889 H   0  0  0  0  0  0  0  0  0  0  0  0
   -0.1306   -3.7965   -0.9156 H   0  0  0  0  0  0  0  0  0  0  0  0
   -0.0695   -2.7072    0.4744 H   0  0  0  0  0  0  0  0  0  0  0  0
    0.1287   -2.0124   -2.8841 C   0  0  0  0  0  0  0  0  0  0  0  0
    0.7155   -1.3368   -3.5065 H   0  0  0  0  0  0  0  0  0  0  0  0
    0.3660   -3.0383   -3.1656 H   0  0  0  0  0  0  0  0  0  0  0  0
   -0.9326   -1.8287   -3.0550 H   0  0  0  0  0  0  0  0  0  0  0  0
   -0.7793    1.3659    0.6455 C   0  0  0  0  0  0  0  0  0  0  0  0
   -1.6464    2.0125    0.0623 O   0  0  0  0  0  0  0  0  0  0  0  0
    0.0189    1.9059    1.5756 N   0  0  0  0  0  0  0  0  0  0  0  0
    0.7024    1.3094    2.0137 H   0  0  0  0  0  0  0  0  0  0  0  0
   -0.0451    3.3046    1.9929 C   0  0  0  0  0  0  0  0  0  0  0  0
   -1.0415    3.5286    2.3805 H   0  0  0  0  0  0  0  0  0  0  0  0
    0.6954    3.5023    2.7695 H   0  0  0  0  0  0  0  0  0  0  0  0
    0.1474    3.9536    1.1372 H   0  0  0  0  0  0  0  0  0  0  0  0
  5  6  2  0  0  0  0
  5  7  1  0  0  0  0
  2  3  1  0  0  0  0
  2  4  1  0  0  0  0
  2  5  1  0  0  0  0
  1  2  1  0  0  0  0
 24 25  2  0  0  0  0
 24 26  1  0  0  0  0
 20 21  1  0  0  0  0
 20 22  1  0  0  0  0
 20 23  1  0  0  0  0
 16 17  1  0  0  0  0
 16 18  1  0  0  0  0
 16 19  1  0  0  0  0
 14 15  1  0  0  0  0
 14 16  1  0  0  0  0
 14 20  1  0  0  0  0
 11 12  1  0  0  0  0
 11 13  1  0  0  0  0
 11 14  1  0  0  0  0
  9 10  1  0  0  0  0
  9 11  1  0  0  0  0
  9 24  1  0  0  0  0
  7  8  1  0  0  0  0
  7  9  1  0  0  0  0
 28 29  1  0  0  0  0
 28 30  1  0  0  0  0
 28 31  1  0  0  0  0
 26 27  1  0  0  0  0
 26 28  1  0  0  0  0
M  END
$$$$
default_name
  -OEChem-02102213163D

 31 30  0     1  0  0  0  0  0999 V2000
   -3.5895   -3.5013    1.1082 H   0  0  0  0  0  0  0  0  0  0  0  0
   -3.5145   -2.5363    0.6082 C   0  0  0  0  0  0  0  0  0  0  0  0
   -4.2285   -1.8413    1.0452 H   0  0  0  0  0  0  0  0  0  0  0  0
   -3.7155   -2.6583   -0.4538 H   0  0  0  0  0  0  0  0  0  0  0  0
   -2.1155   -1.9963    0.7922 C   0  0  0  0  0  0  0  0  0  0  0  0
   -1.2875   -2.6383    1.4252 O   0  0  0  0  0  0  0  0  0  0  0  0
   -1.8575   -0.8123    0.2402 N   0  0  0  0  0  0  0  0  0  0  0  0
   -2.6005   -0.3333   -0.2478 H   0  0  0  0  0  0  0  0  0  0  0  0
   -0.5675   -0.1203    0.3102 C   0  0  1  0  0  0  0  0  0  0  0  0
    0.0191   -0.5718    1.1110 H   0  0  0  0  0  0  0  0  0  0  0  0
    0.1724   -0.3238   -1.0286 C   0  0  0  0  0  0  0  0  0  0  0  0
   -0.4201    0.1281   -1.8265 H   0  0  0  0  0  0  0  0  0  0  0  0
    1.1209    0.2151   -0.9752 H   0  0  0  0  0  0  0  0  0  0  0  0
    0.4722   -1.7845   -1.4126 C   0  0  0  0  0  0  0  0  0  0  0  0
    1.4542   -2.0701   -1.0355 H   0  0  0  0  0  0  0  0  0  0  0  0
   -0.5752   -2.7554   -0.8598 C   0  0  0  0  0  0  0  0  0  0  0  0
   -1.5668   -2.4727   -1.2157 H   0  0  0  0  0  0  0  0  0  0  0  0
   -0.3509   -3.7679   -1.1961 H   0  0  0  0  0  0  0  0  0  0  0  0
   -0.5719   -2.7456    0.2280 H   0  0  0  0  0  0  0  0  0  0  0  0
    0.4905   -1.9250   -2.9342 C   0  0  0  0  0  0  0  0  0  0  0  0
    1.2512   -1.2669   -3.3541 H   0  0  0  0  0  0  0  0  0  0  0  0
    0.7298   -2.9523   -3.2088 H   0  0  0  0  0  0  0  0  0  0  0  0
   -0.4831   -1.6595   -3.3476 H   0  0  0  0  0  0  0  0  0  0  0  0
   -0.7793    1.3659    0.6455 C   0  0  0  0  0  0  0  0  0  0  0  0
   -1.6464    2.0125    0.0623 O   0  0  0  0  0  0  0  0  0  0  0  0
    0.0189    1.9059    1.5756 N   0  0  0  0  0  0  0  0  0  0  0  0
    0.7024    1.3094    2.0137 H   0  0  0  0  0  0  0  0  0  0  0  0
   -0.0451    3.3046    1.9929 C   0  0  0  0  0  0  0  0  0  0  0  0
   -1.0415    3.5286    2.3805 H   0  0  0  0  0  0  0  0  0  0  0  0
    0.6954    3.5023    2.7695 H   0  0  0  0  0  0  0  0  0  0  0  0
    0.1474    3.9536    1.1372 H   0  0  0  0  0  0  0  0  0  0  0  0
  5  6  2  0  0  0  0
  5  7  1  0  0  0  0
  2  3  1  0  0  0  0
  2  4  1  0  0  0  0
  2  5  1  0  0  0  0
  1  2  1  0  0  0  0
 24 25  2  0  0  0  0
 24 26  1  0  0  0  0
 20 21  1  0  0  0  0
 20 22  1  0  0  0  0
 20 23  1  0  0  0  0
 16 17  1  0  0  0  0
 16 18  1  0  0  0  0
 16 19  1  0  0  0  0
 14 15  1  0  0  0  0
 14 16  1  0  0  0  0
 14 20  1  0  0  0  0
 11 12  1  0  0  0  0
 11 13  1  0  0  0  0
 11 14  1  0  0  0  0
  9 10  1  0  0  0  0
  9 11  1  0  0  0  0
  9 24  1  0  0  0  0
  7  8  1  0  0  0  0
  7  9  1  0  0  0  0
 28 29  1  0  0  0  0
 28 30  1  0  0  0  0
 28 31  1  0  0  0  0
 26 27  1  0  0  0  0
 26 28  1  0  0  0  0
M  END
$$$$
default_name
  -OEChem-02102213163D

 31 30  0     1  0  0  0  0  0999 V2000
   -3.5895   -3.5013    1.1082 H   0  0  0  0  0  0  0  0  0  0  0  0
   -3.5145   -2.5363    0.6082 C   0  0  0  0  0  0  0  0  0  0  0  0
   -4.2285   -1.8413    1.0452 H   0  0  0  0  0  0  0  0  0  0  0  0
   -3.7155   -2.6583   -0.4538 H   0  0  0  0  0  0  0  0  0  0  0  0
   -2.1155   -1.9963    0.7922 C   0  0  0  0  0  0  0  0  0  0  0  0
   -1.2875   -2.6383    1.4252 O   0  0  0  0  0  0  0  0  0  0  0  0
   -1.8575   -0.8123    0.2402 N   0  0  0  0  0  0  0  0  0  0  0  0
   -2.6005   -0.3333   -0.2478 H   0  0  0  0  0  0  0  0  0  0  0  0
   -0.5675   -0.1203    0.3102 C   0  0  1  0  0  0  0  0  0  0  0  0
    0.0191   -0.5718    1.1110 H   0  0  0  0  0  0  0  0  0  0  0  0
    0.1724   -0.3238   -1.0286 C   0  0  0  0  0  0  0  0  0  0  0  0
   -0.4201    0.1281   -1.8265 H   0  0  0  0  0  0  0  0  0  0  0  0
    1.1209    0.2151   -0.9752 H   0  0  0  0  0  0  0  0  0  0  0  0
    0.4722   -1.7845   -1.4126 C   0  0  0  0  0  0  0  0  0  0  0  0
    1.3122   -2.1546   -0.8248 H   0  0  0  0  0  0  0  0  0  0  0  0
   -0.7340   -2.7013   -1.1896 C   0  0  0  0  0  0  0  0  0  0  0  0
   -1.5887   -2.3343   -1.7595 H   0  0  0  0  0  0  0  0  0  0  0  0
   -0.4929   -3.7120   -1.5197 H   0  0  0  0  0  0  0  0  0  0  0  0
   -0.9992   -2.7378   -0.1352 H   0  0  0  0  0  0  0  0  0  0  0  0
    0.8578   -1.8614   -2.8893 C   0  0  0  0  0  0  0  0  0  0  0  0
    1.7357   -1.2417   -3.0718 H   0  0  0  0  0  0  0  0  0  0  0  0
    1.0973   -2.8905   -3.1568 H   0  0  0  0  0  0  0  0  0  0  0  0
    0.0338   -1.5103   -3.5115 H   0  0  0  0  0  0  0  0  0  0  0  0
   -0.7793    1.3659    0.6455 C   0  0  0  0  0  0  0  0  0  0  0  0
   -1.6464    2.0125    0.0623 O   0  0  0  0  0  0  0  0  0  0  0  0
    0.0189    1.9059    1.5756 N   0  0  0  0  0  0  0  0  0  0  0  0
    0.7024    1.3094    2.0137 H   0  0  0  0  0  0  0  0  0  0  0  0
   -0.0451    3.3046    1.9929 C   0  0  0  0  0  0  0  0  0  0  0  0
   -1.0415    3.5286    2.3805 H   0  0  0  0  0  0  0  0  0  0  0  0
    0.6954    3.5023    2.7695 H   0  0  0  0  0  0  0  0  0  0  0  0
    0.1474    3.9536    1.1372 H   0  0  0  0  0  0  0  0  0  0  0  0
  5  6  2  0  0  0  0
  5  7  1  0  0  0  0
  2  3  1  0  0  0  0
  2  4  1  0  0  0  0
  2  5  1  0  0  0  0
  1  2  1  0  0  0  0
 24 25  2  0  0  0  0
 24 26  1  0  0  0  0
 20 21  1  0  0  0  0
 20 22  1  0  0  0  0
 20 23  1  0  0  0  0
 16 17  1  0  0  0  0
 16 18  1  0  0  0  0
 16 19  1  0  0  0  0
 14 15  1  0  0  0  0
 14 16  1  0  0  0  0
 14 20  1  0  0  0  0
 11 12  1  0  0  0  0
 11 13  1  0  0  0  0
 11 14  1  0  0  0  0
  9 10  1  0  0  0  0
  9 11  1  0  0  0  0
  9 24  1  0  0  0  0
  7  8  1  0  0  0  0
  7  9  1  0  0  0  0
 28 29  1  0  0  0  0
 28 30  1  0  0  0  0
 28 31  1  0  0  0  0
 26 27  1  0  0  0  0
 26 28  1  0  0  0  0
M  END
$$$$
default_name
  -OEChem-02102213163D

 31 30  0     1  0  0  0  0  0999 V2000
   -3.5895   -3.5013    1.1082 H   0  0  0  0  0  0  0  0  0  0  0  0
   -3.5145   -2.5363    0.6082 C   0  0  0  0  0  0  0  0  0  0  0  0
   -4.2285   -1.8413    1.0452 H   0  0  0  0  0  0  0  0  0  0  0  0
   -3.7155   -2.6583   -0.4538 H   0  0  0  0  0  0  0  0  0  0  0  0
   -2.1155   -1.9963    0.7922 C   0  0  0  0  0  0  0  0  0  0  0  0
   -1.2875   -2.6383    1.4252 O   0  0  0  0  0  0  0  0  0  0  0  0
   -1.8575   -0.8123    0.2402 N   0  0  0  0  0  0  0  0  0  0  0  0
   -2.6005   -0.3333   -0.2478 H   0  0  0  0  0  0  0  0  0  0  0  0
   -0.5675   -0.1203    0.3102 C   0  0  1  0  0  0  0  0  0  0  0  0
    0.0191   -0.5718    1.1110 H   0  0  0  0  0  0  0  0  0  0  0  0
    0.1724   -0.3238   -1.0286 C   0  0  0  0  0  0  0  0  0  0  0  0
   -0.4201    0.1281   -1.8265 H   0  0  0  0  0  0  0  0  0  0  0  0
    1.1209    0.2151   -0.9752 H   0  0  0  0  0  0  0  0  0  0  0  0
    0.4722   -1.7845   -1.4126 C   0  0  0  0  0  0  0  0  0  0  0  0
    1.1178   -2.2377   -0.6603 H   0  0  0  0  0  0  0  0  0  0  0  0
   -0.8030   -2.6222   -1.5445 C   0  0  0  0  0  0  0  0  0  0  0  0
   -1.4674   -2.1718   -2.2831 H   0  0  0  0  0  0  0  0  0  0  0  0
   -0.5470   -3.6326   -1.8643 H   0  0  0  0  0  0  0  0  0  0  0  0
   -1.3222   -2.6844   -0.5906 H   0  0  0  0  0  0  0  0  0  0  0  0
    1.2057   -1.8259   -2.7526 C   0  0  0  0  0  0  0  0  0  0  0  0
    2.1360   -1.2628   -2.6789 H   0  0  0  0  0  0  0  0  0  0  0  0
    1.4436   -2.8572   -3.0133 H   0  0  0  0  0  0  0  0  0  0  0  0
    0.5829   -1.3913   -3.5353 H   0  0  0  0  0  0  0  0  0  0  0  0
   -0.7793    1.3659    0.6455 C   0  0  0  0  0  0  0  0  0  0  0  0
   -1.6464    2.0125    0.0623 O   0  0  0  0  0  0  0  0  0  0  0  0
    0.0189    1.9059    1.5756 N   0  0  0  0  0  0  0  0  0  0  0  0
    0.7024    1.3094    2.0137 H   0  0  0  0  0  0  0  0  0  0  0  0
   -0.0451    3.3046    1.9929 C   0  0  0  0  0  0  0  0  0  0  0  0
   -1.0415    3.5286    2.3805 H   0  0  0  0  0  0  0  0  0  0  0  0
    0.6954    3.5023    2.7695 H   0  0  0  0  0  0  0  0  0  0  0  0
    0.1474    3.9536    1.1372 H   0  0  0  0  0  0  0  0  0  0  0  0
  5  6  2  0  0  0  0
  5  7  1  0  0  0  0
  2  3  1  0  0  0  0
  2  4  1  0  0  0  0
  2  5  1  0  0  0  0
  1  2  1  0  0  0  0
 24 25  2  0  0  0  0
 24 26  1  0  0  0  0
 20 21  1  0  0  0  0
 20 22  1  0  0  0  0
 20 23  1  0  0  0  0
 16 17  1  0  0  0  0
 16 18  1  0  0  0  0
 16 19  1  0  0  0  0
 14 15  1  0  0  0  0
 14 16  1  0  0  0  0
 14 20  1  0  0  0  0
 11 12  1  0  0  0  0
 11 13  1  0  0  0  0
 11 14  1  0  0  0  0
  9 10  1  0  0  0  0
  9 11  1  0  0  0  0
  9 24  1  0  0  0  0
  7  8  1  0  0  0  0
  7  9  1  0  0  0  0
 28 29  1  0  0  0  0
 28 30  1  0  0  0  0
 28 31  1  0  0  0  0
 26 27  1  0  0  0  0
 26 28  1  0  0  0  0
M  END
$$$$
default_name
  -OEChem-02102213163D

 31 30  0     1  0  0  0  0  0999 V2000
   -3.5895   -3.5013    1.1082 H   0  0  0  0  0  0  0  0  0  0  0  0
   -3.5145   -2.5363    0.6082 C   0  0  0  0  0  0  0  0  0  0  0  0
   -4.2285   -1.8413    1.0452 H   0  0  0  0  0  0  0  0  0  0  0  0
   -3.7155   -2.6583   -0.4538 H   0  0  0  0  0  0  0  0  0  0  0  0
   -2.1155   -1.9963    0.7922 C   0  0  0  0  0  0  0  0  0  0  0  0
   -1.2875   -2.6383    1.4252 O   0  0  0  0  0  0  0  0  0  0  0  0
   -1.8575   -0.8123    0.2402 N   0  0  0  0  0  0  0  0  0  0  0  0
   -2.6005   -0.3333   -0.2478 H   0  0  0  0  0  0  0  0  0  0  0  0
   -0.5675   -0.1203    0.3102 C   0  0  1  0  0  0  0  0  0  0  0  0
    0.0191   -0.5718    1.1110 H   0  0  0  0  0  0  0  0  0  0  0  0
    0.1724   -0.3238   -1.0286 C   0  0  0  0  0  0  0  0  0  0  0  0
   -0.4201    0.1281   -1.8265 H   0  0  0  0  0  0  0  0  0  0  0  0
    1.1209    0.2151   -0.9752 H   0  0  0  0  0  0  0  0  0  0  0  0
    0.4722   -1.7845   -1.4126 C   0  0  0  0  0  0  0  0  0  0  0  0
    0.8843   -2.3138   -0.5534 H   0  0  0  0  0  0  0  0  0  0  0  0
   -0.7774   -2.5234   -1.9002 C   0  0  0  0  0  0  0  0  0  0  0  0
   -1.2112   -1.9962   -2.7510 H   0  0  0  0  0  0  0  0  0  0  0  0
   -0.5096   -3.5349   -2.2065 H   0  0  0  0  0  0  0  0  0  0  0  0
   -1.5190   -2.5890   -1.1070 H   0  0  0  0  0  0  0  0  0  0  0  0
    1.5105   -1.8210   -2.5333 C   0  0  0  0  0  0  0  0  0  0  0  0
    2.4249   -1.3288   -2.2022 H   0  0  0  0  0  0  0  0  0  0  0  0
    1.7449   -2.8546   -2.7879 H   0  0  0  0  0  0  0  0  0  0  0  0
    1.1269   -1.3106   -3.4175 H   0  0  0  0  0  0  0  0  0  0  0  0
   -0.7793    1.3659    0.6455 C   0  0  0  0  0  0  0  0  0  0  0  0
   -1.6464    2.0125    0.0623 O   0  0  0  0  0  0  0  0  0  0  0  0
    0.0189    1.9059    1.5756 N   0  0  0  0  0  0  0  0  0  0  0  0
    0.7024    1.3094    2.0137 H   0  0  0  0  0  0  0  0  0  0  0  0
   -0.0451    3.3046    1.9929 C   0  0  0  0  0  0  0  0  0  0  0  0
   -1.0415    3.5286    2.3805 H   0  0  0  0  0  0  0  0  0  0  0  0
    0.6954    3.5023    2.7695 H   0  0  0  0  0  0  0  0  0  0  0  0
    0.1474    3.9536    1.1372 H   0  0  0  0  0  0  0  0  0  0  0  0
  5  6  2  0  0  0  0
  5  7  1  0  0  0  0
  2  3  1  0  0  0  0
  2  4  1  0  0  0  0
  2  5  1  0  0  0  0
  1  2  1  0  0  0  0
 24 25  2  0  0  0  0
 24 26  1  0  0  0  0
 20 21  1  0  0  0  0
 20 22  1  0  0  0  0
 20 23  1  0  0  0  0
 16 17  1  0  0  0  0
 16 18  1  0  0  0  0
 16 19  1  0  0  0  0
 14 15  1  0  0  0  0
 14 16  1  0  0  0  0
 14 20  1  0  0  0  0
 11 12  1  0  0  0  0
 11 13  1  0  0  0  0
 11 14  1  0  0  0  0
  9 10  1  0  0  0  0
  9 11  1  0  0  0  0
  9 24  1  0  0  0  0
  7  8  1  0  0  0  0
  7  9  1  0  0  0  0
 28 29  1  0  0  0  0
 28 30  1  0  0  0  0
 28 31  1  0  0  0  0
 26 27  1  0  0  0  0
 26 28  1  0  0  0  0
M  END
$$$$
default_name
  -OEChem-02102213163D

 31 30  0     1  0  0  0  0  0999 V2000
   -3.5895   -3.5013    1.1082 H   0  0  0  0  0  0  0  0  0  0  0  0
   -3.5145   -2.5363    0.6082 C   0  0  0  0  0  0  0  0  0  0  0  0
   -4.2285   -1.8413    1.0452 H   0  0  0  0  0  0  0  0  0  0  0  0
   -3.7155   -2.6583   -0.4538 H   0  0  0  0  0  0  0  0  0  0  0  0
   -2.1155   -1.9963    0.7922 C   0  0  0  0  0  0  0  0  0  0  0  0
   -1.2875   -2.6383    1.4252 O   0  0  0  0  0  0  0  0  0  0  0  0
   -1.8575   -0.8123    0.2402 N   0  0  0  0  0  0  0  0  0  0  0  0
   -2.6005   -0.3333   -0.2478 H   0  0  0  0  0  0  0  0  0  0  0  0
   -0.5675   -0.1203    0.3102 C   0  0  1  0  0  0  0  0  0  0  0  0
    0.0191   -0.5718    1.1110 H   0  0  0  0  0  0  0  0  0  0  0  0
    0.1724   -0.3238   -1.0286 C   0  0  0  0  0  0  0  0  0  0  0  0
   -0.4201    0.1281   -1.8265 H   0  0  0  0  0  0  0  0  0  0  0  0
    1.1209    0.2151   -0.9752 H   0  0  0  0  0  0  0  0  0  0  0  0
    0.4722   -1.7845   -1.4126 C   0  0  0  0  0  0  0  0  0  0  0  0
    0.6276   -2.3775   -0.5113 H   0  0  0  0  0  0  0  0  0  0  0  0
   -0.6589   -2.4118   -2.2326 C   0  0  0  0  0  0  0  0  0  0  0  0
   -0.8375   -1.8196   -3.1311 H   0  0  0  0  0  0  0  0  0  0  0  0
   -0.3831   -3.4258   -2.5229 H   0  0  0  0  0  0  0  0  0  0  0  0
   -1.5761   -2.4582   -1.6494 H   0  0  0  0  0  0  0  0  0  0  0  0
    1.7513   -1.8470   -2.2464 C   0  0  0  0  0  0  0  0  0  0  0  0
    2.5826   -1.4352   -1.6741 H   0  0  0  0  0  0  0  0  0  0  0  0
    1.9808   -2.8828   -2.4962 H   0  0  0  0  0  0  0  0  0  0  0  0
    1.6286   -1.2738   -3.1660 H   0  0  0  0  0  0  0  0  0  0  0  0
   -0.7793    1.3659    0.6455 C   0  0  0  0  0  0  0  0  0  0  0  0
   -1.6464    2.0125    0.0623 O   0  0  0  0  0  0  0  0  0  0  0  0
    0.0189    1.9059    1.5756 N   0  0  0  0  0  0  0  0  0  0  0  0
    0.7024    1.3094    2.0137 H   0  0  0  0  0  0  0  0  0  0  0  0
   -0.0451    3.3046    1.9929 C   0  0  0  0  0  0  0  0  0  0  0  0
   -1.0415    3.5286    2.3805 H   0  0  0  0  0  0  0  0  0  0  0  0
    0.6954    3.5023    2.7695 H   0  0  0  0  0  0  0  0  0  0  0  0
    0.1474    3.9536    1.1372 H   0  0  0  0  0  0  0  0  0  0  0  0
  5  6  2  0  0  0  0
  5  7  1  0  0  0  0
  2  3  1  0  0  0  0
  2  4  1  0  0  0  0
  2  5  1  0  0  0  0
  1  2  1  0  0  0  0
 24 25  2  0  0  0  0
 24 26  1  0  0  0  0
 20 21  1  0  0  0  0
 20 22  1  0  0  0  0
 20 23  1  0  0  0  0
 16 17  1  0  0  0  0
 16 18  1  0  0  0  0
 16 19  1  0  0  0  0
 14 15  1  0  0  0  0
 14 16  1  0  0  0  0
 14 20  1  0  0  0  0
 11 12  1  0  0  0  0
 11 13  1  0  0  0  0
 11 14  1  0  0  0  0
  9 10  1  0  0  0  0
  9 11  1  0  0  0  0
  9 24  1  0  0  0  0
  7  8  1  0  0  0  0
  7  9  1  0  0  0  0
 28 29  1  0  0  0  0
 28 30  1  0  0  0  0
 28 31  1  0  0  0  0
 26 27  1  0  0  0  0
 26 28  1  0  0  0  0
M  END
$$$$
default_name
  -OEChem-02102213163D

 31 30  0     1  0  0  0  0  0999 V2000
   -3.5895   -3.5013    1.1082 H   0  0  0  0  0  0  0  0  0  0  0  0
   -3.5145   -2.5363    0.6082 C   0  0  0  0  0  0  0  0  0  0  0  0
   -4.2285   -1.8413    1.0452 H   0  0  0  0  0  0  0  0  0  0  0  0
   -3.7155   -2.6583   -0.4538 H   0  0  0  0  0  0  0  0  0  0  0  0
   -2.1155   -1.9963    0.7922 C   0  0  0  0  0  0  0  0  0  0  0  0
   -1.2875   -2.6383    1.4252 O   0  0  0  0  0  0  0  0  0  0  0  0
   -1.8575   -0.8123    0.2402 N   0  0  0  0  0  0  0  0  0  0  0  0
   -2.6005   -0.3333   -0.2478 H   0  0  0  0  0  0  0  0  0  0  0  0
   -0.5675   -0.1203    0.3102 C   0  0  1  0  0  0  0  0  0  0  0  0
    0.0191   -0.5718    1.1110 H   0  0  0  0  0  0  0  0  0  0  0  0
    0.1724   -0.3238   -1.0286 C   0  0  0  0  0  0  0  0  0  0  0  0
   -0.4201    0.1281   -1.8265 H   0  0  0  0  0  0  0  0  0  0  0  0
    1.1209    0.2151   -0.9752 H   0  0  0  0  0  0  0  0  0  0  0  0
    0.4722   -1.7845   -1.4126 C   0  0  0  0  0  0  0  0  0  0  0  0
    0.3652   -2.4247   -0.5369 H   0  0  0  0  0  0  0  0  0  0  0  0
   -0.4557   -2.2948   -2.5189 C   0  0  0  0  0  0  0  0  0  0  0  0
   -0.3718   -1.6539   -3.3976 H   0  0  0  0  0  0  0  0  0  0  0  0
   -0.1762   -3.3126   -2.7919 H   0  0  0  0  0  0  0  0  0  0  0  0
   -1.4896   -2.3008   -2.1808 H   0  0  0  0  0  0  0  0  0  0  0  0
    1.9119   -1.9021   -1.9115 C   0  0  0  0  0  0  0  0  0  0  0  0
    2.5984   -1.5748   -1.1307 H   0  0  0  0  0  0  0  0  0  0  0  0
    2.1352   -2.9401   -2.1578 H   0  0  0  0  0  0  0  0  0  0  0  0
    2.0539   -1.2832   -2.7981 H   0  0  0  0  0  0  0  0  0  0  0  0
   -0.7793    1.3659    0.6455 C   0  0  0  0  0  0  0  0  0  0  0  0
   -1.6464    2.0125    0.0623 O   0  0  0  0  0  0  0  0  0  0  0  0
    0.0189    1.9059    1.5756 N   0  0  0  0  0  0  0  0  0  0  0  0
    0.7024    1.3094    2.0137 H   0  0  0  0  0  0  0  0  0  0  0  0
   -0.0451    3.3046    1.9929 C   0  0  0  0  0  0  0  0  0  0  0  0
   -1.0415    3.5286    2.3805 H   0  0  0  0  0  0  0  0  0  0  0  0
    0.6954    3.5023    2.7695 H   0  0  0  0  0  0  0  0  0  0  0  0
    0.1474    3.9536    1.1372 H   0  0  0  0  0  0  0  0  0  0  0  0
  5  6  2  0  0  0  0
  5  7  1  0  0  0  0
  2  3  1  0  0  0  0
  2  4  1  0  0  0  0
  2  5  1  0  0  0  0
  1  2  1  0  0  0  0
 24 25  2  0  0  0  0
 24 26  1  0  0  0  0
 20 21  1  0  0  0  0
 20 22  1  0  0  0  0
 20 23  1  0  0  0  0
 16 17  1  0  0  0  0
 16 18  1  0  0  0  0
 16 19  1  0  0  0  0
 14 15  1  0  0  0  0
 14 16  1  0  0  0  0
 14 20  1  0  0  0  0
 11 12  1  0  0  0  0
 11 13  1  0  0  0  0
 11 14  1  0  0  0  0
  9 10  1  0  0  0  0
  9 11  1  0  0  0  0
  9 24  1  0  0  0  0
  7  8  1  0  0  0  0
  7  9  1  0  0  0  0
 28 29  1  0  0  0  0
 28 30  1  0  0  0  0
 28 31  1  0  0  0  0
 26 27  1  0  0  0  0
 26 28  1  0  0  0  0
M  END
$$$$
default_name
  -OEChem-02102213163D

 31 30  0     1  0  0  0  0  0999 V2000
   -3.5895   -3.5013    1.1082 H   0  0  0  0  0  0  0  0  0  0  0  0
   -3.5145   -2.5363    0.6082 C   0  0  0  0  0  0  0  0  0  0  0  0
   -4.2285   -1.8413    1.0452 H   0  0  0  0  0  0  0  0  0  0  0  0
   -3.7155   -2.6583   -0.4538 H   0  0  0  0  0  0  0  0  0  0  0  0
   -2.1155   -1.9963    0.7922 C   0  0  0  0  0  0  0  0  0  0  0  0
   -1.2875   -2.6383    1.4252 O   0  0  0  0  0  0  0  0  0  0  0  0
   -1.8575   -0.8123    0.2402 N   0  0  0  0  0  0  0  0  0  0  0  0
   -2.6005   -0.3333   -0.2478 H   0  0  0  0  0  0  0  0  0  0  0  0
   -0.5675   -0.1203    0.3102 C   0  0  1  0  0  0  0  0  0  0  0  0
    0.0191   -0.5718    1.1110 H   0  0  0  0  0  0  0  0  0  0  0  0
    0.1724   -0.3238   -1.0286 C   0  0  0  0  0  0  0  0  0  0  0  0
   -0.4201    0.1281   -1.8265 H   0  0  0  0  0  0  0  0  0  0  0  0
    1.1209    0.2151   -0.9752 H   0  0  0  0  0  0  0  0  0  0  0  0
    0.4722   -1.7845   -1.4126 C   0  0  0  0  0  0  0  0  0  0  0  0
    0.1150   -2.4520   -0.6284 H   0  0  0  0  0  0  0  0  0  0  0  0
   -0.1815   -2.1805   -2.7396 C   0  0  0  0  0  0  0  0  0  0  0  0
    0.1541   -1.5106   -3.5324 H   0  0  0  0  0  0  0  0  0  0  0  0
    0.0970   -3.2031   -2.9953 H   0  0  0  0  0  0  0  0  0  0  0  0
   -1.2655   -2.1275   -2.6648 H   0  0  0  0  0  0  0  0  0  0  0  0
    1.9811   -1.9825   -1.5513 C   0  0  0  0  0  0  0  0  0  0  0  0
    2.4712   -1.7381   -0.6089 H   0  0  0  0  0  0  0  0  0  0  0  0
    2.1976   -3.0224   -1.7960 H   0  0  0  0  0  0  0  0  0  0  0  0
    2.3737   -1.3383   -2.3388 H   0  0  0  0  0  0  0  0  0  0  0  0
   -0.7793    1.3659    0.6455 C   0  0  0  0  0  0  0  0  0  0  0  0
   -1.6464    2.0125    0.0623 O   0  0  0  0  0  0  0  0  0  0  0  0
    0.0189    1.9059    1.5756 N   0  0  0  0  0  0  0  0  0  0  0  0
    0.7024    1.3094    2.0137 H   0  0  0  0  0  0  0  0  0  0  0  0
   -0.0451    3.3046    1.9929 C   0  0  0  0  0  0  0  0  0  0  0  0
   -1.0415    3.5286    2.3805 H   0  0  0  0  0  0  0  0  0  0  0  0
    0.6954    3.5023    2.7695 H   0  0  0  0  0  0  0  0  0  0  0  0
    0.1474    3.9536    1.1372 H   0  0  0  0  0  0  0  0  0  0  0  0
  5  6  2  0  0  0  0
  5  7  1  0  0  0  0
  2  3  1  0  0  0  0
  2  4  1  0  0  0  0
  2  5  1  0  0  0  0
  1  2  1  0  0  0  0
 24 25  2  0  0  0  0
 24 26  1  0  0  0  0
 20 21  1  0  0  0  0
 20 22  1  0  0  0  0
 20 23  1  0  0  0  0
 16 17  1  0  0  0  0
 16 18  1  0  0  0  0
 16 19  1  0  0  0  0
 14 15  1  0  0  0  0
 14 16  1  0  0  0  0
 14 20  1  0  0  0  0
 11 12  1  0  0  0  0
 11 13  1  0  0  0  0
 11 14  1  0  0  0  0
  9 10  1  0  0  0  0
  9 11  1  0  0  0  0
  9 24  1  0  0  0  0
  7  8  1  0  0  0  0
  7  9  1  0  0  0  0
 28 29  1  0  0  0  0
 28 30  1  0  0  0  0
 28 31  1  0  0  0  0
 26 27  1  0  0  0  0
 26 28  1  0  0  0  0
M  END
$$$$
default_name
  -OEChem-02102213163D

 31 30  0     1  0  0  0  0  0999 V2000
   -3.5895   -3.5013    1.1082 H   0  0  0  0  0  0  0  0  0  0  0  0
   -3.5145   -2.5363    0.6082 C   0  0  0  0  0  0  0  0  0  0  0  0
   -4.2285   -1.8413    1.0452 H   0  0  0  0  0  0  0  0  0  0  0  0
   -3.7155   -2.6583   -0.4538 H   0  0  0  0  0  0  0  0  0  0  0  0
   -2.1155   -1.9963    0.7922 C   0  0  0  0  0  0  0  0  0  0  0  0
   -1.2875   -2.6383    1.4252 O   0  0  0  0  0  0  0  0  0  0  0  0
   -1.8575   -0.8123    0.2402 N   0  0  0  0  0  0  0  0  0  0  0  0
   -2.6005   -0.3333   -0.2478 H   0  0  0  0  0  0  0  0  0  0  0  0
   -0.5675   -0.1203    0.3102 C   0  0  1  0  0  0  0  0  0  0  0  0
    0.0191   -0.5718    1.1110 H   0  0  0  0  0  0  0  0  0  0  0  0
    0.1724   -0.3238   -1.0286 C   0  0  0  0  0  0  0  0  0  0  0  0
   -0.4201    0.1281   -1.8265 H   0  0  0  0  0  0  0  0  0  0  0  0
    1.1209    0.2151   -0.9752 H   0  0  0  0  0  0  0  0  0  0  0  0
    0.4722   -1.7845   -1.4126 C   0  0  0  0  0  0  0  0  0  0  0  0
   -0.1060   -2.4576   -0.7796 H   0  0  0  0  0  0  0  0  0  0  0  0
    0.1449   -2.0767   -2.8798 C   0  0  0  0  0  0  0  0  0  0  0  0
    0.7045   -1.3992   -3.5262 H   0  0  0  0  0  0  0  0  0  0  0  0
    0.4179   -3.1047   -3.1192 H   0  0  0  0  0  0  0  0  0  0  0  0
   -0.9190   -1.9503   -3.0686 H   0  0  0  0  0  0  0  0  0  0  0  0
    1.9544   -2.0828   -1.1905 C   0  0  0  0  0  0  0  0  0  0  0  0
    2.2098   -1.9138   -0.1444 H   0  0  0  0  0  0  0  0  0  0  0  0
    2.1638   -3.1241   -1.4353 H   0  0  0  0  0  0  0  0  0  0  0  0
    2.5663   -1.4352   -1.8194 H   0  0  0  0  0  0  0  0  0  0  0  0
   -0.7793    1.3659    0.6455 C   0  0  0  0  0  0  0  0  0  0  0  0
   -1.6464    2.0125    0.0623 O   0  0  0  0  0  0  0  0  0  0  0  0
    0.0189    1.9059    1.5756 N   0  0  0  0  0  0  0  0  0  0  0  0
    0.7024    1.3094    2.0137 H   0  0  0  0  0  0  0  0  0  0  0  0
   -0.0451    3.3046    1.9929 C   0  0  0  0  0  0  0  0  0  0  0  0
   -1.0415    3.5286    2.3805 H   0  0  0  0  0  0  0  0  0  0  0  0
    0.6954    3.5023    2.7695 H   0  0  0  0  0  0  0  0  0  0  0  0
    0.1474    3.9536    1.1372 H   0  0  0  0  0  0  0  0  0  0  0  0
  5  6  2  0  0  0  0
  5  7  1  0  0  0  0
  2  3  1  0  0  0  0
  2  4  1  0  0  0  0
  2  5  1  0  0  0  0
  1  2  1  0  0  0  0
 24 25  2  0  0  0  0
 24 26  1  0  0  0  0
 20 21  1  0  0  0  0
 20 22  1  0  0  0  0
 20 23  1  0  0  0  0
 16 17  1  0  0  0  0
 16 18  1  0  0  0  0
 16 19  1  0  0  0  0
 14 15  1  0  0  0  0
 14 16  1  0  0  0  0
 14 20  1  0  0  0  0
 11 12  1  0  0  0  0
 11 13  1  0  0  0  0
 11 14  1  0  0  0  0
  9 10  1  0  0  0  0
  9 11  1  0  0  0  0
  9 24  1  0  0  0  0
  7  8  1  0  0  0  0
  7  9  1  0  0  0  0
 28 29  1  0  0  0  0
 28 30  1  0  0  0  0
 28 31  1  0  0  0  0
 26 27  1  0  0  0  0
 26 28  1  0  0  0  0
M  END
$$$$
default_name
  -OEChem-02102213163D

 31 30  0     1  0  0  0  0  0999 V2000
   -3.5895   -3.5013    1.1082 H   0  0  0  0  0  0  0  0  0  0  0  0
   -3.5145   -2.5363    0.6082 C   0  0  0  0  0  0  0  0  0  0  0  0
   -4.2285   -1.8413    1.0452 H   0  0  0  0  0  0  0  0  0  0  0  0
   -3.7155   -2.6583   -0.4538 H   0  0  0  0  0  0  0  0  0  0  0  0
   -2.1155   -1.9963    0.7922 C   0  0  0  0  0  0  0  0  0  0  0  0
   -1.2875   -2.6383    1.4252 O   0  0  0  0  0  0  0  0  0  0  0  0
   -1.8575   -0.8123    0.2402 N   0  0  0  0  0  0  0  0  0  0  0  0
   -2.6005   -0.3333   -0.2478 H   0  0  0  0  0  0  0  0  0  0  0  0
   -0.5675   -0.1203    0.3102 C   0  0  1  0  0  0  0  0  0  0  0  0
    0.0191   -0.5718    1.1110 H   0  0  0  0  0  0  0  0  0  0  0  0
    0.1724   -0.3238   -1.0286 C   0  0  0  0  0  0  0  0  0  0  0  0
   -0.4201    0.1281   -1.8265 H   0  0  0  0  0  0  0  0  0  0  0  0
    1.1209    0.2151   -0.9752 H   0  0  0  0  0  0  0  0  0  0  0  0
    0.4722   -1.7845   -1.4126 C   0  0  0  0  0  0  0  0  0  0  0  0
   -0.2827   -2.4412   -0.9801 H   0  0  0  0  0  0  0  0  0  0  0  0
    0.5013   -1.9904   -2.9298 C   0  0  0  0  0  0  0  0  0  0  0  0
    1.2418   -1.3275   -3.3795 H   0  0  0  0  0  0  0  0  0  0  0  0
    0.7646   -3.0241   -3.1550 H   0  0  0  0  0  0  0  0  0  0  0  0
   -0.4737   -1.7810   -3.3647 H   0  0  0  0  0  0  0  0  0  0  0  0
    1.8336   -2.1962   -0.8535 C   0  0  0  0  0  0  0  0  0  0  0  0
    1.8318   -2.0902    0.2313 H   0  0  0  0  0  0  0  0  0  0  0  0
    2.0359   -3.2384   -1.1004 H   0  0  0  0  0  0  0  0  0  0  0  0
    2.6186   -1.5675   -1.2753 H   0  0  0  0  0  0  0  0  0  0  0  0
   -0.7793    1.3659    0.6455 C   0  0  0  0  0  0  0  0  0  0  0  0
   -1.6464    2.0125    0.0623 O   0  0  0  0  0  0  0  0  0  0  0  0
    0.0189    1.9059    1.5756 N   0  0  0  0  0  0  0  0  0  0  0  0
    0.7024    1.3094    2.0137 H   0  0  0  0  0  0  0  0  0  0  0  0
   -0.0451    3.3046    1.9929 C   0  0  0  0  0  0  0  0  0  0  0  0
   -1.0415    3.5286    2.3805 H   0  0  0  0  0  0  0  0  0  0  0  0
    0.6954    3.5023    2.7695 H   0  0  0  0  0  0  0  0  0  0  0  0
    0.1474    3.9536    1.1372 H   0  0  0  0  0  0  0  0  0  0  0  0
  5  6  2  0  0  0  0
  5  7  1  0  0  0  0
  2  3  1  0  0  0  0
  2  4  1  0  0  0  0
  2  5  1  0  0  0  0
  1  2  1  0  0  0  0
 24 25  2  0  0  0  0
 24 26  1  0  0  0  0
 20 21  1  0  0  0  0
 20 22  1  0  0  0  0
 20 23  1  0  0  0  0
 16 17  1  0  0  0  0
 16 18  1  0  0  0  0
 16 19  1  0  0  0  0
 14 15  1  0  0  0  0
 14 16  1  0  0  0  0
 14 20  1  0  0  0  0
 11 12  1  0  0  0  0
 11 13  1  0  0  0  0
 11 14  1  0  0  0  0
  9 10  1  0  0  0  0
  9 11  1  0  0  0  0
  9 24  1  0  0  0  0
  7  8  1  0  0  0  0
  7  9  1  0  0  0  0
 28 29  1  0  0  0  0
 28 30  1  0  0  0  0
 28 31  1  0  0  0  0
 26 27  1  0  0  0  0
 26 28  1  0  0  0  0
M  END
$$$$
default_name
  -OEChem-02102213163D

 31 30  0     1  0  0  0  0  0999 V2000
   -3.5895   -3.5013    1.1082 H   0  0  0  0  0  0  0  0  0  0  0  0
   -3.5145   -2.5363    0.6082 C   0  0  0  0  0  0  0  0  0  0  0  0
   -4.2285   -1.8413    1.0452 H   0  0  0  0  0  0  0  0  0  0  0  0
   -3.7155   -2.6583   -0.4538 H   0  0  0  0  0  0  0  0  0  0  0  0
   -2.1155   -1.9963    0.7922 C   0  0  0  0  0  0  0  0  0  0  0  0
   -1.2875   -2.6383    1.4252 O   0  0  0  0  0  0  0  0  0  0  0  0
   -1.8575   -0.8123    0.2402 N   0  0  0  0  0  0  0  0  0  0  0  0
   -2.6005   -0.3333   -0.2478 H   0  0  0  0  0  0  0  0  0  0  0  0
   -0.5675   -0.1203    0.3102 C   0  0  1  0  0  0  0  0  0  0  0  0
    0.0191   -0.5718    1.1110 H   0  0  0  0  0  0  0  0  0  0  0  0
    0.1724   -0.3238   -1.0286 C   0  0  0  0  0  0  0  0  0  0  0  0
   -0.4201    0.1281   -1.8265 H   0  0  0  0  0  0  0  0  0  0  0  0
    1.1209    0.2151   -0.9752 H   0  0  0  0  0  0  0  0  0  0  0  0
    0.4722   -1.7845   -1.4126 C   0  0  0  0  0  0  0  0  0  0  0  0
   -0.4031   -2.4038   -1.2164 H   0  0  0  0  0  0  0  0  0  0  0  0
    0.8634   -1.9275   -2.8863 C   0  0  0  0  0  0  0  0  0  0  0  0
    1.7293   -1.3003   -3.1023 H   0  0  0  0  0  0  0  0  0  0  0  0
    1.1135   -2.9668   -3.1005 H   0  0  0  0  0  0  0  0  0  0  0  0
    0.0400   -1.6314   -3.5327 H   0  0  0  0  0  0  0  0  0  0  0  0
    1.6268   -2.3149   -0.5634 C   0  0  0  0  0  0  0  0  0  0  0  0
    1.3631   -2.2550    0.4924 H   0  0  0  0  0  0  0  0  0  0  0  0
    1.8228   -3.3574   -0.8140 H   0  0  0  0  0  0  0  0  0  0  0  0
    2.5269   -1.7261   -0.7436 H   0  0  0  0  0  0  0  0  0  0  0  0
   -0.7793    1.3659    0.6455 C   0  0  0  0  0  0  0  0  0  0  0  0
   -1.6464    2.0125    0.0623 O   0  0  0  0  0  0  0  0  0  0  0  0
    0.0189    1.9059    1.5756 N   0  0  0  0  0  0  0  0  0  0  0  0
    0.7024    1.3094    2.0137 H   0  0  0  0  0  0  0  0  0  0  0  0
   -0.0451    3.3046    1.9929 C   0  0  0  0  0  0  0  0  0  0  0  0
   -1.0415    3.5286    2.3805 H   0  0  0  0  0  0  0  0  0  0  0  0
    0.6954    3.5023    2.7695 H   0  0  0  0  0  0  0  0  0  0  0  0
    0.1474    3.9536    1.1372 H   0  0  0  0  0  0  0  0  0  0  0  0
  5  6  2  0  0  0  0
  5  7  1  0  0  0  0
  2  3  1  0  0  0  0
  2  4  1  0  0  0  0
  2  5  1  0  0  0  0
  1  2  1  0  0  0  0
 24 25  2  0  0  0  0
 24 26  1  0  0  0  0
 20 21  1  0  0  0  0
 20 22  1  0  0  0  0
 20 23  1  0  0  0  0
 16 17  1  0  0  0  0
 16 18  1  0  0  0  0
 16 19  1  0  0  0  0
 14 15  1  0  0  0  0
 14 16  1  0  0  0  0
 14 20  1  0  0  0  0
 11 12  1  0  0  0  0
 11 13  1  0  0  0  0
 11 14  1  0  0  0  0
  9 10  1  0  0  0  0
  9 11  1  0  0  0  0
  9 24  1  0  0  0  0
  7  8  1  0  0  0  0
  7  9  1  0  0  0  0
 28 29  1  0  0  0  0
 28 30  1  0  0  0  0
 28 31  1  0  0  0  0
 26 27  1  0  0  0  0
 26 28  1  0  0  0  0
M  END
$$$$
default_name
  -OEChem-02102213163D

 31 30  0     1  0  0  0  0  0999 V2000
   -3.5895   -3.5013    1.1082 H   0  0  0  0  0  0  0  0  0  0  0  0
   -3.5145   -2.5363    0.6082 C   0  0  0  0  0  0  0  0  0  0  0  0
   -4.2285   -1.8413    1.0452 H   0  0  0  0  0  0  0  0  0  0  0  0
   -3.7155   -2.6583   -0.4538 H   0  0  0  0  0  0  0  0  0  0  0  0
   -2.1155   -1.9963    0.7922 C   0  0  0  0  0  0  0  0  0  0  0  0
   -1.2875   -2.6383    1.4252 O   0  0  0  0  0  0  0  0  0  0  0  0
   -1.8575   -0.8123    0.2402 N   0  0  0  0  0  0  0  0  0  0  0  0
   -2.6005   -0.3333   -0.2478 H   0  0  0  0  0  0  0  0  0  0  0  0
   -0.5675   -0.1203    0.3102 C   0  0  1  0  0  0  0  0  0  0  0  0
    0.0191   -0.5718    1.1110 H   0  0  0  0  0  0  0  0  0  0  0  0
    0.1724   -0.3238   -1.0286 C   0  0  0  0  0  0  0  0  0  0  0  0
   -0.2655    0.3431   -1.7738 H   0  0  0  0  0  0  0  0  0  0  0  0
    1.2133   -0.0244   -0.8877 H   0  0  0  0  0  0  0  0  0  0  0  0
    0.1580   -1.7574   -1.5903 C   0  0  0  0  0  0  0  0  0  0  0  0
   -0.8711   -2.0837   -1.7403 H   0  0  0  0  0  0  0  0  0  0  0  0
    0.9138   -1.8671   -2.9177 C   0  0  0  0  0  0  0  0  0  0  0  0
    1.9425   -1.5283   -2.7875 H   0  0  0  0  0  0  0  0  0  0  0  0
    0.9198   -2.9048   -3.2521 H   0  0  0  0  0  0  0  0  0  0  0  0
    0.4345   -1.2614   -3.6838 H   0  0  0  0  0  0  0  0  0  0  0  0
    0.8155   -2.7096   -0.5920 C   0  0  0  0  0  0  0  0  0  0  0  0
    0.2774   -2.6764    0.3553 H   0  0  0  0  0  0  0  0  0  0  0  0
    0.7818   -3.7295   -0.9751 H   0  0  0  0  0  0  0  0  0  0  0  0
    1.8541   -2.4215   -0.4262 H   0  0  0  0  0  0  0  0  0  0  0  0
   -0.7793    1.3659    0.6455 C   0  0  0  0  0  0  0  0  0  0  0  0
   -1.6464    2.0125    0.0623 O   0  0  0  0  0  0  0  0  0  0  0  0
    0.0189    1.9059    1.5756 N   0  0  0  0  0  0  0  0  0  0  0  0
    0.7024    1.3094    2.0137 H   0  0  0  0  0  0  0  0  0  0  0  0
   -0.0451    3.3046    1.9929 C   0  0  0  0  0  0  0  0  0  0  0  0
   -1.0415    3.5286    2.3805 H   0  0  0  0  0  0  0  0  0  0  0  0
    0.6954    3.5023    2.7695 H   0  0  0  0  0  0  0  0  0  0  0  0
    0.1474    3.9536    1.1372 H   0  0  0  0  0  0  0  0  0  0  0  0
  5  6  2  0  0  0  0
  5  7  1  0  0  0  0
  2  3  1  0  0  0  0
  2  4  1  0  0  0  0
  2  5  1  0  0  0  0
  1  2  1  0  0  0  0
 24 25  2  0  0  0  0
 24 26  1  0  0  0  0
 20 21  1  0  0  0  0
 20 22  1  0  0  0  0
 20 23  1  0  0  0  0
 16 17  1  0  0  0  0
 16 18  1  0  0  0  0
 16 19  1  0  0  0  0
 14 15  1  0  0  0  0
 14 16  1  0  0  0  0
 14 20  1  0  0  0  0
 11 12  1  0  0  0  0
 11 13  1  0  0  0  0
 11 14  1  0  0  0  0
  9 10  1  0  0  0  0
  9 11  1  0  0  0  0
  9 24  1  0  0  0  0
  7  8  1  0  0  0  0
  7  9  1  0  0  0  0
 28 29  1  0  0  0  0
 28 30  1  0  0  0  0
 28 31  1  0  0  0  0
 26 27  1  0  0  0  0
 26 28  1  0  0  0  0
M  END
$$$$
default_name
  -OEChem-02102213163D

 31 30  0     1  0  0  0  0  0999 V2000
   -3.5895   -3.5013    1.1082 H   0  0  0  0  0  0  0  0  0  0  0  0
   -3.5145   -2.5363    0.6082 C   0  0  0  0  0  0  0  0  0  0  0  0
   -4.2285   -1.8413    1.0452 H   0  0  0  0  0  0  0  0  0  0  0  0
   -3.7155   -2.6583   -0.4538 H   0  0  0  0  0  0  0  0  0  0  0  0
   -2.1155   -1.9963    0.7922 C   0  0  0  0  0  0  0  0  0  0  0  0
   -1.2875   -2.6383    1.4252 O   0  0  0  0  0  0  0  0  0  0  0  0
   -1.8575   -0.8123    0.2402 N   0  0  0  0  0  0  0  0  0  0  0  0
   -2.6005   -0.3333   -0.2478 H   0  0  0  0  0  0  0  0  0  0  0  0
   -0.5675   -0.1203    0.3102 C   0  0  1  0  0  0  0  0  0  0  0  0
    0.0191   -0.5718    1.1110 H   0  0  0  0  0  0  0  0  0  0  0  0
    0.1724   -0.3238   -1.0286 C   0  0  0  0  0  0  0  0  0  0  0  0
   -0.2655    0.3431   -1.7738 H   0  0  0  0  0  0  0  0  0  0  0  0
    1.2133   -0.0244   -0.8877 H   0  0  0  0  0  0  0  0  0  0  0  0
    0.1580   -1.7574   -1.5903 C   0  0  0  0  0  0  0  0  0  0  0  0
   -0.8308   -1.9875   -1.9870 H   0  0  0  0  0  0  0  0  0  0  0  0
    1.1974   -1.9563   -2.6973 C   0  0  0  0  0  0  0  0  0  0  0  0
    2.1917   -1.7141   -2.3198 H   0  0  0  0  0  0  0  0  0  0  0  0
    1.1854   -2.9945   -3.0299 H   0  0  0  0  0  0  0  0  0  0  0  0
    0.9763   -1.3190   -3.5508 H   0  0  0  0  0  0  0  0  0  0  0  0
    0.4624   -2.7532   -0.4717 C   0  0  0  0  0  0  0  0  0  0  0  0
   -0.2823   -2.6563    0.3182 H   0  0  0  0  0  0  0  0  0  0  0  0
    0.4256   -3.7706   -0.8610 H   0  0  0  0  0  0  0  0  0  0  0  0
    1.4531   -2.5619   -0.0578 H   0  0  0  0  0  0  0  0  0  0  0  0
   -0.7793    1.3659    0.6455 C   0  0  0  0  0  0  0  0  0  0  0  0
   -1.6464    2.0125    0.0623 O   0  0  0  0  0  0  0  0  0  0  0  0
    0.0189    1.9059    1.5756 N   0  0  0  0  0  0  0  0  0  0  0  0
    0.7024    1.3094    2.0137 H   0  0  0  0  0  0  0  0  0  0  0  0
   -0.0451    3.3046    1.9929 C   0  0  0  0  0  0  0  0  0  0  0  0
   -1.0415    3.5286    2.3805 H   0  0  0  0  0  0  0  0  0  0  0  0
    0.6954    3.5023    2.7695 H   0  0  0  0  0  0  0  0  0  0  0  0
    0.1474    3.9536    1.1372 H   0  0  0  0  0  0  0  0  0  0  0  0
  5  6  2  0  0  0  0
  5  7  1  0  0  0  0
  2  3  1  0  0  0  0
  2  4  1  0  0  0  0
  2  5  1  0  0  0  0
  1  2  1  0  0  0  0
 24 25  2  0  0  0  0
 24 26  1  0  0  0  0
 20 21  1  0  0  0  0
 20 22  1  0  0  0  0
 20 23  1  0  0  0  0
 16 17  1  0  0  0  0
 16 18  1  0  0  0  0
 16 19  1  0  0  0  0
 14 15  1  0  0  0  0
 14 16  1  0  0  0  0
 14 20  1  0  0  0  0
 11 12  1  0  0  0  0
 11 13  1  0  0  0  0
 11 14  1  0  0  0  0
  9 10  1  0  0  0  0
  9 11  1  0  0  0  0
  9 24  1  0  0  0  0
  7  8  1  0  0  0  0
  7  9  1  0  0  0  0
 28 29  1  0  0  0  0
 28 30  1  0  0  0  0
 28 31  1  0  0  0  0
 26 27  1  0  0  0  0
 26 28  1  0  0  0  0
M  END
$$$$
default_name
  -OEChem-02102213163D

 31 30  0     1  0  0  0  0  0999 V2000
   -3.5895   -3.5013    1.1082 H   0  0  0  0  0  0  0  0  0  0  0  0
   -3.5145   -2.5363    0.6082 C   0  0  0  0  0  0  0  0  0  0  0  0
   -4.2285   -1.8413    1.0452 H   0  0  0  0  0  0  0  0  0  0  0  0
   -3.7155   -2.6583   -0.4538 H   0  0  0  0  0  0  0  0  0  0  0  0
   -2.1155   -1.9963    0.7922 C   0  0  0  0  0  0  0  0  0  0  0  0
   -1.2875   -2.6383    1.4252 O   0  0  0  0  0  0  0  0  0  0  0  0
   -1.8575   -0.8123    0.2402 N   0  0  0  0  0  0  0  0  0  0  0  0
   -2.6005   -0.3333   -0.2478 H   0  0  0  0  0  0  0  0  0  0  0  0
   -0.5675   -0.1203    0.3102 C   0  0  1  0  0  0  0  0  0  0  0  0
    0.0191   -0.5718    1.1110 H   0  0  0  0  0  0  0  0  0  0  0  0
    0.1724   -0.3238   -1.0286 C   0  0  0  0  0  0  0  0  0  0  0  0
   -0.2655    0.3431   -1.7738 H   0  0  0  0  0  0  0  0  0  0  0  0
    1.2133   -0.0244   -0.8877 H   0  0  0  0  0  0  0  0  0  0  0  0
    0.1580   -1.7574   -1.5903 C   0  0  0  0  0  0  0  0  0  0  0  0
   -0.7234   -1.8989   -2.2158 H   0  0  0  0  0  0  0  0  0  0  0  0
    1.4097   -2.0687   -2.4159 C   0  0  0  0  0  0  0  0  0  0  0  0
    2.3022   -1.9159   -1.8075 H   0  0  0  0  0  0  0  0  0  0  0  0
    1.3800   -3.1057   -2.7510 H   0  0  0  0  0  0  0  0  0  0  0  0
    1.4622   -1.4254   -3.2916 H   0  0  0  0  0  0  0  0  0  0  0  0
    0.0883   -2.7617   -0.4405 C   0  0  0  0  0  0  0  0  0  0  0  0
   -0.8121   -2.5841    0.1474 H   0  0  0  0  0  0  0  0  0  0  0  0
    0.0502   -3.7765   -0.8365 H   0  0  0  0  0  0  0  0  0  0  0  0
    0.9637   -2.6587    0.2018 H   0  0  0  0  0  0  0  0  0  0  0  0
   -0.7793    1.3659    0.6455 C   0  0  0  0  0  0  0  0  0  0  0  0
   -1.6464    2.0125    0.0623 O   0  0  0  0  0  0  0  0  0  0  0  0
    0.0189    1.9059    1.5756 N   0  0  0  0  0  0  0  0  0  0  0  0
    0.7024    1.3094    2.0137 H   0  0  0  0  0  0  0  0  0  0  0  0
   -0.0451    3.3046    1.9929 C   0  0  0  0  0  0  0  0  0  0  0  0
   -1.0415    3.5286    2.3805 H   0  0  0  0  0  0  0  0  0  0  0  0
    0.6954    3.5023    2.7695 H   0  0  0  0  0  0  0  0  0  0  0  0
    0.1474    3.9536    1.1372 H   0  0  0  0  0  0  0  0  0  0  0  0
  5  6  2  0  0  0  0
  5  7  1  0  0  0  0
  2  3  1  0  0  0  0
  2  4  1  0  0  0  0
  2  5  1  0  0  0  0
  1  2  1  0  0  0  0
 24 25  2  0  0  0  0
 24 26  1  0  0  0  0
 20 21  1  0  0  0  0
 20 22  1  0  0  0  0
 20 23  1  0  0  0  0
 16 17  1  0  0  0  0
 16 18  1  0  0  0  0
 16 19  1  0  0  0  0
 14 15  1  0  0  0  0
 14 16  1  0  0  0  0
 14 20  1  0  0  0  0
 11 12  1  0  0  0  0
 11 13  1  0  0  0  0
 11 14  1  0  0  0  0
  9 10  1  0  0  0  0
  9 11  1  0  0  0  0
  9 24  1  0  0  0  0
  7  8  1  0  0  0  0
  7  9  1  0  0  0  0
 28 29  1  0  0  0  0
 28 30  1  0  0  0  0
 28 31  1  0  0  0  0
 26 27  1  0  0  0  0
 26 28  1  0  0  0  0
M  END
$$$$
default_name
  -OEChem-02102213163D

 31 30  0     1  0  0  0  0  0999 V2000
   -3.5895   -3.5013    1.1082 H   0  0  0  0  0  0  0  0  0  0  0  0
   -3.5145   -2.5363    0.6082 C   0  0  0  0  0  0  0  0  0  0  0  0
   -4.2285   -1.8413    1.0452 H   0  0  0  0  0  0  0  0  0  0  0  0
   -3.7155   -2.6583   -0.4538 H   0  0  0  0  0  0  0  0  0  0  0  0
   -2.1155   -1.9963    0.7922 C   0  0  0  0  0  0  0  0  0  0  0  0
   -1.2875   -2.6383    1.4252 O   0  0  0  0  0  0  0  0  0  0  0  0
   -1.8575   -0.8123    0.2402 N   0  0  0  0  0  0  0  0  0  0  0  0
   -2.6005   -0.3333   -0.2478 H   0  0  0  0  0  0  0  0  0  0  0  0
   -0.5675   -0.1203    0.3102 C   0  0  1  0  0  0  0  0  0  0  0  0
    0.0191   -0.5718    1.1110 H   0  0  0  0  0  0  0  0  0  0  0  0
    0.1724   -0.3238   -1.0286 C   0  0  0  0  0  0  0  0  0  0  0  0
   -0.2655    0.3431   -1.7738 H   0  0  0  0  0  0  0  0  0  0  0  0
    1.2133   -0.0244   -0.8877 H   0  0  0  0  0  0  0  0  0  0  0  0
    0.1580   -1.7574   -1.5903 C   0  0  0  0  0  0  0  0  0  0  0  0
   -0.5561   -1.8241   -2.4111 H   0  0  0  0  0  0  0  0  0  0  0  0
    1.5365   -2.1966   -2.0925 C   0  0  0  0  0  0  0  0  0  0  0  0
    2.2665   -2.1200   -1.2856 H   0  0  0  0  0  0  0  0  0  0  0  0
    1.4902   -3.2308   -2.4344 H   0  0  0  0  0  0  0  0  0  0  0  0
    1.8589   -1.5734   -2.9239 H   0  0  0  0  0  0  0  0  0  0  0  0
   -0.2813   -2.7345   -0.5005 C   0  0  0  0  0  0  0  0  0  0  0  0
   -1.2759   -2.4647   -0.1454 H   0  0  0  0  0  0  0  0  0  0  0  0
   -0.3189   -3.7466   -0.9032 H   0  0  0  0  0  0  0  0  0  0  0  0
    0.4192   -2.7053    0.3348 H   0  0  0  0  0  0  0  0  0  0  0  0
   -0.7793    1.3659    0.6455 C   0  0  0  0  0  0  0  0  0  0  0  0
   -1.6464    2.0125    0.0623 O   0  0  0  0  0  0  0  0  0  0  0  0
    0.0189    1.9059    1.5756 N   0  0  0  0  0  0  0  0  0  0  0  0
    0.7024    1.3094    2.0137 H   0  0  0  0  0  0  0  0  0  0  0  0
   -0.0451    3.3046    1.9929 C   0  0  0  0  0  0  0  0  0  0  0  0
   -1.0415    3.5286    2.3805 H   0  0  0  0  0  0  0  0  0  0  0  0
    0.6954    3.5023    2.7695 H   0  0  0  0  0  0  0  0  0  0  0  0
    0.1474    3.9536    1.1372 H   0  0  0  0  0  0  0  0  0  0  0  0
  5  6  2  0  0  0  0
  5  7  1  0  0  0  0
  2  3  1  0  0  0  0
  2  4  1  0  0  0  0
  2  5  1  0  0  0  0
  1  2  1  0  0  0  0
 24 25  2  0  0  0  0
 24 26  1  0  0  0  0
 20 21  1  0  0  0  0
 20 22  1  0  0  0  0
 20 23  1  0  0  0  0
 16 17  1  0  0  0  0
 16 18  1  0  0  0  0
 16 19  1  0  0  0  0
 14 15  1  0  0  0  0
 14 16  1  0  0  0  0
 14 20  1  0  0  0  0
 11 12  1  0  0  0  0
 11 13  1  0  0  0  0
 11 14  1  0  0  0  0
  9 10  1  0  0  0  0
  9 11  1  0  0  0  0
  9 24  1  0  0  0  0
  7  8  1  0  0  0  0
  7  9  1  0  0  0  0
 28 29  1  0  0  0  0
 28 30  1  0  0  0  0
 28 31  1  0  0  0  0
 26 27  1  0  0  0  0
 26 28  1  0  0  0  0
M  END
$$$$
default_name
  -OEChem-02102213163D

 31 30  0     1  0  0  0  0  0999 V2000
   -3.5895   -3.5013    1.1082 H   0  0  0  0  0  0  0  0  0  0  0  0
   -3.5145   -2.5363    0.6082 C   0  0  0  0  0  0  0  0  0  0  0  0
   -4.2285   -1.8413    1.0452 H   0  0  0  0  0  0  0  0  0  0  0  0
   -3.7155   -2.6583   -0.4538 H   0  0  0  0  0  0  0  0  0  0  0  0
   -2.1155   -1.9963    0.7922 C   0  0  0  0  0  0  0  0  0  0  0  0
   -1.2875   -2.6383    1.4252 O   0  0  0  0  0  0  0  0  0  0  0  0
   -1.8575   -0.8123    0.2402 N   0  0  0  0  0  0  0  0  0  0  0  0
   -2.6005   -0.3333   -0.2478 H   0  0  0  0  0  0  0  0  0  0  0  0
   -0.5675   -0.1203    0.3102 C   0  0  1  0  0  0  0  0  0  0  0  0
    0.0191   -0.5718    1.1110 H   0  0  0  0  0  0  0  0  0  0  0  0
    0.1724   -0.3238   -1.0286 C   0  0  0  0  0  0  0  0  0  0  0  0
   -0.2655    0.3431   -1.7738 H   0  0  0  0  0  0  0  0  0  0  0  0
    1.2133   -0.0244   -0.8877 H   0  0  0  0  0  0  0  0  0  0  0  0
    0.1580   -1.7574   -1.5903 C   0  0  0  0  0  0  0  0  0  0  0  0
   -0.3404   -1.7680   -2.5596 H   0  0  0  0  0  0  0  0  0  0  0  0
    1.5689   -2.3314   -1.7494 C   0  0  0  0  0  0  0  0  0  0  0  0
    2.0870   -2.3125   -0.7896 H   0  0  0  0  0  0  0  0  0  0  0  0
    1.5086   -3.3613   -2.1018 H   0  0  0  0  0  0  0  0  0  0  0  0
    2.1396   -1.7530   -2.4727 H   0  0  0  0  0  0  0  0  0  0  0  0
   -0.6214   -2.6735   -0.6475 C   0  0  0  0  0  0  0  0  0  0  0  0
   -1.6420   -2.3064   -0.5402 H   0  0  0  0  0  0  0  0  0  0  0  0
   -0.6566   -3.6831   -1.0567 H   0  0  0  0  0  0  0  0  0  0  0  0
   -0.1431   -2.6987    0.3323 H   0  0  0  0  0  0  0  0  0  0  0  0
   -0.7793    1.3659    0.6455 C   0  0  0  0  0  0  0  0  0  0  0  0
   -1.6464    2.0125    0.0623 O   0  0  0  0  0  0  0  0  0  0  0  0
    0.0189    1.9059    1.5756 N   0  0  0  0  0  0  0  0  0  0  0  0
    0.7024    1.3094    2.0137 H   0  0  0  0  0  0  0  0  0  0  0  0
   -0.0451    3.3046    1.9929 C   0  0  0  0  0  0  0  0  0  0  0  0
   -1.0415    3.5286    2.3805 H   0  0  0  0  0  0  0  0  0  0  0  0
    0.6954    3.5023    2.7695 H   0  0  0  0  0  0  0  0  0  0  0  0
    0.1474    3.9536    1.1372 H   0  0  0  0  0  0  0  0  0  0  0  0
  5  6  2  0  0  0  0
  5  7  1  0  0  0  0
  2  3  1  0  0  0  0
  2  4  1  0  0  0  0
  2  5  1  0  0  0  0
  1  2  1  0  0  0  0
 24 25  2  0  0  0  0
 24 26  1  0  0  0  0
 20 21  1  0  0  0  0
 20 22  1  0  0  0  0
 20 23  1  0  0  0  0
 16 17  1  0  0  0  0
 16 18  1  0  0  0  0
 16 19  1  0  0  0  0
 14 15  1  0  0  0  0
 14 16  1  0  0  0  0
 14 20  1  0  0  0  0
 11 12  1  0  0  0  0
 11 13  1  0  0  0  0
 11 14  1  0  0  0  0
  9 10  1  0  0  0  0
  9 11  1  0  0  0  0
  9 24  1  0  0  0  0
  7  8  1  0  0  0  0
  7  9  1  0  0  0  0
 28 29  1  0  0  0  0
 28 30  1  0  0  0  0
 28 31  1  0  0  0  0
 26 27  1  0  0  0  0
 26 28  1  0  0  0  0
M  END
$$$$
default_name
  -OEChem-02102213163D

 31 30  0     1  0  0  0  0  0999 V2000
   -3.5895   -3.5013    1.1082 H   0  0  0  0  0  0  0  0  0  0  0  0
   -3.5145   -2.5363    0.6082 C   0  0  0  0  0  0  0  0  0  0  0  0
   -4.2285   -1.8413    1.0452 H   0  0  0  0  0  0  0  0  0  0  0  0
   -3.7155   -2.6583   -0.4538 H   0  0  0  0  0  0  0  0  0  0  0  0
   -2.1155   -1.9963    0.7922 C   0  0  0  0  0  0  0  0  0  0  0  0
   -1.2875   -2.6383    1.4252 O   0  0  0  0  0  0  0  0  0  0  0  0
   -1.8575   -0.8123    0.2402 N   0  0  0  0  0  0  0  0  0  0  0  0
   -2.6005   -0.3333   -0.2478 H   0  0  0  0  0  0  0  0  0  0  0  0
   -0.5675   -0.1203    0.3102 C   0  0  1  0  0  0  0  0  0  0  0  0
    0.0191   -0.5718    1.1110 H   0  0  0  0  0  0  0  0  0  0  0  0
    0.1724   -0.3238   -1.0286 C   0  0  0  0  0  0  0  0  0  0  0  0
   -0.2655    0.3431   -1.7738 H   0  0  0  0  0  0  0  0  0  0  0  0
    1.2133   -0.0244   -0.8877 H   0  0  0  0  0  0  0  0  0  0  0  0
    0.1580   -1.7574   -1.5903 C   0  0  0  0  0  0  0  0  0  0  0  0
   -0.0909   -1.7346   -2.6512 H   0  0  0  0  0  0  0  0  0  0  0  0
    1.5048   -2.4638   -1.4098 C   0  0  0  0  0  0  0  0  0  0  0  0
    1.7758   -2.4804   -0.3533 H   0  0  0  0  0  0  0  0  0  0  0  0
    1.4339   -3.4883   -1.7758 H   0  0  0  0  0  0  0  0  0  0  0  0
    2.2851   -1.9519   -1.9689 H   0  0  0  0  0  0  0  0  0  0  0  0
   -0.9086   -2.5828   -0.8717 C   0  0  0  0  0  0  0  0  0  0  0  0
   -1.8856   -2.1198   -1.0102 H   0  0  0  0  0  0  0  0  0  0  0  0
   -0.9397   -3.5902   -1.2865 H   0  0  0  0  0  0  0  0  0  0  0  0
   -0.6851   -2.6392    0.1942 H   0  0  0  0  0  0  0  0  0  0  0  0
   -0.7793    1.3659    0.6455 C   0  0  0  0  0  0  0  0  0  0  0  0
   -1.6464    2.0125    0.0623 O   0  0  0  0  0  0  0  0  0  0  0  0
    0.0189    1.9059    1.5756 N   0  0  0  0  0  0  0  0  0  0  0  0
    0.7024    1.3094    2.0137 H   0  0  0  0  0  0  0  0  0  0  0  0
   -0.0451    3.3046    1.9929 C   0  0  0  0  0  0  0  0  0  0  0  0
   -1.0415    3.5286    2.3805 H   0  0  0  0  0  0  0  0  0  0  0  0
    0.6954    3.5023    2.7695 H   0  0  0  0  0  0  0  0  0  0  0  0
    0.1474    3.9536    1.1372 H   0  0  0  0  0  0  0  0  0  0  0  0
  5  6  2  0  0  0  0
  5  7  1  0  0  0  0
  2  3  1  0  0  0  0
  2  4  1  0  0  0  0
  2  5  1  0  0  0  0
  1  2  1  0  0  0  0
 24 25  2  0  0  0  0
 24 26  1  0  0  0  0
 20 21  1  0  0  0  0
 20 22  1  0  0  0  0
 20 23  1  0  0  0  0
 16 17  1  0  0  0  0
 16 18  1  0  0  0  0
 16 19  1  0  0  0  0
 14 15  1  0  0  0  0
 14 16  1  0  0  0  0
 14 20  1  0  0  0  0
 11 12  1  0  0  0  0
 11 13  1  0  0  0  0
 11 14  1  0  0  0  0
  9 10  1  0  0  0  0
  9 11  1  0  0  0  0
  9 24  1  0  0  0  0
  7  8  1  0  0  0  0
  7  9  1  0  0  0  0
 28 29  1  0  0  0  0
 28 30  1  0  0  0  0
 28 31  1  0  0  0  0
 26 27  1  0  0  0  0
 26 28  1  0  0  0  0
M  END
$$$$
default_name
  -OEChem-02102213163D

 31 30  0     1  0  0  0  0  0999 V2000
   -3.5895   -3.5013    1.1082 H   0  0  0  0  0  0  0  0  0  0  0  0
   -3.5145   -2.5363    0.6082 C   0  0  0  0  0  0  0  0  0  0  0  0
   -4.2285   -1.8413    1.0452 H   0  0  0  0  0  0  0  0  0  0  0  0
   -3.7155   -2.6583   -0.4538 H   0  0  0  0  0  0  0  0  0  0  0  0
   -2.1155   -1.9963    0.7922 C   0  0  0  0  0  0  0  0  0  0  0  0
   -1.2875   -2.6383    1.4252 O   0  0  0  0  0  0  0  0  0  0  0  0
   -1.8575   -0.8123    0.2402 N   0  0  0  0  0  0  0  0  0  0  0  0
   -2.6005   -0.3333   -0.2478 H   0  0  0  0  0  0  0  0  0  0  0  0
   -0.5675   -0.1203    0.3102 C   0  0  1  0  0  0  0  0  0  0  0  0
    0.0191   -0.5718    1.1110 H   0  0  0  0  0  0  0  0  0  0  0  0
    0.1724   -0.3238   -1.0286 C   0  0  0  0  0  0  0  0  0  0  0  0
   -0.2655    0.3431   -1.7738 H   0  0  0  0  0  0  0  0  0  0  0  0
    1.2133   -0.0244   -0.8877 H   0  0  0  0  0  0  0  0  0  0  0  0
    0.1580   -1.7574   -1.5903 C   0  0  0  0  0  0  0  0  0  0  0  0
    0.1753   -1.7261   -2.6797 H   0  0  0  0  0  0  0  0  0  0  0  0
    1.3485   -2.5848   -1.0969 C   0  0  0  0  0  0  0  0  0  0  0  0
    1.3543   -2.6120   -0.0064 H   0  0  0  0  0  0  0  0  0  0  0  0
    1.2712   -3.6031   -1.4786 H   0  0  0  0  0  0  0  0  0  0  0  0
    2.2854   -2.1565   -1.4467 H   0  0  0  0  0  0  0  0  0  0  0  0
   -1.1236   -2.4686   -1.1576 C   0  0  0  0  0  0  0  0  0  0  0  0
   -1.9900   -1.9177   -1.5234 H   0  0  0  0  0  0  0  0  0  0  0  0
   -1.1490   -3.4744   -1.5769 H   0  0  0  0  0  0  0  0  0  0  0  0
   -1.1697   -2.5309   -0.0698 H   0  0  0  0  0  0  0  0  0  0  0  0
   -0.7793    1.3659    0.6455 C   0  0  0  0  0  0  0  0  0  0  0  0
   -1.6464    2.0125    0.0623 O   0  0  0  0  0  0  0  0  0  0  0  0
    0.0189    1.9059    1.5756 N   0  0  0  0  0  0  0  0  0  0  0  0
    0.7024    1.3094    2.0137 H   0  0  0  0  0  0  0  0  0  0  0  0
   -0.0451    3.3046    1.9929 C   0  0  0  0  0  0  0  0  0  0  0  0
   -1.0415    3.5286    2.3805 H   0  0  0  0  0  0  0  0  0  0  0  0
    0.6954    3.5023    2.7695 H   0  0  0  0  0  0  0  0  0  0  0  0
    0.1474    3.9536    1.1372 H   0  0  0  0  0  0  0  0  0  0  0  0
  5  6  2  0  0  0  0
  5  7  1  0  0  0  0
  2  3  1  0  0  0  0
  2  4  1  0  0  0  0
  2  5  1  0  0  0  0
  1  2  1  0  0  0  0
 24 25  2  0  0  0  0
 24 26  1  0  0  0  0
 20 21  1  0  0  0  0
 20 22  1  0  0  0  0
 20 23  1  0  0  0  0
 16 17  1  0  0  0  0
 16 18  1  0  0  0  0
 16 19  1  0  0  0  0
 14 15  1  0  0  0  0
 14 16  1  0  0  0  0
 14 20  1  0  0  0  0
 11 12  1  0  0  0  0
 11 13  1  0  0  0  0
 11 14  1  0  0  0  0
  9 10  1  0  0  0  0
  9 11  1  0  0  0  0
  9 24  1  0  0  0  0
  7  8  1  0  0  0  0
  7  9  1  0  0  0  0
 28 29  1  0  0  0  0
 28 30  1  0  0  0  0
 28 31  1  0  0  0  0
 26 27  1  0  0  0  0
 26 28  1  0  0  0  0
M  END
$$$$
default_name
  -OEChem-02102213163D

 31 30  0     1  0  0  0  0  0999 V2000
   -3.5895   -3.5013    1.1082 H   0  0  0  0  0  0  0  0  0  0  0  0
   -3.5145   -2.5363    0.6082 C   0  0  0  0  0  0  0  0  0  0  0  0
   -4.2285   -1.8413    1.0452 H   0  0  0  0  0  0  0  0  0  0  0  0
   -3.7155   -2.6583   -0.4538 H   0  0  0  0  0  0  0  0  0  0  0  0
   -2.1155   -1.9963    0.7922 C   0  0  0  0  0  0  0  0  0  0  0  0
   -1.2875   -2.6383    1.4252 O   0  0  0  0  0  0  0  0  0  0  0  0
   -1.8575   -0.8123    0.2402 N   0  0  0  0  0  0  0  0  0  0  0  0
   -2.6005   -0.3333   -0.2478 H   0  0  0  0  0  0  0  0  0  0  0  0
   -0.5675   -0.1203    0.3102 C   0  0  1  0  0  0  0  0  0  0  0  0
    0.0191   -0.5718    1.1110 H   0  0  0  0  0  0  0  0  0  0  0  0
    0.1724   -0.3238   -1.0286 C   0  0  0  0  0  0  0  0  0  0  0  0
   -0.2655    0.3431   -1.7738 H   0  0  0  0  0  0  0  0  0  0  0  0
    1.2133   -0.0244   -0.8877 H   0  0  0  0  0  0  0  0  0  0  0  0
    0.1580   -1.7574   -1.5903 C   0  0  0  0  0  0  0  0  0  0  0  0
    0.4400   -1.7431   -2.6431 H   0  0  0  0  0  0  0  0  0  0  0  0
    1.1108   -2.6862   -0.8321 C   0  0  0  0  0  0  0  0  0  0  0  0
    0.8511   -2.6986    0.2274 H   0  0  0  0  0  0  0  0  0  0  0  0
    1.0316   -3.6980   -1.2304 H   0  0  0  0  0  0  0  0  0  0  0  0
    2.1405   -2.3528   -0.9417 H   0  0  0  0  0  0  0  0  0  0  0  0
   -1.2514   -2.3387   -1.4859 C   0  0  0  0  0  0  0  0  0  0  0  0
   -1.9481   -1.7138   -2.0447 H   0  0  0  0  0  0  0  0  0  0  0  0
   -1.2703   -3.3434   -1.9082 H   0  0  0  0  0  0  0  0  0  0  0  0
   -1.5639   -2.3812   -0.4419 H   0  0  0  0  0  0  0  0  0  0  0  0
   -0.7793    1.3659    0.6455 C   0  0  0  0  0  0  0  0  0  0  0  0
   -1.6464    2.0125    0.0623 O   0  0  0  0  0  0  0  0  0  0  0  0
    0.0189    1.9059    1.5756 N   0  0  0  0  0  0  0  0  0  0  0  0
    0.7024    1.3094    2.0137 H   0  0  0  0  0  0  0  0  0  0  0  0
   -0.0451    3.3046    1.9929 C   0  0  0  0  0  0  0  0  0  0  0  0
   -1.0415    3.5286    2.3805 H   0  0  0  0  0  0  0  0  0  0  0  0
    0.6954    3.5023    2.7695 H   0  0  0  0  0  0  0  0  0  0  0  0
    0.1474    3.9536    1.1372 H   0  0  0  0  0  0  0  0  0  0  0  0
  5  6  2  0  0  0  0
  5  7  1  0  0  0  0
  2  3  1  0  0  0  0
  2  4  1  0  0  0  0
  2  5  1  0  0  0  0
  1  2  1  0  0  0  0
 24 25  2  0  0  0  0
 24 26  1  0  0  0  0
 20 21  1  0  0  0  0
 20 22  1  0  0  0  0
 20 23  1  0  0  0  0
 16 17  1  0  0  0  0
 16 18  1  0  0  0  0
 16 19  1  0  0  0  0
 14 15  1  0  0  0  0
 14 16  1  0  0  0  0
 14 20  1  0  0  0  0
 11 12  1  0  0  0  0
 11 13  1  0  0  0  0
 11 14  1  0  0  0  0
  9 10  1  0  0  0  0
  9 11  1  0  0  0  0
  9 24  1  0  0  0  0
  7  8  1  0  0  0  0
  7  9  1  0  0  0  0
 28 29  1  0  0  0  0
 28 30  1  0  0  0  0
 28 31  1  0  0  0  0
 26 27  1  0  0  0  0
 26 28  1  0  0  0  0
M  END
$$$$
default_name
  -OEChem-02102213163D

 31 30  0     1  0  0  0  0  0999 V2000
   -3.5895   -3.5013    1.1082 H   0  0  0  0  0  0  0  0  0  0  0  0
   -3.5145   -2.5363    0.6082 C   0  0  0  0  0  0  0  0  0  0  0  0
   -4.2285   -1.8413    1.0452 H   0  0  0  0  0  0  0  0  0  0  0  0
   -3.7155   -2.6583   -0.4538 H   0  0  0  0  0  0  0  0  0  0  0  0
   -2.1155   -1.9963    0.7922 C   0  0  0  0  0  0  0  0  0  0  0  0
   -1.2875   -2.6383    1.4252 O   0  0  0  0  0  0  0  0  0  0  0  0
   -1.8575   -0.8123    0.2402 N   0  0  0  0  0  0  0  0  0  0  0  0
   -2.6005   -0.3333   -0.2478 H   0  0  0  0  0  0  0  0  0  0  0  0
   -0.5675   -0.1203    0.3102 C   0  0  1  0  0  0  0  0  0  0  0  0
    0.0191   -0.5718    1.1110 H   0  0  0  0  0  0  0  0  0  0  0  0
    0.1724   -0.3238   -1.0286 C   0  0  0  0  0  0  0  0  0  0  0  0
   -0.2655    0.3431   -1.7738 H   0  0  0  0  0  0  0  0  0  0  0  0
    1.2133   -0.0244   -0.8877 H   0  0  0  0  0  0  0  0  0  0  0  0
    0.1580   -1.7574   -1.5903 C   0  0  0  0  0  0  0  0  0  0  0  0
    0.6853   -1.7845   -2.5439 H   0  0  0  0  0  0  0  0  0  0  0  0
    0.8077   -2.7610   -0.6333 C   0  0  0  0  0  0  0  0  0  0  0  0
    0.3006   -2.7341    0.3321 H   0  0  0  0  0  0  0  0  0  0  0  0
    0.7313   -3.7663   -1.0482 H   0  0  0  0  0  0  0  0  0  0  0  0
    1.8603   -2.5277   -0.4883 H   0  0  0  0  0  0  0  0  0  0  0  0
   -1.2836   -2.2019   -1.8341 C   0  0  0  0  0  0  0  0  0  0  0  0
   -1.7628   -1.5222   -2.5386 H   0  0  0  0  0  0  0  0  0  0  0  0
   -1.2953   -3.2062   -2.2577 H   0  0  0  0  0  0  0  0  0  0  0  0
   -1.8409   -2.2002   -0.8967 H   0  0  0  0  0  0  0  0  0  0  0  0
   -0.7793    1.3659    0.6455 C   0  0  0  0  0  0  0  0  0  0  0  0
   -1.6464    2.0125    0.0623 O   0  0  0  0  0  0  0  0  0  0  0  0
    0.0189    1.9059    1.5756 N   0  0  0  0  0  0  0  0  0  0  0  0
    0.7024    1.3094    2.0137 H   0  0  0  0  0  0  0  0  0  0  0  0
   -0.0451    3.3046    1.9929 C   0  0  0  0  0  0  0  0  0  0  0  0
   -1.0415    3.5286    2.3805 H   0  0  0  0  0  0  0  0  0  0  0  0
    0.6954    3.5023    2.7695 H   0  0  0  0  0  0  0  0  0  0  0  0
    0.1474    3.9536    1.1372 H   0  0  0  0  0  0  0  0  0  0  0  0
  5  6  2  0  0  0  0
  5  7  1  0  0  0  0
  2  3  1  0  0  0  0
  2  4  1  0  0  0  0
  2  5  1  0  0  0  0
  1  2  1  0  0  0  0
 24 25  2  0  0  0  0
 24 26  1  0  0  0  0
 20 21  1  0  0  0  0
 20 22  1  0  0  0  0
 20 23  1  0  0  0  0
 16 17  1  0  0  0  0
 16 18  1  0  0  0  0
 16 19  1  0  0  0  0
 14 15  1  0  0  0  0
 14 16  1  0  0  0  0
 14 20  1  0  0  0  0
 11 12  1  0  0  0  0
 11 13  1  0  0  0  0
 11 14  1  0  0  0  0
  9 10  1  0  0  0  0
  9 11  1  0  0  0  0
  9 24  1  0  0  0  0
  7  8  1  0  0  0  0
  7  9  1  0  0  0  0
 28 29  1  0  0  0  0
 28 30  1  0  0  0  0
 28 31  1  0  0  0  0
 26 27  1  0  0  0  0
 26 28  1  0  0  0  0
M  END
$$$$
default_name
  -OEChem-02102213163D

 31 30  0     1  0  0  0  0  0999 V2000
   -3.5895   -3.5013    1.1082 H   0  0  0  0  0  0  0  0  0  0  0  0
   -3.5145   -2.5363    0.6082 C   0  0  0  0  0  0  0  0  0  0  0  0
   -4.2285   -1.8413    1.0452 H   0  0  0  0  0  0  0  0  0  0  0  0
   -3.7155   -2.6583   -0.4538 H   0  0  0  0  0  0  0  0  0  0  0  0
   -2.1155   -1.9963    0.7922 C   0  0  0  0  0  0  0  0  0  0  0  0
   -1.2875   -2.6383    1.4252 O   0  0  0  0  0  0  0  0  0  0  0  0
   -1.8575   -0.8123    0.2402 N   0  0  0  0  0  0  0  0  0  0  0  0
   -2.6005   -0.3333   -0.2478 H   0  0  0  0  0  0  0  0  0  0  0  0
   -0.5675   -0.1203    0.3102 C   0  0  1  0  0  0  0  0  0  0  0  0
    0.0191   -0.5718    1.1110 H   0  0  0  0  0  0  0  0  0  0  0  0
    0.1724   -0.3238   -1.0286 C   0  0  0  0  0  0  0  0  0  0  0  0
   -0.2655    0.3431   -1.7738 H   0  0  0  0  0  0  0  0  0  0  0  0
    1.2133   -0.0244   -0.8877 H   0  0  0  0  0  0  0  0  0  0  0  0
    0.1580   -1.7574   -1.5903 C   0  0  0  0  0  0  0  0  0  0  0  0
    0.8945   -1.8473   -2.3888 H   0  0  0  0  0  0  0  0  0  0  0  0
    0.4600   -2.8043   -0.5141 C   0  0  0  0  0  0  0  0  0  0  0  0
   -0.2598   -2.7162    0.3008 H   0  0  0  0  0  0  0  0  0  0  0  0
    0.3910   -3.8036   -0.9444 H   0  0  0  0  0  0  0  0  0  0  0  0
    1.4640   -2.6690   -0.1175 H   0  0  0  0  0  0  0  0  0  0  0  0
   -1.2179   -2.0676   -2.1786 C   0  0  0  0  0  0  0  0  0  0  0  0
   -1.4466   -1.3557   -2.9716 H   0  0  0  0  0  0  0  0  0  0  0  0
   -1.2222   -3.0722   -2.6016 H   0  0  0  0  0  0  0  0  0  0  0  0
   -1.9818   -2.0004   -1.4031 H   0  0  0  0  0  0  0  0  0  0  0  0
   -0.7793    1.3659    0.6455 C   0  0  0  0  0  0  0  0  0  0  0  0
   -1.6464    2.0125    0.0623 O   0  0  0  0  0  0  0  0  0  0  0  0
    0.0189    1.9059    1.5756 N   0  0  0  0  0  0  0  0  0  0  0  0
    0.7024    1.3094    2.0137 H   0  0  0  0  0  0  0  0  0  0  0  0
   -0.0451    3.3046    1.9929 C   0  0  0  0  0  0  0  0  0  0  0  0
   -1.0415    3.5286    2.3805 H   0  0  0  0  0  0  0  0  0  0  0  0
    0.6954    3.5023    2.7695 H   0  0  0  0  0  0  0  0  0  0  0  0
    0.1474    3.9536    1.1372 H   0  0  0  0  0  0  0  0  0  0  0  0
  5  6  2  0  0  0  0
  5  7  1  0  0  0  0
  2  3  1  0  0  0  0
  2  4  1  0  0  0  0
  2  5  1  0  0  0  0
  1  2  1  0  0  0  0
 24 25  2  0  0  0  0
 24 26  1  0  0  0  0
 20 21  1  0  0  0  0
 20 22  1  0  0  0  0
 20 23  1  0  0  0  0
 16 17  1  0  0  0  0
 16 18  1  0  0  0  0
 16 19  1  0  0  0  0
 14 15  1  0  0  0  0
 14 16  1  0  0  0  0
 14 20  1  0  0  0  0
 11 12  1  0  0  0  0
 11 13  1  0  0  0  0
 11 14  1  0  0  0  0
  9 10  1  0  0  0  0
  9 11  1  0  0  0  0
  9 24  1  0  0  0  0
  7  8  1  0  0  0  0
  7  9  1  0  0  0  0
 28 29  1  0  0  0  0
 28 30  1  0  0  0  0
 28 31  1  0  0  0  0
 26 27  1  0  0  0  0
 26 28  1  0  0  0  0
M  END
$$$$
default_name
  -OEChem-02102213163D

 31 30  0     1  0  0  0  0  0999 V2000
   -3.5895   -3.5013    1.1082 H   0  0  0  0  0  0  0  0  0  0  0  0
   -3.5145   -2.5363    0.6082 C   0  0  0  0  0  0  0  0  0  0  0  0
   -4.2285   -1.8413    1.0452 H   0  0  0  0  0  0  0  0  0  0  0  0
   -3.7155   -2.6583   -0.4538 H   0  0  0  0  0  0  0  0  0  0  0  0
   -2.1155   -1.9963    0.7922 C   0  0  0  0  0  0  0  0  0  0  0  0
   -1.2875   -2.6383    1.4252 O   0  0  0  0  0  0  0  0  0  0  0  0
   -1.8575   -0.8123    0.2402 N   0  0  0  0  0  0  0  0  0  0  0  0
   -2.6005   -0.3333   -0.2478 H   0  0  0  0  0  0  0  0  0  0  0  0
   -0.5675   -0.1203    0.3102 C   0  0  1  0  0  0  0  0  0  0  0  0
    0.0191   -0.5718    1.1110 H   0  0  0  0  0  0  0  0  0  0  0  0
    0.1724   -0.3238   -1.0286 C   0  0  0  0  0  0  0  0  0  0  0  0
   -0.2655    0.3431   -1.7738 H   0  0  0  0  0  0  0  0  0  0  0  0
    1.2133   -0.0244   -0.8877 H   0  0  0  0  0  0  0  0  0  0  0  0
    0.1580   -1.7574   -1.5903 C   0  0  0  0  0  0  0  0  0  0  0  0
    1.0532   -1.9274   -2.1885 H   0  0  0  0  0  0  0  0  0  0  0  0
    0.0914   -2.8129   -0.4827 C   0  0  0  0  0  0  0  0  0  0  0  0
   -0.7919   -2.6461    0.1354 H   0  0  0  0  0  0  0  0  0  0  0  0
    0.0337   -3.8072   -0.9261 H   0  0  0  0  0  0  0  0  0  0  0  0
    0.9784   -2.7671    0.1454 H   0  0  0  0  0  0  0  0  0  0  0  0
   -1.0587   -1.9450   -2.4957 C   0  0  0  0  0  0  0  0  0  0  0  0
   -1.0212   -1.2259   -3.3139 H   0  0  0  0  0  0  0  0  0  0  0  0
   -1.0561   -2.9505   -2.9166 H   0  0  0  0  0  0  0  0  0  0  0  0
   -1.9770   -1.7953   -1.9268 H   0  0  0  0  0  0  0  0  0  0  0  0
   -0.7793    1.3659    0.6455 C   0  0  0  0  0  0  0  0  0  0  0  0
   -1.6464    2.0125    0.0623 O   0  0  0  0  0  0  0  0  0  0  0  0
    0.0189    1.9059    1.5756 N   0  0  0  0  0  0  0  0  0  0  0  0
    0.7024    1.3094    2.0137 H   0  0  0  0  0  0  0  0  0  0  0  0
   -0.0451    3.3046    1.9929 C   0  0  0  0  0  0  0  0  0  0  0  0
   -1.0415    3.5286    2.3805 H   0  0  0  0  0  0  0  0  0  0  0  0
    0.6954    3.5023    2.7695 H   0  0  0  0  0  0  0  0  0  0  0  0
    0.1474    3.9536    1.1372 H   0  0  0  0  0  0  0  0  0  0  0  0
  5  6  2  0  0  0  0
  5  7  1  0  0  0  0
  2  3  1  0  0  0  0
  2  4  1  0  0  0  0
  2  5  1  0  0  0  0
  1  2  1  0  0  0  0
 24 25  2  0  0  0  0
 24 26  1  0  0  0  0
 20 21  1  0  0  0  0
 20 22  1  0  0  0  0
 20 23  1  0  0  0  0
 16 17  1  0  0  0  0
 16 18  1  0  0  0  0
 16 19  1  0  0  0  0
 14 15  1  0  0  0  0
 14 16  1  0  0  0  0
 14 20  1  0  0  0  0
 11 12  1  0  0  0  0
 11 13  1  0  0  0  0
 11 14  1  0  0  0  0
  9 10  1  0  0  0  0
  9 11  1  0  0  0  0
  9 24  1  0  0  0  0
  7  8  1  0  0  0  0
  7  9  1  0  0  0  0
 28 29  1  0  0  0  0
 28 30  1  0  0  0  0
 28 31  1  0  0  0  0
 26 27  1  0  0  0  0
 26 28  1  0  0  0  0
M  END
$$$$
default_name
  -OEChem-02102213163D

 31 30  0     1  0  0  0  0  0999 V2000
   -3.5895   -3.5013    1.1082 H   0  0  0  0  0  0  0  0  0  0  0  0
   -3.5145   -2.5363    0.6082 C   0  0  0  0  0  0  0  0  0  0  0  0
   -4.2285   -1.8413    1.0452 H   0  0  0  0  0  0  0  0  0  0  0  0
   -3.7155   -2.6583   -0.4538 H   0  0  0  0  0  0  0  0  0  0  0  0
   -2.1155   -1.9963    0.7922 C   0  0  0  0  0  0  0  0  0  0  0  0
   -1.2875   -2.6383    1.4252 O   0  0  0  0  0  0  0  0  0  0  0  0
   -1.8575   -0.8123    0.2402 N   0  0  0  0  0  0  0  0  0  0  0  0
   -2.6005   -0.3333   -0.2478 H   0  0  0  0  0  0  0  0  0  0  0  0
   -0.5675   -0.1203    0.3102 C   0  0  1  0  0  0  0  0  0  0  0  0
    0.0191   -0.5718    1.1110 H   0  0  0  0  0  0  0  0  0  0  0  0
    0.1724   -0.3238   -1.0286 C   0  0  0  0  0  0  0  0  0  0  0  0
   -0.2655    0.3431   -1.7738 H   0  0  0  0  0  0  0  0  0  0  0  0
    1.2133   -0.0244   -0.8877 H   0  0  0  0  0  0  0  0  0  0  0  0
    0.1580   -1.7574   -1.5903 C   0  0  0  0  0  0  0  0  0  0  0  0
    1.1507   -2.0192   -1.9566 H   0  0  0  0  0  0  0  0  0  0  0  0
   -0.2731   -2.7863   -0.5411 C   0  0  0  0  0  0  0  0  0  0  0  0
   -1.2593   -2.5285   -0.1527 H   0  0  0  0  0  0  0  0  0  0  0  0
   -0.3162   -3.7769   -0.9945 H   0  0  0  0  0  0  0  0  0  0  0  0
    0.4368   -2.8155    0.2827 H   0  0  0  0  0  0  0  0  0  0  0  0
   -0.8169   -1.8423   -2.7640 C   0  0  0  0  0  0  0  0  0  0  0  0
   -0.5155   -1.1414   -3.5424 H   0  0  0  0  0  0  0  0  0  0  0  0
   -0.8083   -2.8493   -3.1810 H   0  0  0  0  0  0  0  0  0  0  0  0
   -1.8268   -1.5989   -2.4319 H   0  0  0  0  0  0  0  0  0  0  0  0
   -0.7793    1.3659    0.6455 C   0  0  0  0  0  0  0  0  0  0  0  0
   -1.6464    2.0125    0.0623 O   0  0  0  0  0  0  0  0  0  0  0  0
    0.0189    1.9059    1.5756 N   0  0  0  0  0  0  0  0  0  0  0  0
    0.7024    1.3094    2.0137 H   0  0  0  0  0  0  0  0  0  0  0  0
   -0.0451    3.3046    1.9929 C   0  0  0  0  0  0  0  0  0  0  0  0
   -1.0415    3.5286    2.3805 H   0  0  0  0  0  0  0  0  0  0  0  0
    0.6954    3.5023    2.7695 H   0  0  0  0  0  0  0  0  0  0  0  0
    0.1474    3.9536    1.1372 H   0  0  0  0  0  0  0  0  0  0  0  0
  5  6  2  0  0  0  0
  5  7  1  0  0  0  0
  2  3  1  0  0  0  0
  2  4  1  0  0  0  0
  2  5  1  0  0  0  0
  1  2  1  0  0  0  0
 24 25  2  0  0  0  0
 24 26  1  0  0  0  0
 20 21  1  0  0  0  0
 20 22  1  0  0  0  0
 20 23  1  0  0  0  0
 16 17  1  0  0  0  0
 16 18  1  0  0  0  0
 16 19  1  0  0  0  0
 14 15  1  0  0  0  0
 14 16  1  0  0  0  0
 14 20  1  0  0  0  0
 11 12  1  0  0  0  0
 11 13  1  0  0  0  0
 11 14  1  0  0  0  0
  9 10  1  0  0  0  0
  9 11  1  0  0  0  0
  9 24  1  0  0  0  0
  7  8  1  0  0  0  0
  7  9  1  0  0  0  0
 28 29  1  0  0  0  0
 28 30  1  0  0  0  0
 28 31  1  0  0  0  0
 26 27  1  0  0  0  0
 26 28  1  0  0  0  0
M  END
$$$$
default_name
  -OEChem-02102213163D

 31 30  0     1  0  0  0  0  0999 V2000
   -3.5895   -3.5013    1.1082 H   0  0  0  0  0  0  0  0  0  0  0  0
   -3.5145   -2.5363    0.6082 C   0  0  0  0  0  0  0  0  0  0  0  0
   -4.2285   -1.8413    1.0452 H   0  0  0  0  0  0  0  0  0  0  0  0
   -3.7155   -2.6583   -0.4538 H   0  0  0  0  0  0  0  0  0  0  0  0
   -2.1155   -1.9963    0.7922 C   0  0  0  0  0  0  0  0  0  0  0  0
   -1.2875   -2.6383    1.4252 O   0  0  0  0  0  0  0  0  0  0  0  0
   -1.8575   -0.8123    0.2402 N   0  0  0  0  0  0  0  0  0  0  0  0
   -2.6005   -0.3333   -0.2478 H   0  0  0  0  0  0  0  0  0  0  0  0
   -0.5675   -0.1203    0.3102 C   0  0  1  0  0  0  0  0  0  0  0  0
    0.0191   -0.5718    1.1110 H   0  0  0  0  0  0  0  0  0  0  0  0
    0.1724   -0.3238   -1.0286 C   0  0  0  0  0  0  0  0  0  0  0  0
   -0.2655    0.3431   -1.7738 H   0  0  0  0  0  0  0  0  0  0  0  0
    1.2133   -0.0244   -0.8877 H   0  0  0  0  0  0  0  0  0  0  0  0
    0.1580   -1.7574   -1.5903 C   0  0  0  0  0  0  0  0  0  0  0  0
    1.1803   -2.1166   -1.7088 H   0  0  0  0  0  0  0  0  0  0  0  0
   -0.6085   -2.7264   -0.6855 C   0  0  0  0  0  0  0  0  0  0  0  0
   -1.6303   -2.3716   -0.5440 H   0  0  0  0  0  0  0  0  0  0  0  0
   -0.6348   -3.7148   -1.1449 H   0  0  0  0  0  0  0  0  0  0  0  0
   -0.1241   -2.8107    0.2849 H   0  0  0  0  0  0  0  0  0  0  0  0
   -0.5090   -1.7665   -2.9652 C   0  0  0  0  0  0  0  0  0  0  0  0
    0.0359   -1.1081   -3.6415 H   0  0  0  0  0  0  0  0  0  0  0  0
   -0.4957   -2.7757   -3.3770 H   0  0  0  0  0  0  0  0  0  0  0  0
   -1.5414   -1.4246   -2.8841 H   0  0  0  0  0  0  0  0  0  0  0  0
   -0.7793    1.3659    0.6455 C   0  0  0  0  0  0  0  0  0  0  0  0
   -1.6464    2.0125    0.0623 O   0  0  0  0  0  0  0  0  0  0  0  0
    0.0189    1.9059    1.5756 N   0  0  0  0  0  0  0  0  0  0  0  0
    0.7024    1.3094    2.0137 H   0  0  0  0  0  0  0  0  0  0  0  0
   -0.0451    3.3046    1.9929 C   0  0  0  0  0  0  0  0  0  0  0  0
   -1.0415    3.5286    2.3805 H   0  0  0  0  0  0  0  0  0  0  0  0
    0.6954    3.5023    2.7695 H   0  0  0  0  0  0  0  0  0  0  0  0
    0.1474    3.9536    1.1372 H   0  0  0  0  0  0  0  0  0  0  0  0
  5  6  2  0  0  0  0
  5  7  1  0  0  0  0
  2  3  1  0  0  0  0
  2  4  1  0  0  0  0
  2  5  1  0  0  0  0
  1  2  1  0  0  0  0
 24 25  2  0  0  0  0
 24 26  1  0  0  0  0
 20 21  1  0  0  0  0
 20 22  1  0  0  0  0
 20 23  1  0  0  0  0
 16 17  1  0  0  0  0
 16 18  1  0  0  0  0
 16 19  1  0  0  0  0
 14 15  1  0  0  0  0
 14 16  1  0  0  0  0
 14 20  1  0  0  0  0
 11 12  1  0  0  0  0
 11 13  1  0  0  0  0
 11 14  1  0  0  0  0
  9 10  1  0  0  0  0
  9 11  1  0  0  0  0
  9 24  1  0  0  0  0
  7  8  1  0  0  0  0
  7  9  1  0  0  0  0
 28 29  1  0  0  0  0
 28 30  1  0  0  0  0
 28 31  1  0  0  0  0
 26 27  1  0  0  0  0
 26 28  1  0  0  0  0
M  END
$$$$
default_name
  -OEChem-02102213163D

 31 30  0     1  0  0  0  0  0999 V2000
   -3.5895   -3.5013    1.1082 H   0  0  0  0  0  0  0  0  0  0  0  0
   -3.5145   -2.5363    0.6082 C   0  0  0  0  0  0  0  0  0  0  0  0
   -4.2285   -1.8413    1.0452 H   0  0  0  0  0  0  0  0  0  0  0  0
   -3.7155   -2.6583   -0.4538 H   0  0  0  0  0  0  0  0  0  0  0  0
   -2.1155   -1.9963    0.7922 C   0  0  0  0  0  0  0  0  0  0  0  0
   -1.2875   -2.6383    1.4252 O   0  0  0  0  0  0  0  0  0  0  0  0
   -1.8575   -0.8123    0.2402 N   0  0  0  0  0  0  0  0  0  0  0  0
   -2.6005   -0.3333   -0.2478 H   0  0  0  0  0  0  0  0  0  0  0  0
   -0.5675   -0.1203    0.3102 C   0  0  1  0  0  0  0  0  0  0  0  0
    0.0191   -0.5718    1.1110 H   0  0  0  0  0  0  0  0  0  0  0  0
    0.1724   -0.3238   -1.0286 C   0  0  0  0  0  0  0  0  0  0  0  0
   -0.2655    0.3431   -1.7738 H   0  0  0  0  0  0  0  0  0  0  0  0
    1.2133   -0.0244   -0.8877 H   0  0  0  0  0  0  0  0  0  0  0  0
    0.1580   -1.7574   -1.5903 C   0  0  0  0  0  0  0  0  0  0  0  0
    1.1400   -2.2128   -1.4621 H   0  0  0  0  0  0  0  0  0  0  0  0
   -0.8921   -2.6372   -0.9059 C   0  0  0  0  0  0  0  0  0  0  0  0
   -1.8795   -2.1858   -1.0117 H   0  0  0  0  0  0  0  0  0  0  0  0
   -0.9004   -3.6251   -1.3671 H   0  0  0  0  0  0  0  0  0  0  0  0
   -0.6658   -2.7532    0.1518 H   0  0  0  0  0  0  0  0  0  0  0  0
   -0.1560   -1.7230   -3.0855 C   0  0  0  0  0  0  0  0  0  0  0  0
    0.5957   -1.1282   -3.6044 H   0  0  0  0  0  0  0  0  0  0  0  0
   -0.1395   -2.7345   -3.4912 H   0  0  0  0  0  0  0  0  0  0  0  0
   -1.1404   -1.2842   -3.2526 H   0  0  0  0  0  0  0  0  0  0  0  0
   -0.7793    1.3659    0.6455 C   0  0  0  0  0  0  0  0  0  0  0  0
   -1.6464    2.0125    0.0623 O   0  0  0  0  0  0  0  0  0  0  0  0
    0.0189    1.9059    1.5756 N   0  0  0  0  0  0  0  0  0  0  0  0
    0.7024    1.3094    2.0137 H   0  0  0  0  0  0  0  0  0  0  0  0
   -0.0451    3.3046    1.9929 C   0  0  0  0  0  0  0  0  0  0  0  0
   -1.0415    3.5286    2.3805 H   0  0  0  0  0  0  0  0  0  0  0  0
    0.6954    3.5023    2.7695 H   0  0  0  0  0  0  0  0  0  0  0  0
    0.1474    3.9536    1.1372 H   0  0  0  0  0  0  0  0  0  0  0  0
  5  6  2  0  0  0  0
  5  7  1  0  0  0  0
  2  3  1  0  0  0  0
  2  4  1  0  0  0  0
  2  5  1  0  0  0  0
  1  2  1  0  0  0  0
 24 25  2  0  0  0  0
 24 26  1  0  0  0  0
 20 21  1  0  0  0  0
 20 22  1  0  0  0  0
 20 23  1  0  0  0  0
 16 17  1  0  0  0  0
 16 18  1  0  0  0  0
 16 19  1  0  0  0  0
 14 15  1  0  0  0  0
 14 16  1  0  0  0  0
 14 20  1  0  0  0  0
 11 12  1  0  0  0  0
 11 13  1  0  0  0  0
 11 14  1  0  0  0  0
  9 10  1  0  0  0  0
  9 11  1  0  0  0  0
  9 24  1  0  0  0  0
  7  8  1  0  0  0  0
  7  9  1  0  0  0  0
 28 29  1  0  0  0  0
 28 30  1  0  0  0  0
 28 31  1  0  0  0  0
 26 27  1  0  0  0  0
 26 28  1  0  0  0  0
M  END
$$$$
default_name
  -OEChem-02102213163D

 31 30  0     1  0  0  0  0  0999 V2000
   -3.5895   -3.5013    1.1082 H   0  0  0  0  0  0  0  0  0  0  0  0
   -3.5145   -2.5363    0.6082 C   0  0  0  0  0  0  0  0  0  0  0  0
   -4.2285   -1.8413    1.0452 H   0  0  0  0  0  0  0  0  0  0  0  0
   -3.7155   -2.6583   -0.4538 H   0  0  0  0  0  0  0  0  0  0  0  0
   -2.1155   -1.9963    0.7922 C   0  0  0  0  0  0  0  0  0  0  0  0
   -1.2875   -2.6383    1.4252 O   0  0  0  0  0  0  0  0  0  0  0  0
   -1.8575   -0.8123    0.2402 N   0  0  0  0  0  0  0  0  0  0  0  0
   -2.6005   -0.3333   -0.2478 H   0  0  0  0  0  0  0  0  0  0  0  0
   -0.5675   -0.1203    0.3102 C   0  0  1  0  0  0  0  0  0  0  0  0
    0.0191   -0.5718    1.1110 H   0  0  0  0  0  0  0  0  0  0  0  0
    0.1724   -0.3238   -1.0286 C   0  0  0  0  0  0  0  0  0  0  0  0
   -0.2655    0.3431   -1.7738 H   0  0  0  0  0  0  0  0  0  0  0  0
    1.2133   -0.0244   -0.8877 H   0  0  0  0  0  0  0  0  0  0  0  0
    0.1580   -1.7574   -1.5903 C   0  0  0  0  0  0  0  0  0  0  0  0
    1.0326   -2.3014   -1.2334 H   0  0  0  0  0  0  0  0  0  0  0  0
   -1.1045   -2.5248   -1.1873 C   0  0  0  0  0  0  0  0  0  0  0  0
   -1.9900   -1.9840   -1.5239 H   0  0  0  0  0  0  0  0  0  0  0  0
   -1.0950   -3.5139   -1.6460 H   0  0  0  0  0  0  0  0  0  0  0  0
   -1.1517   -2.6468   -0.1074 H   0  0  0  0  0  0  0  0  0  0  0  0
    0.2181   -1.7145   -3.1167 C   0  0  0  0  0  0  0  0  0  0  0  0
    1.1254   -1.2004   -3.4337 H   0  0  0  0  0  0  0  0  0  0  0  0
    0.2360   -2.7287   -3.5157 H   0  0  0  0  0  0  0  0  0  0  0  0
   -0.6509   -1.1874   -3.5121 H   0  0  0  0  0  0  0  0  0  0  0  0
   -0.7793    1.3659    0.6455 C   0  0  0  0  0  0  0  0  0  0  0  0
   -1.6464    2.0125    0.0623 O   0  0  0  0  0  0  0  0  0  0  0  0
    0.0189    1.9059    1.5756 N   0  0  0  0  0  0  0  0  0  0  0  0
    0.7024    1.3094    2.0137 H   0  0  0  0  0  0  0  0  0  0  0  0
   -0.0451    3.3046    1.9929 C   0  0  0  0  0  0  0  0  0  0  0  0
   -1.0415    3.5286    2.3805 H   0  0  0  0  0  0  0  0  0  0  0  0
    0.6954    3.5023    2.7695 H   0  0  0  0  0  0  0  0  0  0  0  0
    0.1474    3.9536    1.1372 H   0  0  0  0  0  0  0  0  0  0  0  0
  5  6  2  0  0  0  0
  5  7  1  0  0  0  0
  2  3  1  0  0  0  0
  2  4  1  0  0  0  0
  2  5  1  0  0  0  0
  1  2  1  0  0  0  0
 24 25  2  0  0  0  0
 24 26  1  0  0  0  0
 20 21  1  0  0  0  0
 20 22  1  0  0  0  0
 20 23  1  0  0  0  0
 16 17  1  0  0  0  0
 16 18  1  0  0  0  0
 16 19  1  0  0  0  0
 14 15  1  0  0  0  0
 14 16  1  0  0  0  0
 14 20  1  0  0  0  0
 11 12  1  0  0  0  0
 11 13  1  0  0  0  0
 11 14  1  0  0  0  0
  9 10  1  0  0  0  0
  9 11  1  0  0  0  0
  9 24  1  0  0  0  0
  7  8  1  0  0  0  0
  7  9  1  0  0  0  0
 28 29  1  0  0  0  0
 28 30  1  0  0  0  0
 28 31  1  0  0  0  0
 26 27  1  0  0  0  0
 26 28  1  0  0  0  0
M  END
$$$$
default_name
  -OEChem-02102213163D

 31 30  0     1  0  0  0  0  0999 V2000
   -3.5895   -3.5013    1.1082 H   0  0  0  0  0  0  0  0  0  0  0  0
   -3.5145   -2.5363    0.6082 C   0  0  0  0  0  0  0  0  0  0  0  0
   -4.2285   -1.8413    1.0452 H   0  0  0  0  0  0  0  0  0  0  0  0
   -3.7155   -2.6583   -0.4538 H   0  0  0  0  0  0  0  0  0  0  0  0
   -2.1155   -1.9963    0.7922 C   0  0  0  0  0  0  0  0  0  0  0  0
   -1.2875   -2.6383    1.4252 O   0  0  0  0  0  0  0  0  0  0  0  0
   -1.8575   -0.8123    0.2402 N   0  0  0  0  0  0  0  0  0  0  0  0
   -2.6005   -0.3333   -0.2478 H   0  0  0  0  0  0  0  0  0  0  0  0
   -0.5675   -0.1203    0.3102 C   0  0  1  0  0  0  0  0  0  0  0  0
    0.0191   -0.5718    1.1110 H   0  0  0  0  0  0  0  0  0  0  0  0
    0.1724   -0.3238   -1.0286 C   0  0  0  0  0  0  0  0  0  0  0  0
   -0.2655    0.3431   -1.7738 H   0  0  0  0  0  0  0  0  0  0  0  0
    1.2133   -0.0244   -0.8877 H   0  0  0  0  0  0  0  0  0  0  0  0
    0.1580   -1.7574   -1.5903 C   0  0  0  0  0  0  0  0  0  0  0  0
    0.8653   -2.3762   -1.0380 H   0  0  0  0  0  0  0  0  0  0  0  0
   -1.2312   -2.3969   -1.5107 C   0  0  0  0  0  0  0  0  0  0  0  0
   -1.9543   -1.7799   -2.0458 H   0  0  0  0  0  0  0  0  0  0  0  0
   -1.2052   -3.3887   -1.9625 H   0  0  0  0  0  0  0  0  0  0  0  0
   -1.5485   -2.4987   -0.4751 H   0  0  0  0  0  0  0  0  0  0  0  0
    0.5878   -1.7417   -3.0567 C   0  0  0  0  0  0  0  0  0  0  0  0
    1.5892   -1.3198   -3.1409 H   0  0  0  0  0  0  0  0  0  0  0  0
    0.6051   -2.7585   -3.4489 H   0  0  0  0  0  0  0  0  0  0  0  0
   -0.1065   -1.1407   -3.6452 H   0  0  0  0  0  0  0  0  0  0  0  0
   -0.7793    1.3659    0.6455 C   0  0  0  0  0  0  0  0  0  0  0  0
   -1.6464    2.0125    0.0623 O   0  0  0  0  0  0  0  0  0  0  0  0
    0.0189    1.9059    1.5756 N   0  0  0  0  0  0  0  0  0  0  0  0
    0.7024    1.3094    2.0137 H   0  0  0  0  0  0  0  0  0  0  0  0
   -0.0451    3.3046    1.9929 C   0  0  0  0  0  0  0  0  0  0  0  0
   -1.0415    3.5286    2.3805 H   0  0  0  0  0  0  0  0  0  0  0  0
    0.6954    3.5023    2.7695 H   0  0  0  0  0  0  0  0  0  0  0  0
    0.1474    3.9536    1.1372 H   0  0  0  0  0  0  0  0  0  0  0  0
  5  6  2  0  0  0  0
  5  7  1  0  0  0  0
  2  3  1  0  0  0  0
  2  4  1  0  0  0  0
  2  5  1  0  0  0  0
  1  2  1  0  0  0  0
 24 25  2  0  0  0  0
 24 26  1  0  0  0  0
 20 21  1  0  0  0  0
 20 22  1  0  0  0  0
 20 23  1  0  0  0  0
 16 17  1  0  0  0  0
 16 18  1  0  0  0  0
 16 19  1  0  0  0  0
 14 15  1  0  0  0  0
 14 16  1  0  0  0  0
 14 20  1  0  0  0  0
 11 12  1  0  0  0  0
 11 13  1  0  0  0  0
 11 14  1  0  0  0  0
  9 10  1  0  0  0  0
  9 11  1  0  0  0  0
  9 24  1  0  0  0  0
  7  8  1  0  0  0  0
  7  9  1  0  0  0  0
 28 29  1  0  0  0  0
 28 30  1  0  0  0  0
 28 31  1  0  0  0  0
 26 27  1  0  0  0  0
 26 28  1  0  0  0  0
M  END
$$$$
default_name
  -OEChem-02102213163D

 31 30  0     1  0  0  0  0  0999 V2000
   -3.5895   -3.5013    1.1082 H   0  0  0  0  0  0  0  0  0  0  0  0
   -3.5145   -2.5363    0.6082 C   0  0  0  0  0  0  0  0  0  0  0  0
   -4.2285   -1.8413    1.0452 H   0  0  0  0  0  0  0  0  0  0  0  0
   -3.7155   -2.6583   -0.4538 H   0  0  0  0  0  0  0  0  0  0  0  0
   -2.1155   -1.9963    0.7922 C   0  0  0  0  0  0  0  0  0  0  0  0
   -1.2875   -2.6383    1.4252 O   0  0  0  0  0  0  0  0  0  0  0  0
   -1.8575   -0.8123    0.2402 N   0  0  0  0  0  0  0  0  0  0  0  0
   -2.6005   -0.3333   -0.2478 H   0  0  0  0  0  0  0  0  0  0  0  0
   -0.5675   -0.1203    0.3102 C   0  0  1  0  0  0  0  0  0  0  0  0
    0.0191   -0.5718    1.1110 H   0  0  0  0  0  0  0  0  0  0  0  0
    0.1724   -0.3238   -1.0286 C   0  0  0  0  0  0  0  0  0  0  0  0
   -0.2655    0.3431   -1.7738 H   0  0  0  0  0  0  0  0  0  0  0  0
    1.2133   -0.0244   -0.8877 H   0  0  0  0  0  0  0  0  0  0  0  0
    0.1580   -1.7574   -1.5903 C   0  0  0  0  0  0  0  0  0  0  0  0
    0.6496   -2.4323   -0.8895 H   0  0  0  0  0  0  0  0  0  0  0  0
   -1.2636   -2.2621   -1.8538 C   0  0  0  0  0  0  0  0  0  0  0  0
   -1.7748   -1.5874   -2.5418 H   0  0  0  0  0  0  0  0  0  0  0  0
   -1.2236   -3.2582   -2.2952 H   0  0  0  0  0  0  0  0  0  0  0  0
   -1.8291   -2.3192   -0.9262 H   0  0  0  0  0  0  0  0  0  0  0  0
    0.9278   -1.8027   -2.9097 C   0  0  0  0  0  0  0  0  0  0  0  0
    1.9554   -1.4782   -2.7460 H   0  0  0  0  0  0  0  0  0  0  0  0
    0.9427   -2.8220   -3.2954 H   0  0  0  0  0  0  0  0  0  0  0  0
    0.4559   -1.1474   -3.6426 H   0  0  0  0  0  0  0  0  0  0  0  0
   -0.7793    1.3659    0.6455 C   0  0  0  0  0  0  0  0  0  0  0  0
   -1.6464    2.0125    0.0623 O   0  0  0  0  0  0  0  0  0  0  0  0
    0.0189    1.9059    1.5756 N   0  0  0  0  0  0  0  0  0  0  0  0
    0.7024    1.3094    2.0137 H   0  0  0  0  0  0  0  0  0  0  0  0
   -0.0451    3.3046    1.9929 C   0  0  0  0  0  0  0  0  0  0  0  0
   -1.0415    3.5286    2.3805 H   0  0  0  0  0  0  0  0  0  0  0  0
    0.6954    3.5023    2.7695 H   0  0  0  0  0  0  0  0  0  0  0  0
    0.1474    3.9536    1.1372 H   0  0  0  0  0  0  0  0  0  0  0  0
  5  6  2  0  0  0  0
  5  7  1  0  0  0  0
  2  3  1  0  0  0  0
  2  4  1  0  0  0  0
  2  5  1  0  0  0  0
  1  2  1  0  0  0  0
 24 25  2  0  0  0  0
 24 26  1  0  0  0  0
 20 21  1  0  0  0  0
 20 22  1  0  0  0  0
 20 23  1  0  0  0  0
 16 17  1  0  0  0  0
 16 18  1  0  0  0  0
 16 19  1  0  0  0  0
 14 15  1  0  0  0  0
 14 16  1  0  0  0  0
 14 20  1  0  0  0  0
 11 12  1  0  0  0  0
 11 13  1  0  0  0  0
 11 14  1  0  0  0  0
  9 10  1  0  0  0  0
  9 11  1  0  0  0  0
  9 24  1  0  0  0  0
  7  8  1  0  0  0  0
  7  9  1  0  0  0  0
 28 29  1  0  0  0  0
 28 30  1  0  0  0  0
 28 31  1  0  0  0  0
 26 27  1  0  0  0  0
 26 28  1  0  0  0  0
M  END
$$$$
default_name
  -OEChem-02102213163D

 31 30  0     1  0  0  0  0  0999 V2000
   -3.5895   -3.5013    1.1082 H   0  0  0  0  0  0  0  0  0  0  0  0
   -3.5145   -2.5363    0.6082 C   0  0  0  0  0  0  0  0  0  0  0  0
   -4.2285   -1.8413    1.0452 H   0  0  0  0  0  0  0  0  0  0  0  0
   -3.7155   -2.6583   -0.4538 H   0  0  0  0  0  0  0  0  0  0  0  0
   -2.1155   -1.9963    0.7922 C   0  0  0  0  0  0  0  0  0  0  0  0
   -1.2875   -2.6383    1.4252 O   0  0  0  0  0  0  0  0  0  0  0  0
   -1.8575   -0.8123    0.2402 N   0  0  0  0  0  0  0  0  0  0  0  0
   -2.6005   -0.3333   -0.2478 H   0  0  0  0  0  0  0  0  0  0  0  0
   -0.5675   -0.1203    0.3102 C   0  0  1  0  0  0  0  0  0  0  0  0
    0.0191   -0.5718    1.1110 H   0  0  0  0  0  0  0  0  0  0  0  0
    0.1724   -0.3238   -1.0286 C   0  0  0  0  0  0  0  0  0  0  0  0
   -0.2655    0.3431   -1.7738 H   0  0  0  0  0  0  0  0  0  0  0  0
    1.2133   -0.0244   -0.8877 H   0  0  0  0  0  0  0  0  0  0  0  0
    0.1580   -1.7574   -1.5903 C   0  0  0  0  0  0  0  0  0  0  0  0
    0.4001   -2.4657   -0.7979 H   0  0  0  0  0  0  0  0  0  0  0  0
   -1.1995   -2.1297   -2.1934 C   0  0  0  0  0  0  0  0  0  0  0  0
   -1.4636   -1.4195   -2.9781 H   0  0  0  0  0  0  0  0  0  0  0  0
   -1.1489   -3.1312   -2.6212 H   0  0  0  0  0  0  0  0  0  0  0  0
   -1.9746   -2.1203   -1.4301 H   0  0  0  0  0  0  0  0  0  0  0  0
    1.2151   -1.8934   -2.6855 C   0  0  0  0  0  0  0  0  0  0  0  0
    2.1989   -1.6647   -2.2760 H   0  0  0  0  0  0  0  0  0  0  0  0
    1.2258   -2.9149   -3.0656 H   0  0  0  0  0  0  0  0  0  0  0  0
    0.9978   -1.2069   -3.5046 H   0  0  0  0  0  0  0  0  0  0  0  0
   -0.7793    1.3659    0.6455 C   0  0  0  0  0  0  0  0  0  0  0  0
   -1.6464    2.0125    0.0623 O   0  0  0  0  0  0  0  0  0  0  0  0
    0.0189    1.9059    1.5756 N   0  0  0  0  0  0  0  0  0  0  0  0
    0.7024    1.3094    2.0137 H   0  0  0  0  0  0  0  0  0  0  0  0
   -0.0451    3.3046    1.9929 C   0  0  0  0  0  0  0  0  0  0  0  0
   -1.0415    3.5286    2.3805 H   0  0  0  0  0  0  0  0  0  0  0  0
    0.6954    3.5023    2.7695 H   0  0  0  0  0  0  0  0  0  0  0  0
    0.1474    3.9536    1.1372 H   0  0  0  0  0  0  0  0  0  0  0  0
  5  6  2  0  0  0  0
  5  7  1  0  0  0  0
  2  3  1  0  0  0  0
  2  4  1  0  0  0  0
  2  5  1  0  0  0  0
  1  2  1  0  0  0  0
 24 25  2  0  0  0  0
 24 26  1  0  0  0  0
 20 21  1  0  0  0  0
 20 22  1  0  0  0  0
 20 23  1  0  0  0  0
 16 17  1  0  0  0  0
 16 18  1  0  0  0  0
 16 19  1  0  0  0  0
 14 15  1  0  0  0  0
 14 16  1  0  0  0  0
 14 20  1  0  0  0  0
 11 12  1  0  0  0  0
 11 13  1  0  0  0  0
 11 14  1  0  0  0  0
  9 10  1  0  0  0  0
  9 11  1  0  0  0  0
  9 24  1  0  0  0  0
  7  8  1  0  0  0  0
  7  9  1  0  0  0  0
 28 29  1  0  0  0  0
 28 30  1  0  0  0  0
 28 31  1  0  0  0  0
 26 27  1  0  0  0  0
 26 28  1  0  0  0  0
M  END
$$$$
default_name
  -OEChem-02102213163D

 31 30  0     1  0  0  0  0  0999 V2000
   -3.5895   -3.5013    1.1082 H   0  0  0  0  0  0  0  0  0  0  0  0
   -3.5145   -2.5363    0.6082 C   0  0  0  0  0  0  0  0  0  0  0  0
   -4.2285   -1.8413    1.0452 H   0  0  0  0  0  0  0  0  0  0  0  0
   -3.7155   -2.6583   -0.4538 H   0  0  0  0  0  0  0  0  0  0  0  0
   -2.1155   -1.9963    0.7922 C   0  0  0  0  0  0  0  0  0  0  0  0
   -1.2875   -2.6383    1.4252 O   0  0  0  0  0  0  0  0  0  0  0  0
   -1.8575   -0.8123    0.2402 N   0  0  0  0  0  0  0  0  0  0  0  0
   -2.6005   -0.3333   -0.2478 H   0  0  0  0  0  0  0  0  0  0  0  0
   -0.5675   -0.1203    0.3102 C   0  0  1  0  0  0  0  0  0  0  0  0
    0.0191   -0.5718    1.1110 H   0  0  0  0  0  0  0  0  0  0  0  0
    0.1724   -0.3238   -1.0286 C   0  0  0  0  0  0  0  0  0  0  0  0
   -0.2655    0.3431   -1.7738 H   0  0  0  0  0  0  0  0  0  0  0  0
    1.2133   -0.0244   -0.8877 H   0  0  0  0  0  0  0  0  0  0  0  0
    0.1580   -1.7574   -1.5903 C   0  0  0  0  0  0  0  0  0  0  0  0
    0.1339   -2.4742   -0.7694 H   0  0  0  0  0  0  0  0  0  0  0  0
   -1.0433   -2.0087   -2.5063 C   0  0  0  0  0  0  0  0  0  0  0  0
   -1.0421   -1.2879   -3.3250 H   0  0  0  0  0  0  0  0  0  0  0  0
   -0.9862   -3.0164   -2.9184 H   0  0  0  0  0  0  0  0  0  0  0  0
   -1.9749   -1.9157   -1.9523 H   0  0  0  0  0  0  0  0  0  0  0  0
    1.4300   -2.0076   -2.3996 C   0  0  0  0  0  0  0  0  0  0  0  0
    2.3033   -1.8668   -1.7628 H   0  0  0  0  0  0  0  0  0  0  0  0
    1.4352   -3.0308   -2.7752 H   0  0  0  0  0  0  0  0  0  0  0  0
    1.4824   -1.3152   -3.2405 H   0  0  0  0  0  0  0  0  0  0  0  0
   -0.7793    1.3659    0.6455 C   0  0  0  0  0  0  0  0  0  0  0  0
   -1.6464    2.0125    0.0623 O   0  0  0  0  0  0  0  0  0  0  0  0
    0.0189    1.9059    1.5756 N   0  0  0  0  0  0  0  0  0  0  0  0
    0.7024    1.3094    2.0137 H   0  0  0  0  0  0  0  0  0  0  0  0
   -0.0451    3.3046    1.9929 C   0  0  0  0  0  0  0  0  0  0  0  0
   -1.0415    3.5286    2.3805 H   0  0  0  0  0  0  0  0  0  0  0  0
    0.6954    3.5023    2.7695 H   0  0  0  0  0  0  0  0  0  0  0  0
    0.1474    3.9536    1.1372 H   0  0  0  0  0  0  0  0  0  0  0  0
  5  6  2  0  0  0  0
  5  7  1  0  0  0  0
  2  3  1  0  0  0  0
  2  4  1  0  0  0  0
  2  5  1  0  0  0  0
  1  2  1  0  0  0  0
 24 25  2  0  0  0  0
 24 26  1  0  0  0  0
 20 21  1  0  0  0  0
 20 22  1  0  0  0  0
 20 23  1  0  0  0  0
 16 17  1  0  0  0  0
 16 18  1  0  0  0  0
 16 19  1  0  0  0  0
 14 15  1  0  0  0  0
 14 16  1  0  0  0  0
 14 20  1  0  0  0  0
 11 12  1  0  0  0  0
 11 13  1  0  0  0  0
 11 14  1  0  0  0  0
  9 10  1  0  0  0  0
  9 11  1  0  0  0  0
  9 24  1  0  0  0  0
  7  8  1  0  0  0  0
  7  9  1  0  0  0  0
 28 29  1  0  0  0  0
 28 30  1  0  0  0  0
 28 31  1  0  0  0  0
 26 27  1  0  0  0  0
 26 28  1  0  0  0  0
M  END
$$$$
default_name
  -OEChem-02102213163D

 31 30  0     1  0  0  0  0  0999 V2000
   -3.5895   -3.5013    1.1082 H   0  0  0  0  0  0  0  0  0  0  0  0
   -3.5145   -2.5363    0.6082 C   0  0  0  0  0  0  0  0  0  0  0  0
   -4.2285   -1.8413    1.0452 H   0  0  0  0  0  0  0  0  0  0  0  0
   -3.7155   -2.6583   -0.4538 H   0  0  0  0  0  0  0  0  0  0  0  0
   -2.1155   -1.9963    0.7922 C   0  0  0  0  0  0  0  0  0  0  0  0
   -1.2875   -2.6383    1.4252 O   0  0  0  0  0  0  0  0  0  0  0  0
   -1.8575   -0.8123    0.2402 N   0  0  0  0  0  0  0  0  0  0  0  0
   -2.6005   -0.3333   -0.2478 H   0  0  0  0  0  0  0  0  0  0  0  0
   -0.5675   -0.1203    0.3102 C   0  0  1  0  0  0  0  0  0  0  0  0
    0.0191   -0.5718    1.1110 H   0  0  0  0  0  0  0  0  0  0  0  0
    0.1724   -0.3238   -1.0286 C   0  0  0  0  0  0  0  0  0  0  0  0
   -0.2655    0.3431   -1.7738 H   0  0  0  0  0  0  0  0  0  0  0  0
    1.2133   -0.0244   -0.8877 H   0  0  0  0  0  0  0  0  0  0  0  0
    0.1580   -1.7574   -1.5903 C   0  0  0  0  0  0  0  0  0  0  0  0
   -0.1308   -2.4572   -0.8060 H   0  0  0  0  0  0  0  0  0  0  0  0
   -0.8055   -1.9073   -2.7711 C   0  0  0  0  0  0  0  0  0  0  0  0
   -0.5389   -1.2013   -3.5588 H   0  0  0  0  0  0  0  0  0  0  0  0
   -0.7466   -2.9216   -3.1666 H   0  0  0  0  0  0  0  0  0  0  0  0
   -1.8300   -1.7193   -2.4573 H   0  0  0  0  0  0  0  0  0  0  0  0
    1.5579   -2.1375   -2.0713 C   0  0  0  0  0  0  0  0  0  0  0  0
    2.2614   -2.0707   -1.2415 H   0  0  0  0  0  0  0  0  0  0  0  0
    1.5564   -3.1618   -2.4440 H   0  0  0  0  0  0  0  0  0  0  0  0
    1.8766   -1.4649   -2.8684 H   0  0  0  0  0  0  0  0  0  0  0  0
   -0.7793    1.3659    0.6455 C   0  0  0  0  0  0  0  0  0  0  0  0
   -1.6464    2.0125    0.0623 O   0  0  0  0  0  0  0  0  0  0  0  0
    0.0189    1.9059    1.5756 N   0  0  0  0  0  0  0  0  0  0  0  0
    0.7024    1.3094    2.0137 H   0  0  0  0  0  0  0  0  0  0  0  0
   -0.0451    3.3046    1.9929 C   0  0  0  0  0  0  0  0  0  0  0  0
   -1.0415    3.5286    2.3805 H   0  0  0  0  0  0  0  0  0  0  0  0
    0.6954    3.5023    2.7695 H   0  0  0  0  0  0  0  0  0  0  0  0
    0.1474    3.9536    1.1372 H   0  0  0  0  0  0  0  0  0  0  0  0
  5  6  2  0  0  0  0
  5  7  1  0  0  0  0
  2  3  1  0  0  0  0
  2  4  1  0  0  0  0
  2  5  1  0  0  0  0
  1  2  1  0  0  0  0
 24 25  2  0  0  0  0
 24 26  1  0  0  0  0
 20 21  1  0  0  0  0
 20 22  1  0  0  0  0
 20 23  1  0  0  0  0
 16 17  1  0  0  0  0
 16 18  1  0  0  0  0
 16 19  1  0  0  0  0
 14 15  1  0  0  0  0
 14 16  1  0  0  0  0
 14 20  1  0  0  0  0
 11 12  1  0  0  0  0
 11 13  1  0  0  0  0
 11 14  1  0  0  0  0
  9 10  1  0  0  0  0
  9 11  1  0  0  0  0
  9 24  1  0  0  0  0
  7  8  1  0  0  0  0
  7  9  1  0  0  0  0
 28 29  1  0  0  0  0
 28 30  1  0  0  0  0
 28 31  1  0  0  0  0
 26 27  1  0  0  0  0
 26 28  1  0  0  0  0
M  END
$$$$
default_name
  -OEChem-02102213163D

 31 30  0     1  0  0  0  0  0999 V2000
   -3.5895   -3.5013    1.1082 H   0  0  0  0  0  0  0  0  0  0  0  0
   -3.5145   -2.5363    0.6082 C   0  0  0  0  0  0  0  0  0  0  0  0
   -4.2285   -1.8413    1.0452 H   0  0  0  0  0  0  0  0  0  0  0  0
   -3.7155   -2.6583   -0.4538 H   0  0  0  0  0  0  0  0  0  0  0  0
   -2.1155   -1.9963    0.7922 C   0  0  0  0  0  0  0  0  0  0  0  0
   -1.2875   -2.6383    1.4252 O   0  0  0  0  0  0  0  0  0  0  0  0
   -1.8575   -0.8123    0.2402 N   0  0  0  0  0  0  0  0  0  0  0  0
   -2.6005   -0.3333   -0.2478 H   0  0  0  0  0  0  0  0  0  0  0  0
   -0.5675   -0.1203    0.3102 C   0  0  1  0  0  0  0  0  0  0  0  0
    0.0191   -0.5718    1.1110 H   0  0  0  0  0  0  0  0  0  0  0  0
    0.1724   -0.3238   -1.0286 C   0  0  0  0  0  0  0  0  0  0  0  0
   -0.2655    0.3431   -1.7738 H   0  0  0  0  0  0  0  0  0  0  0  0
    1.2133   -0.0244   -0.8877 H   0  0  0  0  0  0  0  0  0  0  0  0
    0.1580   -1.7574   -1.5903 C   0  0  0  0  0  0  0  0  0  0  0  0
   -0.3761   -2.4158   -0.9053 H   0  0  0  0  0  0  0  0  0  0  0  0
   -0.5025   -1.8325   -2.9699 C   0  0  0  0  0  0  0  0  0  0  0  0
    0.0116   -1.1658   -3.6636 H   0  0  0  0  0  0  0  0  0  0  0  0
   -0.4464   -2.8532   -3.3488 H   0  0  0  0  0  0  0  0  0  0  0  0
   -1.5499   -1.5445   -2.9106 H   0  0  0  0  0  0  0  0  0  0  0  0
    1.5901   -2.2742   -1.7231 C   0  0  0  0  0  0  0  0  0  0  0  0
    2.0761   -2.2623   -0.7476 H   0  0  0  0  0  0  0  0  0  0  0  0
    1.5814   -3.2989   -2.0945 H   0  0  0  0  0  0  0  0  0  0  0  0
    2.1536   -1.6459   -2.4137 H   0  0  0  0  0  0  0  0  0  0  0  0
   -0.7793    1.3659    0.6455 C   0  0  0  0  0  0  0  0  0  0  0  0
   -1.6464    2.0125    0.0623 O   0  0  0  0  0  0  0  0  0  0  0  0
    0.0189    1.9059    1.5756 N   0  0  0  0  0  0  0  0  0  0  0  0
    0.7024    1.3094    2.0137 H   0  0  0  0  0  0  0  0  0  0  0  0
   -0.0451    3.3046    1.9929 C   0  0  0  0  0  0  0  0  0  0  0  0
   -1.0415    3.5286    2.3805 H   0  0  0  0  0  0  0  0  0  0  0  0
    0.6954    3.5023    2.7695 H   0  0  0  0  0  0  0  0  0  0  0  0
    0.1474    3.9536    1.1372 H   0  0  0  0  0  0  0  0  0  0  0  0
  5  6  2  0  0  0  0
  5  7  1  0  0  0  0
  2  3  1  0  0  0  0
  2  4  1  0  0  0  0
  2  5  1  0  0  0  0
  1  2  1  0  0  0  0
 24 25  2  0  0  0  0
 24 26  1  0  0  0  0
 20 21  1  0  0  0  0
 20 22  1  0  0  0  0
 20 23  1  0  0  0  0
 16 17  1  0  0  0  0
 16 18  1  0  0  0  0
 16 19  1  0  0  0  0
 14 15  1  0  0  0  0
 14 16  1  0  0  0  0
 14 20  1  0  0  0  0
 11 12  1  0  0  0  0
 11 13  1  0  0  0  0
 11 14  1  0  0  0  0
  9 10  1  0  0  0  0
  9 11  1  0  0  0  0
  9 24  1  0  0  0  0
  7  8  1  0  0  0  0
  7  9  1  0  0  0  0
 28 29  1  0  0  0  0
 28 30  1  0  0  0  0
 28 31  1  0  0  0  0
 26 27  1  0  0  0  0
 26 28  1  0  0  0  0
M  END
$$$$
default_name
  -OEChem-02102213163D

 31 30  0     1  0  0  0  0  0999 V2000
   -3.5895   -3.5013    1.1082 H   0  0  0  0  0  0  0  0  0  0  0  0
   -3.5145   -2.5363    0.6082 C   0  0  0  0  0  0  0  0  0  0  0  0
   -4.2285   -1.8413    1.0452 H   0  0  0  0  0  0  0  0  0  0  0  0
   -3.7155   -2.6583   -0.4538 H   0  0  0  0  0  0  0  0  0  0  0  0
   -2.1155   -1.9963    0.7922 C   0  0  0  0  0  0  0  0  0  0  0  0
   -1.2875   -2.6383    1.4252 O   0  0  0  0  0  0  0  0  0  0  0  0
   -1.8575   -0.8123    0.2402 N   0  0  0  0  0  0  0  0  0  0  0  0
   -2.6005   -0.3333   -0.2478 H   0  0  0  0  0  0  0  0  0  0  0  0
   -0.5675   -0.1203    0.3102 C   0  0  1  0  0  0  0  0  0  0  0  0
    0.0191   -0.5718    1.1110 H   0  0  0  0  0  0  0  0  0  0  0  0
    0.1724   -0.3238   -1.0286 C   0  0  0  0  0  0  0  0  0  0  0  0
   -0.2655    0.3431   -1.7738 H   0  0  0  0  0  0  0  0  0  0  0  0
    1.2133   -0.0244   -0.8877 H   0  0  0  0  0  0  0  0  0  0  0  0
    0.1580   -1.7574   -1.5903 C   0  0  0  0  0  0  0  0  0  0  0  0
   -0.5853   -2.3530   -1.0603 H   0  0  0  0  0  0  0  0  0  0  0  0
   -0.1548   -1.7893   -3.0891 C   0  0  0  0  0  0  0  0  0  0  0  0
    0.5720   -1.1837   -3.6322 H   0  0  0  0  0  0  0  0  0  0  0  0
   -0.1060   -2.8160   -3.4526 H   0  0  0  0  0  0  0  0  0  0  0  0
   -1.1535   -1.4032   -3.2814 H   0  0  0  0  0  0  0  0  0  0  0  0
    1.5243   -2.4085   -1.3786 C   0  0  0  0  0  0  0  0  0  0  0  0
    1.7600   -2.4288   -0.3147 H   0  0  0  0  0  0  0  0  0  0  0  0
    1.5084   -3.4330   -1.7505 H   0  0  0  0  0  0  0  0  0  0  0  0
    2.2945   -1.8457   -1.9072 H   0  0  0  0  0  0  0  0  0  0  0  0
   -0.7793    1.3659    0.6455 C   0  0  0  0  0  0  0  0  0  0  0  0
   -1.6464    2.0125    0.0623 O   0  0  0  0  0  0  0  0  0  0  0  0
    0.0189    1.9059    1.5756 N   0  0  0  0  0  0  0  0  0  0  0  0
    0.7024    1.3094    2.0137 H   0  0  0  0  0  0  0  0  0  0  0  0
   -0.0451    3.3046    1.9929 C   0  0  0  0  0  0  0  0  0  0  0  0
   -1.0415    3.5286    2.3805 H   0  0  0  0  0  0  0  0  0  0  0  0
    0.6954    3.5023    2.7695 H   0  0  0  0  0  0  0  0  0  0  0  0
    0.1474    3.9536    1.1372 H   0  0  0  0  0  0  0  0  0  0  0  0
  5  6  2  0  0  0  0
  5  7  1  0  0  0  0
  2  3  1  0  0  0  0
  2  4  1  0  0  0  0
  2  5  1  0  0  0  0
  1  2  1  0  0  0  0
 24 25  2  0  0  0  0
 24 26  1  0  0  0  0
 20 21  1  0  0  0  0
 20 22  1  0  0  0  0
 20 23  1  0  0  0  0
 16 17  1  0  0  0  0
 16 18  1  0  0  0  0
 16 19  1  0  0  0  0
 14 15  1  0  0  0  0
 14 16  1  0  0  0  0
 14 20  1  0  0  0  0
 11 12  1  0  0  0  0
 11 13  1  0  0  0  0
 11 14  1  0  0  0  0
  9 10  1  0  0  0  0
  9 11  1  0  0  0  0
  9 24  1  0  0  0  0
  7  8  1  0  0  0  0
  7  9  1  0  0  0  0
 28 29  1  0  0  0  0
 28 30  1  0  0  0  0
 28 31  1  0  0  0  0
 26 27  1  0  0  0  0
 26 28  1  0  0  0  0
M  END
$$$$
default_name
  -OEChem-02102213163D

 31 30  0     1  0  0  0  0  0999 V2000
   -3.5895   -3.5013    1.1082 H   0  0  0  0  0  0  0  0  0  0  0  0
   -3.5145   -2.5363    0.6082 C   0  0  0  0  0  0  0  0  0  0  0  0
   -4.2285   -1.8413    1.0452 H   0  0  0  0  0  0  0  0  0  0  0  0
   -3.7155   -2.6583   -0.4538 H   0  0  0  0  0  0  0  0  0  0  0  0
   -2.1155   -1.9963    0.7922 C   0  0  0  0  0  0  0  0  0  0  0  0
   -1.2875   -2.6383    1.4252 O   0  0  0  0  0  0  0  0  0  0  0  0
   -1.8575   -0.8123    0.2402 N   0  0  0  0  0  0  0  0  0  0  0  0
   -2.6005   -0.3333   -0.2478 H   0  0  0  0  0  0  0  0  0  0  0  0
   -0.5675   -0.1203    0.3102 C   0  0  1  0  0  0  0  0  0  0  0  0
    0.0191   -0.5718    1.1110 H   0  0  0  0  0  0  0  0  0  0  0  0
    0.1724   -0.3238   -1.0286 C   0  0  0  0  0  0  0  0  0  0  0  0
   -0.2655    0.3431   -1.7738 H   0  0  0  0  0  0  0  0  0  0  0  0
    1.2133   -0.0244   -0.8877 H   0  0  0  0  0  0  0  0  0  0  0  0
    0.1580   -1.7574   -1.5903 C   0  0  0  0  0  0  0  0  0  0  0  0
   -0.7440   -2.2729   -1.2606 H   0  0  0  0  0  0  0  0  0  0  0  0
    0.2139   -1.7806   -3.1205 C   0  0  0  0  0  0  0  0  0  0  0  0
    1.1041   -1.2538   -3.4668 H   0  0  0  0  0  0  0  0  0  0  0  0
    0.2513   -2.8124   -3.4709 H   0  0  0  0  0  0  0  0  0  0  0  0
   -0.6679   -1.3050   -3.5444 H   0  0  0  0  0  0  0  0  0  0  0  0
    1.3651   -2.5312   -1.0615 C   0  0  0  0  0  0  0  0  0  0  0  0
    1.3346   -2.5587    0.0277 H   0  0  0  0  0  0  0  0  0  0  0  0
    1.3423   -3.5547   -1.4356 H   0  0  0  0  0  0  0  0  0  0  0  0
    2.2897   -2.0508   -1.3836 H   0  0  0  0  0  0  0  0  0  0  0  0
   -0.7793    1.3659    0.6455 C   0  0  0  0  0  0  0  0  0  0  0  0
   -1.6464    2.0125    0.0623 O   0  0  0  0  0  0  0  0  0  0  0  0
    0.0189    1.9059    1.5756 N   0  0  0  0  0  0  0  0  0  0  0  0
    0.7024    1.3094    2.0137 H   0  0  0  0  0  0  0  0  0  0  0  0
   -0.0451    3.3046    1.9929 C   0  0  0  0  0  0  0  0  0  0  0  0
   -1.0415    3.5286    2.3805 H   0  0  0  0  0  0  0  0  0  0  0  0
    0.6954    3.5023    2.7695 H   0  0  0  0  0  0  0  0  0  0  0  0
    0.1474    3.9536    1.1372 H   0  0  0  0  0  0  0  0  0  0  0  0
  5  6  2  0  0  0  0
  5  7  1  0  0  0  0
  2  3  1  0  0  0  0
  2  4  1  0  0  0  0
  2  5  1  0  0  0  0
  1  2  1  0  0  0  0
 24 25  2  0  0  0  0
 24 26  1  0  0  0  0
 20 21  1  0  0  0  0
 20 22  1  0  0  0  0
 20 23  1  0  0  0  0
 16 17  1  0  0  0  0
 16 18  1  0  0  0  0
 16 19  1  0  0  0  0
 14 15  1  0  0  0  0
 14 16  1  0  0  0  0
 14 20  1  0  0  0  0
 11 12  1  0  0  0  0
 11 13  1  0  0  0  0
 11 14  1  0  0  0  0
  9 10  1  0  0  0  0
  9 11  1  0  0  0  0
  9 24  1  0  0  0  0
  7  8  1  0  0  0  0
  7  9  1  0  0  0  0
 28 29  1  0  0  0  0
 28 30  1  0  0  0  0
 28 31  1  0  0  0  0
 26 27  1  0  0  0  0
 26 28  1  0  0  0  0
M  END
$$$$
default_name
  -OEChem-02102213163D

 31 30  0     1  0  0  0  0  0999 V2000
   -3.5895   -3.5013    1.1082 H   0  0  0  0  0  0  0  0  0  0  0  0
   -3.5145   -2.5363    0.6082 C   0  0  0  0  0  0  0  0  0  0  0  0
   -4.2285   -1.8413    1.0452 H   0  0  0  0  0  0  0  0  0  0  0  0
   -3.7155   -2.6583   -0.4538 H   0  0  0  0  0  0  0  0  0  0  0  0
   -2.1155   -1.9963    0.7922 C   0  0  0  0  0  0  0  0  0  0  0  0
   -1.2875   -2.6383    1.4252 O   0  0  0  0  0  0  0  0  0  0  0  0
   -1.8575   -0.8123    0.2402 N   0  0  0  0  0  0  0  0  0  0  0  0
   -2.6005   -0.3333   -0.2478 H   0  0  0  0  0  0  0  0  0  0  0  0
   -0.5675   -0.1203    0.3102 C   0  0  1  0  0  0  0  0  0  0  0  0
    0.0191   -0.5718    1.1110 H   0  0  0  0  0  0  0  0  0  0  0  0
    0.1724   -0.3238   -1.0286 C   0  0  0  0  0  0  0  0  0  0  0  0
   -0.2655    0.3431   -1.7738 H   0  0  0  0  0  0  0  0  0  0  0  0
    1.2133   -0.0244   -0.8877 H   0  0  0  0  0  0  0  0  0  0  0  0
    0.1580   -1.7574   -1.5903 C   0  0  0  0  0  0  0  0  0  0  0  0
   -0.8415   -2.1811   -1.4926 H   0  0  0  0  0  0  0  0  0  0  0  0
    0.5783   -1.8072   -3.0621 C   0  0  0  0  0  0  0  0  0  0  0  0
    1.5715   -1.3714   -3.1787 H   0  0  0  0  0  0  0  0  0  0  0  0
    0.6012   -2.8426   -3.4025 H   0  0  0  0  0  0  0  0  0  0  0  0
   -0.1263   -1.2567   -3.6816 H   0  0  0  0  0  0  0  0  0  0  0  0
    1.1233   -2.6339   -0.7932 C   0  0  0  0  0  0  0  0  0  0  0  0
    0.8289   -2.6431    0.2562 H   0  0  0  0  0  0  0  0  0  0  0  0
    1.0944   -3.6558   -1.1711 H   0  0  0  0  0  0  0  0  0  0  0  0
    2.1395   -2.2472   -0.8784 H   0  0  0  0  0  0  0  0  0  0  0  0
   -0.7793    1.3659    0.6455 C   0  0  0  0  0  0  0  0  0  0  0  0
   -1.6464    2.0125    0.0623 O   0  0  0  0  0  0  0  0  0  0  0  0
    0.0189    1.9059    1.5756 N   0  0  0  0  0  0  0  0  0  0  0  0
    0.7024    1.3094    2.0137 H   0  0  0  0  0  0  0  0  0  0  0  0
   -0.0451    3.3046    1.9929 C   0  0  0  0  0  0  0  0  0  0  0  0
   -1.0415    3.5286    2.3805 H   0  0  0  0  0  0  0  0  0  0  0  0
    0.6954    3.5023    2.7695 H   0  0  0  0  0  0  0  0  0  0  0  0
    0.1474    3.9536    1.1372 H   0  0  0  0  0  0  0  0  0  0  0  0
  5  6  2  0  0  0  0
  5  7  1  0  0  0  0
  2  3  1  0  0  0  0
  2  4  1  0  0  0  0
  2  5  1  0  0  0  0
  1  2  1  0  0  0  0
 24 25  2  0  0  0  0
 24 26  1  0  0  0  0
 20 21  1  0  0  0  0
 20 22  1  0  0  0  0
 20 23  1  0  0  0  0
 16 17  1  0  0  0  0
 16 18  1  0  0  0  0
 16 19  1  0  0  0  0
 14 15  1  0  0  0  0
 14 16  1  0  0  0  0
 14 20  1  0  0  0  0
 11 12  1  0  0  0  0
 11 13  1  0  0  0  0
 11 14  1  0  0  0  0
  9 10  1  0  0  0  0
  9 11  1  0  0  0  0
  9 24  1  0  0  0  0
  7  8  1  0  0  0  0
  7  9  1  0  0  0  0
 28 29  1  0  0  0  0
 28 30  1  0  0  0  0
 28 31  1  0  0  0  0
 26 27  1  0  0  0  0
 26 28  1  0  0  0  0
M  END
$$$$
default_name
  -OEChem-02102213163D

 31 30  0     1  0  0  0  0  0999 V2000
   -3.5895   -3.5013    1.1082 H   0  0  0  0  0  0  0  0  0  0  0  0
   -3.5145   -2.5363    0.6082 C   0  0  0  0  0  0  0  0  0  0  0  0
   -4.2285   -1.8413    1.0452 H   0  0  0  0  0  0  0  0  0  0  0  0
   -3.7155   -2.6583   -0.4538 H   0  0  0  0  0  0  0  0  0  0  0  0
   -2.1155   -1.9963    0.7922 C   0  0  0  0  0  0  0  0  0  0  0  0
   -1.2875   -2.6383    1.4252 O   0  0  0  0  0  0  0  0  0  0  0  0
   -1.8575   -0.8123    0.2402 N   0  0  0  0  0  0  0  0  0  0  0  0
   -2.6005   -0.3333   -0.2478 H   0  0  0  0  0  0  0  0  0  0  0  0
   -0.5675   -0.1203    0.3102 C   0  0  1  0  0  0  0  0  0  0  0  0
    0.0191   -0.5718    1.1110 H   0  0  0  0  0  0  0  0  0  0  0  0
    0.1724   -0.3238   -1.0286 C   0  0  0  0  0  0  0  0  0  0  0  0
   -0.0697    0.5096   -1.6909 H   0  0  0  0  0  0  0  0  0  0  0  0
    1.2458   -0.2873   -0.8298 H   0  0  0  0  0  0  0  0  0  0  0  0
   -0.1333   -1.6386   -1.7693 C   0  0  0  0  0  0  0  0  0  0  0  0
   -1.2007   -1.7027   -1.9804 H   0  0  0  0  0  0  0  0  0  0  0  0
    0.6424   -1.7565   -3.0845 C   0  0  0  0  0  0  0  0  0  0  0  0
    1.7131   -1.6779   -2.8915 H   0  0  0  0  0  0  0  0  0  0  0  0
    0.4336   -2.7206   -3.5488 H   0  0  0  0  0  0  0  0  0  0  0  0
    0.3474   -0.9703   -3.7762 H   0  0  0  0  0  0  0  0  0  0  0  0
    0.2469   -2.8280   -0.8882 C   0  0  0  0  0  0  0  0  0  0  0  0
   -0.3154   -2.7878    0.0446 H   0  0  0  0  0  0  0  0  0  0  0  0
    0.0058   -3.7600   -1.3993 H   0  0  0  0  0  0  0  0  0  0  0  0
    1.3144   -2.8050   -0.6662 H   0  0  0  0  0  0  0  0  0  0  0  0
   -0.7793    1.3659    0.6455 C   0  0  0  0  0  0  0  0  0  0  0  0
   -1.6464    2.0125    0.0623 O   0  0  0  0  0  0  0  0  0  0  0  0
    0.0189    1.9059    1.5756 N   0  0  0  0  0  0  0  0  0  0  0  0
    0.7024    1.3094    2.0137 H   0  0  0  0  0  0  0  0  0  0  0  0
   -0.0451    3.3046    1.9929 C   0  0  0  0  0  0  0  0  0  0  0  0
   -1.0415    3.5286    2.3805 H   0  0  0  0  0  0  0  0  0  0  0  0
    0.6954    3.5023    2.7695 H   0  0  0  0  0  0  0  0  0  0  0  0
    0.1474    3.9536    1.1372 H   0  0  0  0  0  0  0  0  0  0  0  0
  5  6  2  0  0  0  0
  5  7  1  0  0  0  0
  2  3  1  0  0  0  0
  2  4  1  0  0  0  0
  2  5  1  0  0  0  0
  1  2  1  0  0  0  0
 24 25  2  0  0  0  0
 24 26  1  0  0  0  0
 20 21  1  0  0  0  0
 20 22  1  0  0  0  0
 20 23  1  0  0  0  0
 16 17  1  0  0  0  0
 16 18  1  0  0  0  0
 16 19  1  0  0  0  0
 14 15  1  0  0  0  0
 14 16  1  0  0  0  0
 14 20  1  0  0  0  0
 11 12  1  0  0  0  0
 11 13  1  0  0  0  0
 11 14  1  0  0  0  0
  9 10  1  0  0  0  0
  9 11  1  0  0  0  0
  9 24  1  0  0  0  0
  7  8  1  0  0  0  0
  7  9  1  0  0  0  0
 28 29  1  0  0  0  0
 28 30  1  0  0  0  0
 28 31  1  0  0  0  0
 26 27  1  0  0  0  0
 26 28  1  0  0  0  0
M  END
$$$$
default_name
  -OEChem-02102213163D

 31 30  0     1  0  0  0  0  0999 V2000
   -3.5895   -3.5013    1.1082 H   0  0  0  0  0  0  0  0  0  0  0  0
   -3.5145   -2.5363    0.6082 C   0  0  0  0  0  0  0  0  0  0  0  0
   -4.2285   -1.8413    1.0452 H   0  0  0  0  0  0  0  0  0  0  0  0
   -3.7155   -2.6583   -0.4538 H   0  0  0  0  0  0  0  0  0  0  0  0
   -2.1155   -1.9963    0.7922 C   0  0  0  0  0  0  0  0  0  0  0  0
   -1.2875   -2.6383    1.4252 O   0  0  0  0  0  0  0  0  0  0  0  0
   -1.8575   -0.8123    0.2402 N   0  0  0  0  0  0  0  0  0  0  0  0
   -2.6005   -0.3333   -0.2478 H   0  0  0  0  0  0  0  0  0  0  0  0
   -0.5675   -0.1203    0.3102 C   0  0  1  0  0  0  0  0  0  0  0  0
    0.0191   -0.5718    1.1110 H   0  0  0  0  0  0  0  0  0  0  0  0
    0.1724   -0.3238   -1.0286 C   0  0  0  0  0  0  0  0  0  0  0  0
   -0.0697    0.5096   -1.6909 H   0  0  0  0  0  0  0  0  0  0  0  0
    1.2458   -0.2873   -0.8298 H   0  0  0  0  0  0  0  0  0  0  0  0
   -0.1333   -1.6386   -1.7693 C   0  0  0  0  0  0  0  0  0  0  0  0
   -1.1282   -1.5892   -2.2119 H   0  0  0  0  0  0  0  0  0  0  0  0
    0.8880   -1.9334   -2.8717 C   0  0  0  0  0  0  0  0  0  0  0  0
    1.8919   -1.9701   -2.4465 H   0  0  0  0  0  0  0  0  0  0  0  0
    0.6616   -2.8942   -3.3346 H   0  0  0  0  0  0  0  0  0  0  0  0
    0.8558   -1.1648   -3.6408 H   0  0  0  0  0  0  0  0  0  0  0  0
   -0.1124   -2.8045   -0.7816 C   0  0  0  0  0  0  0  0  0  0  0  0
   -0.8542   -2.6370   -0.0008 H   0  0  0  0  0  0  0  0  0  0  0  0
   -0.3557   -3.7328   -1.2985 H   0  0  0  0  0  0  0  0  0  0  0  0
    0.8749   -2.8940   -0.3269 H   0  0  0  0  0  0  0  0  0  0  0  0
   -0.7793    1.3659    0.6455 C   0  0  0  0  0  0  0  0  0  0  0  0
   -1.6464    2.0125    0.0623 O   0  0  0  0  0  0  0  0  0  0  0  0
    0.0189    1.9059    1.5756 N   0  0  0  0  0  0  0  0  0  0  0  0
    0.7024    1.3094    2.0137 H   0  0  0  0  0  0  0  0  0  0  0  0
   -0.0451    3.3046    1.9929 C   0  0  0  0  0  0  0  0  0  0  0  0
   -1.0415    3.5286    2.3805 H   0  0  0  0  0  0  0  0  0  0  0  0
    0.6954    3.5023    2.7695 H   0  0  0  0  0  0  0  0  0  0  0  0
    0.1474    3.9536    1.1372 H   0  0  0  0  0  0  0  0  0  0  0  0
  5  6  2  0  0  0  0
  5  7  1  0  0  0  0
  2  3  1  0  0  0  0
  2  4  1  0  0  0  0
  2  5  1  0  0  0  0
  1  2  1  0  0  0  0
 24 25  2  0  0  0  0
 24 26  1  0  0  0  0
 20 21  1  0  0  0  0
 20 22  1  0  0  0  0
 20 23  1  0  0  0  0
 16 17  1  0  0  0  0
 16 18  1  0  0  0  0
 16 19  1  0  0  0  0
 14 15  1  0  0  0  0
 14 16  1  0  0  0  0
 14 20  1  0  0  0  0
 11 12  1  0  0  0  0
 11 13  1  0  0  0  0
 11 14  1  0  0  0  0
  9 10  1  0  0  0  0
  9 11  1  0  0  0  0
  9 24  1  0  0  0  0
  7  8  1  0  0  0  0
  7  9  1  0  0  0  0
 28 29  1  0  0  0  0
 28 30  1  0  0  0  0
 28 31  1  0  0  0  0
 26 27  1  0  0  0  0
 26 28  1  0  0  0  0
M  END
$$$$
default_name
  -OEChem-02102213163D

 31 30  0     1  0  0  0  0  0999 V2000
   -3.5895   -3.5013    1.1082 H   0  0  0  0  0  0  0  0  0  0  0  0
   -3.5145   -2.5363    0.6082 C   0  0  0  0  0  0  0  0  0  0  0  0
   -4.2285   -1.8413    1.0452 H   0  0  0  0  0  0  0  0  0  0  0  0
   -3.7155   -2.6583   -0.4538 H   0  0  0  0  0  0  0  0  0  0  0  0
   -2.1155   -1.9963    0.7922 C   0  0  0  0  0  0  0  0  0  0  0  0
   -1.2875   -2.6383    1.4252 O   0  0  0  0  0  0  0  0  0  0  0  0
   -1.8575   -0.8123    0.2402 N   0  0  0  0  0  0  0  0  0  0  0  0
   -2.6005   -0.3333   -0.2478 H   0  0  0  0  0  0  0  0  0  0  0  0
   -0.5675   -0.1203    0.3102 C   0  0  1  0  0  0  0  0  0  0  0  0
    0.0191   -0.5718    1.1110 H   0  0  0  0  0  0  0  0  0  0  0  0
    0.1724   -0.3238   -1.0286 C   0  0  0  0  0  0  0  0  0  0  0  0
   -0.0697    0.5096   -1.6909 H   0  0  0  0  0  0  0  0  0  0  0  0
    1.2458   -0.2873   -0.8298 H   0  0  0  0  0  0  0  0  0  0  0  0
   -0.1333   -1.6386   -1.7693 C   0  0  0  0  0  0  0  0  0  0  0  0
   -0.9928   -1.5004   -2.4252 H   0  0  0  0  0  0  0  0  0  0  0  0
    1.0562   -2.1240   -2.6028 C   0  0  0  0  0  0  0  0  0  0  0  0
    1.9299   -2.2518   -1.9622 H   0  0  0  0  0  0  0  0  0  0  0  0
    0.8128   -3.0793   -3.0684 H   0  0  0  0  0  0  0  0  0  0  0  0
    1.2927   -1.4089   -3.3877 H   0  0  0  0  0  0  0  0  0  0  0  0
   -0.4800   -2.7317   -0.7592 C   0  0  0  0  0  0  0  0  0  0  0  0
   -1.3457   -2.4266   -0.1714 H   0  0  0  0  0  0  0  0  0  0  0  0
   -0.7238   -3.6563   -1.2824 H   0  0  0  0  0  0  0  0  0  0  0  0
    0.3642   -2.9078   -0.0916 H   0  0  0  0  0  0  0  0  0  0  0  0
   -0.7793    1.3659    0.6455 C   0  0  0  0  0  0  0  0  0  0  0  0
   -1.6464    2.0125    0.0623 O   0  0  0  0  0  0  0  0  0  0  0  0
    0.0189    1.9059    1.5756 N   0  0  0  0  0  0  0  0  0  0  0  0
    0.7024    1.3094    2.0137 H   0  0  0  0  0  0  0  0  0  0  0  0
   -0.0451    3.3046    1.9929 C   0  0  0  0  0  0  0  0  0  0  0  0
   -1.0415    3.5286    2.3805 H   0  0  0  0  0  0  0  0  0  0  0  0
    0.6954    3.5023    2.7695 H   0  0  0  0  0  0  0  0  0  0  0  0
    0.1474    3.9536    1.1372 H   0  0  0  0  0  0  0  0  0  0  0  0
  5  6  2  0  0  0  0
  5  7  1  0  0  0  0
  2  3  1  0  0  0  0
  2  4  1  0  0  0  0
  2  5  1  0  0  0  0
  1  2  1  0  0  0  0
 24 25  2  0  0  0  0
 24 26  1  0  0  0  0
 20 21  1  0  0  0  0
 20 22  1  0  0  0  0
 20 23  1  0  0  0  0
 16 17  1  0  0  0  0
 16 18  1  0  0  0  0
 16 19  1  0  0  0  0
 14 15  1  0  0  0  0
 14 16  1  0  0  0  0
 14 20  1  0  0  0  0
 11 12  1  0  0  0  0
 11 13  1  0  0  0  0
 11 14  1  0  0  0  0
  9 10  1  0  0  0  0
  9 11  1  0  0  0  0
  9 24  1  0  0  0  0
  7  8  1  0  0  0  0
  7  9  1  0  0  0  0
 28 29  1  0  0  0  0
 28 30  1  0  0  0  0
 28 31  1  0  0  0  0
 26 27  1  0  0  0  0
 26 28  1  0  0  0  0
M  END
$$$$
default_name
  -OEChem-02102213163D

 31 30  0     1  0  0  0  0  0999 V2000
   -3.5895   -3.5013    1.1082 H   0  0  0  0  0  0  0  0  0  0  0  0
   -3.5145   -2.5363    0.6082 C   0  0  0  0  0  0  0  0  0  0  0  0
   -4.2285   -1.8413    1.0452 H   0  0  0  0  0  0  0  0  0  0  0  0
   -3.7155   -2.6583   -0.4538 H   0  0  0  0  0  0  0  0  0  0  0  0
   -2.1155   -1.9963    0.7922 C   0  0  0  0  0  0  0  0  0  0  0  0
   -1.2875   -2.6383    1.4252 O   0  0  0  0  0  0  0  0  0  0  0  0
   -1.8575   -0.8123    0.2402 N   0  0  0  0  0  0  0  0  0  0  0  0
   -2.6005   -0.3333   -0.2478 H   0  0  0  0  0  0  0  0  0  0  0  0
   -0.5675   -0.1203    0.3102 C   0  0  1  0  0  0  0  0  0  0  0  0
    0.0191   -0.5718    1.1110 H   0  0  0  0  0  0  0  0  0  0  0  0
    0.1724   -0.3238   -1.0286 C   0  0  0  0  0  0  0  0  0  0  0  0
   -0.0697    0.5096   -1.6909 H   0  0  0  0  0  0  0  0  0  0  0  0
    1.2458   -0.2873   -0.8298 H   0  0  0  0  0  0  0  0  0  0  0  0
   -0.1333   -1.6386   -1.7693 C   0  0  0  0  0  0  0  0  0  0  0  0
   -0.8038   -1.4425   -2.6060 H   0  0  0  0  0  0  0  0  0  0  0  0
    1.1356   -2.3153   -2.2960 C   0  0  0  0  0  0  0  0  0  0  0  0
    1.8245   -2.5037   -1.4715 H   0  0  0  0  0  0  0  0  0  0  0  0
    0.8771   -3.2633   -2.7684 H   0  0  0  0  0  0  0  0  0  0  0  0
    1.6283   -1.6862   -3.0342 H   0  0  0  0  0  0  0  0  0  0  0  0
   -0.8311   -2.6144   -0.8225 C   0  0  0  0  0  0  0  0  0  0  0  0
   -1.7567   -2.1709   -0.4557 H   0  0  0  0  0  0  0  0  0  0  0  0
   -1.0733   -3.5357   -1.3522 H   0  0  0  0  0  0  0  0  0  0  0  0
   -0.1828   -2.8454    0.0235 H   0  0  0  0  0  0  0  0  0  0  0  0
   -0.7793    1.3659    0.6455 C   0  0  0  0  0  0  0  0  0  0  0  0
   -1.6464    2.0125    0.0623 O   0  0  0  0  0  0  0  0  0  0  0  0
    0.0189    1.9059    1.5756 N   0  0  0  0  0  0  0  0  0  0  0  0
    0.7024    1.3094    2.0137 H   0  0  0  0  0  0  0  0  0  0  0  0
   -0.0451    3.3046    1.9929 C   0  0  0  0  0  0  0  0  0  0  0  0
   -1.0415    3.5286    2.3805 H   0  0  0  0  0  0  0  0  0  0  0  0
    0.6954    3.5023    2.7695 H   0  0  0  0  0  0  0  0  0  0  0  0
    0.1474    3.9536    1.1372 H   0  0  0  0  0  0  0  0  0  0  0  0
  5  6  2  0  0  0  0
  5  7  1  0  0  0  0
  2  3  1  0  0  0  0
  2  4  1  0  0  0  0
  2  5  1  0  0  0  0
  1  2  1  0  0  0  0
 24 25  2  0  0  0  0
 24 26  1  0  0  0  0
 20 21  1  0  0  0  0
 20 22  1  0  0  0  0
 20 23  1  0  0  0  0
 16 17  1  0  0  0  0
 16 18  1  0  0  0  0
 16 19  1  0  0  0  0
 14 15  1  0  0  0  0
 14 16  1  0  0  0  0
 14 20  1  0  0  0  0
 11 12  1  0  0  0  0
 11 13  1  0  0  0  0
 11 14  1  0  0  0  0
  9 10  1  0  0  0  0
  9 11  1  0  0  0  0
  9 24  1  0  0  0  0
  7  8  1  0  0  0  0
  7  9  1  0  0  0  0
 28 29  1  0  0  0  0
 28 30  1  0  0  0  0
 28 31  1  0  0  0  0
 26 27  1  0  0  0  0
 26 28  1  0  0  0  0
M  END
$$$$
default_name
  -OEChem-02102213163D

 31 30  0     1  0  0  0  0  0999 V2000
   -3.5895   -3.5013    1.1082 H   0  0  0  0  0  0  0  0  0  0  0  0
   -3.5145   -2.5363    0.6082 C   0  0  0  0  0  0  0  0  0  0  0  0
   -4.2285   -1.8413    1.0452 H   0  0  0  0  0  0  0  0  0  0  0  0
   -3.7155   -2.6583   -0.4538 H   0  0  0  0  0  0  0  0  0  0  0  0
   -2.1155   -1.9963    0.7922 C   0  0  0  0  0  0  0  0  0  0  0  0
   -1.2875   -2.6383    1.4252 O   0  0  0  0  0  0  0  0  0  0  0  0
   -1.8575   -0.8123    0.2402 N   0  0  0  0  0  0  0  0  0  0  0  0
   -2.6005   -0.3333   -0.2478 H   0  0  0  0  0  0  0  0  0  0  0  0
   -0.5675   -0.1203    0.3102 C   0  0  1  0  0  0  0  0  0  0  0  0
    0.0191   -0.5718    1.1110 H   0  0  0  0  0  0  0  0  0  0  0  0
    0.1724   -0.3238   -1.0286 C   0  0  0  0  0  0  0  0  0  0  0  0
   -0.0697    0.5096   -1.6909 H   0  0  0  0  0  0  0  0  0  0  0  0
    1.2458   -0.2873   -0.8298 H   0  0  0  0  0  0  0  0  0  0  0  0
   -0.1333   -1.6386   -1.7693 C   0  0  0  0  0  0  0  0  0  0  0  0
   -0.5741   -1.4194   -2.7418 H   0  0  0  0  0  0  0  0  0  0  0  0
    1.1206   -2.4941   -1.9724 C   0  0  0  0  0  0  0  0  0  0  0  0
    1.5829   -2.7087   -1.0079 H   0  0  0  0  0  0  0  0  0  0  0  0
    0.8499   -3.4336   -2.4549 H   0  0  0  0  0  0  0  0  0  0  0  0
    1.8399   -1.9776   -2.6042 H   0  0  0  0  0  0  0  0  0  0  0  0
   -1.1415   -2.4606   -0.9673 C   0  0  0  0  0  0  0  0  0  0  0  0
   -2.0589   -1.8873   -0.8343 H   0  0  0  0  0  0  0  0  0  0  0  0
   -1.3805   -3.3793   -1.5030 H   0  0  0  0  0  0  0  0  0  0  0  0
   -0.7287   -2.7112    0.0105 H   0  0  0  0  0  0  0  0  0  0  0  0
   -0.7793    1.3659    0.6455 C   0  0  0  0  0  0  0  0  0  0  0  0
   -1.6464    2.0125    0.0623 O   0  0  0  0  0  0  0  0  0  0  0  0
    0.0189    1.9059    1.5756 N   0  0  0  0  0  0  0  0  0  0  0  0
    0.7024    1.3094    2.0137 H   0  0  0  0  0  0  0  0  0  0  0  0
   -0.0451    3.3046    1.9929 C   0  0  0  0  0  0  0  0  0  0  0  0
   -1.0415    3.5286    2.3805 H   0  0  0  0  0  0  0  0  0  0  0  0
    0.6954    3.5023    2.7695 H   0  0  0  0  0  0  0  0  0  0  0  0
    0.1474    3.9536    1.1372 H   0  0  0  0  0  0  0  0  0  0  0  0
  5  6  2  0  0  0  0
  5  7  1  0  0  0  0
  2  3  1  0  0  0  0
  2  4  1  0  0  0  0
  2  5  1  0  0  0  0
  1  2  1  0  0  0  0
 24 25  2  0  0  0  0
 24 26  1  0  0  0  0
 20 21  1  0  0  0  0
 20 22  1  0  0  0  0
 20 23  1  0  0  0  0
 16 17  1  0  0  0  0
 16 18  1  0  0  0  0
 16 19  1  0  0  0  0
 14 15  1  0  0  0  0
 14 16  1  0  0  0  0
 14 20  1  0  0  0  0
 11 12  1  0  0  0  0
 11 13  1  0  0  0  0
 11 14  1  0  0  0  0
  9 10  1  0  0  0  0
  9 11  1  0  0  0  0
  9 24  1  0  0  0  0
  7  8  1  0  0  0  0
  7  9  1  0  0  0  0
 28 29  1  0  0  0  0
 28 30  1  0  0  0  0
 28 31  1  0  0  0  0
 26 27  1  0  0  0  0
 26 28  1  0  0  0  0
M  END
$$$$
default_name
  -OEChem-02102213163D

 31 30  0     1  0  0  0  0  0999 V2000
   -3.5895   -3.5013    1.1082 H   0  0  0  0  0  0  0  0  0  0  0  0
   -3.5145   -2.5363    0.6082 C   0  0  0  0  0  0  0  0  0  0  0  0
   -4.2285   -1.8413    1.0452 H   0  0  0  0  0  0  0  0  0  0  0  0
   -3.7155   -2.6583   -0.4538 H   0  0  0  0  0  0  0  0  0  0  0  0
   -2.1155   -1.9963    0.7922 C   0  0  0  0  0  0  0  0  0  0  0  0
   -1.2875   -2.6383    1.4252 O   0  0  0  0  0  0  0  0  0  0  0  0
   -1.8575   -0.8123    0.2402 N   0  0  0  0  0  0  0  0  0  0  0  0
   -2.6005   -0.3333   -0.2478 H   0  0  0  0  0  0  0  0  0  0  0  0
   -0.5675   -0.1203    0.3102 C   0  0  1  0  0  0  0  0  0  0  0  0
    0.0191   -0.5718    1.1110 H   0  0  0  0  0  0  0  0  0  0  0  0
    0.1724   -0.3238   -1.0286 C   0  0  0  0  0  0  0  0  0  0  0  0
   -0.0697    0.5096   -1.6909 H   0  0  0  0  0  0  0  0  0  0  0  0
    1.2458   -0.2873   -0.8298 H   0  0  0  0  0  0  0  0  0  0  0  0
   -0.1333   -1.6386   -1.7693 C   0  0  0  0  0  0  0  0  0  0  0  0
   -0.3194   -1.4327   -2.8234 H   0  0  0  0  0  0  0  0  0  0  0  0
    1.0123   -2.6484   -1.6539 C   0  0  0  0  0  0  0  0  0  0  0  0
    1.2215   -2.8528   -0.6030 H   0  0  0  0  0  0  0  0  0  0  0  0
    0.7331   -3.5786   -2.1493 H   0  0  0  0  0  0  0  0  0  0  0  0
    1.9130   -2.2633   -2.1271 H   0  0  0  0  0  0  0  0  0  0  0  0
   -1.3902   -2.2809   -1.1837 C   0  0  0  0  0  0  0  0  0  0  0  0
   -2.2319   -1.5953   -1.2814 H   0  0  0  0  0  0  0  0  0  0  0  0
   -1.6245   -3.1978   -1.7246 H   0  0  0  0  0  0  0  0  0  0  0  0
   -1.2366   -2.5143   -0.1295 H   0  0  0  0  0  0  0  0  0  0  0  0
   -0.7793    1.3659    0.6455 C   0  0  0  0  0  0  0  0  0  0  0  0
   -1.6464    2.0125    0.0623 O   0  0  0  0  0  0  0  0  0  0  0  0
    0.0189    1.9059    1.5756 N   0  0  0  0  0  0  0  0  0  0  0  0
    0.7024    1.3094    2.0137 H   0  0  0  0  0  0  0  0  0  0  0  0
   -0.0451    3.3046    1.9929 C   0  0  0  0  0  0  0  0  0  0  0  0
   -1.0415    3.5286    2.3805 H   0  0  0  0  0  0  0  0  0  0  0  0
    0.6954    3.5023    2.7695 H   0  0  0  0  0  0  0  0  0  0  0  0
    0.1474    3.9536    1.1372 H   0  0  0  0  0  0  0  0  0  0  0  0
  5  6  2  0  0  0  0
  5  7  1  0  0  0  0
  2  3  1  0  0  0  0
  2  4  1  0  0  0  0
  2  5  1  0  0  0  0
  1  2  1  0  0  0  0
 24 25  2  0  0  0  0
 24 26  1  0  0  0  0
 20 21  1  0  0  0  0
 20 22  1  0  0  0  0
 20 23  1  0  0  0  0
 16 17  1  0  0  0  0
 16 18  1  0  0  0  0
 16 19  1  0  0  0  0
 14 15  1  0  0  0  0
 14 16  1  0  0  0  0
 14 20  1  0  0  0  0
 11 12  1  0  0  0  0
 11 13  1  0  0  0  0
 11 14  1  0  0  0  0
  9 10  1  0  0  0  0
  9 11  1  0  0  0  0
  9 24  1  0  0  0  0
  7  8  1  0  0  0  0
  7  9  1  0  0  0  0
 28 29  1  0  0  0  0
 28 30  1  0  0  0  0
 28 31  1  0  0  0  0
 26 27  1  0  0  0  0
 26 28  1  0  0  0  0
M  END
$$$$
default_name
  -OEChem-02102213163D

 31 30  0     1  0  0  0  0  0999 V2000
   -3.5895   -3.5013    1.1082 H   0  0  0  0  0  0  0  0  0  0  0  0
   -3.5145   -2.5363    0.6082 C   0  0  0  0  0  0  0  0  0  0  0  0
   -4.2285   -1.8413    1.0452 H   0  0  0  0  0  0  0  0  0  0  0  0
   -3.7155   -2.6583   -0.4538 H   0  0  0  0  0  0  0  0  0  0  0  0
   -2.1155   -1.9963    0.7922 C   0  0  0  0  0  0  0  0  0  0  0  0
   -1.2875   -2.6383    1.4252 O   0  0  0  0  0  0  0  0  0  0  0  0
   -1.8575   -0.8123    0.2402 N   0  0  0  0  0  0  0  0  0  0  0  0
   -2.6005   -0.3333   -0.2478 H   0  0  0  0  0  0  0  0  0  0  0  0
   -0.5675   -0.1203    0.3102 C   0  0  1  0  0  0  0  0  0  0  0  0
    0.0191   -0.5718    1.1110 H   0  0  0  0  0  0  0  0  0  0  0  0
    0.1724   -0.3238   -1.0286 C   0  0  0  0  0  0  0  0  0  0  0  0
   -0.0697    0.5096   -1.6909 H   0  0  0  0  0  0  0  0  0  0  0  0
    1.2458   -0.2873   -0.8298 H   0  0  0  0  0  0  0  0  0  0  0  0
   -0.1333   -1.6386   -1.7693 C   0  0  0  0  0  0  0  0  0  0  0  0
   -0.0569   -1.4814   -2.8452 H   0  0  0  0  0  0  0  0  0  0  0  0
    0.8181   -2.7675   -1.3623 C   0  0  0  0  0  0  0  0  0  0  0  0
    0.7650   -2.9262   -0.2843 H   0  0  0  0  0  0  0  0  0  0  0  0
    0.5348   -3.6884   -1.8726 H   0  0  0  0  0  0  0  0  0  0  0  0
    1.8425   -2.5239   -1.6355 H   0  0  0  0  0  0  0  0  0  0  0  0
   -1.5603   -2.0875   -1.4569 C   0  0  0  0  0  0  0  0  0  0  0  0
   -2.2638   -1.3146   -1.7664 H   0  0  0  0  0  0  0  0  0  0  0  0
   -1.7885   -3.0034   -2.0019 H   0  0  0  0  0  0  0  0  0  0  0  0
   -1.6716   -2.2680   -0.3872 H   0  0  0  0  0  0  0  0  0  0  0  0
   -0.7793    1.3659    0.6455 C   0  0  0  0  0  0  0  0  0  0  0  0
   -1.6464    2.0125    0.0623 O   0  0  0  0  0  0  0  0  0  0  0  0
    0.0189    1.9059    1.5756 N   0  0  0  0  0  0  0  0  0  0  0  0
    0.7024    1.3094    2.0137 H   0  0  0  0  0  0  0  0  0  0  0  0
   -0.0451    3.3046    1.9929 C   0  0  0  0  0  0  0  0  0  0  0  0
   -1.0415    3.5286    2.3805 H   0  0  0  0  0  0  0  0  0  0  0  0
    0.6954    3.5023    2.7695 H   0  0  0  0  0  0  0  0  0  0  0  0
    0.1474    3.9536    1.1372 H   0  0  0  0  0  0  0  0  0  0  0  0
  5  6  2  0  0  0  0
  5  7  1  0  0  0  0
  2  3  1  0  0  0  0
  2  4  1  0  0  0  0
  2  5  1  0  0  0  0
  1  2  1  0  0  0  0
 24 25  2  0  0  0  0
 24 26  1  0  0  0  0
 20 21  1  0  0  0  0
 20 22  1  0  0  0  0
 20 23  1  0  0  0  0
 16 17  1  0  0  0  0
 16 18  1  0  0  0  0
 16 19  1  0  0  0  0
 14 15  1  0  0  0  0
 14 16  1  0  0  0  0
 14 20  1  0  0  0  0
 11 12  1  0  0  0  0
 11 13  1  0  0  0  0
 11 14  1  0  0  0  0
  9 10  1  0  0  0  0
  9 11  1  0  0  0  0
  9 24  1  0  0  0  0
  7  8  1  0  0  0  0
  7  9  1  0  0  0  0
 28 29  1  0  0  0  0
 28 30  1  0  0  0  0
 28 31  1  0  0  0  0
 26 27  1  0  0  0  0
 26 28  1  0  0  0  0
M  END
$$$$
default_name
  -OEChem-02102213163D

 31 30  0     1  0  0  0  0  0999 V2000
   -3.5895   -3.5013    1.1082 H   0  0  0  0  0  0  0  0  0  0  0  0
   -3.5145   -2.5363    0.6082 C   0  0  0  0  0  0  0  0  0  0  0  0
   -4.2285   -1.8413    1.0452 H   0  0  0  0  0  0  0  0  0  0  0  0
   -3.7155   -2.6583   -0.4538 H   0  0  0  0  0  0  0  0  0  0  0  0
   -2.1155   -1.9963    0.7922 C   0  0  0  0  0  0  0  0  0  0  0  0
   -1.2875   -2.6383    1.4252 O   0  0  0  0  0  0  0  0  0  0  0  0
   -1.8575   -0.8123    0.2402 N   0  0  0  0  0  0  0  0  0  0  0  0
   -2.6005   -0.3333   -0.2478 H   0  0  0  0  0  0  0  0  0  0  0  0
   -0.5675   -0.1203    0.3102 C   0  0  1  0  0  0  0  0  0  0  0  0
    0.0191   -0.5718    1.1110 H   0  0  0  0  0  0  0  0  0  0  0  0
    0.1724   -0.3238   -1.0286 C   0  0  0  0  0  0  0  0  0  0  0  0
   -0.0697    0.5096   -1.6909 H   0  0  0  0  0  0  0  0  0  0  0  0
    1.2458   -0.2873   -0.8298 H   0  0  0  0  0  0  0  0  0  0  0  0
   -0.1333   -1.6386   -1.7693 C   0  0  0  0  0  0  0  0  0  0  0  0
    0.1953   -1.5622   -2.8058 H   0  0  0  0  0  0  0  0  0  0  0  0
    0.5513   -2.8435   -1.1174 C   0  0  0  0  0  0  0  0  0  0  0  0
    0.2445   -2.9239   -0.0736 H   0  0  0  0  0  0  0  0  0  0  0  0
    0.2684   -3.7555   -1.6434 H   0  0  0  0  0  0  0  0  0  0  0  0
    1.6334   -2.7415   -1.1628 H   0  0  0  0  0  0  0  0  0  0  0  0
   -1.6401   -1.8935   -1.7684 C   0  0  0  0  0  0  0  0  0  0  0  0
   -2.1525   -1.0645   -2.2564 H   0  0  0  0  0  0  0  0  0  0  0  0
   -1.8615   -2.8095   -2.3160 H   0  0  0  0  0  0  0  0  0  0  0  0
   -2.0042   -1.9892   -0.7448 H   0  0  0  0  0  0  0  0  0  0  0  0
   -0.7793    1.3659    0.6455 C   0  0  0  0  0  0  0  0  0  0  0  0
   -1.6464    2.0125    0.0623 O   0  0  0  0  0  0  0  0  0  0  0  0
    0.0189    1.9059    1.5756 N   0  0  0  0  0  0  0  0  0  0  0  0
    0.7024    1.3094    2.0137 H   0  0  0  0  0  0  0  0  0  0  0  0
   -0.0451    3.3046    1.9929 C   0  0  0  0  0  0  0  0  0  0  0  0
   -1.0415    3.5286    2.3805 H   0  0  0  0  0  0  0  0  0  0  0  0
    0.6954    3.5023    2.7695 H   0  0  0  0  0  0  0  0  0  0  0  0
    0.1474    3.9536    1.1372 H   0  0  0  0  0  0  0  0  0  0  0  0
  5  6  2  0  0  0  0
  5  7  1  0  0  0  0
  2  3  1  0  0  0  0
  2  4  1  0  0  0  0
  2  5  1  0  0  0  0
  1  2  1  0  0  0  0
 24 25  2  0  0  0  0
 24 26  1  0  0  0  0
 20 21  1  0  0  0  0
 20 22  1  0  0  0  0
 20 23  1  0  0  0  0
 16 17  1  0  0  0  0
 16 18  1  0  0  0  0
 16 19  1  0  0  0  0
 14 15  1  0  0  0  0
 14 16  1  0  0  0  0
 14 20  1  0  0  0  0
 11 12  1  0  0  0  0
 11 13  1  0  0  0  0
 11 14  1  0  0  0  0
  9 10  1  0  0  0  0
  9 11  1  0  0  0  0
  9 24  1  0  0  0  0
  7  8  1  0  0  0  0
  7  9  1  0  0  0  0
 28 29  1  0  0  0  0
 28 30  1  0  0  0  0
 28 31  1  0  0  0  0
 26 27  1  0  0  0  0
 26 28  1  0  0  0  0
M  END
$$$$
default_name
  -OEChem-02102213163D

 31 30  0     1  0  0  0  0  0999 V2000
   -3.5895   -3.5013    1.1082 H   0  0  0  0  0  0  0  0  0  0  0  0
   -3.5145   -2.5363    0.6082 C   0  0  0  0  0  0  0  0  0  0  0  0
   -4.2285   -1.8413    1.0452 H   0  0  0  0  0  0  0  0  0  0  0  0
   -3.7155   -2.6583   -0.4538 H   0  0  0  0  0  0  0  0  0  0  0  0
   -2.1155   -1.9963    0.7922 C   0  0  0  0  0  0  0  0  0  0  0  0
   -1.2875   -2.6383    1.4252 O   0  0  0  0  0  0  0  0  0  0  0  0
   -1.8575   -0.8123    0.2402 N   0  0  0  0  0  0  0  0  0  0  0  0
   -2.6005   -0.3333   -0.2478 H   0  0  0  0  0  0  0  0  0  0  0  0
   -0.5675   -0.1203    0.3102 C   0  0  1  0  0  0  0  0  0  0  0  0
    0.0191   -0.5718    1.1110 H   0  0  0  0  0  0  0  0  0  0  0  0
    0.1724   -0.3238   -1.0286 C   0  0  0  0  0  0  0  0  0  0  0  0
   -0.0697    0.5096   -1.6909 H   0  0  0  0  0  0  0  0  0  0  0  0
    1.2458   -0.2873   -0.8298 H   0  0  0  0  0  0  0  0  0  0  0  0
   -0.1333   -1.6386   -1.7693 C   0  0  0  0  0  0  0  0  0  0  0  0
    0.4202   -1.6697   -2.7078 H   0  0  0  0  0  0  0  0  0  0  0  0
    0.2299   -2.8710   -0.9359 C   0  0  0  0  0  0  0  0  0  0  0  0
   -0.3046   -2.8460    0.0147 H   0  0  0  0  0  0  0  0  0  0  0  0
   -0.0480   -3.7754   -1.4775 H   0  0  0  0  0  0  0  0  0  0  0  0
    1.2998   -2.9015   -0.7413 H   0  0  0  0  0  0  0  0  0  0  0  0
   -1.6242   -1.7122   -2.0968 C   0  0  0  0  0  0  0  0  0  0  0  0
   -1.9055   -0.8619   -2.7179 H   0  0  0  0  0  0  0  0  0  0  0  0
   -1.8384   -2.6292   -2.6455 H   0  0  0  0  0  0  0  0  0  0  0  0
   -2.2117   -1.6968   -1.1781 H   0  0  0  0  0  0  0  0  0  0  0  0
   -0.7793    1.3659    0.6455 C   0  0  0  0  0  0  0  0  0  0  0  0
   -1.6464    2.0125    0.0623 O   0  0  0  0  0  0  0  0  0  0  0  0
    0.0189    1.9059    1.5756 N   0  0  0  0  0  0  0  0  0  0  0  0
    0.7024    1.3094    2.0137 H   0  0  0  0  0  0  0  0  0  0  0  0
   -0.0451    3.3046    1.9929 C   0  0  0  0  0  0  0  0  0  0  0  0
   -1.0415    3.5286    2.3805 H   0  0  0  0  0  0  0  0  0  0  0  0
    0.6954    3.5023    2.7695 H   0  0  0  0  0  0  0  0  0  0  0  0
    0.1474    3.9536    1.1372 H   0  0  0  0  0  0  0  0  0  0  0  0
  5  6  2  0  0  0  0
  5  7  1  0  0  0  0
  2  3  1  0  0  0  0
  2  4  1  0  0  0  0
  2  5  1  0  0  0  0
  1  2  1  0  0  0  0
 24 25  2  0  0  0  0
 24 26  1  0  0  0  0
 20 21  1  0  0  0  0
 20 22  1  0  0  0  0
 20 23  1  0  0  0  0
 16 17  1  0  0  0  0
 16 18  1  0  0  0  0
 16 19  1  0  0  0  0
 14 15  1  0  0  0  0
 14 16  1  0  0  0  0
 14 20  1  0  0  0  0
 11 12  1  0  0  0  0
 11 13  1  0  0  0  0
 11 14  1  0  0  0  0
  9 10  1  0  0  0  0
  9 11  1  0  0  0  0
  9 24  1  0  0  0  0
  7  8  1  0  0  0  0
  7  9  1  0  0  0  0
 28 29  1  0  0  0  0
 28 30  1  0  0  0  0
 28 31  1  0  0  0  0
 26 27  1  0  0  0  0
 26 28  1  0  0  0  0
M  END
$$$$
default_name
  -OEChem-02102213163D

 31 30  0     1  0  0  0  0  0999 V2000
   -3.5895   -3.5013    1.1082 H   0  0  0  0  0  0  0  0  0  0  0  0
   -3.5145   -2.5363    0.6082 C   0  0  0  0  0  0  0  0  0  0  0  0
   -4.2285   -1.8413    1.0452 H   0  0  0  0  0  0  0  0  0  0  0  0
   -3.7155   -2.6583   -0.4538 H   0  0  0  0  0  0  0  0  0  0  0  0
   -2.1155   -1.9963    0.7922 C   0  0  0  0  0  0  0  0  0  0  0  0
   -1.2875   -2.6383    1.4252 O   0  0  0  0  0  0  0  0  0  0  0  0
   -1.8575   -0.8123    0.2402 N   0  0  0  0  0  0  0  0  0  0  0  0
   -2.6005   -0.3333   -0.2478 H   0  0  0  0  0  0  0  0  0  0  0  0
   -0.5675   -0.1203    0.3102 C   0  0  1  0  0  0  0  0  0  0  0  0
    0.0191   -0.5718    1.1110 H   0  0  0  0  0  0  0  0  0  0  0  0
    0.1724   -0.3238   -1.0286 C   0  0  0  0  0  0  0  0  0  0  0  0
   -0.0697    0.5096   -1.6909 H   0  0  0  0  0  0  0  0  0  0  0  0
    1.2458   -0.2873   -0.8298 H   0  0  0  0  0  0  0  0  0  0  0  0
   -0.1333   -1.6386   -1.7693 C   0  0  0  0  0  0  0  0  0  0  0  0
    0.6024   -1.7965   -2.5579 H   0  0  0  0  0  0  0  0  0  0  0  0
   -0.1240   -2.8483   -0.8302 C   0  0  0  0  0  0  0  0  0  0  0  0
   -0.8448   -2.6979   -0.0253 H   0  0  0  0  0  0  0  0  0  0  0  0
   -0.3927   -3.7468   -1.3861 H   0  0  0  0  0  0  0  0  0  0  0  0
    0.8645   -2.9928   -0.3996 H   0  0  0  0  0  0  0  0  0  0  0  0
   -1.5137   -1.5559   -2.4198 C   0  0  0  0  0  0  0  0  0  0  0  0
   -1.5398   -0.7206   -3.1196 H   0  0  0  0  0  0  0  0  0  0  0  0
   -1.7209   -2.4749   -2.9680 H   0  0  0  0  0  0  0  0  0  0  0  0
   -2.2800   -1.4109   -1.6576 H   0  0  0  0  0  0  0  0  0  0  0  0
   -0.7793    1.3659    0.6455 C   0  0  0  0  0  0  0  0  0  0  0  0
   -1.6464    2.0125    0.0623 O   0  0  0  0  0  0  0  0  0  0  0  0
    0.0189    1.9059    1.5756 N   0  0  0  0  0  0  0  0  0  0  0  0
    0.7024    1.3094    2.0137 H   0  0  0  0  0  0  0  0  0  0  0  0
   -0.0451    3.3046    1.9929 C   0  0  0  0  0  0  0  0  0  0  0  0
   -1.0415    3.5286    2.3805 H   0  0  0  0  0  0  0  0  0  0  0  0
    0.6954    3.5023    2.7695 H   0  0  0  0  0  0  0  0  0  0  0  0
    0.1474    3.9536    1.1372 H   0  0  0  0  0  0  0  0  0  0  0  0
  5  6  2  0  0  0  0
  5  7  1  0  0  0  0
  2  3  1  0  0  0  0
  2  4  1  0  0  0  0
  2  5  1  0  0  0  0
  1  2  1  0  0  0  0
 24 25  2  0  0  0  0
 24 26  1  0  0  0  0
 20 21  1  0  0  0  0
 20 22  1  0  0  0  0
 20 23  1  0  0  0  0
 16 17  1  0  0  0  0
 16 18  1  0  0  0  0
 16 19  1  0  0  0  0
 14 15  1  0  0  0  0
 14 16  1  0  0  0  0
 14 20  1  0  0  0  0
 11 12  1  0  0  0  0
 11 13  1  0  0  0  0
 11 14  1  0  0  0  0
  9 10  1  0  0  0  0
  9 11  1  0  0  0  0
  9 24  1  0  0  0  0
  7  8  1  0  0  0  0
  7  9  1  0  0  0  0
 28 29  1  0  0  0  0
 28 30  1  0  0  0  0
 28 31  1  0  0  0  0
 26 27  1  0  0  0  0
 26 28  1  0  0  0  0
M  END
$$$$
default_name
  -OEChem-02102213163D

 31 30  0     1  0  0  0  0  0999 V2000
   -3.5895   -3.5013    1.1082 H   0  0  0  0  0  0  0  0  0  0  0  0
   -3.5145   -2.5363    0.6082 C   0  0  0  0  0  0  0  0  0  0  0  0
   -4.2285   -1.8413    1.0452 H   0  0  0  0  0  0  0  0  0  0  0  0
   -3.7155   -2.6583   -0.4538 H   0  0  0  0  0  0  0  0  0  0  0  0
   -2.1155   -1.9963    0.7922 C   0  0  0  0  0  0  0  0  0  0  0  0
   -1.2875   -2.6383    1.4252 O   0  0  0  0  0  0  0  0  0  0  0  0
   -1.8575   -0.8123    0.2402 N   0  0  0  0  0  0  0  0  0  0  0  0
   -2.6005   -0.3333   -0.2478 H   0  0  0  0  0  0  0  0  0  0  0  0
   -0.5675   -0.1203    0.3102 C   0  0  1  0  0  0  0  0  0  0  0  0
    0.0191   -0.5718    1.1110 H   0  0  0  0  0  0  0  0  0  0  0  0
    0.1724   -0.3238   -1.0286 C   0  0  0  0  0  0  0  0  0  0  0  0
   -0.0697    0.5096   -1.6909 H   0  0  0  0  0  0  0  0  0  0  0  0
    1.2458   -0.2873   -0.8298 H   0  0  0  0  0  0  0  0  0  0  0  0
   -0.1333   -1.6386   -1.7693 C   0  0  0  0  0  0  0  0  0  0  0  0
    0.7295   -1.9340   -2.3664 H   0  0  0  0  0  0  0  0  0  0  0  0
   -0.4864   -2.7768   -0.8075 C   0  0  0  0  0  0  0  0  0  0  0  0
   -1.3393   -2.4897   -0.1909 H   0  0  0  0  0  0  0  0  0  0  0  0
   -0.7423   -3.6715   -1.3756 H   0  0  0  0  0  0  0  0  0  0  0  0
    0.3572   -3.0092   -0.1611 H   0  0  0  0  0  0  0  0  0  0  0  0
   -1.3160   -1.4353   -2.7154 C   0  0  0  0  0  0  0  0  0  0  0  0
   -1.0801   -0.6504   -3.4340 H   0  0  0  0  0  0  0  0  0  0  0  0
   -1.5169   -2.3571   -3.2614 H   0  0  0  0  0  0  0  0  0  0  0  0
   -2.2044   -1.1508   -2.1505 H   0  0  0  0  0  0  0  0  0  0  0  0
   -0.7793    1.3659    0.6455 C   0  0  0  0  0  0  0  0  0  0  0  0
   -1.6464    2.0125    0.0623 O   0  0  0  0  0  0  0  0  0  0  0  0
    0.0189    1.9059    1.5756 N   0  0  0  0  0  0  0  0  0  0  0  0
    0.7024    1.3094    2.0137 H   0  0  0  0  0  0  0  0  0  0  0  0
   -0.0451    3.3046    1.9929 C   0  0  0  0  0  0  0  0  0  0  0  0
   -1.0415    3.5286    2.3805 H   0  0  0  0  0  0  0  0  0  0  0  0
    0.6954    3.5023    2.7695 H   0  0  0  0  0  0  0  0  0  0  0  0
    0.1474    3.9536    1.1372 H   0  0  0  0  0  0  0  0  0  0  0  0
  5  6  2  0  0  0  0
  5  7  1  0  0  0  0
  2  3  1  0  0  0  0
  2  4  1  0  0  0  0
  2  5  1  0  0  0  0
  1  2  1  0  0  0  0
 24 25  2  0  0  0  0
 24 26  1  0  0  0  0
 20 21  1  0  0  0  0
 20 22  1  0  0  0  0
 20 23  1  0  0  0  0
 16 17  1  0  0  0  0
 16 18  1  0  0  0  0
 16 19  1  0  0  0  0
 14 15  1  0  0  0  0
 14 16  1  0  0  0  0
 14 20  1  0  0  0  0
 11 12  1  0  0  0  0
 11 13  1  0  0  0  0
 11 14  1  0  0  0  0
  9 10  1  0  0  0  0
  9 11  1  0  0  0  0
  9 24  1  0  0  0  0
  7  8  1  0  0  0  0
  7  9  1  0  0  0  0
 28 29  1  0  0  0  0
 28 30  1  0  0  0  0
 28 31  1  0  0  0  0
 26 27  1  0  0  0  0
 26 28  1  0  0  0  0
M  END
$$$$
default_name
  -OEChem-02102213163D

 31 30  0     1  0  0  0  0  0999 V2000
   -3.5895   -3.5013    1.1082 H   0  0  0  0  0  0  0  0  0  0  0  0
   -3.5145   -2.5363    0.6082 C   0  0  0  0  0  0  0  0  0  0  0  0
   -4.2285   -1.8413    1.0452 H   0  0  0  0  0  0  0  0  0  0  0  0
   -3.7155   -2.6583   -0.4538 H   0  0  0  0  0  0  0  0  0  0  0  0
   -2.1155   -1.9963    0.7922 C   0  0  0  0  0  0  0  0  0  0  0  0
   -1.2875   -2.6383    1.4252 O   0  0  0  0  0  0  0  0  0  0  0  0
   -1.8575   -0.8123    0.2402 N   0  0  0  0  0  0  0  0  0  0  0  0
   -2.6005   -0.3333   -0.2478 H   0  0  0  0  0  0  0  0  0  0  0  0
   -0.5675   -0.1203    0.3102 C   0  0  1  0  0  0  0  0  0  0  0  0
    0.0191   -0.5718    1.1110 H   0  0  0  0  0  0  0  0  0  0  0  0
    0.1724   -0.3238   -1.0286 C   0  0  0  0  0  0  0  0  0  0  0  0
   -0.0697    0.5096   -1.6909 H   0  0  0  0  0  0  0  0  0  0  0  0
    1.2458   -0.2873   -0.8298 H   0  0  0  0  0  0  0  0  0  0  0  0
   -0.1333   -1.6386   -1.7693 C   0  0  0  0  0  0  0  0  0  0  0  0
    0.7928   -2.0727   -2.1462 H   0  0  0  0  0  0  0  0  0  0  0  0
   -0.8326   -2.6615   -0.8693 C   0  0  0  0  0  0  0  0  0  0  0  0
   -1.7544   -2.2354   -0.4709 H   0  0  0  0  0  0  0  0  0  0  0  0
   -1.0730   -3.5547   -1.4465 H   0  0  0  0  0  0  0  0  0  0  0  0
   -0.1877   -2.9496   -0.0420 H   0  0  0  0  0  0  0  0  0  0  0  0
   -1.0448   -1.3586   -2.9635 C   0  0  0  0  0  0  0  0  0  0  0  0
   -0.5579   -0.6559   -3.6396 H   0  0  0  0  0  0  0  0  0  0  0  0
   -1.2403   -2.2837   -3.5057 H   0  0  0  0  0  0  0  0  0  0  0  0
   -1.9901   -0.9343   -2.6232 H   0  0  0  0  0  0  0  0  0  0  0  0
   -0.7793    1.3659    0.6455 C   0  0  0  0  0  0  0  0  0  0  0  0
   -1.6464    2.0125    0.0623 O   0  0  0  0  0  0  0  0  0  0  0  0
    0.0189    1.9059    1.5756 N   0  0  0  0  0  0  0  0  0  0  0  0
    0.7024    1.3094    2.0137 H   0  0  0  0  0  0  0  0  0  0  0  0
   -0.0451    3.3046    1.9929 C   0  0  0  0  0  0  0  0  0  0  0  0
   -1.0415    3.5286    2.3805 H   0  0  0  0  0  0  0  0  0  0  0  0
    0.6954    3.5023    2.7695 H   0  0  0  0  0  0  0  0  0  0  0  0
    0.1474    3.9536    1.1372 H   0  0  0  0  0  0  0  0  0  0  0  0
  5  6  2  0  0  0  0
  5  7  1  0  0  0  0
  2  3  1  0  0  0  0
  2  4  1  0  0  0  0
  2  5  1  0  0  0  0
  1  2  1  0  0  0  0
 24 25  2  0  0  0  0
 24 26  1  0  0  0  0
 20 21  1  0  0  0  0
 20 22  1  0  0  0  0
 20 23  1  0  0  0  0
 16 17  1  0  0  0  0
 16 18  1  0  0  0  0
 16 19  1  0  0  0  0
 14 15  1  0  0  0  0
 14 16  1  0  0  0  0
 14 20  1  0  0  0  0
 11 12  1  0  0  0  0
 11 13  1  0  0  0  0
 11 14  1  0  0  0  0
  9 10  1  0  0  0  0
  9 11  1  0  0  0  0
  9 24  1  0  0  0  0
  7  8  1  0  0  0  0
  7  9  1  0  0  0  0
 28 29  1  0  0  0  0
 28 30  1  0  0  0  0
 28 31  1  0  0  0  0
 26 27  1  0  0  0  0
 26 28  1  0  0  0  0
M  END
$$$$
default_name
  -OEChem-02102213163D

 31 30  0     1  0  0  0  0  0999 V2000
   -3.5895   -3.5013    1.1082 H   0  0  0  0  0  0  0  0  0  0  0  0
   -3.5145   -2.5363    0.6082 C   0  0  0  0  0  0  0  0  0  0  0  0
   -4.2285   -1.8413    1.0452 H   0  0  0  0  0  0  0  0  0  0  0  0
   -3.7155   -2.6583   -0.4538 H   0  0  0  0  0  0  0  0  0  0  0  0
   -2.1155   -1.9963    0.7922 C   0  0  0  0  0  0  0  0  0  0  0  0
   -1.2875   -2.6383    1.4252 O   0  0  0  0  0  0  0  0  0  0  0  0
   -1.8575   -0.8123    0.2402 N   0  0  0  0  0  0  0  0  0  0  0  0
   -2.6005   -0.3333   -0.2478 H   0  0  0  0  0  0  0  0  0  0  0  0
   -0.5675   -0.1203    0.3102 C   0  0  1  0  0  0  0  0  0  0  0  0
    0.0191   -0.5718    1.1110 H   0  0  0  0  0  0  0  0  0  0  0  0
    0.1724   -0.3238   -1.0286 C   0  0  0  0  0  0  0  0  0  0  0  0
   -0.0697    0.5096   -1.6909 H   0  0  0  0  0  0  0  0  0  0  0  0
    1.2458   -0.2873   -0.8298 H   0  0  0  0  0  0  0  0  0  0  0  0
   -0.1333   -1.6386   -1.7693 C   0  0  0  0  0  0  0  0  0  0  0  0
    0.7880   -2.2033   -1.9124 H   0  0  0  0  0  0  0  0  0  0  0  0
   -1.1389   -2.5102   -1.0115 C   0  0  0  0  0  0  0  0  0  0  0  0
   -2.0618   -1.9526   -0.8461 H   0  0  0  0  0  0  0  0  0  0  0  0
   -1.3621   -3.4043   -1.5940 H   0  0  0  0  0  0  0  0  0  0  0  0
   -0.7328   -2.8181   -0.0504 H   0  0  0  0  0  0  0  0  0  0  0  0
   -0.7184   -1.3310   -3.1471 C   0  0  0  0  0  0  0  0  0  0  0  0
   -0.0087   -0.7369   -3.7226 H   0  0  0  0  0  0  0  0  0  0  0  0
   -0.9100   -2.2599   -3.6844 H   0  0  0  0  0  0  0  0  0  0  0  0
   -1.6516   -0.7762   -3.0436 H   0  0  0  0  0  0  0  0  0  0  0  0
   -0.7793    1.3659    0.6455 C   0  0  0  0  0  0  0  0  0  0  0  0
   -1.6464    2.0125    0.0623 O   0  0  0  0  0  0  0  0  0  0  0  0
    0.0189    1.9059    1.5756 N   0  0  0  0  0  0  0  0  0  0  0  0
    0.7024    1.3094    2.0137 H   0  0  0  0  0  0  0  0  0  0  0  0
   -0.0451    3.3046    1.9929 C   0  0  0  0  0  0  0  0  0  0  0  0
   -1.0415    3.5286    2.3805 H   0  0  0  0  0  0  0  0  0  0  0  0
    0.6954    3.5023    2.7695 H   0  0  0  0  0  0  0  0  0  0  0  0
    0.1474    3.9536    1.1372 H   0  0  0  0  0  0  0  0  0  0  0  0
  5  6  2  0  0  0  0
  5  7  1  0  0  0  0
  2  3  1  0  0  0  0
  2  4  1  0  0  0  0
  2  5  1  0  0  0  0
  1  2  1  0  0  0  0
 24 25  2  0  0  0  0
 24 26  1  0  0  0  0
 20 21  1  0  0  0  0
 20 22  1  0  0  0  0
 20 23  1  0  0  0  0
 16 17  1  0  0  0  0
 16 18  1  0  0  0  0
 16 19  1  0  0  0  0
 14 15  1  0  0  0  0
 14 16  1  0  0  0  0
 14 20  1  0  0  0  0
 11 12  1  0  0  0  0
 11 13  1  0  0  0  0
 11 14  1  0  0  0  0
  9 10  1  0  0  0  0
  9 11  1  0  0  0  0
  9 24  1  0  0  0  0
  7  8  1  0  0  0  0
  7  9  1  0  0  0  0
 28 29  1  0  0  0  0
 28 30  1  0  0  0  0
 28 31  1  0  0  0  0
 26 27  1  0  0  0  0
 26 28  1  0  0  0  0
M  END
$$$$
default_name
  -OEChem-02102213163D

 31 30  0     1  0  0  0  0  0999 V2000
   -3.5895   -3.5013    1.1082 H   0  0  0  0  0  0  0  0  0  0  0  0
   -3.5145   -2.5363    0.6082 C   0  0  0  0  0  0  0  0  0  0  0  0
   -4.2285   -1.8413    1.0452 H   0  0  0  0  0  0  0  0  0  0  0  0
   -3.7155   -2.6583   -0.4538 H   0  0  0  0  0  0  0  0  0  0  0  0
   -2.1155   -1.9963    0.7922 C   0  0  0  0  0  0  0  0  0  0  0  0
   -1.2875   -2.6383    1.4252 O   0  0  0  0  0  0  0  0  0  0  0  0
   -1.8575   -0.8123    0.2402 N   0  0  0  0  0  0  0  0  0  0  0  0
   -2.6005   -0.3333   -0.2478 H   0  0  0  0  0  0  0  0  0  0  0  0
   -0.5675   -0.1203    0.3102 C   0  0  1  0  0  0  0  0  0  0  0  0
    0.0191   -0.5718    1.1110 H   0  0  0  0  0  0  0  0  0  0  0  0
    0.1724   -0.3238   -1.0286 C   0  0  0  0  0  0  0  0  0  0  0  0
   -0.0697    0.5096   -1.6909 H   0  0  0  0  0  0  0  0  0  0  0  0
    1.2458   -0.2873   -0.8298 H   0  0  0  0  0  0  0  0  0  0  0  0
   -0.1333   -1.6386   -1.7693 C   0  0  0  0  0  0  0  0  0  0  0  0
    0.7155   -2.3168   -1.6809 H   0  0  0  0  0  0  0  0  0  0  0  0
   -1.3846   -2.3332   -1.2243 C   0  0  0  0  0  0  0  0  0  0  0  0
   -2.2406   -1.6603   -1.2911 H   0  0  0  0  0  0  0  0  0  0  0  0
   -1.5901   -3.2306   -1.8082 H   0  0  0  0  0  0  0  0  0  0  0  0
   -1.2412   -2.6237   -0.1858 H   0  0  0  0  0  0  0  0  0  0  0  0
   -0.3592   -1.3544   -3.2538 C   0  0  0  0  0  0  0  0  0  0  0  0
    0.5301   -0.8877   -3.6772 H   0  0  0  0  0  0  0  0  0  0  0  0
   -0.5485   -2.2871   -3.7852 H   0  0  0  0  0  0  0  0  0  0  0  0
   -1.2121   -0.6872   -3.3829 H   0  0  0  0  0  0  0  0  0  0  0  0
   -0.7793    1.3659    0.6455 C   0  0  0  0  0  0  0  0  0  0  0  0
   -1.6464    2.0125    0.0623 O   0  0  0  0  0  0  0  0  0  0  0  0
    0.0189    1.9059    1.5756 N   0  0  0  0  0  0  0  0  0  0  0  0
    0.7024    1.3094    2.0137 H   0  0  0  0  0  0  0  0  0  0  0  0
   -0.0451    3.3046    1.9929 C   0  0  0  0  0  0  0  0  0  0  0  0
   -1.0415    3.5286    2.3805 H   0  0  0  0  0  0  0  0  0  0  0  0
    0.6954    3.5023    2.7695 H   0  0  0  0  0  0  0  0  0  0  0  0
    0.1474    3.9536    1.1372 H   0  0  0  0  0  0  0  0  0  0  0  0
  5  6  2  0  0  0  0
  5  7  1  0  0  0  0
  2  3  1  0  0  0  0
  2  4  1  0  0  0  0
  2  5  1  0  0  0  0
  1  2  1  0  0  0  0
 24 25  2  0  0  0  0
 24 26  1  0  0  0  0
 20 21  1  0  0  0  0
 20 22  1  0  0  0  0
 20 23  1  0  0  0  0
 16 17  1  0  0  0  0
 16 18  1  0  0  0  0
 16 19  1  0  0  0  0
 14 15  1  0  0  0  0
 14 16  1  0  0  0  0
 14 20  1  0  0  0  0
 11 12  1  0  0  0  0
 11 13  1  0  0  0  0
 11 14  1  0  0  0  0
  9 10  1  0  0  0  0
  9 11  1  0  0  0  0
  9 24  1  0  0  0  0
  7  8  1  0  0  0  0
  7  9  1  0  0  0  0
 28 29  1  0  0  0  0
 28 30  1  0  0  0  0
 28 31  1  0  0  0  0
 26 27  1  0  0  0  0
 26 28  1  0  0  0  0
M  END
$$$$
default_name
  -OEChem-02102213163D

 31 30  0     1  0  0  0  0  0999 V2000
   -3.5895   -3.5013    1.1082 H   0  0  0  0  0  0  0  0  0  0  0  0
   -3.5145   -2.5363    0.6082 C   0  0  0  0  0  0  0  0  0  0  0  0
   -4.2285   -1.8413    1.0452 H   0  0  0  0  0  0  0  0  0  0  0  0
   -3.7155   -2.6583   -0.4538 H   0  0  0  0  0  0  0  0  0  0  0  0
   -2.1155   -1.9963    0.7922 C   0  0  0  0  0  0  0  0  0  0  0  0
   -1.2875   -2.6383    1.4252 O   0  0  0  0  0  0  0  0  0  0  0  0
   -1.8575   -0.8123    0.2402 N   0  0  0  0  0  0  0  0  0  0  0  0
   -2.6005   -0.3333   -0.2478 H   0  0  0  0  0  0  0  0  0  0  0  0
   -0.5675   -0.1203    0.3102 C   0  0  1  0  0  0  0  0  0  0  0  0
    0.0191   -0.5718    1.1110 H   0  0  0  0  0  0  0  0  0  0  0  0
    0.1724   -0.3238   -1.0286 C   0  0  0  0  0  0  0  0  0  0  0  0
   -0.0697    0.5096   -1.6909 H   0  0  0  0  0  0  0  0  0  0  0  0
    1.2458   -0.2873   -0.8298 H   0  0  0  0  0  0  0  0  0  0  0  0
   -0.1333   -1.6386   -1.7693 C   0  0  0  0  0  0  0  0  0  0  0  0
    0.5801   -2.4056   -1.4676 H   0  0  0  0  0  0  0  0  0  0  0  0
   -1.5528   -2.1426   -1.4932 C   0  0  0  0  0  0  0  0  0  0  0  0
   -2.2786   -1.3787   -1.7754 H   0  0  0  0  0  0  0  0  0  0  0  0
   -1.7414   -3.0455   -2.0744 H   0  0  0  0  0  0  0  0  0  0  0  0
   -1.6781   -2.3795   -0.4389 H   0  0  0  0  0  0  0  0  0  0  0  0
    0.0085   -1.4273   -3.2762 C   0  0  0  0  0  0  0  0  0  0  0  0
    1.0217   -1.0981   -3.5066 H   0  0  0  0  0  0  0  0  0  0  0  0
   -0.1804   -2.3636   -3.8013 H   0  0  0  0  0  0  0  0  0  0  0  0
   -0.7014   -0.6734   -3.6182 H   0  0  0  0  0  0  0  0  0  0  0  0
   -0.7793    1.3659    0.6455 C   0  0  0  0  0  0  0  0  0  0  0  0
   -1.6464    2.0125    0.0623 O   0  0  0  0  0  0  0  0  0  0  0  0
    0.0189    1.9059    1.5756 N   0  0  0  0  0  0  0  0  0  0  0  0
    0.7024    1.3094    2.0137 H   0  0  0  0  0  0  0  0  0  0  0  0
   -0.0451    3.3046    1.9929 C   0  0  0  0  0  0  0  0  0  0  0  0
   -1.0415    3.5286    2.3805 H   0  0  0  0  0  0  0  0  0  0  0  0
    0.6954    3.5023    2.7695 H   0  0  0  0  0  0  0  0  0  0  0  0
    0.1474    3.9536    1.1372 H   0  0  0  0  0  0  0  0  0  0  0  0
  5  6  2  0  0  0  0
  5  7  1  0  0  0  0
  2  3  1  0  0  0  0
  2  4  1  0  0  0  0
  2  5  1  0  0  0  0
  1  2  1  0  0  0  0
 24 25  2  0  0  0  0
 24 26  1  0  0  0  0
 20 21  1  0  0  0  0
 20 22  1  0  0  0  0
 20 23  1  0  0  0  0
 16 17  1  0  0  0  0
 16 18  1  0  0  0  0
 16 19  1  0  0  0  0
 14 15  1  0  0  0  0
 14 16  1  0  0  0  0
 14 20  1  0  0  0  0
 11 12  1  0  0  0  0
 11 13  1  0  0  0  0
 11 14  1  0  0  0  0
  9 10  1  0  0  0  0
  9 11  1  0  0  0  0
  9 24  1  0  0  0  0
  7  8  1  0  0  0  0
  7  9  1  0  0  0  0
 28 29  1  0  0  0  0
 28 30  1  0  0  0  0
 28 31  1  0  0  0  0
 26 27  1  0  0  0  0
 26 28  1  0  0  0  0
M  END
$$$$
default_name
  -OEChem-02102213163D

 31 30  0     1  0  0  0  0  0999 V2000
   -3.5895   -3.5013    1.1082 H   0  0  0  0  0  0  0  0  0  0  0  0
   -3.5145   -2.5363    0.6082 C   0  0  0  0  0  0  0  0  0  0  0  0
   -4.2285   -1.8413    1.0452 H   0  0  0  0  0  0  0  0  0  0  0  0
   -3.7155   -2.6583   -0.4538 H   0  0  0  0  0  0  0  0  0  0  0  0
   -2.1155   -1.9963    0.7922 C   0  0  0  0  0  0  0  0  0  0  0  0
   -1.2875   -2.6383    1.4252 O   0  0  0  0  0  0  0  0  0  0  0  0
   -1.8575   -0.8123    0.2402 N   0  0  0  0  0  0  0  0  0  0  0  0
   -2.6005   -0.3333   -0.2478 H   0  0  0  0  0  0  0  0  0  0  0  0
   -0.5675   -0.1203    0.3102 C   0  0  1  0  0  0  0  0  0  0  0  0
    0.0191   -0.5718    1.1110 H   0  0  0  0  0  0  0  0  0  0  0  0
    0.1724   -0.3238   -1.0286 C   0  0  0  0  0  0  0  0  0  0  0  0
   -0.0697    0.5096   -1.6909 H   0  0  0  0  0  0  0  0  0  0  0  0
    1.2458   -0.2873   -0.8298 H   0  0  0  0  0  0  0  0  0  0  0  0
   -0.1333   -1.6386   -1.7693 C   0  0  0  0  0  0  0  0  0  0  0  0
    0.3911   -2.4635   -1.2868 H   0  0  0  0  0  0  0  0  0  0  0  0
   -1.6321   -1.9513   -1.7999 C   0  0  0  0  0  0  0  0  0  0  0  0
   -2.1732   -1.1268   -2.2661 H   0  0  0  0  0  0  0  0  0  0  0  0
   -1.8056   -2.8616   -2.3744 H   0  0  0  0  0  0  0  0  0  0  0  0
   -2.0137   -2.1023   -0.7925 H   0  0  0  0  0  0  0  0  0  0  0  0
    0.3595   -1.5446   -3.2128 C   0  0  0  0  0  0  0  0  0  0  0  0
    1.4326   -1.3538   -3.2223 H   0  0  0  0  0  0  0  0  0  0  0  0
    0.1692   -2.4842   -3.7315 H   0  0  0  0  0  0  0  0  0  0  0  0
   -0.1544   -0.7357   -3.7333 H   0  0  0  0  0  0  0  0  0  0  0  0
   -0.7793    1.3659    0.6455 C   0  0  0  0  0  0  0  0  0  0  0  0
   -1.6464    2.0125    0.0623 O   0  0  0  0  0  0  0  0  0  0  0  0
    0.0189    1.9059    1.5756 N   0  0  0  0  0  0  0  0  0  0  0  0
    0.7024    1.3094    2.0137 H   0  0  0  0  0  0  0  0  0  0  0  0
   -0.0451    3.3046    1.9929 C   0  0  0  0  0  0  0  0  0  0  0  0
   -1.0415    3.5286    2.3805 H   0  0  0  0  0  0  0  0  0  0  0  0
    0.6954    3.5023    2.7695 H   0  0  0  0  0  0  0  0  0  0  0  0
    0.1474    3.9536    1.1372 H   0  0  0  0  0  0  0  0  0  0  0  0
  5  6  2  0  0  0  0
  5  7  1  0  0  0  0
  2  3  1  0  0  0  0
  2  4  1  0  0  0  0
  2  5  1  0  0  0  0
  1  2  1  0  0  0  0
 24 25  2  0  0  0  0
 24 26  1  0  0  0  0
 20 21  1  0  0  0  0
 20 22  1  0  0  0  0
 20 23  1  0  0  0  0
 16 17  1  0  0  0  0
 16 18  1  0  0  0  0
 16 19  1  0  0  0  0
 14 15  1  0  0  0  0
 14 16  1  0  0  0  0
 14 20  1  0  0  0  0
 11 12  1  0  0  0  0
 11 13  1  0  0  0  0
 11 14  1  0  0  0  0
  9 10  1  0  0  0  0
  9 11  1  0  0  0  0
  9 24  1  0  0  0  0
  7  8  1  0  0  0  0
  7  9  1  0  0  0  0
 28 29  1  0  0  0  0
 28 30  1  0  0  0  0
 28 31  1  0  0  0  0
 26 27  1  0  0  0  0
 26 28  1  0  0  0  0
M  END
$$$$
default_name
  -OEChem-02102213163D

 31 30  0     1  0  0  0  0  0999 V2000
   -3.5895   -3.5013    1.1082 H   0  0  0  0  0  0  0  0  0  0  0  0
   -3.5145   -2.5363    0.6082 C   0  0  0  0  0  0  0  0  0  0  0  0
   -4.2285   -1.8413    1.0452 H   0  0  0  0  0  0  0  0  0  0  0  0
   -3.7155   -2.6583   -0.4538 H   0  0  0  0  0  0  0  0  0  0  0  0
   -2.1155   -1.9963    0.7922 C   0  0  0  0  0  0  0  0  0  0  0  0
   -1.2875   -2.6383    1.4252 O   0  0  0  0  0  0  0  0  0  0  0  0
   -1.8575   -0.8123    0.2402 N   0  0  0  0  0  0  0  0  0  0  0  0
   -2.6005   -0.3333   -0.2478 H   0  0  0  0  0  0  0  0  0  0  0  0
   -0.5675   -0.1203    0.3102 C   0  0  1  0  0  0  0  0  0  0  0  0
    0.0191   -0.5718    1.1110 H   0  0  0  0  0  0  0  0  0  0  0  0
    0.1724   -0.3238   -1.0286 C   0  0  0  0  0  0  0  0  0  0  0  0
   -0.0697    0.5096   -1.6909 H   0  0  0  0  0  0  0  0  0  0  0  0
    1.2458   -0.2873   -0.8298 H   0  0  0  0  0  0  0  0  0  0  0  0
   -0.1333   -1.6386   -1.7693 C   0  0  0  0  0  0  0  0  0  0  0  0
    0.1614   -2.4866   -1.1510 H   0  0  0  0  0  0  0  0  0  0  0  0
   -1.6171   -1.7725   -2.1236 C   0  0  0  0  0  0  0  0  0  0  0  0
   -1.9316   -0.9218   -2.7297 H   0  0  0  0  0  0  0  0  0  0  0  0
   -1.7784   -2.6913   -2.6879 H   0  0  0  0  0  0  0  0  0  0  0  0
   -2.2253   -1.8109   -1.2224 H   0  0  0  0  0  0  0  0  0  0  0  0
    0.6700   -1.6983   -3.0680 C   0  0  0  0  0  0  0  0  0  0  0  0
    1.7348   -1.6373   -2.8437 H   0  0  0  0  0  0  0  0  0  0  0  0
    0.4764   -2.6406   -3.5807 H   0  0  0  0  0  0  0  0  0  0  0  0
    0.3915   -0.8699   -3.7203 H   0  0  0  0  0  0  0  0  0  0  0  0
   -0.7793    1.3659    0.6455 C   0  0  0  0  0  0  0  0  0  0  0  0
   -1.6464    2.0125    0.0623 O   0  0  0  0  0  0  0  0  0  0  0  0
    0.0189    1.9059    1.5756 N   0  0  0  0  0  0  0  0  0  0  0  0
    0.7024    1.3094    2.0137 H   0  0  0  0  0  0  0  0  0  0  0  0
   -0.0451    3.3046    1.9929 C   0  0  0  0  0  0  0  0  0  0  0  0
   -1.0415    3.5286    2.3805 H   0  0  0  0  0  0  0  0  0  0  0  0
    0.6954    3.5023    2.7695 H   0  0  0  0  0  0  0  0  0  0  0  0
    0.1474    3.9536    1.1372 H   0  0  0  0  0  0  0  0  0  0  0  0
  5  6  2  0  0  0  0
  5  7  1  0  0  0  0
  2  3  1  0  0  0  0
  2  4  1  0  0  0  0
  2  5  1  0  0  0  0
  1  2  1  0  0  0  0
 24 25  2  0  0  0  0
 24 26  1  0  0  0  0
 20 21  1  0  0  0  0
 20 22  1  0  0  0  0
 20 23  1  0  0  0  0
 16 17  1  0  0  0  0
 16 18  1  0  0  0  0
 16 19  1  0  0  0  0
 14 15  1  0  0  0  0
 14 16  1  0  0  0  0
 14 20  1  0  0  0  0
 11 12  1  0  0  0  0
 11 13  1  0  0  0  0
 11 14  1  0  0  0  0
  9 10  1  0  0  0  0
  9 11  1  0  0  0  0
  9 24  1  0  0  0  0
  7  8  1  0  0  0  0
  7  9  1  0  0  0  0
 28 29  1  0  0  0  0
 28 30  1  0  0  0  0
 28 31  1  0  0  0  0
 26 27  1  0  0  0  0
 26 28  1  0  0  0  0
M  END
$$$$
default_name
  -OEChem-02102213163D

 31 30  0     1  0  0  0  0  0999 V2000
   -3.5895   -3.5013    1.1082 H   0  0  0  0  0  0  0  0  0  0  0  0
   -3.5145   -2.5363    0.6082 C   0  0  0  0  0  0  0  0  0  0  0  0
   -4.2285   -1.8413    1.0452 H   0  0  0  0  0  0  0  0  0  0  0  0
   -3.7155   -2.6583   -0.4538 H   0  0  0  0  0  0  0  0  0  0  0  0
   -2.1155   -1.9963    0.7922 C   0  0  0  0  0  0  0  0  0  0  0  0
   -1.2875   -2.6383    1.4252 O   0  0  0  0  0  0  0  0  0  0  0  0
   -1.8575   -0.8123    0.2402 N   0  0  0  0  0  0  0  0  0  0  0  0
   -2.6005   -0.3333   -0.2478 H   0  0  0  0  0  0  0  0  0  0  0  0
   -0.5675   -0.1203    0.3102 C   0  0  1  0  0  0  0  0  0  0  0  0
    0.0191   -0.5718    1.1110 H   0  0  0  0  0  0  0  0  0  0  0  0
    0.1724   -0.3238   -1.0286 C   0  0  0  0  0  0  0  0  0  0  0  0
   -0.0697    0.5096   -1.6909 H   0  0  0  0  0  0  0  0  0  0  0  0
    1.2458   -0.2873   -0.8298 H   0  0  0  0  0  0  0  0  0  0  0  0
   -0.1333   -1.6386   -1.7693 C   0  0  0  0  0  0  0  0  0  0  0  0
   -0.0933   -2.4733   -1.0694 H   0  0  0  0  0  0  0  0  0  0  0  0
   -1.5089   -1.6183   -2.4421 C   0  0  0  0  0  0  0  0  0  0  0  0
   -1.5702   -0.7777   -3.1346 H   0  0  0  0  0  0  0  0  0  0  0  0
   -1.6617   -2.5463   -2.9935 H   0  0  0  0  0  0  0  0  0  0  0  0
   -2.2984   -1.5252   -1.6995 H   0  0  0  0  0  0  0  0  0  0  0  0
    0.9187   -1.8781   -2.8516 C   0  0  0  0  0  0  0  0  0  0  0  0
    1.9078   -1.9294   -2.3966 H   0  0  0  0  0  0  0  0  0  0  0  0
    0.7203   -2.8221   -3.3591 H   0  0  0  0  0  0  0  0  0  0  0  0
    0.8994   -1.0669   -3.5803 H   0  0  0  0  0  0  0  0  0  0  0  0
   -0.7793    1.3659    0.6455 C   0  0  0  0  0  0  0  0  0  0  0  0
   -1.6464    2.0125    0.0623 O   0  0  0  0  0  0  0  0  0  0  0  0
    0.0189    1.9059    1.5756 N   0  0  0  0  0  0  0  0  0  0  0  0
    0.7024    1.3094    2.0137 H   0  0  0  0  0  0  0  0  0  0  0  0
   -0.0451    3.3046    1.9929 C   0  0  0  0  0  0  0  0  0  0  0  0
   -1.0415    3.5286    2.3805 H   0  0  0  0  0  0  0  0  0  0  0  0
    0.6954    3.5023    2.7695 H   0  0  0  0  0  0  0  0  0  0  0  0
    0.1474    3.9536    1.1372 H   0  0  0  0  0  0  0  0  0  0  0  0
  5  6  2  0  0  0  0
  5  7  1  0  0  0  0
  2  3  1  0  0  0  0
  2  4  1  0  0  0  0
  2  5  1  0  0  0  0
  1  2  1  0  0  0  0
 24 25  2  0  0  0  0
 24 26  1  0  0  0  0
 20 21  1  0  0  0  0
 20 22  1  0  0  0  0
 20 23  1  0  0  0  0
 16 17  1  0  0  0  0
 16 18  1  0  0  0  0
 16 19  1  0  0  0  0
 14 15  1  0  0  0  0
 14 16  1  0  0  0  0
 14 20  1  0  0  0  0
 11 12  1  0  0  0  0
 11 13  1  0  0  0  0
 11 14  1  0  0  0  0
  9 10  1  0  0  0  0
  9 11  1  0  0  0  0
  9 24  1  0  0  0  0
  7  8  1  0  0  0  0
  7  9  1  0  0  0  0
 28 29  1  0  0  0  0
 28 30  1  0  0  0  0
 28 31  1  0  0  0  0
 26 27  1  0  0  0  0
 26 28  1  0  0  0  0
M  END
$$$$
default_name
  -OEChem-02102213163D

 31 30  0     1  0  0  0  0  0999 V2000
   -3.5895   -3.5013    1.1082 H   0  0  0  0  0  0  0  0  0  0  0  0
   -3.5145   -2.5363    0.6082 C   0  0  0  0  0  0  0  0  0  0  0  0
   -4.2285   -1.8413    1.0452 H   0  0  0  0  0  0  0  0  0  0  0  0
   -3.7155   -2.6583   -0.4538 H   0  0  0  0  0  0  0  0  0  0  0  0
   -2.1155   -1.9963    0.7922 C   0  0  0  0  0  0  0  0  0  0  0  0
   -1.2875   -2.6383    1.4252 O   0  0  0  0  0  0  0  0  0  0  0  0
   -1.8575   -0.8123    0.2402 N   0  0  0  0  0  0  0  0  0  0  0  0
   -2.6005   -0.3333   -0.2478 H   0  0  0  0  0  0  0  0  0  0  0  0
   -0.5675   -0.1203    0.3102 C   0  0  1  0  0  0  0  0  0  0  0  0
    0.0191   -0.5718    1.1110 H   0  0  0  0  0  0  0  0  0  0  0  0
    0.1724   -0.3238   -1.0286 C   0  0  0  0  0  0  0  0  0  0  0  0
   -0.0697    0.5096   -1.6909 H   0  0  0  0  0  0  0  0  0  0  0  0
    1.2458   -0.2873   -0.8298 H   0  0  0  0  0  0  0  0  0  0  0  0
   -0.1333   -1.6386   -1.7693 C   0  0  0  0  0  0  0  0  0  0  0  0
   -0.3558   -2.4246   -1.0476 H   0  0  0  0  0  0  0  0  0  0  0  0
   -1.3147   -1.4991   -2.7337 C   0  0  0  0  0  0  0  0  0  0  0  0
   -1.1137   -0.7043   -3.4533 H   0  0  0  0  0  0  0  0  0  0  0  0
   -1.4633   -2.4365   -3.2702 H   0  0  0  0  0  0  0  0  0  0  0  0
   -2.2279   -1.2646   -2.1911 H   0  0  0  0  0  0  0  0  0  0  0  0
    1.0888   -2.0715   -2.5784 C   0  0  0  0  0  0  0  0  0  0  0  0
    1.9397   -2.2100   -1.9116 H   0  0  0  0  0  0  0  0  0  0  0  0
    0.8844   -3.0165   -3.0817 H   0  0  0  0  0  0  0  0  0  0  0  0
    1.3344   -1.3131   -3.3226 H   0  0  0  0  0  0  0  0  0  0  0  0
   -0.7793    1.3659    0.6455 C   0  0  0  0  0  0  0  0  0  0  0  0
   -1.6464    2.0125    0.0623 O   0  0  0  0  0  0  0  0  0  0  0  0
    0.0189    1.9059    1.5756 N   0  0  0  0  0  0  0  0  0  0  0  0
    0.7024    1.3094    2.0137 H   0  0  0  0  0  0  0  0  0  0  0  0
   -0.0451    3.3046    1.9929 C   0  0  0  0  0  0  0  0  0  0  0  0
   -1.0415    3.5286    2.3805 H   0  0  0  0  0  0  0  0  0  0  0  0
    0.6954    3.5023    2.7695 H   0  0  0  0  0  0  0  0  0  0  0  0
    0.1474    3.9536    1.1372 H   0  0  0  0  0  0  0  0  0  0  0  0
  5  6  2  0  0  0  0
  5  7  1  0  0  0  0
  2  3  1  0  0  0  0
  2  4  1  0  0  0  0
  2  5  1  0  0  0  0
  1  2  1  0  0  0  0
 24 25  2  0  0  0  0
 24 26  1  0  0  0  0
 20 21  1  0  0  0  0
 20 22  1  0  0  0  0
 20 23  1  0  0  0  0
 16 17  1  0  0  0  0
 16 18  1  0  0  0  0
 16 19  1  0  0  0  0
 14 15  1  0  0  0  0
 14 16  1  0  0  0  0
 14 20  1  0  0  0  0
 11 12  1  0  0  0  0
 11 13  1  0  0  0  0
 11 14  1  0  0  0  0
  9 10  1  0  0  0  0
  9 11  1  0  0  0  0
  9 24  1  0  0  0  0
  7  8  1  0  0  0  0
  7  9  1  0  0  0  0
 28 29  1  0  0  0  0
 28 30  1  0  0  0  0
 28 31  1  0  0  0  0
 26 27  1  0  0  0  0
 26 28  1  0  0  0  0
M  END
$$$$
default_name
  -OEChem-02102213163D

 31 30  0     1  0  0  0  0  0999 V2000
   -3.5895   -3.5013    1.1082 H   0  0  0  0  0  0  0  0  0  0  0  0
   -3.5145   -2.5363    0.6082 C   0  0  0  0  0  0  0  0  0  0  0  0
   -4.2285   -1.8413    1.0452 H   0  0  0  0  0  0  0  0  0  0  0  0
   -3.7155   -2.6583   -0.4538 H   0  0  0  0  0  0  0  0  0  0  0  0
   -2.1155   -1.9963    0.7922 C   0  0  0  0  0  0  0  0  0  0  0  0
   -1.2875   -2.6383    1.4252 O   0  0  0  0  0  0  0  0  0  0  0  0
   -1.8575   -0.8123    0.2402 N   0  0  0  0  0  0  0  0  0  0  0  0
   -2.6005   -0.3333   -0.2478 H   0  0  0  0  0  0  0  0  0  0  0  0
   -0.5675   -0.1203    0.3102 C   0  0  1  0  0  0  0  0  0  0  0  0
    0.0191   -0.5718    1.1110 H   0  0  0  0  0  0  0  0  0  0  0  0
    0.1724   -0.3238   -1.0286 C   0  0  0  0  0  0  0  0  0  0  0  0
   -0.0697    0.5096   -1.6909 H   0  0  0  0  0  0  0  0  0  0  0  0
    1.2458   -0.2873   -0.8298 H   0  0  0  0  0  0  0  0  0  0  0  0
   -0.1333   -1.6386   -1.7693 C   0  0  0  0  0  0  0  0  0  0  0  0
   -0.6081   -2.3437   -1.0870 H   0  0  0  0  0  0  0  0  0  0  0  0
   -1.0478   -1.4232   -2.9786 C   0  0  0  0  0  0  0  0  0  0  0  0
   -0.5932   -0.7066   -3.6640 H   0  0  0  0  0  0  0  0  0  0  0  0
   -1.1969   -2.3693   -3.4994 H   0  0  0  0  0  0  0  0  0  0  0  0
   -2.0188   -1.0469   -2.6638 H   0  0  0  0  0  0  0  0  0  0  0  0
    1.1686   -2.2655   -2.2670 C   0  0  0  0  0  0  0  0  0  0  0  0
    1.8284   -2.4602   -1.4216 H   0  0  0  0  0  0  0  0  0  0  0  0
    0.9574   -3.2104   -2.7676 H   0  0  0  0  0  0  0  0  0  0  0  0
    1.6670   -1.5919   -2.9650 H   0  0  0  0  0  0  0  0  0  0  0  0
   -0.7793    1.3659    0.6455 C   0  0  0  0  0  0  0  0  0  0  0  0
   -1.6464    2.0125    0.0623 O   0  0  0  0  0  0  0  0  0  0  0  0
    0.0189    1.9059    1.5756 N   0  0  0  0  0  0  0  0  0  0  0  0
    0.7024    1.3094    2.0137 H   0  0  0  0  0  0  0  0  0  0  0  0
   -0.0451    3.3046    1.9929 C   0  0  0  0  0  0  0  0  0  0  0  0
   -1.0415    3.5286    2.3805 H   0  0  0  0  0  0  0  0  0  0  0  0
    0.6954    3.5023    2.7695 H   0  0  0  0  0  0  0  0  0  0  0  0
    0.1474    3.9536    1.1372 H   0  0  0  0  0  0  0  0  0  0  0  0
  5  6  2  0  0  0  0
  5  7  1  0  0  0  0
  2  3  1  0  0  0  0
  2  4  1  0  0  0  0
  2  5  1  0  0  0  0
  1  2  1  0  0  0  0
 24 25  2  0  0  0  0
 24 26  1  0  0  0  0
 20 21  1  0  0  0  0
 20 22  1  0  0  0  0
 20 23  1  0  0  0  0
 16 17  1  0  0  0  0
 16 18  1  0  0  0  0
 16 19  1  0  0  0  0
 14 15  1  0  0  0  0
 14 16  1  0  0  0  0
 14 20  1  0  0  0  0
 11 12  1  0  0  0  0
 11 13  1  0  0  0  0
 11 14  1  0  0  0  0
  9 10  1  0  0  0  0
  9 11  1  0  0  0  0
  9 24  1  0  0  0  0
  7  8  1  0  0  0  0
  7  9  1  0  0  0  0
 28 29  1  0  0  0  0
 28 30  1  0  0  0  0
 28 31  1  0  0  0  0
 26 27  1  0  0  0  0
 26 28  1  0  0  0  0
M  END
$$$$
default_name
  -OEChem-02102213163D

 31 30  0     1  0  0  0  0  0999 V2000
   -3.5895   -3.5013    1.1082 H   0  0  0  0  0  0  0  0  0  0  0  0
   -3.5145   -2.5363    0.6082 C   0  0  0  0  0  0  0  0  0  0  0  0
   -4.2285   -1.8413    1.0452 H   0  0  0  0  0  0  0  0  0  0  0  0
   -3.7155   -2.6583   -0.4538 H   0  0  0  0  0  0  0  0  0  0  0  0
   -2.1155   -1.9963    0.7922 C   0  0  0  0  0  0  0  0  0  0  0  0
   -1.2875   -2.6383    1.4252 O   0  0  0  0  0  0  0  0  0  0  0  0
   -1.8575   -0.8123    0.2402 N   0  0  0  0  0  0  0  0  0  0  0  0
   -2.6005   -0.3333   -0.2478 H   0  0  0  0  0  0  0  0  0  0  0  0
   -0.5675   -0.1203    0.3102 C   0  0  1  0  0  0  0  0  0  0  0  0
    0.0191   -0.5718    1.1110 H   0  0  0  0  0  0  0  0  0  0  0  0
    0.1724   -0.3238   -1.0286 C   0  0  0  0  0  0  0  0  0  0  0  0
   -0.0697    0.5096   -1.6909 H   0  0  0  0  0  0  0  0  0  0  0  0
    1.2458   -0.2873   -0.8298 H   0  0  0  0  0  0  0  0  0  0  0  0
   -0.1333   -1.6386   -1.7693 C   0  0  0  0  0  0  0  0  0  0  0  0
   -0.8330   -2.2363   -1.1850 H   0  0  0  0  0  0  0  0  0  0  0  0
   -0.7265   -1.3956   -3.1601 C   0  0  0  0  0  0  0  0  0  0  0  0
   -0.0441   -0.7844   -3.7523 H   0  0  0  0  0  0  0  0  0  0  0  0
   -0.8806   -2.3494   -3.6653 H   0  0  0  0  0  0  0  0  0  0  0  0
   -1.6852   -0.8870   -3.0853 H   0  0  0  0  0  0  0  0  0  0  0  0
    1.1526   -2.4468   -1.9386 C   0  0  0  0  0  0  0  0  0  0  0  0
    1.5815   -2.6628   -0.9601 H   0  0  0  0  0  0  0  0  0  0  0  0
    0.9343   -3.3907   -2.4381 H   0  0  0  0  0  0  0  0  0  0  0  0
    1.8745   -1.8843   -2.5317 H   0  0  0  0  0  0  0  0  0  0  0  0
   -0.7793    1.3659    0.6455 C   0  0  0  0  0  0  0  0  0  0  0  0
   -1.6464    2.0125    0.0623 O   0  0  0  0  0  0  0  0  0  0  0  0
    0.0189    1.9059    1.5756 N   0  0  0  0  0  0  0  0  0  0  0  0
    0.7024    1.3094    2.0137 H   0  0  0  0  0  0  0  0  0  0  0  0
   -0.0451    3.3046    1.9929 C   0  0  0  0  0  0  0  0  0  0  0  0
   -1.0415    3.5286    2.3805 H   0  0  0  0  0  0  0  0  0  0  0  0
    0.6954    3.5023    2.7695 H   0  0  0  0  0  0  0  0  0  0  0  0
    0.1474    3.9536    1.1372 H   0  0  0  0  0  0  0  0  0  0  0  0
  5  6  2  0  0  0  0
  5  7  1  0  0  0  0
  2  3  1  0  0  0  0
  2  4  1  0  0  0  0
  2  5  1  0  0  0  0
  1  2  1  0  0  0  0
 24 25  2  0  0  0  0
 24 26  1  0  0  0  0
 20 21  1  0  0  0  0
 20 22  1  0  0  0  0
 20 23  1  0  0  0  0
 16 17  1  0  0  0  0
 16 18  1  0  0  0  0
 16 19  1  0  0  0  0
 14 15  1  0  0  0  0
 14 16  1  0  0  0  0
 14 20  1  0  0  0  0
 11 12  1  0  0  0  0
 11 13  1  0  0  0  0
 11 14  1  0  0  0  0
  9 10  1  0  0  0  0
  9 11  1  0  0  0  0
  9 24  1  0  0  0  0
  7  8  1  0  0  0  0
  7  9  1  0  0  0  0
 28 29  1  0  0  0  0
 28 30  1  0  0  0  0
 28 31  1  0  0  0  0
 26 27  1  0  0  0  0
 26 28  1  0  0  0  0
M  END
$$$$
default_name
  -OEChem-02102213163D

 31 30  0     1  0  0  0  0  0999 V2000
   -3.5895   -3.5013    1.1082 H   0  0  0  0  0  0  0  0  0  0  0  0
   -3.5145   -2.5363    0.6082 C   0  0  0  0  0  0  0  0  0  0  0  0
   -4.2285   -1.8413    1.0452 H   0  0  0  0  0  0  0  0  0  0  0  0
   -3.7155   -2.6583   -0.4538 H   0  0  0  0  0  0  0  0  0  0  0  0
   -2.1155   -1.9963    0.7922 C   0  0  0  0  0  0  0  0  0  0  0  0
   -1.2875   -2.6383    1.4252 O   0  0  0  0  0  0  0  0  0  0  0  0
   -1.8575   -0.8123    0.2402 N   0  0  0  0  0  0  0  0  0  0  0  0
   -2.6005   -0.3333   -0.2478 H   0  0  0  0  0  0  0  0  0  0  0  0
   -0.5675   -0.1203    0.3102 C   0  0  1  0  0  0  0  0  0  0  0  0
    0.0191   -0.5718    1.1110 H   0  0  0  0  0  0  0  0  0  0  0  0
    0.1724   -0.3238   -1.0286 C   0  0  0  0  0  0  0  0  0  0  0  0
   -0.0697    0.5096   -1.6909 H   0  0  0  0  0  0  0  0  0  0  0  0
    1.2458   -0.2873   -0.8298 H   0  0  0  0  0  0  0  0  0  0  0  0
   -0.1333   -1.6386   -1.7693 C   0  0  0  0  0  0  0  0  0  0  0  0
   -1.0152   -2.1095   -1.3349 H   0  0  0  0  0  0  0  0  0  0  0  0
   -0.3726   -1.4184   -3.2658 C   0  0  0  0  0  0  0  0  0  0  0  0
    0.4961   -0.9326   -3.7123 H   0  0  0  0  0  0  0  0  0  0  0  0
   -0.5358   -2.3781   -3.7567 H   0  0  0  0  0  0  0  0  0  0  0  0
   -1.2499   -0.7957   -3.4270 H   0  0  0  0  0  0  0  0  0  0  0  0
    1.0421   -2.6031   -1.6155 C   0  0  0  0  0  0  0  0  0  0  0  0
    1.2157   -2.8040   -0.5584 H   0  0  0  0  0  0  0  0  0  0  0  0
    0.8167   -3.5450   -2.1157 H   0  0  0  0  0  0  0  0  0  0  0  0
    1.9428   -2.1703   -2.0522 H   0  0  0  0  0  0  0  0  0  0  0  0
   -0.7793    1.3659    0.6455 C   0  0  0  0  0  0  0  0  0  0  0  0
   -1.6464    2.0125    0.0623 O   0  0  0  0  0  0  0  0  0  0  0  0
    0.0189    1.9059    1.5756 N   0  0  0  0  0  0  0  0  0  0  0  0
    0.7024    1.3094    2.0137 H   0  0  0  0  0  0  0  0  0  0  0  0
   -0.0451    3.3046    1.9929 C   0  0  0  0  0  0  0  0  0  0  0  0
   -1.0415    3.5286    2.3805 H   0  0  0  0  0  0  0  0  0  0  0  0
    0.6954    3.5023    2.7695 H   0  0  0  0  0  0  0  0  0  0  0  0
    0.1474    3.9536    1.1372 H   0  0  0  0  0  0  0  0  0  0  0  0
  5  6  2  0  0  0  0
  5  7  1  0  0  0  0
  2  3  1  0  0  0  0
  2  4  1  0  0  0  0
  2  5  1  0  0  0  0
  1  2  1  0  0  0  0
 24 25  2  0  0  0  0
 24 26  1  0  0  0  0
 20 21  1  0  0  0  0
 20 22  1  0  0  0  0
 20 23  1  0  0  0  0
 16 17  1  0  0  0  0
 16 18  1  0  0  0  0
 16 19  1  0  0  0  0
 14 15  1  0  0  0  0
 14 16  1  0  0  0  0
 14 20  1  0  0  0  0
 11 12  1  0  0  0  0
 11 13  1  0  0  0  0
 11 14  1  0  0  0  0
  9 10  1  0  0  0  0
  9 11  1  0  0  0  0
  9 24  1  0  0  0  0
  7  8  1  0  0  0  0
  7  9  1  0  0  0  0
 28 29  1  0  0  0  0
 28 30  1  0  0  0  0
 28 31  1  0  0  0  0
 26 27  1  0  0  0  0
 26 28  1  0  0  0  0
M  END
$$$$
default_name
  -OEChem-02102213163D

 31 30  0     1  0  0  0  0  0999 V2000
   -3.5895   -3.5013    1.1082 H   0  0  0  0  0  0  0  0  0  0  0  0
   -3.5145   -2.5363    0.6082 C   0  0  0  0  0  0  0  0  0  0  0  0
   -4.2285   -1.8413    1.0452 H   0  0  0  0  0  0  0  0  0  0  0  0
   -3.7155   -2.6583   -0.4538 H   0  0  0  0  0  0  0  0  0  0  0  0
   -2.1155   -1.9963    0.7922 C   0  0  0  0  0  0  0  0  0  0  0  0
   -1.2875   -2.6383    1.4252 O   0  0  0  0  0  0  0  0  0  0  0  0
   -1.8575   -0.8123    0.2402 N   0  0  0  0  0  0  0  0  0  0  0  0
   -2.6005   -0.3333   -0.2478 H   0  0  0  0  0  0  0  0  0  0  0  0
   -0.5675   -0.1203    0.3102 C   0  0  1  0  0  0  0  0  0  0  0  0
    0.0191   -0.5718    1.1110 H   0  0  0  0  0  0  0  0  0  0  0  0
    0.1724   -0.3238   -1.0286 C   0  0  0  0  0  0  0  0  0  0  0  0
   -0.0697    0.5096   -1.6909 H   0  0  0  0  0  0  0  0  0  0  0  0
    1.2458   -0.2873   -0.8298 H   0  0  0  0  0  0  0  0  0  0  0  0
   -0.1333   -1.6386   -1.7693 C   0  0  0  0  0  0  0  0  0  0  0  0
   -1.1422   -1.9720   -1.5264 H   0  0  0  0  0  0  0  0  0  0  0  0
   -0.0102   -1.4898   -3.2885 C   0  0  0  0  0  0  0  0  0  0  0  0
    0.9906   -1.1408   -3.5467 H   0  0  0  0  0  0  0  0  0  0  0  0
   -0.1862   -2.4534   -3.7673 H   0  0  0  0  0  0  0  0  0  0  0  0
   -0.7426   -0.7793   -3.6655 H   0  0  0  0  0  0  0  0  0  0  0  0
    0.8445   -2.7237   -1.3199 C   0  0  0  0  0  0  0  0  0  0  0  0
    0.7560   -2.8743   -0.2440 H   0  0  0  0  0  0  0  0  0  0  0  0
    0.6127   -3.6628   -1.8223 H   0  0  0  0  0  0  0  0  0  0  0  0
    1.8672   -2.4303   -1.5593 H   0  0  0  0  0  0  0  0  0  0  0  0
   -0.7793    1.3659    0.6455 C   0  0  0  0  0  0  0  0  0  0  0  0
   -1.6464    2.0125    0.0623 O   0  0  0  0  0  0  0  0  0  0  0  0
    0.0189    1.9059    1.5756 N   0  0  0  0  0  0  0  0  0  0  0  0
    0.7024    1.3094    2.0137 H   0  0  0  0  0  0  0  0  0  0  0  0
   -0.0451    3.3046    1.9929 C   0  0  0  0  0  0  0  0  0  0  0  0
   -1.0415    3.5286    2.3805 H   0  0  0  0  0  0  0  0  0  0  0  0
    0.6954    3.5023    2.7695 H   0  0  0  0  0  0  0  0  0  0  0  0
    0.1474    3.9536    1.1372 H   0  0  0  0  0  0  0  0  0  0  0  0
  5  6  2  0  0  0  0
  5  7  1  0  0  0  0
  2  3  1  0  0  0  0
  2  4  1  0  0  0  0
  2  5  1  0  0  0  0
  1  2  1  0  0  0  0
 24 25  2  0  0  0  0
 24 26  1  0  0  0  0
 20 21  1  0  0  0  0
 20 22  1  0  0  0  0
 20 23  1  0  0  0  0
 16 17  1  0  0  0  0
 16 18  1  0  0  0  0
 16 19  1  0  0  0  0
 14 15  1  0  0  0  0
 14 16  1  0  0  0  0
 14 20  1  0  0  0  0
 11 12  1  0  0  0  0
 11 13  1  0  0  0  0
 11 14  1  0  0  0  0
  9 10  1  0  0  0  0
  9 11  1  0  0  0  0
  9 24  1  0  0  0  0
  7  8  1  0  0  0  0
  7  9  1  0  0  0  0
 28 29  1  0  0  0  0
 28 30  1  0  0  0  0
 28 31  1  0  0  0  0
 26 27  1  0  0  0  0
 26 28  1  0  0  0  0
M  END
$$$$
default_name
  -OEChem-02102213163D

 31 30  0     1  0  0  0  0  0999 V2000
   -3.5895   -3.5013    1.1082 H   0  0  0  0  0  0  0  0  0  0  0  0
   -3.5145   -2.5363    0.6082 C   0  0  0  0  0  0  0  0  0  0  0  0
   -4.2285   -1.8413    1.0452 H   0  0  0  0  0  0  0  0  0  0  0  0
   -3.7155   -2.6583   -0.4538 H   0  0  0  0  0  0  0  0  0  0  0  0
   -2.1155   -1.9963    0.7922 C   0  0  0  0  0  0  0  0  0  0  0  0
   -1.2875   -2.6383    1.4252 O   0  0  0  0  0  0  0  0  0  0  0  0
   -1.8575   -0.8123    0.2402 N   0  0  0  0  0  0  0  0  0  0  0  0
   -2.6005   -0.3333   -0.2478 H   0  0  0  0  0  0  0  0  0  0  0  0
   -0.5675   -0.1203    0.3102 C   0  0  1  0  0  0  0  0  0  0  0  0
    0.0191   -0.5718    1.1110 H   0  0  0  0  0  0  0  0  0  0  0  0
    0.1724   -0.3238   -1.0286 C   0  0  0  0  0  0  0  0  0  0  0  0
   -0.0697    0.5096   -1.6909 H   0  0  0  0  0  0  0  0  0  0  0  0
    1.2458   -0.2873   -0.8298 H   0  0  0  0  0  0  0  0  0  0  0  0
   -0.1333   -1.6386   -1.7693 C   0  0  0  0  0  0  0  0  0  0  0  0
   -1.2055   -1.8333   -1.7466 H   0  0  0  0  0  0  0  0  0  0  0  0
    0.3360   -1.6051   -3.2267 C   0  0  0  0  0  0  0  0  0  0  0  0
    1.4057   -1.3950   -3.2667 H   0  0  0  0  0  0  0  0  0  0  0  0
    0.1444   -2.5702   -3.6963 H   0  0  0  0  0  0  0  0  0  0  0  0
   -0.1977   -0.8388   -3.7846 H   0  0  0  0  0  0  0  0  0  0  0  0
    0.5733   -2.8004   -1.0718 C   0  0  0  0  0  0  0  0  0  0  0  0
    0.2338   -2.8687   -0.0383 H   0  0  0  0  0  0  0  0  0  0  0  0
    0.3361   -3.7362   -1.5780 H   0  0  0  0  0  0  0  0  0  0  0  0
    1.6529   -2.6468   -1.0866 H   0  0  0  0  0  0  0  0  0  0  0  0
   -0.7793    1.3659    0.6455 C   0  0  0  0  0  0  0  0  0  0  0  0
   -1.6464    2.0125    0.0623 O   0  0  0  0  0  0  0  0  0  0  0  0
    0.0189    1.9059    1.5756 N   0  0  0  0  0  0  0  0  0  0  0  0
    0.7024    1.3094    2.0137 H   0  0  0  0  0  0  0  0  0  0  0  0
   -0.0451    3.3046    1.9929 C   0  0  0  0  0  0  0  0  0  0  0  0
   -1.0415    3.5286    2.3805 H   0  0  0  0  0  0  0  0  0  0  0  0
    0.6954    3.5023    2.7695 H   0  0  0  0  0  0  0  0  0  0  0  0
    0.1474    3.9536    1.1372 H   0  0  0  0  0  0  0  0  0  0  0  0
  5  6  2  0  0  0  0
  5  7  1  0  0  0  0
  2  3  1  0  0  0  0
  2  4  1  0  0  0  0
  2  5  1  0  0  0  0
  1  2  1  0  0  0  0
 24 25  2  0  0  0  0
 24 26  1  0  0  0  0
 20 21  1  0  0  0  0
 20 22  1  0  0  0  0
 20 23  1  0  0  0  0
 16 17  1  0  0  0  0
 16 18  1  0  0  0  0
 16 19  1  0  0  0  0
 14 15  1  0  0  0  0
 14 16  1  0  0  0  0
 14 20  1  0  0  0  0
 11 12  1  0  0  0  0
 11 13  1  0  0  0  0
 11 14  1  0  0  0  0
  9 10  1  0  0  0  0
  9 11  1  0  0  0  0
  9 24  1  0  0  0  0
  7  8  1  0  0  0  0
  7  9  1  0  0  0  0
 28 29  1  0  0  0  0
 28 30  1  0  0  0  0
 28 31  1  0  0  0  0
 26 27  1  0  0  0  0
 26 28  1  0  0  0  0
M  END
$$$$
default_name
  -OEChem-02102213163D

 31 30  0     1  0  0  0  0  0999 V2000
   -3.5895   -3.5013    1.1082 H   0  0  0  0  0  0  0  0  0  0  0  0
   -3.5145   -2.5363    0.6082 C   0  0  0  0  0  0  0  0  0  0  0  0
   -4.2285   -1.8413    1.0452 H   0  0  0  0  0  0  0  0  0  0  0  0
   -3.7155   -2.6583   -0.4538 H   0  0  0  0  0  0  0  0  0  0  0  0
   -2.1155   -1.9963    0.7922 C   0  0  0  0  0  0  0  0  0  0  0  0
   -1.2875   -2.6383    1.4252 O   0  0  0  0  0  0  0  0  0  0  0  0
   -1.8575   -0.8123    0.2402 N   0  0  0  0  0  0  0  0  0  0  0  0
   -2.6005   -0.3333   -0.2478 H   0  0  0  0  0  0  0  0  0  0  0  0
   -0.5675   -0.1203    0.3102 C   0  0  1  0  0  0  0  0  0  0  0  0
    0.0191   -0.5718    1.1110 H   0  0  0  0  0  0  0  0  0  0  0  0
    0.1724   -0.3238   -1.0286 C   0  0  0  0  0  0  0  0  0  0  0  0
    0.1540    0.6162   -1.5835 H   0  0  0  0  0  0  0  0  0  0  0  0
    1.2161   -0.5558   -0.8054 H   0  0  0  0  0  0  0  0  0  0  0  0
   -0.3819   -1.4363   -1.9375 C   0  0  0  0  0  0  0  0  0  0  0  0
   -1.4254   -1.2308   -2.1763 H   0  0  0  0  0  0  0  0  0  0  0  0
    0.4108   -1.5679   -3.2412 C   0  0  0  0  0  0  0  0  0  0  0  0
    1.4616   -1.7580   -3.0183 H   0  0  0  0  0  0  0  0  0  0  0  0
    0.0155   -2.3966   -3.8291 H   0  0  0  0  0  0  0  0  0  0  0  0
    0.3318   -0.6581   -3.8323 H   0  0  0  0  0  0  0  0  0  0  0  0
   -0.3188   -2.7779   -1.2084 C   0  0  0  0  0  0  0  0  0  0  0  0
   -0.9024   -2.7237   -0.2895 H   0  0  0  0  0  0  0  0  0  0  0  0
   -0.7361   -3.5627   -1.8393 H   0  0  0  0  0  0  0  0  0  0  0  0
    0.7151   -3.0243   -0.9640 H   0  0  0  0  0  0  0  0  0  0  0  0
   -0.7793    1.3659    0.6455 C   0  0  0  0  0  0  0  0  0  0  0  0
   -1.6464    2.0125    0.0623 O   0  0  0  0  0  0  0  0  0  0  0  0
    0.0189    1.9059    1.5756 N   0  0  0  0  0  0  0  0  0  0  0  0
    0.7024    1.3094    2.0137 H   0  0  0  0  0  0  0  0  0  0  0  0
   -0.0451    3.3046    1.9929 C   0  0  0  0  0  0  0  0  0  0  0  0
   -1.0415    3.5286    2.3805 H   0  0  0  0  0  0  0  0  0  0  0  0
    0.6954    3.5023    2.7695 H   0  0  0  0  0  0  0  0  0  0  0  0
    0.1474    3.9536    1.1372 H   0  0  0  0  0  0  0  0  0  0  0  0
  5  6  2  0  0  0  0
  5  7  1  0  0  0  0
  2  3  1  0  0  0  0
  2  4  1  0  0  0  0
  2  5  1  0  0  0  0
  1  2  1  0  0  0  0
 24 25  2  0  0  0  0
 24 26  1  0  0  0  0
 20 21  1  0  0  0  0
 20 22  1  0  0  0  0
 20 23  1  0  0  0  0
 16 17  1  0  0  0  0
 16 18  1  0  0  0  0
 16 19  1  0  0  0  0
 14 15  1  0  0  0  0
 14 16  1  0  0  0  0
 14 20  1  0  0  0  0
 11 12  1  0  0  0  0
 11 13  1  0  0  0  0
 11 14  1  0  0  0  0
  9 10  1  0  0  0  0
  9 11  1  0  0  0  0
  9 24  1  0  0  0  0
  7  8  1  0  0  0  0
  7  9  1  0  0  0  0
 28 29  1  0  0  0  0
 28 30  1  0  0  0  0
 28 31  1  0  0  0  0
 26 27  1  0  0  0  0
 26 28  1  0  0  0  0
M  END
$$$$
default_name
  -OEChem-02102213163D

 31 30  0     1  0  0  0  0  0999 V2000
   -3.5895   -3.5013    1.1082 H   0  0  0  0  0  0  0  0  0  0  0  0
   -3.5145   -2.5363    0.6082 C   0  0  0  0  0  0  0  0  0  0  0  0
   -4.2285   -1.8413    1.0452 H   0  0  0  0  0  0  0  0  0  0  0  0
   -3.7155   -2.6583   -0.4538 H   0  0  0  0  0  0  0  0  0  0  0  0
   -2.1155   -1.9963    0.7922 C   0  0  0  0  0  0  0  0  0  0  0  0
   -1.2875   -2.6383    1.4252 O   0  0  0  0  0  0  0  0  0  0  0  0
   -1.8575   -0.8123    0.2402 N   0  0  0  0  0  0  0  0  0  0  0  0
   -2.6005   -0.3333   -0.2478 H   0  0  0  0  0  0  0  0  0  0  0  0
   -0.5675   -0.1203    0.3102 C   0  0  1  0  0  0  0  0  0  0  0  0
    0.0191   -0.5718    1.1110 H   0  0  0  0  0  0  0  0  0  0  0  0
    0.1724   -0.3238   -1.0286 C   0  0  0  0  0  0  0  0  0  0  0  0
    0.1540    0.6162   -1.5835 H   0  0  0  0  0  0  0  0  0  0  0  0
    1.2161   -0.5558   -0.8054 H   0  0  0  0  0  0  0  0  0  0  0  0
   -0.3819   -1.4363   -1.9375 C   0  0  0  0  0  0  0  0  0  0  0  0
   -1.3183   -1.1097   -2.3898 H   0  0  0  0  0  0  0  0  0  0  0  0
    0.6003   -1.8203   -3.0479 C   0  0  0  0  0  0  0  0  0  0  0  0
    1.5492   -2.1344   -2.6110 H   0  0  0  0  0  0  0  0  0  0  0  0
    0.1885   -2.6419   -3.6344 H   0  0  0  0  0  0  0  0  0  0  0  0
    0.7770   -0.9776   -3.7128 H   0  0  0  0  0  0  0  0  0  0  0  0
   -0.6685   -2.6866   -1.1068 C   0  0  0  0  0  0  0  0  0  0  0  0
   -1.3913   -2.4504   -0.3260 H   0  0  0  0  0  0  0  0  0  0  0  0
   -1.0869   -3.4665   -1.7431 H   0  0  0  0  0  0  0  0  0  0  0  0
    0.2509   -3.0515   -0.6477 H   0  0  0  0  0  0  0  0  0  0  0  0
   -0.7793    1.3659    0.6455 C   0  0  0  0  0  0  0  0  0  0  0  0
   -1.6464    2.0125    0.0623 O   0  0  0  0  0  0  0  0  0  0  0  0
    0.0189    1.9059    1.5756 N   0  0  0  0  0  0  0  0  0  0  0  0
    0.7024    1.3094    2.0137 H   0  0  0  0  0  0  0  0  0  0  0  0
   -0.0451    3.3046    1.9929 C   0  0  0  0  0  0  0  0  0  0  0  0
   -1.0415    3.5286    2.3805 H   0  0  0  0  0  0  0  0  0  0  0  0
    0.6954    3.5023    2.7695 H   0  0  0  0  0  0  0  0  0  0  0  0
    0.1474    3.9536    1.1372 H   0  0  0  0  0  0  0  0  0  0  0  0
  5  6  2  0  0  0  0
  5  7  1  0  0  0  0
  2  3  1  0  0  0  0
  2  4  1  0  0  0  0
  2  5  1  0  0  0  0
  1  2  1  0  0  0  0
 24 25  2  0  0  0  0
 24 26  1  0  0  0  0
 20 21  1  0  0  0  0
 20 22  1  0  0  0  0
 20 23  1  0  0  0  0
 16 17  1  0  0  0  0
 16 18  1  0  0  0  0
 16 19  1  0  0  0  0
 14 15  1  0  0  0  0
 14 16  1  0  0  0  0
 14 20  1  0  0  0  0
 11 12  1  0  0  0  0
 11 13  1  0  0  0  0
 11 14  1  0  0  0  0
  9 10  1  0  0  0  0
  9 11  1  0  0  0  0
  9 24  1  0  0  0  0
  7  8  1  0  0  0  0
  7  9  1  0  0  0  0
 28 29  1  0  0  0  0
 28 30  1  0  0  0  0
 28 31  1  0  0  0  0
 26 27  1  0  0  0  0
 26 28  1  0  0  0  0
M  END
$$$$
default_name
  -OEChem-02102213163D

 31 30  0     1  0  0  0  0  0999 V2000
   -3.5895   -3.5013    1.1082 H   0  0  0  0  0  0  0  0  0  0  0  0
   -3.5145   -2.5363    0.6082 C   0  0  0  0  0  0  0  0  0  0  0  0
   -4.2285   -1.8413    1.0452 H   0  0  0  0  0  0  0  0  0  0  0  0
   -3.7155   -2.6583   -0.4538 H   0  0  0  0  0  0  0  0  0  0  0  0
   -2.1155   -1.9963    0.7922 C   0  0  0  0  0  0  0  0  0  0  0  0
   -1.2875   -2.6383    1.4252 O   0  0  0  0  0  0  0  0  0  0  0  0
   -1.8575   -0.8123    0.2402 N   0  0  0  0  0  0  0  0  0  0  0  0
   -2.6005   -0.3333   -0.2478 H   0  0  0  0  0  0  0  0  0  0  0  0
   -0.5675   -0.1203    0.3102 C   0  0  1  0  0  0  0  0  0  0  0  0
    0.0191   -0.5718    1.1110 H   0  0  0  0  0  0  0  0  0  0  0  0
    0.1724   -0.3238   -1.0286 C   0  0  0  0  0  0  0  0  0  0  0  0
    0.1540    0.6162   -1.5835 H   0  0  0  0  0  0  0  0  0  0  0  0
    1.2161   -0.5558   -0.8054 H   0  0  0  0  0  0  0  0  0  0  0  0
   -0.3819   -1.4363   -1.9375 C   0  0  0  0  0  0  0  0  0  0  0  0
   -1.1564   -1.0290   -2.5873 H   0  0  0  0  0  0  0  0  0  0  0  0
    0.7087   -2.0750   -2.8023 C   0  0  0  0  0  0  0  0  0  0  0  0
    1.5001   -2.4735   -2.1660 H   0  0  0  0  0  0  0  0  0  0  0  0
    0.2818   -2.8871   -3.3911 H   0  0  0  0  0  0  0  0  0  0  0  0
    1.1359   -1.3430   -3.4844 H   0  0  0  0  0  0  0  0  0  0  0  0
   -1.0114   -2.5356   -1.0826 C   0  0  0  0  0  0  0  0  0  0  0  0
   -1.8150   -2.1150   -0.4781 H   0  0  0  0  0  0  0  0  0  0  0  0
   -1.4291   -3.3110   -1.7247 H   0  0  0  0  0  0  0  0  0  0  0  0
   -0.2608   -2.9774   -0.4264 H   0  0  0  0  0  0  0  0  0  0  0  0
   -0.7793    1.3659    0.6455 C   0  0  0  0  0  0  0  0  0  0  0  0
   -1.6464    2.0125    0.0623 O   0  0  0  0  0  0  0  0  0  0  0  0
    0.0189    1.9059    1.5756 N   0  0  0  0  0  0  0  0  0  0  0  0
    0.7024    1.3094    2.0137 H   0  0  0  0  0  0  0  0  0  0  0  0
   -0.0451    3.3046    1.9929 C   0  0  0  0  0  0  0  0  0  0  0  0
   -1.0415    3.5286    2.3805 H   0  0  0  0  0  0  0  0  0  0  0  0
    0.6954    3.5023    2.7695 H   0  0  0  0  0  0  0  0  0  0  0  0
    0.1474    3.9536    1.1372 H   0  0  0  0  0  0  0  0  0  0  0  0
  5  6  2  0  0  0  0
  5  7  1  0  0  0  0
  2  3  1  0  0  0  0
  2  4  1  0  0  0  0
  2  5  1  0  0  0  0
  1  2  1  0  0  0  0
 24 25  2  0  0  0  0
 24 26  1  0  0  0  0
 20 21  1  0  0  0  0
 20 22  1  0  0  0  0
 20 23  1  0  0  0  0
 16 17  1  0  0  0  0
 16 18  1  0  0  0  0
 16 19  1  0  0  0  0
 14 15  1  0  0  0  0
 14 16  1  0  0  0  0
 14 20  1  0  0  0  0
 11 12  1  0  0  0  0
 11 13  1  0  0  0  0
 11 14  1  0  0  0  0
  9 10  1  0  0  0  0
  9 11  1  0  0  0  0
  9 24  1  0  0  0  0
  7  8  1  0  0  0  0
  7  9  1  0  0  0  0
 28 29  1  0  0  0  0
 28 30  1  0  0  0  0
 28 31  1  0  0  0  0
 26 27  1  0  0  0  0
 26 28  1  0  0  0  0
M  END
$$$$
default_name
  -OEChem-02102213163D

 31 30  0     1  0  0  0  0  0999 V2000
   -3.5895   -3.5013    1.1082 H   0  0  0  0  0  0  0  0  0  0  0  0
   -3.5145   -2.5363    0.6082 C   0  0  0  0  0  0  0  0  0  0  0  0
   -4.2285   -1.8413    1.0452 H   0  0  0  0  0  0  0  0  0  0  0  0
   -3.7155   -2.6583   -0.4538 H   0  0  0  0  0  0  0  0  0  0  0  0
   -2.1155   -1.9963    0.7922 C   0  0  0  0  0  0  0  0  0  0  0  0
   -1.2875   -2.6383    1.4252 O   0  0  0  0  0  0  0  0  0  0  0  0
   -1.8575   -0.8123    0.2402 N   0  0  0  0  0  0  0  0  0  0  0  0
   -2.6005   -0.3333   -0.2478 H   0  0  0  0  0  0  0  0  0  0  0  0
   -0.5675   -0.1203    0.3102 C   0  0  1  0  0  0  0  0  0  0  0  0
    0.0191   -0.5718    1.1110 H   0  0  0  0  0  0  0  0  0  0  0  0
    0.1724   -0.3238   -1.0286 C   0  0  0  0  0  0  0  0  0  0  0  0
    0.1540    0.6162   -1.5835 H   0  0  0  0  0  0  0  0  0  0  0  0
    1.2161   -0.5558   -0.8054 H   0  0  0  0  0  0  0  0  0  0  0  0
   -0.3819   -1.4363   -1.9375 C   0  0  0  0  0  0  0  0  0  0  0  0
   -0.9508   -0.9942   -2.7554 H   0  0  0  0  0  0  0  0  0  0  0  0
    0.7286   -2.3146   -2.5210 C   0  0  0  0  0  0  0  0  0  0  0  0
    1.3178   -2.7521   -1.7138 H   0  0  0  0  0  0  0  0  0  0  0  0
    0.2889   -3.1155   -3.1159 H   0  0  0  0  0  0  0  0  0  0  0  0
    1.3841   -1.7296   -3.1625 H   0  0  0  0  0  0  0  0  0  0  0  0
   -1.3241   -2.3350   -1.1375 C   0  0  0  0  0  0  0  0  0  0  0  0
   -2.1445   -1.7406   -0.7355 H   0  0  0  0  0  0  0  0  0  0  0  0
   -1.7393   -3.1069   -1.7854 H   0  0  0  0  0  0  0  0  0  0  0  0
   -0.7851   -2.8070   -0.3152 H   0  0  0  0  0  0  0  0  0  0  0  0
   -0.7793    1.3659    0.6455 C   0  0  0  0  0  0  0  0  0  0  0  0
   -1.6464    2.0125    0.0623 O   0  0  0  0  0  0  0  0  0  0  0  0
    0.0189    1.9059    1.5756 N   0  0  0  0  0  0  0  0  0  0  0  0
    0.7024    1.3094    2.0137 H   0  0  0  0  0  0  0  0  0  0  0  0
   -0.0451    3.3046    1.9929 C   0  0  0  0  0  0  0  0  0  0  0  0
   -1.0415    3.5286    2.3805 H   0  0  0  0  0  0  0  0  0  0  0  0
    0.6954    3.5023    2.7695 H   0  0  0  0  0  0  0  0  0  0  0  0
    0.1474    3.9536    1.1372 H   0  0  0  0  0  0  0  0  0  0  0  0
  5  6  2  0  0  0  0
  5  7  1  0  0  0  0
  2  3  1  0  0  0  0
  2  4  1  0  0  0  0
  2  5  1  0  0  0  0
  1  2  1  0  0  0  0
 24 25  2  0  0  0  0
 24 26  1  0  0  0  0
 20 21  1  0  0  0  0
 20 22  1  0  0  0  0
 20 23  1  0  0  0  0
 16 17  1  0  0  0  0
 16 18  1  0  0  0  0
 16 19  1  0  0  0  0
 14 15  1  0  0  0  0
 14 16  1  0  0  0  0
 14 20  1  0  0  0  0
 11 12  1  0  0  0  0
 11 13  1  0  0  0  0
 11 14  1  0  0  0  0
  9 10  1  0  0  0  0
  9 11  1  0  0  0  0
  9 24  1  0  0  0  0
  7  8  1  0  0  0  0
  7  9  1  0  0  0  0
 28 29  1  0  0  0  0
 28 30  1  0  0  0  0
 28 31  1  0  0  0  0
 26 27  1  0  0  0  0
 26 28  1  0  0  0  0
M  END
$$$$
default_name
  -OEChem-02102213163D

 31 30  0     1  0  0  0  0  0999 V2000
   -3.5895   -3.5013    1.1082 H   0  0  0  0  0  0  0  0  0  0  0  0
   -3.5145   -2.5363    0.6082 C   0  0  0  0  0  0  0  0  0  0  0  0
   -4.2285   -1.8413    1.0452 H   0  0  0  0  0  0  0  0  0  0  0  0
   -3.7155   -2.6583   -0.4538 H   0  0  0  0  0  0  0  0  0  0  0  0
   -2.1155   -1.9963    0.7922 C   0  0  0  0  0  0  0  0  0  0  0  0
   -1.2875   -2.6383    1.4252 O   0  0  0  0  0  0  0  0  0  0  0  0
   -1.8575   -0.8123    0.2402 N   0  0  0  0  0  0  0  0  0  0  0  0
   -2.6005   -0.3333   -0.2478 H   0  0  0  0  0  0  0  0  0  0  0  0
   -0.5675   -0.1203    0.3102 C   0  0  1  0  0  0  0  0  0  0  0  0
    0.0191   -0.5718    1.1110 H   0  0  0  0  0  0  0  0  0  0  0  0
    0.1724   -0.3238   -1.0286 C   0  0  0  0  0  0  0  0  0  0  0  0
    0.1540    0.6162   -1.5835 H   0  0  0  0  0  0  0  0  0  0  0  0
    1.2161   -0.5558   -0.8054 H   0  0  0  0  0  0  0  0  0  0  0  0
   -0.3819   -1.4363   -1.9375 C   0  0  0  0  0  0  0  0  0  0  0  0
   -0.7154   -1.0076   -2.8825 H   0  0  0  0  0  0  0  0  0  0  0  0
    0.6586   -2.5230   -2.2233 C   0  0  0  0  0  0  0  0  0  0  0  0
    1.0145   -2.9511   -1.2852 H   0  0  0  0  0  0  0  0  0  0  0  0
    0.2094   -3.3116   -2.8274 H   0  0  0  0  0  0  0  0  0  0  0  0
    1.5045   -2.1109   -2.7693 H   0  0  0  0  0  0  0  0  0  0  0  0
   -1.5852   -2.0986   -1.2676 C   0  0  0  0  0  0  0  0  0  0  0  0
   -2.3575   -1.3525   -1.0806 H   0  0  0  0  0  0  0  0  0  0  0  0
   -1.9964   -2.8680   -1.9211 H   0  0  0  0  0  0  0  0  0  0  0  0
   -1.2863   -2.5519   -0.3218 H   0  0  0  0  0  0  0  0  0  0  0  0
   -0.7793    1.3659    0.6455 C   0  0  0  0  0  0  0  0  0  0  0  0
   -1.6464    2.0125    0.0623 O   0  0  0  0  0  0  0  0  0  0  0  0
    0.0189    1.9059    1.5756 N   0  0  0  0  0  0  0  0  0  0  0  0
    0.7024    1.3094    2.0137 H   0  0  0  0  0  0  0  0  0  0  0  0
   -0.0451    3.3046    1.9929 C   0  0  0  0  0  0  0  0  0  0  0  0
   -1.0415    3.5286    2.3805 H   0  0  0  0  0  0  0  0  0  0  0  0
    0.6954    3.5023    2.7695 H   0  0  0  0  0  0  0  0  0  0  0  0
    0.1474    3.9536    1.1372 H   0  0  0  0  0  0  0  0  0  0  0  0
  5  6  2  0  0  0  0
  5  7  1  0  0  0  0
  2  3  1  0  0  0  0
  2  4  1  0  0  0  0
  2  5  1  0  0  0  0
  1  2  1  0  0  0  0
 24 25  2  0  0  0  0
 24 26  1  0  0  0  0
 20 21  1  0  0  0  0
 20 22  1  0  0  0  0
 20 23  1  0  0  0  0
 16 17  1  0  0  0  0
 16 18  1  0  0  0  0
 16 19  1  0  0  0  0
 14 15  1  0  0  0  0
 14 16  1  0  0  0  0
 14 20  1  0  0  0  0
 11 12  1  0  0  0  0
 11 13  1  0  0  0  0
 11 14  1  0  0  0  0
  9 10  1  0  0  0  0
  9 11  1  0  0  0  0
  9 24  1  0  0  0  0
  7  8  1  0  0  0  0
  7  9  1  0  0  0  0
 28 29  1  0  0  0  0
 28 30  1  0  0  0  0
 28 31  1  0  0  0  0
 26 27  1  0  0  0  0
 26 28  1  0  0  0  0
M  END
$$$$
default_name
  -OEChem-02102213163D

 31 30  0     1  0  0  0  0  0999 V2000
   -3.5895   -3.5013    1.1082 H   0  0  0  0  0  0  0  0  0  0  0  0
   -3.5145   -2.5363    0.6082 C   0  0  0  0  0  0  0  0  0  0  0  0
   -4.2285   -1.8413    1.0452 H   0  0  0  0  0  0  0  0  0  0  0  0
   -3.7155   -2.6583   -0.4538 H   0  0  0  0  0  0  0  0  0  0  0  0
   -2.1155   -1.9963    0.7922 C   0  0  0  0  0  0  0  0  0  0  0  0
   -1.2875   -2.6383    1.4252 O   0  0  0  0  0  0  0  0  0  0  0  0
   -1.8575   -0.8123    0.2402 N   0  0  0  0  0  0  0  0  0  0  0  0
   -2.6005   -0.3333   -0.2478 H   0  0  0  0  0  0  0  0  0  0  0  0
   -0.5675   -0.1203    0.3102 C   0  0  1  0  0  0  0  0  0  0  0  0
    0.0191   -0.5718    1.1110 H   0  0  0  0  0  0  0  0  0  0  0  0
    0.1724   -0.3238   -1.0286 C   0  0  0  0  0  0  0  0  0  0  0  0
    0.1540    0.6162   -1.5835 H   0  0  0  0  0  0  0  0  0  0  0  0
    1.2161   -0.5558   -0.8054 H   0  0  0  0  0  0  0  0  0  0  0  0
   -0.3819   -1.4363   -1.9375 C   0  0  0  0  0  0  0  0  0  0  0  0
   -0.4664   -1.0683   -2.9600 H   0  0  0  0  0  0  0  0  0  0  0  0
    0.5035   -2.6858   -1.9294 C   0  0  0  0  0  0  0  0  0  0  0  0
    0.6110   -3.0572   -0.9093 H   0  0  0  0  0  0  0  0  0  0  0  0
    0.0487   -3.4620   -2.5453 H   0  0  0  0  0  0  0  0  0  0  0  0
    1.4890   -2.4609   -2.3314 H   0  0  0  0  0  0  0  0  0  0  0  0
   -1.7770   -1.8425   -1.4641 C   0  0  0  0  0  0  0  0  0  0  0  0
   -2.4394   -0.9773   -1.4900 H   0  0  0  0  0  0  0  0  0  0  0  0
   -2.1829   -2.6105   -2.1225 H   0  0  0  0  0  0  0  0  0  0  0  0
   -1.7302   -2.2296   -0.4456 H   0  0  0  0  0  0  0  0  0  0  0  0
   -0.7793    1.3659    0.6455 C   0  0  0  0  0  0  0  0  0  0  0  0
   -1.6464    2.0125    0.0623 O   0  0  0  0  0  0  0  0  0  0  0  0
    0.0189    1.9059    1.5756 N   0  0  0  0  0  0  0  0  0  0  0  0
    0.7024    1.3094    2.0137 H   0  0  0  0  0  0  0  0  0  0  0  0
   -0.0451    3.3046    1.9929 C   0  0  0  0  0  0  0  0  0  0  0  0
   -1.0415    3.5286    2.3805 H   0  0  0  0  0  0  0  0  0  0  0  0
    0.6954    3.5023    2.7695 H   0  0  0  0  0  0  0  0  0  0  0  0
    0.1474    3.9536    1.1372 H   0  0  0  0  0  0  0  0  0  0  0  0
  5  6  2  0  0  0  0
  5  7  1  0  0  0  0
  2  3  1  0  0  0  0
  2  4  1  0  0  0  0
  2  5  1  0  0  0  0
  1  2  1  0  0  0  0
 24 25  2  0  0  0  0
 24 26  1  0  0  0  0
 20 21  1  0  0  0  0
 20 22  1  0  0  0  0
 20 23  1  0  0  0  0
 16 17  1  0  0  0  0
 16 18  1  0  0  0  0
 16 19  1  0  0  0  0
 14 15  1  0  0  0  0
 14 16  1  0  0  0  0
 14 20  1  0  0  0  0
 11 12  1  0  0  0  0
 11 13  1  0  0  0  0
 11 14  1  0  0  0  0
  9 10  1  0  0  0  0
  9 11  1  0  0  0  0
  9 24  1  0  0  0  0
  7  8  1  0  0  0  0
  7  9  1  0  0  0  0
 28 29  1  0  0  0  0
 28 30  1  0  0  0  0
 28 31  1  0  0  0  0
 26 27  1  0  0  0  0
 26 28  1  0  0  0  0
M  END
$$$$
default_name
  -OEChem-02102213163D

 31 30  0     1  0  0  0  0  0999 V2000
   -3.5895   -3.5013    1.1082 H   0  0  0  0  0  0  0  0  0  0  0  0
   -3.5145   -2.5363    0.6082 C   0  0  0  0  0  0  0  0  0  0  0  0
   -4.2285   -1.8413    1.0452 H   0  0  0  0  0  0  0  0  0  0  0  0
   -3.7155   -2.6583   -0.4538 H   0  0  0  0  0  0  0  0  0  0  0  0
   -2.1155   -1.9963    0.7922 C   0  0  0  0  0  0  0  0  0  0  0  0
   -1.2875   -2.6383    1.4252 O   0  0  0  0  0  0  0  0  0  0  0  0
   -1.8575   -0.8123    0.2402 N   0  0  0  0  0  0  0  0  0  0  0  0
   -2.6005   -0.3333   -0.2478 H   0  0  0  0  0  0  0  0  0  0  0  0
   -0.5675   -0.1203    0.3102 C   0  0  1  0  0  0  0  0  0  0  0  0
    0.0191   -0.5718    1.1110 H   0  0  0  0  0  0  0  0  0  0  0  0
    0.1724   -0.3238   -1.0286 C   0  0  0  0  0  0  0  0  0  0  0  0
    0.1540    0.6162   -1.5835 H   0  0  0  0  0  0  0  0  0  0  0  0
    1.2161   -0.5558   -0.8054 H   0  0  0  0  0  0  0  0  0  0  0  0
   -0.3819   -1.4363   -1.9375 C   0  0  0  0  0  0  0  0  0  0  0  0
   -0.2206   -1.1723   -2.9827 H   0  0  0  0  0  0  0  0  0  0  0  0
    0.2738   -2.7920   -1.6593 C   0  0  0  0  0  0  0  0  0  0  0  0
    0.1347   -3.0629   -0.6118 H   0  0  0  0  0  0  0  0  0  0  0  0
   -0.1822   -3.5564   -2.2888 H   0  0  0  0  0  0  0  0  0  0  0  0
    1.3387   -2.7559   -1.8786 H   0  0  0  0  0  0  0  0  0  0  0  0
   -1.8864   -1.5841   -1.7136 C   0  0  0  0  0  0  0  0  0  0  0  0
   -2.3846   -0.6405   -1.9356 H   0  0  0  0  0  0  0  0  0  0  0  0
   -2.2860   -2.3522   -2.3758 H   0  0  0  0  0  0  0  0  0  0  0  0
   -2.0866   -1.8620   -0.6782 H   0  0  0  0  0  0  0  0  0  0  0  0
   -0.7793    1.3659    0.6455 C   0  0  0  0  0  0  0  0  0  0  0  0
   -1.6464    2.0125    0.0623 O   0  0  0  0  0  0  0  0  0  0  0  0
    0.0189    1.9059    1.5756 N   0  0  0  0  0  0  0  0  0  0  0  0
    0.7024    1.3094    2.0137 H   0  0  0  0  0  0  0  0  0  0  0  0
   -0.0451    3.3046    1.9929 C   0  0  0  0  0  0  0  0  0  0  0  0
   -1.0415    3.5286    2.3805 H   0  0  0  0  0  0  0  0  0  0  0  0
    0.6954    3.5023    2.7695 H   0  0  0  0  0  0  0  0  0  0  0  0
    0.1474    3.9536    1.1372 H   0  0  0  0  0  0  0  0  0  0  0  0
  5  6  2  0  0  0  0
  5  7  1  0  0  0  0
  2  3  1  0  0  0  0
  2  4  1  0  0  0  0
  2  5  1  0  0  0  0
  1  2  1  0  0  0  0
 24 25  2  0  0  0  0
 24 26  1  0  0  0  0
 20 21  1  0  0  0  0
 20 22  1  0  0  0  0
 20 23  1  0  0  0  0
 16 17  1  0  0  0  0
 16 18  1  0  0  0  0
 16 19  1  0  0  0  0
 14 15  1  0  0  0  0
 14 16  1  0  0  0  0
 14 20  1  0  0  0  0
 11 12  1  0  0  0  0
 11 13  1  0  0  0  0
 11 14  1  0  0  0  0
  9 10  1  0  0  0  0
  9 11  1  0  0  0  0
  9 24  1  0  0  0  0
  7  8  1  0  0  0  0
  7  9  1  0  0  0  0
 28 29  1  0  0  0  0
 28 30  1  0  0  0  0
 28 31  1  0  0  0  0
 26 27  1  0  0  0  0
 26 28  1  0  0  0  0
M  END
$$$$
default_name
  -OEChem-02102213163D

 31 30  0     1  0  0  0  0  0999 V2000
   -3.5895   -3.5013    1.1082 H   0  0  0  0  0  0  0  0  0  0  0  0
   -3.5145   -2.5363    0.6082 C   0  0  0  0  0  0  0  0  0  0  0  0
   -4.2285   -1.8413    1.0452 H   0  0  0  0  0  0  0  0  0  0  0  0
   -3.7155   -2.6583   -0.4538 H   0  0  0  0  0  0  0  0  0  0  0  0
   -2.1155   -1.9963    0.7922 C   0  0  0  0  0  0  0  0  0  0  0  0
   -1.2875   -2.6383    1.4252 O   0  0  0  0  0  0  0  0  0  0  0  0
   -1.8575   -0.8123    0.2402 N   0  0  0  0  0  0  0  0  0  0  0  0
   -2.6005   -0.3333   -0.2478 H   0  0  0  0  0  0  0  0  0  0  0  0
   -0.5675   -0.1203    0.3102 C   0  0  1  0  0  0  0  0  0  0  0  0
    0.0191   -0.5718    1.1110 H   0  0  0  0  0  0  0  0  0  0  0  0
    0.1724   -0.3238   -1.0286 C   0  0  0  0  0  0  0  0  0  0  0  0
    0.1540    0.6162   -1.5835 H   0  0  0  0  0  0  0  0  0  0  0  0
    1.2161   -0.5558   -0.8054 H   0  0  0  0  0  0  0  0  0  0  0  0
   -0.3819   -1.4363   -1.9375 C   0  0  0  0  0  0  0  0  0  0  0  0
    0.0052   -1.3124   -2.9489 H   0  0  0  0  0  0  0  0  0  0  0  0
   -0.0147   -2.8343   -1.4315 C   0  0  0  0  0  0  0  0  0  0  0  0
   -0.3818   -2.9680   -0.4130 H   0  0  0  0  0  0  0  0  0  0  0  0
   -0.4677   -3.5885   -2.0755 H   0  0  0  0  0  0  0  0  0  0  0  0
    1.0638   -2.9757   -1.4420 H   0  0  0  0  0  0  0  0  0  0  0  0
   -1.9059   -1.3411   -1.9992 C   0  0  0  0  0  0  0  0  0  0  0  0
   -2.1969   -0.3650   -2.3873 H   0  0  0  0  0  0  0  0  0  0  0  0
   -2.2987   -2.1104   -2.6639 H   0  0  0  0  0  0  0  0  0  0  0  0
   -2.3312   -1.4741   -1.0038 H   0  0  0  0  0  0  0  0  0  0  0  0
   -0.7793    1.3659    0.6455 C   0  0  0  0  0  0  0  0  0  0  0  0
   -1.6464    2.0125    0.0623 O   0  0  0  0  0  0  0  0  0  0  0  0
    0.0189    1.9059    1.5756 N   0  0  0  0  0  0  0  0  0  0  0  0
    0.7024    1.3094    2.0137 H   0  0  0  0  0  0  0  0  0  0  0  0
   -0.0451    3.3046    1.9929 C   0  0  0  0  0  0  0  0  0  0  0  0
   -1.0415    3.5286    2.3805 H   0  0  0  0  0  0  0  0  0  0  0  0
    0.6954    3.5023    2.7695 H   0  0  0  0  0  0  0  0  0  0  0  0
    0.1474    3.9536    1.1372 H   0  0  0  0  0  0  0  0  0  0  0  0
  5  6  2  0  0  0  0
  5  7  1  0  0  0  0
  2  3  1  0  0  0  0
  2  4  1  0  0  0  0
  2  5  1  0  0  0  0
  1  2  1  0  0  0  0
 24 25  2  0  0  0  0
 24 26  1  0  0  0  0
 20 21  1  0  0  0  0
 20 22  1  0  0  0  0
 20 23  1  0  0  0  0
 16 17  1  0  0  0  0
 16 18  1  0  0  0  0
 16 19  1  0  0  0  0
 14 15  1  0  0  0  0
 14 16  1  0  0  0  0
 14 20  1  0  0  0  0
 11 12  1  0  0  0  0
 11 13  1  0  0  0  0
 11 14  1  0  0  0  0
  9 10  1  0  0  0  0
  9 11  1  0  0  0  0
  9 24  1  0  0  0  0
  7  8  1  0  0  0  0
  7  9  1  0  0  0  0
 28 29  1  0  0  0  0
 28 30  1  0  0  0  0
 28 31  1  0  0  0  0
 26 27  1  0  0  0  0
 26 28  1  0  0  0  0
M  END
$$$$
default_name
  -OEChem-02102213163D

 31 30  0     1  0  0  0  0  0999 V2000
   -3.5895   -3.5013    1.1082 H   0  0  0  0  0  0  0  0  0  0  0  0
   -3.5145   -2.5363    0.6082 C   0  0  0  0  0  0  0  0  0  0  0  0
   -4.2285   -1.8413    1.0452 H   0  0  0  0  0  0  0  0  0  0  0  0
   -3.7155   -2.6583   -0.4538 H   0  0  0  0  0  0  0  0  0  0  0  0
   -2.1155   -1.9963    0.7922 C   0  0  0  0  0  0  0  0  0  0  0  0
   -1.2875   -2.6383    1.4252 O   0  0  0  0  0  0  0  0  0  0  0  0
   -1.8575   -0.8123    0.2402 N   0  0  0  0  0  0  0  0  0  0  0  0
   -2.6005   -0.3333   -0.2478 H   0  0  0  0  0  0  0  0  0  0  0  0
   -0.5675   -0.1203    0.3102 C   0  0  1  0  0  0  0  0  0  0  0  0
    0.0191   -0.5718    1.1110 H   0  0  0  0  0  0  0  0  0  0  0  0
    0.1724   -0.3238   -1.0286 C   0  0  0  0  0  0  0  0  0  0  0  0
    0.1540    0.6162   -1.5835 H   0  0  0  0  0  0  0  0  0  0  0  0
    1.2161   -0.5558   -0.8054 H   0  0  0  0  0  0  0  0  0  0  0  0
   -0.3819   -1.4363   -1.9375 C   0  0  0  0  0  0  0  0  0  0  0  0
    0.1955   -1.4790   -2.8610 H   0  0  0  0  0  0  0  0  0  0  0  0
   -0.3426   -2.8099   -1.2615 C   0  0  0  0  0  0  0  0  0  0  0  0
   -0.9034   -2.7789   -0.3264 H   0  0  0  0  0  0  0  0  0  0  0  0
   -0.7882   -3.5560   -1.9199 H   0  0  0  0  0  0  0  0  0  0  0  0
    0.6831   -3.1053   -1.0511 H   0  0  0  0  0  0  0  0  0  0  0  0
   -1.8342   -1.1300   -2.3013 C   0  0  0  0  0  0  0  0  0  0  0  0
   -1.8890   -0.1697   -2.8140 H   0  0  0  0  0  0  0  0  0  0  0  0
   -2.2203   -1.9018   -2.9671 H   0  0  0  0  0  0  0  0  0  0  0  0
   -2.4473   -1.0924   -1.4002 H   0  0  0  0  0  0  0  0  0  0  0  0
   -0.7793    1.3659    0.6455 C   0  0  0  0  0  0  0  0  0  0  0  0
   -1.6464    2.0125    0.0623 O   0  0  0  0  0  0  0  0  0  0  0  0
    0.0189    1.9059    1.5756 N   0  0  0  0  0  0  0  0  0  0  0  0
    0.7024    1.3094    2.0137 H   0  0  0  0  0  0  0  0  0  0  0  0
   -0.0451    3.3046    1.9929 C   0  0  0  0  0  0  0  0  0  0  0  0
   -1.0415    3.5286    2.3805 H   0  0  0  0  0  0  0  0  0  0  0  0
    0.6954    3.5023    2.7695 H   0  0  0  0  0  0  0  0  0  0  0  0
    0.1474    3.9536    1.1372 H   0  0  0  0  0  0  0  0  0  0  0  0
  5  6  2  0  0  0  0
  5  7  1  0  0  0  0
  2  3  1  0  0  0  0
  2  4  1  0  0  0  0
  2  5  1  0  0  0  0
  1  2  1  0  0  0  0
 24 25  2  0  0  0  0
 24 26  1  0  0  0  0
 20 21  1  0  0  0  0
 20 22  1  0  0  0  0
 20 23  1  0  0  0  0
 16 17  1  0  0  0  0
 16 18  1  0  0  0  0
 16 19  1  0  0  0  0
 14 15  1  0  0  0  0
 14 16  1  0  0  0  0
 14 20  1  0  0  0  0
 11 12  1  0  0  0  0
 11 13  1  0  0  0  0
 11 14  1  0  0  0  0
  9 10  1  0  0  0  0
  9 11  1  0  0  0  0
  9 24  1  0  0  0  0
  7  8  1  0  0  0  0
  7  9  1  0  0  0  0
 28 29  1  0  0  0  0
 28 30  1  0  0  0  0
 28 31  1  0  0  0  0
 26 27  1  0  0  0  0
 26 28  1  0  0  0  0
M  END
$$$$
default_name
  -OEChem-02102213163D

 31 30  0     1  0  0  0  0  0999 V2000
   -3.5895   -3.5013    1.1082 H   0  0  0  0  0  0  0  0  0  0  0  0
   -3.5145   -2.5363    0.6082 C   0  0  0  0  0  0  0  0  0  0  0  0
   -4.2285   -1.8413    1.0452 H   0  0  0  0  0  0  0  0  0  0  0  0
   -3.7155   -2.6583   -0.4538 H   0  0  0  0  0  0  0  0  0  0  0  0
   -2.1155   -1.9963    0.7922 C   0  0  0  0  0  0  0  0  0  0  0  0
   -1.2875   -2.6383    1.4252 O   0  0  0  0  0  0  0  0  0  0  0  0
   -1.8575   -0.8123    0.2402 N   0  0  0  0  0  0  0  0  0  0  0  0
   -2.6005   -0.3333   -0.2478 H   0  0  0  0  0  0  0  0  0  0  0  0
   -0.5675   -0.1203    0.3102 C   0  0  1  0  0  0  0  0  0  0  0  0
    0.0191   -0.5718    1.1110 H   0  0  0  0  0  0  0  0  0  0  0  0
    0.1724   -0.3238   -1.0286 C   0  0  0  0  0  0  0  0  0  0  0  0
    0.1540    0.6162   -1.5835 H   0  0  0  0  0  0  0  0  0  0  0  0
    1.2161   -0.5558   -0.8054 H   0  0  0  0  0  0  0  0  0  0  0  0
   -0.3819   -1.4363   -1.9375 C   0  0  0  0  0  0  0  0  0  0  0  0
    0.3375   -1.6609   -2.7250 H   0  0  0  0  0  0  0  0  0  0  0  0
   -0.6872   -2.7204   -1.1609 C   0  0  0  0  0  0  0  0  0  0  0  0
   -1.3945   -2.5084   -0.3579 H   0  0  0  0  0  0  0  0  0  0  0  0
   -1.1219   -3.4611   -1.8325 H   0  0  0  0  0  0  0  0  0  0  0  0
    0.2224   -3.1359   -0.7327 H   0  0  0  0  0  0  0  0  0  0  0  0
   -1.6762   -0.9652   -2.5994 C   0  0  0  0  0  0  0  0  0  0  0  0
   -1.4821   -0.0679   -3.1869 H   0  0  0  0  0  0  0  0  0  0  0  0
   -2.0559   -1.7406   -3.2647 H   0  0  0  0  0  0  0  0  0  0  0  0
   -2.4270   -0.7429   -1.8404 H   0  0  0  0  0  0  0  0  0  0  0  0
   -0.7793    1.3659    0.6455 C   0  0  0  0  0  0  0  0  0  0  0  0
   -1.6464    2.0125    0.0623 O   0  0  0  0  0  0  0  0  0  0  0  0
    0.0189    1.9059    1.5756 N   0  0  0  0  0  0  0  0  0  0  0  0
    0.7024    1.3094    2.0137 H   0  0  0  0  0  0  0  0  0  0  0  0
   -0.0451    3.3046    1.9929 C   0  0  0  0  0  0  0  0  0  0  0  0
   -1.0415    3.5286    2.3805 H   0  0  0  0  0  0  0  0  0  0  0  0
    0.6954    3.5023    2.7695 H   0  0  0  0  0  0  0  0  0  0  0  0
    0.1474    3.9536    1.1372 H   0  0  0  0  0  0  0  0  0  0  0  0
  5  6  2  0  0  0  0
  5  7  1  0  0  0  0
  2  3  1  0  0  0  0
  2  4  1  0  0  0  0
  2  5  1  0  0  0  0
  1  2  1  0  0  0  0
 24 25  2  0  0  0  0
 24 26  1  0  0  0  0
 20 21  1  0  0  0  0
 20 22  1  0  0  0  0
 20 23  1  0  0  0  0
 16 17  1  0  0  0  0
 16 18  1  0  0  0  0
 16 19  1  0  0  0  0
 14 15  1  0  0  0  0
 14 16  1  0  0  0  0
 14 20  1  0  0  0  0
 11 12  1  0  0  0  0
 11 13  1  0  0  0  0
 11 14  1  0  0  0  0
  9 10  1  0  0  0  0
  9 11  1  0  0  0  0
  9 24  1  0  0  0  0
  7  8  1  0  0  0  0
  7  9  1  0  0  0  0
 28 29  1  0  0  0  0
 28 30  1  0  0  0  0
 28 31  1  0  0  0  0
 26 27  1  0  0  0  0
 26 28  1  0  0  0  0
M  END
$$$$
default_name
  -OEChem-02102213163D

 31 30  0     1  0  0  0  0  0999 V2000
   -3.5895   -3.5013    1.1082 H   0  0  0  0  0  0  0  0  0  0  0  0
   -3.5145   -2.5363    0.6082 C   0  0  0  0  0  0  0  0  0  0  0  0
   -4.2285   -1.8413    1.0452 H   0  0  0  0  0  0  0  0  0  0  0  0
   -3.7155   -2.6583   -0.4538 H   0  0  0  0  0  0  0  0  0  0  0  0
   -2.1155   -1.9963    0.7922 C   0  0  0  0  0  0  0  0  0  0  0  0
   -1.2875   -2.6383    1.4252 O   0  0  0  0  0  0  0  0  0  0  0  0
   -1.8575   -0.8123    0.2402 N   0  0  0  0  0  0  0  0  0  0  0  0
   -2.6005   -0.3333   -0.2478 H   0  0  0  0  0  0  0  0  0  0  0  0
   -0.5675   -0.1203    0.3102 C   0  0  1  0  0  0  0  0  0  0  0  0
    0.0191   -0.5718    1.1110 H   0  0  0  0  0  0  0  0  0  0  0  0
    0.1724   -0.3238   -1.0286 C   0  0  0  0  0  0  0  0  0  0  0  0
    0.1540    0.6162   -1.5835 H   0  0  0  0  0  0  0  0  0  0  0  0
    1.2161   -0.5558   -0.8054 H   0  0  0  0  0  0  0  0  0  0  0  0
   -0.3819   -1.4363   -1.9375 C   0  0  0  0  0  0  0  0  0  0  0  0
    0.4214   -1.8456   -2.5501 H   0  0  0  0  0  0  0  0  0  0  0  0
   -1.0253   -2.5719   -1.1364 C   0  0  0  0  0  0  0  0  0  0  0  0
   -1.8217   -2.1751   -0.5054 H   0  0  0  0  0  0  0  0  0  0  0  0
   -1.4461   -3.3103   -1.8194 H   0  0  0  0  0  0  0  0  0  0  0  0
   -0.2868   -3.0654   -0.5084 H   0  0  0  0  0  0  0  0  0  0  0  0
   -1.4427   -0.8579   -2.8732 C   0  0  0  0  0  0  0  0  0  0  0  0
   -1.0036   -0.0664   -3.4805 H   0  0  0  0  0  0  0  0  0  0  0  0
   -1.8168   -1.6377   -3.5365 H   0  0  0  0  0  0  0  0  0  0  0  0
   -2.2718   -0.4494   -2.2943 H   0  0  0  0  0  0  0  0  0  0  0  0
   -0.7793    1.3659    0.6455 C   0  0  0  0  0  0  0  0  0  0  0  0
   -1.6464    2.0125    0.0623 O   0  0  0  0  0  0  0  0  0  0  0  0
    0.0189    1.9059    1.5756 N   0  0  0  0  0  0  0  0  0  0  0  0
    0.7024    1.3094    2.0137 H   0  0  0  0  0  0  0  0  0  0  0  0
   -0.0451    3.3046    1.9929 C   0  0  0  0  0  0  0  0  0  0  0  0
   -1.0415    3.5286    2.3805 H   0  0  0  0  0  0  0  0  0  0  0  0
    0.6954    3.5023    2.7695 H   0  0  0  0  0  0  0  0  0  0  0  0
    0.1474    3.9536    1.1372 H   0  0  0  0  0  0  0  0  0  0  0  0
  5  6  2  0  0  0  0
  5  7  1  0  0  0  0
  2  3  1  0  0  0  0
  2  4  1  0  0  0  0
  2  5  1  0  0  0  0
  1  2  1  0  0  0  0
 24 25  2  0  0  0  0
 24 26  1  0  0  0  0
 20 21  1  0  0  0  0
 20 22  1  0  0  0  0
 20 23  1  0  0  0  0
 16 17  1  0  0  0  0
 16 18  1  0  0  0  0
 16 19  1  0  0  0  0
 14 15  1  0  0  0  0
 14 16  1  0  0  0  0
 14 20  1  0  0  0  0
 11 12  1  0  0  0  0
 11 13  1  0  0  0  0
 11 14  1  0  0  0  0
  9 10  1  0  0  0  0
  9 11  1  0  0  0  0
  9 24  1  0  0  0  0
  7  8  1  0  0  0  0
  7  9  1  0  0  0  0
 28 29  1  0  0  0  0
 28 30  1  0  0  0  0
 28 31  1  0  0  0  0
 26 27  1  0  0  0  0
 26 28  1  0  0  0  0
M  END
$$$$
default_name
  -OEChem-02102213163D

 31 30  0     1  0  0  0  0  0999 V2000
   -3.5895   -3.5013    1.1082 H   0  0  0  0  0  0  0  0  0  0  0  0
   -3.5145   -2.5363    0.6082 C   0  0  0  0  0  0  0  0  0  0  0  0
   -4.2285   -1.8413    1.0452 H   0  0  0  0  0  0  0  0  0  0  0  0
   -3.7155   -2.6583   -0.4538 H   0  0  0  0  0  0  0  0  0  0  0  0
   -2.1155   -1.9963    0.7922 C   0  0  0  0  0  0  0  0  0  0  0  0
   -1.2875   -2.6383    1.4252 O   0  0  0  0  0  0  0  0  0  0  0  0
   -1.8575   -0.8123    0.2402 N   0  0  0  0  0  0  0  0  0  0  0  0
   -2.6005   -0.3333   -0.2478 H   0  0  0  0  0  0  0  0  0  0  0  0
   -0.5675   -0.1203    0.3102 C   0  0  1  0  0  0  0  0  0  0  0  0
    0.0191   -0.5718    1.1110 H   0  0  0  0  0  0  0  0  0  0  0  0
    0.1724   -0.3238   -1.0286 C   0  0  0  0  0  0  0  0  0  0  0  0
    0.1540    0.6162   -1.5835 H   0  0  0  0  0  0  0  0  0  0  0  0
    1.2161   -0.5558   -0.8054 H   0  0  0  0  0  0  0  0  0  0  0  0
   -0.3819   -1.4363   -1.9375 C   0  0  0  0  0  0  0  0  0  0  0  0
    0.4416   -2.0205   -2.3482 H   0  0  0  0  0  0  0  0  0  0  0  0
   -1.3338   -2.3745   -1.1899 C   0  0  0  0  0  0  0  0  0  0  0  0
   -2.1559   -1.8017   -0.7587 H   0  0  0  0  0  0  0  0  0  0  0  0
   -1.7386   -3.1139   -1.8813 H   0  0  0  0  0  0  0  0  0  0  0  0
   -0.8098   -2.8987   -0.3935 H   0  0  0  0  0  0  0  0  0  0  0  0
   -1.1495   -0.8154   -3.1039 C   0  0  0  0  0  0  0  0  0  0  0  0
   -0.4864   -0.1654   -3.6747 H   0  0  0  0  0  0  0  0  0  0  0  0
   -1.5194   -1.6001   -3.7639 H   0  0  0  0  0  0  0  0  0  0  0  0
   -1.9921   -0.2320   -2.7311 H   0  0  0  0  0  0  0  0  0  0  0  0
   -0.7793    1.3659    0.6455 C   0  0  0  0  0  0  0  0  0  0  0  0
   -1.6464    2.0125    0.0623 O   0  0  0  0  0  0  0  0  0  0  0  0
    0.0189    1.9059    1.5756 N   0  0  0  0  0  0  0  0  0  0  0  0
    0.7024    1.3094    2.0137 H   0  0  0  0  0  0  0  0  0  0  0  0
   -0.0451    3.3046    1.9929 C   0  0  0  0  0  0  0  0  0  0  0  0
   -1.0415    3.5286    2.3805 H   0  0  0  0  0  0  0  0  0  0  0  0
    0.6954    3.5023    2.7695 H   0  0  0  0  0  0  0  0  0  0  0  0
    0.1474    3.9536    1.1372 H   0  0  0  0  0  0  0  0  0  0  0  0
  5  6  2  0  0  0  0
  5  7  1  0  0  0  0
  2  3  1  0  0  0  0
  2  4  1  0  0  0  0
  2  5  1  0  0  0  0
  1  2  1  0  0  0  0
 24 25  2  0  0  0  0
 24 26  1  0  0  0  0
 20 21  1  0  0  0  0
 20 22  1  0  0  0  0
 20 23  1  0  0  0  0
 16 17  1  0  0  0  0
 16 18  1  0  0  0  0
 16 19  1  0  0  0  0
 14 15  1  0  0  0  0
 14 16  1  0  0  0  0
 14 20  1  0  0  0  0
 11 12  1  0  0  0  0
 11 13  1  0  0  0  0
 11 14  1  0  0  0  0
  9 10  1  0  0  0  0
  9 11  1  0  0  0  0
  9 24  1  0  0  0  0
  7  8  1  0  0  0  0
  7  9  1  0  0  0  0
 28 29  1  0  0  0  0
 28 30  1  0  0  0  0
 28 31  1  0  0  0  0
 26 27  1  0  0  0  0
 26 28  1  0  0  0  0
M  END
$$$$
default_name
  -OEChem-02102213163D

 31 30  0     1  0  0  0  0  0999 V2000
   -3.5895   -3.5013    1.1082 H   0  0  0  0  0  0  0  0  0  0  0  0
   -3.5145   -2.5363    0.6082 C   0  0  0  0  0  0  0  0  0  0  0  0
   -4.2285   -1.8413    1.0452 H   0  0  0  0  0  0  0  0  0  0  0  0
   -3.7155   -2.6583   -0.4538 H   0  0  0  0  0  0  0  0  0  0  0  0
   -2.1155   -1.9963    0.7922 C   0  0  0  0  0  0  0  0  0  0  0  0
   -1.2875   -2.6383    1.4252 O   0  0  0  0  0  0  0  0  0  0  0  0
   -1.8575   -0.8123    0.2402 N   0  0  0  0  0  0  0  0  0  0  0  0
   -2.6005   -0.3333   -0.2478 H   0  0  0  0  0  0  0  0  0  0  0  0
   -0.5675   -0.1203    0.3102 C   0  0  1  0  0  0  0  0  0  0  0  0
    0.0191   -0.5718    1.1110 H   0  0  0  0  0  0  0  0  0  0  0  0
    0.1724   -0.3238   -1.0286 C   0  0  0  0  0  0  0  0  0  0  0  0
    0.1540    0.6162   -1.5835 H   0  0  0  0  0  0  0  0  0  0  0  0
    1.2161   -0.5558   -0.8054 H   0  0  0  0  0  0  0  0  0  0  0  0
   -0.3819   -1.4363   -1.9375 C   0  0  0  0  0  0  0  0  0  0  0  0
    0.3966   -2.1737   -2.1332 H   0  0  0  0  0  0  0  0  0  0  0  0
   -1.5916   -2.1418   -1.3176 C   0  0  0  0  0  0  0  0  0  0  0  0
   -2.3742   -1.4135   -1.1007 H   0  0  0  0  0  0  0  0  0  0  0  0
   -1.9796   -2.8853   -2.0142 H   0  0  0  0  0  0  0  0  0  0  0  0
   -1.3110   -2.6470   -0.3960 H   0  0  0  0  0  0  0  0  0  0  0  0
   -0.8167   -0.8407   -3.2760 C   0  0  0  0  0  0  0  0  0  0  0  0
    0.0344   -0.3582   -3.7564 H   0  0  0  0  0  0  0  0  0  0  0  0
   -1.1838   -1.6305   -3.9314 H   0  0  0  0  0  0  0  0  0  0  0  0
   -1.6070   -0.1053   -3.1209 H   0  0  0  0  0  0  0  0  0  0  0  0
   -0.7793    1.3659    0.6455 C   0  0  0  0  0  0  0  0  0  0  0  0
   -1.6464    2.0125    0.0623 O   0  0  0  0  0  0  0  0  0  0  0  0
    0.0189    1.9059    1.5756 N   0  0  0  0  0  0  0  0  0  0  0  0
    0.7024    1.3094    2.0137 H   0  0  0  0  0  0  0  0  0  0  0  0
   -0.0451    3.3046    1.9929 C   0  0  0  0  0  0  0  0  0  0  0  0
   -1.0415    3.5286    2.3805 H   0  0  0  0  0  0  0  0  0  0  0  0
    0.6954    3.5023    2.7695 H   0  0  0  0  0  0  0  0  0  0  0  0
    0.1474    3.9536    1.1372 H   0  0  0  0  0  0  0  0  0  0  0  0
  5  6  2  0  0  0  0
  5  7  1  0  0  0  0
  2  3  1  0  0  0  0
  2  4  1  0  0  0  0
  2  5  1  0  0  0  0
  1  2  1  0  0  0  0
 24 25  2  0  0  0  0
 24 26  1  0  0  0  0
 20 21  1  0  0  0  0
 20 22  1  0  0  0  0
 20 23  1  0  0  0  0
 16 17  1  0  0  0  0
 16 18  1  0  0  0  0
 16 19  1  0  0  0  0
 14 15  1  0  0  0  0
 14 16  1  0  0  0  0
 14 20  1  0  0  0  0
 11 12  1  0  0  0  0
 11 13  1  0  0  0  0
 11 14  1  0  0  0  0
  9 10  1  0  0  0  0
  9 11  1  0  0  0  0
  9 24  1  0  0  0  0
  7  8  1  0  0  0  0
  7  9  1  0  0  0  0
 28 29  1  0  0  0  0
 28 30  1  0  0  0  0
 28 31  1  0  0  0  0
 26 27  1  0  0  0  0
 26 28  1  0  0  0  0
M  END
$$$$
default_name
  -OEChem-02102213163D

 31 30  0     1  0  0  0  0  0999 V2000
   -3.5895   -3.5013    1.1082 H   0  0  0  0  0  0  0  0  0  0  0  0
   -3.5145   -2.5363    0.6082 C   0  0  0  0  0  0  0  0  0  0  0  0
   -4.2285   -1.8413    1.0452 H   0  0  0  0  0  0  0  0  0  0  0  0
   -3.7155   -2.6583   -0.4538 H   0  0  0  0  0  0  0  0  0  0  0  0
   -2.1155   -1.9963    0.7922 C   0  0  0  0  0  0  0  0  0  0  0  0
   -1.2875   -2.6383    1.4252 O   0  0  0  0  0  0  0  0  0  0  0  0
   -1.8575   -0.8123    0.2402 N   0  0  0  0  0  0  0  0  0  0  0  0
   -2.6005   -0.3333   -0.2478 H   0  0  0  0  0  0  0  0  0  0  0  0
   -0.5675   -0.1203    0.3102 C   0  0  1  0  0  0  0  0  0  0  0  0
    0.0191   -0.5718    1.1110 H   0  0  0  0  0  0  0  0  0  0  0  0
    0.1724   -0.3238   -1.0286 C   0  0  0  0  0  0  0  0  0  0  0  0
    0.1540    0.6162   -1.5835 H   0  0  0  0  0  0  0  0  0  0  0  0
    1.2161   -0.5558   -0.8054 H   0  0  0  0  0  0  0  0  0  0  0  0
   -0.3819   -1.4363   -1.9375 C   0  0  0  0  0  0  0  0  0  0  0  0
    0.2895   -2.2948   -1.9197 H   0  0  0  0  0  0  0  0  0  0  0  0
   -1.7812   -1.8894   -1.5109 C   0  0  0  0  0  0  0  0  0  0  0  0
   -2.4618   -1.0370   -1.5081 H   0  0  0  0  0  0  0  0  0  0  0  0
   -2.1527   -2.6400   -2.2089 H   0  0  0  0  0  0  0  0  0  0  0  0
   -1.7563   -2.3275   -0.5155 H   0  0  0  0  0  0  0  0  0  0  0  0
   -0.4669   -0.9320   -3.3775 C   0  0  0  0  0  0  0  0  0  0  0  0
    0.5233   -0.6315   -3.7199 H   0  0  0  0  0  0  0  0  0  0  0  0
   -0.8330   -1.7266   -4.0276 H   0  0  0  0  0  0  0  0  0  0  0  0
   -1.1428   -0.0782   -3.4373 H   0  0  0  0  0  0  0  0  0  0  0  0
   -0.7793    1.3659    0.6455 C   0  0  0  0  0  0  0  0  0  0  0  0
   -1.6464    2.0125    0.0623 O   0  0  0  0  0  0  0  0  0  0  0  0
    0.0189    1.9059    1.5756 N   0  0  0  0  0  0  0  0  0  0  0  0
    0.7024    1.3094    2.0137 H   0  0  0  0  0  0  0  0  0  0  0  0
   -0.0451    3.3046    1.9929 C   0  0  0  0  0  0  0  0  0  0  0  0
   -1.0415    3.5286    2.3805 H   0  0  0  0  0  0  0  0  0  0  0  0
    0.6954    3.5023    2.7695 H   0  0  0  0  0  0  0  0  0  0  0  0
    0.1474    3.9536    1.1372 H   0  0  0  0  0  0  0  0  0  0  0  0
  5  6  2  0  0  0  0
  5  7  1  0  0  0  0
  2  3  1  0  0  0  0
  2  4  1  0  0  0  0
  2  5  1  0  0  0  0
  1  2  1  0  0  0  0
 24 25  2  0  0  0  0
 24 26  1  0  0  0  0
 20 21  1  0  0  0  0
 20 22  1  0  0  0  0
 20 23  1  0  0  0  0
 16 17  1  0  0  0  0
 16 18  1  0  0  0  0
 16 19  1  0  0  0  0
 14 15  1  0  0  0  0
 14 16  1  0  0  0  0
 14 20  1  0  0  0  0
 11 12  1  0  0  0  0
 11 13  1  0  0  0  0
 11 14  1  0  0  0  0
  9 10  1  0  0  0  0
  9 11  1  0  0  0  0
  9 24  1  0  0  0  0
  7  8  1  0  0  0  0
  7  9  1  0  0  0  0
 28 29  1  0  0  0  0
 28 30  1  0  0  0  0
 28 31  1  0  0  0  0
 26 27  1  0  0  0  0
 26 28  1  0  0  0  0
M  END
$$$$
default_name
  -OEChem-02102213163D

 31 30  0     1  0  0  0  0  0999 V2000
   -3.5895   -3.5013    1.1082 H   0  0  0  0  0  0  0  0  0  0  0  0
   -3.5145   -2.5363    0.6082 C   0  0  0  0  0  0  0  0  0  0  0  0
   -4.2285   -1.8413    1.0452 H   0  0  0  0  0  0  0  0  0  0  0  0
   -3.7155   -2.6583   -0.4538 H   0  0  0  0  0  0  0  0  0  0  0  0
   -2.1155   -1.9963    0.7922 C   0  0  0  0  0  0  0  0  0  0  0  0
   -1.2875   -2.6383    1.4252 O   0  0  0  0  0  0  0  0  0  0  0  0
   -1.8575   -0.8123    0.2402 N   0  0  0  0  0  0  0  0  0  0  0  0
   -2.6005   -0.3333   -0.2478 H   0  0  0  0  0  0  0  0  0  0  0  0
   -0.5675   -0.1203    0.3102 C   0  0  1  0  0  0  0  0  0  0  0  0
    0.0191   -0.5718    1.1110 H   0  0  0  0  0  0  0  0  0  0  0  0
    0.1724   -0.3238   -1.0286 C   0  0  0  0  0  0  0  0  0  0  0  0
    0.1540    0.6162   -1.5835 H   0  0  0  0  0  0  0  0  0  0  0  0
    1.2161   -0.5558   -0.8054 H   0  0  0  0  0  0  0  0  0  0  0  0
   -0.3819   -1.4363   -1.9375 C   0  0  0  0  0  0  0  0  0  0  0  0
    0.1276   -2.3755   -1.7222 H   0  0  0  0  0  0  0  0  0  0  0  0
   -1.8896   -1.6347   -1.7565 C   0  0  0  0  0  0  0  0  0  0  0  0
   -2.4128   -0.6980   -1.9530 H   0  0  0  0  0  0  0  0  0  0  0  0
   -2.2459   -2.3948   -2.4521 H   0  0  0  0  0  0  0  0  0  0  0  0
   -2.1152   -1.9621   -0.7439 H   0  0  0  0  0  0  0  0  0  0  0  0
   -0.1240   -1.0831   -3.4017 C   0  0  0  0  0  0  0  0  0  0  0  0
    0.9469   -0.9669   -3.5678 H   0  0  0  0  0  0  0  0  0  0  0  0
   -0.4908   -1.8821   -4.0460 H   0  0  0  0  0  0  0  0  0  0  0  0
   -0.6311   -0.1523   -3.6586 H   0  0  0  0  0  0  0  0  0  0  0  0
   -0.7793    1.3659    0.6455 C   0  0  0  0  0  0  0  0  0  0  0  0
   -1.6464    2.0125    0.0623 O   0  0  0  0  0  0  0  0  0  0  0  0
    0.0189    1.9059    1.5756 N   0  0  0  0  0  0  0  0  0  0  0  0
    0.7024    1.3094    2.0137 H   0  0  0  0  0  0  0  0  0  0  0  0
   -0.0451    3.3046    1.9929 C   0  0  0  0  0  0  0  0  0  0  0  0
   -1.0415    3.5286    2.3805 H   0  0  0  0  0  0  0  0  0  0  0  0
    0.6954    3.5023    2.7695 H   0  0  0  0  0  0  0  0  0  0  0  0
    0.1474    3.9536    1.1372 H   0  0  0  0  0  0  0  0  0  0  0  0
  5  6  2  0  0  0  0
  5  7  1  0  0  0  0
  2  3  1  0  0  0  0
  2  4  1  0  0  0  0
  2  5  1  0  0  0  0
  1  2  1  0  0  0  0
 24 25  2  0  0  0  0
 24 26  1  0  0  0  0
 20 21  1  0  0  0  0
 20 22  1  0  0  0  0
 20 23  1  0  0  0  0
 16 17  1  0  0  0  0
 16 18  1  0  0  0  0
 16 19  1  0  0  0  0
 14 15  1  0  0  0  0
 14 16  1  0  0  0  0
 14 20  1  0  0  0  0
 11 12  1  0  0  0  0
 11 13  1  0  0  0  0
 11 14  1  0  0  0  0
  9 10  1  0  0  0  0
  9 11  1  0  0  0  0
  9 24  1  0  0  0  0
  7  8  1  0  0  0  0
  7  9  1  0  0  0  0
 28 29  1  0  0  0  0
 28 30  1  0  0  0  0
 28 31  1  0  0  0  0
 26 27  1  0  0  0  0
 26 28  1  0  0  0  0
M  END
$$$$
default_name
  -OEChem-02102213163D

 31 30  0     1  0  0  0  0  0999 V2000
   -3.5895   -3.5013    1.1082 H   0  0  0  0  0  0  0  0  0  0  0  0
   -3.5145   -2.5363    0.6082 C   0  0  0  0  0  0  0  0  0  0  0  0
   -4.2285   -1.8413    1.0452 H   0  0  0  0  0  0  0  0  0  0  0  0
   -3.7155   -2.6583   -0.4538 H   0  0  0  0  0  0  0  0  0  0  0  0
   -2.1155   -1.9963    0.7922 C   0  0  0  0  0  0  0  0  0  0  0  0
   -1.2875   -2.6383    1.4252 O   0  0  0  0  0  0  0  0  0  0  0  0
   -1.8575   -0.8123    0.2402 N   0  0  0  0  0  0  0  0  0  0  0  0
   -2.6005   -0.3333   -0.2478 H   0  0  0  0  0  0  0  0  0  0  0  0
   -0.5675   -0.1203    0.3102 C   0  0  1  0  0  0  0  0  0  0  0  0
    0.0191   -0.5718    1.1110 H   0  0  0  0  0  0  0  0  0  0  0  0
    0.1724   -0.3238   -1.0286 C   0  0  0  0  0  0  0  0  0  0  0  0
    0.1540    0.6162   -1.5835 H   0  0  0  0  0  0  0  0  0  0  0  0
    1.2161   -0.5558   -0.8054 H   0  0  0  0  0  0  0  0  0  0  0  0
   -0.3819   -1.4363   -1.9375 C   0  0  0  0  0  0  0  0  0  0  0  0
   -0.0780   -2.4104   -1.5541 H   0  0  0  0  0  0  0  0  0  0  0  0
   -1.9095   -1.3951   -2.0378 C   0  0  0  0  0  0  0  0  0  0  0  0
   -2.2304   -0.4194   -2.4052 H   0  0  0  0  0  0  0  0  0  0  0  0
   -2.2531   -2.1664   -2.7274 H   0  0  0  0  0  0  0  0  0  0  0  0
   -2.3633   -1.5755   -1.0657 H   0  0  0  0  0  0  0  0  0  0  0  0
    0.1886   -1.2836   -3.3469 C   0  0  0  0  0  0  0  0  0  0  0  0
    1.2764   -1.3413   -3.3104 H   0  0  0  0  0  0  0  0  0  0  0  0
   -0.1806   -2.0863   -3.9853 H   0  0  0  0  0  0  0  0  0  0  0  0
   -0.1068   -0.3227   -3.7697 H   0  0  0  0  0  0  0  0  0  0  0  0
   -0.7793    1.3659    0.6455 C   0  0  0  0  0  0  0  0  0  0  0  0
   -1.6464    2.0125    0.0623 O   0  0  0  0  0  0  0  0  0  0  0  0
    0.0189    1.9059    1.5756 N   0  0  0  0  0  0  0  0  0  0  0  0
    0.7024    1.3094    2.0137 H   0  0  0  0  0  0  0  0  0  0  0  0
   -0.0451    3.3046    1.9929 C   0  0  0  0  0  0  0  0  0  0  0  0
   -1.0415    3.5286    2.3805 H   0  0  0  0  0  0  0  0  0  0  0  0
    0.6954    3.5023    2.7695 H   0  0  0  0  0  0  0  0  0  0  0  0
    0.1474    3.9536    1.1372 H   0  0  0  0  0  0  0  0  0  0  0  0
  5  6  2  0  0  0  0
  5  7  1  0  0  0  0
  2  3  1  0  0  0  0
  2  4  1  0  0  0  0
  2  5  1  0  0  0  0
  1  2  1  0  0  0  0
 24 25  2  0  0  0  0
 24 26  1  0  0  0  0
 20 21  1  0  0  0  0
 20 22  1  0  0  0  0
 20 23  1  0  0  0  0
 16 17  1  0  0  0  0
 16 18  1  0  0  0  0
 16 19  1  0  0  0  0
 14 15  1  0  0  0  0
 14 16  1  0  0  0  0
 14 20  1  0  0  0  0
 11 12  1  0  0  0  0
 11 13  1  0  0  0  0
 11 14  1  0  0  0  0
  9 10  1  0  0  0  0
  9 11  1  0  0  0  0
  9 24  1  0  0  0  0
  7  8  1  0  0  0  0
  7  9  1  0  0  0  0
 28 29  1  0  0  0  0
 28 30  1  0  0  0  0
 28 31  1  0  0  0  0
 26 27  1  0  0  0  0
 26 28  1  0  0  0  0
M  END
$$$$
default_name
  -OEChem-02102213163D

 31 30  0     1  0  0  0  0  0999 V2000
   -3.5895   -3.5013    1.1082 H   0  0  0  0  0  0  0  0  0  0  0  0
   -3.5145   -2.5363    0.6082 C   0  0  0  0  0  0  0  0  0  0  0  0
   -4.2285   -1.8413    1.0452 H   0  0  0  0  0  0  0  0  0  0  0  0
   -3.7155   -2.6583   -0.4538 H   0  0  0  0  0  0  0  0  0  0  0  0
   -2.1155   -1.9963    0.7922 C   0  0  0  0  0  0  0  0  0  0  0  0
   -1.2875   -2.6383    1.4252 O   0  0  0  0  0  0  0  0  0  0  0  0
   -1.8575   -0.8123    0.2402 N   0  0  0  0  0  0  0  0  0  0  0  0
   -2.6005   -0.3333   -0.2478 H   0  0  0  0  0  0  0  0  0  0  0  0
   -0.5675   -0.1203    0.3102 C   0  0  1  0  0  0  0  0  0  0  0  0
    0.0191   -0.5718    1.1110 H   0  0  0  0  0  0  0  0  0  0  0  0
    0.1724   -0.3238   -1.0286 C   0  0  0  0  0  0  0  0  0  0  0  0
    0.1540    0.6162   -1.5835 H   0  0  0  0  0  0  0  0  0  0  0  0
    1.2161   -0.5558   -0.8054 H   0  0  0  0  0  0  0  0  0  0  0  0
   -0.3819   -1.4363   -1.9375 C   0  0  0  0  0  0  0  0  0  0  0  0
   -0.3134   -2.3970   -1.4270 H   0  0  0  0  0  0  0  0  0  0  0  0
   -1.8395   -1.1867   -2.3355 C   0  0  0  0  0  0  0  0  0  0  0  0
   -1.9271   -0.2203   -2.8339 H   0  0  0  0  0  0  0  0  0  0  0  0
   -2.1736   -1.9703   -3.0159 H   0  0  0  0  0  0  0  0  0  0  0  0
   -2.4838   -1.1943   -1.4590 H   0  0  0  0  0  0  0  0  0  0  0  0
    0.4498   -1.5200   -3.2168 C   0  0  0  0  0  0  0  0  0  0  0  0
    1.4894   -1.7294   -2.9653 H   0  0  0  0  0  0  0  0  0  0  0  0
    0.0765   -2.3252   -3.8496 H   0  0  0  0  0  0  0  0  0  0  0  0
    0.3944   -0.5778   -3.7632 H   0  0  0  0  0  0  0  0  0  0  0  0
   -0.7793    1.3659    0.6455 C   0  0  0  0  0  0  0  0  0  0  0  0
   -1.6464    2.0125    0.0623 O   0  0  0  0  0  0  0  0  0  0  0  0
    0.0189    1.9059    1.5756 N   0  0  0  0  0  0  0  0  0  0  0  0
    0.7024    1.3094    2.0137 H   0  0  0  0  0  0  0  0  0  0  0  0
   -0.0451    3.3046    1.9929 C   0  0  0  0  0  0  0  0  0  0  0  0
   -1.0415    3.5286    2.3805 H   0  0  0  0  0  0  0  0  0  0  0  0
    0.6954    3.5023    2.7695 H   0  0  0  0  0  0  0  0  0  0  0  0
    0.1474    3.9536    1.1372 H   0  0  0  0  0  0  0  0  0  0  0  0
  5  6  2  0  0  0  0
  5  7  1  0  0  0  0
  2  3  1  0  0  0  0
  2  4  1  0  0  0  0
  2  5  1  0  0  0  0
  1  2  1  0  0  0  0
 24 25  2  0  0  0  0
 24 26  1  0  0  0  0
 20 21  1  0  0  0  0
 20 22  1  0  0  0  0
 20 23  1  0  0  0  0
 16 17  1  0  0  0  0
 16 18  1  0  0  0  0
 16 19  1  0  0  0  0
 14 15  1  0  0  0  0
 14 16  1  0  0  0  0
 14 20  1  0  0  0  0
 11 12  1  0  0  0  0
 11 13  1  0  0  0  0
 11 14  1  0  0  0  0
  9 10  1  0  0  0  0
  9 11  1  0  0  0  0
  9 24  1  0  0  0  0
  7  8  1  0  0  0  0
  7  9  1  0  0  0  0
 28 29  1  0  0  0  0
 28 30  1  0  0  0  0
 28 31  1  0  0  0  0
 26 27  1  0  0  0  0
 26 28  1  0  0  0  0
M  END
$$$$
default_name
  -OEChem-02102213163D

 31 30  0     1  0  0  0  0  0999 V2000
   -3.5895   -3.5013    1.1082 H   0  0  0  0  0  0  0  0  0  0  0  0
   -3.5145   -2.5363    0.6082 C   0  0  0  0  0  0  0  0  0  0  0  0
   -4.2285   -1.8413    1.0452 H   0  0  0  0  0  0  0  0  0  0  0  0
   -3.7155   -2.6583   -0.4538 H   0  0  0  0  0  0  0  0  0  0  0  0
   -2.1155   -1.9963    0.7922 C   0  0  0  0  0  0  0  0  0  0  0  0
   -1.2875   -2.6383    1.4252 O   0  0  0  0  0  0  0  0  0  0  0  0
   -1.8575   -0.8123    0.2402 N   0  0  0  0  0  0  0  0  0  0  0  0
   -2.6005   -0.3333   -0.2478 H   0  0  0  0  0  0  0  0  0  0  0  0
   -0.5675   -0.1203    0.3102 C   0  0  1  0  0  0  0  0  0  0  0  0
    0.0191   -0.5718    1.1110 H   0  0  0  0  0  0  0  0  0  0  0  0
    0.1724   -0.3238   -1.0286 C   0  0  0  0  0  0  0  0  0  0  0  0
    0.1540    0.6162   -1.5835 H   0  0  0  0  0  0  0  0  0  0  0  0
    1.2161   -0.5558   -0.8054 H   0  0  0  0  0  0  0  0  0  0  0  0
   -0.3819   -1.4363   -1.9375 C   0  0  0  0  0  0  0  0  0  0  0  0
   -0.5624   -2.3362   -1.3495 H   0  0  0  0  0  0  0  0  0  0  0  0
   -1.6843   -1.0239   -2.6294 C   0  0  0  0  0  0  0  0  0  0  0  0
   -1.5236   -0.1143   -3.2097 H   0  0  0  0  0  0  0  0  0  0  0  0
   -2.0129   -1.8199   -3.2980 H   0  0  0  0  0  0  0  0  0  0  0  0
   -2.4683   -0.8442   -1.8969 H   0  0  0  0  0  0  0  0  0  0  0  0
    0.6415   -1.7761   -3.0203 C   0  0  0  0  0  0  0  0  0  0  0  0
    1.5713   -2.1046   -2.5560 H   0  0  0  0  0  0  0  0  0  0  0  0
    0.2629   -2.5826   -3.6482 H   0  0  0  0  0  0  0  0  0  0  0  0
    0.8383   -0.9001   -3.6394 H   0  0  0  0  0  0  0  0  0  0  0  0
   -0.7793    1.3659    0.6455 C   0  0  0  0  0  0  0  0  0  0  0  0
   -1.6464    2.0125    0.0623 O   0  0  0  0  0  0  0  0  0  0  0  0
    0.0189    1.9059    1.5756 N   0  0  0  0  0  0  0  0  0  0  0  0
    0.7024    1.3094    2.0137 H   0  0  0  0  0  0  0  0  0  0  0  0
   -0.0451    3.3046    1.9929 C   0  0  0  0  0  0  0  0  0  0  0  0
   -1.0415    3.5286    2.3805 H   0  0  0  0  0  0  0  0  0  0  0  0
    0.6954    3.5023    2.7695 H   0  0  0  0  0  0  0  0  0  0  0  0
    0.1474    3.9536    1.1372 H   0  0  0  0  0  0  0  0  0  0  0  0
  5  6  2  0  0  0  0
  5  7  1  0  0  0  0
  2  3  1  0  0  0  0
  2  4  1  0  0  0  0
  2  5  1  0  0  0  0
  1  2  1  0  0  0  0
 24 25  2  0  0  0  0
 24 26  1  0  0  0  0
 20 21  1  0  0  0  0
 20 22  1  0  0  0  0
 20 23  1  0  0  0  0
 16 17  1  0  0  0  0
 16 18  1  0  0  0  0
 16 19  1  0  0  0  0
 14 15  1  0  0  0  0
 14 16  1  0  0  0  0
 14 20  1  0  0  0  0
 11 12  1  0  0  0  0
 11 13  1  0  0  0  0
 11 14  1  0  0  0  0
  9 10  1  0  0  0  0
  9 11  1  0  0  0  0
  9 24  1  0  0  0  0
  7  8  1  0  0  0  0
  7  9  1  0  0  0  0
 28 29  1  0  0  0  0
 28 30  1  0  0  0  0
 28 31  1  0  0  0  0
 26 27  1  0  0  0  0
 26 28  1  0  0  0  0
M  END
$$$$
default_name
  -OEChem-02102213163D

 31 30  0     1  0  0  0  0  0999 V2000
   -3.5895   -3.5013    1.1082 H   0  0  0  0  0  0  0  0  0  0  0  0
   -3.5145   -2.5363    0.6082 C   0  0  0  0  0  0  0  0  0  0  0  0
   -4.2285   -1.8413    1.0452 H   0  0  0  0  0  0  0  0  0  0  0  0
   -3.7155   -2.6583   -0.4538 H   0  0  0  0  0  0  0  0  0  0  0  0
   -2.1155   -1.9963    0.7922 C   0  0  0  0  0  0  0  0  0  0  0  0
   -1.2875   -2.6383    1.4252 O   0  0  0  0  0  0  0  0  0  0  0  0
   -1.8575   -0.8123    0.2402 N   0  0  0  0  0  0  0  0  0  0  0  0
   -2.6005   -0.3333   -0.2478 H   0  0  0  0  0  0  0  0  0  0  0  0
   -0.5675   -0.1203    0.3102 C   0  0  1  0  0  0  0  0  0  0  0  0
    0.0191   -0.5718    1.1110 H   0  0  0  0  0  0  0  0  0  0  0  0
    0.1724   -0.3238   -1.0286 C   0  0  0  0  0  0  0  0  0  0  0  0
    0.1540    0.6162   -1.5835 H   0  0  0  0  0  0  0  0  0  0  0  0
    1.2161   -0.5558   -0.8054 H   0  0  0  0  0  0  0  0  0  0  0  0
   -0.3819   -1.4363   -1.9375 C   0  0  0  0  0  0  0  0  0  0  0  0
   -0.8082   -2.2322   -1.3269 H   0  0  0  0  0  0  0  0  0  0  0  0
   -1.4547   -0.9177   -2.8995 C   0  0  0  0  0  0  0  0  0  0  0  0
   -1.0474   -0.1085   -3.5072 H   0  0  0  0  0  0  0  0  0  0  0  0
   -1.7820   -1.7255   -3.5544 H   0  0  0  0  0  0  0  0  0  0  0  0
   -2.3180   -0.5492   -2.3496 H   0  0  0  0  0  0  0  0  0  0  0  0
    0.7509   -2.0345   -2.7707 C   0  0  0  0  0  0  0  0  0  0  0  0
    1.5165   -2.4414   -2.1103 H   0  0  0  0  0  0  0  0  0  0  0  0
    0.3661   -2.8410   -3.3949 H   0  0  0  0  0  0  0  0  0  0  0  0
    1.1947   -1.2677   -3.4067 H   0  0  0  0  0  0  0  0  0  0  0  0
   -0.7793    1.3659    0.6455 C   0  0  0  0  0  0  0  0  0  0  0  0
   -1.6464    2.0125    0.0623 O   0  0  0  0  0  0  0  0  0  0  0  0
    0.0189    1.9059    1.5756 N   0  0  0  0  0  0  0  0  0  0  0  0
    0.7024    1.3094    2.0137 H   0  0  0  0  0  0  0  0  0  0  0  0
   -0.0451    3.3046    1.9929 C   0  0  0  0  0  0  0  0  0  0  0  0
   -1.0415    3.5286    2.3805 H   0  0  0  0  0  0  0  0  0  0  0  0
    0.6954    3.5023    2.7695 H   0  0  0  0  0  0  0  0  0  0  0  0
    0.1474    3.9536    1.1372 H   0  0  0  0  0  0  0  0  0  0  0  0
  5  6  2  0  0  0  0
  5  7  1  0  0  0  0
  2  3  1  0  0  0  0
  2  4  1  0  0  0  0
  2  5  1  0  0  0  0
  1  2  1  0  0  0  0
 24 25  2  0  0  0  0
 24 26  1  0  0  0  0
 20 21  1  0  0  0  0
 20 22  1  0  0  0  0
 20 23  1  0  0  0  0
 16 17  1  0  0  0  0
 16 18  1  0  0  0  0
 16 19  1  0  0  0  0
 14 15  1  0  0  0  0
 14 16  1  0  0  0  0
 14 20  1  0  0  0  0
 11 12  1  0  0  0  0
 11 13  1  0  0  0  0
 11 14  1  0  0  0  0
  9 10  1  0  0  0  0
  9 11  1  0  0  0  0
  9 24  1  0  0  0  0
  7  8  1  0  0  0  0
  7  9  1  0  0  0  0
 28 29  1  0  0  0  0
 28 30  1  0  0  0  0
 28 31  1  0  0  0  0
 26 27  1  0  0  0  0
 26 28  1  0  0  0  0
M  END
$$$$
default_name
  -OEChem-02102213163D

 31 30  0     1  0  0  0  0  0999 V2000
   -3.5895   -3.5013    1.1082 H   0  0  0  0  0  0  0  0  0  0  0  0
   -3.5145   -2.5363    0.6082 C   0  0  0  0  0  0  0  0  0  0  0  0
   -4.2285   -1.8413    1.0452 H   0  0  0  0  0  0  0  0  0  0  0  0
   -3.7155   -2.6583   -0.4538 H   0  0  0  0  0  0  0  0  0  0  0  0
   -2.1155   -1.9963    0.7922 C   0  0  0  0  0  0  0  0  0  0  0  0
   -1.2875   -2.6383    1.4252 O   0  0  0  0  0  0  0  0  0  0  0  0
   -1.8575   -0.8123    0.2402 N   0  0  0  0  0  0  0  0  0  0  0  0
   -2.6005   -0.3333   -0.2478 H   0  0  0  0  0  0  0  0  0  0  0  0
   -0.5675   -0.1203    0.3102 C   0  0  1  0  0  0  0  0  0  0  0  0
    0.0191   -0.5718    1.1110 H   0  0  0  0  0  0  0  0  0  0  0  0
    0.1724   -0.3238   -1.0286 C   0  0  0  0  0  0  0  0  0  0  0  0
    0.1540    0.6162   -1.5835 H   0  0  0  0  0  0  0  0  0  0  0  0
    1.2161   -0.5558   -0.8054 H   0  0  0  0  0  0  0  0  0  0  0  0
   -0.3819   -1.4363   -1.9375 C   0  0  0  0  0  0  0  0  0  0  0  0
   -1.0340   -2.0922   -1.3606 H   0  0  0  0  0  0  0  0  0  0  0  0
   -1.1661   -0.8754   -3.1273 C   0  0  0  0  0  0  0  0  0  0  0  0
   -0.5309   -0.2035   -3.7060 H   0  0  0  0  0  0  0  0  0  0  0  0
   -1.4965   -1.6935   -3.7677 H   0  0  0  0  0  0  0  0  0  0  0  0
   -2.0431   -0.3294   -2.7863 H   0  0  0  0  0  0  0  0  0  0  0  0
    0.7704   -2.2775   -2.4852 C   0  0  0  0  0  0  0  0  0  0  0  0
    1.3288   -2.7169   -1.6587 H   0  0  0  0  0  0  0  0  0  0  0  0
    0.3788   -3.0827   -3.1068 H   0  0  0  0  0  0  0  0  0  0  0  0
    1.4393   -1.6556   -3.0811 H   0  0  0  0  0  0  0  0  0  0  0  0
   -0.7793    1.3659    0.6455 C   0  0  0  0  0  0  0  0  0  0  0  0
   -1.6464    2.0125    0.0623 O   0  0  0  0  0  0  0  0  0  0  0  0
    0.0189    1.9059    1.5756 N   0  0  0  0  0  0  0  0  0  0  0  0
    0.7024    1.3094    2.0137 H   0  0  0  0  0  0  0  0  0  0  0  0
   -0.0451    3.3046    1.9929 C   0  0  0  0  0  0  0  0  0  0  0  0
   -1.0415    3.5286    2.3805 H   0  0  0  0  0  0  0  0  0  0  0  0
    0.6954    3.5023    2.7695 H   0  0  0  0  0  0  0  0  0  0  0  0
    0.1474    3.9536    1.1372 H   0  0  0  0  0  0  0  0  0  0  0  0
  5  6  2  0  0  0  0
  5  7  1  0  0  0  0
  2  3  1  0  0  0  0
  2  4  1  0  0  0  0
  2  5  1  0  0  0  0
  1  2  1  0  0  0  0
 24 25  2  0  0  0  0
 24 26  1  0  0  0  0
 20 21  1  0  0  0  0
 20 22  1  0  0  0  0
 20 23  1  0  0  0  0
 16 17  1  0  0  0  0
 16 18  1  0  0  0  0
 16 19  1  0  0  0  0
 14 15  1  0  0  0  0
 14 16  1  0  0  0  0
 14 20  1  0  0  0  0
 11 12  1  0  0  0  0
 11 13  1  0  0  0  0
 11 14  1  0  0  0  0
  9 10  1  0  0  0  0
  9 11  1  0  0  0  0
  9 24  1  0  0  0  0
  7  8  1  0  0  0  0
  7  9  1  0  0  0  0
 28 29  1  0  0  0  0
 28 30  1  0  0  0  0
 28 31  1  0  0  0  0
 26 27  1  0  0  0  0
 26 28  1  0  0  0  0
M  END
$$$$
default_name
  -OEChem-02102213163D

 31 30  0     1  0  0  0  0  0999 V2000
   -3.5895   -3.5013    1.1082 H   0  0  0  0  0  0  0  0  0  0  0  0
   -3.5145   -2.5363    0.6082 C   0  0  0  0  0  0  0  0  0  0  0  0
   -4.2285   -1.8413    1.0452 H   0  0  0  0  0  0  0  0  0  0  0  0
   -3.7155   -2.6583   -0.4538 H   0  0  0  0  0  0  0  0  0  0  0  0
   -2.1155   -1.9963    0.7922 C   0  0  0  0  0  0  0  0  0  0  0  0
   -1.2875   -2.6383    1.4252 O   0  0  0  0  0  0  0  0  0  0  0  0
   -1.8575   -0.8123    0.2402 N   0  0  0  0  0  0  0  0  0  0  0  0
   -2.6005   -0.3333   -0.2478 H   0  0  0  0  0  0  0  0  0  0  0  0
   -0.5675   -0.1203    0.3102 C   0  0  1  0  0  0  0  0  0  0  0  0
    0.0191   -0.5718    1.1110 H   0  0  0  0  0  0  0  0  0  0  0  0
    0.1724   -0.3238   -1.0286 C   0  0  0  0  0  0  0  0  0  0  0  0
    0.1540    0.6162   -1.5835 H   0  0  0  0  0  0  0  0  0  0  0  0
    1.2161   -0.5558   -0.8054 H   0  0  0  0  0  0  0  0  0  0  0  0
   -0.3819   -1.4363   -1.9375 C   0  0  0  0  0  0  0  0  0  0  0  0
   -1.2244   -1.9255   -1.4485 H   0  0  0  0  0  0  0  0  0  0  0  0
   -0.8383   -0.8998   -3.2973 C   0  0  0  0  0  0  0  0  0  0  0  0
   -0.0093   -0.3926   -3.7927 H   0  0  0  0  0  0  0  0  0  0  0  0
   -1.1760   -1.7260   -3.9234 H   0  0  0  0  0  0  0  0  0  0  0  0
   -1.6623   -0.1998   -3.1772 H   0  0  0  0  0  0  0  0  0  0  0  0
    0.6987   -2.4886   -2.1830 C   0  0  0  0  0  0  0  0  0  0  0  0
    1.0210   -2.9122   -1.2319 H   0  0  0  0  0  0  0  0  0  0  0  0
    0.3003   -3.2913   -2.8036 H   0  0  0  0  0  0  0  0  0  0  0  0
    1.5554   -2.0373   -2.6847 H   0  0  0  0  0  0  0  0  0  0  0  0
   -0.7793    1.3659    0.6455 C   0  0  0  0  0  0  0  0  0  0  0  0
   -1.6464    2.0125    0.0623 O   0  0  0  0  0  0  0  0  0  0  0  0
    0.0189    1.9059    1.5756 N   0  0  0  0  0  0  0  0  0  0  0  0
    0.7024    1.3094    2.0137 H   0  0  0  0  0  0  0  0  0  0  0  0
   -0.0451    3.3046    1.9929 C   0  0  0  0  0  0  0  0  0  0  0  0
   -1.0415    3.5286    2.3805 H   0  0  0  0  0  0  0  0  0  0  0  0
    0.6954    3.5023    2.7695 H   0  0  0  0  0  0  0  0  0  0  0  0
    0.1474    3.9536    1.1372 H   0  0  0  0  0  0  0  0  0  0  0  0
  5  6  2  0  0  0  0
  5  7  1  0  0  0  0
  2  3  1  0  0  0  0
  2  4  1  0  0  0  0
  2  5  1  0  0  0  0
  1  2  1  0  0  0  0
 24 25  2  0  0  0  0
 24 26  1  0  0  0  0
 20 21  1  0  0  0  0
 20 22  1  0  0  0  0
 20 23  1  0  0  0  0
 16 17  1  0  0  0  0
 16 18  1  0  0  0  0
 16 19  1  0  0  0  0
 14 15  1  0  0  0  0
 14 16  1  0  0  0  0
 14 20  1  0  0  0  0
 11 12  1  0  0  0  0
 11 13  1  0  0  0  0
 11 14  1  0  0  0  0
  9 10  1  0  0  0  0
  9 11  1  0  0  0  0
  9 24  1  0  0  0  0
  7  8  1  0  0  0  0
  7  9  1  0  0  0  0
 28 29  1  0  0  0  0
 28 30  1  0  0  0  0
 28 31  1  0  0  0  0
 26 27  1  0  0  0  0
 26 28  1  0  0  0  0
M  END
$$$$
default_name
  -OEChem-02102213163D

 31 30  0     1  0  0  0  0  0999 V2000
   -3.5895   -3.5013    1.1082 H   0  0  0  0  0  0  0  0  0  0  0  0
   -3.5145   -2.5363    0.6082 C   0  0  0  0  0  0  0  0  0  0  0  0
   -4.2285   -1.8413    1.0452 H   0  0  0  0  0  0  0  0  0  0  0  0
   -3.7155   -2.6583   -0.4538 H   0  0  0  0  0  0  0  0  0  0  0  0
   -2.1155   -1.9963    0.7922 C   0  0  0  0  0  0  0  0  0  0  0  0
   -1.2875   -2.6383    1.4252 O   0  0  0  0  0  0  0  0  0  0  0  0
   -1.8575   -0.8123    0.2402 N   0  0  0  0  0  0  0  0  0  0  0  0
   -2.6005   -0.3333   -0.2478 H   0  0  0  0  0  0  0  0  0  0  0  0
   -0.5675   -0.1203    0.3102 C   0  0  1  0  0  0  0  0  0  0  0  0
    0.0191   -0.5718    1.1110 H   0  0  0  0  0  0  0  0  0  0  0  0
    0.1724   -0.3238   -1.0286 C   0  0  0  0  0  0  0  0  0  0  0  0
    0.1540    0.6162   -1.5835 H   0  0  0  0  0  0  0  0  0  0  0  0
    1.2161   -0.5558   -0.8054 H   0  0  0  0  0  0  0  0  0  0  0  0
   -0.3819   -1.4363   -1.9375 C   0  0  0  0  0  0  0  0  0  0  0  0
   -1.3663   -1.7437   -1.5846 H   0  0  0  0  0  0  0  0  0  0  0  0
   -0.4936   -0.9893   -3.3979 C   0  0  0  0  0  0  0  0  0  0  0  0
    0.4819   -0.6630   -3.7612 H   0  0  0  0  0  0  0  0  0  0  0  0
   -0.8423   -1.8209   -4.0107 H   0  0  0  0  0  0  0  0  0  0  0  0
   -1.2017   -0.1692   -3.4956 H   0  0  0  0  0  0  0  0  0  0  0  0
    0.5407   -2.6534   -1.8849 C   0  0  0  0  0  0  0  0  0  0  0  0
    0.6140   -3.0140   -0.8590 H   0  0  0  0  0  0  0  0  0  0  0  0
    0.1360   -3.4525   -2.5060 H   0  0  0  0  0  0  0  0  0  0  0  0
    1.5352   -2.3868   -2.2446 H   0  0  0  0  0  0  0  0  0  0  0  0
   -0.7793    1.3659    0.6455 C   0  0  0  0  0  0  0  0  0  0  0  0
   -1.6464    2.0125    0.0623 O   0  0  0  0  0  0  0  0  0  0  0  0
    0.0189    1.9059    1.5756 N   0  0  0  0  0  0  0  0  0  0  0  0
    0.7024    1.3094    2.0137 H   0  0  0  0  0  0  0  0  0  0  0  0
   -0.0451    3.3046    1.9929 C   0  0  0  0  0  0  0  0  0  0  0  0
   -1.0415    3.5286    2.3805 H   0  0  0  0  0  0  0  0  0  0  0  0
    0.6954    3.5023    2.7695 H   0  0  0  0  0  0  0  0  0  0  0  0
    0.1474    3.9536    1.1372 H   0  0  0  0  0  0  0  0  0  0  0  0
  5  6  2  0  0  0  0
  5  7  1  0  0  0  0
  2  3  1  0  0  0  0
  2  4  1  0  0  0  0
  2  5  1  0  0  0  0
  1  2  1  0  0  0  0
 24 25  2  0  0  0  0
 24 26  1  0  0  0  0
 20 21  1  0  0  0  0
 20 22  1  0  0  0  0
 20 23  1  0  0  0  0
 16 17  1  0  0  0  0
 16 18  1  0  0  0  0
 16 19  1  0  0  0  0
 14 15  1  0  0  0  0
 14 16  1  0  0  0  0
 14 20  1  0  0  0  0
 11 12  1  0  0  0  0
 11 13  1  0  0  0  0
 11 14  1  0  0  0  0
  9 10  1  0  0  0  0
  9 11  1  0  0  0  0
  9 24  1  0  0  0  0
  7  8  1  0  0  0  0
  7  9  1  0  0  0  0
 28 29  1  0  0  0  0
 28 30  1  0  0  0  0
 28 31  1  0  0  0  0
 26 27  1  0  0  0  0
 26 28  1  0  0  0  0
M  END
$$$$
default_name
  -OEChem-02102213163D

 31 30  0     1  0  0  0  0  0999 V2000
   -3.5895   -3.5013    1.1082 H   0  0  0  0  0  0  0  0  0  0  0  0
   -3.5145   -2.5363    0.6082 C   0  0  0  0  0  0  0  0  0  0  0  0
   -4.2285   -1.8413    1.0452 H   0  0  0  0  0  0  0  0  0  0  0  0
   -3.7155   -2.6583   -0.4538 H   0  0  0  0  0  0  0  0  0  0  0  0
   -2.1155   -1.9963    0.7922 C   0  0  0  0  0  0  0  0  0  0  0  0
   -1.2875   -2.6383    1.4252 O   0  0  0  0  0  0  0  0  0  0  0  0
   -1.8575   -0.8123    0.2402 N   0  0  0  0  0  0  0  0  0  0  0  0
   -2.6005   -0.3333   -0.2478 H   0  0  0  0  0  0  0  0  0  0  0  0
   -0.5675   -0.1203    0.3102 C   0  0  1  0  0  0  0  0  0  0  0  0
    0.0191   -0.5718    1.1110 H   0  0  0  0  0  0  0  0  0  0  0  0
    0.1724   -0.3238   -1.0286 C   0  0  0  0  0  0  0  0  0  0  0  0
    0.1540    0.6162   -1.5835 H   0  0  0  0  0  0  0  0  0  0  0  0
    1.2161   -0.5558   -0.8054 H   0  0  0  0  0  0  0  0  0  0  0  0
   -0.3819   -1.4363   -1.9375 C   0  0  0  0  0  0  0  0  0  0  0  0
   -1.4502   -1.5590   -1.7594 H   0  0  0  0  0  0  0  0  0  0  0  0
   -0.1555   -1.1378   -3.4224 C   0  0  0  0  0  0  0  0  0  0  0  0
    0.9091   -0.9963   -3.6137 H   0  0  0  0  0  0  0  0  0  0  0  0
   -0.5181   -1.9716   -4.0239 H   0  0  0  0  0  0  0  0  0  0  0  0
   -0.6925   -0.2397   -3.7199 H   0  0  0  0  0  0  0  0  0  0  0  0
    0.3072   -2.7607   -1.6112 C   0  0  0  0  0  0  0  0  0  0  0  0
    0.1356   -3.0155   -0.5654 H   0  0  0  0  0  0  0  0  0  0  0  0
   -0.1031   -3.5555   -2.2342 H   0  0  0  0  0  0  0  0  0  0  0  0
    1.3799   -2.6803   -1.7906 H   0  0  0  0  0  0  0  0  0  0  0  0
   -0.7793    1.3659    0.6455 C   0  0  0  0  0  0  0  0  0  0  0  0
   -1.6464    2.0125    0.0623 O   0  0  0  0  0  0  0  0  0  0  0  0
    0.0189    1.9059    1.5756 N   0  0  0  0  0  0  0  0  0  0  0  0
    0.7024    1.3094    2.0137 H   0  0  0  0  0  0  0  0  0  0  0  0
   -0.0451    3.3046    1.9929 C   0  0  0  0  0  0  0  0  0  0  0  0
   -1.0415    3.5286    2.3805 H   0  0  0  0  0  0  0  0  0  0  0  0
    0.6954    3.5023    2.7695 H   0  0  0  0  0  0  0  0  0  0  0  0
    0.1474    3.9536    1.1372 H   0  0  0  0  0  0  0  0  0  0  0  0
  5  6  2  0  0  0  0
  5  7  1  0  0  0  0
  2  3  1  0  0  0  0
  2  4  1  0  0  0  0
  2  5  1  0  0  0  0
  1  2  1  0  0  0  0
 24 25  2  0  0  0  0
 24 26  1  0  0  0  0
 20 21  1  0  0  0  0
 20 22  1  0  0  0  0
 20 23  1  0  0  0  0
 16 17  1  0  0  0  0
 16 18  1  0  0  0  0
 16 19  1  0  0  0  0
 14 15  1  0  0  0  0
 14 16  1  0  0  0  0
 14 20  1  0  0  0  0
 11 12  1  0  0  0  0
 11 13  1  0  0  0  0
 11 14  1  0  0  0  0
  9 10  1  0  0  0  0
  9 11  1  0  0  0  0
  9 24  1  0  0  0  0
  7  8  1  0  0  0  0
  7  9  1  0  0  0  0
 28 29  1  0  0  0  0
 28 30  1  0  0  0  0
 28 31  1  0  0  0  0
 26 27  1  0  0  0  0
 26 28  1  0  0  0  0
M  END
$$$$
default_name
  -OEChem-02102213163D

 31 30  0     1  0  0  0  0  0999 V2000
   -3.5895   -3.5013    1.1082 H   0  0  0  0  0  0  0  0  0  0  0  0
   -3.5145   -2.5363    0.6082 C   0  0  0  0  0  0  0  0  0  0  0  0
   -4.2285   -1.8413    1.0452 H   0  0  0  0  0  0  0  0  0  0  0  0
   -3.7155   -2.6583   -0.4538 H   0  0  0  0  0  0  0  0  0  0  0  0
   -2.1155   -1.9963    0.7922 C   0  0  0  0  0  0  0  0  0  0  0  0
   -1.2875   -2.6383    1.4252 O   0  0  0  0  0  0  0  0  0  0  0  0
   -1.8575   -0.8123    0.2402 N   0  0  0  0  0  0  0  0  0  0  0  0
   -2.6005   -0.3333   -0.2478 H   0  0  0  0  0  0  0  0  0  0  0  0
   -0.5675   -0.1203    0.3102 C   0  0  1  0  0  0  0  0  0  0  0  0
    0.0191   -0.5718    1.1110 H   0  0  0  0  0  0  0  0  0  0  0  0
    0.1724   -0.3238   -1.0286 C   0  0  0  0  0  0  0  0  0  0  0  0
    0.1540    0.6162   -1.5835 H   0  0  0  0  0  0  0  0  0  0  0  0
    1.2161   -0.5558   -0.8054 H   0  0  0  0  0  0  0  0  0  0  0  0
   -0.3819   -1.4363   -1.9375 C   0  0  0  0  0  0  0  0  0  0  0  0
   -1.4704   -1.3841   -1.9613 H   0  0  0  0  0  0  0  0  0  0  0  0
    0.1530   -1.3352   -3.3689 C   0  0  0  0  0  0  0  0  0  0  0  0
    1.2432   -1.3698   -3.3603 H   0  0  0  0  0  0  0  0  0  0  0  0
   -0.2255   -2.1680   -3.9619 H   0  0  0  0  0  0  0  0  0  0  0  0
   -0.1694   -0.4064   -3.8347 H   0  0  0  0  0  0  0  0  0  0  0  0
    0.0141   -2.8032   -1.3804 C   0  0  0  0  0  0  0  0  0  0  0  0
   -0.3816   -2.9165   -0.3712 H   0  0  0  0  0  0  0  0  0  0  0  0
   -0.4005   -3.5930   -2.0068 H   0  0  0  0  0  0  0  0  0  0  0  0
    1.1002   -2.8977   -1.3539 H   0  0  0  0  0  0  0  0  0  0  0  0
   -0.7793    1.3659    0.6455 C   0  0  0  0  0  0  0  0  0  0  0  0
   -1.6464    2.0125    0.0623 O   0  0  0  0  0  0  0  0  0  0  0  0
    0.0189    1.9059    1.5756 N   0  0  0  0  0  0  0  0  0  0  0  0
    0.7024    1.3094    2.0137 H   0  0  0  0  0  0  0  0  0  0  0  0
   -0.0451    3.3046    1.9929 C   0  0  0  0  0  0  0  0  0  0  0  0
   -1.0415    3.5286    2.3805 H   0  0  0  0  0  0  0  0  0  0  0  0
    0.6954    3.5023    2.7695 H   0  0  0  0  0  0  0  0  0  0  0  0
    0.1474    3.9536    1.1372 H   0  0  0  0  0  0  0  0  0  0  0  0
  5  6  2  0  0  0  0
  5  7  1  0  0  0  0
  2  3  1  0  0  0  0
  2  4  1  0  0  0  0
  2  5  1  0  0  0  0
  1  2  1  0  0  0  0
 24 25  2  0  0  0  0
 24 26  1  0  0  0  0
 20 21  1  0  0  0  0
 20 22  1  0  0  0  0
 20 23  1  0  0  0  0
 16 17  1  0  0  0  0
 16 18  1  0  0  0  0
 16 19  1  0  0  0  0
 14 15  1  0  0  0  0
 14 16  1  0  0  0  0
 14 20  1  0  0  0  0
 11 12  1  0  0  0  0
 11 13  1  0  0  0  0
 11 14  1  0  0  0  0
  9 10  1  0  0  0  0
  9 11  1  0  0  0  0
  9 24  1  0  0  0  0
  7  8  1  0  0  0  0
  7  9  1  0  0  0  0
 28 29  1  0  0  0  0
 28 30  1  0  0  0  0
 28 31  1  0  0  0  0
 26 27  1  0  0  0  0
 26 28  1  0  0  0  0
M  END
$$$$
default_name
  -OEChem-02102213163D

 31 30  0     1  0  0  0  0  0999 V2000
   -3.5895   -3.5013    1.1082 H   0  0  0  0  0  0  0  0  0  0  0  0
   -3.5145   -2.5363    0.6082 C   0  0  0  0  0  0  0  0  0  0  0  0
   -4.2285   -1.8413    1.0452 H   0  0  0  0  0  0  0  0  0  0  0  0
   -3.7155   -2.6583   -0.4538 H   0  0  0  0  0  0  0  0  0  0  0  0
   -2.1155   -1.9963    0.7922 C   0  0  0  0  0  0  0  0  0  0  0  0
   -1.2875   -2.6383    1.4252 O   0  0  0  0  0  0  0  0  0  0  0  0
   -1.8575   -0.8123    0.2402 N   0  0  0  0  0  0  0  0  0  0  0  0
   -2.6005   -0.3333   -0.2478 H   0  0  0  0  0  0  0  0  0  0  0  0
   -0.5675   -0.1203    0.3102 C   0  0  1  0  0  0  0  0  0  0  0  0
    0.0191   -0.5718    1.1110 H   0  0  0  0  0  0  0  0  0  0  0  0
    0.1724   -0.3238   -1.0286 C   0  0  0  0  0  0  0  0  0  0  0  0
    0.3904    0.6556   -1.4588 H   0  0  0  0  0  0  0  0  0  0  0  0
    1.1263   -0.8115   -0.8161 H   0  0  0  0  0  0  0  0  0  0  0  0
   -0.5708   -1.1642   -2.0833 C   0  0  0  0  0  0  0  0  0  0  0  0
   -1.5297   -0.7003   -2.3146 H   0  0  0  0  0  0  0  0  0  0  0  0
    0.2347   -1.3144   -3.3770 C   0  0  0  0  0  0  0  0  0  0  0  0
    1.2049   -1.7631   -3.1594 H   0  0  0  0  0  0  0  0  0  0  0  0
   -0.3061   -1.9551   -4.0739 H   0  0  0  0  0  0  0  0  0  0  0  0
    0.3887   -0.3461   -3.8483 H   0  0  0  0  0  0  0  0  0  0  0  0
   -0.8430   -2.5628   -1.5308 C   0  0  0  0  0  0  0  0  0  0  0  0
   -1.4437   -2.4885   -0.6244 H   0  0  0  0  0  0  0  0  0  0  0  0
   -1.3934   -3.1508   -2.2652 H   0  0  0  0  0  0  0  0  0  0  0  0
    0.0972   -3.0647   -1.2994 H   0  0  0  0  0  0  0  0  0  0  0  0
   -0.7793    1.3659    0.6455 C   0  0  0  0  0  0  0  0  0  0  0  0
   -1.6464    2.0125    0.0623 O   0  0  0  0  0  0  0  0  0  0  0  0
    0.0189    1.9059    1.5756 N   0  0  0  0  0  0  0  0  0  0  0  0
    0.7024    1.3094    2.0137 H   0  0  0  0  0  0  0  0  0  0  0  0
   -0.0451    3.3046    1.9929 C   0  0  0  0  0  0  0  0  0  0  0  0
   -1.0415    3.5286    2.3805 H   0  0  0  0  0  0  0  0  0  0  0  0
    0.6954    3.5023    2.7695 H   0  0  0  0  0  0  0  0  0  0  0  0
    0.1474    3.9536    1.1372 H   0  0  0  0  0  0  0  0  0  0  0  0
  5  6  2  0  0  0  0
  5  7  1  0  0  0  0
  2  3  1  0  0  0  0
  2  4  1  0  0  0  0
  2  5  1  0  0  0  0
  1  2  1  0  0  0  0
 24 25  2  0  0  0  0
 24 26  1  0  0  0  0
 20 21  1  0  0  0  0
 20 22  1  0  0  0  0
 20 23  1  0  0  0  0
 16 17  1  0  0  0  0
 16 18  1  0  0  0  0
 16 19  1  0  0  0  0
 14 15  1  0  0  0  0
 14 16  1  0  0  0  0
 14 20  1  0  0  0  0
 11 12  1  0  0  0  0
 11 13  1  0  0  0  0
 11 14  1  0  0  0  0
  9 10  1  0  0  0  0
  9 11  1  0  0  0  0
  9 24  1  0  0  0  0
  7  8  1  0  0  0  0
  7  9  1  0  0  0  0
 28 29  1  0  0  0  0
 28 30  1  0  0  0  0
 28 31  1  0  0  0  0
 26 27  1  0  0  0  0
 26 28  1  0  0  0  0
M  END
$$$$
default_name
  -OEChem-02102213163D

 31 30  0     1  0  0  0  0  0999 V2000
   -3.5895   -3.5013    1.1082 H   0  0  0  0  0  0  0  0  0  0  0  0
   -3.5145   -2.5363    0.6082 C   0  0  0  0  0  0  0  0  0  0  0  0
   -4.2285   -1.8413    1.0452 H   0  0  0  0  0  0  0  0  0  0  0  0
   -3.7155   -2.6583   -0.4538 H   0  0  0  0  0  0  0  0  0  0  0  0
   -2.1155   -1.9963    0.7922 C   0  0  0  0  0  0  0  0  0  0  0  0
   -1.2875   -2.6383    1.4252 O   0  0  0  0  0  0  0  0  0  0  0  0
   -1.8575   -0.8123    0.2402 N   0  0  0  0  0  0  0  0  0  0  0  0
   -2.6005   -0.3333   -0.2478 H   0  0  0  0  0  0  0  0  0  0  0  0
   -0.5675   -0.1203    0.3102 C   0  0  1  0  0  0  0  0  0  0  0  0
    0.0191   -0.5718    1.1110 H   0  0  0  0  0  0  0  0  0  0  0  0
    0.1724   -0.3238   -1.0286 C   0  0  0  0  0  0  0  0  0  0  0  0
    0.3904    0.6556   -1.4588 H   0  0  0  0  0  0  0  0  0  0  0  0
    1.1263   -0.8115   -0.8161 H   0  0  0  0  0  0  0  0  0  0  0  0
   -0.5708   -1.1642   -2.0833 C   0  0  0  0  0  0  0  0  0  0  0  0
   -1.3882   -0.5819   -2.5087 H   0  0  0  0  0  0  0  0  0  0  0  0
    0.3538   -1.6245   -3.2139 C   0  0  0  0  0  0  0  0  0  0  0  0
    1.1868   -2.1958   -2.8019 H   0  0  0  0  0  0  0  0  0  0  0  0
   -0.2016   -2.2547   -3.9088 H   0  0  0  0  0  0  0  0  0  0  0  0
    0.7454   -0.7701   -3.7618 H   0  0  0  0  0  0  0  0  0  0  0  0
   -1.1682   -2.4075   -1.4254 C   0  0  0  0  0  0  0  0  0  0  0  0
   -1.8572   -2.1091   -0.6353 H   0  0  0  0  0  0  0  0  0  0  0  0
   -1.7183   -2.9899   -2.1644 H   0  0  0  0  0  0  0  0  0  0  0  0
   -0.3762   -3.0238   -0.9985 H   0  0  0  0  0  0  0  0  0  0  0  0
   -0.7793    1.3659    0.6455 C   0  0  0  0  0  0  0  0  0  0  0  0
   -1.6464    2.0125    0.0623 O   0  0  0  0  0  0  0  0  0  0  0  0
    0.0189    1.9059    1.5756 N   0  0  0  0  0  0  0  0  0  0  0  0
    0.7024    1.3094    2.0137 H   0  0  0  0  0  0  0  0  0  0  0  0
   -0.0451    3.3046    1.9929 C   0  0  0  0  0  0  0  0  0  0  0  0
   -1.0415    3.5286    2.3805 H   0  0  0  0  0  0  0  0  0  0  0  0
    0.6954    3.5023    2.7695 H   0  0  0  0  0  0  0  0  0  0  0  0
    0.1474    3.9536    1.1372 H   0  0  0  0  0  0  0  0  0  0  0  0
  5  6  2  0  0  0  0
  5  7  1  0  0  0  0
  2  3  1  0  0  0  0
  2  4  1  0  0  0  0
  2  5  1  0  0  0  0
  1  2  1  0  0  0  0
 24 25  2  0  0  0  0
 24 26  1  0  0  0  0
 20 21  1  0  0  0  0
 20 22  1  0  0  0  0
 20 23  1  0  0  0  0
 16 17  1  0  0  0  0
 16 18  1  0  0  0  0
 16 19  1  0  0  0  0
 14 15  1  0  0  0  0
 14 16  1  0  0  0  0
 14 20  1  0  0  0  0
 11 12  1  0  0  0  0
 11 13  1  0  0  0  0
 11 14  1  0  0  0  0
  9 10  1  0  0  0  0
  9 11  1  0  0  0  0
  9 24  1  0  0  0  0
  7  8  1  0  0  0  0
  7  9  1  0  0  0  0
 28 29  1  0  0  0  0
 28 30  1  0  0  0  0
 28 31  1  0  0  0  0
 26 27  1  0  0  0  0
 26 28  1  0  0  0  0
M  END
$$$$
default_name
  -OEChem-02102213163D

 31 30  0     1  0  0  0  0  0999 V2000
   -3.5895   -3.5013    1.1082 H   0  0  0  0  0  0  0  0  0  0  0  0
   -3.5145   -2.5363    0.6082 C   0  0  0  0  0  0  0  0  0  0  0  0
   -4.2285   -1.8413    1.0452 H   0  0  0  0  0  0  0  0  0  0  0  0
   -3.7155   -2.6583   -0.4538 H   0  0  0  0  0  0  0  0  0  0  0  0
   -2.1155   -1.9963    0.7922 C   0  0  0  0  0  0  0  0  0  0  0  0
   -1.2875   -2.6383    1.4252 O   0  0  0  0  0  0  0  0  0  0  0  0
   -1.8575   -0.8123    0.2402 N   0  0  0  0  0  0  0  0  0  0  0  0
   -2.6005   -0.3333   -0.2478 H   0  0  0  0  0  0  0  0  0  0  0  0
   -0.5675   -0.1203    0.3102 C   0  0  1  0  0  0  0  0  0  0  0  0
    0.0191   -0.5718    1.1110 H   0  0  0  0  0  0  0  0  0  0  0  0
    0.1724   -0.3238   -1.0286 C   0  0  0  0  0  0  0  0  0  0  0  0
    0.3904    0.6556   -1.4588 H   0  0  0  0  0  0  0  0  0  0  0  0
    1.1263   -0.8115   -0.8161 H   0  0  0  0  0  0  0  0  0  0  0  0
   -0.5708   -1.1642   -2.0833 C   0  0  0  0  0  0  0  0  0  0  0  0
   -1.2031   -0.5168   -2.6910 H   0  0  0  0  0  0  0  0  0  0  0  0
    0.3909   -1.9247   -3.0008 C   0  0  0  0  0  0  0  0  0  0  0  0
    1.0422   -2.5658   -2.4051 H   0  0  0  0  0  0  0  0  0  0  0  0
   -0.1770   -2.5421   -3.6971 H   0  0  0  0  0  0  0  0  0  0  0  0
    1.0026   -1.2322   -3.5749 H   0  0  0  0  0  0  0  0  0  0  0  0
   -1.4696   -2.1866   -1.3889 C   0  0  0  0  0  0  0  0  0  0  0  0
   -2.1878   -1.6707   -0.7517 H   0  0  0  0  0  0  0  0  0  0  0  0
   -2.0178   -2.7643   -2.1331 H   0  0  0  0  0  0  0  0  0  0  0  0
   -0.8686   -2.8627   -0.7797 H   0  0  0  0  0  0  0  0  0  0  0  0
   -0.7793    1.3659    0.6455 C   0  0  0  0  0  0  0  0  0  0  0  0
   -1.6464    2.0125    0.0623 O   0  0  0  0  0  0  0  0  0  0  0  0
    0.0189    1.9059    1.5756 N   0  0  0  0  0  0  0  0  0  0  0  0
    0.7024    1.3094    2.0137 H   0  0  0  0  0  0  0  0  0  0  0  0
   -0.0451    3.3046    1.9929 C   0  0  0  0  0  0  0  0  0  0  0  0
   -1.0415    3.5286    2.3805 H   0  0  0  0  0  0  0  0  0  0  0  0
    0.6954    3.5023    2.7695 H   0  0  0  0  0  0  0  0  0  0  0  0
    0.1474    3.9536    1.1372 H   0  0  0  0  0  0  0  0  0  0  0  0
  5  6  2  0  0  0  0
  5  7  1  0  0  0  0
  2  3  1  0  0  0  0
  2  4  1  0  0  0  0
  2  5  1  0  0  0  0
  1  2  1  0  0  0  0
 24 25  2  0  0  0  0
 24 26  1  0  0  0  0
 20 21  1  0  0  0  0
 20 22  1  0  0  0  0
 20 23  1  0  0  0  0
 16 17  1  0  0  0  0
 16 18  1  0  0  0  0
 16 19  1  0  0  0  0
 14 15  1  0  0  0  0
 14 16  1  0  0  0  0
 14 20  1  0  0  0  0
 11 12  1  0  0  0  0
 11 13  1  0  0  0  0
 11 14  1  0  0  0  0
  9 10  1  0  0  0  0
  9 11  1  0  0  0  0
  9 24  1  0  0  0  0
  7  8  1  0  0  0  0
  7  9  1  0  0  0  0
 28 29  1  0  0  0  0
 28 30  1  0  0  0  0
 28 31  1  0  0  0  0
 26 27  1  0  0  0  0
 26 28  1  0  0  0  0
M  END
$$$$
default_name
  -OEChem-02102213163D

 31 30  0     1  0  0  0  0  0999 V2000
   -3.5895   -3.5013    1.1082 H   0  0  0  0  0  0  0  0  0  0  0  0
   -3.5145   -2.5363    0.6082 C   0  0  0  0  0  0  0  0  0  0  0  0
   -4.2285   -1.8413    1.0452 H   0  0  0  0  0  0  0  0  0  0  0  0
   -3.7155   -2.6583   -0.4538 H   0  0  0  0  0  0  0  0  0  0  0  0
   -2.1155   -1.9963    0.7922 C   0  0  0  0  0  0  0  0  0  0  0  0
   -1.2875   -2.6383    1.4252 O   0  0  0  0  0  0  0  0  0  0  0  0
   -1.8575   -0.8123    0.2402 N   0  0  0  0  0  0  0  0  0  0  0  0
   -2.6005   -0.3333   -0.2478 H   0  0  0  0  0  0  0  0  0  0  0  0
   -0.5675   -0.1203    0.3102 C   0  0  1  0  0  0  0  0  0  0  0  0
    0.0191   -0.5718    1.1110 H   0  0  0  0  0  0  0  0  0  0  0  0
    0.1724   -0.3238   -1.0286 C   0  0  0  0  0  0  0  0  0  0  0  0
    0.3904    0.6556   -1.4588 H   0  0  0  0  0  0  0  0  0  0  0  0
    1.1263   -0.8115   -0.8161 H   0  0  0  0  0  0  0  0  0  0  0  0
   -0.5708   -1.1642   -2.0833 C   0  0  0  0  0  0  0  0  0  0  0  0
   -0.9870   -0.5096   -2.8491 H   0  0  0  0  0  0  0  0  0  0  0  0
    0.3434   -2.1947   -2.7521 C   0  0  0  0  0  0  0  0  0  0  0  0
    0.7808   -2.8481   -1.9960 H   0  0  0  0  0  0  0  0  0  0  0  0
   -0.2342   -2.7976   -3.4532 H   0  0  0  0  0  0  0  0  0  0  0  0
    1.1427   -1.7007   -3.3003 H   0  0  0  0  0  0  0  0  0  0  0  0
   -1.7268   -1.9153   -1.4238 C   0  0  0  0  0  0  0  0  0  0  0  0
   -2.4129   -1.2031   -0.9655 H   0  0  0  0  0  0  0  0  0  0  0  0
   -2.2715   -2.4893   -2.1734 H   0  0  0  0  0  0  0  0  0  0  0  0
   -1.3466   -2.5925   -0.6582 H   0  0  0  0  0  0  0  0  0  0  0  0
   -0.7793    1.3659    0.6455 C   0  0  0  0  0  0  0  0  0  0  0  0
   -1.6464    2.0125    0.0623 O   0  0  0  0  0  0  0  0  0  0  0  0
    0.0189    1.9059    1.5756 N   0  0  0  0  0  0  0  0  0  0  0  0
    0.7024    1.3094    2.0137 H   0  0  0  0  0  0  0  0  0  0  0  0
   -0.0451    3.3046    1.9929 C   0  0  0  0  0  0  0  0  0  0  0  0
   -1.0415    3.5286    2.3805 H   0  0  0  0  0  0  0  0  0  0  0  0
    0.6954    3.5023    2.7695 H   0  0  0  0  0  0  0  0  0  0  0  0
    0.1474    3.9536    1.1372 H   0  0  0  0  0  0  0  0  0  0  0  0
  5  6  2  0  0  0  0
  5  7  1  0  0  0  0
  2  3  1  0  0  0  0
  2  4  1  0  0  0  0
  2  5  1  0  0  0  0
  1  2  1  0  0  0  0
 24 25  2  0  0  0  0
 24 26  1  0  0  0  0
 20 21  1  0  0  0  0
 20 22  1  0  0  0  0
 20 23  1  0  0  0  0
 16 17  1  0  0  0  0
 16 18  1  0  0  0  0
 16 19  1  0  0  0  0
 14 15  1  0  0  0  0
 14 16  1  0  0  0  0
 14 20  1  0  0  0  0
 11 12  1  0  0  0  0
 11 13  1  0  0  0  0
 11 14  1  0  0  0  0
  9 10  1  0  0  0  0
  9 11  1  0  0  0  0
  9 24  1  0  0  0  0
  7  8  1  0  0  0  0
  7  9  1  0  0  0  0
 28 29  1  0  0  0  0
 28 30  1  0  0  0  0
 28 31  1  0  0  0  0
 26 27  1  0  0  0  0
 26 28  1  0  0  0  0
M  END
$$$$
default_name
  -OEChem-02102213163D

 31 30  0     1  0  0  0  0  0999 V2000
   -3.5895   -3.5013    1.1082 H   0  0  0  0  0  0  0  0  0  0  0  0
   -3.5145   -2.5363    0.6082 C   0  0  0  0  0  0  0  0  0  0  0  0
   -4.2285   -1.8413    1.0452 H   0  0  0  0  0  0  0  0  0  0  0  0
   -3.7155   -2.6583   -0.4538 H   0  0  0  0  0  0  0  0  0  0  0  0
   -2.1155   -1.9963    0.7922 C   0  0  0  0  0  0  0  0  0  0  0  0
   -1.2875   -2.6383    1.4252 O   0  0  0  0  0  0  0  0  0  0  0  0
   -1.8575   -0.8123    0.2402 N   0  0  0  0  0  0  0  0  0  0  0  0
   -2.6005   -0.3333   -0.2478 H   0  0  0  0  0  0  0  0  0  0  0  0
   -0.5675   -0.1203    0.3102 C   0  0  1  0  0  0  0  0  0  0  0  0
    0.0191   -0.5718    1.1110 H   0  0  0  0  0  0  0  0  0  0  0  0
    0.1724   -0.3238   -1.0286 C   0  0  0  0  0  0  0  0  0  0  0  0
    0.3904    0.6556   -1.4588 H   0  0  0  0  0  0  0  0  0  0  0  0
    1.1263   -0.8115   -0.8161 H   0  0  0  0  0  0  0  0  0  0  0  0
   -0.5708   -1.1642   -2.0833 C   0  0  0  0  0  0  0  0  0  0  0  0
   -0.7546   -0.5606   -2.9721 H   0  0  0  0  0  0  0  0  0  0  0  0
    0.2145   -2.4160   -2.4850 C   0  0  0  0  0  0  0  0  0  0  0  0
    0.4205   -3.0232   -1.6025 H   0  0  0  0  0  0  0  0  0  0  0  0
   -0.3691   -3.0038   -3.1939 H   0  0  0  0  0  0  0  0  0  0  0  0
    1.1562   -2.1438   -2.9567 H   0  0  0  0  0  0  0  0  0  0  0  0
   -1.9223   -1.6120   -1.5278 C   0  0  0  0  0  0  0  0  0  0  0  0
   -2.5173   -0.7383   -1.2623 H   0  0  0  0  0  0  0  0  0  0  0  0
   -2.4622   -2.1838   -2.2825 H   0  0  0  0  0  0  0  0  0  0  0  0
   -1.7776   -2.2316   -0.6420 H   0  0  0  0  0  0  0  0  0  0  0  0
   -0.7793    1.3659    0.6455 C   0  0  0  0  0  0  0  0  0  0  0  0
   -1.6464    2.0125    0.0623 O   0  0  0  0  0  0  0  0  0  0  0  0
    0.0189    1.9059    1.5756 N   0  0  0  0  0  0  0  0  0  0  0  0
    0.7024    1.3094    2.0137 H   0  0  0  0  0  0  0  0  0  0  0  0
   -0.0451    3.3046    1.9929 C   0  0  0  0  0  0  0  0  0  0  0  0
   -1.0415    3.5286    2.3805 H   0  0  0  0  0  0  0  0  0  0  0  0
    0.6954    3.5023    2.7695 H   0  0  0  0  0  0  0  0  0  0  0  0
    0.1474    3.9536    1.1372 H   0  0  0  0  0  0  0  0  0  0  0  0
  5  6  2  0  0  0  0
  5  7  1  0  0  0  0
  2  3  1  0  0  0  0
  2  4  1  0  0  0  0
  2  5  1  0  0  0  0
  1  2  1  0  0  0  0
 24 25  2  0  0  0  0
 24 26  1  0  0  0  0
 20 21  1  0  0  0  0
 20 22  1  0  0  0  0
 20 23  1  0  0  0  0
 16 17  1  0  0  0  0
 16 18  1  0  0  0  0
 16 19  1  0  0  0  0
 14 15  1  0  0  0  0
 14 16  1  0  0  0  0
 14 20  1  0  0  0  0
 11 12  1  0  0  0  0
 11 13  1  0  0  0  0
 11 14  1  0  0  0  0
  9 10  1  0  0  0  0
  9 11  1  0  0  0  0
  9 24  1  0  0  0  0
  7  8  1  0  0  0  0
  7  9  1  0  0  0  0
 28 29  1  0  0  0  0
 28 30  1  0  0  0  0
 28 31  1  0  0  0  0
 26 27  1  0  0  0  0
 26 28  1  0  0  0  0
M  END
$$$$
default_name
  -OEChem-02102213163D

 31 30  0     1  0  0  0  0  0999 V2000
   -3.5895   -3.5013    1.1082 H   0  0  0  0  0  0  0  0  0  0  0  0
   -3.5145   -2.5363    0.6082 C   0  0  0  0  0  0  0  0  0  0  0  0
   -4.2285   -1.8413    1.0452 H   0  0  0  0  0  0  0  0  0  0  0  0
   -3.7155   -2.6583   -0.4538 H   0  0  0  0  0  0  0  0  0  0  0  0
   -2.1155   -1.9963    0.7922 C   0  0  0  0  0  0  0  0  0  0  0  0
   -1.2875   -2.6383    1.4252 O   0  0  0  0  0  0  0  0  0  0  0  0
   -1.8575   -0.8123    0.2402 N   0  0  0  0  0  0  0  0  0  0  0  0
   -2.6005   -0.3333   -0.2478 H   0  0  0  0  0  0  0  0  0  0  0  0
   -0.5675   -0.1203    0.3102 C   0  0  1  0  0  0  0  0  0  0  0  0
    0.0191   -0.5718    1.1110 H   0  0  0  0  0  0  0  0  0  0  0  0
    0.1724   -0.3238   -1.0286 C   0  0  0  0  0  0  0  0  0  0  0  0
    0.3904    0.6556   -1.4588 H   0  0  0  0  0  0  0  0  0  0  0  0
    1.1263   -0.8115   -0.8161 H   0  0  0  0  0  0  0  0  0  0  0  0
   -0.5708   -1.1642   -2.0833 C   0  0  0  0  0  0  0  0  0  0  0  0
   -0.5219   -0.6665   -3.0518 H   0  0  0  0  0  0  0  0  0  0  0  0
    0.0130   -2.5735   -2.2175 C   0  0  0  0  0  0  0  0  0  0  0  0
   -0.0142   -3.0794   -1.2514 H   0  0  0  0  0  0  0  0  0  0  0  0
   -0.5727   -3.1466   -2.9366 H   0  0  0  0  0  0  0  0  0  0  0  0
    1.0421   -2.5313   -2.5676 H   0  0  0  0  0  0  0  0  0  0  0  0
   -2.0425   -1.2974   -1.6937 C   0  0  0  0  0  0  0  0  0  0  0  0
   -2.4939   -0.3079   -1.6219 H   0  0  0  0  0  0  0  0  0  0  0  0
   -2.5768   -1.8685   -2.4530 H   0  0  0  0  0  0  0  0  0  0  0  0
   -2.1323   -1.8045   -0.7324 H   0  0  0  0  0  0  0  0  0  0  0  0
   -0.7793    1.3659    0.6455 C   0  0  0  0  0  0  0  0  0  0  0  0
   -1.6464    2.0125    0.0623 O   0  0  0  0  0  0  0  0  0  0  0  0
    0.0189    1.9059    1.5756 N   0  0  0  0  0  0  0  0  0  0  0  0
    0.7024    1.3094    2.0137 H   0  0  0  0  0  0  0  0  0  0  0  0
   -0.0451    3.3046    1.9929 C   0  0  0  0  0  0  0  0  0  0  0  0
   -1.0415    3.5286    2.3805 H   0  0  0  0  0  0  0  0  0  0  0  0
    0.6954    3.5023    2.7695 H   0  0  0  0  0  0  0  0  0  0  0  0
    0.1474    3.9536    1.1372 H   0  0  0  0  0  0  0  0  0  0  0  0
  5  6  2  0  0  0  0
  5  7  1  0  0  0  0
  2  3  1  0  0  0  0
  2  4  1  0  0  0  0
  2  5  1  0  0  0  0
  1  2  1  0  0  0  0
 24 25  2  0  0  0  0
 24 26  1  0  0  0  0
 20 21  1  0  0  0  0
 20 22  1  0  0  0  0
 20 23  1  0  0  0  0
 16 17  1  0  0  0  0
 16 18  1  0  0  0  0
 16 19  1  0  0  0  0
 14 15  1  0  0  0  0
 14 16  1  0  0  0  0
 14 20  1  0  0  0  0
 11 12  1  0  0  0  0
 11 13  1  0  0  0  0
 11 14  1  0  0  0  0
  9 10  1  0  0  0  0
  9 11  1  0  0  0  0
  9 24  1  0  0  0  0
  7  8  1  0  0  0  0
  7  9  1  0  0  0  0
 28 29  1  0  0  0  0
 28 30  1  0  0  0  0
 28 31  1  0  0  0  0
 26 27  1  0  0  0  0
 26 28  1  0  0  0  0
M  END
$$$$
default_name
  -OEChem-02102213163D

 31 30  0     1  0  0  0  0  0999 V2000
   -3.5895   -3.5013    1.1082 H   0  0  0  0  0  0  0  0  0  0  0  0
   -3.5145   -2.5363    0.6082 C   0  0  0  0  0  0  0  0  0  0  0  0
   -4.2285   -1.8413    1.0452 H   0  0  0  0  0  0  0  0  0  0  0  0
   -3.7155   -2.6583   -0.4538 H   0  0  0  0  0  0  0  0  0  0  0  0
   -2.1155   -1.9963    0.7922 C   0  0  0  0  0  0  0  0  0  0  0  0
   -1.2875   -2.6383    1.4252 O   0  0  0  0  0  0  0  0  0  0  0  0
   -1.8575   -0.8123    0.2402 N   0  0  0  0  0  0  0  0  0  0  0  0
   -2.6005   -0.3333   -0.2478 H   0  0  0  0  0  0  0  0  0  0  0  0
   -0.5675   -0.1203    0.3102 C   0  0  1  0  0  0  0  0  0  0  0  0
    0.0191   -0.5718    1.1110 H   0  0  0  0  0  0  0  0  0  0  0  0
    0.1724   -0.3238   -1.0286 C   0  0  0  0  0  0  0  0  0  0  0  0
    0.3904    0.6556   -1.4588 H   0  0  0  0  0  0  0  0  0  0  0  0
    1.1263   -0.8115   -0.8161 H   0  0  0  0  0  0  0  0  0  0  0  0
   -0.5708   -1.1642   -2.0833 C   0  0  0  0  0  0  0  0  0  0  0  0
   -0.3046   -0.8200   -3.0826 H   0  0  0  0  0  0  0  0  0  0  0  0
   -0.2473   -2.6566   -1.9679 C   0  0  0  0  0  0  0  0  0  0  0  0
   -0.4936   -3.0128   -0.9667 H   0  0  0  0  0  0  0  0  0  0  0  0
   -0.8309   -3.2164   -2.6990 H   0  0  0  0  0  0  0  0  0  0  0  0
    0.8083   -2.8367   -2.1595 H   0  0  0  0  0  0  0  0  0  0  0  0
   -2.0795   -0.9929   -1.9103 C   0  0  0  0  0  0  0  0  0  0  0  0
   -2.3441    0.0588   -2.0196 H   0  0  0  0  0  0  0  0  0  0  0  0
   -2.6075   -1.5650   -2.6732 H   0  0  0  0  0  0  0  0  0  0  0  0
   -2.3863   -1.3404   -0.9231 H   0  0  0  0  0  0  0  0  0  0  0  0
   -0.7793    1.3659    0.6455 C   0  0  0  0  0  0  0  0  0  0  0  0
   -1.6464    2.0125    0.0623 O   0  0  0  0  0  0  0  0  0  0  0  0
    0.0189    1.9059    1.5756 N   0  0  0  0  0  0  0  0  0  0  0  0
    0.7024    1.3094    2.0137 H   0  0  0  0  0  0  0  0  0  0  0  0
   -0.0451    3.3046    1.9929 C   0  0  0  0  0  0  0  0  0  0  0  0
   -1.0415    3.5286    2.3805 H   0  0  0  0  0  0  0  0  0  0  0  0
    0.6954    3.5023    2.7695 H   0  0  0  0  0  0  0  0  0  0  0  0
    0.1474    3.9536    1.1372 H   0  0  0  0  0  0  0  0  0  0  0  0
  5  6  2  0  0  0  0
  5  7  1  0  0  0  0
  2  3  1  0  0  0  0
  2  4  1  0  0  0  0
  2  5  1  0  0  0  0
  1  2  1  0  0  0  0
 24 25  2  0  0  0  0
 24 26  1  0  0  0  0
 20 21  1  0  0  0  0
 20 22  1  0  0  0  0
 20 23  1  0  0  0  0
 16 17  1  0  0  0  0
 16 18  1  0  0  0  0
 16 19  1  0  0  0  0
 14 15  1  0  0  0  0
 14 16  1  0  0  0  0
 14 20  1  0  0  0  0
 11 12  1  0  0  0  0
 11 13  1  0  0  0  0
 11 14  1  0  0  0  0
  9 10  1  0  0  0  0
  9 11  1  0  0  0  0
  9 24  1  0  0  0  0
  7  8  1  0  0  0  0
  7  9  1  0  0  0  0
 28 29  1  0  0  0  0
 28 30  1  0  0  0  0
 28 31  1  0  0  0  0
 26 27  1  0  0  0  0
 26 28  1  0  0  0  0
M  END
$$$$
default_name
  -OEChem-02102213163D

 31 30  0     1  0  0  0  0  0999 V2000
   -3.5895   -3.5013    1.1082 H   0  0  0  0  0  0  0  0  0  0  0  0
   -3.5145   -2.5363    0.6082 C   0  0  0  0  0  0  0  0  0  0  0  0
   -4.2285   -1.8413    1.0452 H   0  0  0  0  0  0  0  0  0  0  0  0
   -3.7155   -2.6583   -0.4538 H   0  0  0  0  0  0  0  0  0  0  0  0
   -2.1155   -1.9963    0.7922 C   0  0  0  0  0  0  0  0  0  0  0  0
   -1.2875   -2.6383    1.4252 O   0  0  0  0  0  0  0  0  0  0  0  0
   -1.8575   -0.8123    0.2402 N   0  0  0  0  0  0  0  0  0  0  0  0
   -2.6005   -0.3333   -0.2478 H   0  0  0  0  0  0  0  0  0  0  0  0
   -0.5675   -0.1203    0.3102 C   0  0  1  0  0  0  0  0  0  0  0  0
    0.0191   -0.5718    1.1110 H   0  0  0  0  0  0  0  0  0  0  0  0
    0.1724   -0.3238   -1.0286 C   0  0  0  0  0  0  0  0  0  0  0  0
    0.3904    0.6556   -1.4588 H   0  0  0  0  0  0  0  0  0  0  0  0
    1.1263   -0.8115   -0.8161 H   0  0  0  0  0  0  0  0  0  0  0  0
   -0.5708   -1.1642   -2.0833 C   0  0  0  0  0  0  0  0  0  0  0  0
   -0.1175   -1.0106   -3.0626 H   0  0  0  0  0  0  0  0  0  0  0  0
   -0.5487   -2.6594   -1.7532 C   0  0  0  0  0  0  0  0  0  0  0  0
   -0.9851   -2.8278   -0.7677 H   0  0  0  0  0  0  0  0  0  0  0  0
   -1.1263   -3.2083   -2.4973 H   0  0  0  0  0  0  0  0  0  0  0  0
    0.4707   -3.0393   -1.7601 H   0  0  0  0  0  0  0  0  0  0  0  0
   -2.0307   -0.7192   -2.1627 C   0  0  0  0  0  0  0  0  0  0  0  0
   -2.0782    0.3368   -2.4284 H   0  0  0  0  0  0  0  0  0  0  0  0
   -2.5522   -1.2938   -2.9282 H   0  0  0  0  0  0  0  0  0  0  0  0
   -2.5225   -0.8710   -1.2012 H   0  0  0  0  0  0  0  0  0  0  0  0
   -0.7793    1.3659    0.6455 C   0  0  0  0  0  0  0  0  0  0  0  0
   -1.6464    2.0125    0.0623 O   0  0  0  0  0  0  0  0  0  0  0  0
    0.0189    1.9059    1.5756 N   0  0  0  0  0  0  0  0  0  0  0  0
    0.7024    1.3094    2.0137 H   0  0  0  0  0  0  0  0  0  0  0  0
   -0.0451    3.3046    1.9929 C   0  0  0  0  0  0  0  0  0  0  0  0
   -1.0415    3.5286    2.3805 H   0  0  0  0  0  0  0  0  0  0  0  0
    0.6954    3.5023    2.7695 H   0  0  0  0  0  0  0  0  0  0  0  0
    0.1474    3.9536    1.1372 H   0  0  0  0  0  0  0  0  0  0  0  0
  5  6  2  0  0  0  0
  5  7  1  0  0  0  0
  2  3  1  0  0  0  0
  2  4  1  0  0  0  0
  2  5  1  0  0  0  0
  1  2  1  0  0  0  0
 24 25  2  0  0  0  0
 24 26  1  0  0  0  0
 20 21  1  0  0  0  0
 20 22  1  0  0  0  0
 20 23  1  0  0  0  0
 16 17  1  0  0  0  0
 16 18  1  0  0  0  0
 16 19  1  0  0  0  0
 14 15  1  0  0  0  0
 14 16  1  0  0  0  0
 14 20  1  0  0  0  0
 11 12  1  0  0  0  0
 11 13  1  0  0  0  0
 11 14  1  0  0  0  0
  9 10  1  0  0  0  0
  9 11  1  0  0  0  0
  9 24  1  0  0  0  0
  7  8  1  0  0  0  0
  7  9  1  0  0  0  0
 28 29  1  0  0  0  0
 28 30  1  0  0  0  0
 28 31  1  0  0  0  0
 26 27  1  0  0  0  0
 26 28  1  0  0  0  0
M  END
$$$$
default_name
  -OEChem-02102213163D

 31 30  0     1  0  0  0  0  0999 V2000
   -3.5895   -3.5013    1.1082 H   0  0  0  0  0  0  0  0  0  0  0  0
   -3.5145   -2.5363    0.6082 C   0  0  0  0  0  0  0  0  0  0  0  0
   -4.2285   -1.8413    1.0452 H   0  0  0  0  0  0  0  0  0  0  0  0
   -3.7155   -2.6583   -0.4538 H   0  0  0  0  0  0  0  0  0  0  0  0
   -2.1155   -1.9963    0.7922 C   0  0  0  0  0  0  0  0  0  0  0  0
   -1.2875   -2.6383    1.4252 O   0  0  0  0  0  0  0  0  0  0  0  0
   -1.8575   -0.8123    0.2402 N   0  0  0  0  0  0  0  0  0  0  0  0
   -2.6005   -0.3333   -0.2478 H   0  0  0  0  0  0  0  0  0  0  0  0
   -0.5675   -0.1203    0.3102 C   0  0  1  0  0  0  0  0  0  0  0  0
    0.0191   -0.5718    1.1110 H   0  0  0  0  0  0  0  0  0  0  0  0
    0.1724   -0.3238   -1.0286 C   0  0  0  0  0  0  0  0  0  0  0  0
    0.3904    0.6556   -1.4588 H   0  0  0  0  0  0  0  0  0  0  0  0
    1.1263   -0.8115   -0.8161 H   0  0  0  0  0  0  0  0  0  0  0  0
   -0.5708   -1.1642   -2.0833 C   0  0  0  0  0  0  0  0  0  0  0  0
    0.0265   -1.2254   -2.9929 H   0  0  0  0  0  0  0  0  0  0  0  0
   -0.8707   -2.5819   -1.5880 C   0  0  0  0  0  0  0  0  0  0  0  0
   -1.4551   -2.5372   -0.6680 H   0  0  0  0  0  0  0  0  0  0  0  0
   -1.4387   -3.1229   -2.3452 H   0  0  0  0  0  0  0  0  0  0  0  0
    0.0522   -3.1253   -1.3967 H   0  0  0  0  0  0  0  0  0  0  0  0
   -1.8993   -0.4951   -2.4339 C   0  0  0  0  0  0  0  0  0  0  0  0
   -1.7144    0.5070   -2.8204 H   0  0  0  0  0  0  0  0  0  0  0  0
   -2.4148   -1.0736   -3.2005 H   0  0  0  0  0  0  0  0  0  0  0  0
   -2.5315   -0.4281   -1.5478 H   0  0  0  0  0  0  0  0  0  0  0  0
   -0.7793    1.3659    0.6455 C   0  0  0  0  0  0  0  0  0  0  0  0
   -1.6464    2.0125    0.0623 O   0  0  0  0  0  0  0  0  0  0  0  0
    0.0189    1.9059    1.5756 N   0  0  0  0  0  0  0  0  0  0  0  0
    0.7024    1.3094    2.0137 H   0  0  0  0  0  0  0  0  0  0  0  0
   -0.0451    3.3046    1.9929 C   0  0  0  0  0  0  0  0  0  0  0  0
   -1.0415    3.5286    2.3805 H   0  0  0  0  0  0  0  0  0  0  0  0
    0.6954    3.5023    2.7695 H   0  0  0  0  0  0  0  0  0  0  0  0
    0.1474    3.9536    1.1372 H   0  0  0  0  0  0  0  0  0  0  0  0
  5  6  2  0  0  0  0
  5  7  1  0  0  0  0
  2  3  1  0  0  0  0
  2  4  1  0  0  0  0
  2  5  1  0  0  0  0
  1  2  1  0  0  0  0
 24 25  2  0  0  0  0
 24 26  1  0  0  0  0
 20 21  1  0  0  0  0
 20 22  1  0  0  0  0
 20 23  1  0  0  0  0
 16 17  1  0  0  0  0
 16 18  1  0  0  0  0
 16 19  1  0  0  0  0
 14 15  1  0  0  0  0
 14 16  1  0  0  0  0
 14 20  1  0  0  0  0
 11 12  1  0  0  0  0
 11 13  1  0  0  0  0
 11 14  1  0  0  0  0
  9 10  1  0  0  0  0
  9 11  1  0  0  0  0
  9 24  1  0  0  0  0
  7  8  1  0  0  0  0
  7  9  1  0  0  0  0
 28 29  1  0  0  0  0
 28 30  1  0  0  0  0
 28 31  1  0  0  0  0
 26 27  1  0  0  0  0
 26 28  1  0  0  0  0
M  END
$$$$
default_name
  -OEChem-02102213163D

 31 30  0     1  0  0  0  0  0999 V2000
   -3.5895   -3.5013    1.1082 H   0  0  0  0  0  0  0  0  0  0  0  0
   -3.5145   -2.5363    0.6082 C   0  0  0  0  0  0  0  0  0  0  0  0
   -4.2285   -1.8413    1.0452 H   0  0  0  0  0  0  0  0  0  0  0  0
   -3.7155   -2.6583   -0.4538 H   0  0  0  0  0  0  0  0  0  0  0  0
   -2.1155   -1.9963    0.7922 C   0  0  0  0  0  0  0  0  0  0  0  0
   -1.2875   -2.6383    1.4252 O   0  0  0  0  0  0  0  0  0  0  0  0
   -1.8575   -0.8123    0.2402 N   0  0  0  0  0  0  0  0  0  0  0  0
   -2.6005   -0.3333   -0.2478 H   0  0  0  0  0  0  0  0  0  0  0  0
   -0.5675   -0.1203    0.3102 C   0  0  1  0  0  0  0  0  0  0  0  0
    0.0191   -0.5718    1.1110 H   0  0  0  0  0  0  0  0  0  0  0  0
    0.1724   -0.3238   -1.0286 C   0  0  0  0  0  0  0  0  0  0  0  0
    0.3904    0.6556   -1.4588 H   0  0  0  0  0  0  0  0  0  0  0  0
    1.1263   -0.8115   -0.8161 H   0  0  0  0  0  0  0  0  0  0  0  0
   -0.5708   -1.1642   -2.0833 C   0  0  0  0  0  0  0  0  0  0  0  0
    0.1178   -1.4497   -2.8785 H   0  0  0  0  0  0  0  0  0  0  0  0
   -1.1913   -2.4294   -1.4837 C   0  0  0  0  0  0  0  0  0  0  0  0
   -1.8717   -2.1607   -0.6744 H   0  0  0  0  0  0  0  0  0  0  0  0
   -1.7468   -2.9660   -2.2531 H   0  0  0  0  0  0  0  0  0  0  0  0
   -0.4186   -3.0887   -1.0941 H   0  0  0  0  0  0  0  0  0  0  0  0
   -1.6944   -0.3358   -2.7052 C   0  0  0  0  0  0  0  0  0  0  0  0
   -1.2774    0.5580   -3.1690 H   0  0  0  0  0  0  0  0  0  0  0  0
   -2.2045   -0.9192   -3.4717 H   0  0  0  0  0  0  0  0  0  0  0  0
   -2.4128   -0.0420   -1.9391 H   0  0  0  0  0  0  0  0  0  0  0  0
   -0.7793    1.3659    0.6455 C   0  0  0  0  0  0  0  0  0  0  0  0
   -1.6464    2.0125    0.0623 O   0  0  0  0  0  0  0  0  0  0  0  0
    0.0189    1.9059    1.5756 N   0  0  0  0  0  0  0  0  0  0  0  0
    0.7024    1.3094    2.0137 H   0  0  0  0  0  0  0  0  0  0  0  0
   -0.0451    3.3046    1.9929 C   0  0  0  0  0  0  0  0  0  0  0  0
   -1.0415    3.5286    2.3805 H   0  0  0  0  0  0  0  0  0  0  0  0
    0.6954    3.5023    2.7695 H   0  0  0  0  0  0  0  0  0  0  0  0
    0.1474    3.9536    1.1372 H   0  0  0  0  0  0  0  0  0  0  0  0
  5  6  2  0  0  0  0
  5  7  1  0  0  0  0
  2  3  1  0  0  0  0
  2  4  1  0  0  0  0
  2  5  1  0  0  0  0
  1  2  1  0  0  0  0
 24 25  2  0  0  0  0
 24 26  1  0  0  0  0
 20 21  1  0  0  0  0
 20 22  1  0  0  0  0
 20 23  1  0  0  0  0
 16 17  1  0  0  0  0
 16 18  1  0  0  0  0
 16 19  1  0  0  0  0
 14 15  1  0  0  0  0
 14 16  1  0  0  0  0
 14 20  1  0  0  0  0
 11 12  1  0  0  0  0
 11 13  1  0  0  0  0
 11 14  1  0  0  0  0
  9 10  1  0  0  0  0
  9 11  1  0  0  0  0
  9 24  1  0  0  0  0
  7  8  1  0  0  0  0
  7  9  1  0  0  0  0
 28 29  1  0  0  0  0
 28 30  1  0  0  0  0
 28 31  1  0  0  0  0
 26 27  1  0  0  0  0
 26 28  1  0  0  0  0
M  END
$$$$
default_name
  -OEChem-02102213163D

 31 30  0     1  0  0  0  0  0999 V2000
   -3.5895   -3.5013    1.1082 H   0  0  0  0  0  0  0  0  0  0  0  0
   -3.5145   -2.5363    0.6082 C   0  0  0  0  0  0  0  0  0  0  0  0
   -4.2285   -1.8413    1.0452 H   0  0  0  0  0  0  0  0  0  0  0  0
   -3.7155   -2.6583   -0.4538 H   0  0  0  0  0  0  0  0  0  0  0  0
   -2.1155   -1.9963    0.7922 C   0  0  0  0  0  0  0  0  0  0  0  0
   -1.2875   -2.6383    1.4252 O   0  0  0  0  0  0  0  0  0  0  0  0
   -1.8575   -0.8123    0.2402 N   0  0  0  0  0  0  0  0  0  0  0  0
   -2.6005   -0.3333   -0.2478 H   0  0  0  0  0  0  0  0  0  0  0  0
   -0.5675   -0.1203    0.3102 C   0  0  1  0  0  0  0  0  0  0  0  0
    0.0191   -0.5718    1.1110 H   0  0  0  0  0  0  0  0  0  0  0  0
    0.1724   -0.3238   -1.0286 C   0  0  0  0  0  0  0  0  0  0  0  0
    0.3904    0.6556   -1.4588 H   0  0  0  0  0  0  0  0  0  0  0  0
    1.1263   -0.8115   -0.8161 H   0  0  0  0  0  0  0  0  0  0  0  0
   -0.5708   -1.1642   -2.0833 C   0  0  0  0  0  0  0  0  0  0  0  0
    0.1500   -1.6682   -2.7270 H   0  0  0  0  0  0  0  0  0  0  0  0
   -1.4887   -2.2121   -1.4472 C   0  0  0  0  0  0  0  0  0  0  0  0
   -2.2064   -1.7240   -0.7865 H   0  0  0  0  0  0  0  0  0  0  0  0
   -2.0296   -2.7484   -2.2272 H   0  0  0  0  0  0  0  0  0  0  0  0
   -0.9096   -2.9321   -0.8728 H   0  0  0  0  0  0  0  0  0  0  0  0
   -1.4299   -0.2522   -2.9583 C   0  0  0  0  0  0  0  0  0  0  0  0
   -0.7971    0.4863   -3.4504 H   0  0  0  0  0  0  0  0  0  0  0  0
   -1.9357   -0.8413   -3.7232 H   0  0  0  0  0  0  0  0  0  0  0  0
   -2.1744    0.2610   -2.3485 H   0  0  0  0  0  0  0  0  0  0  0  0
   -0.7793    1.3659    0.6455 C   0  0  0  0  0  0  0  0  0  0  0  0
   -1.6464    2.0125    0.0623 O   0  0  0  0  0  0  0  0  0  0  0  0
    0.0189    1.9059    1.5756 N   0  0  0  0  0  0  0  0  0  0  0  0
    0.7024    1.3094    2.0137 H   0  0  0  0  0  0  0  0  0  0  0  0
   -0.0451    3.3046    1.9929 C   0  0  0  0  0  0  0  0  0  0  0  0
   -1.0415    3.5286    2.3805 H   0  0  0  0  0  0  0  0  0  0  0  0
    0.6954    3.5023    2.7695 H   0  0  0  0  0  0  0  0  0  0  0  0
    0.1474    3.9536    1.1372 H   0  0  0  0  0  0  0  0  0  0  0  0
  5  6  2  0  0  0  0
  5  7  1  0  0  0  0
  2  3  1  0  0  0  0
  2  4  1  0  0  0  0
  2  5  1  0  0  0  0
  1  2  1  0  0  0  0
 24 25  2  0  0  0  0
 24 26  1  0  0  0  0
 20 21  1  0  0  0  0
 20 22  1  0  0  0  0
 20 23  1  0  0  0  0
 16 17  1  0  0  0  0
 16 18  1  0  0  0  0
 16 19  1  0  0  0  0
 14 15  1  0  0  0  0
 14 16  1  0  0  0  0
 14 20  1  0  0  0  0
 11 12  1  0  0  0  0
 11 13  1  0  0  0  0
 11 14  1  0  0  0  0
  9 10  1  0  0  0  0
  9 11  1  0  0  0  0
  9 24  1  0  0  0  0
  7  8  1  0  0  0  0
  7  9  1  0  0  0  0
 28 29  1  0  0  0  0
 28 30  1  0  0  0  0
 28 31  1  0  0  0  0
 26 27  1  0  0  0  0
 26 28  1  0  0  0  0
M  END
$$$$
default_name
  -OEChem-02102213163D

 31 30  0     1  0  0  0  0  0999 V2000
   -3.5895   -3.5013    1.1082 H   0  0  0  0  0  0  0  0  0  0  0  0
   -3.5145   -2.5363    0.6082 C   0  0  0  0  0  0  0  0  0  0  0  0
   -4.2285   -1.8413    1.0452 H   0  0  0  0  0  0  0  0  0  0  0  0
   -3.7155   -2.6583   -0.4538 H   0  0  0  0  0  0  0  0  0  0  0  0
   -2.1155   -1.9963    0.7922 C   0  0  0  0  0  0  0  0  0  0  0  0
   -1.2875   -2.6383    1.4252 O   0  0  0  0  0  0  0  0  0  0  0  0
   -1.8575   -0.8123    0.2402 N   0  0  0  0  0  0  0  0  0  0  0  0
   -2.6005   -0.3333   -0.2478 H   0  0  0  0  0  0  0  0  0  0  0  0
   -0.5675   -0.1203    0.3102 C   0  0  1  0  0  0  0  0  0  0  0  0
    0.0191   -0.5718    1.1110 H   0  0  0  0  0  0  0  0  0  0  0  0
    0.1724   -0.3238   -1.0286 C   0  0  0  0  0  0  0  0  0  0  0  0
    0.3904    0.6556   -1.4588 H   0  0  0  0  0  0  0  0  0  0  0  0
    1.1263   -0.8115   -0.8161 H   0  0  0  0  0  0  0  0  0  0  0  0
   -0.5708   -1.1642   -2.0833 C   0  0  0  0  0  0  0  0  0  0  0  0
    0.1209   -1.8661   -2.5489 H   0  0  0  0  0  0  0  0  0  0  0  0
   -1.7425   -1.9450   -1.4811 C   0  0  0  0  0  0  0  0  0  0  0  0
   -2.4365   -1.2568   -0.9966 H   0  0  0  0  0  0  0  0  0  0  0  0
   -2.2678   -2.4848   -2.2694 H   0  0  0  0  0  0  0  0  0  0  0  0
   -1.3874   -2.6661   -0.7481 H   0  0  0  0  0  0  0  0  0  0  0  0
   -1.1239   -0.2499   -3.1758 C   0  0  0  0  0  0  0  0  0  0  0  0
   -0.3061    0.2967   -3.6453 H   0  0  0  0  0  0  0  0  0  0  0  0
   -1.6267   -0.8451   -3.9380 H   0  0  0  0  0  0  0  0  0  0  0  0
   -1.8326    0.4603   -2.7482 H   0  0  0  0  0  0  0  0  0  0  0  0
   -0.7793    1.3659    0.6455 C   0  0  0  0  0  0  0  0  0  0  0  0
   -1.6464    2.0125    0.0623 O   0  0  0  0  0  0  0  0  0  0  0  0
    0.0189    1.9059    1.5756 N   0  0  0  0  0  0  0  0  0  0  0  0
    0.7024    1.3094    2.0137 H   0  0  0  0  0  0  0  0  0  0  0  0
   -0.0451    3.3046    1.9929 C   0  0  0  0  0  0  0  0  0  0  0  0
   -1.0415    3.5286    2.3805 H   0  0  0  0  0  0  0  0  0  0  0  0
    0.6954    3.5023    2.7695 H   0  0  0  0  0  0  0  0  0  0  0  0
    0.1474    3.9536    1.1372 H   0  0  0  0  0  0  0  0  0  0  0  0
  5  6  2  0  0  0  0
  5  7  1  0  0  0  0
  2  3  1  0  0  0  0
  2  4  1  0  0  0  0
  2  5  1  0  0  0  0
  1  2  1  0  0  0  0
 24 25  2  0  0  0  0
 24 26  1  0  0  0  0
 20 21  1  0  0  0  0
 20 22  1  0  0  0  0
 20 23  1  0  0  0  0
 16 17  1  0  0  0  0
 16 18  1  0  0  0  0
 16 19  1  0  0  0  0
 14 15  1  0  0  0  0
 14 16  1  0  0  0  0
 14 20  1  0  0  0  0
 11 12  1  0  0  0  0
 11 13  1  0  0  0  0
 11 14  1  0  0  0  0
  9 10  1  0  0  0  0
  9 11  1  0  0  0  0
  9 24  1  0  0  0  0
  7  8  1  0  0  0  0
  7  9  1  0  0  0  0
 28 29  1  0  0  0  0
 28 30  1  0  0  0  0
 28 31  1  0  0  0  0
 26 27  1  0  0  0  0
 26 28  1  0  0  0  0
M  END
$$$$
default_name
  -OEChem-02102213163D

 31 30  0     1  0  0  0  0  0999 V2000
   -3.5895   -3.5013    1.1082 H   0  0  0  0  0  0  0  0  0  0  0  0
   -3.5145   -2.5363    0.6082 C   0  0  0  0  0  0  0  0  0  0  0  0
   -4.2285   -1.8413    1.0452 H   0  0  0  0  0  0  0  0  0  0  0  0
   -3.7155   -2.6583   -0.4538 H   0  0  0  0  0  0  0  0  0  0  0  0
   -2.1155   -1.9963    0.7922 C   0  0  0  0  0  0  0  0  0  0  0  0
   -1.2875   -2.6383    1.4252 O   0  0  0  0  0  0  0  0  0  0  0  0
   -1.8575   -0.8123    0.2402 N   0  0  0  0  0  0  0  0  0  0  0  0
   -2.6005   -0.3333   -0.2478 H   0  0  0  0  0  0  0  0  0  0  0  0
   -0.5675   -0.1203    0.3102 C   0  0  1  0  0  0  0  0  0  0  0  0
    0.0191   -0.5718    1.1110 H   0  0  0  0  0  0  0  0  0  0  0  0
    0.1724   -0.3238   -1.0286 C   0  0  0  0  0  0  0  0  0  0  0  0
    0.3904    0.6556   -1.4588 H   0  0  0  0  0  0  0  0  0  0  0  0
    1.1263   -0.8115   -0.8161 H   0  0  0  0  0  0  0  0  0  0  0  0
   -0.5708   -1.1642   -2.0833 C   0  0  0  0  0  0  0  0  0  0  0  0
    0.0326   -2.0299   -2.3562 H   0  0  0  0  0  0  0  0  0  0  0  0
   -1.9356   -1.6463   -1.5831 C   0  0  0  0  0  0  0  0  0  0  0  0
   -2.5462   -0.7910   -1.2904 H   0  0  0  0  0  0  0  0  0  0  0  0
   -2.4452   -2.1932   -2.3767 H   0  0  0  0  0  0  0  0  0  0  0  0
   -1.8194   -2.3089   -0.7282 H   0  0  0  0  0  0  0  0  0  0  0  0
   -0.7971   -0.3291   -3.3429 C   0  0  0  0  0  0  0  0  0  0  0  0
    0.1622    0.0021   -3.7406 H   0  0  0  0  0  0  0  0  0  0  0  0
   -1.2986   -0.9304   -4.1013 H   0  0  0  0  0  0  0  0  0  0  0  0
   -1.4106    0.5422   -3.1108 H   0  0  0  0  0  0  0  0  0  0  0  0
   -0.7793    1.3659    0.6455 C   0  0  0  0  0  0  0  0  0  0  0  0
   -1.6464    2.0125    0.0623 O   0  0  0  0  0  0  0  0  0  0  0  0
    0.0189    1.9059    1.5756 N   0  0  0  0  0  0  0  0  0  0  0  0
    0.7024    1.3094    2.0137 H   0  0  0  0  0  0  0  0  0  0  0  0
   -0.0451    3.3046    1.9929 C   0  0  0  0  0  0  0  0  0  0  0  0
   -1.0415    3.5286    2.3805 H   0  0  0  0  0  0  0  0  0  0  0  0
    0.6954    3.5023    2.7695 H   0  0  0  0  0  0  0  0  0  0  0  0
    0.1474    3.9536    1.1372 H   0  0  0  0  0  0  0  0  0  0  0  0
  5  6  2  0  0  0  0
  5  7  1  0  0  0  0
  2  3  1  0  0  0  0
  2  4  1  0  0  0  0
  2  5  1  0  0  0  0
  1  2  1  0  0  0  0
 24 25  2  0  0  0  0
 24 26  1  0  0  0  0
 20 21  1  0  0  0  0
 20 22  1  0  0  0  0
 20 23  1  0  0  0  0
 16 17  1  0  0  0  0
 16 18  1  0  0  0  0
 16 19  1  0  0  0  0
 14 15  1  0  0  0  0
 14 16  1  0  0  0  0
 14 20  1  0  0  0  0
 11 12  1  0  0  0  0
 11 13  1  0  0  0  0
 11 14  1  0  0  0  0
  9 10  1  0  0  0  0
  9 11  1  0  0  0  0
  9 24  1  0  0  0  0
  7  8  1  0  0  0  0
  7  9  1  0  0  0  0
 28 29  1  0  0  0  0
 28 30  1  0  0  0  0
 28 31  1  0  0  0  0
 26 27  1  0  0  0  0
 26 28  1  0  0  0  0
M  END
$$$$
default_name
  -OEChem-02102213163D

 31 30  0     1  0  0  0  0  0999 V2000
   -3.5895   -3.5013    1.1082 H   0  0  0  0  0  0  0  0  0  0  0  0
   -3.5145   -2.5363    0.6082 C   0  0  0  0  0  0  0  0  0  0  0  0
   -4.2285   -1.8413    1.0452 H   0  0  0  0  0  0  0  0  0  0  0  0
   -3.7155   -2.6583   -0.4538 H   0  0  0  0  0  0  0  0  0  0  0  0
   -2.1155   -1.9963    0.7922 C   0  0  0  0  0  0  0  0  0  0  0  0
   -1.2875   -2.6383    1.4252 O   0  0  0  0  0  0  0  0  0  0  0  0
   -1.8575   -0.8123    0.2402 N   0  0  0  0  0  0  0  0  0  0  0  0
   -2.6005   -0.3333   -0.2478 H   0  0  0  0  0  0  0  0  0  0  0  0
   -0.5675   -0.1203    0.3102 C   0  0  1  0  0  0  0  0  0  0  0  0
    0.0191   -0.5718    1.1110 H   0  0  0  0  0  0  0  0  0  0  0  0
    0.1724   -0.3238   -1.0286 C   0  0  0  0  0  0  0  0  0  0  0  0
    0.3904    0.6556   -1.4588 H   0  0  0  0  0  0  0  0  0  0  0  0
    1.1263   -0.8115   -0.8161 H   0  0  0  0  0  0  0  0  0  0  0  0
   -0.5708   -1.1642   -2.0833 C   0  0  0  0  0  0  0  0  0  0  0  0
   -0.1089   -2.1483   -2.1621 H   0  0  0  0  0  0  0  0  0  0  0  0
   -2.0548   -1.3362   -1.7462 C   0  0  0  0  0  0  0  0  0  0  0  0
   -2.5282   -0.3583   -1.6479 H   0  0  0  0  0  0  0  0  0  0  0  0
   -2.5498   -1.8935   -2.5418 H   0  0  0  0  0  0  0  0  0  0  0  0
   -2.1761   -1.8849   -0.8147 H   0  0  0  0  0  0  0  0  0  0  0  0
   -0.4719   -0.4844   -3.4484 C   0  0  0  0  0  0  0  0  0  0  0  0
    0.5757   -0.3773   -3.7296 H   0  0  0  0  0  0  0  0  0  0  0  0
   -0.9737   -1.0913   -4.2020 H   0  0  0  0  0  0  0  0  0  0  0  0
   -0.9373    0.5013   -3.4118 H   0  0  0  0  0  0  0  0  0  0  0  0
   -0.7793    1.3659    0.6455 C   0  0  0  0  0  0  0  0  0  0  0  0
   -1.6464    2.0125    0.0623 O   0  0  0  0  0  0  0  0  0  0  0  0
    0.0189    1.9059    1.5756 N   0  0  0  0  0  0  0  0  0  0  0  0
    0.7024    1.3094    2.0137 H   0  0  0  0  0  0  0  0  0  0  0  0
   -0.0451    3.3046    1.9929 C   0  0  0  0  0  0  0  0  0  0  0  0
   -1.0415    3.5286    2.3805 H   0  0  0  0  0  0  0  0  0  0  0  0
    0.6954    3.5023    2.7695 H   0  0  0  0  0  0  0  0  0  0  0  0
    0.1474    3.9536    1.1372 H   0  0  0  0  0  0  0  0  0  0  0  0
  5  6  2  0  0  0  0
  5  7  1  0  0  0  0
  2  3  1  0  0  0  0
  2  4  1  0  0  0  0
  2  5  1  0  0  0  0
  1  2  1  0  0  0  0
 24 25  2  0  0  0  0
 24 26  1  0  0  0  0
 20 21  1  0  0  0  0
 20 22  1  0  0  0  0
 20 23  1  0  0  0  0
 16 17  1  0  0  0  0
 16 18  1  0  0  0  0
 16 19  1  0  0  0  0
 14 15  1  0  0  0  0
 14 16  1  0  0  0  0
 14 20  1  0  0  0  0
 11 12  1  0  0  0  0
 11 13  1  0  0  0  0
 11 14  1  0  0  0  0
  9 10  1  0  0  0  0
  9 11  1  0  0  0  0
  9 24  1  0  0  0  0
  7  8  1  0  0  0  0
  7  9  1  0  0  0  0
 28 29  1  0  0  0  0
 28 30  1  0  0  0  0
 28 31  1  0  0  0  0
 26 27  1  0  0  0  0
 26 28  1  0  0  0  0
M  END
$$$$
default_name
  -OEChem-02102213163D

 31 30  0     1  0  0  0  0  0999 V2000
   -3.5895   -3.5013    1.1082 H   0  0  0  0  0  0  0  0  0  0  0  0
   -3.5145   -2.5363    0.6082 C   0  0  0  0  0  0  0  0  0  0  0  0
   -4.2285   -1.8413    1.0452 H   0  0  0  0  0  0  0  0  0  0  0  0
   -3.7155   -2.6583   -0.4538 H   0  0  0  0  0  0  0  0  0  0  0  0
   -2.1155   -1.9963    0.7922 C   0  0  0  0  0  0  0  0  0  0  0  0
   -1.2875   -2.6383    1.4252 O   0  0  0  0  0  0  0  0  0  0  0  0
   -1.8575   -0.8123    0.2402 N   0  0  0  0  0  0  0  0  0  0  0  0
   -2.6005   -0.3333   -0.2478 H   0  0  0  0  0  0  0  0  0  0  0  0
   -0.5675   -0.1203    0.3102 C   0  0  1  0  0  0  0  0  0  0  0  0
    0.0191   -0.5718    1.1110 H   0  0  0  0  0  0  0  0  0  0  0  0
    0.1724   -0.3238   -1.0286 C   0  0  0  0  0  0  0  0  0  0  0  0
    0.3904    0.6556   -1.4588 H   0  0  0  0  0  0  0  0  0  0  0  0
    1.1263   -0.8115   -0.8161 H   0  0  0  0  0  0  0  0  0  0  0  0
   -0.5708   -1.1642   -2.0833 C   0  0  0  0  0  0  0  0  0  0  0  0
   -0.2940   -2.2133   -1.9798 H   0  0  0  0  0  0  0  0  0  0  0  0
   -2.0918   -1.0359   -1.9593 C   0  0  0  0  0  0  0  0  0  0  0  0
   -2.3835    0.0118   -2.0448 H   0  0  0  0  0  0  0  0  0  0  0  0
   -2.5743   -1.6062   -2.7535 H   0  0  0  0  0  0  0  0  0  0  0  0
   -2.4333   -1.4229   -1.0017 H   0  0  0  0  0  0  0  0  0  0  0  0
   -0.1704   -0.7052   -3.4848 C   0  0  0  0  0  0  0  0  0  0  0  0
    0.9063   -0.8158   -3.6133 H   0  0  0  0  0  0  0  0  0  0  0  0
   -0.6742   -1.3169   -4.2333 H   0  0  0  0  0  0  0  0  0  0  0  0
   -0.4448    0.3402   -3.6305 H   0  0  0  0  0  0  0  0  0  0  0  0
   -0.7793    1.3659    0.6455 C   0  0  0  0  0  0  0  0  0  0  0  0
   -1.6464    2.0125    0.0623 O   0  0  0  0  0  0  0  0  0  0  0  0
    0.0189    1.9059    1.5756 N   0  0  0  0  0  0  0  0  0  0  0  0
    0.7024    1.3094    2.0137 H   0  0  0  0  0  0  0  0  0  0  0  0
   -0.0451    3.3046    1.9929 C   0  0  0  0  0  0  0  0  0  0  0  0
   -1.0415    3.5286    2.3805 H   0  0  0  0  0  0  0  0  0  0  0  0
    0.6954    3.5023    2.7695 H   0  0  0  0  0  0  0  0  0  0  0  0
    0.1474    3.9536    1.1372 H   0  0  0  0  0  0  0  0  0  0  0  0
  5  6  2  0  0  0  0
  5  7  1  0  0  0  0
  2  3  1  0  0  0  0
  2  4  1  0  0  0  0
  2  5  1  0  0  0  0
  1  2  1  0  0  0  0
 24 25  2  0  0  0  0
 24 26  1  0  0  0  0
 20 21  1  0  0  0  0
 20 22  1  0  0  0  0
 20 23  1  0  0  0  0
 16 17  1  0  0  0  0
 16 18  1  0  0  0  0
 16 19  1  0  0  0  0
 14 15  1  0  0  0  0
 14 16  1  0  0  0  0
 14 20  1  0  0  0  0
 11 12  1  0  0  0  0
 11 13  1  0  0  0  0
 11 14  1  0  0  0  0
  9 10  1  0  0  0  0
  9 11  1  0  0  0  0
  9 24  1  0  0  0  0
  7  8  1  0  0  0  0
  7  9  1  0  0  0  0
 28 29  1  0  0  0  0
 28 30  1  0  0  0  0
 28 31  1  0  0  0  0
 26 27  1  0  0  0  0
 26 28  1  0  0  0  0
M  END
$$$$
default_name
  -OEChem-02102213163D

 31 30  0     1  0  0  0  0  0999 V2000
   -3.5895   -3.5013    1.1082 H   0  0  0  0  0  0  0  0  0  0  0  0
   -3.5145   -2.5363    0.6082 C   0  0  0  0  0  0  0  0  0  0  0  0
   -4.2285   -1.8413    1.0452 H   0  0  0  0  0  0  0  0  0  0  0  0
   -3.7155   -2.6583   -0.4538 H   0  0  0  0  0  0  0  0  0  0  0  0
   -2.1155   -1.9963    0.7922 C   0  0  0  0  0  0  0  0  0  0  0  0
   -1.2875   -2.6383    1.4252 O   0  0  0  0  0  0  0  0  0  0  0  0
   -1.8575   -0.8123    0.2402 N   0  0  0  0  0  0  0  0  0  0  0  0
   -2.6005   -0.3333   -0.2478 H   0  0  0  0  0  0  0  0  0  0  0  0
   -0.5675   -0.1203    0.3102 C   0  0  1  0  0  0  0  0  0  0  0  0
    0.0191   -0.5718    1.1110 H   0  0  0  0  0  0  0  0  0  0  0  0
    0.1724   -0.3238   -1.0286 C   0  0  0  0  0  0  0  0  0  0  0  0
    0.3904    0.6556   -1.4588 H   0  0  0  0  0  0  0  0  0  0  0  0
    1.1263   -0.8115   -0.8161 H   0  0  0  0  0  0  0  0  0  0  0  0
   -0.5708   -1.1642   -2.0833 C   0  0  0  0  0  0  0  0  0  0  0  0
   -0.5101   -2.2206   -1.8218 H   0  0  0  0  0  0  0  0  0  0  0  0
   -2.0443   -0.7659   -2.2079 C   0  0  0  0  0  0  0  0  0  0  0  0
   -2.1221    0.2940   -2.4538 H   0  0  0  0  0  0  0  0  0  0  0  0
   -2.5171   -1.3507   -2.9973 H   0  0  0  0  0  0  0  0  0  0  0  0
   -2.5734   -0.9543   -1.2762 H   0  0  0  0  0  0  0  0  0  0  0  0
    0.0868   -0.9765   -3.4499 C   0  0  0  0  0  0  0  0  0  0  0  0
    1.1314   -1.2833   -3.3994 H   0  0  0  0  0  0  0  0  0  0  0  0
   -0.4205   -1.5919   -4.1930 H   0  0  0  0  0  0  0  0  0  0  0  0
    0.0332    0.0700   -3.7520 H   0  0  0  0  0  0  0  0  0  0  0  0
   -0.7793    1.3659    0.6455 C   0  0  0  0  0  0  0  0  0  0  0  0
   -1.6464    2.0125    0.0623 O   0  0  0  0  0  0  0  0  0  0  0  0
    0.0189    1.9059    1.5756 N   0  0  0  0  0  0  0  0  0  0  0  0
    0.7024    1.3094    2.0137 H   0  0  0  0  0  0  0  0  0  0  0  0
   -0.0451    3.3046    1.9929 C   0  0  0  0  0  0  0  0  0  0  0  0
   -1.0415    3.5286    2.3805 H   0  0  0  0  0  0  0  0  0  0  0  0
    0.6954    3.5023    2.7695 H   0  0  0  0  0  0  0  0  0  0  0  0
    0.1474    3.9536    1.1372 H   0  0  0  0  0  0  0  0  0  0  0  0
  5  6  2  0  0  0  0
  5  7  1  0  0  0  0
  2  3  1  0  0  0  0
  2  4  1  0  0  0  0
  2  5  1  0  0  0  0
  1  2  1  0  0  0  0
 24 25  2  0  0  0  0
 24 26  1  0  0  0  0
 20 21  1  0  0  0  0
 20 22  1  0  0  0  0
 20 23  1  0  0  0  0
 16 17  1  0  0  0  0
 16 18  1  0  0  0  0
 16 19  1  0  0  0  0
 14 15  1  0  0  0  0
 14 16  1  0  0  0  0
 14 20  1  0  0  0  0
 11 12  1  0  0  0  0
 11 13  1  0  0  0  0
 11 14  1  0  0  0  0
  9 10  1  0  0  0  0
  9 11  1  0  0  0  0
  9 24  1  0  0  0  0
  7  8  1  0  0  0  0
  7  9  1  0  0  0  0
 28 29  1  0  0  0  0
 28 30  1  0  0  0  0
 28 31  1  0  0  0  0
 26 27  1  0  0  0  0
 26 28  1  0  0  0  0
M  END
$$$$
default_name
  -OEChem-02102213163D

 31 30  0     1  0  0  0  0  0999 V2000
   -3.5895   -3.5013    1.1082 H   0  0  0  0  0  0  0  0  0  0  0  0
   -3.5145   -2.5363    0.6082 C   0  0  0  0  0  0  0  0  0  0  0  0
   -4.2285   -1.8413    1.0452 H   0  0  0  0  0  0  0  0  0  0  0  0
   -3.7155   -2.6583   -0.4538 H   0  0  0  0  0  0  0  0  0  0  0  0
   -2.1155   -1.9963    0.7922 C   0  0  0  0  0  0  0  0  0  0  0  0
   -1.2875   -2.6383    1.4252 O   0  0  0  0  0  0  0  0  0  0  0  0
   -1.8575   -0.8123    0.2402 N   0  0  0  0  0  0  0  0  0  0  0  0
   -2.6005   -0.3333   -0.2478 H   0  0  0  0  0  0  0  0  0  0  0  0
   -0.5675   -0.1203    0.3102 C   0  0  1  0  0  0  0  0  0  0  0  0
    0.0191   -0.5718    1.1110 H   0  0  0  0  0  0  0  0  0  0  0  0
    0.1724   -0.3238   -1.0286 C   0  0  0  0  0  0  0  0  0  0  0  0
    0.3904    0.6556   -1.4588 H   0  0  0  0  0  0  0  0  0  0  0  0
    1.1263   -0.8115   -0.8161 H   0  0  0  0  0  0  0  0  0  0  0  0
   -0.5708   -1.1642   -2.0833 C   0  0  0  0  0  0  0  0  0  0  0  0
   -0.7424   -2.1695   -1.6987 H   0  0  0  0  0  0  0  0  0  0  0  0
   -1.9154   -0.5446   -2.4751 C   0  0  0  0  0  0  0  0  0  0  0  0
   -1.7618    0.4692   -2.8473 H   0  0  0  0  0  0  0  0  0  0  0  0
   -2.3822   -1.1445   -3.2567 H   0  0  0  0  0  0  0  0  0  0  0  0
   -2.5868   -0.5112   -1.6198 H   0  0  0  0  0  0  0  0  0  0  0  0
    0.2822   -1.2798   -3.3459 C   0  0  0  0  0  0  0  0  0  0  0  0
    1.2358   -1.7482   -3.1026 H   0  0  0  0  0  0  0  0  0  0  0  0
   -0.2298   -1.8974   -4.0839 H   0  0  0  0  0  0  0  0  0  0  0  0
    0.4642   -0.2909   -3.7682 H   0  0  0  0  0  0  0  0  0  0  0  0
   -0.7793    1.3659    0.6455 C   0  0  0  0  0  0  0  0  0  0  0  0
   -1.6464    2.0125    0.0623 O   0  0  0  0  0  0  0  0  0  0  0  0
    0.0189    1.9059    1.5756 N   0  0  0  0  0  0  0  0  0  0  0  0
    0.7024    1.3094    2.0137 H   0  0  0  0  0  0  0  0  0  0  0  0
   -0.0451    3.3046    1.9929 C   0  0  0  0  0  0  0  0  0  0  0  0
   -1.0415    3.5286    2.3805 H   0  0  0  0  0  0  0  0  0  0  0  0
    0.6954    3.5023    2.7695 H   0  0  0  0  0  0  0  0  0  0  0  0
    0.1474    3.9536    1.1372 H   0  0  0  0  0  0  0  0  0  0  0  0
  5  6  2  0  0  0  0
  5  7  1  0  0  0  0
  2  3  1  0  0  0  0
  2  4  1  0  0  0  0
  2  5  1  0  0  0  0
  1  2  1  0  0  0  0
 24 25  2  0  0  0  0
 24 26  1  0  0  0  0
 20 21  1  0  0  0  0
 20 22  1  0  0  0  0
 20 23  1  0  0  0  0
 16 17  1  0  0  0  0
 16 18  1  0  0  0  0
 16 19  1  0  0  0  0
 14 15  1  0  0  0  0
 14 16  1  0  0  0  0
 14 20  1  0  0  0  0
 11 12  1  0  0  0  0
 11 13  1  0  0  0  0
 11 14  1  0  0  0  0
  9 10  1  0  0  0  0
  9 11  1  0  0  0  0
  9 24  1  0  0  0  0
  7  8  1  0  0  0  0
  7  9  1  0  0  0  0
 28 29  1  0  0  0  0
 28 30  1  0  0  0  0
 28 31  1  0  0  0  0
 26 27  1  0  0  0  0
 26 28  1  0  0  0  0
M  END
$$$$
default_name
  -OEChem-02102213163D

 31 30  0     1  0  0  0  0  0999 V2000
   -3.5895   -3.5013    1.1082 H   0  0  0  0  0  0  0  0  0  0  0  0
   -3.5145   -2.5363    0.6082 C   0  0  0  0  0  0  0  0  0  0  0  0
   -4.2285   -1.8413    1.0452 H   0  0  0  0  0  0  0  0  0  0  0  0
   -3.7155   -2.6583   -0.4538 H   0  0  0  0  0  0  0  0  0  0  0  0
   -2.1155   -1.9963    0.7922 C   0  0  0  0  0  0  0  0  0  0  0  0
   -1.2875   -2.6383    1.4252 O   0  0  0  0  0  0  0  0  0  0  0  0
   -1.8575   -0.8123    0.2402 N   0  0  0  0  0  0  0  0  0  0  0  0
   -2.6005   -0.3333   -0.2478 H   0  0  0  0  0  0  0  0  0  0  0  0
   -0.5675   -0.1203    0.3102 C   0  0  1  0  0  0  0  0  0  0  0  0
    0.0191   -0.5718    1.1110 H   0  0  0  0  0  0  0  0  0  0  0  0
    0.1724   -0.3238   -1.0286 C   0  0  0  0  0  0  0  0  0  0  0  0
    0.3904    0.6556   -1.4588 H   0  0  0  0  0  0  0  0  0  0  0  0
    1.1263   -0.8115   -0.8161 H   0  0  0  0  0  0  0  0  0  0  0  0
   -0.5708   -1.1642   -2.0833 C   0  0  0  0  0  0  0  0  0  0  0  0
   -0.9752   -2.0637   -1.6190 H   0  0  0  0  0  0  0  0  0  0  0  0
   -1.7140   -0.3871   -2.7426 C   0  0  0  0  0  0  0  0  0  0  0  0
   -1.3271    0.5253   -3.1984 H   0  0  0  0  0  0  0  0  0  0  0  0
   -2.1786   -1.0017   -3.5140 H   0  0  0  0  0  0  0  0  0  0  0  0
   -2.4728   -0.1237   -2.0089 H   0  0  0  0  0  0  0  0  0  0  0  0
    0.4025   -1.5945   -3.1800 C   0  0  0  0  0  0  0  0  0  0  0  0
    1.2123   -2.1786   -2.7431 H   0  0  0  0  0  0  0  0  0  0  0  0
   -0.1152   -2.2127   -3.9135 H   0  0  0  0  0  0  0  0  0  0  0  0
    0.8188   -0.7180   -3.6778 H   0  0  0  0  0  0  0  0  0  0  0  0
   -0.7793    1.3659    0.6455 C   0  0  0  0  0  0  0  0  0  0  0  0
   -1.6464    2.0125    0.0623 O   0  0  0  0  0  0  0  0  0  0  0  0
    0.0189    1.9059    1.5756 N   0  0  0  0  0  0  0  0  0  0  0  0
    0.7024    1.3094    2.0137 H   0  0  0  0  0  0  0  0  0  0  0  0
   -0.0451    3.3046    1.9929 C   0  0  0  0  0  0  0  0  0  0  0  0
   -1.0415    3.5286    2.3805 H   0  0  0  0  0  0  0  0  0  0  0  0
    0.6954    3.5023    2.7695 H   0  0  0  0  0  0  0  0  0  0  0  0
    0.1474    3.9536    1.1372 H   0  0  0  0  0  0  0  0  0  0  0  0
  5  6  2  0  0  0  0
  5  7  1  0  0  0  0
  2  3  1  0  0  0  0
  2  4  1  0  0  0  0
  2  5  1  0  0  0  0
  1  2  1  0  0  0  0
 24 25  2  0  0  0  0
 24 26  1  0  0  0  0
 20 21  1  0  0  0  0
 20 22  1  0  0  0  0
 20 23  1  0  0  0  0
 16 17  1  0  0  0  0
 16 18  1  0  0  0  0
 16 19  1  0  0  0  0
 14 15  1  0  0  0  0
 14 16  1  0  0  0  0
 14 20  1  0  0  0  0
 11 12  1  0  0  0  0
 11 13  1  0  0  0  0
 11 14  1  0  0  0  0
  9 10  1  0  0  0  0
  9 11  1  0  0  0  0
  9 24  1  0  0  0  0
  7  8  1  0  0  0  0
  7  9  1  0  0  0  0
 28 29  1  0  0  0  0
 28 30  1  0  0  0  0
 28 31  1  0  0  0  0
 26 27  1  0  0  0  0
 26 28  1  0  0  0  0
M  END
$$$$
default_name
  -OEChem-02102213163D

 31 30  0     1  0  0  0  0  0999 V2000
   -3.5895   -3.5013    1.1082 H   0  0  0  0  0  0  0  0  0  0  0  0
   -3.5145   -2.5363    0.6082 C   0  0  0  0  0  0  0  0  0  0  0  0
   -4.2285   -1.8413    1.0452 H   0  0  0  0  0  0  0  0  0  0  0  0
   -3.7155   -2.6583   -0.4538 H   0  0  0  0  0  0  0  0  0  0  0  0
   -2.1155   -1.9963    0.7922 C   0  0  0  0  0  0  0  0  0  0  0  0
   -1.2875   -2.6383    1.4252 O   0  0  0  0  0  0  0  0  0  0  0  0
   -1.8575   -0.8123    0.2402 N   0  0  0  0  0  0  0  0  0  0  0  0
   -2.6005   -0.3333   -0.2478 H   0  0  0  0  0  0  0  0  0  0  0  0
   -0.5675   -0.1203    0.3102 C   0  0  1  0  0  0  0  0  0  0  0  0
    0.0191   -0.5718    1.1110 H   0  0  0  0  0  0  0  0  0  0  0  0
    0.1724   -0.3238   -1.0286 C   0  0  0  0  0  0  0  0  0  0  0  0
    0.3904    0.6556   -1.4588 H   0  0  0  0  0  0  0  0  0  0  0  0
    1.1263   -0.8115   -0.8161 H   0  0  0  0  0  0  0  0  0  0  0  0
   -0.5708   -1.1642   -2.0833 C   0  0  0  0  0  0  0  0  0  0  0  0
   -1.1925   -1.9102   -1.5882 H   0  0  0  0  0  0  0  0  0  0  0  0
   -1.4537   -0.3041   -2.9922 C   0  0  0  0  0  0  0  0  0  0  0  0
   -0.8477    0.4587   -3.4831 H   0  0  0  0  0  0  0  0  0  0  0  0
   -1.9204   -0.9319   -3.7515 H   0  0  0  0  0  0  0  0  0  0  0  0
   -2.2390    0.1817   -2.4171 H   0  0  0  0  0  0  0  0  0  0  0  0
    0.4395   -1.8990   -2.9635 C   0  0  0  0  0  0  0  0  0  0  0  0
    1.0626   -2.5452   -2.3454 H   0  0  0  0  0  0  0  0  0  0  0  0
   -0.0845   -2.5162   -3.6932 H   0  0  0  0  0  0  0  0  0  0  0  0
    1.0729   -1.1821   -3.4871 H   0  0  0  0  0  0  0  0  0  0  0  0
   -0.7793    1.3659    0.6455 C   0  0  0  0  0  0  0  0  0  0  0  0
   -1.6464    2.0125    0.0623 O   0  0  0  0  0  0  0  0  0  0  0  0
    0.0189    1.9059    1.5756 N   0  0  0  0  0  0  0  0  0  0  0  0
    0.7024    1.3094    2.0137 H   0  0  0  0  0  0  0  0  0  0  0  0
   -0.0451    3.3046    1.9929 C   0  0  0  0  0  0  0  0  0  0  0  0
   -1.0415    3.5286    2.3805 H   0  0  0  0  0  0  0  0  0  0  0  0
    0.6954    3.5023    2.7695 H   0  0  0  0  0  0  0  0  0  0  0  0
    0.1474    3.9536    1.1372 H   0  0  0  0  0  0  0  0  0  0  0  0
  5  6  2  0  0  0  0
  5  7  1  0  0  0  0
  2  3  1  0  0  0  0
  2  4  1  0  0  0  0
  2  5  1  0  0  0  0
  1  2  1  0  0  0  0
 24 25  2  0  0  0  0
 24 26  1  0  0  0  0
 20 21  1  0  0  0  0
 20 22  1  0  0  0  0
 20 23  1  0  0  0  0
 16 17  1  0  0  0  0
 16 18  1  0  0  0  0
 16 19  1  0  0  0  0
 14 15  1  0  0  0  0
 14 16  1  0  0  0  0
 14 20  1  0  0  0  0
 11 12  1  0  0  0  0
 11 13  1  0  0  0  0
 11 14  1  0  0  0  0
  9 10  1  0  0  0  0
  9 11  1  0  0  0  0
  9 24  1  0  0  0  0
  7  8  1  0  0  0  0
  7  9  1  0  0  0  0
 28 29  1  0  0  0  0
 28 30  1  0  0  0  0
 28 31  1  0  0  0  0
 26 27  1  0  0  0  0
 26 28  1  0  0  0  0
M  END
$$$$
default_name
  -OEChem-02102213163D

 31 30  0     1  0  0  0  0  0999 V2000
   -3.5895   -3.5013    1.1082 H   0  0  0  0  0  0  0  0  0  0  0  0
   -3.5145   -2.5363    0.6082 C   0  0  0  0  0  0  0  0  0  0  0  0
   -4.2285   -1.8413    1.0452 H   0  0  0  0  0  0  0  0  0  0  0  0
   -3.7155   -2.6583   -0.4538 H   0  0  0  0  0  0  0  0  0  0  0  0
   -2.1155   -1.9963    0.7922 C   0  0  0  0  0  0  0  0  0  0  0  0
   -1.2875   -2.6383    1.4252 O   0  0  0  0  0  0  0  0  0  0  0  0
   -1.8575   -0.8123    0.2402 N   0  0  0  0  0  0  0  0  0  0  0  0
   -2.6005   -0.3333   -0.2478 H   0  0  0  0  0  0  0  0  0  0  0  0
   -0.5675   -0.1203    0.3102 C   0  0  1  0  0  0  0  0  0  0  0  0
    0.0191   -0.5718    1.1110 H   0  0  0  0  0  0  0  0  0  0  0  0
    0.1724   -0.3238   -1.0286 C   0  0  0  0  0  0  0  0  0  0  0  0
    0.3904    0.6556   -1.4588 H   0  0  0  0  0  0  0  0  0  0  0  0
    1.1263   -0.8115   -0.8161 H   0  0  0  0  0  0  0  0  0  0  0  0
   -0.5708   -1.1642   -2.0833 C   0  0  0  0  0  0  0  0  0  0  0  0
   -1.3796   -1.7196   -1.6083 H   0  0  0  0  0  0  0  0  0  0  0  0
   -1.1522   -0.3012   -3.2069 C   0  0  0  0  0  0  0  0  0  0  0  0
   -0.3563    0.2737   -3.6821 H   0  0  0  0  0  0  0  0  0  0  0  0
   -1.6250   -0.9400   -3.9533 H   0  0  0  0  0  0  0  0  0  0  0  0
   -1.9013    0.3843   -2.8165 H   0  0  0  0  0  0  0  0  0  0  0  0
    0.3906   -2.1726   -2.7110 C   0  0  0  0  0  0  0  0  0  0  0  0
    0.7967   -2.8232   -1.9365 H   0  0  0  0  0  0  0  0  0  0  0  0
   -0.1398   -2.7874   -3.4382 H   0  0  0  0  0  0  0  0  0  0  0  0
    1.2091   -1.6515   -3.2090 H   0  0  0  0  0  0  0  0  0  0  0  0
   -0.7793    1.3659    0.6455 C   0  0  0  0  0  0  0  0  0  0  0  0
   -1.6464    2.0125    0.0623 O   0  0  0  0  0  0  0  0  0  0  0  0
    0.0189    1.9059    1.5756 N   0  0  0  0  0  0  0  0  0  0  0  0
    0.7024    1.3094    2.0137 H   0  0  0  0  0  0  0  0  0  0  0  0
   -0.0451    3.3046    1.9929 C   0  0  0  0  0  0  0  0  0  0  0  0
   -1.0415    3.5286    2.3805 H   0  0  0  0  0  0  0  0  0  0  0  0
    0.6954    3.5023    2.7695 H   0  0  0  0  0  0  0  0  0  0  0  0
    0.1474    3.9536    1.1372 H   0  0  0  0  0  0  0  0  0  0  0  0
  5  6  2  0  0  0  0
  5  7  1  0  0  0  0
  2  3  1  0  0  0  0
  2  4  1  0  0  0  0
  2  5  1  0  0  0  0
  1  2  1  0  0  0  0
 24 25  2  0  0  0  0
 24 26  1  0  0  0  0
 20 21  1  0  0  0  0
 20 22  1  0  0  0  0
 20 23  1  0  0  0  0
 16 17  1  0  0  0  0
 16 18  1  0  0  0  0
 16 19  1  0  0  0  0
 14 15  1  0  0  0  0
 14 16  1  0  0  0  0
 14 20  1  0  0  0  0
 11 12  1  0  0  0  0
 11 13  1  0  0  0  0
 11 14  1  0  0  0  0
  9 10  1  0  0  0  0
  9 11  1  0  0  0  0
  9 24  1  0  0  0  0
  7  8  1  0  0  0  0
  7  9  1  0  0  0  0
 28 29  1  0  0  0  0
 28 30  1  0  0  0  0
 28 31  1  0  0  0  0
 26 27  1  0  0  0  0
 26 28  1  0  0  0  0
M  END
$$$$
default_name
  -OEChem-02102213163D

 31 30  0     1  0  0  0  0  0999 V2000
   -3.5895   -3.5013    1.1082 H   0  0  0  0  0  0  0  0  0  0  0  0
   -3.5145   -2.5363    0.6082 C   0  0  0  0  0  0  0  0  0  0  0  0
   -4.2285   -1.8413    1.0452 H   0  0  0  0  0  0  0  0  0  0  0  0
   -3.7155   -2.6583   -0.4538 H   0  0  0  0  0  0  0  0  0  0  0  0
   -2.1155   -1.9963    0.7922 C   0  0  0  0  0  0  0  0  0  0  0  0
   -1.2875   -2.6383    1.4252 O   0  0  0  0  0  0  0  0  0  0  0  0
   -1.8575   -0.8123    0.2402 N   0  0  0  0  0  0  0  0  0  0  0  0
   -2.6005   -0.3333   -0.2478 H   0  0  0  0  0  0  0  0  0  0  0  0
   -0.5675   -0.1203    0.3102 C   0  0  1  0  0  0  0  0  0  0  0  0
    0.0191   -0.5718    1.1110 H   0  0  0  0  0  0  0  0  0  0  0  0
    0.1724   -0.3238   -1.0286 C   0  0  0  0  0  0  0  0  0  0  0  0
    0.3904    0.6556   -1.4588 H   0  0  0  0  0  0  0  0  0  0  0  0
    1.1263   -0.8115   -0.8161 H   0  0  0  0  0  0  0  0  0  0  0  0
   -0.5708   -1.1642   -2.0833 C   0  0  0  0  0  0  0  0  0  0  0  0
   -1.5236   -1.5048   -1.6779 H   0  0  0  0  0  0  0  0  0  0  0  0
   -0.8303   -0.3787   -3.3721 C   0  0  0  0  0  0  0  0  0  0  0  0
    0.1138   -0.0169   -3.7818 H   0  0  0  0  0  0  0  0  0  0  0  0
   -1.3126   -1.0254   -4.1054 H   0  0  0  0  0  0  0  0  0  0  0  0
   -1.4828    0.4702   -3.1798 H   0  0  0  0  0  0  0  0  0  0  0  0
    0.2593   -2.3967   -2.4399 C   0  0  0  0  0  0  0  0  0  0  0  0
    0.4329   -2.9935   -1.5445 H   0  0  0  0  0  0  0  0  0  0  0  0
   -0.2772   -3.0076   -3.1659 H   0  0  0  0  0  0  0  0  0  0  0  0
    1.2181   -2.0944   -2.8625 H   0  0  0  0  0  0  0  0  0  0  0  0
   -0.7793    1.3659    0.6455 C   0  0  0  0  0  0  0  0  0  0  0  0
   -1.6464    2.0125    0.0623 O   0  0  0  0  0  0  0  0  0  0  0  0
    0.0189    1.9059    1.5756 N   0  0  0  0  0  0  0  0  0  0  0  0
    0.7024    1.3094    2.0137 H   0  0  0  0  0  0  0  0  0  0  0  0
   -0.0451    3.3046    1.9929 C   0  0  0  0  0  0  0  0  0  0  0  0
   -1.0415    3.5286    2.3805 H   0  0  0  0  0  0  0  0  0  0  0  0
    0.6954    3.5023    2.7695 H   0  0  0  0  0  0  0  0  0  0  0  0
    0.1474    3.9536    1.1372 H   0  0  0  0  0  0  0  0  0  0  0  0
  5  6  2  0  0  0  0
  5  7  1  0  0  0  0
  2  3  1  0  0  0  0
  2  4  1  0  0  0  0
  2  5  1  0  0  0  0
  1  2  1  0  0  0  0
 24 25  2  0  0  0  0
 24 26  1  0  0  0  0
 20 21  1  0  0  0  0
 20 22  1  0  0  0  0
 20 23  1  0  0  0  0
 16 17  1  0  0  0  0
 16 18  1  0  0  0  0
 16 19  1  0  0  0  0
 14 15  1  0  0  0  0
 14 16  1  0  0  0  0
 14 20  1  0  0  0  0
 11 12  1  0  0  0  0
 11 13  1  0  0  0  0
 11 14  1  0  0  0  0
  9 10  1  0  0  0  0
  9 11  1  0  0  0  0
  9 24  1  0  0  0  0
  7  8  1  0  0  0  0
  7  9  1  0  0  0  0
 28 29  1  0  0  0  0
 28 30  1  0  0  0  0
 28 31  1  0  0  0  0
 26 27  1  0  0  0  0
 26 28  1  0  0  0  0
M  END
$$$$
default_name
  -OEChem-02102213163D

 31 30  0     1  0  0  0  0  0999 V2000
   -3.5895   -3.5013    1.1082 H   0  0  0  0  0  0  0  0  0  0  0  0
   -3.5145   -2.5363    0.6082 C   0  0  0  0  0  0  0  0  0  0  0  0
   -4.2285   -1.8413    1.0452 H   0  0  0  0  0  0  0  0  0  0  0  0
   -3.7155   -2.6583   -0.4538 H   0  0  0  0  0  0  0  0  0  0  0  0
   -2.1155   -1.9963    0.7922 C   0  0  0  0  0  0  0  0  0  0  0  0
   -1.2875   -2.6383    1.4252 O   0  0  0  0  0  0  0  0  0  0  0  0
   -1.8575   -0.8123    0.2402 N   0  0  0  0  0  0  0  0  0  0  0  0
   -2.6005   -0.3333   -0.2478 H   0  0  0  0  0  0  0  0  0  0  0  0
   -0.5675   -0.1203    0.3102 C   0  0  1  0  0  0  0  0  0  0  0  0
    0.0191   -0.5718    1.1110 H   0  0  0  0  0  0  0  0  0  0  0  0
    0.1724   -0.3238   -1.0286 C   0  0  0  0  0  0  0  0  0  0  0  0
    0.3904    0.6556   -1.4588 H   0  0  0  0  0  0  0  0  0  0  0  0
    1.1263   -0.8115   -0.8161 H   0  0  0  0  0  0  0  0  0  0  0  0
   -0.5708   -1.1642   -2.0833 C   0  0  0  0  0  0  0  0  0  0  0  0
   -1.6149   -1.2805   -1.7923 H   0  0  0  0  0  0  0  0  0  0  0  0
   -0.5096   -0.5313   -3.4764 C   0  0  0  0  0  0  0  0  0  0  0  0
    0.5303   -0.3934   -3.7754 H   0  0  0  0  0  0  0  0  0  0  0  0
   -1.0045   -1.1823   -4.1975 H   0  0  0  0  0  0  0  0  0  0  0  0
   -1.0120    0.4336   -3.4825 H   0  0  0  0  0  0  0  0  0  0  0  0
    0.0544   -2.5560   -2.1685 C   0  0  0  0  0  0  0  0  0  0  0  0
   -0.0041   -3.0445   -1.1959 H   0  0  0  0  0  0  0  0  0  0  0  0
   -0.4875   -3.1620   -2.8947 H   0  0  0  0  0  0  0  0  0  0  0  0
    1.0994   -2.4805   -2.4712 H   0  0  0  0  0  0  0  0  0  0  0  0
   -0.7793    1.3659    0.6455 C   0  0  0  0  0  0  0  0  0  0  0  0
   -1.6464    2.0125    0.0623 O   0  0  0  0  0  0  0  0  0  0  0  0
    0.0189    1.9059    1.5756 N   0  0  0  0  0  0  0  0  0  0  0  0
    0.7024    1.3094    2.0137 H   0  0  0  0  0  0  0  0  0  0  0  0
   -0.0451    3.3046    1.9929 C   0  0  0  0  0  0  0  0  0  0  0  0
   -1.0415    3.5286    2.3805 H   0  0  0  0  0  0  0  0  0  0  0  0
    0.6954    3.5023    2.7695 H   0  0  0  0  0  0  0  0  0  0  0  0
    0.1474    3.9536    1.1372 H   0  0  0  0  0  0  0  0  0  0  0  0
  5  6  2  0  0  0  0
  5  7  1  0  0  0  0
  2  3  1  0  0  0  0
  2  4  1  0  0  0  0
  2  5  1  0  0  0  0
  1  2  1  0  0  0  0
 24 25  2  0  0  0  0
 24 26  1  0  0  0  0
 20 21  1  0  0  0  0
 20 22  1  0  0  0  0
 20 23  1  0  0  0  0
 16 17  1  0  0  0  0
 16 18  1  0  0  0  0
 16 19  1  0  0  0  0
 14 15  1  0  0  0  0
 14 16  1  0  0  0  0
 14 20  1  0  0  0  0
 11 12  1  0  0  0  0
 11 13  1  0  0  0  0
 11 14  1  0  0  0  0
  9 10  1  0  0  0  0
  9 11  1  0  0  0  0
  9 24  1  0  0  0  0
  7  8  1  0  0  0  0
  7  9  1  0  0  0  0
 28 29  1  0  0  0  0
 28 30  1  0  0  0  0
 28 31  1  0  0  0  0
 26 27  1  0  0  0  0
 26 28  1  0  0  0  0
M  END
$$$$
default_name
  -OEChem-02102213163D

 31 30  0     1  0  0  0  0  0999 V2000
   -3.5895   -3.5013    1.1082 H   0  0  0  0  0  0  0  0  0  0  0  0
   -3.5145   -2.5363    0.6082 C   0  0  0  0  0  0  0  0  0  0  0  0
   -4.2285   -1.8413    1.0452 H   0  0  0  0  0  0  0  0  0  0  0  0
   -3.7155   -2.6583   -0.4538 H   0  0  0  0  0  0  0  0  0  0  0  0
   -2.1155   -1.9963    0.7922 C   0  0  0  0  0  0  0  0  0  0  0  0
   -1.2875   -2.6383    1.4252 O   0  0  0  0  0  0  0  0  0  0  0  0
   -1.8575   -0.8123    0.2402 N   0  0  0  0  0  0  0  0  0  0  0  0
   -2.6005   -0.3333   -0.2478 H   0  0  0  0  0  0  0  0  0  0  0  0
   -0.5675   -0.1203    0.3102 C   0  0  1  0  0  0  0  0  0  0  0  0
    0.0191   -0.5718    1.1110 H   0  0  0  0  0  0  0  0  0  0  0  0
    0.1724   -0.3238   -1.0286 C   0  0  0  0  0  0  0  0  0  0  0  0
    0.3904    0.6556   -1.4588 H   0  0  0  0  0  0  0  0  0  0  0  0
    1.1263   -0.8115   -0.8161 H   0  0  0  0  0  0  0  0  0  0  0  0
   -0.5708   -1.1642   -2.0833 C   0  0  0  0  0  0  0  0  0  0  0  0
   -1.6470   -1.0619   -1.9438 H   0  0  0  0  0  0  0  0  0  0  0  0
   -0.2123   -0.7485   -3.5129 C   0  0  0  0  0  0  0  0  0  0  0  0
    0.8651   -0.8301   -3.6633 H   0  0  0  0  0  0  0  0  0  0  0  0
   -0.7217   -1.3999   -4.2233 H   0  0  0  0  0  0  0  0  0  0  0  0
   -0.5210    0.2770   -3.7037 H   0  0  0  0  0  0  0  0  0  0  0  0
   -0.2101   -2.6397   -1.9155 C   0  0  0  0  0  0  0  0  0  0  0  0
   -0.4844   -2.9727   -0.9146 H   0  0  0  0  0  0  0  0  0  0  0  0
   -0.7563   -3.2399   -2.6432 H   0  0  0  0  0  0  0  0  0  0  0  0
    0.8610   -2.7835   -2.0617 H   0  0  0  0  0  0  0  0  0  0  0  0
   -0.7793    1.3659    0.6455 C   0  0  0  0  0  0  0  0  0  0  0  0
   -1.6464    2.0125    0.0623 O   0  0  0  0  0  0  0  0  0  0  0  0
    0.0189    1.9059    1.5756 N   0  0  0  0  0  0  0  0  0  0  0  0
    0.7024    1.3094    2.0137 H   0  0  0  0  0  0  0  0  0  0  0  0
   -0.0451    3.3046    1.9929 C   0  0  0  0  0  0  0  0  0  0  0  0
   -1.0415    3.5286    2.3805 H   0  0  0  0  0  0  0  0  0  0  0  0
    0.6954    3.5023    2.7695 H   0  0  0  0  0  0  0  0  0  0  0  0
    0.1474    3.9536    1.1372 H   0  0  0  0  0  0  0  0  0  0  0  0
  5  6  2  0  0  0  0
  5  7  1  0  0  0  0
  2  3  1  0  0  0  0
  2  4  1  0  0  0  0
  2  5  1  0  0  0  0
  1  2  1  0  0  0  0
 24 25  2  0  0  0  0
 24 26  1  0  0  0  0
 20 21  1  0  0  0  0
 20 22  1  0  0  0  0
 20 23  1  0  0  0  0
 16 17  1  0  0  0  0
 16 18  1  0  0  0  0
 16 19  1  0  0  0  0
 14 15  1  0  0  0  0
 14 16  1  0  0  0  0
 14 20  1  0  0  0  0
 11 12  1  0  0  0  0
 11 13  1  0  0  0  0
 11 14  1  0  0  0  0
  9 10  1  0  0  0  0
  9 11  1  0  0  0  0
  9 24  1  0  0  0  0
  7  8  1  0  0  0  0
  7  9  1  0  0  0  0
 28 29  1  0  0  0  0
 28 30  1  0  0  0  0
 28 31  1  0  0  0  0
 26 27  1  0  0  0  0
 26 28  1  0  0  0  0
M  END
$$$$
default_name
  -OEChem-02102213163D

 31 30  0     1  0  0  0  0  0999 V2000
   -3.5895   -3.5013    1.1082 H   0  0  0  0  0  0  0  0  0  0  0  0
   -3.5145   -2.5363    0.6082 C   0  0  0  0  0  0  0  0  0  0  0  0
   -4.2285   -1.8413    1.0452 H   0  0  0  0  0  0  0  0  0  0  0  0
   -3.7155   -2.6583   -0.4538 H   0  0  0  0  0  0  0  0  0  0  0  0
   -2.1155   -1.9963    0.7922 C   0  0  0  0  0  0  0  0  0  0  0  0
   -1.2875   -2.6383    1.4252 O   0  0  0  0  0  0  0  0  0  0  0  0
   -1.8575   -0.8123    0.2402 N   0  0  0  0  0  0  0  0  0  0  0  0
   -2.6005   -0.3333   -0.2478 H   0  0  0  0  0  0  0  0  0  0  0  0
   -0.5675   -0.1203    0.3102 C   0  0  1  0  0  0  0  0  0  0  0  0
    0.0191   -0.5718    1.1110 H   0  0  0  0  0  0  0  0  0  0  0  0
    0.1724   -0.3238   -1.0286 C   0  0  0  0  0  0  0  0  0  0  0  0
    0.3904    0.6556   -1.4588 H   0  0  0  0  0  0  0  0  0  0  0  0
    1.1263   -0.8115   -0.8161 H   0  0  0  0  0  0  0  0  0  0  0  0
   -0.5708   -1.1642   -2.0833 C   0  0  0  0  0  0  0  0  0  0  0  0
   -1.6180   -0.8640   -2.1219 H   0  0  0  0  0  0  0  0  0  0  0  0
    0.0416   -1.0156   -3.4790 C   0  0  0  0  0  0  0  0  0  0  0  0
    1.0952   -1.2973   -3.4532 H   0  0  0  0  0  0  0  0  0  0  0  0
   -0.4835   -1.6635   -4.1812 H   0  0  0  0  0  0  0  0  0  0  0  0
   -0.0433    0.0111   -3.8285 H   0  0  0  0  0  0  0  0  0  0  0  0
   -0.5162   -2.6420   -1.6980 C   0  0  0  0  0  0  0  0  0  0  0  0
   -0.9755   -2.7831   -0.7196 H   0  0  0  0  0  0  0  0  0  0  0  0
   -1.0653   -3.2361   -2.4284 H   0  0  0  0  0  0  0  0  0  0  0  0
    0.5191   -2.9828   -1.6620 H   0  0  0  0  0  0  0  0  0  0  0  0
   -0.7793    1.3659    0.6455 C   0  0  0  0  0  0  0  0  0  0  0  0
   -1.6464    2.0125    0.0623 O   0  0  0  0  0  0  0  0  0  0  0  0
    0.0189    1.9059    1.5756 N   0  0  0  0  0  0  0  0  0  0  0  0
    0.7024    1.3094    2.0137 H   0  0  0  0  0  0  0  0  0  0  0  0
   -0.0451    3.3046    1.9929 C   0  0  0  0  0  0  0  0  0  0  0  0
   -1.0415    3.5286    2.3805 H   0  0  0  0  0  0  0  0  0  0  0  0
    0.6954    3.5023    2.7695 H   0  0  0  0  0  0  0  0  0  0  0  0
    0.1474    3.9536    1.1372 H   0  0  0  0  0  0  0  0  0  0  0  0
  5  6  2  0  0  0  0
  5  7  1  0  0  0  0
  2  3  1  0  0  0  0
  2  4  1  0  0  0  0
  2  5  1  0  0  0  0
  1  2  1  0  0  0  0
 24 25  2  0  0  0  0
 24 26  1  0  0  0  0
 20 21  1  0  0  0  0
 20 22  1  0  0  0  0
 20 23  1  0  0  0  0
 16 17  1  0  0  0  0
 16 18  1  0  0  0  0
 16 19  1  0  0  0  0
 14 15  1  0  0  0  0
 14 16  1  0  0  0  0
 14 20  1  0  0  0  0
 11 12  1  0  0  0  0
 11 13  1  0  0  0  0
 11 14  1  0  0  0  0
  9 10  1  0  0  0  0
  9 11  1  0  0  0  0
  9 24  1  0  0  0  0
  7  8  1  0  0  0  0
  7  9  1  0  0  0  0
 28 29  1  0  0  0  0
 28 30  1  0  0  0  0
 28 31  1  0  0  0  0
 26 27  1  0  0  0  0
 26 28  1  0  0  0  0
M  END
$$$$
default_name
  -OEChem-02102213163D

 31 30  0     1  0  0  0  0  0999 V2000
   -3.5895   -3.5013    1.1082 H   0  0  0  0  0  0  0  0  0  0  0  0
   -3.5145   -2.5363    0.6082 C   0  0  0  0  0  0  0  0  0  0  0  0
   -4.2285   -1.8413    1.0452 H   0  0  0  0  0  0  0  0  0  0  0  0
   -3.7155   -2.6583   -0.4538 H   0  0  0  0  0  0  0  0  0  0  0  0
   -2.1155   -1.9963    0.7922 C   0  0  0  0  0  0  0  0  0  0  0  0
   -1.2875   -2.6383    1.4252 O   0  0  0  0  0  0  0  0  0  0  0  0
   -1.8575   -0.8123    0.2402 N   0  0  0  0  0  0  0  0  0  0  0  0
   -2.6005   -0.3333   -0.2478 H   0  0  0  0  0  0  0  0  0  0  0  0
   -0.5675   -0.1203    0.3102 C   0  0  1  0  0  0  0  0  0  0  0  0
    0.0191   -0.5718    1.1110 H   0  0  0  0  0  0  0  0  0  0  0  0
    0.1724   -0.3238   -1.0286 C   0  0  0  0  0  0  0  0  0  0  0  0
    0.6233    0.6251   -1.3255 H   0  0  0  0  0  0  0  0  0  0  0  0
    0.9826   -1.0369   -0.8612 H   0  0  0  0  0  0  0  0  0  0  0  0
   -0.6873   -0.8408   -2.1968 C   0  0  0  0  0  0  0  0  0  0  0  0
   -1.5066   -0.1473   -2.3859 H   0  0  0  0  0  0  0  0  0  0  0  0
    0.1262   -1.0131   -3.4828 C   0  0  0  0  0  0  0  0  0  0  0  0
    0.9607   -1.6929   -3.3050 H   0  0  0  0  0  0  0  0  0  0  0  0
   -0.5092   -1.4260   -4.2666 H   0  0  0  0  0  0  0  0  0  0  0  0
    0.5143   -0.0555   -3.8231 H   0  0  0  0  0  0  0  0  0  0  0  0
   -1.2900   -2.1973   -1.8334 C   0  0  0  0  0  0  0  0  0  0  0  0
   -1.9022   -2.0983   -0.9371 H   0  0  0  0  0  0  0  0  0  0  0  0
   -1.9213   -2.5526   -2.6478 H   0  0  0  0  0  0  0  0  0  0  0  0
   -0.4973   -2.9234   -1.6494 H   0  0  0  0  0  0  0  0  0  0  0  0
   -0.7793    1.3659    0.6455 C   0  0  0  0  0  0  0  0  0  0  0  0
   -1.6464    2.0125    0.0623 O   0  0  0  0  0  0  0  0  0  0  0  0
    0.0189    1.9059    1.5756 N   0  0  0  0  0  0  0  0  0  0  0  0
    0.7024    1.3094    2.0137 H   0  0  0  0  0  0  0  0  0  0  0  0
   -0.0451    3.3046    1.9929 C   0  0  0  0  0  0  0  0  0  0  0  0
   -1.0415    3.5286    2.3805 H   0  0  0  0  0  0  0  0  0  0  0  0
    0.6954    3.5023    2.7695 H   0  0  0  0  0  0  0  0  0  0  0  0
    0.1474    3.9536    1.1372 H   0  0  0  0  0  0  0  0  0  0  0  0
  5  6  2  0  0  0  0
  5  7  1  0  0  0  0
  2  3  1  0  0  0  0
  2  4  1  0  0  0  0
  2  5  1  0  0  0  0
  1  2  1  0  0  0  0
 24 25  2  0  0  0  0
 24 26  1  0  0  0  0
 20 21  1  0  0  0  0
 20 22  1  0  0  0  0
 20 23  1  0  0  0  0
 16 17  1  0  0  0  0
 16 18  1  0  0  0  0
 16 19  1  0  0  0  0
 14 15  1  0  0  0  0
 14 16  1  0  0  0  0
 14 20  1  0  0  0  0
 11 12  1  0  0  0  0
 11 13  1  0  0  0  0
 11 14  1  0  0  0  0
  9 10  1  0  0  0  0
  9 11  1  0  0  0  0
  9 24  1  0  0  0  0
  7  8  1  0  0  0  0
  7  9  1  0  0  0  0
 28 29  1  0  0  0  0
 28 30  1  0  0  0  0
 28 31  1  0  0  0  0
 26 27  1  0  0  0  0
 26 28  1  0  0  0  0
M  END
$$$$
default_name
  -OEChem-02102213163D

 31 30  0     1  0  0  0  0  0999 V2000
   -3.5895   -3.5013    1.1082 H   0  0  0  0  0  0  0  0  0  0  0  0
   -3.5145   -2.5363    0.6082 C   0  0  0  0  0  0  0  0  0  0  0  0
   -4.2285   -1.8413    1.0452 H   0  0  0  0  0  0  0  0  0  0  0  0
   -3.7155   -2.6583   -0.4538 H   0  0  0  0  0  0  0  0  0  0  0  0
   -2.1155   -1.9963    0.7922 C   0  0  0  0  0  0  0  0  0  0  0  0
   -1.2875   -2.6383    1.4252 O   0  0  0  0  0  0  0  0  0  0  0  0
   -1.8575   -0.8123    0.2402 N   0  0  0  0  0  0  0  0  0  0  0  0
   -2.6005   -0.3333   -0.2478 H   0  0  0  0  0  0  0  0  0  0  0  0
   -0.5675   -0.1203    0.3102 C   0  0  1  0  0  0  0  0  0  0  0  0
    0.0191   -0.5718    1.1110 H   0  0  0  0  0  0  0  0  0  0  0  0
    0.1724   -0.3238   -1.0286 C   0  0  0  0  0  0  0  0  0  0  0  0
    0.6233    0.6251   -1.3255 H   0  0  0  0  0  0  0  0  0  0  0  0
    0.9826   -1.0369   -0.8612 H   0  0  0  0  0  0  0  0  0  0  0  0
   -0.6873   -0.8408   -2.1968 C   0  0  0  0  0  0  0  0  0  0  0  0
   -1.3331   -0.0415   -2.5604 H   0  0  0  0  0  0  0  0  0  0  0  0
    0.1654   -1.3594   -3.3583 C   0  0  0  0  0  0  0  0  0  0  0  0
    0.8296   -2.1499   -3.0063 H   0  0  0  0  0  0  0  0  0  0  0  0
   -0.4820   -1.7591   -4.1391 H   0  0  0  0  0  0  0  0  0  0  0  0
    0.7632   -0.5566   -3.7845 H   0  0  0  0  0  0  0  0  0  0  0  0
   -1.5772   -1.9861   -1.7155 C   0  0  0  0  0  0  0  0  0  0  0  0
   -2.2200   -1.6365   -0.9076 H   0  0  0  0  0  0  0  0  0  0  0  0
   -2.2067   -2.3355   -2.5338 H   0  0  0  0  0  0  0  0  0  0  0  0
   -0.9637   -2.8126   -1.3552 H   0  0  0  0  0  0  0  0  0  0  0  0
   -0.7793    1.3659    0.6455 C   0  0  0  0  0  0  0  0  0  0  0  0
   -1.6464    2.0125    0.0623 O   0  0  0  0  0  0  0  0  0  0  0  0
    0.0189    1.9059    1.5756 N   0  0  0  0  0  0  0  0  0  0  0  0
    0.7024    1.3094    2.0137 H   0  0  0  0  0  0  0  0  0  0  0  0
   -0.0451    3.3046    1.9929 C   0  0  0  0  0  0  0  0  0  0  0  0
   -1.0415    3.5286    2.3805 H   0  0  0  0  0  0  0  0  0  0  0  0
    0.6954    3.5023    2.7695 H   0  0  0  0  0  0  0  0  0  0  0  0
    0.1474    3.9536    1.1372 H   0  0  0  0  0  0  0  0  0  0  0  0
  5  6  2  0  0  0  0
  5  7  1  0  0  0  0
  2  3  1  0  0  0  0
  2  4  1  0  0  0  0
  2  5  1  0  0  0  0
  1  2  1  0  0  0  0
 24 25  2  0  0  0  0
 24 26  1  0  0  0  0
 20 21  1  0  0  0  0
 20 22  1  0  0  0  0
 20 23  1  0  0  0  0
 16 17  1  0  0  0  0
 16 18  1  0  0  0  0
 16 19  1  0  0  0  0
 14 15  1  0  0  0  0
 14 16  1  0  0  0  0
 14 20  1  0  0  0  0
 11 12  1  0  0  0  0
 11 13  1  0  0  0  0
 11 14  1  0  0  0  0
  9 10  1  0  0  0  0
  9 11  1  0  0  0  0
  9 24  1  0  0  0  0
  7  8  1  0  0  0  0
  7  9  1  0  0  0  0
 28 29  1  0  0  0  0
 28 30  1  0  0  0  0
 28 31  1  0  0  0  0
 26 27  1  0  0  0  0
 26 28  1  0  0  0  0
M  END
$$$$
default_name
  -OEChem-02102213163D

 31 30  0     1  0  0  0  0  0999 V2000
   -3.5895   -3.5013    1.1082 H   0  0  0  0  0  0  0  0  0  0  0  0
   -3.5145   -2.5363    0.6082 C   0  0  0  0  0  0  0  0  0  0  0  0
   -4.2285   -1.8413    1.0452 H   0  0  0  0  0  0  0  0  0  0  0  0
   -3.7155   -2.6583   -0.4538 H   0  0  0  0  0  0  0  0  0  0  0  0
   -2.1155   -1.9963    0.7922 C   0  0  0  0  0  0  0  0  0  0  0  0
   -1.2875   -2.6383    1.4252 O   0  0  0  0  0  0  0  0  0  0  0  0
   -1.8575   -0.8123    0.2402 N   0  0  0  0  0  0  0  0  0  0  0  0
   -2.6005   -0.3333   -0.2478 H   0  0  0  0  0  0  0  0  0  0  0  0
   -0.5675   -0.1203    0.3102 C   0  0  1  0  0  0  0  0  0  0  0  0
    0.0191   -0.5718    1.1110 H   0  0  0  0  0  0  0  0  0  0  0  0
    0.1724   -0.3238   -1.0286 C   0  0  0  0  0  0  0  0  0  0  0  0
    0.6233    0.6251   -1.3255 H   0  0  0  0  0  0  0  0  0  0  0  0
    0.9826   -1.0369   -0.8612 H   0  0  0  0  0  0  0  0  0  0  0  0
   -0.6873   -0.8408   -2.1968 C   0  0  0  0  0  0  0  0  0  0  0  0
   -1.1296    0.0013   -2.7291 H   0  0  0  0  0  0  0  0  0  0  0  0
    0.1244   -1.6837   -3.1847 C   0  0  0  0  0  0  0  0  0  0  0  0
    0.5872   -2.5225   -2.6631 H   0  0  0  0  0  0  0  0  0  0  0  0
   -0.5323   -2.0679   -3.9655 H   0  0  0  0  0  0  0  0  0  0  0  0
    0.9018   -1.0840   -3.6531 H   0  0  0  0  0  0  0  0  0  0  0  0
   -1.8234   -1.7087   -1.6571 C   0  0  0  0  0  0  0  0  0  0  0  0
   -2.4387   -1.1238   -0.9735 H   0  0  0  0  0  0  0  0  0  0  0  0
   -2.4497   -2.0533   -2.4799 H   0  0  0  0  0  0  0  0  0  0  0  0
   -1.4180   -2.5716   -1.1276 H   0  0  0  0  0  0  0  0  0  0  0  0
   -0.7793    1.3659    0.6455 C   0  0  0  0  0  0  0  0  0  0  0  0
   -1.6464    2.0125    0.0623 O   0  0  0  0  0  0  0  0  0  0  0  0
    0.0189    1.9059    1.5756 N   0  0  0  0  0  0  0  0  0  0  0  0
    0.7024    1.3094    2.0137 H   0  0  0  0  0  0  0  0  0  0  0  0
   -0.0451    3.3046    1.9929 C   0  0  0  0  0  0  0  0  0  0  0  0
   -1.0415    3.5286    2.3805 H   0  0  0  0  0  0  0  0  0  0  0  0
    0.6954    3.5023    2.7695 H   0  0  0  0  0  0  0  0  0  0  0  0
    0.1474    3.9536    1.1372 H   0  0  0  0  0  0  0  0  0  0  0  0
  5  6  2  0  0  0  0
  5  7  1  0  0  0  0
  2  3  1  0  0  0  0
  2  4  1  0  0  0  0
  2  5  1  0  0  0  0
  1  2  1  0  0  0  0
 24 25  2  0  0  0  0
 24 26  1  0  0  0  0
 20 21  1  0  0  0  0
 20 22  1  0  0  0  0
 20 23  1  0  0  0  0
 16 17  1  0  0  0  0
 16 18  1  0  0  0  0
 16 19  1  0  0  0  0
 14 15  1  0  0  0  0
 14 16  1  0  0  0  0
 14 20  1  0  0  0  0
 11 12  1  0  0  0  0
 11 13  1  0  0  0  0
 11 14  1  0  0  0  0
  9 10  1  0  0  0  0
  9 11  1  0  0  0  0
  9 24  1  0  0  0  0
  7  8  1  0  0  0  0
  7  9  1  0  0  0  0
 28 29  1  0  0  0  0
 28 30  1  0  0  0  0
 28 31  1  0  0  0  0
 26 27  1  0  0  0  0
 26 28  1  0  0  0  0
M  END
$$$$
default_name
  -OEChem-02102213163D

 31 30  0     1  0  0  0  0  0999 V2000
   -3.5895   -3.5013    1.1082 H   0  0  0  0  0  0  0  0  0  0  0  0
   -3.5145   -2.5363    0.6082 C   0  0  0  0  0  0  0  0  0  0  0  0
   -4.2285   -1.8413    1.0452 H   0  0  0  0  0  0  0  0  0  0  0  0
   -3.7155   -2.6583   -0.4538 H   0  0  0  0  0  0  0  0  0  0  0  0
   -2.1155   -1.9963    0.7922 C   0  0  0  0  0  0  0  0  0  0  0  0
   -1.2875   -2.6383    1.4252 O   0  0  0  0  0  0  0  0  0  0  0  0
   -1.8575   -0.8123    0.2402 N   0  0  0  0  0  0  0  0  0  0  0  0
   -2.6005   -0.3333   -0.2478 H   0  0  0  0  0  0  0  0  0  0  0  0
   -0.5675   -0.1203    0.3102 C   0  0  1  0  0  0  0  0  0  0  0  0
    0.0191   -0.5718    1.1110 H   0  0  0  0  0  0  0  0  0  0  0  0
    0.1724   -0.3238   -1.0286 C   0  0  0  0  0  0  0  0  0  0  0  0
    0.6233    0.6251   -1.3255 H   0  0  0  0  0  0  0  0  0  0  0  0
    0.9826   -1.0369   -0.8612 H   0  0  0  0  0  0  0  0  0  0  0  0
   -0.6873   -0.8408   -2.1968 C   0  0  0  0  0  0  0  0  0  0  0  0
   -0.9099   -0.0217   -2.8806 H   0  0  0  0  0  0  0  0  0  0  0  0
    0.0061   -1.9637   -2.9737 C   0  0  0  0  0  0  0  0  0  0  0  0
    0.2502   -2.7852   -2.2987 H   0  0  0  0  0  0  0  0  0  0  0  0
   -0.6565   -2.3312   -3.7576 H   0  0  0  0  0  0  0  0  0  0  0  0
    0.9208   -1.6016   -3.4380 H   0  0  0  0  0  0  0  0  0  0  0  0
   -2.0118   -1.3840   -1.6621 C   0  0  0  0  0  0  0  0  0  0  0  0
   -2.5437   -0.5951   -1.1302 H   0  0  0  0  0  0  0  0  0  0  0  0
   -2.6337   -1.7252   -2.4897 H   0  0  0  0  0  0  0  0  0  0  0  0
   -1.8292   -2.2167   -0.9820 H   0  0  0  0  0  0  0  0  0  0  0  0
   -0.7793    1.3659    0.6455 C   0  0  0  0  0  0  0  0  0  0  0  0
   -1.6464    2.0125    0.0623 O   0  0  0  0  0  0  0  0  0  0  0  0
    0.0189    1.9059    1.5756 N   0  0  0  0  0  0  0  0  0  0  0  0
    0.7024    1.3094    2.0137 H   0  0  0  0  0  0  0  0  0  0  0  0
   -0.0451    3.3046    1.9929 C   0  0  0  0  0  0  0  0  0  0  0  0
   -1.0415    3.5286    2.3805 H   0  0  0  0  0  0  0  0  0  0  0  0
    0.6954    3.5023    2.7695 H   0  0  0  0  0  0  0  0  0  0  0  0
    0.1474    3.9536    1.1372 H   0  0  0  0  0  0  0  0  0  0  0  0
  5  6  2  0  0  0  0
  5  7  1  0  0  0  0
  2  3  1  0  0  0  0
  2  4  1  0  0  0  0
  2  5  1  0  0  0  0
  1  2  1  0  0  0  0
 24 25  2  0  0  0  0
 24 26  1  0  0  0  0
 20 21  1  0  0  0  0
 20 22  1  0  0  0  0
 20 23  1  0  0  0  0
 16 17  1  0  0  0  0
 16 18  1  0  0  0  0
 16 19  1  0  0  0  0
 14 15  1  0  0  0  0
 14 16  1  0  0  0  0
 14 20  1  0  0  0  0
 11 12  1  0  0  0  0
 11 13  1  0  0  0  0
 11 14  1  0  0  0  0
  9 10  1  0  0  0  0
  9 11  1  0  0  0  0
  9 24  1  0  0  0  0
  7  8  1  0  0  0  0
  7  9  1  0  0  0  0
 28 29  1  0  0  0  0
 28 30  1  0  0  0  0
 28 31  1  0  0  0  0
 26 27  1  0  0  0  0
 26 28  1  0  0  0  0
M  END
$$$$
default_name
  -OEChem-02102213163D

 31 30  0     1  0  0  0  0  0999 V2000
   -3.5895   -3.5013    1.1082 H   0  0  0  0  0  0  0  0  0  0  0  0
   -3.5145   -2.5363    0.6082 C   0  0  0  0  0  0  0  0  0  0  0  0
   -4.2285   -1.8413    1.0452 H   0  0  0  0  0  0  0  0  0  0  0  0
   -3.7155   -2.6583   -0.4538 H   0  0  0  0  0  0  0  0  0  0  0  0
   -2.1155   -1.9963    0.7922 C   0  0  0  0  0  0  0  0  0  0  0  0
   -1.2875   -2.6383    1.4252 O   0  0  0  0  0  0  0  0  0  0  0  0
   -1.8575   -0.8123    0.2402 N   0  0  0  0  0  0  0  0  0  0  0  0
   -2.6005   -0.3333   -0.2478 H   0  0  0  0  0  0  0  0  0  0  0  0
   -0.5675   -0.1203    0.3102 C   0  0  1  0  0  0  0  0  0  0  0  0
    0.0191   -0.5718    1.1110 H   0  0  0  0  0  0  0  0  0  0  0  0
    0.1724   -0.3238   -1.0286 C   0  0  0  0  0  0  0  0  0  0  0  0
    0.6233    0.6251   -1.3255 H   0  0  0  0  0  0  0  0  0  0  0  0
    0.9826   -1.0369   -0.8612 H   0  0  0  0  0  0  0  0  0  0  0  0
   -0.6873   -0.8408   -2.1968 C   0  0  0  0  0  0  0  0  0  0  0  0
   -0.6891   -0.1089   -3.0045 H   0  0  0  0  0  0  0  0  0  0  0  0
   -0.1815   -2.1805   -2.7397 C   0  0  0  0  0  0  0  0  0  0  0  0
   -0.1587   -2.9201   -1.9382 H   0  0  0  0  0  0  0  0  0  0  0  0
   -0.8463   -2.5310   -3.5294 H   0  0  0  0  0  0  0  0  0  0  0  0
    0.8188   -2.0742   -3.1538 H   0  0  0  0  0  0  0  0  0  0  0  0
   -2.1297   -1.0340   -1.7303 C   0  0  0  0  0  0  0  0  0  0  0  0
   -2.5276   -0.0865   -1.3671 H   0  0  0  0  0  0  0  0  0  0  0  0
   -2.7461   -1.3736   -2.5626 H   0  0  0  0  0  0  0  0  0  0  0  0
   -2.1694   -1.7721   -0.9284 H   0  0  0  0  0  0  0  0  0  0  0  0
   -0.7793    1.3659    0.6455 C   0  0  0  0  0  0  0  0  0  0  0  0
   -1.6464    2.0125    0.0623 O   0  0  0  0  0  0  0  0  0  0  0  0
    0.0189    1.9059    1.5756 N   0  0  0  0  0  0  0  0  0  0  0  0
    0.7024    1.3094    2.0137 H   0  0  0  0  0  0  0  0  0  0  0  0
   -0.0451    3.3046    1.9929 C   0  0  0  0  0  0  0  0  0  0  0  0
   -1.0415    3.5286    2.3805 H   0  0  0  0  0  0  0  0  0  0  0  0
    0.6954    3.5023    2.7695 H   0  0  0  0  0  0  0  0  0  0  0  0
    0.1474    3.9536    1.1372 H   0  0  0  0  0  0  0  0  0  0  0  0
  5  6  2  0  0  0  0
  5  7  1  0  0  0  0
  2  3  1  0  0  0  0
  2  4  1  0  0  0  0
  2  5  1  0  0  0  0
  1  2  1  0  0  0  0
 24 25  2  0  0  0  0
 24 26  1  0  0  0  0
 20 21  1  0  0  0  0
 20 22  1  0  0  0  0
 20 23  1  0  0  0  0
 16 17  1  0  0  0  0
 16 18  1  0  0  0  0
 16 19  1  0  0  0  0
 14 15  1  0  0  0  0
 14 16  1  0  0  0  0
 14 20  1  0  0  0  0
 11 12  1  0  0  0  0
 11 13  1  0  0  0  0
 11 14  1  0  0  0  0
  9 10  1  0  0  0  0
  9 11  1  0  0  0  0
  9 24  1  0  0  0  0
  7  8  1  0  0  0  0
  7  9  1  0  0  0  0
 28 29  1  0  0  0  0
 28 30  1  0  0  0  0
 28 31  1  0  0  0  0
 26 27  1  0  0  0  0
 26 28  1  0  0  0  0
M  END
$$$$
default_name
  -OEChem-02102213163D

 31 30  0     1  0  0  0  0  0999 V2000
   -3.5895   -3.5013    1.1082 H   0  0  0  0  0  0  0  0  0  0  0  0
   -3.5145   -2.5363    0.6082 C   0  0  0  0  0  0  0  0  0  0  0  0
   -4.2285   -1.8413    1.0452 H   0  0  0  0  0  0  0  0  0  0  0  0
   -3.7155   -2.6583   -0.4538 H   0  0  0  0  0  0  0  0  0  0  0  0
   -2.1155   -1.9963    0.7922 C   0  0  0  0  0  0  0  0  0  0  0  0
   -1.2875   -2.6383    1.4252 O   0  0  0  0  0  0  0  0  0  0  0  0
   -1.8575   -0.8123    0.2402 N   0  0  0  0  0  0  0  0  0  0  0  0
   -2.6005   -0.3333   -0.2478 H   0  0  0  0  0  0  0  0  0  0  0  0
   -0.5675   -0.1203    0.3102 C   0  0  1  0  0  0  0  0  0  0  0  0
    0.0191   -0.5718    1.1110 H   0  0  0  0  0  0  0  0  0  0  0  0
    0.1724   -0.3238   -1.0286 C   0  0  0  0  0  0  0  0  0  0  0  0
    0.6233    0.6251   -1.3255 H   0  0  0  0  0  0  0  0  0  0  0  0
    0.9826   -1.0369   -0.8612 H   0  0  0  0  0  0  0  0  0  0  0  0
   -0.6873   -0.8408   -2.1968 C   0  0  0  0  0  0  0  0  0  0  0  0
   -0.4821   -0.2544   -3.0925 H   0  0  0  0  0  0  0  0  0  0  0  0
   -0.4257   -2.3192   -2.4986 C   0  0  0  0  0  0  0  0  0  0  0  0
   -0.6114   -2.9181   -1.6059 H   0  0  0  0  0  0  0  0  0  0  0  0
   -1.0887   -2.6539   -3.2967 H   0  0  0  0  0  0  0  0  0  0  0  0
    0.6027   -2.4696   -2.8198 H   0  0  0  0  0  0  0  0  0  0  0  0
   -2.1688   -0.6827   -1.8569 C   0  0  0  0  0  0  0  0  0  0  0  0
   -2.3917    0.3674   -1.6680 H   0  0  0  0  0  0  0  0  0  0  0  0
   -2.7794   -1.0224   -2.6935 H   0  0  0  0  0  0  0  0  0  0  0  0
   -2.4154   -1.2681   -0.9704 H   0  0  0  0  0  0  0  0  0  0  0  0
   -0.7793    1.3659    0.6455 C   0  0  0  0  0  0  0  0  0  0  0  0
   -1.6464    2.0125    0.0623 O   0  0  0  0  0  0  0  0  0  0  0  0
    0.0189    1.9059    1.5756 N   0  0  0  0  0  0  0  0  0  0  0  0
    0.7024    1.3094    2.0137 H   0  0  0  0  0  0  0  0  0  0  0  0
   -0.0451    3.3046    1.9929 C   0  0  0  0  0  0  0  0  0  0  0  0
   -1.0415    3.5286    2.3805 H   0  0  0  0  0  0  0  0  0  0  0  0
    0.6954    3.5023    2.7695 H   0  0  0  0  0  0  0  0  0  0  0  0
    0.1474    3.9536    1.1372 H   0  0  0  0  0  0  0  0  0  0  0  0
  5  6  2  0  0  0  0
  5  7  1  0  0  0  0
  2  3  1  0  0  0  0
  2  4  1  0  0  0  0
  2  5  1  0  0  0  0
  1  2  1  0  0  0  0
 24 25  2  0  0  0  0
 24 26  1  0  0  0  0
 20 21  1  0  0  0  0
 20 22  1  0  0  0  0
 20 23  1  0  0  0  0
 16 17  1  0  0  0  0
 16 18  1  0  0  0  0
 16 19  1  0  0  0  0
 14 15  1  0  0  0  0
 14 16  1  0  0  0  0
 14 20  1  0  0  0  0
 11 12  1  0  0  0  0
 11 13  1  0  0  0  0
 11 14  1  0  0  0  0
  9 10  1  0  0  0  0
  9 11  1  0  0  0  0
  9 24  1  0  0  0  0
  7  8  1  0  0  0  0
  7  9  1  0  0  0  0
 28 29  1  0  0  0  0
 28 30  1  0  0  0  0
 28 31  1  0  0  0  0
 26 27  1  0  0  0  0
 26 28  1  0  0  0  0
M  END
$$$$
default_name
  -OEChem-02102213163D

 31 30  0     1  0  0  0  0  0999 V2000
   -3.5895   -3.5013    1.1082 H   0  0  0  0  0  0  0  0  0  0  0  0
   -3.5145   -2.5363    0.6082 C   0  0  0  0  0  0  0  0  0  0  0  0
   -4.2285   -1.8413    1.0452 H   0  0  0  0  0  0  0  0  0  0  0  0
   -3.7155   -2.6583   -0.4538 H   0  0  0  0  0  0  0  0  0  0  0  0
   -2.1155   -1.9963    0.7922 C   0  0  0  0  0  0  0  0  0  0  0  0
   -1.2875   -2.6383    1.4252 O   0  0  0  0  0  0  0  0  0  0  0  0
   -1.8575   -0.8123    0.2402 N   0  0  0  0  0  0  0  0  0  0  0  0
   -2.6005   -0.3333   -0.2478 H   0  0  0  0  0  0  0  0  0  0  0  0
   -0.5675   -0.1203    0.3102 C   0  0  1  0  0  0  0  0  0  0  0  0
    0.0191   -0.5718    1.1110 H   0  0  0  0  0  0  0  0  0  0  0  0
    0.1724   -0.3238   -1.0286 C   0  0  0  0  0  0  0  0  0  0  0  0
    0.6233    0.6251   -1.3255 H   0  0  0  0  0  0  0  0  0  0  0  0
    0.9826   -1.0369   -0.8612 H   0  0  0  0  0  0  0  0  0  0  0  0
   -0.6873   -0.8408   -2.1968 C   0  0  0  0  0  0  0  0  0  0  0  0
   -0.3031   -0.4484   -3.1383 H   0  0  0  0  0  0  0  0  0  0  0  0
   -0.7097   -2.3704   -2.2669 C   0  0  0  0  0  0  0  0  0  0  0  0
   -1.0771   -2.7792   -1.3247 H   0  0  0  0  0  0  0  0  0  0  0  0
   -1.3672   -2.6913   -3.0752 H   0  0  0  0  0  0  0  0  0  0  0  0
    0.2874   -2.7609   -2.4589 H   0  0  0  0  0  0  0  0  0  0  0  0
   -2.1266   -0.3540   -2.0334 C   0  0  0  0  0  0  0  0  0  0  0  0
   -2.1451    0.7356   -2.0125 H   0  0  0  0  0  0  0  0  0  0  0  0
   -2.7311   -0.6956   -2.8737 H   0  0  0  0  0  0  0  0  0  0  0  0
   -2.5504   -0.7390   -1.1052 H   0  0  0  0  0  0  0  0  0  0  0  0
   -0.7793    1.3659    0.6455 C   0  0  0  0  0  0  0  0  0  0  0  0
   -1.6464    2.0125    0.0623 O   0  0  0  0  0  0  0  0  0  0  0  0
    0.0189    1.9059    1.5756 N   0  0  0  0  0  0  0  0  0  0  0  0
    0.7024    1.3094    2.0137 H   0  0  0  0  0  0  0  0  0  0  0  0
   -0.0451    3.3046    1.9929 C   0  0  0  0  0  0  0  0  0  0  0  0
   -1.0415    3.5286    2.3805 H   0  0  0  0  0  0  0  0  0  0  0  0
    0.6954    3.5023    2.7695 H   0  0  0  0  0  0  0  0  0  0  0  0
    0.1474    3.9536    1.1372 H   0  0  0  0  0  0  0  0  0  0  0  0
  5  6  2  0  0  0  0
  5  7  1  0  0  0  0
  2  3  1  0  0  0  0
  2  4  1  0  0  0  0
  2  5  1  0  0  0  0
  1  2  1  0  0  0  0
 24 25  2  0  0  0  0
 24 26  1  0  0  0  0
 20 21  1  0  0  0  0
 20 22  1  0  0  0  0
 20 23  1  0  0  0  0
 16 17  1  0  0  0  0
 16 18  1  0  0  0  0
 16 19  1  0  0  0  0
 14 15  1  0  0  0  0
 14 16  1  0  0  0  0
 14 20  1  0  0  0  0
 11 12  1  0  0  0  0
 11 13  1  0  0  0  0
 11 14  1  0  0  0  0
  9 10  1  0  0  0  0
  9 11  1  0  0  0  0
  9 24  1  0  0  0  0
  7  8  1  0  0  0  0
  7  9  1  0  0  0  0
 28 29  1  0  0  0  0
 28 30  1  0  0  0  0
 28 31  1  0  0  0  0
 26 27  1  0  0  0  0
 26 28  1  0  0  0  0
M  END
$$$$
default_name
  -OEChem-02102213163D

 31 30  0     1  0  0  0  0  0999 V2000
   -3.5895   -3.5013    1.1082 H   0  0  0  0  0  0  0  0  0  0  0  0
   -3.5145   -2.5363    0.6082 C   0  0  0  0  0  0  0  0  0  0  0  0
   -4.2285   -1.8413    1.0452 H   0  0  0  0  0  0  0  0  0  0  0  0
   -3.7155   -2.6583   -0.4538 H   0  0  0  0  0  0  0  0  0  0  0  0
   -2.1155   -1.9963    0.7922 C   0  0  0  0  0  0  0  0  0  0  0  0
   -1.2875   -2.6383    1.4252 O   0  0  0  0  0  0  0  0  0  0  0  0
   -1.8575   -0.8123    0.2402 N   0  0  0  0  0  0  0  0  0  0  0  0
   -2.6005   -0.3333   -0.2478 H   0  0  0  0  0  0  0  0  0  0  0  0
   -0.5675   -0.1203    0.3102 C   0  0  1  0  0  0  0  0  0  0  0  0
    0.0191   -0.5718    1.1110 H   0  0  0  0  0  0  0  0  0  0  0  0
    0.1724   -0.3238   -1.0286 C   0  0  0  0  0  0  0  0  0  0  0  0
    0.6233    0.6251   -1.3255 H   0  0  0  0  0  0  0  0  0  0  0  0
    0.9826   -1.0369   -0.8612 H   0  0  0  0  0  0  0  0  0  0  0  0
   -0.6873   -0.8408   -2.1968 C   0  0  0  0  0  0  0  0  0  0  0  0
   -0.1644   -0.6774   -3.1391 H   0  0  0  0  0  0  0  0  0  0  0  0
   -1.0142   -2.3307   -2.0604 C   0  0  0  0  0  0  0  0  0  0  0  0
   -1.5242   -2.5129   -1.1135 H   0  0  0  0  0  0  0  0  0  0  0  0
   -1.6628   -2.6407   -2.8801 H   0  0  0  0  0  0  0  0  0  0  0  0
   -0.1058   -2.9281   -2.0955 H   0  0  0  0  0  0  0  0  0  0  0  0
   -2.0060   -0.0702   -2.2478 C   0  0  0  0  0  0  0  0  0  0  0  0
   -1.8046    0.9931   -2.3770 H   0  0  0  0  0  0  0  0  0  0  0  0
   -2.6047   -0.4154   -3.0907 H   0  0  0  0  0  0  0  0  0  0  0  0
   -2.5651   -0.2210   -1.3236 H   0  0  0  0  0  0  0  0  0  0  0  0
   -0.7793    1.3659    0.6455 C   0  0  0  0  0  0  0  0  0  0  0  0
   -1.6464    2.0125    0.0623 O   0  0  0  0  0  0  0  0  0  0  0  0
    0.0189    1.9059    1.5756 N   0  0  0  0  0  0  0  0  0  0  0  0
    0.7024    1.3094    2.0137 H   0  0  0  0  0  0  0  0  0  0  0  0
   -0.0451    3.3046    1.9929 C   0  0  0  0  0  0  0  0  0  0  0  0
   -1.0415    3.5286    2.3805 H   0  0  0  0  0  0  0  0  0  0  0  0
    0.6954    3.5023    2.7695 H   0  0  0  0  0  0  0  0  0  0  0  0
    0.1474    3.9536    1.1372 H   0  0  0  0  0  0  0  0  0  0  0  0
  5  6  2  0  0  0  0
  5  7  1  0  0  0  0
  2  3  1  0  0  0  0
  2  4  1  0  0  0  0
  2  5  1  0  0  0  0
  1  2  1  0  0  0  0
 24 25  2  0  0  0  0
 24 26  1  0  0  0  0
 20 21  1  0  0  0  0
 20 22  1  0  0  0  0
 20 23  1  0  0  0  0
 16 17  1  0  0  0  0
 16 18  1  0  0  0  0
 16 19  1  0  0  0  0
 14 15  1  0  0  0  0
 14 16  1  0  0  0  0
 14 20  1  0  0  0  0
 11 12  1  0  0  0  0
 11 13  1  0  0  0  0
 11 14  1  0  0  0  0
  9 10  1  0  0  0  0
  9 11  1  0  0  0  0
  9 24  1  0  0  0  0
  7  8  1  0  0  0  0
  7  9  1  0  0  0  0
 28 29  1  0  0  0  0
 28 30  1  0  0  0  0
 28 31  1  0  0  0  0
 26 27  1  0  0  0  0
 26 28  1  0  0  0  0
M  END
$$$$
default_name
  -OEChem-02102213163D

 31 30  0     1  0  0  0  0  0999 V2000
   -3.5895   -3.5013    1.1082 H   0  0  0  0  0  0  0  0  0  0  0  0
   -3.5145   -2.5363    0.6082 C   0  0  0  0  0  0  0  0  0  0  0  0
   -4.2285   -1.8413    1.0452 H   0  0  0  0  0  0  0  0  0  0  0  0
   -3.7155   -2.6583   -0.4538 H   0  0  0  0  0  0  0  0  0  0  0  0
   -2.1155   -1.9963    0.7922 C   0  0  0  0  0  0  0  0  0  0  0  0
   -1.2875   -2.6383    1.4252 O   0  0  0  0  0  0  0  0  0  0  0  0
   -1.8575   -0.8123    0.2402 N   0  0  0  0  0  0  0  0  0  0  0  0
   -2.6005   -0.3333   -0.2478 H   0  0  0  0  0  0  0  0  0  0  0  0
   -0.5675   -0.1203    0.3102 C   0  0  1  0  0  0  0  0  0  0  0  0
    0.0191   -0.5718    1.1110 H   0  0  0  0  0  0  0  0  0  0  0  0
    0.1724   -0.3238   -1.0286 C   0  0  0  0  0  0  0  0  0  0  0  0
    0.6233    0.6251   -1.3255 H   0  0  0  0  0  0  0  0  0  0  0  0
    0.9826   -1.0369   -0.8612 H   0  0  0  0  0  0  0  0  0  0  0  0
   -0.6873   -0.8408   -2.1968 C   0  0  0  0  0  0  0  0  0  0  0  0
   -0.0752   -0.9260   -3.0947 H   0  0  0  0  0  0  0  0  0  0  0  0
   -1.3185   -2.2026   -1.8932 C   0  0  0  0  0  0  0  0  0  0  0  0
   -1.9221   -2.1375   -0.9868 H   0  0  0  0  0  0  0  0  0  0  0  0
   -1.9553   -2.5057   -2.7246 H   0  0  0  0  0  0  0  0  0  0  0  0
   -0.5499   -2.9600   -1.7546 H   0  0  0  0  0  0  0  0  0  0  0  0
   -1.8152    0.1492   -2.4853 C   0  0  0  0  0  0  0  0  0  0  0  0
   -1.3936    1.1223   -2.7367 H   0  0  0  0  0  0  0  0  0  0  0  0
   -2.4087   -0.2009   -3.3299 H   0  0  0  0  0  0  0  0  0  0  0  0
   -2.4587    0.2508   -1.6107 H   0  0  0  0  0  0  0  0  0  0  0  0
   -0.7793    1.3659    0.6455 C   0  0  0  0  0  0  0  0  0  0  0  0
   -1.6464    2.0125    0.0623 O   0  0  0  0  0  0  0  0  0  0  0  0
    0.0189    1.9059    1.5756 N   0  0  0  0  0  0  0  0  0  0  0  0
    0.7024    1.3094    2.0137 H   0  0  0  0  0  0  0  0  0  0  0  0
   -0.0451    3.3046    1.9929 C   0  0  0  0  0  0  0  0  0  0  0  0
   -1.0415    3.5286    2.3805 H   0  0  0  0  0  0  0  0  0  0  0  0
    0.6954    3.5023    2.7695 H   0  0  0  0  0  0  0  0  0  0  0  0
    0.1474    3.9536    1.1372 H   0  0  0  0  0  0  0  0  0  0  0  0
  5  6  2  0  0  0  0
  5  7  1  0  0  0  0
  2  3  1  0  0  0  0
  2  4  1  0  0  0  0
  2  5  1  0  0  0  0
  1  2  1  0  0  0  0
 24 25  2  0  0  0  0
 24 26  1  0  0  0  0
 20 21  1  0  0  0  0
 20 22  1  0  0  0  0
 20 23  1  0  0  0  0
 16 17  1  0  0  0  0
 16 18  1  0  0  0  0
 16 19  1  0  0  0  0
 14 15  1  0  0  0  0
 14 16  1  0  0  0  0
 14 20  1  0  0  0  0
 11 12  1  0  0  0  0
 11 13  1  0  0  0  0
 11 14  1  0  0  0  0
  9 10  1  0  0  0  0
  9 11  1  0  0  0  0
  9 24  1  0  0  0  0
  7  8  1  0  0  0  0
  7  9  1  0  0  0  0
 28 29  1  0  0  0  0
 28 30  1  0  0  0  0
 28 31  1  0  0  0  0
 26 27  1  0  0  0  0
 26 28  1  0  0  0  0
M  END
$$$$
default_name
  -OEChem-02102213163D

 31 30  0     1  0  0  0  0  0999 V2000
   -3.5895   -3.5013    1.1082 H   0  0  0  0  0  0  0  0  0  0  0  0
   -3.5145   -2.5363    0.6082 C   0  0  0  0  0  0  0  0  0  0  0  0
   -4.2285   -1.8413    1.0452 H   0  0  0  0  0  0  0  0  0  0  0  0
   -3.7155   -2.6583   -0.4538 H   0  0  0  0  0  0  0  0  0  0  0  0
   -2.1155   -1.9963    0.7922 C   0  0  0  0  0  0  0  0  0  0  0  0
   -1.2875   -2.6383    1.4252 O   0  0  0  0  0  0  0  0  0  0  0  0
   -1.8575   -0.8123    0.2402 N   0  0  0  0  0  0  0  0  0  0  0  0
   -2.6005   -0.3333   -0.2478 H   0  0  0  0  0  0  0  0  0  0  0  0
   -0.5675   -0.1203    0.3102 C   0  0  1  0  0  0  0  0  0  0  0  0
    0.0191   -0.5718    1.1110 H   0  0  0  0  0  0  0  0  0  0  0  0
    0.1724   -0.3238   -1.0286 C   0  0  0  0  0  0  0  0  0  0  0  0
    0.6233    0.6251   -1.3255 H   0  0  0  0  0  0  0  0  0  0  0  0
    0.9826   -1.0369   -0.8612 H   0  0  0  0  0  0  0  0  0  0  0  0
   -0.6873   -0.8408   -2.1968 C   0  0  0  0  0  0  0  0  0  0  0  0
   -0.0418   -1.1773   -3.0081 H   0  0  0  0  0  0  0  0  0  0  0  0
   -1.6018   -1.9950   -1.7765 C   0  0  0  0  0  0  0  0  0  0  0  0
   -2.2437   -1.6784   -0.9533 H   0  0  0  0  0  0  0  0  0  0  0  0
   -2.2249   -2.2953   -2.6193 H   0  0  0  0  0  0  0  0  0  0  0  0
   -1.0148   -2.8543   -1.4592 H   0  0  0  0  0  0  0  0  0  0  0  0
   -1.5671    0.2893   -2.7299 C   0  0  0  0  0  0  0  0  0  0  0  0
   -0.9399    1.1144   -3.0671 H   0  0  0  0  0  0  0  0  0  0  0  0
   -2.1565   -0.0668   -3.5748 H   0  0  0  0  0  0  0  0  0  0  0  0
   -2.2383    0.6441   -1.9469 H   0  0  0  0  0  0  0  0  0  0  0  0
   -0.7793    1.3659    0.6455 C   0  0  0  0  0  0  0  0  0  0  0  0
   -1.6464    2.0125    0.0623 O   0  0  0  0  0  0  0  0  0  0  0  0
    0.0189    1.9059    1.5756 N   0  0  0  0  0  0  0  0  0  0  0  0
    0.7024    1.3094    2.0137 H   0  0  0  0  0  0  0  0  0  0  0  0
   -0.0451    3.3046    1.9929 C   0  0  0  0  0  0  0  0  0  0  0  0
   -1.0415    3.5286    2.3805 H   0  0  0  0  0  0  0  0  0  0  0  0
    0.6954    3.5023    2.7695 H   0  0  0  0  0  0  0  0  0  0  0  0
    0.1474    3.9536    1.1372 H   0  0  0  0  0  0  0  0  0  0  0  0
  5  6  2  0  0  0  0
  5  7  1  0  0  0  0
  2  3  1  0  0  0  0
  2  4  1  0  0  0  0
  2  5  1  0  0  0  0
  1  2  1  0  0  0  0
 24 25  2  0  0  0  0
 24 26  1  0  0  0  0
 20 21  1  0  0  0  0
 20 22  1  0  0  0  0
 20 23  1  0  0  0  0
 16 17  1  0  0  0  0
 16 18  1  0  0  0  0
 16 19  1  0  0  0  0
 14 15  1  0  0  0  0
 14 16  1  0  0  0  0
 14 20  1  0  0  0  0
 11 12  1  0  0  0  0
 11 13  1  0  0  0  0
 11 14  1  0  0  0  0
  9 10  1  0  0  0  0
  9 11  1  0  0  0  0
  9 24  1  0  0  0  0
  7  8  1  0  0  0  0
  7  9  1  0  0  0  0
 28 29  1  0  0  0  0
 28 30  1  0  0  0  0
 28 31  1  0  0  0  0
 26 27  1  0  0  0  0
 26 28  1  0  0  0  0
M  END
$$$$
default_name
  -OEChem-02102213163D

 31 30  0     1  0  0  0  0  0999 V2000
   -3.5895   -3.5013    1.1082 H   0  0  0  0  0  0  0  0  0  0  0  0
   -3.5145   -2.5363    0.6082 C   0  0  0  0  0  0  0  0  0  0  0  0
   -4.2285   -1.8413    1.0452 H   0  0  0  0  0  0  0  0  0  0  0  0
   -3.7155   -2.6583   -0.4538 H   0  0  0  0  0  0  0  0  0  0  0  0
   -2.1155   -1.9963    0.7922 C   0  0  0  0  0  0  0  0  0  0  0  0
   -1.2875   -2.6383    1.4252 O   0  0  0  0  0  0  0  0  0  0  0  0
   -1.8575   -0.8123    0.2402 N   0  0  0  0  0  0  0  0  0  0  0  0
   -2.6005   -0.3333   -0.2478 H   0  0  0  0  0  0  0  0  0  0  0  0
   -0.5675   -0.1203    0.3102 C   0  0  1  0  0  0  0  0  0  0  0  0
    0.0191   -0.5718    1.1110 H   0  0  0  0  0  0  0  0  0  0  0  0
    0.1724   -0.3238   -1.0286 C   0  0  0  0  0  0  0  0  0  0  0  0
    0.6233    0.6251   -1.3255 H   0  0  0  0  0  0  0  0  0  0  0  0
    0.9826   -1.0369   -0.8612 H   0  0  0  0  0  0  0  0  0  0  0  0
   -0.6873   -0.8408   -2.1968 C   0  0  0  0  0  0  0  0  0  0  0  0
   -0.0664   -1.4140   -2.8853 H   0  0  0  0  0  0  0  0  0  0  0  0
   -1.8448   -1.7220   -1.7185 C   0  0  0  0  0  0  0  0  0  0  0  0
   -2.4671   -1.1669   -1.0153 H   0  0  0  0  0  0  0  0  0  0  0  0
   -2.4531   -2.0239   -2.5714 H   0  0  0  0  0  0  0  0  0  0  0  0
   -1.4688   -2.6182   -1.2296 H   0  0  0  0  0  0  0  0  0  0  0  0
   -1.2787    0.3406   -2.9648 C   0  0  0  0  0  0  0  0  0  0  0  0
   -0.4745    0.9700   -3.3456 H   0  0  0  0  0  0  0  0  0  0  0  0
   -1.8653   -0.0222   -3.8089 H   0  0  0  0  0  0  0  0  0  0  0  0
   -1.9190    0.9321   -2.3094 H   0  0  0  0  0  0  0  0  0  0  0  0
   -0.7793    1.3659    0.6455 C   0  0  0  0  0  0  0  0  0  0  0  0
   -1.6464    2.0125    0.0623 O   0  0  0  0  0  0  0  0  0  0  0  0
    0.0189    1.9059    1.5756 N   0  0  0  0  0  0  0  0  0  0  0  0
    0.7024    1.3094    2.0137 H   0  0  0  0  0  0  0  0  0  0  0  0
   -0.0451    3.3046    1.9929 C   0  0  0  0  0  0  0  0  0  0  0  0
   -1.0415    3.5286    2.3805 H   0  0  0  0  0  0  0  0  0  0  0  0
    0.6954    3.5023    2.7695 H   0  0  0  0  0  0  0  0  0  0  0  0
    0.1474    3.9536    1.1372 H   0  0  0  0  0  0  0  0  0  0  0  0
  5  6  2  0  0  0  0
  5  7  1  0  0  0  0
  2  3  1  0  0  0  0
  2  4  1  0  0  0  0
  2  5  1  0  0  0  0
  1  2  1  0  0  0  0
 24 25  2  0  0  0  0
 24 26  1  0  0  0  0
 20 21  1  0  0  0  0
 20 22  1  0  0  0  0
 20 23  1  0  0  0  0
 16 17  1  0  0  0  0
 16 18  1  0  0  0  0
 16 19  1  0  0  0  0
 14 15  1  0  0  0  0
 14 16  1  0  0  0  0
 14 20  1  0  0  0  0
 11 12  1  0  0  0  0
 11 13  1  0  0  0  0
 11 14  1  0  0  0  0
  9 10  1  0  0  0  0
  9 11  1  0  0  0  0
  9 24  1  0  0  0  0
  7  8  1  0  0  0  0
  7  9  1  0  0  0  0
 28 29  1  0  0  0  0
 28 30  1  0  0  0  0
 28 31  1  0  0  0  0
 26 27  1  0  0  0  0
 26 28  1  0  0  0  0
M  END
$$$$
default_name
  -OEChem-02102213163D

 31 30  0     1  0  0  0  0  0999 V2000
   -3.5895   -3.5013    1.1082 H   0  0  0  0  0  0  0  0  0  0  0  0
   -3.5145   -2.5363    0.6082 C   0  0  0  0  0  0  0  0  0  0  0  0
   -4.2285   -1.8413    1.0452 H   0  0  0  0  0  0  0  0  0  0  0  0
   -3.7155   -2.6583   -0.4538 H   0  0  0  0  0  0  0  0  0  0  0  0
   -2.1155   -1.9963    0.7922 C   0  0  0  0  0  0  0  0  0  0  0  0
   -1.2875   -2.6383    1.4252 O   0  0  0  0  0  0  0  0  0  0  0  0
   -1.8575   -0.8123    0.2402 N   0  0  0  0  0  0  0  0  0  0  0  0
   -2.6005   -0.3333   -0.2478 H   0  0  0  0  0  0  0  0  0  0  0  0
   -0.5675   -0.1203    0.3102 C   0  0  1  0  0  0  0  0  0  0  0  0
    0.0191   -0.5718    1.1110 H   0  0  0  0  0  0  0  0  0  0  0  0
    0.1724   -0.3238   -1.0286 C   0  0  0  0  0  0  0  0  0  0  0  0
    0.6233    0.6251   -1.3255 H   0  0  0  0  0  0  0  0  0  0  0  0
    0.9826   -1.0369   -0.8612 H   0  0  0  0  0  0  0  0  0  0  0  0
   -0.6873   -0.8408   -2.1968 C   0  0  0  0  0  0  0  0  0  0  0  0
   -0.1473   -1.6201   -2.7345 H   0  0  0  0  0  0  0  0  0  0  0  0
   -2.0310   -1.4022   -1.7230 C   0  0  0  0  0  0  0  0  0  0  0  0
   -2.5771   -0.6379   -1.1684 H   0  0  0  0  0  0  0  0  0  0  0  0
   -2.6244   -1.7101   -2.5842 H   0  0  0  0  0  0  0  0  0  0  0  0
   -1.8809   -2.2678   -1.0814 H   0  0  0  0  0  0  0  0  0  0  0  0
   -0.9697    0.2996   -3.1741 C   0  0  0  0  0  0  0  0  0  0  0  0
   -0.0291    0.6989   -3.5534 H   0  0  0  0  0  0  0  0  0  0  0  0
   -1.5549   -0.0701   -4.0161 H   0  0  0  0  0  0  0  0  0  0  0  0
   -1.5225    1.0952   -2.6734 H   0  0  0  0  0  0  0  0  0  0  0  0
   -0.7793    1.3659    0.6455 C   0  0  0  0  0  0  0  0  0  0  0  0
   -1.6464    2.0125    0.0623 O   0  0  0  0  0  0  0  0  0  0  0  0
    0.0189    1.9059    1.5756 N   0  0  0  0  0  0  0  0  0  0  0  0
    0.7024    1.3094    2.0137 H   0  0  0  0  0  0  0  0  0  0  0  0
   -0.0451    3.3046    1.9929 C   0  0  0  0  0  0  0  0  0  0  0  0
   -1.0415    3.5286    2.3805 H   0  0  0  0  0  0  0  0  0  0  0  0
    0.6954    3.5023    2.7695 H   0  0  0  0  0  0  0  0  0  0  0  0
    0.1474    3.9536    1.1372 H   0  0  0  0  0  0  0  0  0  0  0  0
  5  6  2  0  0  0  0
  5  7  1  0  0  0  0
  2  3  1  0  0  0  0
  2  4  1  0  0  0  0
  2  5  1  0  0  0  0
  1  2  1  0  0  0  0
 24 25  2  0  0  0  0
 24 26  1  0  0  0  0
 20 21  1  0  0  0  0
 20 22  1  0  0  0  0
 20 23  1  0  0  0  0
 16 17  1  0  0  0  0
 16 18  1  0  0  0  0
 16 19  1  0  0  0  0
 14 15  1  0  0  0  0
 14 16  1  0  0  0  0
 14 20  1  0  0  0  0
 11 12  1  0  0  0  0
 11 13  1  0  0  0  0
 11 14  1  0  0  0  0
  9 10  1  0  0  0  0
  9 11  1  0  0  0  0
  9 24  1  0  0  0  0
  7  8  1  0  0  0  0
  7  9  1  0  0  0  0
 28 29  1  0  0  0  0
 28 30  1  0  0  0  0
 28 31  1  0  0  0  0
 26 27  1  0  0  0  0
 26 28  1  0  0  0  0
M  END
$$$$
default_name
  -OEChem-02102213163D

 31 30  0     1  0  0  0  0  0999 V2000
   -3.5895   -3.5013    1.1082 H   0  0  0  0  0  0  0  0  0  0  0  0
   -3.5145   -2.5363    0.6082 C   0  0  0  0  0  0  0  0  0  0  0  0
   -4.2285   -1.8413    1.0452 H   0  0  0  0  0  0  0  0  0  0  0  0
   -3.7155   -2.6583   -0.4538 H   0  0  0  0  0  0  0  0  0  0  0  0
   -2.1155   -1.9963    0.7922 C   0  0  0  0  0  0  0  0  0  0  0  0
   -1.2875   -2.6383    1.4252 O   0  0  0  0  0  0  0  0  0  0  0  0
   -1.8575   -0.8123    0.2402 N   0  0  0  0  0  0  0  0  0  0  0  0
   -2.6005   -0.3333   -0.2478 H   0  0  0  0  0  0  0  0  0  0  0  0
   -0.5675   -0.1203    0.3102 C   0  0  1  0  0  0  0  0  0  0  0  0
    0.0191   -0.5718    1.1110 H   0  0  0  0  0  0  0  0  0  0  0  0
    0.1724   -0.3238   -1.0286 C   0  0  0  0  0  0  0  0  0  0  0  0
    0.6233    0.6251   -1.3255 H   0  0  0  0  0  0  0  0  0  0  0  0
    0.9826   -1.0369   -0.8612 H   0  0  0  0  0  0  0  0  0  0  0  0
   -0.6873   -0.8408   -2.1968 C   0  0  0  0  0  0  0  0  0  0  0  0
   -0.2790   -1.7815   -2.5662 H   0  0  0  0  0  0  0  0  0  0  0  0
   -2.1476   -1.0574   -1.7898 C   0  0  0  0  0  0  0  0  0  0  0  0
   -2.5661   -0.1275   -1.4023 H   0  0  0  0  0  0  0  0  0  0  0  0
   -2.7271   -1.3752   -2.6568 H   0  0  0  0  0  0  0  0  0  0  0  0
   -2.2231   -1.8271   -1.0246 H   0  0  0  0  0  0  0  0  0  0  0  0
   -0.6610    0.1691   -3.3435 C   0  0  0  0  0  0  0  0  0  0  0  0
    0.3659    0.3195   -3.6762 H   0  0  0  0  0  0  0  0  0  0  0  0
   -1.2464   -0.2073   -4.1824 H   0  0  0  0  0  0  0  0  0  0  0  0
   -1.0759    1.1224   -3.0141 H   0  0  0  0  0  0  0  0  0  0  0  0
   -0.7793    1.3659    0.6455 C   0  0  0  0  0  0  0  0  0  0  0  0
   -1.6464    2.0125    0.0623 O   0  0  0  0  0  0  0  0  0  0  0  0
    0.0189    1.9059    1.5756 N   0  0  0  0  0  0  0  0  0  0  0  0
    0.7024    1.3094    2.0137 H   0  0  0  0  0  0  0  0  0  0  0  0
   -0.0451    3.3046    1.9929 C   0  0  0  0  0  0  0  0  0  0  0  0
   -1.0415    3.5286    2.3805 H   0  0  0  0  0  0  0  0  0  0  0  0
    0.6954    3.5023    2.7695 H   0  0  0  0  0  0  0  0  0  0  0  0
    0.1474    3.9536    1.1372 H   0  0  0  0  0  0  0  0  0  0  0  0
  5  6  2  0  0  0  0
  5  7  1  0  0  0  0
  2  3  1  0  0  0  0
  2  4  1  0  0  0  0
  2  5  1  0  0  0  0
  1  2  1  0  0  0  0
 24 25  2  0  0  0  0
 24 26  1  0  0  0  0
 20 21  1  0  0  0  0
 20 22  1  0  0  0  0
 20 23  1  0  0  0  0
 16 17  1  0  0  0  0
 16 18  1  0  0  0  0
 16 19  1  0  0  0  0
 14 15  1  0  0  0  0
 14 16  1  0  0  0  0
 14 20  1  0  0  0  0
 11 12  1  0  0  0  0
 11 13  1  0  0  0  0
 11 14  1  0  0  0  0
  9 10  1  0  0  0  0
  9 11  1  0  0  0  0
  9 24  1  0  0  0  0
  7  8  1  0  0  0  0
  7  9  1  0  0  0  0
 28 29  1  0  0  0  0
 28 30  1  0  0  0  0
 28 31  1  0  0  0  0
 26 27  1  0  0  0  0
 26 28  1  0  0  0  0
M  END
$$$$
default_name
  -OEChem-02102213163D

 31 30  0     1  0  0  0  0  0999 V2000
   -3.5895   -3.5013    1.1082 H   0  0  0  0  0  0  0  0  0  0  0  0
   -3.5145   -2.5363    0.6082 C   0  0  0  0  0  0  0  0  0  0  0  0
   -4.2285   -1.8413    1.0452 H   0  0  0  0  0  0  0  0  0  0  0  0
   -3.7155   -2.6583   -0.4538 H   0  0  0  0  0  0  0  0  0  0  0  0
   -2.1155   -1.9963    0.7922 C   0  0  0  0  0  0  0  0  0  0  0  0
   -1.2875   -2.6383    1.4252 O   0  0  0  0  0  0  0  0  0  0  0  0
   -1.8575   -0.8123    0.2402 N   0  0  0  0  0  0  0  0  0  0  0  0
   -2.6005   -0.3333   -0.2478 H   0  0  0  0  0  0  0  0  0  0  0  0
   -0.5675   -0.1203    0.3102 C   0  0  1  0  0  0  0  0  0  0  0  0
    0.0191   -0.5718    1.1110 H   0  0  0  0  0  0  0  0  0  0  0  0
    0.1724   -0.3238   -1.0286 C   0  0  0  0  0  0  0  0  0  0  0  0
    0.6233    0.6251   -1.3255 H   0  0  0  0  0  0  0  0  0  0  0  0
    0.9826   -1.0369   -0.8612 H   0  0  0  0  0  0  0  0  0  0  0  0
   -0.6873   -0.8408   -2.1968 C   0  0  0  0  0  0  0  0  0  0  0  0
   -0.4525   -1.8872   -2.3917 H   0  0  0  0  0  0  0  0  0  0  0  0
   -2.1868   -0.7111   -1.9142 C   0  0  0  0  0  0  0  0  0  0  0  0
   -2.4350    0.3295   -1.7011 H   0  0  0  0  0  0  0  0  0  0  0  0
   -2.7543   -1.0420   -2.7843 H   0  0  0  0  0  0  0  0  0  0  0  0
   -2.4720   -1.3259   -1.0632 H   0  0  0  0  0  0  0  0  0  0  0  0
   -0.3738   -0.0421   -3.4614 C   0  0  0  0  0  0  0  0  0  0  0  0
    0.6837   -0.1423   -3.7057 H   0  0  0  0  0  0  0  0  0  0  0  0
   -0.9610   -0.4244   -4.2964 H   0  0  0  0  0  0  0  0  0  0  0  0
   -0.6095    1.0116   -3.3083 H   0  0  0  0  0  0  0  0  0  0  0  0
   -0.7793    1.3659    0.6455 C   0  0  0  0  0  0  0  0  0  0  0  0
   -1.6464    2.0125    0.0623 O   0  0  0  0  0  0  0  0  0  0  0  0
    0.0189    1.9059    1.5756 N   0  0  0  0  0  0  0  0  0  0  0  0
    0.7024    1.3094    2.0137 H   0  0  0  0  0  0  0  0  0  0  0  0
   -0.0451    3.3046    1.9929 C   0  0  0  0  0  0  0  0  0  0  0  0
   -1.0415    3.5286    2.3805 H   0  0  0  0  0  0  0  0  0  0  0  0
    0.6954    3.5023    2.7695 H   0  0  0  0  0  0  0  0  0  0  0  0
    0.1474    3.9536    1.1372 H   0  0  0  0  0  0  0  0  0  0  0  0
  5  6  2  0  0  0  0
  5  7  1  0  0  0  0
  2  3  1  0  0  0  0
  2  4  1  0  0  0  0
  2  5  1  0  0  0  0
  1  2  1  0  0  0  0
 24 25  2  0  0  0  0
 24 26  1  0  0  0  0
 20 21  1  0  0  0  0
 20 22  1  0  0  0  0
 20 23  1  0  0  0  0
 16 17  1  0  0  0  0
 16 18  1  0  0  0  0
 16 19  1  0  0  0  0
 14 15  1  0  0  0  0
 14 16  1  0  0  0  0
 14 20  1  0  0  0  0
 11 12  1  0  0  0  0
 11 13  1  0  0  0  0
 11 14  1  0  0  0  0
  9 10  1  0  0  0  0
  9 11  1  0  0  0  0
  9 24  1  0  0  0  0
  7  8  1  0  0  0  0
  7  9  1  0  0  0  0
 28 29  1  0  0  0  0
 28 30  1  0  0  0  0
 28 31  1  0  0  0  0
 26 27  1  0  0  0  0
 26 28  1  0  0  0  0
M  END
$$$$
default_name
  -OEChem-02102213163D

 31 30  0     1  0  0  0  0  0999 V2000
   -3.5895   -3.5013    1.1082 H   0  0  0  0  0  0  0  0  0  0  0  0
   -3.5145   -2.5363    0.6082 C   0  0  0  0  0  0  0  0  0  0  0  0
   -4.2285   -1.8413    1.0452 H   0  0  0  0  0  0  0  0  0  0  0  0
   -3.7155   -2.6583   -0.4538 H   0  0  0  0  0  0  0  0  0  0  0  0
   -2.1155   -1.9963    0.7922 C   0  0  0  0  0  0  0  0  0  0  0  0
   -1.2875   -2.6383    1.4252 O   0  0  0  0  0  0  0  0  0  0  0  0
   -1.8575   -0.8123    0.2402 N   0  0  0  0  0  0  0  0  0  0  0  0
   -2.6005   -0.3333   -0.2478 H   0  0  0  0  0  0  0  0  0  0  0  0
   -0.5675   -0.1203    0.3102 C   0  0  1  0  0  0  0  0  0  0  0  0
    0.0191   -0.5718    1.1110 H   0  0  0  0  0  0  0  0  0  0  0  0
    0.1724   -0.3238   -1.0286 C   0  0  0  0  0  0  0  0  0  0  0  0
    0.6233    0.6251   -1.3255 H   0  0  0  0  0  0  0  0  0  0  0  0
    0.9826   -1.0369   -0.8612 H   0  0  0  0  0  0  0  0  0  0  0  0
   -0.6873   -0.8408   -2.1968 C   0  0  0  0  0  0  0  0  0  0  0  0
   -0.6560   -1.9300   -2.2230 H   0  0  0  0  0  0  0  0  0  0  0  0
   -2.1458   -0.3869   -2.0878 C   0  0  0  0  0  0  0  0  0  0  0  0
   -2.1927    0.7021   -2.0443 H   0  0  0  0  0  0  0  0  0  0  0  0
   -2.7041   -0.7332   -2.9579 H   0  0  0  0  0  0  0  0  0  0  0  0
   -2.6106   -0.7986   -1.1946 H   0  0  0  0  0  0  0  0  0  0  0  0
   -0.1276   -0.3195   -3.5198 C   0  0  0  0  0  0  0  0  0  0  0  0
    0.9025   -0.6550   -3.6398 H   0  0  0  0  0  0  0  0  0  0  0  0
   -0.7180   -0.7066   -4.3503 H   0  0  0  0  0  0  0  0  0  0  0  0
   -0.1552    0.7706   -3.5359 H   0  0  0  0  0  0  0  0  0  0  0  0
   -0.7793    1.3659    0.6455 C   0  0  0  0  0  0  0  0  0  0  0  0
   -1.6464    2.0125    0.0623 O   0  0  0  0  0  0  0  0  0  0  0  0
    0.0189    1.9059    1.5756 N   0  0  0  0  0  0  0  0  0  0  0  0
    0.7024    1.3094    2.0137 H   0  0  0  0  0  0  0  0  0  0  0  0
   -0.0451    3.3046    1.9929 C   0  0  0  0  0  0  0  0  0  0  0  0
   -1.0415    3.5286    2.3805 H   0  0  0  0  0  0  0  0  0  0  0  0
    0.6954    3.5023    2.7695 H   0  0  0  0  0  0  0  0  0  0  0  0
    0.1474    3.9536    1.1372 H   0  0  0  0  0  0  0  0  0  0  0  0
  5  6  2  0  0  0  0
  5  7  1  0  0  0  0
  2  3  1  0  0  0  0
  2  4  1  0  0  0  0
  2  5  1  0  0  0  0
  1  2  1  0  0  0  0
 24 25  2  0  0  0  0
 24 26  1  0  0  0  0
 20 21  1  0  0  0  0
 20 22  1  0  0  0  0
 20 23  1  0  0  0  0
 16 17  1  0  0  0  0
 16 18  1  0  0  0  0
 16 19  1  0  0  0  0
 14 15  1  0  0  0  0
 14 16  1  0  0  0  0
 14 20  1  0  0  0  0
 11 12  1  0  0  0  0
 11 13  1  0  0  0  0
 11 14  1  0  0  0  0
  9 10  1  0  0  0  0
  9 11  1  0  0  0  0
  9 24  1  0  0  0  0
  7  8  1  0  0  0  0
  7  9  1  0  0  0  0
 28 29  1  0  0  0  0
 28 30  1  0  0  0  0
 28 31  1  0  0  0  0
 26 27  1  0  0  0  0
 26 28  1  0  0  0  0
M  END
$$$$
default_name
  -OEChem-02102213163D

 31 30  0     1  0  0  0  0  0999 V2000
   -3.5895   -3.5013    1.1082 H   0  0  0  0  0  0  0  0  0  0  0  0
   -3.5145   -2.5363    0.6082 C   0  0  0  0  0  0  0  0  0  0  0  0
   -4.2285   -1.8413    1.0452 H   0  0  0  0  0  0  0  0  0  0  0  0
   -3.7155   -2.6583   -0.4538 H   0  0  0  0  0  0  0  0  0  0  0  0
   -2.1155   -1.9963    0.7922 C   0  0  0  0  0  0  0  0  0  0  0  0
   -1.2875   -2.6383    1.4252 O   0  0  0  0  0  0  0  0  0  0  0  0
   -1.8575   -0.8123    0.2402 N   0  0  0  0  0  0  0  0  0  0  0  0
   -2.6005   -0.3333   -0.2478 H   0  0  0  0  0  0  0  0  0  0  0  0
   -0.5675   -0.1203    0.3102 C   0  0  1  0  0  0  0  0  0  0  0  0
    0.0191   -0.5718    1.1110 H   0  0  0  0  0  0  0  0  0  0  0  0
    0.1724   -0.3238   -1.0286 C   0  0  0  0  0  0  0  0  0  0  0  0
    0.6233    0.6251   -1.3255 H   0  0  0  0  0  0  0  0  0  0  0  0
    0.9826   -1.0369   -0.8612 H   0  0  0  0  0  0  0  0  0  0  0  0
   -0.6873   -0.8408   -2.1968 C   0  0  0  0  0  0  0  0  0  0  0  0
   -0.8757   -1.9070   -2.0715 H   0  0  0  0  0  0  0  0  0  0  0  0
   -2.0275   -0.1068   -2.2989 C   0  0  0  0  0  0  0  0  0  0  0  0
   -1.8556    0.9648   -2.4086 H   0  0  0  0  0  0  0  0  0  0  0  0
   -2.5798   -0.4699   -3.1659 H   0  0  0  0  0  0  0  0  0  0  0  0
   -2.6296   -0.2810   -1.4097 H   0  0  0  0  0  0  0  0  0  0  0  0
    0.0608   -0.6443   -3.5148 C   0  0  0  0  0  0  0  0  0  0  0  0
    1.0074   -1.1837   -3.4831 H   0  0  0  0  0  0  0  0  0  0  0  0
   -0.5340   -1.0347   -4.3405 H   0  0  0  0  0  0  0  0  0  0  0  0
    0.2560    0.4157   -3.6815 H   0  0  0  0  0  0  0  0  0  0  0  0
   -0.7793    1.3659    0.6455 C   0  0  0  0  0  0  0  0  0  0  0  0
   -1.6464    2.0125    0.0623 O   0  0  0  0  0  0  0  0  0  0  0  0
    0.0189    1.9059    1.5756 N   0  0  0  0  0  0  0  0  0  0  0  0
    0.7024    1.3094    2.0137 H   0  0  0  0  0  0  0  0  0  0  0  0
   -0.0451    3.3046    1.9929 C   0  0  0  0  0  0  0  0  0  0  0  0
   -1.0415    3.5286    2.3805 H   0  0  0  0  0  0  0  0  0  0  0  0
    0.6954    3.5023    2.7695 H   0  0  0  0  0  0  0  0  0  0  0  0
    0.1474    3.9536    1.1372 H   0  0  0  0  0  0  0  0  0  0  0  0
  5  6  2  0  0  0  0
  5  7  1  0  0  0  0
  2  3  1  0  0  0  0
  2  4  1  0  0  0  0
  2  5  1  0  0  0  0
  1  2  1  0  0  0  0
 24 25  2  0  0  0  0
 24 26  1  0  0  0  0
 20 21  1  0  0  0  0
 20 22  1  0  0  0  0
 20 23  1  0  0  0  0
 16 17  1  0  0  0  0
 16 18  1  0  0  0  0
 16 19  1  0  0  0  0
 14 15  1  0  0  0  0
 14 16  1  0  0  0  0
 14 20  1  0  0  0  0
 11 12  1  0  0  0  0
 11 13  1  0  0  0  0
 11 14  1  0  0  0  0
  9 10  1  0  0  0  0
  9 11  1  0  0  0  0
  9 24  1  0  0  0  0
  7  8  1  0  0  0  0
  7  9  1  0  0  0  0
 28 29  1  0  0  0  0
 28 30  1  0  0  0  0
 28 31  1  0  0  0  0
 26 27  1  0  0  0  0
 26 28  1  0  0  0  0
M  END
$$$$
default_name
  -OEChem-02102213163D

 31 30  0     1  0  0  0  0  0999 V2000
   -3.5895   -3.5013    1.1082 H   0  0  0  0  0  0  0  0  0  0  0  0
   -3.5145   -2.5363    0.6082 C   0  0  0  0  0  0  0  0  0  0  0  0
   -4.2285   -1.8413    1.0452 H   0  0  0  0  0  0  0  0  0  0  0  0
   -3.7155   -2.6583   -0.4538 H   0  0  0  0  0  0  0  0  0  0  0  0
   -2.1155   -1.9963    0.7922 C   0  0  0  0  0  0  0  0  0  0  0  0
   -1.2875   -2.6383    1.4252 O   0  0  0  0  0  0  0  0  0  0  0  0
   -1.8575   -0.8123    0.2402 N   0  0  0  0  0  0  0  0  0  0  0  0
   -2.6005   -0.3333   -0.2478 H   0  0  0  0  0  0  0  0  0  0  0  0
   -0.5675   -0.1203    0.3102 C   0  0  1  0  0  0  0  0  0  0  0  0
    0.0191   -0.5718    1.1110 H   0  0  0  0  0  0  0  0  0  0  0  0
    0.1724   -0.3238   -1.0286 C   0  0  0  0  0  0  0  0  0  0  0  0
    0.6233    0.6251   -1.3255 H   0  0  0  0  0  0  0  0  0  0  0  0
    0.9826   -1.0369   -0.8612 H   0  0  0  0  0  0  0  0  0  0  0  0
   -0.6873   -0.8408   -2.1968 C   0  0  0  0  0  0  0  0  0  0  0  0
   -1.0965   -1.8198   -1.9475 H   0  0  0  0  0  0  0  0  0  0  0  0
   -1.8399    0.1099   -2.5329 C   0  0  0  0  0  0  0  0  0  0  0  0
   -1.4468    1.0997   -2.7691 H   0  0  0  0  0  0  0  0  0  0  0  0
   -2.3900   -0.2701   -3.3940 H   0  0  0  0  0  0  0  0  0  0  0  0
   -2.5275    0.1916   -1.6939 H   0  0  0  0  0  0  0  0  0  0  0  0
    0.1786   -0.9942   -3.4466 C   0  0  0  0  0  0  0  0  0  0  0  0
    0.9914   -1.6923   -3.2462 H   0  0  0  0  0  0  0  0  0  0  0  0
   -0.4216   -1.3863   -4.2676 H   0  0  0  0  0  0  0  0  0  0  0  0
    0.5962   -0.0289   -3.7351 H   0  0  0  0  0  0  0  0  0  0  0  0
   -0.7793    1.3659    0.6455 C   0  0  0  0  0  0  0  0  0  0  0  0
   -1.6464    2.0125    0.0623 O   0  0  0  0  0  0  0  0  0  0  0  0
    0.0189    1.9059    1.5756 N   0  0  0  0  0  0  0  0  0  0  0  0
    0.7024    1.3094    2.0137 H   0  0  0  0  0  0  0  0  0  0  0  0
   -0.0451    3.3046    1.9929 C   0  0  0  0  0  0  0  0  0  0  0  0
   -1.0415    3.5286    2.3805 H   0  0  0  0  0  0  0  0  0  0  0  0
    0.6954    3.5023    2.7695 H   0  0  0  0  0  0  0  0  0  0  0  0
    0.1474    3.9536    1.1372 H   0  0  0  0  0  0  0  0  0  0  0  0
  5  6  2  0  0  0  0
  5  7  1  0  0  0  0
  2  3  1  0  0  0  0
  2  4  1  0  0  0  0
  2  5  1  0  0  0  0
  1  2  1  0  0  0  0
 24 25  2  0  0  0  0
 24 26  1  0  0  0  0
 20 21  1  0  0  0  0
 20 22  1  0  0  0  0
 20 23  1  0  0  0  0
 16 17  1  0  0  0  0
 16 18  1  0  0  0  0
 16 19  1  0  0  0  0
 14 15  1  0  0  0  0
 14 16  1  0  0  0  0
 14 20  1  0  0  0  0
 11 12  1  0  0  0  0
 11 13  1  0  0  0  0
 11 14  1  0  0  0  0
  9 10  1  0  0  0  0
  9 11  1  0  0  0  0
  9 24  1  0  0  0  0
  7  8  1  0  0  0  0
  7  9  1  0  0  0  0
 28 29  1  0  0  0  0
 28 30  1  0  0  0  0
 28 31  1  0  0  0  0
 26 27  1  0  0  0  0
 26 28  1  0  0  0  0
M  END
$$$$
default_name
  -OEChem-02102213163D

 31 30  0     1  0  0  0  0  0999 V2000
   -3.5895   -3.5013    1.1082 H   0  0  0  0  0  0  0  0  0  0  0  0
   -3.5145   -2.5363    0.6082 C   0  0  0  0  0  0  0  0  0  0  0  0
   -4.2285   -1.8413    1.0452 H   0  0  0  0  0  0  0  0  0  0  0  0
   -3.7155   -2.6583   -0.4538 H   0  0  0  0  0  0  0  0  0  0  0  0
   -2.1155   -1.9963    0.7922 C   0  0  0  0  0  0  0  0  0  0  0  0
   -1.2875   -2.6383    1.4252 O   0  0  0  0  0  0  0  0  0  0  0  0
   -1.8575   -0.8123    0.2402 N   0  0  0  0  0  0  0  0  0  0  0  0
   -2.6005   -0.3333   -0.2478 H   0  0  0  0  0  0  0  0  0  0  0  0
   -0.5675   -0.1203    0.3102 C   0  0  1  0  0  0  0  0  0  0  0  0
    0.0191   -0.5718    1.1110 H   0  0  0  0  0  0  0  0  0  0  0  0
    0.1724   -0.3238   -1.0286 C   0  0  0  0  0  0  0  0  0  0  0  0
    0.6233    0.6251   -1.3255 H   0  0  0  0  0  0  0  0  0  0  0  0
    0.9826   -1.0369   -0.8612 H   0  0  0  0  0  0  0  0  0  0  0  0
   -0.6873   -0.8408   -2.1968 C   0  0  0  0  0  0  0  0  0  0  0  0
   -1.3035   -1.6743   -1.8596 H   0  0  0  0  0  0  0  0  0  0  0  0
   -1.5957    0.2487   -2.7739 C   0  0  0  0  0  0  0  0  0  0  0  0
   -0.9941    1.0977   -3.1014 H   0  0  0  0  0  0  0  0  0  0  0  0
   -2.1476   -0.1473   -3.6267 H   0  0  0  0  0  0  0  0  0  0  0  0
   -2.3115    0.5871   -2.0279 H   0  0  0  0  0  0  0  0  0  0  0  0
    0.2178   -1.3455   -3.3199 C   0  0  0  0  0  0  0  0  0  0  0  0
    0.8554   -2.1462   -2.9453 H   0  0  0  0  0  0  0  0  0  0  0  0
   -0.3884   -1.7375   -4.1366 H   0  0  0  0  0  0  0  0  0  0  0  0
    0.8422   -0.5329   -3.6930 H   0  0  0  0  0  0  0  0  0  0  0  0
   -0.7793    1.3659    0.6455 C   0  0  0  0  0  0  0  0  0  0  0  0
   -1.6464    2.0125    0.0623 O   0  0  0  0  0  0  0  0  0  0  0  0
    0.0189    1.9059    1.5756 N   0  0  0  0  0  0  0  0  0  0  0  0
    0.7024    1.3094    2.0137 H   0  0  0  0  0  0  0  0  0  0  0  0
   -0.0451    3.3046    1.9929 C   0  0  0  0  0  0  0  0  0  0  0  0
   -1.0415    3.5286    2.3805 H   0  0  0  0  0  0  0  0  0  0  0  0
    0.6954    3.5023    2.7695 H   0  0  0  0  0  0  0  0  0  0  0  0
    0.1474    3.9536    1.1372 H   0  0  0  0  0  0  0  0  0  0  0  0
  5  6  2  0  0  0  0
  5  7  1  0  0  0  0
  2  3  1  0  0  0  0
  2  4  1  0  0  0  0
  2  5  1  0  0  0  0
  1  2  1  0  0  0  0
 24 25  2  0  0  0  0
 24 26  1  0  0  0  0
 20 21  1  0  0  0  0
 20 22  1  0  0  0  0
 20 23  1  0  0  0  0
 16 17  1  0  0  0  0
 16 18  1  0  0  0  0
 16 19  1  0  0  0  0
 14 15  1  0  0  0  0
 14 16  1  0  0  0  0
 14 20  1  0  0  0  0
 11 12  1  0  0  0  0
 11 13  1  0  0  0  0
 11 14  1  0  0  0  0
  9 10  1  0  0  0  0
  9 11  1  0  0  0  0
  9 24  1  0  0  0  0
  7  8  1  0  0  0  0
  7  9  1  0  0  0  0
 28 29  1  0  0  0  0
 28 30  1  0  0  0  0
 28 31  1  0  0  0  0
 26 27  1  0  0  0  0
 26 28  1  0  0  0  0
M  END
$$$$
default_name
  -OEChem-02102213163D

 31 30  0     1  0  0  0  0  0999 V2000
   -3.5895   -3.5013    1.1082 H   0  0  0  0  0  0  0  0  0  0  0  0
   -3.5145   -2.5363    0.6082 C   0  0  0  0  0  0  0  0  0  0  0  0
   -4.2285   -1.8413    1.0452 H   0  0  0  0  0  0  0  0  0  0  0  0
   -3.7155   -2.6583   -0.4538 H   0  0  0  0  0  0  0  0  0  0  0  0
   -2.1155   -1.9963    0.7922 C   0  0  0  0  0  0  0  0  0  0  0  0
   -1.2875   -2.6383    1.4252 O   0  0  0  0  0  0  0  0  0  0  0  0
   -1.8575   -0.8123    0.2402 N   0  0  0  0  0  0  0  0  0  0  0  0
   -2.6005   -0.3333   -0.2478 H   0  0  0  0  0  0  0  0  0  0  0  0
   -0.5675   -0.1203    0.3102 C   0  0  1  0  0  0  0  0  0  0  0  0
    0.0191   -0.5718    1.1110 H   0  0  0  0  0  0  0  0  0  0  0  0
    0.1724   -0.3238   -1.0286 C   0  0  0  0  0  0  0  0  0  0  0  0
    0.6233    0.6251   -1.3255 H   0  0  0  0  0  0  0  0  0  0  0  0
    0.9826   -1.0369   -0.8612 H   0  0  0  0  0  0  0  0  0  0  0  0
   -0.6873   -0.8408   -2.1968 C   0  0  0  0  0  0  0  0  0  0  0  0
   -1.4825   -1.4804   -1.8138 H   0  0  0  0  0  0  0  0  0  0  0  0
   -1.3117    0.2999   -3.0056 C   0  0  0  0  0  0  0  0  0  0  0  0
   -0.5284    0.9588   -3.3827 H   0  0  0  0  0  0  0  0  0  0  0  0
   -1.8691   -0.1099   -3.8482 H   0  0  0  0  0  0  0  0  0  0  0  0
   -1.9962    0.8783   -2.3888 H   0  0  0  0  0  0  0  0  0  0  0  0
    0.1756   -1.6742   -3.1434 C   0  0  0  0  0  0  0  0  0  0  0  0
    0.6088   -2.5144   -2.6008 H   0  0  0  0  0  0  0  0  0  0  0  0
   -0.4366   -2.0643   -3.9565 H   0  0  0  0  0  0  0  0  0  0  0  0
    0.9771   -1.0620   -3.5582 H   0  0  0  0  0  0  0  0  0  0  0  0
   -0.7793    1.3659    0.6455 C   0  0  0  0  0  0  0  0  0  0  0  0
   -1.6464    2.0125    0.0623 O   0  0  0  0  0  0  0  0  0  0  0  0
    0.0189    1.9059    1.5756 N   0  0  0  0  0  0  0  0  0  0  0  0
    0.7024    1.3094    2.0137 H   0  0  0  0  0  0  0  0  0  0  0  0
   -0.0451    3.3046    1.9929 C   0  0  0  0  0  0  0  0  0  0  0  0
   -1.0415    3.5286    2.3805 H   0  0  0  0  0  0  0  0  0  0  0  0
    0.6954    3.5023    2.7695 H   0  0  0  0  0  0  0  0  0  0  0  0
    0.1474    3.9536    1.1372 H   0  0  0  0  0  0  0  0  0  0  0  0
  5  6  2  0  0  0  0
  5  7  1  0  0  0  0
  2  3  1  0  0  0  0
  2  4  1  0  0  0  0
  2  5  1  0  0  0  0
  1  2  1  0  0  0  0
 24 25  2  0  0  0  0
 24 26  1  0  0  0  0
 20 21  1  0  0  0  0
 20 22  1  0  0  0  0
 20 23  1  0  0  0  0
 16 17  1  0  0  0  0
 16 18  1  0  0  0  0
 16 19  1  0  0  0  0
 14 15  1  0  0  0  0
 14 16  1  0  0  0  0
 14 20  1  0  0  0  0
 11 12  1  0  0  0  0
 11 13  1  0  0  0  0
 11 14  1  0  0  0  0
  9 10  1  0  0  0  0
  9 11  1  0  0  0  0
  9 24  1  0  0  0  0
  7  8  1  0  0  0  0
  7  9  1  0  0  0  0
 28 29  1  0  0  0  0
 28 30  1  0  0  0  0
 28 31  1  0  0  0  0
 26 27  1  0  0  0  0
 26 28  1  0  0  0  0
M  END
$$$$
default_name
  -OEChem-02102213163D

 31 30  0     1  0  0  0  0  0999 V2000
   -3.5895   -3.5013    1.1082 H   0  0  0  0  0  0  0  0  0  0  0  0
   -3.5145   -2.5363    0.6082 C   0  0  0  0  0  0  0  0  0  0  0  0
   -4.2285   -1.8413    1.0452 H   0  0  0  0  0  0  0  0  0  0  0  0
   -3.7155   -2.6583   -0.4538 H   0  0  0  0  0  0  0  0  0  0  0  0
   -2.1155   -1.9963    0.7922 C   0  0  0  0  0  0  0  0  0  0  0  0
   -1.2875   -2.6383    1.4252 O   0  0  0  0  0  0  0  0  0  0  0  0
   -1.8575   -0.8123    0.2402 N   0  0  0  0  0  0  0  0  0  0  0  0
   -2.6005   -0.3333   -0.2478 H   0  0  0  0  0  0  0  0  0  0  0  0
   -0.5675   -0.1203    0.3102 C   0  0  1  0  0  0  0  0  0  0  0  0
    0.0191   -0.5718    1.1110 H   0  0  0  0  0  0  0  0  0  0  0  0
    0.1724   -0.3238   -1.0286 C   0  0  0  0  0  0  0  0  0  0  0  0
    0.6233    0.6251   -1.3255 H   0  0  0  0  0  0  0  0  0  0  0  0
    0.9826   -1.0369   -0.8612 H   0  0  0  0  0  0  0  0  0  0  0  0
   -0.6873   -0.8408   -2.1968 C   0  0  0  0  0  0  0  0  0  0  0  0
   -1.6212   -1.2513   -1.8130 H   0  0  0  0  0  0  0  0  0  0  0  0
   -1.0072    0.2601   -3.2121 C   0  0  0  0  0  0  0  0  0  0  0  0
   -0.0813    0.6925   -3.5938 H   0  0  0  0  0  0  0  0  0  0  0  0
   -1.5736   -0.1604   -4.0434 H   0  0  0  0  0  0  0  0  0  0  0  0
   -1.6030    1.0456   -2.7522 H   0  0  0  0  0  0  0  0  0  0  0  0
    0.0550   -1.9580   -2.9291 C   0  0  0  0  0  0  0  0  0  0  0  0
    0.2683   -2.7719   -2.2363 H   0  0  0  0  0  0  0  0  0  0  0  0
   -0.5630   -2.3445   -3.7395 H   0  0  0  0  0  0  0  0  0  0  0  0
    0.9919   -1.5801   -3.3398 H   0  0  0  0  0  0  0  0  0  0  0  0
   -0.7793    1.3659    0.6455 C   0  0  0  0  0  0  0  0  0  0  0  0
   -1.6464    2.0125    0.0623 O   0  0  0  0  0  0  0  0  0  0  0  0
    0.0189    1.9059    1.5756 N   0  0  0  0  0  0  0  0  0  0  0  0
    0.7024    1.3094    2.0137 H   0  0  0  0  0  0  0  0  0  0  0  0
   -0.0451    3.3046    1.9929 C   0  0  0  0  0  0  0  0  0  0  0  0
   -1.0415    3.5286    2.3805 H   0  0  0  0  0  0  0  0  0  0  0  0
    0.6954    3.5023    2.7695 H   0  0  0  0  0  0  0  0  0  0  0  0
    0.1474    3.9536    1.1372 H   0  0  0  0  0  0  0  0  0  0  0  0
  5  6  2  0  0  0  0
  5  7  1  0  0  0  0
  2  3  1  0  0  0  0
  2  4  1  0  0  0  0
  2  5  1  0  0  0  0
  1  2  1  0  0  0  0
 24 25  2  0  0  0  0
 24 26  1  0  0  0  0
 20 21  1  0  0  0  0
 20 22  1  0  0  0  0
 20 23  1  0  0  0  0
 16 17  1  0  0  0  0
 16 18  1  0  0  0  0
 16 19  1  0  0  0  0
 14 15  1  0  0  0  0
 14 16  1  0  0  0  0
 14 20  1  0  0  0  0
 11 12  1  0  0  0  0
 11 13  1  0  0  0  0
 11 14  1  0  0  0  0
  9 10  1  0  0  0  0
  9 11  1  0  0  0  0
  9 24  1  0  0  0  0
  7  8  1  0  0  0  0
  7  9  1  0  0  0  0
 28 29  1  0  0  0  0
 28 30  1  0  0  0  0
 28 31  1  0  0  0  0
 26 27  1  0  0  0  0
 26 28  1  0  0  0  0
M  END
$$$$
default_name
  -OEChem-02102213163D

 31 30  0     1  0  0  0  0  0999 V2000
   -3.5895   -3.5013    1.1082 H   0  0  0  0  0  0  0  0  0  0  0  0
   -3.5145   -2.5363    0.6082 C   0  0  0  0  0  0  0  0  0  0  0  0
   -4.2285   -1.8413    1.0452 H   0  0  0  0  0  0  0  0  0  0  0  0
   -3.7155   -2.6583   -0.4538 H   0  0  0  0  0  0  0  0  0  0  0  0
   -2.1155   -1.9963    0.7922 C   0  0  0  0  0  0  0  0  0  0  0  0
   -1.2875   -2.6383    1.4252 O   0  0  0  0  0  0  0  0  0  0  0  0
   -1.8575   -0.8123    0.2402 N   0  0  0  0  0  0  0  0  0  0  0  0
   -2.6005   -0.3333   -0.2478 H   0  0  0  0  0  0  0  0  0  0  0  0
   -0.5675   -0.1203    0.3102 C   0  0  1  0  0  0  0  0  0  0  0  0
    0.0191   -0.5718    1.1110 H   0  0  0  0  0  0  0  0  0  0  0  0
    0.1724   -0.3238   -1.0286 C   0  0  0  0  0  0  0  0  0  0  0  0
    0.6233    0.6251   -1.3255 H   0  0  0  0  0  0  0  0  0  0  0  0
    0.9826   -1.0369   -0.8612 H   0  0  0  0  0  0  0  0  0  0  0  0
   -0.6873   -0.8408   -2.1968 C   0  0  0  0  0  0  0  0  0  0  0  0
   -1.7104   -1.0027   -1.8574 H   0  0  0  0  0  0  0  0  0  0  0  0
   -0.7029    0.1321   -3.3794 C   0  0  0  0  0  0  0  0  0  0  0  0
    0.3166    0.3170   -3.7205 H   0  0  0  0  0  0  0  0  0  0  0  0
   -1.2810   -0.2955   -4.1989 H   0  0  0  0  0  0  0  0  0  0  0  0
   -1.1589    1.0774   -3.0931 H   0  0  0  0  0  0  0  0  0  0  0  0
   -0.1358   -2.1774   -2.6916 C   0  0  0  0  0  0  0  0  0  0  0  0
   -0.1427   -2.9011   -1.8766 H   0  0  0  0  0  0  0  0  0  0  0  0
   -0.7590   -2.5590   -3.5003 H   0  0  0  0  0  0  0  0  0  0  0  0
    0.8855   -2.0518   -3.0528 H   0  0  0  0  0  0  0  0  0  0  0  0
   -0.7793    1.3659    0.6455 C   0  0  0  0  0  0  0  0  0  0  0  0
   -1.6464    2.0125    0.0623 O   0  0  0  0  0  0  0  0  0  0  0  0
    0.0189    1.9059    1.5756 N   0  0  0  0  0  0  0  0  0  0  0  0
    0.7024    1.3094    2.0137 H   0  0  0  0  0  0  0  0  0  0  0  0
   -0.0451    3.3046    1.9929 C   0  0  0  0  0  0  0  0  0  0  0  0
   -1.0415    3.5286    2.3805 H   0  0  0  0  0  0  0  0  0  0  0  0
    0.6954    3.5023    2.7695 H   0  0  0  0  0  0  0  0  0  0  0  0
    0.1474    3.9536    1.1372 H   0  0  0  0  0  0  0  0  0  0  0  0
  5  6  2  0  0  0  0
  5  7  1  0  0  0  0
  2  3  1  0  0  0  0
  2  4  1  0  0  0  0
  2  5  1  0  0  0  0
  1  2  1  0  0  0  0
 24 25  2  0  0  0  0
 24 26  1  0  0  0  0
 20 21  1  0  0  0  0
 20 22  1  0  0  0  0
 20 23  1  0  0  0  0
 16 17  1  0  0  0  0
 16 18  1  0  0  0  0
 16 19  1  0  0  0  0
 14 15  1  0  0  0  0
 14 16  1  0  0  0  0
 14 20  1  0  0  0  0
 11 12  1  0  0  0  0
 11 13  1  0  0  0  0
 11 14  1  0  0  0  0
  9 10  1  0  0  0  0
  9 11  1  0  0  0  0
  9 24  1  0  0  0  0
  7  8  1  0  0  0  0
  7  9  1  0  0  0  0
 28 29  1  0  0  0  0
 28 30  1  0  0  0  0
 28 31  1  0  0  0  0
 26 27  1  0  0  0  0
 26 28  1  0  0  0  0
M  END
$$$$
default_name
  -OEChem-02102213163D

 31 30  0     1  0  0  0  0  0999 V2000
   -3.5895   -3.5013    1.1082 H   0  0  0  0  0  0  0  0  0  0  0  0
   -3.5145   -2.5363    0.6082 C   0  0  0  0  0  0  0  0  0  0  0  0
   -4.2285   -1.8413    1.0452 H   0  0  0  0  0  0  0  0  0  0  0  0
   -3.7155   -2.6583   -0.4538 H   0  0  0  0  0  0  0  0  0  0  0  0
   -2.1155   -1.9963    0.7922 C   0  0  0  0  0  0  0  0  0  0  0  0
   -1.2875   -2.6383    1.4252 O   0  0  0  0  0  0  0  0  0  0  0  0
   -1.8575   -0.8123    0.2402 N   0  0  0  0  0  0  0  0  0  0  0  0
   -2.6005   -0.3333   -0.2478 H   0  0  0  0  0  0  0  0  0  0  0  0
   -0.5675   -0.1203    0.3102 C   0  0  1  0  0  0  0  0  0  0  0  0
    0.0191   -0.5718    1.1110 H   0  0  0  0  0  0  0  0  0  0  0  0
    0.1724   -0.3238   -1.0286 C   0  0  0  0  0  0  0  0  0  0  0  0
    0.6233    0.6251   -1.3255 H   0  0  0  0  0  0  0  0  0  0  0  0
    0.9826   -1.0369   -0.8612 H   0  0  0  0  0  0  0  0  0  0  0  0
   -0.6873   -0.8408   -2.1968 C   0  0  0  0  0  0  0  0  0  0  0  0
   -1.7438   -0.7515   -1.9440 H   0  0  0  0  0  0  0  0  0  0  0  0
   -0.4196   -0.0755   -3.4960 C   0  0  0  0  0  0  0  0  0  0  0  0
    0.6382   -0.1421   -3.7540 H   0  0  0  0  0  0  0  0  0  0  0  0
   -1.0115   -0.5059   -4.3041 H   0  0  0  0  0  0  0  0  0  0  0  0
   -0.6939    0.9717   -3.3885 H   0  0  0  0  0  0  0  0  0  0  0  0
   -0.3839   -2.3175   -2.4470 C   0  0  0  0  0  0  0  0  0  0  0  0
   -0.5964   -2.8933   -1.5462 H   0  0  0  0  0  0  0  0  0  0  0  0
   -1.0112   -2.6931   -3.2554 H   0  0  0  0  0  0  0  0  0  0  0  0
    0.6651   -2.4451   -2.7165 H   0  0  0  0  0  0  0  0  0  0  0  0
   -0.7793    1.3659    0.6455 C   0  0  0  0  0  0  0  0  0  0  0  0
   -1.6464    2.0125    0.0623 O   0  0  0  0  0  0  0  0  0  0  0  0
    0.0189    1.9059    1.5756 N   0  0  0  0  0  0  0  0  0  0  0  0
    0.7024    1.3094    2.0137 H   0  0  0  0  0  0  0  0  0  0  0  0
   -0.0451    3.3046    1.9929 C   0  0  0  0  0  0  0  0  0  0  0  0
   -1.0415    3.5286    2.3805 H   0  0  0  0  0  0  0  0  0  0  0  0
    0.6954    3.5023    2.7695 H   0  0  0  0  0  0  0  0  0  0  0  0
    0.1474    3.9536    1.1372 H   0  0  0  0  0  0  0  0  0  0  0  0
  5  6  2  0  0  0  0
  5  7  1  0  0  0  0
  2  3  1  0  0  0  0
  2  4  1  0  0  0  0
  2  5  1  0  0  0  0
  1  2  1  0  0  0  0
 24 25  2  0  0  0  0
 24 26  1  0  0  0  0
 20 21  1  0  0  0  0
 20 22  1  0  0  0  0
 20 23  1  0  0  0  0
 16 17  1  0  0  0  0
 16 18  1  0  0  0  0
 16 19  1  0  0  0  0
 14 15  1  0  0  0  0
 14 16  1  0  0  0  0
 14 20  1  0  0  0  0
 11 12  1  0  0  0  0
 11 13  1  0  0  0  0
 11 14  1  0  0  0  0
  9 10  1  0  0  0  0
  9 11  1  0  0  0  0
  9 24  1  0  0  0  0
  7  8  1  0  0  0  0
  7  9  1  0  0  0  0
 28 29  1  0  0  0  0
 28 30  1  0  0  0  0
 28 31  1  0  0  0  0
 26 27  1  0  0  0  0
 26 28  1  0  0  0  0
M  END
$$$$
default_name
  -OEChem-02102213163D

 31 30  0     1  0  0  0  0  0999 V2000
   -3.5895   -3.5013    1.1082 H   0  0  0  0  0  0  0  0  0  0  0  0
   -3.5145   -2.5363    0.6082 C   0  0  0  0  0  0  0  0  0  0  0  0
   -4.2285   -1.8413    1.0452 H   0  0  0  0  0  0  0  0  0  0  0  0
   -3.7155   -2.6583   -0.4538 H   0  0  0  0  0  0  0  0  0  0  0  0
   -2.1155   -1.9963    0.7922 C   0  0  0  0  0  0  0  0  0  0  0  0
   -1.2875   -2.6383    1.4252 O   0  0  0  0  0  0  0  0  0  0  0  0
   -1.8575   -0.8123    0.2402 N   0  0  0  0  0  0  0  0  0  0  0  0
   -2.6005   -0.3333   -0.2478 H   0  0  0  0  0  0  0  0  0  0  0  0
   -0.5675   -0.1203    0.3102 C   0  0  1  0  0  0  0  0  0  0  0  0
    0.0191   -0.5718    1.1110 H   0  0  0  0  0  0  0  0  0  0  0  0
    0.1724   -0.3238   -1.0286 C   0  0  0  0  0  0  0  0  0  0  0  0
    0.6233    0.6251   -1.3255 H   0  0  0  0  0  0  0  0  0  0  0  0
    0.9826   -1.0369   -0.8612 H   0  0  0  0  0  0  0  0  0  0  0  0
   -0.6873   -0.8408   -2.1968 C   0  0  0  0  0  0  0  0  0  0  0  0
   -1.7192   -0.5147   -2.0668 H   0  0  0  0  0  0  0  0  0  0  0  0
   -0.1766   -0.3485   -3.5540 C   0  0  0  0  0  0  0  0  0  0  0  0
    0.8616   -0.6535   -3.6921 H   0  0  0  0  0  0  0  0  0  0  0  0
   -0.7833   -0.7772   -4.3520 H   0  0  0  0  0  0  0  0  0  0  0  0
   -0.2400    0.7356   -3.6181 H   0  0  0  0  0  0  0  0  0  0  0  0
   -0.6723   -2.3688   -2.2121 C   0  0  0  0  0  0  0  0  0  0  0  0
   -1.0618   -2.7488   -1.2677 H   0  0  0  0  0  0  0  0  0  0  0  0
   -1.3025   -2.7377   -3.0213 H   0  0  0  0  0  0  0  0  0  0  0  0
    0.3458   -2.7331   -2.3541 H   0  0  0  0  0  0  0  0  0  0  0  0
   -0.7793    1.3659    0.6455 C   0  0  0  0  0  0  0  0  0  0  0  0
   -1.6464    2.0125    0.0623 O   0  0  0  0  0  0  0  0  0  0  0  0
    0.0189    1.9059    1.5756 N   0  0  0  0  0  0  0  0  0  0  0  0
    0.7024    1.3094    2.0137 H   0  0  0  0  0  0  0  0  0  0  0  0
   -0.0451    3.3046    1.9929 C   0  0  0  0  0  0  0  0  0  0  0  0
   -1.0415    3.5286    2.3805 H   0  0  0  0  0  0  0  0  0  0  0  0
    0.6954    3.5023    2.7695 H   0  0  0  0  0  0  0  0  0  0  0  0
    0.1474    3.9536    1.1372 H   0  0  0  0  0  0  0  0  0  0  0  0
  5  6  2  0  0  0  0
  5  7  1  0  0  0  0
  2  3  1  0  0  0  0
  2  4  1  0  0  0  0
  2  5  1  0  0  0  0
  1  2  1  0  0  0  0
 24 25  2  0  0  0  0
 24 26  1  0  0  0  0
 20 21  1  0  0  0  0
 20 22  1  0  0  0  0
 20 23  1  0  0  0  0
 16 17  1  0  0  0  0
 16 18  1  0  0  0  0
 16 19  1  0  0  0  0
 14 15  1  0  0  0  0
 14 16  1  0  0  0  0
 14 20  1  0  0  0  0
 11 12  1  0  0  0  0
 11 13  1  0  0  0  0
 11 14  1  0  0  0  0
  9 10  1  0  0  0  0
  9 11  1  0  0  0  0
  9 24  1  0  0  0  0
  7  8  1  0  0  0  0
  7  9  1  0  0  0  0
 28 29  1  0  0  0  0
 28 30  1  0  0  0  0
 28 31  1  0  0  0  0
 26 27  1  0  0  0  0
 26 28  1  0  0  0  0
M  END
$$$$
default_name
  -OEChem-02102213163D

 31 30  0     1  0  0  0  0  0999 V2000
   -3.5895   -3.5013    1.1082 H   0  0  0  0  0  0  0  0  0  0  0  0
   -3.5145   -2.5363    0.6082 C   0  0  0  0  0  0  0  0  0  0  0  0
   -4.2285   -1.8413    1.0452 H   0  0  0  0  0  0  0  0  0  0  0  0
   -3.7155   -2.6583   -0.4538 H   0  0  0  0  0  0  0  0  0  0  0  0
   -2.1155   -1.9963    0.7922 C   0  0  0  0  0  0  0  0  0  0  0  0
   -1.2875   -2.6383    1.4252 O   0  0  0  0  0  0  0  0  0  0  0  0
   -1.8575   -0.8123    0.2402 N   0  0  0  0  0  0  0  0  0  0  0  0
   -2.6005   -0.3333   -0.2478 H   0  0  0  0  0  0  0  0  0  0  0  0
   -0.5675   -0.1203    0.3102 C   0  0  1  0  0  0  0  0  0  0  0  0
    0.0191   -0.5718    1.1110 H   0  0  0  0  0  0  0  0  0  0  0  0
    0.1724   -0.3238   -1.0286 C   0  0  0  0  0  0  0  0  0  0  0  0
    0.6233    0.6251   -1.3255 H   0  0  0  0  0  0  0  0  0  0  0  0
    0.9826   -1.0369   -0.8612 H   0  0  0  0  0  0  0  0  0  0  0  0
   -0.6873   -0.8408   -2.1968 C   0  0  0  0  0  0  0  0  0  0  0  0
   -1.6383   -0.3087   -2.2176 H   0  0  0  0  0  0  0  0  0  0  0  0
    0.0096   -0.6683   -3.5495 C   0  0  0  0  0  0  0  0  0  0  0  0
    0.9716   -1.1825   -3.5389 H   0  0  0  0  0  0  0  0  0  0  0  0
   -0.6119   -1.0910   -4.3392 H   0  0  0  0  0  0  0  0  0  0  0  0
    0.1722    0.3853   -3.7663 H   0  0  0  0  0  0  0  0  0  0  0  0
   -0.9813   -2.3278   -2.0028 C   0  0  0  0  0  0  0  0  0  0  0  0
   -1.5072   -2.4777   -1.0599 H   0  0  0  0  0  0  0  0  0  0  0  0
   -1.6129   -2.6898   -2.8141 H   0  0  0  0  0  0  0  0  0  0  0  0
   -0.0507   -2.8962   -1.9901 H   0  0  0  0  0  0  0  0  0  0  0  0
   -0.7793    1.3659    0.6455 C   0  0  0  0  0  0  0  0  0  0  0  0
   -1.6464    2.0125    0.0623 O   0  0  0  0  0  0  0  0  0  0  0  0
    0.0189    1.9059    1.5756 N   0  0  0  0  0  0  0  0  0  0  0  0
    0.7024    1.3094    2.0137 H   0  0  0  0  0  0  0  0  0  0  0  0
   -0.0451    3.3046    1.9929 C   0  0  0  0  0  0  0  0  0  0  0  0
   -1.0415    3.5286    2.3805 H   0  0  0  0  0  0  0  0  0  0  0  0
    0.6954    3.5023    2.7695 H   0  0  0  0  0  0  0  0  0  0  0  0
    0.1474    3.9536    1.1372 H   0  0  0  0  0  0  0  0  0  0  0  0
  5  6  2  0  0  0  0
  5  7  1  0  0  0  0
  2  3  1  0  0  0  0
  2  4  1  0  0  0  0
  2  5  1  0  0  0  0
  1  2  1  0  0  0  0
 24 25  2  0  0  0  0
 24 26  1  0  0  0  0
 20 21  1  0  0  0  0
 20 22  1  0  0  0  0
 20 23  1  0  0  0  0
 16 17  1  0  0  0  0
 16 18  1  0  0  0  0
 16 19  1  0  0  0  0
 14 15  1  0  0  0  0
 14 16  1  0  0  0  0
 14 20  1  0  0  0  0
 11 12  1  0  0  0  0
 11 13  1  0  0  0  0
 11 14  1  0  0  0  0
  9 10  1  0  0  0  0
  9 11  1  0  0  0  0
  9 24  1  0  0  0  0
  7  8  1  0  0  0  0
  7  9  1  0  0  0  0
 28 29  1  0  0  0  0
 28 30  1  0  0  0  0
 28 31  1  0  0  0  0
 26 27  1  0  0  0  0
 26 28  1  0  0  0  0
M  END
$$$$
default_name
  -OEChem-02102213163D

 31 30  0     1  0  0  0  0  0999 V2000
   -3.5895   -3.5013    1.1082 H   0  0  0  0  0  0  0  0  0  0  0  0
   -3.5145   -2.5363    0.6082 C   0  0  0  0  0  0  0  0  0  0  0  0
   -4.2285   -1.8413    1.0452 H   0  0  0  0  0  0  0  0  0  0  0  0
   -3.7155   -2.6583   -0.4538 H   0  0  0  0  0  0  0  0  0  0  0  0
   -2.1155   -1.9963    0.7922 C   0  0  0  0  0  0  0  0  0  0  0  0
   -1.2875   -2.6383    1.4252 O   0  0  0  0  0  0  0  0  0  0  0  0
   -1.8575   -0.8123    0.2402 N   0  0  0  0  0  0  0  0  0  0  0  0
   -2.6005   -0.3333   -0.2478 H   0  0  0  0  0  0  0  0  0  0  0  0
   -0.5675   -0.1203    0.3102 C   0  0  1  0  0  0  0  0  0  0  0  0
    0.0191   -0.5718    1.1110 H   0  0  0  0  0  0  0  0  0  0  0  0
    0.1724   -0.3238   -1.0286 C   0  0  0  0  0  0  0  0  0  0  0  0
    0.8368    0.5268   -1.1926 H   0  0  0  0  0  0  0  0  0  0  0  0
    0.7947   -1.2169   -0.9377 H   0  0  0  0  0  0  0  0  0  0  0  0
   -0.7232   -0.4882   -2.2702 C   0  0  0  0  0  0  0  0  0  0  0  0
   -1.3577    0.3906   -2.3854 H   0  0  0  0  0  0  0  0  0  0  0  0
    0.0927   -0.6846   -3.5512 C   0  0  0  0  0  0  0  0  0  0  0  0
    0.7455   -1.5521   -3.4453 H   0  0  0  0  0  0  0  0  0  0  0  0
   -0.5800   -0.8454   -4.3940 H   0  0  0  0  0  0  0  0  0  0  0  0
    0.7000    0.1939   -3.7584 H   0  0  0  0  0  0  0  0  0  0  0  0
   -1.6294   -1.7063   -2.0956 C   0  0  0  0  0  0  0  0  0  0  0  0
   -2.2468   -1.5795   -1.2064 H   0  0  0  0  0  0  0  0  0  0  0  0
   -2.2838   -1.8087   -2.9612 H   0  0  0  0  0  0  0  0  0  0  0  0
   -1.0279   -2.6099   -1.9903 H   0  0  0  0  0  0  0  0  0  0  0  0
   -0.7793    1.3659    0.6455 C   0  0  0  0  0  0  0  0  0  0  0  0
   -1.6464    2.0125    0.0623 O   0  0  0  0  0  0  0  0  0  0  0  0
    0.0189    1.9059    1.5756 N   0  0  0  0  0  0  0  0  0  0  0  0
    0.7024    1.3094    2.0137 H   0  0  0  0  0  0  0  0  0  0  0  0
   -0.0451    3.3046    1.9929 C   0  0  0  0  0  0  0  0  0  0  0  0
   -1.0415    3.5286    2.3805 H   0  0  0  0  0  0  0  0  0  0  0  0
    0.6954    3.5023    2.7695 H   0  0  0  0  0  0  0  0  0  0  0  0
    0.1474    3.9536    1.1372 H   0  0  0  0  0  0  0  0  0  0  0  0
  5  6  2  0  0  0  0
  5  7  1  0  0  0  0
  2  3  1  0  0  0  0
  2  4  1  0  0  0  0
  2  5  1  0  0  0  0
  1  2  1  0  0  0  0
 24 25  2  0  0  0  0
 24 26  1  0  0  0  0
 20 21  1  0  0  0  0
 20 22  1  0  0  0  0
 20 23  1  0  0  0  0
 16 17  1  0  0  0  0
 16 18  1  0  0  0  0
 16 19  1  0  0  0  0
 14 15  1  0  0  0  0
 14 16  1  0  0  0  0
 14 20  1  0  0  0  0
 11 12  1  0  0  0  0
 11 13  1  0  0  0  0
 11 14  1  0  0  0  0
  9 10  1  0  0  0  0
  9 11  1  0  0  0  0
  9 24  1  0  0  0  0
  7  8  1  0  0  0  0
  7  9  1  0  0  0  0
 28 29  1  0  0  0  0
 28 30  1  0  0  0  0
 28 31  1  0  0  0  0
 26 27  1  0  0  0  0
 26 28  1  0  0  0  0
M  END
$$$$
default_name
  -OEChem-02102213163D

 31 30  0     1  0  0  0  0  0999 V2000
   -3.5895   -3.5013    1.1082 H   0  0  0  0  0  0  0  0  0  0  0  0
   -3.5145   -2.5363    0.6082 C   0  0  0  0  0  0  0  0  0  0  0  0
   -4.2285   -1.8413    1.0452 H   0  0  0  0  0  0  0  0  0  0  0  0
   -3.7155   -2.6583   -0.4538 H   0  0  0  0  0  0  0  0  0  0  0  0
   -2.1155   -1.9963    0.7922 C   0  0  0  0  0  0  0  0  0  0  0  0
   -1.2875   -2.6383    1.4252 O   0  0  0  0  0  0  0  0  0  0  0  0
   -1.8575   -0.8123    0.2402 N   0  0  0  0  0  0  0  0  0  0  0  0
   -2.6005   -0.3333   -0.2478 H   0  0  0  0  0  0  0  0  0  0  0  0
   -0.5675   -0.1203    0.3102 C   0  0  1  0  0  0  0  0  0  0  0  0
    0.0191   -0.5718    1.1110 H   0  0  0  0  0  0  0  0  0  0  0  0
    0.1724   -0.3238   -1.0286 C   0  0  0  0  0  0  0  0  0  0  0  0
    0.8368    0.5268   -1.1926 H   0  0  0  0  0  0  0  0  0  0  0  0
    0.7947   -1.2169   -0.9377 H   0  0  0  0  0  0  0  0  0  0  0  0
   -0.7232   -0.4882   -2.2702 C   0  0  0  0  0  0  0  0  0  0  0  0
   -1.1568    0.4744   -2.5414 H   0  0  0  0  0  0  0  0  0  0  0  0
    0.0478   -1.0432   -3.4714 C   0  0  0  0  0  0  0  0  0  0  0  0
    0.5017   -2.0001   -3.2102 H   0  0  0  0  0  0  0  0  0  0  0  0
   -0.6338   -1.1889   -4.3097 H   0  0  0  0  0  0  0  0  0  0  0  0
    0.8291   -0.3515   -3.7792 H   0  0  0  0  0  0  0  0  0  0  0  0
   -1.8678   -1.4513   -1.9574 C   0  0  0  0  0  0  0  0  0  0  0  0
   -2.4550   -1.0647   -1.1244 H   0  0  0  0  0  0  0  0  0  0  0  0
   -2.5190   -1.5479   -2.8261 H   0  0  0  0  0  0  0  0  0  0  0  0
   -1.4716   -2.4325   -1.6937 H   0  0  0  0  0  0  0  0  0  0  0  0
   -0.7793    1.3659    0.6455 C   0  0  0  0  0  0  0  0  0  0  0  0
   -1.6464    2.0125    0.0623 O   0  0  0  0  0  0  0  0  0  0  0  0
    0.0189    1.9059    1.5756 N   0  0  0  0  0  0  0  0  0  0  0  0
    0.7024    1.3094    2.0137 H   0  0  0  0  0  0  0  0  0  0  0  0
   -0.0451    3.3046    1.9929 C   0  0  0  0  0  0  0  0  0  0  0  0
   -1.0415    3.5286    2.3805 H   0  0  0  0  0  0  0  0  0  0  0  0
    0.6954    3.5023    2.7695 H   0  0  0  0  0  0  0  0  0  0  0  0
    0.1474    3.9536    1.1372 H   0  0  0  0  0  0  0  0  0  0  0  0
  5  6  2  0  0  0  0
  5  7  1  0  0  0  0
  2  3  1  0  0  0  0
  2  4  1  0  0  0  0
  2  5  1  0  0  0  0
  1  2  1  0  0  0  0
 24 25  2  0  0  0  0
 24 26  1  0  0  0  0
 20 21  1  0  0  0  0
 20 22  1  0  0  0  0
 20 23  1  0  0  0  0
 16 17  1  0  0  0  0
 16 18  1  0  0  0  0
 16 19  1  0  0  0  0
 14 15  1  0  0  0  0
 14 16  1  0  0  0  0
 14 20  1  0  0  0  0
 11 12  1  0  0  0  0
 11 13  1  0  0  0  0
 11 14  1  0  0  0  0
  9 10  1  0  0  0  0
  9 11  1  0  0  0  0
  9 24  1  0  0  0  0
  7  8  1  0  0  0  0
  7  9  1  0  0  0  0
 28 29  1  0  0  0  0
 28 30  1  0  0  0  0
 28 31  1  0  0  0  0
 26 27  1  0  0  0  0
 26 28  1  0  0  0  0
M  END
$$$$
default_name
  -OEChem-02102213163D

 31 30  0     1  0  0  0  0  0999 V2000
   -3.5895   -3.5013    1.1082 H   0  0  0  0  0  0  0  0  0  0  0  0
   -3.5145   -2.5363    0.6082 C   0  0  0  0  0  0  0  0  0  0  0  0
   -4.2285   -1.8413    1.0452 H   0  0  0  0  0  0  0  0  0  0  0  0
   -3.7155   -2.6583   -0.4538 H   0  0  0  0  0  0  0  0  0  0  0  0
   -2.1155   -1.9963    0.7922 C   0  0  0  0  0  0  0  0  0  0  0  0
   -1.2875   -2.6383    1.4252 O   0  0  0  0  0  0  0  0  0  0  0  0
   -1.8575   -0.8123    0.2402 N   0  0  0  0  0  0  0  0  0  0  0  0
   -2.6005   -0.3333   -0.2478 H   0  0  0  0  0  0  0  0  0  0  0  0
   -0.5675   -0.1203    0.3102 C   0  0  1  0  0  0  0  0  0  0  0  0
    0.0191   -0.5718    1.1110 H   0  0  0  0  0  0  0  0  0  0  0  0
    0.1724   -0.3238   -1.0286 C   0  0  0  0  0  0  0  0  0  0  0  0
    0.8368    0.5268   -1.1926 H   0  0  0  0  0  0  0  0  0  0  0  0
    0.7947   -1.2169   -0.9377 H   0  0  0  0  0  0  0  0  0  0  0  0
   -0.7232   -0.4882   -2.2702 C   0  0  0  0  0  0  0  0  0  0  0  0
   -0.9410    0.4899   -2.6992 H   0  0  0  0  0  0  0  0  0  0  0  0
   -0.0726   -1.3681   -3.3415 C   0  0  0  0  0  0  0  0  0  0  0  0
    0.1663   -2.3465   -2.9224 H   0  0  0  0  0  0  0  0  0  0  0  0
   -0.7598   -1.4968   -4.1781 H   0  0  0  0  0  0  0  0  0  0  0  0
    0.8404   -0.9084   -3.7137 H   0  0  0  0  0  0  0  0  0  0  0  0
   -2.0487   -1.1343   -1.8689 C   0  0  0  0  0  0  0  0  0  0  0  0
   -2.5508   -0.5117   -1.1285 H   0  0  0  0  0  0  0  0  0  0  0  0
   -2.6954   -1.2265   -2.7414 H   0  0  0  0  0  0  0  0  0  0  0  0
   -1.8714   -2.1239   -1.4462 H   0  0  0  0  0  0  0  0  0  0  0  0
   -0.7793    1.3659    0.6455 C   0  0  0  0  0  0  0  0  0  0  0  0
   -1.6464    2.0125    0.0623 O   0  0  0  0  0  0  0  0  0  0  0  0
    0.0189    1.9059    1.5756 N   0  0  0  0  0  0  0  0  0  0  0  0
    0.7024    1.3094    2.0137 H   0  0  0  0  0  0  0  0  0  0  0  0
   -0.0451    3.3046    1.9929 C   0  0  0  0  0  0  0  0  0  0  0  0
   -1.0415    3.5286    2.3805 H   0  0  0  0  0  0  0  0  0  0  0  0
    0.6954    3.5023    2.7695 H   0  0  0  0  0  0  0  0  0  0  0  0
    0.1474    3.9536    1.1372 H   0  0  0  0  0  0  0  0  0  0  0  0
  5  6  2  0  0  0  0
  5  7  1  0  0  0  0
  2  3  1  0  0  0  0
  2  4  1  0  0  0  0
  2  5  1  0  0  0  0
  1  2  1  0  0  0  0
 24 25  2  0  0  0  0
 24 26  1  0  0  0  0
 20 21  1  0  0  0  0
 20 22  1  0  0  0  0
 20 23  1  0  0  0  0
 16 17  1  0  0  0  0
 16 18  1  0  0  0  0
 16 19  1  0  0  0  0
 14 15  1  0  0  0  0
 14 16  1  0  0  0  0
 14 20  1  0  0  0  0
 11 12  1  0  0  0  0
 11 13  1  0  0  0  0
 11 14  1  0  0  0  0
  9 10  1  0  0  0  0
  9 11  1  0  0  0  0
  9 24  1  0  0  0  0
  7  8  1  0  0  0  0
  7  9  1  0  0  0  0
 28 29  1  0  0  0  0
 28 30  1  0  0  0  0
 28 31  1  0  0  0  0
 26 27  1  0  0  0  0
 26 28  1  0  0  0  0
M  END
$$$$
default_name
  -OEChem-02102213163D

 31 30  0     1  0  0  0  0  0999 V2000
   -3.5895   -3.5013    1.1082 H   0  0  0  0  0  0  0  0  0  0  0  0
   -3.5145   -2.5363    0.6082 C   0  0  0  0  0  0  0  0  0  0  0  0
   -4.2285   -1.8413    1.0452 H   0  0  0  0  0  0  0  0  0  0  0  0
   -3.7155   -2.6583   -0.4538 H   0  0  0  0  0  0  0  0  0  0  0  0
   -2.1155   -1.9963    0.7922 C   0  0  0  0  0  0  0  0  0  0  0  0
   -1.2875   -2.6383    1.4252 O   0  0  0  0  0  0  0  0  0  0  0  0
   -1.8575   -0.8123    0.2402 N   0  0  0  0  0  0  0  0  0  0  0  0
   -2.6005   -0.3333   -0.2478 H   0  0  0  0  0  0  0  0  0  0  0  0
   -0.5675   -0.1203    0.3102 C   0  0  1  0  0  0  0  0  0  0  0  0
    0.0191   -0.5718    1.1110 H   0  0  0  0  0  0  0  0  0  0  0  0
    0.1724   -0.3238   -1.0286 C   0  0  0  0  0  0  0  0  0  0  0  0
    0.8368    0.5268   -1.1926 H   0  0  0  0  0  0  0  0  0  0  0  0
    0.7947   -1.2169   -0.9377 H   0  0  0  0  0  0  0  0  0  0  0  0
   -0.7232   -0.4882   -2.2702 C   0  0  0  0  0  0  0  0  0  0  0  0
   -0.7248    0.4361   -2.8480 H   0  0  0  0  0  0  0  0  0  0  0  0
   -0.2603   -1.6373   -3.1705 C   0  0  0  0  0  0  0  0  0  0  0  0
   -0.2379   -2.5678   -2.6015 H   0  0  0  0  0  0  0  0  0  0  0  0
   -0.9494   -1.7481   -4.0080 H   0  0  0  0  0  0  0  0  0  0  0  0
    0.7334   -1.4389   -3.5663 H   0  0  0  0  0  0  0  0  0  0  0  0
   -2.1597   -0.7771   -1.8361 C   0  0  0  0  0  0  0  0  0  0  0  0
   -2.5278    0.0419   -1.2183 H   0  0  0  0  0  0  0  0  0  0  0  0
   -2.8011   -0.8665   -2.7128 H   0  0  0  0  0  0  0  0  0  0  0  0
   -2.1999   -1.7051   -1.2646 H   0  0  0  0  0  0  0  0  0  0  0  0
   -0.7793    1.3659    0.6455 C   0  0  0  0  0  0  0  0  0  0  0  0
   -1.6464    2.0125    0.0623 O   0  0  0  0  0  0  0  0  0  0  0  0
    0.0189    1.9059    1.5756 N   0  0  0  0  0  0  0  0  0  0  0  0
    0.7024    1.3094    2.0137 H   0  0  0  0  0  0  0  0  0  0  0  0
   -0.0451    3.3046    1.9929 C   0  0  0  0  0  0  0  0  0  0  0  0
   -1.0415    3.5286    2.3805 H   0  0  0  0  0  0  0  0  0  0  0  0
    0.6954    3.5023    2.7695 H   0  0  0  0  0  0  0  0  0  0  0  0
    0.1474    3.9536    1.1372 H   0  0  0  0  0  0  0  0  0  0  0  0
  5  6  2  0  0  0  0
  5  7  1  0  0  0  0
  2  3  1  0  0  0  0
  2  4  1  0  0  0  0
  2  5  1  0  0  0  0
  1  2  1  0  0  0  0
 24 25  2  0  0  0  0
 24 26  1  0  0  0  0
 20 21  1  0  0  0  0
 20 22  1  0  0  0  0
 20 23  1  0  0  0  0
 16 17  1  0  0  0  0
 16 18  1  0  0  0  0
 16 19  1  0  0  0  0
 14 15  1  0  0  0  0
 14 16  1  0  0  0  0
 14 20  1  0  0  0  0
 11 12  1  0  0  0  0
 11 13  1  0  0  0  0
 11 14  1  0  0  0  0
  9 10  1  0  0  0  0
  9 11  1  0  0  0  0
  9 24  1  0  0  0  0
  7  8  1  0  0  0  0
  7  9  1  0  0  0  0
 28 29  1  0  0  0  0
 28 30  1  0  0  0  0
 28 31  1  0  0  0  0
 26 27  1  0  0  0  0
 26 28  1  0  0  0  0
M  END
$$$$
default_name
  -OEChem-02102213163D

 31 30  0     1  0  0  0  0  0999 V2000
   -3.5895   -3.5013    1.1082 H   0  0  0  0  0  0  0  0  0  0  0  0
   -3.5145   -2.5363    0.6082 C   0  0  0  0  0  0  0  0  0  0  0  0
   -4.2285   -1.8413    1.0452 H   0  0  0  0  0  0  0  0  0  0  0  0
   -3.7155   -2.6583   -0.4538 H   0  0  0  0  0  0  0  0  0  0  0  0
   -2.1155   -1.9963    0.7922 C   0  0  0  0  0  0  0  0  0  0  0  0
   -1.2875   -2.6383    1.4252 O   0  0  0  0  0  0  0  0  0  0  0  0
   -1.8575   -0.8123    0.2402 N   0  0  0  0  0  0  0  0  0  0  0  0
   -2.6005   -0.3333   -0.2478 H   0  0  0  0  0  0  0  0  0  0  0  0
   -0.5675   -0.1203    0.3102 C   0  0  1  0  0  0  0  0  0  0  0  0
    0.0191   -0.5718    1.1110 H   0  0  0  0  0  0  0  0  0  0  0  0
    0.1724   -0.3238   -1.0286 C   0  0  0  0  0  0  0  0  0  0  0  0
    0.8368    0.5268   -1.1926 H   0  0  0  0  0  0  0  0  0  0  0  0
    0.7947   -1.2169   -0.9377 H   0  0  0  0  0  0  0  0  0  0  0  0
   -0.7232   -0.4882   -2.2702 C   0  0  0  0  0  0  0  0  0  0  0  0
   -0.5232    0.3167   -2.9776 H   0  0  0  0  0  0  0  0  0  0  0  0
   -0.5025   -1.8324   -2.9699 C   0  0  0  0  0  0  0  0  0  0  0  0
   -0.6834   -2.6488   -2.2694 H   0  0  0  0  0  0  0  0  0  0  0  0
   -1.1897   -1.9256   -3.8112 H   0  0  0  0  0  0  0  0  0  0  0  0
    0.5152   -1.9067   -3.3470 H   0  0  0  0  0  0  0  0  0  0  0  0
   -2.1933   -0.4040   -1.8612 C   0  0  0  0  0  0  0  0  0  0  0  0
   -2.3877    0.5583   -1.3878 H   0  0  0  0  0  0  0  0  0  0  0  0
   -2.8289   -0.4924   -2.7423 H   0  0  0  0  0  0  0  0  0  0  0  0
   -2.4349   -1.2047   -1.1614 H   0  0  0  0  0  0  0  0  0  0  0  0
   -0.7793    1.3659    0.6455 C   0  0  0  0  0  0  0  0  0  0  0  0
   -1.6464    2.0125    0.0623 O   0  0  0  0  0  0  0  0  0  0  0  0
    0.0189    1.9059    1.5756 N   0  0  0  0  0  0  0  0  0  0  0  0
    0.7024    1.3094    2.0137 H   0  0  0  0  0  0  0  0  0  0  0  0
   -0.0451    3.3046    1.9929 C   0  0  0  0  0  0  0  0  0  0  0  0
   -1.0415    3.5286    2.3805 H   0  0  0  0  0  0  0  0  0  0  0  0
    0.6954    3.5023    2.7695 H   0  0  0  0  0  0  0  0  0  0  0  0
    0.1474    3.9536    1.1372 H   0  0  0  0  0  0  0  0  0  0  0  0
  5  6  2  0  0  0  0
  5  7  1  0  0  0  0
  2  3  1  0  0  0  0
  2  4  1  0  0  0  0
  2  5  1  0  0  0  0
  1  2  1  0  0  0  0
 24 25  2  0  0  0  0
 24 26  1  0  0  0  0
 20 21  1  0  0  0  0
 20 22  1  0  0  0  0
 20 23  1  0  0  0  0
 16 17  1  0  0  0  0
 16 18  1  0  0  0  0
 16 19  1  0  0  0  0
 14 15  1  0  0  0  0
 14 16  1  0  0  0  0
 14 20  1  0  0  0  0
 11 12  1  0  0  0  0
 11 13  1  0  0  0  0
 11 14  1  0  0  0  0
  9 10  1  0  0  0  0
  9 11  1  0  0  0  0
  9 24  1  0  0  0  0
  7  8  1  0  0  0  0
  7  9  1  0  0  0  0
 28 29  1  0  0  0  0
 28 30  1  0  0  0  0
 28 31  1  0  0  0  0
 26 27  1  0  0  0  0
 26 28  1  0  0  0  0
M  END
$$$$
default_name
  -OEChem-02102213163D

 31 30  0     1  0  0  0  0  0999 V2000
   -3.5895   -3.5013    1.1082 H   0  0  0  0  0  0  0  0  0  0  0  0
   -3.5145   -2.5363    0.6082 C   0  0  0  0  0  0  0  0  0  0  0  0
   -4.2285   -1.8413    1.0452 H   0  0  0  0  0  0  0  0  0  0  0  0
   -3.7155   -2.6583   -0.4538 H   0  0  0  0  0  0  0  0  0  0  0  0
   -2.1155   -1.9963    0.7922 C   0  0  0  0  0  0  0  0  0  0  0  0
   -1.2875   -2.6383    1.4252 O   0  0  0  0  0  0  0  0  0  0  0  0
   -1.8575   -0.8123    0.2402 N   0  0  0  0  0  0  0  0  0  0  0  0
   -2.6005   -0.3333   -0.2478 H   0  0  0  0  0  0  0  0  0  0  0  0
   -0.5675   -0.1203    0.3102 C   0  0  1  0  0  0  0  0  0  0  0  0
    0.0191   -0.5718    1.1110 H   0  0  0  0  0  0  0  0  0  0  0  0
    0.1724   -0.3238   -1.0286 C   0  0  0  0  0  0  0  0  0  0  0  0
    0.8368    0.5268   -1.1926 H   0  0  0  0  0  0  0  0  0  0  0  0
    0.7947   -1.2169   -0.9377 H   0  0  0  0  0  0  0  0  0  0  0  0
   -0.7232   -0.4882   -2.2702 C   0  0  0  0  0  0  0  0  0  0  0  0
   -0.3498    0.1397   -3.0792 H   0  0  0  0  0  0  0  0  0  0  0  0
   -0.7827   -1.9401   -2.7535 C   0  0  0  0  0  0  0  0  0  0  0  0
   -1.1399   -2.5841   -1.9488 H   0  0  0  0  0  0  0  0  0  0  0  0
   -1.4643   -2.0174   -3.6010 H   0  0  0  0  0  0  0  0  0  0  0  0
    0.2008   -2.2800   -3.0708 H   0  0  0  0  0  0  0  0  0  0  0  0
   -2.1472   -0.0404   -1.9426 C   0  0  0  0  0  0  0  0  0  0  0  0
   -2.1398    1.0024   -1.6254 H   0  0  0  0  0  0  0  0  0  0  0  0
   -2.7768   -0.1297   -2.8279 H   0  0  0  0  0  0  0  0  0  0  0  0
   -2.5603   -0.6568   -1.1434 H   0  0  0  0  0  0  0  0  0  0  0  0
   -0.7793    1.3659    0.6455 C   0  0  0  0  0  0  0  0  0  0  0  0
   -1.6464    2.0125    0.0623 O   0  0  0  0  0  0  0  0  0  0  0  0
    0.0189    1.9059    1.5756 N   0  0  0  0  0  0  0  0  0  0  0  0
    0.7024    1.3094    2.0137 H   0  0  0  0  0  0  0  0  0  0  0  0
   -0.0451    3.3046    1.9929 C   0  0  0  0  0  0  0  0  0  0  0  0
   -1.0415    3.5286    2.3805 H   0  0  0  0  0  0  0  0  0  0  0  0
    0.6954    3.5023    2.7695 H   0  0  0  0  0  0  0  0  0  0  0  0
    0.1474    3.9536    1.1372 H   0  0  0  0  0  0  0  0  0  0  0  0
  5  6  2  0  0  0  0
  5  7  1  0  0  0  0
  2  3  1  0  0  0  0
  2  4  1  0  0  0  0
  2  5  1  0  0  0  0
  1  2  1  0  0  0  0
 24 25  2  0  0  0  0
 24 26  1  0  0  0  0
 20 21  1  0  0  0  0
 20 22  1  0  0  0  0
 20 23  1  0  0  0  0
 16 17  1  0  0  0  0
 16 18  1  0  0  0  0
 16 19  1  0  0  0  0
 14 15  1  0  0  0  0
 14 16  1  0  0  0  0
 14 20  1  0  0  0  0
 11 12  1  0  0  0  0
 11 13  1  0  0  0  0
 11 14  1  0  0  0  0
  9 10  1  0  0  0  0
  9 11  1  0  0  0  0
  9 24  1  0  0  0  0
  7  8  1  0  0  0  0
  7  9  1  0  0  0  0
 28 29  1  0  0  0  0
 28 30  1  0  0  0  0
 28 31  1  0  0  0  0
 26 27  1  0  0  0  0
 26 28  1  0  0  0  0
M  END
$$$$
default_name
  -OEChem-02102213163D

 31 30  0     1  0  0  0  0  0999 V2000
   -3.5895   -3.5013    1.1082 H   0  0  0  0  0  0  0  0  0  0  0  0
   -3.5145   -2.5363    0.6082 C   0  0  0  0  0  0  0  0  0  0  0  0
   -4.2285   -1.8413    1.0452 H   0  0  0  0  0  0  0  0  0  0  0  0
   -3.7155   -2.6583   -0.4538 H   0  0  0  0  0  0  0  0  0  0  0  0
   -2.1155   -1.9963    0.7922 C   0  0  0  0  0  0  0  0  0  0  0  0
   -1.2875   -2.6383    1.4252 O   0  0  0  0  0  0  0  0  0  0  0  0
   -1.8575   -0.8123    0.2402 N   0  0  0  0  0  0  0  0  0  0  0  0
   -2.6005   -0.3333   -0.2478 H   0  0  0  0  0  0  0  0  0  0  0  0
   -0.5675   -0.1203    0.3102 C   0  0  1  0  0  0  0  0  0  0  0  0
    0.0191   -0.5718    1.1110 H   0  0  0  0  0  0  0  0  0  0  0  0
    0.1724   -0.3238   -1.0286 C   0  0  0  0  0  0  0  0  0  0  0  0
    0.8368    0.5268   -1.1926 H   0  0  0  0  0  0  0  0  0  0  0  0
    0.7947   -1.2169   -0.9377 H   0  0  0  0  0  0  0  0  0  0  0  0
   -0.7232   -0.4882   -2.2702 C   0  0  0  0  0  0  0  0  0  0  0  0
   -0.2164   -0.0828   -3.1460 H   0  0  0  0  0  0  0  0  0  0  0  0
   -1.0819   -1.9531   -2.5360 C   0  0  0  0  0  0  0  0  0  0  0  0
   -1.5761   -2.3781   -1.6614 H   0  0  0  0  0  0  0  0  0  0  0  0
   -1.7544   -2.0170   -3.3917 H   0  0  0  0  0  0  0  0  0  0  0  0
   -0.1885   -2.5334   -2.7564 H   0  0  0  0  0  0  0  0  0  0  0  0
   -2.0245    0.2890   -2.0747 C   0  0  0  0  0  0  0  0  0  0  0  0
   -1.8011    1.3438   -1.9149 H   0  0  0  0  0  0  0  0  0  0  0  0
   -2.6485    0.1969   -2.9637 H   0  0  0  0  0  0  0  0  0  0  0  0
   -2.5675   -0.0986   -1.2121 H   0  0  0  0  0  0  0  0  0  0  0  0
   -0.7793    1.3659    0.6455 C   0  0  0  0  0  0  0  0  0  0  0  0
   -1.6464    2.0125    0.0623 O   0  0  0  0  0  0  0  0  0  0  0  0
    0.0189    1.9059    1.5756 N   0  0  0  0  0  0  0  0  0  0  0  0
    0.7024    1.3094    2.0137 H   0  0  0  0  0  0  0  0  0  0  0  0
   -0.0451    3.3046    1.9929 C   0  0  0  0  0  0  0  0  0  0  0  0
   -1.0415    3.5286    2.3805 H   0  0  0  0  0  0  0  0  0  0  0  0
    0.6954    3.5023    2.7695 H   0  0  0  0  0  0  0  0  0  0  0  0
    0.1474    3.9536    1.1372 H   0  0  0  0  0  0  0  0  0  0  0  0
  5  6  2  0  0  0  0
  5  7  1  0  0  0  0
  2  3  1  0  0  0  0
  2  4  1  0  0  0  0
  2  5  1  0  0  0  0
  1  2  1  0  0  0  0
 24 25  2  0  0  0  0
 24 26  1  0  0  0  0
 20 21  1  0  0  0  0
 20 22  1  0  0  0  0
 20 23  1  0  0  0  0
 16 17  1  0  0  0  0
 16 18  1  0  0  0  0
 16 19  1  0  0  0  0
 14 15  1  0  0  0  0
 14 16  1  0  0  0  0
 14 20  1  0  0  0  0
 11 12  1  0  0  0  0
 11 13  1  0  0  0  0
 11 14  1  0  0  0  0
  9 10  1  0  0  0  0
  9 11  1  0  0  0  0
  9 24  1  0  0  0  0
  7  8  1  0  0  0  0
  7  9  1  0  0  0  0
 28 29  1  0  0  0  0
 28 30  1  0  0  0  0
 28 31  1  0  0  0  0
 26 27  1  0  0  0  0
 26 28  1  0  0  0  0
M  END
$$$$
default_name
  -OEChem-02102213163D

 31 30  0     1  0  0  0  0  0999 V2000
   -3.5895   -3.5013    1.1082 H   0  0  0  0  0  0  0  0  0  0  0  0
   -3.5145   -2.5363    0.6082 C   0  0  0  0  0  0  0  0  0  0  0  0
   -4.2285   -1.8413    1.0452 H   0  0  0  0  0  0  0  0  0  0  0  0
   -3.7155   -2.6583   -0.4538 H   0  0  0  0  0  0  0  0  0  0  0  0
   -2.1155   -1.9963    0.7922 C   0  0  0  0  0  0  0  0  0  0  0  0
   -1.2875   -2.6383    1.4252 O   0  0  0  0  0  0  0  0  0  0  0  0
   -1.8575   -0.8123    0.2402 N   0  0  0  0  0  0  0  0  0  0  0  0
   -2.6005   -0.3333   -0.2478 H   0  0  0  0  0  0  0  0  0  0  0  0
   -0.5675   -0.1203    0.3102 C   0  0  1  0  0  0  0  0  0  0  0  0
    0.0191   -0.5718    1.1110 H   0  0  0  0  0  0  0  0  0  0  0  0
    0.1724   -0.3238   -1.0286 C   0  0  0  0  0  0  0  0  0  0  0  0
    0.8368    0.5268   -1.1926 H   0  0  0  0  0  0  0  0  0  0  0  0
    0.7947   -1.2169   -0.9377 H   0  0  0  0  0  0  0  0  0  0  0  0
   -0.7232   -0.4882   -2.2702 C   0  0  0  0  0  0  0  0  0  0  0  0
   -0.1322   -0.3356   -3.1733 H   0  0  0  0  0  0  0  0  0  0  0  0
   -1.3795   -1.8705   -2.3323 C   0  0  0  0  0  0  0  0  0  0  0  0
   -1.9624   -2.0448   -1.4268 H   0  0  0  0  0  0  0  0  0  0  0  0
   -2.0404   -1.9246   -3.1977 H   0  0  0  0  0  0  0  0  0  0  0  0
   -0.6261   -2.6496   -2.4254 H   0  0  0  0  0  0  0  0  0  0  0  0
   -1.8336    0.5617   -2.2485 C   0  0  0  0  0  0  0  0  0  0  0  0
   -1.3947    1.5593   -2.2365 H   0  0  0  0  0  0  0  0  0  0  0  0
   -2.4525    0.4651   -3.1405 H   0  0  0  0  0  0  0  0  0  0  0  0
   -2.4562    0.4317   -1.3626 H   0  0  0  0  0  0  0  0  0  0  0  0
   -0.7793    1.3659    0.6455 C   0  0  0  0  0  0  0  0  0  0  0  0
   -1.6464    2.0125    0.0623 O   0  0  0  0  0  0  0  0  0  0  0  0
    0.0189    1.9059    1.5756 N   0  0  0  0  0  0  0  0  0  0  0  0
    0.7024    1.3094    2.0137 H   0  0  0  0  0  0  0  0  0  0  0  0
   -0.0451    3.3046    1.9929 C   0  0  0  0  0  0  0  0  0  0  0  0
   -1.0415    3.5286    2.3805 H   0  0  0  0  0  0  0  0  0  0  0  0
    0.6954    3.5023    2.7695 H   0  0  0  0  0  0  0  0  0  0  0  0
    0.1474    3.9536    1.1372 H   0  0  0  0  0  0  0  0  0  0  0  0
  5  6  2  0  0  0  0
  5  7  1  0  0  0  0
  2  3  1  0  0  0  0
  2  4  1  0  0  0  0
  2  5  1  0  0  0  0
  1  2  1  0  0  0  0
 24 25  2  0  0  0  0
 24 26  1  0  0  0  0
 20 21  1  0  0  0  0
 20 22  1  0  0  0  0
 20 23  1  0  0  0  0
 16 17  1  0  0  0  0
 16 18  1  0  0  0  0
 16 19  1  0  0  0  0
 14 15  1  0  0  0  0
 14 16  1  0  0  0  0
 14 20  1  0  0  0  0
 11 12  1  0  0  0  0
 11 13  1  0  0  0  0
 11 14  1  0  0  0  0
  9 10  1  0  0  0  0
  9 11  1  0  0  0  0
  9 24  1  0  0  0  0
  7  8  1  0  0  0  0
  7  9  1  0  0  0  0
 28 29  1  0  0  0  0
 28 30  1  0  0  0  0
 28 31  1  0  0  0  0
 26 27  1  0  0  0  0
 26 28  1  0  0  0  0
M  END
$$$$
default_name
  -OEChem-02102213163D

 31 30  0     1  0  0  0  0  0999 V2000
   -3.5895   -3.5013    1.1082 H   0  0  0  0  0  0  0  0  0  0  0  0
   -3.5145   -2.5363    0.6082 C   0  0  0  0  0  0  0  0  0  0  0  0
   -4.2285   -1.8413    1.0452 H   0  0  0  0  0  0  0  0  0  0  0  0
   -3.7155   -2.6583   -0.4538 H   0  0  0  0  0  0  0  0  0  0  0  0
   -2.1155   -1.9963    0.7922 C   0  0  0  0  0  0  0  0  0  0  0  0
   -1.2875   -2.6383    1.4252 O   0  0  0  0  0  0  0  0  0  0  0  0
   -1.8575   -0.8123    0.2402 N   0  0  0  0  0  0  0  0  0  0  0  0
   -2.6005   -0.3333   -0.2478 H   0  0  0  0  0  0  0  0  0  0  0  0
   -0.5675   -0.1203    0.3102 C   0  0  1  0  0  0  0  0  0  0  0  0
    0.0191   -0.5718    1.1110 H   0  0  0  0  0  0  0  0  0  0  0  0
    0.1724   -0.3238   -1.0286 C   0  0  0  0  0  0  0  0  0  0  0  0
    0.8368    0.5268   -1.1926 H   0  0  0  0  0  0  0  0  0  0  0  0
    0.7947   -1.2169   -0.9377 H   0  0  0  0  0  0  0  0  0  0  0  0
   -0.7232   -0.4882   -2.2702 C   0  0  0  0  0  0  0  0  0  0  0  0
   -0.1028   -0.6014   -3.1593 H   0  0  0  0  0  0  0  0  0  0  0  0
   -1.6554   -1.6978   -2.1561 C   0  0  0  0  0  0  0  0  0  0  0  0
   -2.2725   -1.6069   -1.2611 H   0  0  0  0  0  0  0  0  0  0  0  0
   -2.3028   -1.7464   -3.0320 H   0  0  0  0  0  0  0  0  0  0  0  0
   -1.0822   -2.6207   -2.1003 H   0  0  0  0  0  0  0  0  0  0  0  0
   -1.5874    0.7590   -2.4522 C   0  0  0  0  0  0  0  0  0  0  0  0
   -0.9483    1.6342   -2.5684 H   0  0  0  0  0  0  0  0  0  0  0  0
   -2.2024    0.6567   -3.3463 H   0  0  0  0  0  0  0  0  0  0  0  0
   -2.2337    0.8980   -1.5848 H   0  0  0  0  0  0  0  0  0  0  0  0
   -0.7793    1.3659    0.6455 C   0  0  0  0  0  0  0  0  0  0  0  0
   -1.6464    2.0125    0.0623 O   0  0  0  0  0  0  0  0  0  0  0  0
    0.0189    1.9059    1.5756 N   0  0  0  0  0  0  0  0  0  0  0  0
    0.7024    1.3094    2.0137 H   0  0  0  0  0  0  0  0  0  0  0  0
   -0.0451    3.3046    1.9929 C   0  0  0  0  0  0  0  0  0  0  0  0
   -1.0415    3.5286    2.3805 H   0  0  0  0  0  0  0  0  0  0  0  0
    0.6954    3.5023    2.7695 H   0  0  0  0  0  0  0  0  0  0  0  0
    0.1474    3.9536    1.1372 H   0  0  0  0  0  0  0  0  0  0  0  0
  5  6  2  0  0  0  0
  5  7  1  0  0  0  0
  2  3  1  0  0  0  0
  2  4  1  0  0  0  0
  2  5  1  0  0  0  0
  1  2  1  0  0  0  0
 24 25  2  0  0  0  0
 24 26  1  0  0  0  0
 20 21  1  0  0  0  0
 20 22  1  0  0  0  0
 20 23  1  0  0  0  0
 16 17  1  0  0  0  0
 16 18  1  0  0  0  0
 16 19  1  0  0  0  0
 14 15  1  0  0  0  0
 14 16  1  0  0  0  0
 14 20  1  0  0  0  0
 11 12  1  0  0  0  0
 11 13  1  0  0  0  0
 11 14  1  0  0  0  0
  9 10  1  0  0  0  0
  9 11  1  0  0  0  0
  9 24  1  0  0  0  0
  7  8  1  0  0  0  0
  7  9  1  0  0  0  0
 28 29  1  0  0  0  0
 28 30  1  0  0  0  0
 28 31  1  0  0  0  0
 26 27  1  0  0  0  0
 26 28  1  0  0  0  0
M  END
$$$$
default_name
  -OEChem-02102213163D

 31 30  0     1  0  0  0  0  0999 V2000
   -3.5895   -3.5013    1.1082 H   0  0  0  0  0  0  0  0  0  0  0  0
   -3.5145   -2.5363    0.6082 C   0  0  0  0  0  0  0  0  0  0  0  0
   -4.2285   -1.8413    1.0452 H   0  0  0  0  0  0  0  0  0  0  0  0
   -3.7155   -2.6583   -0.4538 H   0  0  0  0  0  0  0  0  0  0  0  0
   -2.1155   -1.9963    0.7922 C   0  0  0  0  0  0  0  0  0  0  0  0
   -1.2875   -2.6383    1.4252 O   0  0  0  0  0  0  0  0  0  0  0  0
   -1.8575   -0.8123    0.2402 N   0  0  0  0  0  0  0  0  0  0  0  0
   -2.6005   -0.3333   -0.2478 H   0  0  0  0  0  0  0  0  0  0  0  0
   -0.5675   -0.1203    0.3102 C   0  0  1  0  0  0  0  0  0  0  0  0
    0.0191   -0.5718    1.1110 H   0  0  0  0  0  0  0  0  0  0  0  0
    0.1724   -0.3238   -1.0286 C   0  0  0  0  0  0  0  0  0  0  0  0
    0.8368    0.5268   -1.1926 H   0  0  0  0  0  0  0  0  0  0  0  0
    0.7947   -1.2169   -0.9377 H   0  0  0  0  0  0  0  0  0  0  0  0
   -0.7232   -0.4882   -2.2702 C   0  0  0  0  0  0  0  0  0  0  0  0
   -0.1304   -0.8622   -3.1049 H   0  0  0  0  0  0  0  0  0  0  0  0
   -1.8908   -1.4470   -2.0196 C   0  0  0  0  0  0  0  0  0  0  0  0
   -2.4851   -1.0943   -1.1756 H   0  0  0  0  0  0  0  0  0  0  0  0
   -2.5236   -1.4946   -2.9061 H   0  0  0  0  0  0  0  0  0  0  0  0
   -1.5256   -2.4486   -1.8031 H   0  0  0  0  0  0  0  0  0  0  0  0
   -1.3029    0.8676   -2.6718 C   0  0  0  0  0  0  0  0  0  0  0  0
   -0.4923    1.5634   -2.8880 H   0  0  0  0  0  0  0  0  0  0  0  0
   -1.9152    0.7586   -3.5670 H   0  0  0  0  0  0  0  0  0  0  0  0
   -1.9154    1.2685   -1.8635 H   0  0  0  0  0  0  0  0  0  0  0  0
   -0.7793    1.3659    0.6455 C   0  0  0  0  0  0  0  0  0  0  0  0
   -1.6464    2.0125    0.0623 O   0  0  0  0  0  0  0  0  0  0  0  0
    0.0189    1.9059    1.5756 N   0  0  0  0  0  0  0  0  0  0  0  0
    0.7024    1.3094    2.0137 H   0  0  0  0  0  0  0  0  0  0  0  0
   -0.0451    3.3046    1.9929 C   0  0  0  0  0  0  0  0  0  0  0  0
   -1.0415    3.5286    2.3805 H   0  0  0  0  0  0  0  0  0  0  0  0
    0.6954    3.5023    2.7695 H   0  0  0  0  0  0  0  0  0  0  0  0
    0.1474    3.9536    1.1372 H   0  0  0  0  0  0  0  0  0  0  0  0
  5  6  2  0  0  0  0
  5  7  1  0  0  0  0
  2  3  1  0  0  0  0
  2  4  1  0  0  0  0
  2  5  1  0  0  0  0
  1  2  1  0  0  0  0
 24 25  2  0  0  0  0
 24 26  1  0  0  0  0
 20 21  1  0  0  0  0
 20 22  1  0  0  0  0
 20 23  1  0  0  0  0
 16 17  1  0  0  0  0
 16 18  1  0  0  0  0
 16 19  1  0  0  0  0
 14 15  1  0  0  0  0
 14 16  1  0  0  0  0
 14 20  1  0  0  0  0
 11 12  1  0  0  0  0
 11 13  1  0  0  0  0
 11 14  1  0  0  0  0
  9 10  1  0  0  0  0
  9 11  1  0  0  0  0
  9 24  1  0  0  0  0
  7  8  1  0  0  0  0
  7  9  1  0  0  0  0
 28 29  1  0  0  0  0
 28 30  1  0  0  0  0
 28 31  1  0  0  0  0
 26 27  1  0  0  0  0
 26 28  1  0  0  0  0
M  END
$$$$
default_name
  -OEChem-02102213163D

 31 30  0     1  0  0  0  0  0999 V2000
   -3.5895   -3.5013    1.1082 H   0  0  0  0  0  0  0  0  0  0  0  0
   -3.5145   -2.5363    0.6082 C   0  0  0  0  0  0  0  0  0  0  0  0
   -4.2285   -1.8413    1.0452 H   0  0  0  0  0  0  0  0  0  0  0  0
   -3.7155   -2.6583   -0.4538 H   0  0  0  0  0  0  0  0  0  0  0  0
   -2.1155   -1.9963    0.7922 C   0  0  0  0  0  0  0  0  0  0  0  0
   -1.2875   -2.6383    1.4252 O   0  0  0  0  0  0  0  0  0  0  0  0
   -1.8575   -0.8123    0.2402 N   0  0  0  0  0  0  0  0  0  0  0  0
   -2.6005   -0.3333   -0.2478 H   0  0  0  0  0  0  0  0  0  0  0  0
   -0.5675   -0.1203    0.3102 C   0  0  1  0  0  0  0  0  0  0  0  0
    0.0191   -0.5718    1.1110 H   0  0  0  0  0  0  0  0  0  0  0  0
    0.1724   -0.3238   -1.0286 C   0  0  0  0  0  0  0  0  0  0  0  0
    0.8368    0.5268   -1.1926 H   0  0  0  0  0  0  0  0  0  0  0  0
    0.7947   -1.2169   -0.9377 H   0  0  0  0  0  0  0  0  0  0  0  0
   -0.7232   -0.4882   -2.2702 C   0  0  0  0  0  0  0  0  0  0  0  0
   -0.2129   -1.1002   -3.0139 H   0  0  0  0  0  0  0  0  0  0  0  0
   -2.0695   -1.1350   -1.9319 C   0  0  0  0  0  0  0  0  0  0  0  0
   -2.5860   -0.5419   -1.1760 H   0  0  0  0  0  0  0  0  0  0  0  0
   -2.6878   -1.1864   -2.8284 H   0  0  0  0  0  0  0  0  0  0  0  0
   -1.9263   -2.1451   -1.5543 H   0  0  0  0  0  0  0  0  0  0  0  0
   -0.9993    0.8801   -2.8924 C   0  0  0  0  0  0  0  0  0  0  0  0
   -0.0578    1.3518   -3.1734 H   0  0  0  0  0  0  0  0  0  0  0  0
   -1.6104    0.7638   -3.7875 H   0  0  0  0  0  0  0  0  0  0  0  0
   -1.5229    1.5181   -2.1796 H   0  0  0  0  0  0  0  0  0  0  0  0
   -0.7793    1.3659    0.6455 C   0  0  0  0  0  0  0  0  0  0  0  0
   -1.6464    2.0125    0.0623 O   0  0  0  0  0  0  0  0  0  0  0  0
    0.0189    1.9059    1.5756 N   0  0  0  0  0  0  0  0  0  0  0  0
    0.7024    1.3094    2.0137 H   0  0  0  0  0  0  0  0  0  0  0  0
   -0.0451    3.3046    1.9929 C   0  0  0  0  0  0  0  0  0  0  0  0
   -1.0415    3.5286    2.3805 H   0  0  0  0  0  0  0  0  0  0  0  0
    0.6954    3.5023    2.7695 H   0  0  0  0  0  0  0  0  0  0  0  0
    0.1474    3.9536    1.1372 H   0  0  0  0  0  0  0  0  0  0  0  0
  5  6  2  0  0  0  0
  5  7  1  0  0  0  0
  2  3  1  0  0  0  0
  2  4  1  0  0  0  0
  2  5  1  0  0  0  0
  1  2  1  0  0  0  0
 24 25  2  0  0  0  0
 24 26  1  0  0  0  0
 20 21  1  0  0  0  0
 20 22  1  0  0  0  0
 20 23  1  0  0  0  0
 16 17  1  0  0  0  0
 16 18  1  0  0  0  0
 16 19  1  0  0  0  0
 14 15  1  0  0  0  0
 14 16  1  0  0  0  0
 14 20  1  0  0  0  0
 11 12  1  0  0  0  0
 11 13  1  0  0  0  0
 11 14  1  0  0  0  0
  9 10  1  0  0  0  0
  9 11  1  0  0  0  0
  9 24  1  0  0  0  0
  7  8  1  0  0  0  0
  7  9  1  0  0  0  0
 28 29  1  0  0  0  0
 28 30  1  0  0  0  0
 28 31  1  0  0  0  0
 26 27  1  0  0  0  0
 26 28  1  0  0  0  0
M  END
$$$$
default_name
  -OEChem-02102213163D

 31 30  0     1  0  0  0  0  0999 V2000
   -3.5895   -3.5013    1.1082 H   0  0  0  0  0  0  0  0  0  0  0  0
   -3.5145   -2.5363    0.6082 C   0  0  0  0  0  0  0  0  0  0  0  0
   -4.2285   -1.8413    1.0452 H   0  0  0  0  0  0  0  0  0  0  0  0
   -3.7155   -2.6583   -0.4538 H   0  0  0  0  0  0  0  0  0  0  0  0
   -2.1155   -1.9963    0.7922 C   0  0  0  0  0  0  0  0  0  0  0  0
   -1.2875   -2.6383    1.4252 O   0  0  0  0  0  0  0  0  0  0  0  0
   -1.8575   -0.8123    0.2402 N   0  0  0  0  0  0  0  0  0  0  0  0
   -2.6005   -0.3333   -0.2478 H   0  0  0  0  0  0  0  0  0  0  0  0
   -0.5675   -0.1203    0.3102 C   0  0  1  0  0  0  0  0  0  0  0  0
    0.0191   -0.5718    1.1110 H   0  0  0  0  0  0  0  0  0  0  0  0
    0.1724   -0.3238   -1.0286 C   0  0  0  0  0  0  0  0  0  0  0  0
    0.8368    0.5268   -1.1926 H   0  0  0  0  0  0  0  0  0  0  0  0
    0.7947   -1.2169   -0.9377 H   0  0  0  0  0  0  0  0  0  0  0  0
   -0.7232   -0.4882   -2.2702 C   0  0  0  0  0  0  0  0  0  0  0  0
   -0.3447   -1.2992   -2.8924 H   0  0  0  0  0  0  0  0  0  0  0  0
   -2.1795   -0.7832   -1.8992 C   0  0  0  0  0  0  0  0  0  0  0  0
   -2.5680    0.0127   -1.2623 H   0  0  0  0  0  0  0  0  0  0  0  0
   -2.7842   -0.8427   -2.8044 H   0  0  0  0  0  0  0  0  0  0  0  0
   -2.2568   -1.7309   -1.3707 H   0  0  0  0  0  0  0  0  0  0  0  0
   -0.6974    0.7955   -3.0990 C   0  0  0  0  0  0  0  0  0  0  0  0
    0.3256    1.0137   -3.4053 H   0  0  0  0  0  0  0  0  0  0  0  0
   -1.3088    0.6720   -3.9929 H   0  0  0  0  0  0  0  0  0  0  0  0
   -1.0830    1.6296   -2.5117 H   0  0  0  0  0  0  0  0  0  0  0  0
   -0.7793    1.3659    0.6455 C   0  0  0  0  0  0  0  0  0  0  0  0
   -1.6464    2.0125    0.0623 O   0  0  0  0  0  0  0  0  0  0  0  0
    0.0189    1.9059    1.5756 N   0  0  0  0  0  0  0  0  0  0  0  0
    0.7024    1.3094    2.0137 H   0  0  0  0  0  0  0  0  0  0  0  0
   -0.0451    3.3046    1.9929 C   0  0  0  0  0  0  0  0  0  0  0  0
   -1.0415    3.5286    2.3805 H   0  0  0  0  0  0  0  0  0  0  0  0
    0.6954    3.5023    2.7695 H   0  0  0  0  0  0  0  0  0  0  0  0
    0.1474    3.9536    1.1372 H   0  0  0  0  0  0  0  0  0  0  0  0
  5  6  2  0  0  0  0
  5  7  1  0  0  0  0
  2  3  1  0  0  0  0
  2  4  1  0  0  0  0
  2  5  1  0  0  0  0
  1  2  1  0  0  0  0
 24 25  2  0  0  0  0
 24 26  1  0  0  0  0
 20 21  1  0  0  0  0
 20 22  1  0  0  0  0
 20 23  1  0  0  0  0
 16 17  1  0  0  0  0
 16 18  1  0  0  0  0
 16 19  1  0  0  0  0
 14 15  1  0  0  0  0
 14 16  1  0  0  0  0
 14 20  1  0  0  0  0
 11 12  1  0  0  0  0
 11 13  1  0  0  0  0
 11 14  1  0  0  0  0
  9 10  1  0  0  0  0
  9 11  1  0  0  0  0
  9 24  1  0  0  0  0
  7  8  1  0  0  0  0
  7  9  1  0  0  0  0
 28 29  1  0  0  0  0
 28 30  1  0  0  0  0
 28 31  1  0  0  0  0
 26 27  1  0  0  0  0
 26 28  1  0  0  0  0
M  END
$$$$
default_name
  -OEChem-02102213163D

 31 30  0     1  0  0  0  0  0999 V2000
   -3.5895   -3.5013    1.1082 H   0  0  0  0  0  0  0  0  0  0  0  0
   -3.5145   -2.5363    0.6082 C   0  0  0  0  0  0  0  0  0  0  0  0
   -4.2285   -1.8413    1.0452 H   0  0  0  0  0  0  0  0  0  0  0  0
   -3.7155   -2.6583   -0.4538 H   0  0  0  0  0  0  0  0  0  0  0  0
   -2.1155   -1.9963    0.7922 C   0  0  0  0  0  0  0  0  0  0  0  0
   -1.2875   -2.6383    1.4252 O   0  0  0  0  0  0  0  0  0  0  0  0
   -1.8575   -0.8123    0.2402 N   0  0  0  0  0  0  0  0  0  0  0  0
   -2.6005   -0.3333   -0.2478 H   0  0  0  0  0  0  0  0  0  0  0  0
   -0.5675   -0.1203    0.3102 C   0  0  1  0  0  0  0  0  0  0  0  0
    0.0191   -0.5718    1.1110 H   0  0  0  0  0  0  0  0  0  0  0  0
    0.1724   -0.3238   -1.0286 C   0  0  0  0  0  0  0  0  0  0  0  0
    0.8368    0.5268   -1.1926 H   0  0  0  0  0  0  0  0  0  0  0  0
    0.7947   -1.2169   -0.9377 H   0  0  0  0  0  0  0  0  0  0  0  0
   -0.7232   -0.4882   -2.2702 C   0  0  0  0  0  0  0  0  0  0  0  0
   -0.5170   -1.4456   -2.7488 H   0  0  0  0  0  0  0  0  0  0  0  0
   -2.2131   -0.4154   -1.9236 C   0  0  0  0  0  0  0  0  0  0  0  0
   -2.4326    0.5316   -1.4287 H   0  0  0  0  0  0  0  0  0  0  0  0
   -2.8062   -0.4869   -2.8356 H   0  0  0  0  0  0  0  0  0  0  0  0
   -2.4947   -1.2341   -1.2649 H   0  0  0  0  0  0  0  0  0  0  0  0
   -0.4177    0.6197   -3.2775 C   0  0  0  0  0  0  0  0  0  0  0  0
    0.6318    0.5723   -3.5677 H   0  0  0  0  0  0  0  0  0  0  0  0
   -1.0309    0.4895   -4.1692 H   0  0  0  0  0  0  0  0  0  0  0  0
   -0.6256    1.5956   -2.8372 H   0  0  0  0  0  0  0  0  0  0  0  0
   -0.7793    1.3659    0.6455 C   0  0  0  0  0  0  0  0  0  0  0  0
   -1.6464    2.0125    0.0623 O   0  0  0  0  0  0  0  0  0  0  0  0
    0.0189    1.9059    1.5756 N   0  0  0  0  0  0  0  0  0  0  0  0
    0.7024    1.3094    2.0137 H   0  0  0  0  0  0  0  0  0  0  0  0
   -0.0451    3.3046    1.9929 C   0  0  0  0  0  0  0  0  0  0  0  0
   -1.0415    3.5286    2.3805 H   0  0  0  0  0  0  0  0  0  0  0  0
    0.6954    3.5023    2.7695 H   0  0  0  0  0  0  0  0  0  0  0  0
    0.1474    3.9536    1.1372 H   0  0  0  0  0  0  0  0  0  0  0  0
  5  6  2  0  0  0  0
  5  7  1  0  0  0  0
  2  3  1  0  0  0  0
  2  4  1  0  0  0  0
  2  5  1  0  0  0  0
  1  2  1  0  0  0  0
 24 25  2  0  0  0  0
 24 26  1  0  0  0  0
 20 21  1  0  0  0  0
 20 22  1  0  0  0  0
 20 23  1  0  0  0  0
 16 17  1  0  0  0  0
 16 18  1  0  0  0  0
 16 19  1  0  0  0  0
 14 15  1  0  0  0  0
 14 16  1  0  0  0  0
 14 20  1  0  0  0  0
 11 12  1  0  0  0  0
 11 13  1  0  0  0  0
 11 14  1  0  0  0  0
  9 10  1  0  0  0  0
  9 11  1  0  0  0  0
  9 24  1  0  0  0  0
  7  8  1  0  0  0  0
  7  9  1  0  0  0  0
 28 29  1  0  0  0  0
 28 30  1  0  0  0  0
 28 31  1  0  0  0  0
 26 27  1  0  0  0  0
 26 28  1  0  0  0  0
M  END
$$$$
default_name
  -OEChem-02102213163D

 31 30  0     1  0  0  0  0  0999 V2000
   -3.5895   -3.5013    1.1082 H   0  0  0  0  0  0  0  0  0  0  0  0
   -3.5145   -2.5363    0.6082 C   0  0  0  0  0  0  0  0  0  0  0  0
   -4.2285   -1.8413    1.0452 H   0  0  0  0  0  0  0  0  0  0  0  0
   -3.7155   -2.6583   -0.4538 H   0  0  0  0  0  0  0  0  0  0  0  0
   -2.1155   -1.9963    0.7922 C   0  0  0  0  0  0  0  0  0  0  0  0
   -1.2875   -2.6383    1.4252 O   0  0  0  0  0  0  0  0  0  0  0  0
   -1.8575   -0.8123    0.2402 N   0  0  0  0  0  0  0  0  0  0  0  0
   -2.6005   -0.3333   -0.2478 H   0  0  0  0  0  0  0  0  0  0  0  0
   -0.5675   -0.1203    0.3102 C   0  0  1  0  0  0  0  0  0  0  0  0
    0.0191   -0.5718    1.1110 H   0  0  0  0  0  0  0  0  0  0  0  0
    0.1724   -0.3238   -1.0286 C   0  0  0  0  0  0  0  0  0  0  0  0
    0.8368    0.5268   -1.1926 H   0  0  0  0  0  0  0  0  0  0  0  0
    0.7947   -1.2169   -0.9377 H   0  0  0  0  0  0  0  0  0  0  0  0
   -0.7232   -0.4882   -2.2702 C   0  0  0  0  0  0  0  0  0  0  0  0
   -0.7179   -1.5294   -2.5928 H   0  0  0  0  0  0  0  0  0  0  0  0
   -2.1682   -0.0569   -2.0034 C   0  0  0  0  0  0  0  0  0  0  0  0
   -2.1888    0.9796   -1.6638 H   0  0  0  0  0  0  0  0  0  0  0  0
   -2.7524   -0.1434   -2.9199 H   0  0  0  0  0  0  0  0  0  0  0  0
   -2.6238   -0.6887   -1.2440 H   0  0  0  0  0  0  0  0  0  0  0  0
   -0.1793    0.3647   -3.4157 C   0  0  0  0  0  0  0  0  0  0  0  0
    0.8400    0.0574   -3.6497 H   0  0  0  0  0  0  0  0  0  0  0  0
   -0.7957    0.2287   -4.3043 H   0  0  0  0  0  0  0  0  0  0  0  0
   -0.1819    1.4182   -3.1337 H   0  0  0  0  0  0  0  0  0  0  0  0
   -0.7793    1.3659    0.6455 C   0  0  0  0  0  0  0  0  0  0  0  0
   -1.6464    2.0125    0.0623 O   0  0  0  0  0  0  0  0  0  0  0  0
    0.0189    1.9059    1.5756 N   0  0  0  0  0  0  0  0  0  0  0  0
    0.7024    1.3094    2.0137 H   0  0  0  0  0  0  0  0  0  0  0  0
   -0.0451    3.3046    1.9929 C   0  0  0  0  0  0  0  0  0  0  0  0
   -1.0415    3.5286    2.3805 H   0  0  0  0  0  0  0  0  0  0  0  0
    0.6954    3.5023    2.7695 H   0  0  0  0  0  0  0  0  0  0  0  0
    0.1474    3.9536    1.1372 H   0  0  0  0  0  0  0  0  0  0  0  0
  5  6  2  0  0  0  0
  5  7  1  0  0  0  0
  2  3  1  0  0  0  0
  2  4  1  0  0  0  0
  2  5  1  0  0  0  0
  1  2  1  0  0  0  0
 24 25  2  0  0  0  0
 24 26  1  0  0  0  0
 20 21  1  0  0  0  0
 20 22  1  0  0  0  0
 20 23  1  0  0  0  0
 16 17  1  0  0  0  0
 16 18  1  0  0  0  0
 16 19  1  0  0  0  0
 14 15  1  0  0  0  0
 14 16  1  0  0  0  0
 14 20  1  0  0  0  0
 11 12  1  0  0  0  0
 11 13  1  0  0  0  0
 11 14  1  0  0  0  0
  9 10  1  0  0  0  0
  9 11  1  0  0  0  0
  9 24  1  0  0  0  0
  7  8  1  0  0  0  0
  7  9  1  0  0  0  0
 28 29  1  0  0  0  0
 28 30  1  0  0  0  0
 28 31  1  0  0  0  0
 26 27  1  0  0  0  0
 26 28  1  0  0  0  0
M  END
$$$$
default_name
  -OEChem-02102213163D

 31 30  0     1  0  0  0  0  0999 V2000
   -3.5895   -3.5013    1.1082 H   0  0  0  0  0  0  0  0  0  0  0  0
   -3.5145   -2.5363    0.6082 C   0  0  0  0  0  0  0  0  0  0  0  0
   -4.2285   -1.8413    1.0452 H   0  0  0  0  0  0  0  0  0  0  0  0
   -3.7155   -2.6583   -0.4538 H   0  0  0  0  0  0  0  0  0  0  0  0
   -2.1155   -1.9963    0.7922 C   0  0  0  0  0  0  0  0  0  0  0  0
   -1.2875   -2.6383    1.4252 O   0  0  0  0  0  0  0  0  0  0  0  0
   -1.8575   -0.8123    0.2402 N   0  0  0  0  0  0  0  0  0  0  0  0
   -2.6005   -0.3333   -0.2478 H   0  0  0  0  0  0  0  0  0  0  0  0
   -0.5675   -0.1203    0.3102 C   0  0  1  0  0  0  0  0  0  0  0  0
    0.0191   -0.5718    1.1110 H   0  0  0  0  0  0  0  0  0  0  0  0
    0.1724   -0.3238   -1.0286 C   0  0  0  0  0  0  0  0  0  0  0  0
    0.8368    0.5268   -1.1926 H   0  0  0  0  0  0  0  0  0  0  0  0
    0.7947   -1.2169   -0.9377 H   0  0  0  0  0  0  0  0  0  0  0  0
   -0.7232   -0.4882   -2.2702 C   0  0  0  0  0  0  0  0  0  0  0  0
   -0.9338   -1.5449   -2.4350 H   0  0  0  0  0  0  0  0  0  0  0  0
   -2.0478    0.2681   -2.1333 C   0  0  0  0  0  0  0  0  0  0  0  0
   -1.8534    1.3260   -1.9516 H   0  0  0  0  0  0  0  0  0  0  0  0
   -2.6264    0.1645   -3.0515 H   0  0  0  0  0  0  0  0  0  0  0  0
   -2.6351   -0.1318   -1.3095 H   0  0  0  0  0  0  0  0  0  0  0  0
    0.0016    0.0478   -3.5043 C   0  0  0  0  0  0  0  0  0  0  0  0
    0.9358   -0.4956   -3.6456 H   0  0  0  0  0  0  0  0  0  0  0  0
   -0.6193   -0.0927   -4.3891 H   0  0  0  0  0  0  0  0  0  0  0  0
    0.2179    1.1096   -3.3812 H   0  0  0  0  0  0  0  0  0  0  0  0
   -0.7793    1.3659    0.6455 C   0  0  0  0  0  0  0  0  0  0  0  0
   -1.6464    2.0125    0.0623 O   0  0  0  0  0  0  0  0  0  0  0  0
    0.0189    1.9059    1.5756 N   0  0  0  0  0  0  0  0  0  0  0  0
    0.7024    1.3094    2.0137 H   0  0  0  0  0  0  0  0  0  0  0  0
   -0.0451    3.3046    1.9929 C   0  0  0  0  0  0  0  0  0  0  0  0
   -1.0415    3.5286    2.3805 H   0  0  0  0  0  0  0  0  0  0  0  0
    0.6954    3.5023    2.7695 H   0  0  0  0  0  0  0  0  0  0  0  0
    0.1474    3.9536    1.1372 H   0  0  0  0  0  0  0  0  0  0  0  0
  5  6  2  0  0  0  0
  5  7  1  0  0  0  0
  2  3  1  0  0  0  0
  2  4  1  0  0  0  0
  2  5  1  0  0  0  0
  1  2  1  0  0  0  0
 24 25  2  0  0  0  0
 24 26  1  0  0  0  0
 20 21  1  0  0  0  0
 20 22  1  0  0  0  0
 20 23  1  0  0  0  0
 16 17  1  0  0  0  0
 16 18  1  0  0  0  0
 16 19  1  0  0  0  0
 14 15  1  0  0  0  0
 14 16  1  0  0  0  0
 14 20  1  0  0  0  0
 11 12  1  0  0  0  0
 11 13  1  0  0  0  0
 11 14  1  0  0  0  0
  9 10  1  0  0  0  0
  9 11  1  0  0  0  0
  9 24  1  0  0  0  0
  7  8  1  0  0  0  0
  7  9  1  0  0  0  0
 28 29  1  0  0  0  0
 28 30  1  0  0  0  0
 28 31  1  0  0  0  0
 26 27  1  0  0  0  0
 26 28  1  0  0  0  0
M  END
$$$$
default_name
  -OEChem-02102213163D

 31 30  0     1  0  0  0  0  0999 V2000
   -3.5895   -3.5013    1.1082 H   0  0  0  0  0  0  0  0  0  0  0  0
   -3.5145   -2.5363    0.6082 C   0  0  0  0  0  0  0  0  0  0  0  0
   -4.2285   -1.8413    1.0452 H   0  0  0  0  0  0  0  0  0  0  0  0
   -3.7155   -2.6583   -0.4538 H   0  0  0  0  0  0  0  0  0  0  0  0
   -2.1155   -1.9963    0.7922 C   0  0  0  0  0  0  0  0  0  0  0  0
   -1.2875   -2.6383    1.4252 O   0  0  0  0  0  0  0  0  0  0  0  0
   -1.8575   -0.8123    0.2402 N   0  0  0  0  0  0  0  0  0  0  0  0
   -2.6005   -0.3333   -0.2478 H   0  0  0  0  0  0  0  0  0  0  0  0
   -0.5675   -0.1203    0.3102 C   0  0  1  0  0  0  0  0  0  0  0  0
    0.0191   -0.5718    1.1110 H   0  0  0  0  0  0  0  0  0  0  0  0
    0.1724   -0.3238   -1.0286 C   0  0  0  0  0  0  0  0  0  0  0  0
    0.8368    0.5268   -1.1926 H   0  0  0  0  0  0  0  0  0  0  0  0
    0.7947   -1.2169   -0.9377 H   0  0  0  0  0  0  0  0  0  0  0  0
   -0.7232   -0.4882   -2.2702 C   0  0  0  0  0  0  0  0  0  0  0  0
   -1.1499   -1.4911   -2.2862 H   0  0  0  0  0  0  0  0  0  0  0  0
   -1.8601    0.5373   -2.3043 C   0  0  0  0  0  0  0  0  0  0  0  0
   -1.4492    1.5473   -2.2725 H   0  0  0  0  0  0  0  0  0  0  0  0
   -2.4368    0.4158   -3.2215 H   0  0  0  0  0  0  0  0  0  0  0  0
   -2.5281    0.3986   -1.4569 H   0  0  0  0  0  0  0  0  0  0  0  0
    0.1126   -0.3094   -3.5371 C   0  0  0  0  0  0  0  0  0  0  0  0
    0.9129   -1.0492   -3.5558 H   0  0  0  0  0  0  0  0  0  0  0  0
   -0.5136   -0.4527   -4.4177 H   0  0  0  0  0  0  0  0  0  0  0  0
    0.5465    0.6908   -3.5628 H   0  0  0  0  0  0  0  0  0  0  0  0
   -0.7793    1.3659    0.6455 C   0  0  0  0  0  0  0  0  0  0  0  0
   -1.6464    2.0125    0.0623 O   0  0  0  0  0  0  0  0  0  0  0  0
    0.0189    1.9059    1.5756 N   0  0  0  0  0  0  0  0  0  0  0  0
    0.7024    1.3094    2.0137 H   0  0  0  0  0  0  0  0  0  0  0  0
   -0.0451    3.3046    1.9929 C   0  0  0  0  0  0  0  0  0  0  0  0
   -1.0415    3.5286    2.3805 H   0  0  0  0  0  0  0  0  0  0  0  0
    0.6954    3.5023    2.7695 H   0  0  0  0  0  0  0  0  0  0  0  0
    0.1474    3.9536    1.1372 H   0  0  0  0  0  0  0  0  0  0  0  0
  5  6  2  0  0  0  0
  5  7  1  0  0  0  0
  2  3  1  0  0  0  0
  2  4  1  0  0  0  0
  2  5  1  0  0  0  0
  1  2  1  0  0  0  0
 24 25  2  0  0  0  0
 24 26  1  0  0  0  0
 20 21  1  0  0  0  0
 20 22  1  0  0  0  0
 20 23  1  0  0  0  0
 16 17  1  0  0  0  0
 16 18  1  0  0  0  0
 16 19  1  0  0  0  0
 14 15  1  0  0  0  0
 14 16  1  0  0  0  0
 14 20  1  0  0  0  0
 11 12  1  0  0  0  0
 11 13  1  0  0  0  0
 11 14  1  0  0  0  0
  9 10  1  0  0  0  0
  9 11  1  0  0  0  0
  9 24  1  0  0  0  0
  7  8  1  0  0  0  0
  7  9  1  0  0  0  0
 28 29  1  0  0  0  0
 28 30  1  0  0  0  0
 28 31  1  0  0  0  0
 26 27  1  0  0  0  0
 26 28  1  0  0  0  0
M  END
$$$$
default_name
  -OEChem-02102213163D

 31 30  0     1  0  0  0  0  0999 V2000
   -3.5895   -3.5013    1.1082 H   0  0  0  0  0  0  0  0  0  0  0  0
   -3.5145   -2.5363    0.6082 C   0  0  0  0  0  0  0  0  0  0  0  0
   -4.2285   -1.8413    1.0452 H   0  0  0  0  0  0  0  0  0  0  0  0
   -3.7155   -2.6583   -0.4538 H   0  0  0  0  0  0  0  0  0  0  0  0
   -2.1155   -1.9963    0.7922 C   0  0  0  0  0  0  0  0  0  0  0  0
   -1.2875   -2.6383    1.4252 O   0  0  0  0  0  0  0  0  0  0  0  0
   -1.8575   -0.8123    0.2402 N   0  0  0  0  0  0  0  0  0  0  0  0
   -2.6005   -0.3333   -0.2478 H   0  0  0  0  0  0  0  0  0  0  0  0
   -0.5675   -0.1203    0.3102 C   0  0  1  0  0  0  0  0  0  0  0  0
    0.0191   -0.5718    1.1110 H   0  0  0  0  0  0  0  0  0  0  0  0
    0.1724   -0.3238   -1.0286 C   0  0  0  0  0  0  0  0  0  0  0  0
    0.8368    0.5268   -1.1926 H   0  0  0  0  0  0  0  0  0  0  0  0
    0.7947   -1.2169   -0.9377 H   0  0  0  0  0  0  0  0  0  0  0  0
   -0.7232   -0.4882   -2.2702 C   0  0  0  0  0  0  0  0  0  0  0  0
   -1.3515   -1.3716   -2.1566 H   0  0  0  0  0  0  0  0  0  0  0  0
   -1.6179    0.7324   -2.5048 C   0  0  0  0  0  0  0  0  0  0  0  0
   -1.0037    1.6283   -2.6046 H   0  0  0  0  0  0  0  0  0  0  0  0
   -2.1965    0.5933   -3.4183 H   0  0  0  0  0  0  0  0  0  0  0  0
   -2.3099    0.8664   -1.6762 H   0  0  0  0  0  0  0  0  0  0  0  0
    0.1462   -0.6826   -3.5119 C   0  0  0  0  0  0  0  0  0  0  0  0
    0.7727   -1.5656   -3.3863 H   0  0  0  0  0  0  0  0  0  0  0  0
   -0.4858   -0.8268   -4.3882 H   0  0  0  0  0  0  0  0  0  0  0  0
    0.7814    0.1904   -3.6661 H   0  0  0  0  0  0  0  0  0  0  0  0
   -0.7793    1.3659    0.6455 C   0  0  0  0  0  0  0  0  0  0  0  0
   -1.6464    2.0125    0.0623 O   0  0  0  0  0  0  0  0  0  0  0  0
    0.0189    1.9059    1.5756 N   0  0  0  0  0  0  0  0  0  0  0  0
    0.7024    1.3094    2.0137 H   0  0  0  0  0  0  0  0  0  0  0  0
   -0.0451    3.3046    1.9929 C   0  0  0  0  0  0  0  0  0  0  0  0
   -1.0415    3.5286    2.3805 H   0  0  0  0  0  0  0  0  0  0  0  0
    0.6954    3.5023    2.7695 H   0  0  0  0  0  0  0  0  0  0  0  0
    0.1474    3.9536    1.1372 H   0  0  0  0  0  0  0  0  0  0  0  0
  5  6  2  0  0  0  0
  5  7  1  0  0  0  0
  2  3  1  0  0  0  0
  2  4  1  0  0  0  0
  2  5  1  0  0  0  0
  1  2  1  0  0  0  0
 24 25  2  0  0  0  0
 24 26  1  0  0  0  0
 20 21  1  0  0  0  0
 20 22  1  0  0  0  0
 20 23  1  0  0  0  0
 16 17  1  0  0  0  0
 16 18  1  0  0  0  0
 16 19  1  0  0  0  0
 14 15  1  0  0  0  0
 14 16  1  0  0  0  0
 14 20  1  0  0  0  0
 11 12  1  0  0  0  0
 11 13  1  0  0  0  0
 11 14  1  0  0  0  0
  9 10  1  0  0  0  0
  9 11  1  0  0  0  0
  9 24  1  0  0  0  0
  7  8  1  0  0  0  0
  7  9  1  0  0  0  0
 28 29  1  0  0  0  0
 28 30  1  0  0  0  0
 28 31  1  0  0  0  0
 26 27  1  0  0  0  0
 26 28  1  0  0  0  0
M  END
$$$$
default_name
  -OEChem-02102213163D

 31 30  0     1  0  0  0  0  0999 V2000
   -3.5895   -3.5013    1.1082 H   0  0  0  0  0  0  0  0  0  0  0  0
   -3.5145   -2.5363    0.6082 C   0  0  0  0  0  0  0  0  0  0  0  0
   -4.2285   -1.8413    1.0452 H   0  0  0  0  0  0  0  0  0  0  0  0
   -3.7155   -2.6583   -0.4538 H   0  0  0  0  0  0  0  0  0  0  0  0
   -2.1155   -1.9963    0.7922 C   0  0  0  0  0  0  0  0  0  0  0  0
   -1.2875   -2.6383    1.4252 O   0  0  0  0  0  0  0  0  0  0  0  0
   -1.8575   -0.8123    0.2402 N   0  0  0  0  0  0  0  0  0  0  0  0
   -2.6005   -0.3333   -0.2478 H   0  0  0  0  0  0  0  0  0  0  0  0
   -0.5675   -0.1203    0.3102 C   0  0  1  0  0  0  0  0  0  0  0  0
    0.0191   -0.5718    1.1110 H   0  0  0  0  0  0  0  0  0  0  0  0
    0.1724   -0.3238   -1.0286 C   0  0  0  0  0  0  0  0  0  0  0  0
    0.8368    0.5268   -1.1926 H   0  0  0  0  0  0  0  0  0  0  0  0
    0.7947   -1.2169   -0.9377 H   0  0  0  0  0  0  0  0  0  0  0  0
   -0.7232   -0.4882   -2.2702 C   0  0  0  0  0  0  0  0  0  0  0  0
   -1.5250   -1.1946   -2.0550 H   0  0  0  0  0  0  0  0  0  0  0  0
   -1.3377    0.8401   -2.7212 C   0  0  0  0  0  0  0  0  0  0  0  0
   -0.5472    1.5636   -2.9253 H   0  0  0  0  0  0  0  0  0  0  0  0
   -1.9219    0.6850   -3.6286 H   0  0  0  0  0  0  0  0  0  0  0  0
   -1.9955    1.2398   -1.9525 H   0  0  0  0  0  0  0  0  0  0  0  0
    0.1001   -1.0462   -3.4305 C   0  0  0  0  0  0  0  0  0  0  0  0
    0.5248   -2.0096   -3.1487 H   0  0  0  0  0  0  0  0  0  0  0  0
   -0.5379   -1.1895   -4.3026 H   0  0  0  0  0  0  0  0  0  0  0  0
    0.9068   -0.3576   -3.6840 H   0  0  0  0  0  0  0  0  0  0  0  0
   -0.7793    1.3659    0.6455 C   0  0  0  0  0  0  0  0  0  0  0  0
   -1.6464    2.0125    0.0623 O   0  0  0  0  0  0  0  0  0  0  0  0
    0.0189    1.9059    1.5756 N   0  0  0  0  0  0  0  0  0  0  0  0
    0.7024    1.3094    2.0137 H   0  0  0  0  0  0  0  0  0  0  0  0
   -0.0451    3.3046    1.9929 C   0  0  0  0  0  0  0  0  0  0  0  0
   -1.0415    3.5286    2.3805 H   0  0  0  0  0  0  0  0  0  0  0  0
    0.6954    3.5023    2.7695 H   0  0  0  0  0  0  0  0  0  0  0  0
    0.1474    3.9536    1.1372 H   0  0  0  0  0  0  0  0  0  0  0  0
  5  6  2  0  0  0  0
  5  7  1  0  0  0  0
  2  3  1  0  0  0  0
  2  4  1  0  0  0  0
  2  5  1  0  0  0  0
  1  2  1  0  0  0  0
 24 25  2  0  0  0  0
 24 26  1  0  0  0  0
 20 21  1  0  0  0  0
 20 22  1  0  0  0  0
 20 23  1  0  0  0  0
 16 17  1  0  0  0  0
 16 18  1  0  0  0  0
 16 19  1  0  0  0  0
 14 15  1  0  0  0  0
 14 16  1  0  0  0  0
 14 20  1  0  0  0  0
 11 12  1  0  0  0  0
 11 13  1  0  0  0  0
 11 14  1  0  0  0  0
  9 10  1  0  0  0  0
  9 11  1  0  0  0  0
  9 24  1  0  0  0  0
  7  8  1  0  0  0  0
  7  9  1  0  0  0  0
 28 29  1  0  0  0  0
 28 30  1  0  0  0  0
 28 31  1  0  0  0  0
 26 27  1  0  0  0  0
 26 28  1  0  0  0  0
M  END
$$$$
default_name
  -OEChem-02102213163D

 31 30  0     1  0  0  0  0  0999 V2000
   -3.5895   -3.5013    1.1082 H   0  0  0  0  0  0  0  0  0  0  0  0
   -3.5145   -2.5363    0.6082 C   0  0  0  0  0  0  0  0  0  0  0  0
   -4.2285   -1.8413    1.0452 H   0  0  0  0  0  0  0  0  0  0  0  0
   -3.7155   -2.6583   -0.4538 H   0  0  0  0  0  0  0  0  0  0  0  0
   -2.1155   -1.9963    0.7922 C   0  0  0  0  0  0  0  0  0  0  0  0
   -1.2875   -2.6383    1.4252 O   0  0  0  0  0  0  0  0  0  0  0  0
   -1.8575   -0.8123    0.2402 N   0  0  0  0  0  0  0  0  0  0  0  0
   -2.6005   -0.3333   -0.2478 H   0  0  0  0  0  0  0  0  0  0  0  0
   -0.5675   -0.1203    0.3102 C   0  0  1  0  0  0  0  0  0  0  0  0
    0.0191   -0.5718    1.1110 H   0  0  0  0  0  0  0  0  0  0  0  0
    0.1724   -0.3238   -1.0286 C   0  0  0  0  0  0  0  0  0  0  0  0
    0.8368    0.5268   -1.1926 H   0  0  0  0  0  0  0  0  0  0  0  0
    0.7947   -1.2169   -0.9377 H   0  0  0  0  0  0  0  0  0  0  0  0
   -0.7232   -0.4882   -2.2702 C   0  0  0  0  0  0  0  0  0  0  0  0
   -1.6583   -0.9721   -1.9882 H   0  0  0  0  0  0  0  0  0  0  0  0
   -1.0386    0.8531   -2.9387 C   0  0  0  0  0  0  0  0  0  0  0  0
   -0.1110    1.3576   -3.2127 H   0  0  0  0  0  0  0  0  0  0  0  0
   -1.6318    0.6847   -3.8378 H   0  0  0  0  0  0  0  0  0  0  0  0
   -1.6062    1.4932   -2.2668 H   0  0  0  0  0  0  0  0  0  0  0  0
   -0.0226   -1.3756   -3.2984 C   0  0  0  0  0  0  0  0  0  0  0  0
    0.1861   -2.3511   -2.8592 H   0  0  0  0  0  0  0  0  0  0  0  0
   -0.6663   -1.5161   -4.1668 H   0  0  0  0  0  0  0  0  0  0  0  0
    0.9141   -0.9157   -3.6153 H   0  0  0  0  0  0  0  0  0  0  0  0
   -0.7793    1.3659    0.6455 C   0  0  0  0  0  0  0  0  0  0  0  0
   -1.6464    2.0125    0.0623 O   0  0  0  0  0  0  0  0  0  0  0  0
    0.0189    1.9059    1.5756 N   0  0  0  0  0  0  0  0  0  0  0  0
    0.7024    1.3094    2.0137 H   0  0  0  0  0  0  0  0  0  0  0  0
   -0.0451    3.3046    1.9929 C   0  0  0  0  0  0  0  0  0  0  0  0
   -1.0415    3.5286    2.3805 H   0  0  0  0  0  0  0  0  0  0  0  0
    0.6954    3.5023    2.7695 H   0  0  0  0  0  0  0  0  0  0  0  0
    0.1474    3.9536    1.1372 H   0  0  0  0  0  0  0  0  0  0  0  0
  5  6  2  0  0  0  0
  5  7  1  0  0  0  0
  2  3  1  0  0  0  0
  2  4  1  0  0  0  0
  2  5  1  0  0  0  0
  1  2  1  0  0  0  0
 24 25  2  0  0  0  0
 24 26  1  0  0  0  0
 20 21  1  0  0  0  0
 20 22  1  0  0  0  0
 20 23  1  0  0  0  0
 16 17  1  0  0  0  0
 16 18  1  0  0  0  0
 16 19  1  0  0  0  0
 14 15  1  0  0  0  0
 14 16  1  0  0  0  0
 14 20  1  0  0  0  0
 11 12  1  0  0  0  0
 11 13  1  0  0  0  0
 11 14  1  0  0  0  0
  9 10  1  0  0  0  0
  9 11  1  0  0  0  0
  9 24  1  0  0  0  0
  7  8  1  0  0  0  0
  7  9  1  0  0  0  0
 28 29  1  0  0  0  0
 28 30  1  0  0  0  0
 28 31  1  0  0  0  0
 26 27  1  0  0  0  0
 26 28  1  0  0  0  0
M  END
$$$$
default_name
  -OEChem-02102213163D

 31 30  0     1  0  0  0  0  0999 V2000
   -3.5895   -3.5013    1.1082 H   0  0  0  0  0  0  0  0  0  0  0  0
   -3.5145   -2.5363    0.6082 C   0  0  0  0  0  0  0  0  0  0  0  0
   -4.2285   -1.8413    1.0452 H   0  0  0  0  0  0  0  0  0  0  0  0
   -3.7155   -2.6583   -0.4538 H   0  0  0  0  0  0  0  0  0  0  0  0
   -2.1155   -1.9963    0.7922 C   0  0  0  0  0  0  0  0  0  0  0  0
   -1.2875   -2.6383    1.4252 O   0  0  0  0  0  0  0  0  0  0  0  0
   -1.8575   -0.8123    0.2402 N   0  0  0  0  0  0  0  0  0  0  0  0
   -2.6005   -0.3333   -0.2478 H   0  0  0  0  0  0  0  0  0  0  0  0
   -0.5675   -0.1203    0.3102 C   0  0  1  0  0  0  0  0  0  0  0  0
    0.0191   -0.5718    1.1110 H   0  0  0  0  0  0  0  0  0  0  0  0
    0.1724   -0.3238   -1.0286 C   0  0  0  0  0  0  0  0  0  0  0  0
    0.8368    0.5268   -1.1926 H   0  0  0  0  0  0  0  0  0  0  0  0
    0.7947   -1.2169   -0.9377 H   0  0  0  0  0  0  0  0  0  0  0  0
   -0.7232   -0.4882   -2.2702 C   0  0  0  0  0  0  0  0  0  0  0  0
   -1.7426   -0.7194   -1.9609 H   0  0  0  0  0  0  0  0  0  0  0  0
   -0.7409    0.7704   -3.1425 C   0  0  0  0  0  0  0  0  0  0  0  0
    0.2753    1.0243   -3.4472 H   0  0  0  0  0  0  0  0  0  0  0  0
   -1.3458    0.5923   -4.0319 H   0  0  0  0  0  0  0  0  0  0  0  0
   -1.1686    1.6094   -2.5978 H   0  0  0  0  0  0  0  0  0  0  0  0
   -0.2135   -1.6482   -3.1246 C   0  0  0  0  0  0  0  0  0  0  0  0
   -0.2203   -2.5666   -2.5376 H   0  0  0  0  0  0  0  0  0  0  0  0
   -0.8622   -1.7843   -3.9899 H   0  0  0  0  0  0  0  0  0  0  0  0
    0.8027   -1.4460   -3.4648 H   0  0  0  0  0  0  0  0  0  0  0  0
   -0.7793    1.3659    0.6455 C   0  0  0  0  0  0  0  0  0  0  0  0
   -1.6464    2.0125    0.0623 O   0  0  0  0  0  0  0  0  0  0  0  0
    0.0189    1.9059    1.5756 N   0  0  0  0  0  0  0  0  0  0  0  0
    0.7024    1.3094    2.0137 H   0  0  0  0  0  0  0  0  0  0  0  0
   -0.0451    3.3046    1.9929 C   0  0  0  0  0  0  0  0  0  0  0  0
   -1.0415    3.5286    2.3805 H   0  0  0  0  0  0  0  0  0  0  0  0
    0.6954    3.5023    2.7695 H   0  0  0  0  0  0  0  0  0  0  0  0
    0.1474    3.9536    1.1372 H   0  0  0  0  0  0  0  0  0  0  0  0
  5  6  2  0  0  0  0
  5  7  1  0  0  0  0
  2  3  1  0  0  0  0
  2  4  1  0  0  0  0
  2  5  1  0  0  0  0
  1  2  1  0  0  0  0
 24 25  2  0  0  0  0
 24 26  1  0  0  0  0
 20 21  1  0  0  0  0
 20 22  1  0  0  0  0
 20 23  1  0  0  0  0
 16 17  1  0  0  0  0
 16 18  1  0  0  0  0
 16 19  1  0  0  0  0
 14 15  1  0  0  0  0
 14 16  1  0  0  0  0
 14 20  1  0  0  0  0
 11 12  1  0  0  0  0
 11 13  1  0  0  0  0
 11 14  1  0  0  0  0
  9 10  1  0  0  0  0
  9 11  1  0  0  0  0
  9 24  1  0  0  0  0
  7  8  1  0  0  0  0
  7  9  1  0  0  0  0
 28 29  1  0  0  0  0
 28 30  1  0  0  0  0
 28 31  1  0  0  0  0
 26 27  1  0  0  0  0
 26 28  1  0  0  0  0
M  END
$$$$
default_name
  -OEChem-02102213163D

 31 30  0     1  0  0  0  0  0999 V2000
   -3.5895   -3.5013    1.1082 H   0  0  0  0  0  0  0  0  0  0  0  0
   -3.5145   -2.5363    0.6082 C   0  0  0  0  0  0  0  0  0  0  0  0
   -4.2285   -1.8413    1.0452 H   0  0  0  0  0  0  0  0  0  0  0  0
   -3.7155   -2.6583   -0.4538 H   0  0  0  0  0  0  0  0  0  0  0  0
   -2.1155   -1.9963    0.7922 C   0  0  0  0  0  0  0  0  0  0  0  0
   -1.2875   -2.6383    1.4252 O   0  0  0  0  0  0  0  0  0  0  0  0
   -1.8575   -0.8123    0.2402 N   0  0  0  0  0  0  0  0  0  0  0  0
   -2.6005   -0.3333   -0.2478 H   0  0  0  0  0  0  0  0  0  0  0  0
   -0.5675   -0.1203    0.3102 C   0  0  1  0  0  0  0  0  0  0  0  0
    0.0191   -0.5718    1.1110 H   0  0  0  0  0  0  0  0  0  0  0  0
    0.1724   -0.3238   -1.0286 C   0  0  0  0  0  0  0  0  0  0  0  0
    0.8368    0.5268   -1.1926 H   0  0  0  0  0  0  0  0  0  0  0  0
    0.7947   -1.2169   -0.9377 H   0  0  0  0  0  0  0  0  0  0  0  0
   -0.7232   -0.4882   -2.2702 C   0  0  0  0  0  0  0  0  0  0  0  0
   -1.7719   -0.4535   -1.9749 H   0  0  0  0  0  0  0  0  0  0  0  0
   -0.4650    0.5978   -3.3187 C   0  0  0  0  0  0  0  0  0  0  0  0
    0.5854    0.5864   -3.6129 H   0  0  0  0  0  0  0  0  0  0  0  0
   -1.0834    0.4141   -4.1976 H   0  0  0  0  0  0  0  0  0  0  0  0
   -0.7125    1.5804   -2.9230 H   0  0  0  0  0  0  0  0  0  0  0  0
   -0.4596   -1.8456   -2.9209 C   0  0  0  0  0  0  0  0  0  0  0  0
   -0.6667   -2.6415   -2.2056 H   0  0  0  0  0  0  0  0  0  0  0  0
   -1.1123   -1.9759   -3.7842 H   0  0  0  0  0  0  0  0  0  0  0  0
    0.5803   -1.9123   -3.2426 H   0  0  0  0  0  0  0  0  0  0  0  0
   -0.7793    1.3659    0.6455 C   0  0  0  0  0  0  0  0  0  0  0  0
   -1.6464    2.0125    0.0623 O   0  0  0  0  0  0  0  0  0  0  0  0
    0.0189    1.9059    1.5756 N   0  0  0  0  0  0  0  0  0  0  0  0
    0.7024    1.3094    2.0137 H   0  0  0  0  0  0  0  0  0  0  0  0
   -0.0451    3.3046    1.9929 C   0  0  0  0  0  0  0  0  0  0  0  0
   -1.0415    3.5286    2.3805 H   0  0  0  0  0  0  0  0  0  0  0  0
    0.6954    3.5023    2.7695 H   0  0  0  0  0  0  0  0  0  0  0  0
    0.1474    3.9536    1.1372 H   0  0  0  0  0  0  0  0  0  0  0  0
  5  6  2  0  0  0  0
  5  7  1  0  0  0  0
  2  3  1  0  0  0  0
  2  4  1  0  0  0  0
  2  5  1  0  0  0  0
  1  2  1  0  0  0  0
 24 25  2  0  0  0  0
 24 26  1  0  0  0  0
 20 21  1  0  0  0  0
 20 22  1  0  0  0  0
 20 23  1  0  0  0  0
 16 17  1  0  0  0  0
 16 18  1  0  0  0  0
 16 19  1  0  0  0  0
 14 15  1  0  0  0  0
 14 16  1  0  0  0  0
 14 20  1  0  0  0  0
 11 12  1  0  0  0  0
 11 13  1  0  0  0  0
 11 14  1  0  0  0  0
  9 10  1  0  0  0  0
  9 11  1  0  0  0  0
  9 24  1  0  0  0  0
  7  8  1  0  0  0  0
  7  9  1  0  0  0  0
 28 29  1  0  0  0  0
 28 30  1  0  0  0  0
 28 31  1  0  0  0  0
 26 27  1  0  0  0  0
 26 28  1  0  0  0  0
M  END
$$$$
default_name
  -OEChem-02102213163D

 31 30  0     1  0  0  0  0  0999 V2000
   -3.5895   -3.5013    1.1082 H   0  0  0  0  0  0  0  0  0  0  0  0
   -3.5145   -2.5363    0.6082 C   0  0  0  0  0  0  0  0  0  0  0  0
   -4.2285   -1.8413    1.0452 H   0  0  0  0  0  0  0  0  0  0  0  0
   -3.7155   -2.6583   -0.4538 H   0  0  0  0  0  0  0  0  0  0  0  0
   -2.1155   -1.9963    0.7922 C   0  0  0  0  0  0  0  0  0  0  0  0
   -1.2875   -2.6383    1.4252 O   0  0  0  0  0  0  0  0  0  0  0  0
   -1.8575   -0.8123    0.2402 N   0  0  0  0  0  0  0  0  0  0  0  0
   -2.6005   -0.3333   -0.2478 H   0  0  0  0  0  0  0  0  0  0  0  0
   -0.5675   -0.1203    0.3102 C   0  0  1  0  0  0  0  0  0  0  0  0
    0.0191   -0.5718    1.1110 H   0  0  0  0  0  0  0  0  0  0  0  0
    0.1724   -0.3238   -1.0286 C   0  0  0  0  0  0  0  0  0  0  0  0
    0.8368    0.5268   -1.1926 H   0  0  0  0  0  0  0  0  0  0  0  0
    0.7947   -1.2169   -0.9377 H   0  0  0  0  0  0  0  0  0  0  0  0
   -0.7232   -0.4882   -2.2702 C   0  0  0  0  0  0  0  0  0  0  0  0
   -1.7444   -0.1927   -2.0293 H   0  0  0  0  0  0  0  0  0  0  0  0
   -0.2297    0.3470   -3.4552 C   0  0  0  0  0  0  0  0  0  0  0  0
    0.7981    0.0738   -3.6985 H   0  0  0  0  0  0  0  0  0  0  0  0
   -0.8626    0.1623   -4.3235 H   0  0  0  0  0  0  0  0  0  0  0  0
   -0.2691    1.4084   -3.2201 H   0  0  0  0  0  0  0  0  0  0  0  0
   -0.7442   -1.9542   -2.7013 C   0  0  0  0  0  0  0  0  0  0  0  0
   -1.1227   -2.5707   -1.8861 H   0  0  0  0  0  0  0  0  0  0  0  0
   -1.3995   -2.0778   -3.5635 H   0  0  0  0  0  0  0  0  0  0  0  0
    0.2620   -2.2829   -2.9640 H   0  0  0  0  0  0  0  0  0  0  0  0
   -0.7793    1.3659    0.6455 C   0  0  0  0  0  0  0  0  0  0  0  0
   -1.6464    2.0125    0.0623 O   0  0  0  0  0  0  0  0  0  0  0  0
    0.0189    1.9059    1.5756 N   0  0  0  0  0  0  0  0  0  0  0  0
    0.7024    1.3094    2.0137 H   0  0  0  0  0  0  0  0  0  0  0  0
   -0.0451    3.3046    1.9929 C   0  0  0  0  0  0  0  0  0  0  0  0
   -1.0415    3.5286    2.3805 H   0  0  0  0  0  0  0  0  0  0  0  0
    0.6954    3.5023    2.7695 H   0  0  0  0  0  0  0  0  0  0  0  0
    0.1474    3.9536    1.1372 H   0  0  0  0  0  0  0  0  0  0  0  0
  5  6  2  0  0  0  0
  5  7  1  0  0  0  0
  2  3  1  0  0  0  0
  2  4  1  0  0  0  0
  2  5  1  0  0  0  0
  1  2  1  0  0  0  0
 24 25  2  0  0  0  0
 24 26  1  0  0  0  0
 20 21  1  0  0  0  0
 20 22  1  0  0  0  0
 20 23  1  0  0  0  0
 16 17  1  0  0  0  0
 16 18  1  0  0  0  0
 16 19  1  0  0  0  0
 14 15  1  0  0  0  0
 14 16  1  0  0  0  0
 14 20  1  0  0  0  0
 11 12  1  0  0  0  0
 11 13  1  0  0  0  0
 11 14  1  0  0  0  0
  9 10  1  0  0  0  0
  9 11  1  0  0  0  0
  9 24  1  0  0  0  0
  7  8  1  0  0  0  0
  7  9  1  0  0  0  0
 28 29  1  0  0  0  0
 28 30  1  0  0  0  0
 28 31  1  0  0  0  0
 26 27  1  0  0  0  0
 26 28  1  0  0  0  0
M  END
$$$$
default_name
  -OEChem-02102213163D

 31 30  0     1  0  0  0  0  0999 V2000
   -3.5895   -3.5013    1.1082 H   0  0  0  0  0  0  0  0  0  0  0  0
   -3.5145   -2.5363    0.6082 C   0  0  0  0  0  0  0  0  0  0  0  0
   -4.2285   -1.8413    1.0452 H   0  0  0  0  0  0  0  0  0  0  0  0
   -3.7155   -2.6583   -0.4538 H   0  0  0  0  0  0  0  0  0  0  0  0
   -2.1155   -1.9963    0.7922 C   0  0  0  0  0  0  0  0  0  0  0  0
   -1.2875   -2.6383    1.4252 O   0  0  0  0  0  0  0  0  0  0  0  0
   -1.8575   -0.8123    0.2402 N   0  0  0  0  0  0  0  0  0  0  0  0
   -2.6005   -0.3333   -0.2478 H   0  0  0  0  0  0  0  0  0  0  0  0
   -0.5675   -0.1203    0.3102 C   0  0  1  0  0  0  0  0  0  0  0  0
    0.0191   -0.5718    1.1110 H   0  0  0  0  0  0  0  0  0  0  0  0
    0.1724   -0.3238   -1.0286 C   0  0  0  0  0  0  0  0  0  0  0  0
    0.8368    0.5268   -1.1926 H   0  0  0  0  0  0  0  0  0  0  0  0
    0.7947   -1.2169   -0.9377 H   0  0  0  0  0  0  0  0  0  0  0  0
   -0.7232   -0.4882   -2.2702 C   0  0  0  0  0  0  0  0  0  0  0  0
   -1.6619    0.0453   -2.1203 H   0  0  0  0  0  0  0  0  0  0  0  0
   -0.0509    0.0350   -3.5429 C   0  0  0  0  0  0  0  0  0  0  0  0
    0.8989   -0.4786   -3.6981 H   0  0  0  0  0  0  0  0  0  0  0  0
   -0.6984   -0.1459   -4.4011 H   0  0  0  0  0  0  0  0  0  0  0  0
    0.1316    1.1049   -3.4689 H   0  0  0  0  0  0  0  0  0  0  0  0
   -1.0478   -1.9666   -2.4807 C   0  0  0  0  0  0  0  0  0  0  0  0
   -1.5572   -2.3591   -1.6007 H   0  0  0  0  0  0  0  0  0  0  0  0
   -1.7043   -2.0830   -3.3429 H   0  0  0  0  0  0  0  0  0  0  0  0
   -0.1305   -2.5324   -2.6478 H   0  0  0  0  0  0  0  0  0  0  0  0
   -0.7793    1.3659    0.6455 C   0  0  0  0  0  0  0  0  0  0  0  0
   -1.6464    2.0125    0.0623 O   0  0  0  0  0  0  0  0  0  0  0  0
    0.0189    1.9059    1.5756 N   0  0  0  0  0  0  0  0  0  0  0  0
    0.7024    1.3094    2.0137 H   0  0  0  0  0  0  0  0  0  0  0  0
   -0.0451    3.3046    1.9929 C   0  0  0  0  0  0  0  0  0  0  0  0
   -1.0415    3.5286    2.3805 H   0  0  0  0  0  0  0  0  0  0  0  0
    0.6954    3.5023    2.7695 H   0  0  0  0  0  0  0  0  0  0  0  0
    0.1474    3.9536    1.1372 H   0  0  0  0  0  0  0  0  0  0  0  0
  5  6  2  0  0  0  0
  5  7  1  0  0  0  0
  2  3  1  0  0  0  0
  2  4  1  0  0  0  0
  2  5  1  0  0  0  0
  1  2  1  0  0  0  0
 24 25  2  0  0  0  0
 24 26  1  0  0  0  0
 20 21  1  0  0  0  0
 20 22  1  0  0  0  0
 20 23  1  0  0  0  0
 16 17  1  0  0  0  0
 16 18  1  0  0  0  0
 16 19  1  0  0  0  0
 14 15  1  0  0  0  0
 14 16  1  0  0  0  0
 14 20  1  0  0  0  0
 11 12  1  0  0  0  0
 11 13  1  0  0  0  0
 11 14  1  0  0  0  0
  9 10  1  0  0  0  0
  9 11  1  0  0  0  0
  9 24  1  0  0  0  0
  7  8  1  0  0  0  0
  7  9  1  0  0  0  0
 28 29  1  0  0  0  0
 28 30  1  0  0  0  0
 28 31  1  0  0  0  0
 26 27  1  0  0  0  0
 26 28  1  0  0  0  0
M  END
$$$$
default_name
  -OEChem-02102213163D

 31 30  0     1  0  0  0  0  0999 V2000
   -3.5895   -3.5013    1.1082 H   0  0  0  0  0  0  0  0  0  0  0  0
   -3.5145   -2.5363    0.6082 C   0  0  0  0  0  0  0  0  0  0  0  0
   -4.2285   -1.8413    1.0452 H   0  0  0  0  0  0  0  0  0  0  0  0
   -3.7155   -2.6583   -0.4538 H   0  0  0  0  0  0  0  0  0  0  0  0
   -2.1155   -1.9963    0.7922 C   0  0  0  0  0  0  0  0  0  0  0  0
   -1.2875   -2.6383    1.4252 O   0  0  0  0  0  0  0  0  0  0  0  0
   -1.8575   -0.8123    0.2402 N   0  0  0  0  0  0  0  0  0  0  0  0
   -2.6005   -0.3333   -0.2478 H   0  0  0  0  0  0  0  0  0  0  0  0
   -0.5675   -0.1203    0.3102 C   0  0  1  0  0  0  0  0  0  0  0  0
    0.0191   -0.5718    1.1110 H   0  0  0  0  0  0  0  0  0  0  0  0
    0.1724   -0.3238   -1.0286 C   0  0  0  0  0  0  0  0  0  0  0  0
    0.8368    0.5268   -1.1926 H   0  0  0  0  0  0  0  0  0  0  0  0
    0.7947   -1.2169   -0.9377 H   0  0  0  0  0  0  0  0  0  0  0  0
   -0.7232   -0.4882   -2.2702 C   0  0  0  0  0  0  0  0  0  0  0  0
   -1.5300    0.2442   -2.2418 H   0  0  0  0  0  0  0  0  0  0  0  0
    0.0590   -0.3169   -3.5756 C   0  0  0  0  0  0  0  0  0  0  0  0
    0.8809   -1.0332   -3.6117 H   0  0  0  0  0  0  0  0  0  0  0  0
   -0.6020   -0.4896   -4.4252 H   0  0  0  0  0  0  0  0  0  0  0  0
    0.4621    0.6906   -3.6525 H   0  0  0  0  0  0  0  0  0  0  0  0
   -1.3497   -1.8821   -2.2741 C   0  0  0  0  0  0  0  0  0  0  0  0
   -1.9406   -2.0210   -1.3688 H   0  0  0  0  0  0  0  0  0  0  0  0
   -2.0059   -1.9912   -3.1375 H   0  0  0  0  0  0  0  0  0  0  0  0
   -0.5705   -2.6440   -2.3157 H   0  0  0  0  0  0  0  0  0  0  0  0
   -0.7793    1.3659    0.6455 C   0  0  0  0  0  0  0  0  0  0  0  0
   -1.6464    2.0125    0.0623 O   0  0  0  0  0  0  0  0  0  0  0  0
    0.0189    1.9059    1.5756 N   0  0  0  0  0  0  0  0  0  0  0  0
    0.7024    1.3094    2.0137 H   0  0  0  0  0  0  0  0  0  0  0  0
   -0.0451    3.3046    1.9929 C   0  0  0  0  0  0  0  0  0  0  0  0
   -1.0415    3.5286    2.3805 H   0  0  0  0  0  0  0  0  0  0  0  0
    0.6954    3.5023    2.7695 H   0  0  0  0  0  0  0  0  0  0  0  0
    0.1474    3.9536    1.1372 H   0  0  0  0  0  0  0  0  0  0  0  0
  5  6  2  0  0  0  0
  5  7  1  0  0  0  0
  2  3  1  0  0  0  0
  2  4  1  0  0  0  0
  2  5  1  0  0  0  0
  1  2  1  0  0  0  0
 24 25  2  0  0  0  0
 24 26  1  0  0  0  0
 20 21  1  0  0  0  0
 20 22  1  0  0  0  0
 20 23  1  0  0  0  0
 16 17  1  0  0  0  0
 16 18  1  0  0  0  0
 16 19  1  0  0  0  0
 14 15  1  0  0  0  0
 14 16  1  0  0  0  0
 14 20  1  0  0  0  0
 11 12  1  0  0  0  0
 11 13  1  0  0  0  0
 11 14  1  0  0  0  0
  9 10  1  0  0  0  0
  9 11  1  0  0  0  0
  9 24  1  0  0  0  0
  7  8  1  0  0  0  0
  7  9  1  0  0  0  0
 28 29  1  0  0  0  0
 28 30  1  0  0  0  0
 28 31  1  0  0  0  0
 26 27  1  0  0  0  0
 26 28  1  0  0  0  0
M  END
$$$$
default_name
  -OEChem-02102213163D

 31 30  0     1  0  0  0  0  0999 V2000
   -3.5895   -3.5013    1.1082 H   0  0  0  0  0  0  0  0  0  0  0  0
   -3.5145   -2.5363    0.6082 C   0  0  0  0  0  0  0  0  0  0  0  0
   -4.2285   -1.8413    1.0452 H   0  0  0  0  0  0  0  0  0  0  0  0
   -3.7155   -2.6583   -0.4538 H   0  0  0  0  0  0  0  0  0  0  0  0
   -2.1155   -1.9963    0.7922 C   0  0  0  0  0  0  0  0  0  0  0  0
   -1.2875   -2.6383    1.4252 O   0  0  0  0  0  0  0  0  0  0  0  0
   -1.8575   -0.8123    0.2402 N   0  0  0  0  0  0  0  0  0  0  0  0
   -2.6005   -0.3333   -0.2478 H   0  0  0  0  0  0  0  0  0  0  0  0
   -0.5675   -0.1203    0.3102 C   0  0  1  0  0  0  0  0  0  0  0  0
    0.0191   -0.5718    1.1110 H   0  0  0  0  0  0  0  0  0  0  0  0
    0.1724   -0.3238   -1.0286 C   0  0  0  0  0  0  0  0  0  0  0  0
    1.0165    0.3674   -1.0690 H   0  0  0  0  0  0  0  0  0  0  0  0
    0.5753   -1.3390   -1.0404 H   0  0  0  0  0  0  0  0  0  0  0  0
   -0.6763   -0.1304   -2.2987 C   0  0  0  0  0  0  0  0  0  0  0  0
   -1.0932    0.8767   -2.3131 H   0  0  0  0  0  0  0  0  0  0  0  0
    0.1364   -0.3513   -3.5777 C   0  0  0  0  0  0  0  0  0  0  0  0
    0.5740   -1.3505   -3.5707 H   0  0  0  0  0  0  0  0  0  0  0  0
   -0.5136   -0.2528   -4.4474 H   0  0  0  0  0  0  0  0  0  0  0  0
    0.9332    0.3850   -3.6586 H   0  0  0  0  0  0  0  0  0  0  0  0
   -1.8380   -1.1233   -2.2995 C   0  0  0  0  0  0  0  0  0  0  0  0
   -2.4540   -0.9677   -1.4139 H   0  0  0  0  0  0  0  0  0  0  0  0
   -2.4562   -0.9699   -3.1840 H   0  0  0  0  0  0  0  0  0  0  0  0
   -1.4584   -2.1457   -2.2987 H   0  0  0  0  0  0  0  0  0  0  0  0
   -0.7793    1.3659    0.6455 C   0  0  0  0  0  0  0  0  0  0  0  0
   -1.6464    2.0125    0.0623 O   0  0  0  0  0  0  0  0  0  0  0  0
    0.0189    1.9059    1.5756 N   0  0  0  0  0  0  0  0  0  0  0  0
    0.7024    1.3094    2.0137 H   0  0  0  0  0  0  0  0  0  0  0  0
   -0.0451    3.3046    1.9929 C   0  0  0  0  0  0  0  0  0  0  0  0
   -1.0415    3.5286    2.3805 H   0  0  0  0  0  0  0  0  0  0  0  0
    0.6954    3.5023    2.7695 H   0  0  0  0  0  0  0  0  0  0  0  0
    0.1474    3.9536    1.1372 H   0  0  0  0  0  0  0  0  0  0  0  0
  5  6  2  0  0  0  0
  5  7  1  0  0  0  0
  2  3  1  0  0  0  0
  2  4  1  0  0  0  0
  2  5  1  0  0  0  0
  1  2  1  0  0  0  0
 24 25  2  0  0  0  0
 24 26  1  0  0  0  0
 20 21  1  0  0  0  0
 20 22  1  0  0  0  0
 20 23  1  0  0  0  0
 16 17  1  0  0  0  0
 16 18  1  0  0  0  0
 16 19  1  0  0  0  0
 14 15  1  0  0  0  0
 14 16  1  0  0  0  0
 14 20  1  0  0  0  0
 11 12  1  0  0  0  0
 11 13  1  0  0  0  0
 11 14  1  0  0  0  0
  9 10  1  0  0  0  0
  9 11  1  0  0  0  0
  9 24  1  0  0  0  0
  7  8  1  0  0  0  0
  7  9  1  0  0  0  0
 28 29  1  0  0  0  0
 28 30  1  0  0  0  0
 28 31  1  0  0  0  0
 26 27  1  0  0  0  0
 26 28  1  0  0  0  0
M  END
$$$$
default_name
  -OEChem-02102213163D

 31 30  0     1  0  0  0  0  0999 V2000
   -3.5895   -3.5013    1.1082 H   0  0  0  0  0  0  0  0  0  0  0  0
   -3.5145   -2.5363    0.6082 C   0  0  0  0  0  0  0  0  0  0  0  0
   -4.2285   -1.8413    1.0452 H   0  0  0  0  0  0  0  0  0  0  0  0
   -3.7155   -2.6583   -0.4538 H   0  0  0  0  0  0  0  0  0  0  0  0
   -2.1155   -1.9963    0.7922 C   0  0  0  0  0  0  0  0  0  0  0  0
   -1.2875   -2.6383    1.4252 O   0  0  0  0  0  0  0  0  0  0  0  0
   -1.8575   -0.8123    0.2402 N   0  0  0  0  0  0  0  0  0  0  0  0
   -2.6005   -0.3333   -0.2478 H   0  0  0  0  0  0  0  0  0  0  0  0
   -0.5675   -0.1203    0.3102 C   0  0  1  0  0  0  0  0  0  0  0  0
    0.0191   -0.5718    1.1110 H   0  0  0  0  0  0  0  0  0  0  0  0
    0.1724   -0.3238   -1.0286 C   0  0  0  0  0  0  0  0  0  0  0  0
    1.0165    0.3674   -1.0690 H   0  0  0  0  0  0  0  0  0  0  0  0
    0.5753   -1.3390   -1.0404 H   0  0  0  0  0  0  0  0  0  0  0  0
   -0.6763   -0.1304   -2.2987 C   0  0  0  0  0  0  0  0  0  0  0  0
   -0.8713    0.9309   -2.4531 H   0  0  0  0  0  0  0  0  0  0  0  0
    0.0091   -0.6972   -3.5453 C   0  0  0  0  0  0  0  0  0  0  0  0
    0.2257   -1.7564   -3.3998 H   0  0  0  0  0  0  0  0  0  0  0  0
   -0.6465   -0.5828   -4.4089 H   0  0  0  0  0  0  0  0  0  0  0  0
    0.9386   -0.1689   -3.7465 H   0  0  0  0  0  0  0  0  0  0  0  0
   -2.0201   -0.8394   -2.1346 C   0  0  0  0  0  0  0  0  0  0  0  0
   -2.5462   -0.4328   -1.2709 H   0  0  0  0  0  0  0  0  0  0  0  0
   -2.6337   -0.6807   -3.0214 H   0  0  0  0  0  0  0  0  0  0  0  0
   -1.8653   -1.9093   -1.9908 H   0  0  0  0  0  0  0  0  0  0  0  0
   -0.7793    1.3659    0.6455 C   0  0  0  0  0  0  0  0  0  0  0  0
   -1.6464    2.0125    0.0623 O   0  0  0  0  0  0  0  0  0  0  0  0
    0.0189    1.9059    1.5756 N   0  0  0  0  0  0  0  0  0  0  0  0
    0.7024    1.3094    2.0137 H   0  0  0  0  0  0  0  0  0  0  0  0
   -0.0451    3.3046    1.9929 C   0  0  0  0  0  0  0  0  0  0  0  0
   -1.0415    3.5286    2.3805 H   0  0  0  0  0  0  0  0  0  0  0  0
    0.6954    3.5023    2.7695 H   0  0  0  0  0  0  0  0  0  0  0  0
    0.1474    3.9536    1.1372 H   0  0  0  0  0  0  0  0  0  0  0  0
  5  6  2  0  0  0  0
  5  7  1  0  0  0  0
  2  3  1  0  0  0  0
  2  4  1  0  0  0  0
  2  5  1  0  0  0  0
  1  2  1  0  0  0  0
 24 25  2  0  0  0  0
 24 26  1  0  0  0  0
 20 21  1  0  0  0  0
 20 22  1  0  0  0  0
 20 23  1  0  0  0  0
 16 17  1  0  0  0  0
 16 18  1  0  0  0  0
 16 19  1  0  0  0  0
 14 15  1  0  0  0  0
 14 16  1  0  0  0  0
 14 20  1  0  0  0  0
 11 12  1  0  0  0  0
 11 13  1  0  0  0  0
 11 14  1  0  0  0  0
  9 10  1  0  0  0  0
  9 11  1  0  0  0  0
  9 24  1  0  0  0  0
  7  8  1  0  0  0  0
  7  9  1  0  0  0  0
 28 29  1  0  0  0  0
 28 30  1  0  0  0  0
 28 31  1  0  0  0  0
 26 27  1  0  0  0  0
 26 28  1  0  0  0  0
M  END
$$$$
default_name
  -OEChem-02102213163D

 31 30  0     1  0  0  0  0  0999 V2000
   -3.5895   -3.5013    1.1082 H   0  0  0  0  0  0  0  0  0  0  0  0
   -3.5145   -2.5363    0.6082 C   0  0  0  0  0  0  0  0  0  0  0  0
   -4.2285   -1.8413    1.0452 H   0  0  0  0  0  0  0  0  0  0  0  0
   -3.7155   -2.6583   -0.4538 H   0  0  0  0  0  0  0  0  0  0  0  0
   -2.1155   -1.9963    0.7922 C   0  0  0  0  0  0  0  0  0  0  0  0
   -1.2875   -2.6383    1.4252 O   0  0  0  0  0  0  0  0  0  0  0  0
   -1.8575   -0.8123    0.2402 N   0  0  0  0  0  0  0  0  0  0  0  0
   -2.6005   -0.3333   -0.2478 H   0  0  0  0  0  0  0  0  0  0  0  0
   -0.5675   -0.1203    0.3102 C   0  0  1  0  0  0  0  0  0  0  0  0
    0.0191   -0.5718    1.1110 H   0  0  0  0  0  0  0  0  0  0  0  0
    0.1724   -0.3238   -1.0286 C   0  0  0  0  0  0  0  0  0  0  0  0
    1.0165    0.3674   -1.0690 H   0  0  0  0  0  0  0  0  0  0  0  0
    0.5753   -1.3390   -1.0404 H   0  0  0  0  0  0  0  0  0  0  0  0
   -0.6763   -0.1304   -2.2987 C   0  0  0  0  0  0  0  0  0  0  0  0
   -0.6500    0.9159   -2.6032 H   0  0  0  0  0  0  0  0  0  0  0  0
   -0.1867   -0.9996   -3.4606 C   0  0  0  0  0  0  0  0  0  0  0  0
   -0.1919   -2.0498   -3.1655 H   0  0  0  0  0  0  0  0  0  0  0  0
   -0.8440   -0.8676   -4.3203 H   0  0  0  0  0  0  0  0  0  0  0  0
    0.8226   -0.7176   -3.7526 H   0  0  0  0  0  0  0  0  0  0  0  0
   -2.1301   -0.5027   -2.0099 C   0  0  0  0  0  0  0  0  0  0  0  0
   -2.5163    0.1240   -1.2061 H   0  0  0  0  0  0  0  0  0  0  0  0
   -2.7382   -0.3403   -2.8998 H   0  0  0  0  0  0  0  0  0  0  0  0
   -2.1979   -1.5501   -1.7139 H   0  0  0  0  0  0  0  0  0  0  0  0
   -0.7793    1.3659    0.6455 C   0  0  0  0  0  0  0  0  0  0  0  0
   -1.6464    2.0125    0.0623 O   0  0  0  0  0  0  0  0  0  0  0  0
    0.0189    1.9059    1.5756 N   0  0  0  0  0  0  0  0  0  0  0  0
    0.7024    1.3094    2.0137 H   0  0  0  0  0  0  0  0  0  0  0  0
   -0.0451    3.3046    1.9929 C   0  0  0  0  0  0  0  0  0  0  0  0
   -1.0415    3.5286    2.3805 H   0  0  0  0  0  0  0  0  0  0  0  0
    0.6954    3.5023    2.7695 H   0  0  0  0  0  0  0  0  0  0  0  0
    0.1474    3.9536    1.1372 H   0  0  0  0  0  0  0  0  0  0  0  0
  5  6  2  0  0  0  0
  5  7  1  0  0  0  0
  2  3  1  0  0  0  0
  2  4  1  0  0  0  0
  2  5  1  0  0  0  0
  1  2  1  0  0  0  0
 24 25  2  0  0  0  0
 24 26  1  0  0  0  0
 20 21  1  0  0  0  0
 20 22  1  0  0  0  0
 20 23  1  0  0  0  0
 16 17  1  0  0  0  0
 16 18  1  0  0  0  0
 16 19  1  0  0  0  0
 14 15  1  0  0  0  0
 14 16  1  0  0  0  0
 14 20  1  0  0  0  0
 11 12  1  0  0  0  0
 11 13  1  0  0  0  0
 11 14  1  0  0  0  0
  9 10  1  0  0  0  0
  9 11  1  0  0  0  0
  9 24  1  0  0  0  0
  7  8  1  0  0  0  0
  7  9  1  0  0  0  0
 28 29  1  0  0  0  0
 28 30  1  0  0  0  0
 28 31  1  0  0  0  0
 26 27  1  0  0  0  0
 26 28  1  0  0  0  0
M  END
$$$$
default_name
  -OEChem-02102213163D

 31 30  0     1  0  0  0  0  0999 V2000
   -3.5895   -3.5013    1.1082 H   0  0  0  0  0  0  0  0  0  0  0  0
   -3.5145   -2.5363    0.6082 C   0  0  0  0  0  0  0  0  0  0  0  0
   -4.2285   -1.8413    1.0452 H   0  0  0  0  0  0  0  0  0  0  0  0
   -3.7155   -2.6583   -0.4538 H   0  0  0  0  0  0  0  0  0  0  0  0
   -2.1155   -1.9963    0.7922 C   0  0  0  0  0  0  0  0  0  0  0  0
   -1.2875   -2.6383    1.4252 O   0  0  0  0  0  0  0  0  0  0  0  0
   -1.8575   -0.8123    0.2402 N   0  0  0  0  0  0  0  0  0  0  0  0
   -2.6005   -0.3333   -0.2478 H   0  0  0  0  0  0  0  0  0  0  0  0
   -0.5675   -0.1203    0.3102 C   0  0  1  0  0  0  0  0  0  0  0  0
    0.0191   -0.5718    1.1110 H   0  0  0  0  0  0  0  0  0  0  0  0
    0.1724   -0.3238   -1.0286 C   0  0  0  0  0  0  0  0  0  0  0  0
    1.0165    0.3674   -1.0690 H   0  0  0  0  0  0  0  0  0  0  0  0
    0.5753   -1.3390   -1.0404 H   0  0  0  0  0  0  0  0  0  0  0  0
   -0.6763   -0.1304   -2.2987 C   0  0  0  0  0  0  0  0  0  0  0  0
   -0.4444    0.8328   -2.7533 H   0  0  0  0  0  0  0  0  0  0  0  0
   -0.4376   -1.2378   -3.3292 C   0  0  0  0  0  0  0  0  0  0  0  0
   -0.6502   -2.2106   -2.8837 H   0  0  0  0  0  0  0  0  0  0  0  0
   -1.0927   -1.0880   -4.1876 H   0  0  0  0  0  0  0  0  0  0  0  0
    0.5933   -1.2237   -3.6764 H   0  0  0  0  0  0  0  0  0  0  0  0
   -2.1603   -0.1362   -1.9338 C   0  0  0  0  0  0  0  0  0  0  0  0
   -2.3665    0.6646   -1.2238 H   0  0  0  0  0  0  0  0  0  0  0  0
   -2.7624    0.0282   -2.8274 H   0  0  0  0  0  0  0  0  0  0  0  0
   -2.4335   -1.0927   -1.4868 H   0  0  0  0  0  0  0  0  0  0  0  0
   -0.7793    1.3659    0.6455 C   0  0  0  0  0  0  0  0  0  0  0  0
   -1.6464    2.0125    0.0623 O   0  0  0  0  0  0  0  0  0  0  0  0
    0.0189    1.9059    1.5756 N   0  0  0  0  0  0  0  0  0  0  0  0
    0.7024    1.3094    2.0137 H   0  0  0  0  0  0  0  0  0  0  0  0
   -0.0451    3.3046    1.9929 C   0  0  0  0  0  0  0  0  0  0  0  0
   -1.0415    3.5286    2.3805 H   0  0  0  0  0  0  0  0  0  0  0  0
    0.6954    3.5023    2.7695 H   0  0  0  0  0  0  0  0  0  0  0  0
    0.1474    3.9536    1.1372 H   0  0  0  0  0  0  0  0  0  0  0  0
  5  6  2  0  0  0  0
  5  7  1  0  0  0  0
  2  3  1  0  0  0  0
  2  4  1  0  0  0  0
  2  5  1  0  0  0  0
  1  2  1  0  0  0  0
 24 25  2  0  0  0  0
 24 26  1  0  0  0  0
 20 21  1  0  0  0  0
 20 22  1  0  0  0  0
 20 23  1  0  0  0  0
 16 17  1  0  0  0  0
 16 18  1  0  0  0  0
 16 19  1  0  0  0  0
 14 15  1  0  0  0  0
 14 16  1  0  0  0  0
 14 20  1  0  0  0  0
 11 12  1  0  0  0  0
 11 13  1  0  0  0  0
 11 14  1  0  0  0  0
  9 10  1  0  0  0  0
  9 11  1  0  0  0  0
  9 24  1  0  0  0  0
  7  8  1  0  0  0  0
  7  9  1  0  0  0  0
 28 29  1  0  0  0  0
 28 30  1  0  0  0  0
 28 31  1  0  0  0  0
 26 27  1  0  0  0  0
 26 28  1  0  0  0  0
M  END
$$$$
default_name
  -OEChem-02102213163D

 31 30  0     1  0  0  0  0  0999 V2000
   -3.5895   -3.5013    1.1082 H   0  0  0  0  0  0  0  0  0  0  0  0
   -3.5145   -2.5363    0.6082 C   0  0  0  0  0  0  0  0  0  0  0  0
   -4.2285   -1.8413    1.0452 H   0  0  0  0  0  0  0  0  0  0  0  0
   -3.7155   -2.6583   -0.4538 H   0  0  0  0  0  0  0  0  0  0  0  0
   -2.1155   -1.9963    0.7922 C   0  0  0  0  0  0  0  0  0  0  0  0
   -1.2875   -2.6383    1.4252 O   0  0  0  0  0  0  0  0  0  0  0  0
   -1.8575   -0.8123    0.2402 N   0  0  0  0  0  0  0  0  0  0  0  0
   -2.6005   -0.3333   -0.2478 H   0  0  0  0  0  0  0  0  0  0  0  0
   -0.5675   -0.1203    0.3102 C   0  0  1  0  0  0  0  0  0  0  0  0
    0.0191   -0.5718    1.1110 H   0  0  0  0  0  0  0  0  0  0  0  0
    0.1724   -0.3238   -1.0286 C   0  0  0  0  0  0  0  0  0  0  0  0
    1.0165    0.3674   -1.0690 H   0  0  0  0  0  0  0  0  0  0  0  0
    0.5753   -1.3390   -1.0404 H   0  0  0  0  0  0  0  0  0  0  0  0
   -0.6763   -0.1304   -2.2987 C   0  0  0  0  0  0  0  0  0  0  0  0
   -0.2684    0.6872   -2.8931 H   0  0  0  0  0  0  0  0  0  0  0  0
   -0.7265   -1.3956   -3.1601 C   0  0  0  0  0  0  0  0  0  0  0  0
   -1.1181   -2.2278   -2.5736 H   0  0  0  0  0  0  0  0  0  0  0  0
   -1.3757   -1.2288   -4.0200 H   0  0  0  0  0  0  0  0  0  0  0  0
    0.2662   -1.6528   -3.5232 H   0  0  0  0  0  0  0  0  0  0  0  0
   -2.1088    0.2351   -1.9117 C   0  0  0  0  0  0  0  0  0  0  0  0
   -2.1069    1.1523   -1.3230 H   0  0  0  0  0  0  0  0  0  0  0  0
   -2.7048    0.3996   -2.8093 H   0  0  0  0  0  0  0  0  0  0  0  0
   -2.5560   -0.5682   -1.3250 H   0  0  0  0  0  0  0  0  0  0  0  0
   -0.7793    1.3659    0.6455 C   0  0  0  0  0  0  0  0  0  0  0  0
   -1.6464    2.0125    0.0623 O   0  0  0  0  0  0  0  0  0  0  0  0
    0.0189    1.9059    1.5756 N   0  0  0  0  0  0  0  0  0  0  0  0
    0.7024    1.3094    2.0137 H   0  0  0  0  0  0  0  0  0  0  0  0
   -0.0451    3.3046    1.9929 C   0  0  0  0  0  0  0  0  0  0  0  0
   -1.0415    3.5286    2.3805 H   0  0  0  0  0  0  0  0  0  0  0  0
    0.6954    3.5023    2.7695 H   0  0  0  0  0  0  0  0  0  0  0  0
    0.1474    3.9536    1.1372 H   0  0  0  0  0  0  0  0  0  0  0  0
  5  6  2  0  0  0  0
  5  7  1  0  0  0  0
  2  3  1  0  0  0  0
  2  4  1  0  0  0  0
  2  5  1  0  0  0  0
  1  2  1  0  0  0  0
 24 25  2  0  0  0  0
 24 26  1  0  0  0  0
 20 21  1  0  0  0  0
 20 22  1  0  0  0  0
 20 23  1  0  0  0  0
 16 17  1  0  0  0  0
 16 18  1  0  0  0  0
 16 19  1  0  0  0  0
 14 15  1  0  0  0  0
 14 16  1  0  0  0  0
 14 20  1  0  0  0  0
 11 12  1  0  0  0  0
 11 13  1  0  0  0  0
 11 14  1  0  0  0  0
  9 10  1  0  0  0  0
  9 11  1  0  0  0  0
  9 24  1  0  0  0  0
  7  8  1  0  0  0  0
  7  9  1  0  0  0  0
 28 29  1  0  0  0  0
 28 30  1  0  0  0  0
 28 31  1  0  0  0  0
 26 27  1  0  0  0  0
 26 28  1  0  0  0  0
M  END
$$$$
default_name
  -OEChem-02102213163D

 31 30  0     1  0  0  0  0  0999 V2000
   -3.5895   -3.5013    1.1082 H   0  0  0  0  0  0  0  0  0  0  0  0
   -3.5145   -2.5363    0.6082 C   0  0  0  0  0  0  0  0  0  0  0  0
   -4.2285   -1.8413    1.0452 H   0  0  0  0  0  0  0  0  0  0  0  0
   -3.7155   -2.6583   -0.4538 H   0  0  0  0  0  0  0  0  0  0  0  0
   -2.1155   -1.9963    0.7922 C   0  0  0  0  0  0  0  0  0  0  0  0
   -1.2875   -2.6383    1.4252 O   0  0  0  0  0  0  0  0  0  0  0  0
   -1.8575   -0.8123    0.2402 N   0  0  0  0  0  0  0  0  0  0  0  0
   -2.6005   -0.3333   -0.2478 H   0  0  0  0  0  0  0  0  0  0  0  0
   -0.5675   -0.1203    0.3102 C   0  0  1  0  0  0  0  0  0  0  0  0
    0.0191   -0.5718    1.1110 H   0  0  0  0  0  0  0  0  0  0  0  0
    0.1724   -0.3238   -1.0286 C   0  0  0  0  0  0  0  0  0  0  0  0
    1.0165    0.3674   -1.0690 H   0  0  0  0  0  0  0  0  0  0  0  0
    0.5753   -1.3390   -1.0404 H   0  0  0  0  0  0  0  0  0  0  0  0
   -0.6763   -0.1304   -2.2987 C   0  0  0  0  0  0  0  0  0  0  0  0
   -0.1339    0.4890   -3.0131 H   0  0  0  0  0  0  0  0  0  0  0  0
   -1.0338   -1.4622   -2.9649 C   0  0  0  0  0  0  0  0  0  0  0  0
   -1.5637   -2.1004   -2.2565 H   0  0  0  0  0  0  0  0  0  0  0  0
   -1.6737   -1.2804   -3.8288 H   0  0  0  0  0  0  0  0  0  0  0  0
   -0.1364   -1.9755   -3.3034 H   0  0  0  0  0  0  0  0  0  0  0  0
   -1.9791    0.5859   -1.9450 C   0  0  0  0  0  0  0  0  0  0  0  0
   -1.7553    1.5539   -1.4968 H   0  0  0  0  0  0  0  0  0  0  0  0
   -2.5693    0.7486   -2.8467 H   0  0  0  0  0  0  0  0  0  0  0  0
   -2.5571   -0.0123   -1.2396 H   0  0  0  0  0  0  0  0  0  0  0  0
   -0.7793    1.3659    0.6455 C   0  0  0  0  0  0  0  0  0  0  0  0
   -1.6464    2.0125    0.0623 O   0  0  0  0  0  0  0  0  0  0  0  0
    0.0189    1.9059    1.5756 N   0  0  0  0  0  0  0  0  0  0  0  0
    0.7024    1.3094    2.0137 H   0  0  0  0  0  0  0  0  0  0  0  0
   -0.0451    3.3046    1.9929 C   0  0  0  0  0  0  0  0  0  0  0  0
   -1.0415    3.5286    2.3805 H   0  0  0  0  0  0  0  0  0  0  0  0
    0.6954    3.5023    2.7695 H   0  0  0  0  0  0  0  0  0  0  0  0
    0.1474    3.9536    1.1372 H   0  0  0  0  0  0  0  0  0  0  0  0
  5  6  2  0  0  0  0
  5  7  1  0  0  0  0
  2  3  1  0  0  0  0
  2  4  1  0  0  0  0
  2  5  1  0  0  0  0
  1  2  1  0  0  0  0
 24 25  2  0  0  0  0
 24 26  1  0  0  0  0
 20 21  1  0  0  0  0
 20 22  1  0  0  0  0
 20 23  1  0  0  0  0
 16 17  1  0  0  0  0
 16 18  1  0  0  0  0
 16 19  1  0  0  0  0
 14 15  1  0  0  0  0
 14 16  1  0  0  0  0
 14 20  1  0  0  0  0
 11 12  1  0  0  0  0
 11 13  1  0  0  0  0
 11 14  1  0  0  0  0
  9 10  1  0  0  0  0
  9 11  1  0  0  0  0
  9 24  1  0  0  0  0
  7  8  1  0  0  0  0
  7  9  1  0  0  0  0
 28 29  1  0  0  0  0
 28 30  1  0  0  0  0
 28 31  1  0  0  0  0
 26 27  1  0  0  0  0
 26 28  1  0  0  0  0
M  END
$$$$
default_name
  -OEChem-02102213163D

 31 30  0     1  0  0  0  0  0999 V2000
   -3.5895   -3.5013    1.1082 H   0  0  0  0  0  0  0  0  0  0  0  0
   -3.5145   -2.5363    0.6082 C   0  0  0  0  0  0  0  0  0  0  0  0
   -4.2285   -1.8413    1.0452 H   0  0  0  0  0  0  0  0  0  0  0  0
   -3.7155   -2.6583   -0.4538 H   0  0  0  0  0  0  0  0  0  0  0  0
   -2.1155   -1.9963    0.7922 C   0  0  0  0  0  0  0  0  0  0  0  0
   -1.2875   -2.6383    1.4252 O   0  0  0  0  0  0  0  0  0  0  0  0
   -1.8575   -0.8123    0.2402 N   0  0  0  0  0  0  0  0  0  0  0  0
   -2.6005   -0.3333   -0.2478 H   0  0  0  0  0  0  0  0  0  0  0  0
   -0.5675   -0.1203    0.3102 C   0  0  1  0  0  0  0  0  0  0  0  0
    0.0191   -0.5718    1.1110 H   0  0  0  0  0  0  0  0  0  0  0  0
    0.1724   -0.3238   -1.0286 C   0  0  0  0  0  0  0  0  0  0  0  0
    1.0165    0.3674   -1.0690 H   0  0  0  0  0  0  0  0  0  0  0  0
    0.5753   -1.3390   -1.0404 H   0  0  0  0  0  0  0  0  0  0  0  0
   -0.6763   -0.1304   -2.2987 C   0  0  0  0  0  0  0  0  0  0  0  0
   -0.0503    0.2518   -3.1051 H   0  0  0  0  0  0  0  0  0  0  0  0
   -1.3385   -1.4330   -2.7569 C   0  0  0  0  0  0  0  0  0  0  0  0
   -1.9565   -1.8369   -1.9539 H   0  0  0  0  0  0  0  0  0  0  0  0
   -1.9663   -1.2395   -3.6270 H   0  0  0  0  0  0  0  0  0  0  0  0
   -0.5870   -2.1700   -3.0319 H   0  0  0  0  0  0  0  0  0  0  0  0
   -1.7800    0.8923   -2.0313 C   0  0  0  0  0  0  0  0  0  0  0  0
   -1.3356    1.8419   -1.7334 H   0  0  0  0  0  0  0  0  0  0  0  0
   -2.3651    1.0515   -2.9371 H   0  0  0  0  0  0  0  0  0  0  0  0
   -2.4367    0.5370   -1.2364 H   0  0  0  0  0  0  0  0  0  0  0  0
   -0.7793    1.3659    0.6455 C   0  0  0  0  0  0  0  0  0  0  0  0
   -1.6464    2.0125    0.0623 O   0  0  0  0  0  0  0  0  0  0  0  0
    0.0189    1.9059    1.5756 N   0  0  0  0  0  0  0  0  0  0  0  0
    0.7024    1.3094    2.0137 H   0  0  0  0  0  0  0  0  0  0  0  0
   -0.0451    3.3046    1.9929 C   0  0  0  0  0  0  0  0  0  0  0  0
   -1.0415    3.5286    2.3805 H   0  0  0  0  0  0  0  0  0  0  0  0
    0.6954    3.5023    2.7695 H   0  0  0  0  0  0  0  0  0  0  0  0
    0.1474    3.9536    1.1372 H   0  0  0  0  0  0  0  0  0  0  0  0
  5  6  2  0  0  0  0
  5  7  1  0  0  0  0
  2  3  1  0  0  0  0
  2  4  1  0  0  0  0
  2  5  1  0  0  0  0
  1  2  1  0  0  0  0
 24 25  2  0  0  0  0
 24 26  1  0  0  0  0
 20 21  1  0  0  0  0
 20 22  1  0  0  0  0
 20 23  1  0  0  0  0
 16 17  1  0  0  0  0
 16 18  1  0  0  0  0
 16 19  1  0  0  0  0
 14 15  1  0  0  0  0
 14 16  1  0  0  0  0
 14 20  1  0  0  0  0
 11 12  1  0  0  0  0
 11 13  1  0  0  0  0
 11 14  1  0  0  0  0
  9 10  1  0  0  0  0
  9 11  1  0  0  0  0
  9 24  1  0  0  0  0
  7  8  1  0  0  0  0
  7  9  1  0  0  0  0
 28 29  1  0  0  0  0
 28 30  1  0  0  0  0
 28 31  1  0  0  0  0
 26 27  1  0  0  0  0
 26 28  1  0  0  0  0
M  END
$$$$
default_name
  -OEChem-02102213163D

 31 30  0     1  0  0  0  0  0999 V2000
   -3.5895   -3.5013    1.1082 H   0  0  0  0  0  0  0  0  0  0  0  0
   -3.5145   -2.5363    0.6082 C   0  0  0  0  0  0  0  0  0  0  0  0
   -4.2285   -1.8413    1.0452 H   0  0  0  0  0  0  0  0  0  0  0  0
   -3.7155   -2.6583   -0.4538 H   0  0  0  0  0  0  0  0  0  0  0  0
   -2.1155   -1.9963    0.7922 C   0  0  0  0  0  0  0  0  0  0  0  0
   -1.2875   -2.6383    1.4252 O   0  0  0  0  0  0  0  0  0  0  0  0
   -1.8575   -0.8123    0.2402 N   0  0  0  0  0  0  0  0  0  0  0  0
   -2.6005   -0.3333   -0.2478 H   0  0  0  0  0  0  0  0  0  0  0  0
   -0.5675   -0.1203    0.3102 C   0  0  1  0  0  0  0  0  0  0  0  0
    0.0191   -0.5718    1.1110 H   0  0  0  0  0  0  0  0  0  0  0  0
    0.1724   -0.3238   -1.0286 C   0  0  0  0  0  0  0  0  0  0  0  0
    1.0165    0.3674   -1.0690 H   0  0  0  0  0  0  0  0  0  0  0  0
    0.5753   -1.3390   -1.0404 H   0  0  0  0  0  0  0  0  0  0  0  0
   -0.6763   -0.1304   -2.2987 C   0  0  0  0  0  0  0  0  0  0  0  0
   -0.0232   -0.0084   -3.1628 H   0  0  0  0  0  0  0  0  0  0  0  0
   -1.6198   -1.3102   -2.5502 C   0  0  0  0  0  0  0  0  0  0  0  0
   -2.2699   -1.4554   -1.6864 H   0  0  0  0  0  0  0  0  0  0  0  0
   -2.2336   -1.1086   -3.4284 H   0  0  0  0  0  0  0  0  0  0  0  0
   -1.0549   -2.2229   -2.7273 H   0  0  0  0  0  0  0  0  0  0  0  0
   -1.5251    1.1334   -2.1650 C   0  0  0  0  0  0  0  0  0  0  0  0
   -0.8764    1.9967   -2.0166 H   0  0  0  0  0  0  0  0  0  0  0  0
   -2.1062    1.2876   -3.0741 H   0  0  0  0  0  0  0  0  0  0  0  0
   -2.2030    1.0424   -1.3156 H   0  0  0  0  0  0  0  0  0  0  0  0
   -0.7793    1.3659    0.6455 C   0  0  0  0  0  0  0  0  0  0  0  0
   -1.6464    2.0125    0.0623 O   0  0  0  0  0  0  0  0  0  0  0  0
    0.0189    1.9059    1.5756 N   0  0  0  0  0  0  0  0  0  0  0  0
    0.7024    1.3094    2.0137 H   0  0  0  0  0  0  0  0  0  0  0  0
   -0.0451    3.3046    1.9929 C   0  0  0  0  0  0  0  0  0  0  0  0
   -1.0415    3.5286    2.3805 H   0  0  0  0  0  0  0  0  0  0  0  0
    0.6954    3.5023    2.7695 H   0  0  0  0  0  0  0  0  0  0  0  0
    0.1474    3.9536    1.1372 H   0  0  0  0  0  0  0  0  0  0  0  0
  5  6  2  0  0  0  0
  5  7  1  0  0  0  0
  2  3  1  0  0  0  0
  2  4  1  0  0  0  0
  2  5  1  0  0  0  0
  1  2  1  0  0  0  0
 24 25  2  0  0  0  0
 24 26  1  0  0  0  0
 20 21  1  0  0  0  0
 20 22  1  0  0  0  0
 20 23  1  0  0  0  0
 16 17  1  0  0  0  0
 16 18  1  0  0  0  0
 16 19  1  0  0  0  0
 14 15  1  0  0  0  0
 14 16  1  0  0  0  0
 14 20  1  0  0  0  0
 11 12  1  0  0  0  0
 11 13  1  0  0  0  0
 11 14  1  0  0  0  0
  9 10  1  0  0  0  0
  9 11  1  0  0  0  0
  9 24  1  0  0  0  0
  7  8  1  0  0  0  0
  7  9  1  0  0  0  0
 28 29  1  0  0  0  0
 28 30  1  0  0  0  0
 28 31  1  0  0  0  0
 26 27  1  0  0  0  0
 26 28  1  0  0  0  0
M  END
$$$$
default_name
  -OEChem-02102213163D

 31 30  0     1  0  0  0  0  0999 V2000
   -3.5895   -3.5013    1.1082 H   0  0  0  0  0  0  0  0  0  0  0  0
   -3.5145   -2.5363    0.6082 C   0  0  0  0  0  0  0  0  0  0  0  0
   -4.2285   -1.8413    1.0452 H   0  0  0  0  0  0  0  0  0  0  0  0
   -3.7155   -2.6583   -0.4538 H   0  0  0  0  0  0  0  0  0  0  0  0
   -2.1155   -1.9963    0.7922 C   0  0  0  0  0  0  0  0  0  0  0  0
   -1.2875   -2.6383    1.4252 O   0  0  0  0  0  0  0  0  0  0  0  0
   -1.8575   -0.8123    0.2402 N   0  0  0  0  0  0  0  0  0  0  0  0
   -2.6005   -0.3333   -0.2478 H   0  0  0  0  0  0  0  0  0  0  0  0
   -0.5675   -0.1203    0.3102 C   0  0  1  0  0  0  0  0  0  0  0  0
    0.0191   -0.5718    1.1110 H   0  0  0  0  0  0  0  0  0  0  0  0
    0.1724   -0.3238   -1.0286 C   0  0  0  0  0  0  0  0  0  0  0  0
    1.0165    0.3674   -1.0690 H   0  0  0  0  0  0  0  0  0  0  0  0
    0.5753   -1.3390   -1.0404 H   0  0  0  0  0  0  0  0  0  0  0  0
   -0.6763   -0.1304   -2.2987 C   0  0  0  0  0  0  0  0  0  0  0  0
   -0.0544   -0.2736   -3.1824 H   0  0  0  0  0  0  0  0  0  0  0  0
   -1.8586   -1.1019   -2.3590 C   0  0  0  0  0  0  0  0  0  0  0  0
   -2.4824   -0.9818   -1.4722 H   0  0  0  0  0  0  0  0  0  0  0  0
   -2.4574   -0.8969   -3.2466 H   0  0  0  0  0  0  0  0  0  0  0  0
   -1.5083   -2.1306   -2.4103 H   0  0  0  0  0  0  0  0  0  0  0  0
   -1.2317    1.2928   -2.3367 C   0  0  0  0  0  0  0  0  0  0  0  0
   -0.4091    2.0078   -2.3272 H   0  0  0  0  0  0  0  0  0  0  0  0
   -1.8101    1.4408   -3.2487 H   0  0  0  0  0  0  0  0  0  0  0  0
   -1.8720    1.4694   -1.4718 H   0  0  0  0  0  0  0  0  0  0  0  0
   -0.7793    1.3659    0.6455 C   0  0  0  0  0  0  0  0  0  0  0  0
   -1.6464    2.0125    0.0623 O   0  0  0  0  0  0  0  0  0  0  0  0
    0.0189    1.9059    1.5756 N   0  0  0  0  0  0  0  0  0  0  0  0
    0.7024    1.3094    2.0137 H   0  0  0  0  0  0  0  0  0  0  0  0
   -0.0451    3.3046    1.9929 C   0  0  0  0  0  0  0  0  0  0  0  0
   -1.0415    3.5286    2.3805 H   0  0  0  0  0  0  0  0  0  0  0  0
    0.6954    3.5023    2.7695 H   0  0  0  0  0  0  0  0  0  0  0  0
    0.1474    3.9536    1.1372 H   0  0  0  0  0  0  0  0  0  0  0  0
  5  6  2  0  0  0  0
  5  7  1  0  0  0  0
  2  3  1  0  0  0  0
  2  4  1  0  0  0  0
  2  5  1  0  0  0  0
  1  2  1  0  0  0  0
 24 25  2  0  0  0  0
 24 26  1  0  0  0  0
 20 21  1  0  0  0  0
 20 22  1  0  0  0  0
 20 23  1  0  0  0  0
 16 17  1  0  0  0  0
 16 18  1  0  0  0  0
 16 19  1  0  0  0  0
 14 15  1  0  0  0  0
 14 16  1  0  0  0  0
 14 20  1  0  0  0  0
 11 12  1  0  0  0  0
 11 13  1  0  0  0  0
 11 14  1  0  0  0  0
  9 10  1  0  0  0  0
  9 11  1  0  0  0  0
  9 24  1  0  0  0  0
  7  8  1  0  0  0  0
  7  9  1  0  0  0  0
 28 29  1  0  0  0  0
 28 30  1  0  0  0  0
 28 31  1  0  0  0  0
 26 27  1  0  0  0  0
 26 28  1  0  0  0  0
M  END
$$$$
default_name
  -OEChem-02102213163D

 31 30  0     1  0  0  0  0  0999 V2000
   -3.5895   -3.5013    1.1082 H   0  0  0  0  0  0  0  0  0  0  0  0
   -3.5145   -2.5363    0.6082 C   0  0  0  0  0  0  0  0  0  0  0  0
   -4.2285   -1.8413    1.0452 H   0  0  0  0  0  0  0  0  0  0  0  0
   -3.7155   -2.6583   -0.4538 H   0  0  0  0  0  0  0  0  0  0  0  0
   -2.1155   -1.9963    0.7922 C   0  0  0  0  0  0  0  0  0  0  0  0
   -1.2875   -2.6383    1.4252 O   0  0  0  0  0  0  0  0  0  0  0  0
   -1.8575   -0.8123    0.2402 N   0  0  0  0  0  0  0  0  0  0  0  0
   -2.6005   -0.3333   -0.2478 H   0  0  0  0  0  0  0  0  0  0  0  0
   -0.5675   -0.1203    0.3102 C   0  0  1  0  0  0  0  0  0  0  0  0
    0.0191   -0.5718    1.1110 H   0  0  0  0  0  0  0  0  0  0  0  0
    0.1724   -0.3238   -1.0286 C   0  0  0  0  0  0  0  0  0  0  0  0
    1.0165    0.3674   -1.0690 H   0  0  0  0  0  0  0  0  0  0  0  0
    0.5753   -1.3390   -1.0404 H   0  0  0  0  0  0  0  0  0  0  0  0
   -0.6763   -0.1304   -2.2987 C   0  0  0  0  0  0  0  0  0  0  0  0
   -0.1418   -0.5260   -3.1624 H   0  0  0  0  0  0  0  0  0  0  0  0
   -2.0385   -0.8225   -2.1961 C   0  0  0  0  0  0  0  0  0  0  0  0
   -2.5797   -0.4484   -1.3260 H   0  0  0  0  0  0  0  0  0  0  0  0
   -2.6225   -0.6186   -3.0939 H   0  0  0  0  0  0  0  0  0  0  0  0
   -1.9162   -1.8994   -2.1025 H   0  0  0  0  0  0  0  0  0  0  0  0
   -0.9198    1.3597   -2.5349 C   0  0  0  0  0  0  0  0  0  0  0  0
    0.0347    1.8744   -2.6441 H   0  0  0  0  0  0  0  0  0  0  0  0
   -1.4971    1.5007   -3.4487 H   0  0  0  0  0  0  0  0  0  0  0  0
   -1.4662    1.7889   -1.6943 H   0  0  0  0  0  0  0  0  0  0  0  0
   -0.7793    1.3659    0.6455 C   0  0  0  0  0  0  0  0  0  0  0  0
   -1.6464    2.0125    0.0623 O   0  0  0  0  0  0  0  0  0  0  0  0
    0.0189    1.9059    1.5756 N   0  0  0  0  0  0  0  0  0  0  0  0
    0.7024    1.3094    2.0137 H   0  0  0  0  0  0  0  0  0  0  0  0
   -0.0451    3.3046    1.9929 C   0  0  0  0  0  0  0  0  0  0  0  0
   -1.0415    3.5286    2.3805 H   0  0  0  0  0  0  0  0  0  0  0  0
    0.6954    3.5023    2.7695 H   0  0  0  0  0  0  0  0  0  0  0  0
    0.1474    3.9536    1.1372 H   0  0  0  0  0  0  0  0  0  0  0  0
  5  6  2  0  0  0  0
  5  7  1  0  0  0  0
  2  3  1  0  0  0  0
  2  4  1  0  0  0  0
  2  5  1  0  0  0  0
  1  2  1  0  0  0  0
 24 25  2  0  0  0  0
 24 26  1  0  0  0  0
 20 21  1  0  0  0  0
 20 22  1  0  0  0  0
 20 23  1  0  0  0  0
 16 17  1  0  0  0  0
 16 18  1  0  0  0  0
 16 19  1  0  0  0  0
 14 15  1  0  0  0  0
 14 16  1  0  0  0  0
 14 20  1  0  0  0  0
 11 12  1  0  0  0  0
 11 13  1  0  0  0  0
 11 14  1  0  0  0  0
  9 10  1  0  0  0  0
  9 11  1  0  0  0  0
  9 24  1  0  0  0  0
  7  8  1  0  0  0  0
  7  9  1  0  0  0  0
 28 29  1  0  0  0  0
 28 30  1  0  0  0  0
 28 31  1  0  0  0  0
 26 27  1  0  0  0  0
 26 28  1  0  0  0  0
M  END
$$$$
default_name
  -OEChem-02102213163D

 31 30  0     1  0  0  0  0  0999 V2000
   -3.5895   -3.5013    1.1082 H   0  0  0  0  0  0  0  0  0  0  0  0
   -3.5145   -2.5363    0.6082 C   0  0  0  0  0  0  0  0  0  0  0  0
   -4.2285   -1.8413    1.0452 H   0  0  0  0  0  0  0  0  0  0  0  0
   -3.7155   -2.6583   -0.4538 H   0  0  0  0  0  0  0  0  0  0  0  0
   -2.1155   -1.9963    0.7922 C   0  0  0  0  0  0  0  0  0  0  0  0
   -1.2875   -2.6383    1.4252 O   0  0  0  0  0  0  0  0  0  0  0  0
   -1.8575   -0.8123    0.2402 N   0  0  0  0  0  0  0  0  0  0  0  0
   -2.6005   -0.3333   -0.2478 H   0  0  0  0  0  0  0  0  0  0  0  0
   -0.5675   -0.1203    0.3102 C   0  0  1  0  0  0  0  0  0  0  0  0
    0.0191   -0.5718    1.1110 H   0  0  0  0  0  0  0  0  0  0  0  0
    0.1724   -0.3238   -1.0286 C   0  0  0  0  0  0  0  0  0  0  0  0
    1.0165    0.3674   -1.0690 H   0  0  0  0  0  0  0  0  0  0  0  0
    0.5753   -1.3390   -1.0404 H   0  0  0  0  0  0  0  0  0  0  0  0
   -0.6763   -0.1304   -2.2987 C   0  0  0  0  0  0  0  0  0  0  0  0
   -0.2795   -0.7483   -3.1042 H   0  0  0  0  0  0  0  0  0  0  0  0
   -2.1474   -0.4910   -2.0729 C   0  0  0  0  0  0  0  0  0  0  0  0
   -2.5549    0.1085   -1.2577 H   0  0  0  0  0  0  0  0  0  0  0  0
   -2.7176   -0.2928   -2.9808 H   0  0  0  0  0  0  0  0  0  0  0  0
   -2.2509   -1.5452   -1.8249 H   0  0  0  0  0  0  0  0  0  0  0  0
   -0.6108    1.3294   -2.7460 C   0  0  0  0  0  0  0  0  0  0  0  0
    0.4245    1.6057   -2.9455 H   0  0  0  0  0  0  0  0  0  0  0  0
   -1.1884    1.4631   -3.6607 H   0  0  0  0  0  0  0  0  0  0  0  0
   -1.0132    1.9791   -1.9680 H   0  0  0  0  0  0  0  0  0  0  0  0
   -0.7793    1.3659    0.6455 C   0  0  0  0  0  0  0  0  0  0  0  0
   -1.6464    2.0125    0.0623 O   0  0  0  0  0  0  0  0  0  0  0  0
    0.0189    1.9059    1.5756 N   0  0  0  0  0  0  0  0  0  0  0  0
    0.7024    1.3094    2.0137 H   0  0  0  0  0  0  0  0  0  0  0  0
   -0.0451    3.3046    1.9929 C   0  0  0  0  0  0  0  0  0  0  0  0
   -1.0415    3.5286    2.3805 H   0  0  0  0  0  0  0  0  0  0  0  0
    0.6954    3.5023    2.7695 H   0  0  0  0  0  0  0  0  0  0  0  0
    0.1474    3.9536    1.1372 H   0  0  0  0  0  0  0  0  0  0  0  0
  5  6  2  0  0  0  0
  5  7  1  0  0  0  0
  2  3  1  0  0  0  0
  2  4  1  0  0  0  0
  2  5  1  0  0  0  0
  1  2  1  0  0  0  0
 24 25  2  0  0  0  0
 24 26  1  0  0  0  0
 20 21  1  0  0  0  0
 20 22  1  0  0  0  0
 20 23  1  0  0  0  0
 16 17  1  0  0  0  0
 16 18  1  0  0  0  0
 16 19  1  0  0  0  0
 14 15  1  0  0  0  0
 14 16  1  0  0  0  0
 14 20  1  0  0  0  0
 11 12  1  0  0  0  0
 11 13  1  0  0  0  0
 11 14  1  0  0  0  0
  9 10  1  0  0  0  0
  9 11  1  0  0  0  0
  9 24  1  0  0  0  0
  7  8  1  0  0  0  0
  7  9  1  0  0  0  0
 28 29  1  0  0  0  0
 28 30  1  0  0  0  0
 28 31  1  0  0  0  0
 26 27  1  0  0  0  0
 26 28  1  0  0  0  0
M  END
$$$$
default_name
  -OEChem-02102213163D

 31 30  0     1  0  0  0  0  0999 V2000
   -3.5895   -3.5013    1.1082 H   0  0  0  0  0  0  0  0  0  0  0  0
   -3.5145   -2.5363    0.6082 C   0  0  0  0  0  0  0  0  0  0  0  0
   -4.2285   -1.8413    1.0452 H   0  0  0  0  0  0  0  0  0  0  0  0
   -3.7155   -2.6583   -0.4538 H   0  0  0  0  0  0  0  0  0  0  0  0
   -2.1155   -1.9963    0.7922 C   0  0  0  0  0  0  0  0  0  0  0  0
   -1.2875   -2.6383    1.4252 O   0  0  0  0  0  0  0  0  0  0  0  0
   -1.8575   -0.8123    0.2402 N   0  0  0  0  0  0  0  0  0  0  0  0
   -2.6005   -0.3333   -0.2478 H   0  0  0  0  0  0  0  0  0  0  0  0
   -0.5675   -0.1203    0.3102 C   0  0  1  0  0  0  0  0  0  0  0  0
    0.0191   -0.5718    1.1110 H   0  0  0  0  0  0  0  0  0  0  0  0
    0.1724   -0.3238   -1.0286 C   0  0  0  0  0  0  0  0  0  0  0  0
    1.0165    0.3674   -1.0690 H   0  0  0  0  0  0  0  0  0  0  0  0
    0.5753   -1.3390   -1.0404 H   0  0  0  0  0  0  0  0  0  0  0  0
   -0.6763   -0.1304   -2.2987 C   0  0  0  0  0  0  0  0  0  0  0  0
   -0.4580   -0.9253   -3.0119 H   0  0  0  0  0  0  0  0  0  0  0  0
   -2.1778   -0.1300   -1.9976 C   0  0  0  0  0  0  0  0  0  0  0  0
   -2.4100    0.6508   -1.2720 H   0  0  0  0  0  0  0  0  0  0  0  0
   -2.7362    0.0584   -2.9149 H   0  0  0  0  0  0  0  0  0  0  0  0
   -2.4895   -1.0919   -1.5964 H   0  0  0  0  0  0  0  0  0  0  0  0
   -0.3256    1.2041   -2.9557 C   0  0  0  0  0  0  0  0  0  0  0  0
    0.7339    1.2199   -3.2110 H   0  0  0  0  0  0  0  0  0  0  0  0
   -0.9052    1.3308   -3.8701 H   0  0  0  0  0  0  0  0  0  0  0  0
   -0.5439    2.0271   -2.2743 H   0  0  0  0  0  0  0  0  0  0  0  0
   -0.7793    1.3659    0.6455 C   0  0  0  0  0  0  0  0  0  0  0  0
   -1.6464    2.0125    0.0623 O   0  0  0  0  0  0  0  0  0  0  0  0
    0.0189    1.9059    1.5756 N   0  0  0  0  0  0  0  0  0  0  0  0
    0.7024    1.3094    2.0137 H   0  0  0  0  0  0  0  0  0  0  0  0
   -0.0451    3.3046    1.9929 C   0  0  0  0  0  0  0  0  0  0  0  0
   -1.0415    3.5286    2.3805 H   0  0  0  0  0  0  0  0  0  0  0  0
    0.6954    3.5023    2.7695 H   0  0  0  0  0  0  0  0  0  0  0  0
    0.1474    3.9536    1.1372 H   0  0  0  0  0  0  0  0  0  0  0  0
  5  6  2  0  0  0  0
  5  7  1  0  0  0  0
  2  3  1  0  0  0  0
  2  4  1  0  0  0  0
  2  5  1  0  0  0  0
  1  2  1  0  0  0  0
 24 25  2  0  0  0  0
 24 26  1  0  0  0  0
 20 21  1  0  0  0  0
 20 22  1  0  0  0  0
 20 23  1  0  0  0  0
 16 17  1  0  0  0  0
 16 18  1  0  0  0  0
 16 19  1  0  0  0  0
 14 15  1  0  0  0  0
 14 16  1  0  0  0  0
 14 20  1  0  0  0  0
 11 12  1  0  0  0  0
 11 13  1  0  0  0  0
 11 14  1  0  0  0  0
  9 10  1  0  0  0  0
  9 11  1  0  0  0  0
  9 24  1  0  0  0  0
  7  8  1  0  0  0  0
  7  9  1  0  0  0  0
 28 29  1  0  0  0  0
 28 30  1  0  0  0  0
 28 31  1  0  0  0  0
 26 27  1  0  0  0  0
 26 28  1  0  0  0  0
M  END
$$$$
default_name
  -OEChem-02102213163D

 31 30  0     1  0  0  0  0  0999 V2000
   -3.5895   -3.5013    1.1082 H   0  0  0  0  0  0  0  0  0  0  0  0
   -3.5145   -2.5363    0.6082 C   0  0  0  0  0  0  0  0  0  0  0  0
   -4.2285   -1.8413    1.0452 H   0  0  0  0  0  0  0  0  0  0  0  0
   -3.7155   -2.6583   -0.4538 H   0  0  0  0  0  0  0  0  0  0  0  0
   -2.1155   -1.9963    0.7922 C   0  0  0  0  0  0  0  0  0  0  0  0
   -1.2875   -2.6383    1.4252 O   0  0  0  0  0  0  0  0  0  0  0  0
   -1.8575   -0.8123    0.2402 N   0  0  0  0  0  0  0  0  0  0  0  0
   -2.6005   -0.3333   -0.2478 H   0  0  0  0  0  0  0  0  0  0  0  0
   -0.5675   -0.1203    0.3102 C   0  0  1  0  0  0  0  0  0  0  0  0
    0.0191   -0.5718    1.1110 H   0  0  0  0  0  0  0  0  0  0  0  0
    0.1724   -0.3238   -1.0286 C   0  0  0  0  0  0  0  0  0  0  0  0
    1.0165    0.3674   -1.0690 H   0  0  0  0  0  0  0  0  0  0  0  0
    0.5753   -1.3390   -1.0404 H   0  0  0  0  0  0  0  0  0  0  0  0
   -0.6763   -0.1304   -2.2987 C   0  0  0  0  0  0  0  0  0  0  0  0
   -0.6653   -1.0450   -2.8916 H   0  0  0  0  0  0  0  0  0  0  0  0
   -2.1277    0.2360   -1.9754 C   0  0  0  0  0  0  0  0  0  0  0  0
   -2.1546    1.1416   -1.3679 H   0  0  0  0  0  0  0  0  0  0  0  0
   -2.6770    0.4110   -2.9007 H   0  0  0  0  0  0  0  0  0  0  0  0
   -2.6158   -0.5706   -1.4326 H   0  0  0  0  0  0  0  0  0  0  0  0
   -0.0837    0.9922   -3.1496 C   0  0  0  0  0  0  0  0  0  0  0  0
    0.9417    0.7433   -3.4224 H   0  0  0  0  0  0  0  0  0  0  0  0
   -0.6667    1.1125   -4.0627 H   0  0  0  0  0  0  0  0  0  0  0  0
   -0.0904    1.9296   -2.5922 H   0  0  0  0  0  0  0  0  0  0  0  0
   -0.7793    1.3659    0.6455 C   0  0  0  0  0  0  0  0  0  0  0  0
   -1.6464    2.0125    0.0623 O   0  0  0  0  0  0  0  0  0  0  0  0
    0.0189    1.9059    1.5756 N   0  0  0  0  0  0  0  0  0  0  0  0
    0.7024    1.3094    2.0137 H   0  0  0  0  0  0  0  0  0  0  0  0
   -0.0451    3.3046    1.9929 C   0  0  0  0  0  0  0  0  0  0  0  0
   -1.0415    3.5286    2.3805 H   0  0  0  0  0  0  0  0  0  0  0  0
    0.6954    3.5023    2.7695 H   0  0  0  0  0  0  0  0  0  0  0  0
    0.1474    3.9536    1.1372 H   0  0  0  0  0  0  0  0  0  0  0  0
  5  6  2  0  0  0  0
  5  7  1  0  0  0  0
  2  3  1  0  0  0  0
  2  4  1  0  0  0  0
  2  5  1  0  0  0  0
  1  2  1  0  0  0  0
 24 25  2  0  0  0  0
 24 26  1  0  0  0  0
 20 21  1  0  0  0  0
 20 22  1  0  0  0  0
 20 23  1  0  0  0  0
 16 17  1  0  0  0  0
 16 18  1  0  0  0  0
 16 19  1  0  0  0  0
 14 15  1  0  0  0  0
 14 16  1  0  0  0  0
 14 20  1  0  0  0  0
 11 12  1  0  0  0  0
 11 13  1  0  0  0  0
 11 14  1  0  0  0  0
  9 10  1  0  0  0  0
  9 11  1  0  0  0  0
  9 24  1  0  0  0  0
  7  8  1  0  0  0  0
  7  9  1  0  0  0  0
 28 29  1  0  0  0  0
 28 30  1  0  0  0  0
 28 31  1  0  0  0  0
 26 27  1  0  0  0  0
 26 28  1  0  0  0  0
M  END
$$$$
default_name
  -OEChem-02102213163D

 31 30  0     1  0  0  0  0  0999 V2000
   -3.5895   -3.5013    1.1082 H   0  0  0  0  0  0  0  0  0  0  0  0
   -3.5145   -2.5363    0.6082 C   0  0  0  0  0  0  0  0  0  0  0  0
   -4.2285   -1.8413    1.0452 H   0  0  0  0  0  0  0  0  0  0  0  0
   -3.7155   -2.6583   -0.4538 H   0  0  0  0  0  0  0  0  0  0  0  0
   -2.1155   -1.9963    0.7922 C   0  0  0  0  0  0  0  0  0  0  0  0
   -1.2875   -2.6383    1.4252 O   0  0  0  0  0  0  0  0  0  0  0  0
   -1.8575   -0.8123    0.2402 N   0  0  0  0  0  0  0  0  0  0  0  0
   -2.6005   -0.3333   -0.2478 H   0  0  0  0  0  0  0  0  0  0  0  0
   -0.5675   -0.1203    0.3102 C   0  0  1  0  0  0  0  0  0  0  0  0
    0.0191   -0.5718    1.1110 H   0  0  0  0  0  0  0  0  0  0  0  0
    0.1724   -0.3238   -1.0286 C   0  0  0  0  0  0  0  0  0  0  0  0
    1.0165    0.3674   -1.0690 H   0  0  0  0  0  0  0  0  0  0  0  0
    0.5753   -1.3390   -1.0404 H   0  0  0  0  0  0  0  0  0  0  0  0
   -0.6763   -0.1304   -2.2987 C   0  0  0  0  0  0  0  0  0  0  0  0
   -0.8871   -1.0992   -2.7517 H   0  0  0  0  0  0  0  0  0  0  0  0
   -2.0004    0.5820   -2.0078 C   0  0  0  0  0  0  0  0  0  0  0  0
   -1.8063    1.5476   -1.5388 H   0  0  0  0  0  0  0  0  0  0  0  0
   -2.5442    0.7409   -2.9392 H   0  0  0  0  0  0  0  0  0  0  0  0
   -2.6211   -0.0167   -1.3447 H   0  0  0  0  0  0  0  0  0  0  0  0
    0.0984    0.7083   -3.3145 C   0  0  0  0  0  0  0  0  0  0  0  0
    1.0339    0.2084   -3.5655 H   0  0  0  0  0  0  0  0  0  0  0  0
   -0.4892    0.8234   -4.2253 H   0  0  0  0  0  0  0  0  0  0  0  0
    0.3166    1.6932   -2.9001 H   0  0  0  0  0  0  0  0  0  0  0  0
   -0.7793    1.3659    0.6455 C   0  0  0  0  0  0  0  0  0  0  0  0
   -1.6464    2.0125    0.0623 O   0  0  0  0  0  0  0  0  0  0  0  0
    0.0189    1.9059    1.5756 N   0  0  0  0  0  0  0  0  0  0  0  0
    0.7024    1.3094    2.0137 H   0  0  0  0  0  0  0  0  0  0  0  0
   -0.0451    3.3046    1.9929 C   0  0  0  0  0  0  0  0  0  0  0  0
   -1.0415    3.5286    2.3805 H   0  0  0  0  0  0  0  0  0  0  0  0
    0.6954    3.5023    2.7695 H   0  0  0  0  0  0  0  0  0  0  0  0
    0.1474    3.9536    1.1372 H   0  0  0  0  0  0  0  0  0  0  0  0
  5  6  2  0  0  0  0
  5  7  1  0  0  0  0
  2  3  1  0  0  0  0
  2  4  1  0  0  0  0
  2  5  1  0  0  0  0
  1  2  1  0  0  0  0
 24 25  2  0  0  0  0
 24 26  1  0  0  0  0
 20 21  1  0  0  0  0
 20 22  1  0  0  0  0
 20 23  1  0  0  0  0
 16 17  1  0  0  0  0
 16 18  1  0  0  0  0
 16 19  1  0  0  0  0
 14 15  1  0  0  0  0
 14 16  1  0  0  0  0
 14 20  1  0  0  0  0
 11 12  1  0  0  0  0
 11 13  1  0  0  0  0
 11 14  1  0  0  0  0
  9 10  1  0  0  0  0
  9 11  1  0  0  0  0
  9 24  1  0  0  0  0
  7  8  1  0  0  0  0
  7  9  1  0  0  0  0
 28 29  1  0  0  0  0
 28 30  1  0  0  0  0
 28 31  1  0  0  0  0
 26 27  1  0  0  0  0
 26 28  1  0  0  0  0
M  END
$$$$
default_name
  -OEChem-02102213163D

 31 30  0     1  0  0  0  0  0999 V2000
   -3.5895   -3.5013    1.1082 H   0  0  0  0  0  0  0  0  0  0  0  0
   -3.5145   -2.5363    0.6082 C   0  0  0  0  0  0  0  0  0  0  0  0
   -4.2285   -1.8413    1.0452 H   0  0  0  0  0  0  0  0  0  0  0  0
   -3.7155   -2.6583   -0.4538 H   0  0  0  0  0  0  0  0  0  0  0  0
   -2.1155   -1.9963    0.7922 C   0  0  0  0  0  0  0  0  0  0  0  0
   -1.2875   -2.6383    1.4252 O   0  0  0  0  0  0  0  0  0  0  0  0
   -1.8575   -0.8123    0.2402 N   0  0  0  0  0  0  0  0  0  0  0  0
   -2.6005   -0.3333   -0.2478 H   0  0  0  0  0  0  0  0  0  0  0  0
   -0.5675   -0.1203    0.3102 C   0  0  1  0  0  0  0  0  0  0  0  0
    0.0191   -0.5718    1.1110 H   0  0  0  0  0  0  0  0  0  0  0  0
    0.1724   -0.3238   -1.0286 C   0  0  0  0  0  0  0  0  0  0  0  0
    1.0165    0.3674   -1.0690 H   0  0  0  0  0  0  0  0  0  0  0  0
    0.5753   -1.3390   -1.0404 H   0  0  0  0  0  0  0  0  0  0  0  0
   -0.6763   -0.1304   -2.2987 C   0  0  0  0  0  0  0  0  0  0  0  0
   -1.1084   -1.0842   -2.6015 H   0  0  0  0  0  0  0  0  0  0  0  0
   -1.8046    0.8844   -2.0925 C   0  0  0  0  0  0  0  0  0  0  0  0
   -1.3887    1.8409   -1.7731 H   0  0  0  0  0  0  0  0  0  0  0  0
   -2.3466    1.0258   -3.0278 H   0  0  0  0  0  0  0  0  0  0  0  0
   -2.5052    0.5320   -1.3386 H   0  0  0  0  0  0  0  0  0  0  0  0
    0.2083    0.3716   -3.4392 C   0  0  0  0  0  0  0  0  0  0  0  0
    1.0040   -0.3484   -3.6303 H   0  0  0  0  0  0  0  0  0  0  0  0
   -0.3848    0.4830   -4.3470 H   0  0  0  0  0  0  0  0  0  0  0  0
    0.6491    1.3340   -3.1770 H   0  0  0  0  0  0  0  0  0  0  0  0
   -0.7793    1.3659    0.6455 C   0  0  0  0  0  0  0  0  0  0  0  0
   -1.6464    2.0125    0.0623 O   0  0  0  0  0  0  0  0  0  0  0  0
    0.0189    1.9059    1.5756 N   0  0  0  0  0  0  0  0  0  0  0  0
    0.7024    1.3094    2.0137 H   0  0  0  0  0  0  0  0  0  0  0  0
   -0.0451    3.3046    1.9929 C   0  0  0  0  0  0  0  0  0  0  0  0
   -1.0415    3.5286    2.3805 H   0  0  0  0  0  0  0  0  0  0  0  0
    0.6954    3.5023    2.7695 H   0  0  0  0  0  0  0  0  0  0  0  0
    0.1474    3.9536    1.1372 H   0  0  0  0  0  0  0  0  0  0  0  0
  5  6  2  0  0  0  0
  5  7  1  0  0  0  0
  2  3  1  0  0  0  0
  2  4  1  0  0  0  0
  2  5  1  0  0  0  0
  1  2  1  0  0  0  0
 24 25  2  0  0  0  0
 24 26  1  0  0  0  0
 20 21  1  0  0  0  0
 20 22  1  0  0  0  0
 20 23  1  0  0  0  0
 16 17  1  0  0  0  0
 16 18  1  0  0  0  0
 16 19  1  0  0  0  0
 14 15  1  0  0  0  0
 14 16  1  0  0  0  0
 14 20  1  0  0  0  0
 11 12  1  0  0  0  0
 11 13  1  0  0  0  0
 11 14  1  0  0  0  0
  9 10  1  0  0  0  0
  9 11  1  0  0  0  0
  9 24  1  0  0  0  0
  7  8  1  0  0  0  0
  7  9  1  0  0  0  0
 28 29  1  0  0  0  0
 28 30  1  0  0  0  0
 28 31  1  0  0  0  0
 26 27  1  0  0  0  0
 26 28  1  0  0  0  0
M  END
$$$$
default_name
  -OEChem-02102213163D

 31 30  0     1  0  0  0  0  0999 V2000
   -3.5895   -3.5013    1.1082 H   0  0  0  0  0  0  0  0  0  0  0  0
   -3.5145   -2.5363    0.6082 C   0  0  0  0  0  0  0  0  0  0  0  0
   -4.2285   -1.8413    1.0452 H   0  0  0  0  0  0  0  0  0  0  0  0
   -3.7155   -2.6583   -0.4538 H   0  0  0  0  0  0  0  0  0  0  0  0
   -2.1155   -1.9963    0.7922 C   0  0  0  0  0  0  0  0  0  0  0  0
   -1.2875   -2.6383    1.4252 O   0  0  0  0  0  0  0  0  0  0  0  0
   -1.8575   -0.8123    0.2402 N   0  0  0  0  0  0  0  0  0  0  0  0
   -2.6005   -0.3333   -0.2478 H   0  0  0  0  0  0  0  0  0  0  0  0
   -0.5675   -0.1203    0.3102 C   0  0  1  0  0  0  0  0  0  0  0  0
    0.0191   -0.5718    1.1110 H   0  0  0  0  0  0  0  0  0  0  0  0
    0.1724   -0.3238   -1.0286 C   0  0  0  0  0  0  0  0  0  0  0  0
    1.0165    0.3674   -1.0690 H   0  0  0  0  0  0  0  0  0  0  0  0
    0.5753   -1.3390   -1.0404 H   0  0  0  0  0  0  0  0  0  0  0  0
   -0.6763   -0.1304   -2.2987 C   0  0  0  0  0  0  0  0  0  0  0  0
   -1.3141   -1.0011   -2.4514 H   0  0  0  0  0  0  0  0  0  0  0  0
   -1.5537    1.1226   -2.2239 C   0  0  0  0  0  0  0  0  0  0  0  0
   -0.9304    2.0017   -2.0549 H   0  0  0  0  0  0  0  0  0  0  0  0
   -2.0979    1.2461   -3.1605 H   0  0  0  0  0  0  0  0  0  0  0  0
   -2.2759    1.0381   -1.4148 H   0  0  0  0  0  0  0  0  0  0  0  0
    0.2386    0.0051   -3.5153 C   0  0  0  0  0  0  0  0  0  0  0  0
    0.8542   -0.8890   -3.6125 H   0  0  0  0  0  0  0  0  0  0  0  0
   -0.3605    0.1145   -4.4193 H   0  0  0  0  0  0  0  0  0  0  0  0
    0.8847    0.8766   -3.4041 H   0  0  0  0  0  0  0  0  0  0  0  0
   -0.7793    1.3659    0.6455 C   0  0  0  0  0  0  0  0  0  0  0  0
   -1.6464    2.0125    0.0623 O   0  0  0  0  0  0  0  0  0  0  0  0
    0.0189    1.9059    1.5756 N   0  0  0  0  0  0  0  0  0  0  0  0
    0.7024    1.3094    2.0137 H   0  0  0  0  0  0  0  0  0  0  0  0
   -0.0451    3.3046    1.9929 C   0  0  0  0  0  0  0  0  0  0  0  0
   -1.0415    3.5286    2.3805 H   0  0  0  0  0  0  0  0  0  0  0  0
    0.6954    3.5023    2.7695 H   0  0  0  0  0  0  0  0  0  0  0  0
    0.1474    3.9536    1.1372 H   0  0  0  0  0  0  0  0  0  0  0  0
  5  6  2  0  0  0  0
  5  7  1  0  0  0  0
  2  3  1  0  0  0  0
  2  4  1  0  0  0  0
  2  5  1  0  0  0  0
  1  2  1  0  0  0  0
 24 25  2  0  0  0  0
 24 26  1  0  0  0  0
 20 21  1  0  0  0  0
 20 22  1  0  0  0  0
 20 23  1  0  0  0  0
 16 17  1  0  0  0  0
 16 18  1  0  0  0  0
 16 19  1  0  0  0  0
 14 15  1  0  0  0  0
 14 16  1  0  0  0  0
 14 20  1  0  0  0  0
 11 12  1  0  0  0  0
 11 13  1  0  0  0  0
 11 14  1  0  0  0  0
  9 10  1  0  0  0  0
  9 11  1  0  0  0  0
  9 24  1  0  0  0  0
  7  8  1  0  0  0  0
  7  9  1  0  0  0  0
 28 29  1  0  0  0  0
 28 30  1  0  0  0  0
 28 31  1  0  0  0  0
 26 27  1  0  0  0  0
 26 28  1  0  0  0  0
M  END
$$$$
default_name
  -OEChem-02102213163D

 31 30  0     1  0  0  0  0  0999 V2000
   -3.5895   -3.5013    1.1082 H   0  0  0  0  0  0  0  0  0  0  0  0
   -3.5145   -2.5363    0.6082 C   0  0  0  0  0  0  0  0  0  0  0  0
   -4.2285   -1.8413    1.0452 H   0  0  0  0  0  0  0  0  0  0  0  0
   -3.7155   -2.6583   -0.4538 H   0  0  0  0  0  0  0  0  0  0  0  0
   -2.1155   -1.9963    0.7922 C   0  0  0  0  0  0  0  0  0  0  0  0
   -1.2875   -2.6383    1.4252 O   0  0  0  0  0  0  0  0  0  0  0  0
   -1.8575   -0.8123    0.2402 N   0  0  0  0  0  0  0  0  0  0  0  0
   -2.6005   -0.3333   -0.2478 H   0  0  0  0  0  0  0  0  0  0  0  0
   -0.5675   -0.1203    0.3102 C   0  0  1  0  0  0  0  0  0  0  0  0
    0.0191   -0.5718    1.1110 H   0  0  0  0  0  0  0  0  0  0  0  0
    0.1724   -0.3238   -1.0286 C   0  0  0  0  0  0  0  0  0  0  0  0
    1.0165    0.3674   -1.0690 H   0  0  0  0  0  0  0  0  0  0  0  0
    0.5753   -1.3390   -1.0404 H   0  0  0  0  0  0  0  0  0  0  0  0
   -0.6763   -0.1304   -2.2987 C   0  0  0  0  0  0  0  0  0  0  0  0
   -1.4901   -0.8555   -2.3116 H   0  0  0  0  0  0  0  0  0  0  0  0
   -1.2647    1.2803   -2.3930 C   0  0  0  0  0  0  0  0  0  0  0  0
   -0.4625    2.0190   -2.3649 H   0  0  0  0  0  0  0  0  0  0  0  0
   -1.8149    1.3869   -3.3281 H   0  0  0  0  0  0  0  0  0  0  0  0
   -1.9488    1.4672   -1.5680 H   0  0  0  0  0  0  0  0  0  0  0  0
    0.1871   -0.3661   -3.5374 C   0  0  0  0  0  0  0  0  0  0  0  0
    0.5946   -1.3767   -3.5134 H   0  0  0  0  0  0  0  0  0  0  0  0
   -0.4181   -0.2569   -4.4374 H   0  0  0  0  0  0  0  0  0  0  0  0
    1.0072    0.3521   -3.5659 H   0  0  0  0  0  0  0  0  0  0  0  0
   -0.7793    1.3659    0.6455 C   0  0  0  0  0  0  0  0  0  0  0  0
   -1.6464    2.0125    0.0623 O   0  0  0  0  0  0  0  0  0  0  0  0
    0.0189    1.9059    1.5756 N   0  0  0  0  0  0  0  0  0  0  0  0
    0.7024    1.3094    2.0137 H   0  0  0  0  0  0  0  0  0  0  0  0
   -0.0451    3.3046    1.9929 C   0  0  0  0  0  0  0  0  0  0  0  0
   -1.0415    3.5286    2.3805 H   0  0  0  0  0  0  0  0  0  0  0  0
    0.6954    3.5023    2.7695 H   0  0  0  0  0  0  0  0  0  0  0  0
    0.1474    3.9536    1.1372 H   0  0  0  0  0  0  0  0  0  0  0  0
  5  6  2  0  0  0  0
  5  7  1  0  0  0  0
  2  3  1  0  0  0  0
  2  4  1  0  0  0  0
  2  5  1  0  0  0  0
  1  2  1  0  0  0  0
 24 25  2  0  0  0  0
 24 26  1  0  0  0  0
 20 21  1  0  0  0  0
 20 22  1  0  0  0  0
 20 23  1  0  0  0  0
 16 17  1  0  0  0  0
 16 18  1  0  0  0  0
 16 19  1  0  0  0  0
 14 15  1  0  0  0  0
 14 16  1  0  0  0  0
 14 20  1  0  0  0  0
 11 12  1  0  0  0  0
 11 13  1  0  0  0  0
 11 14  1  0  0  0  0
  9 10  1  0  0  0  0
  9 11  1  0  0  0  0
  9 24  1  0  0  0  0
  7  8  1  0  0  0  0
  7  9  1  0  0  0  0
 28 29  1  0  0  0  0
 28 30  1  0  0  0  0
 28 31  1  0  0  0  0
 26 27  1  0  0  0  0
 26 28  1  0  0  0  0
M  END
$$$$
default_name
  -OEChem-02102213163D

 31 30  0     1  0  0  0  0  0999 V2000
   -3.5895   -3.5013    1.1082 H   0  0  0  0  0  0  0  0  0  0  0  0
   -3.5145   -2.5363    0.6082 C   0  0  0  0  0  0  0  0  0  0  0  0
   -4.2285   -1.8413    1.0452 H   0  0  0  0  0  0  0  0  0  0  0  0
   -3.7155   -2.6583   -0.4538 H   0  0  0  0  0  0  0  0  0  0  0  0
   -2.1155   -1.9963    0.7922 C   0  0  0  0  0  0  0  0  0  0  0  0
   -1.2875   -2.6383    1.4252 O   0  0  0  0  0  0  0  0  0  0  0  0
   -1.8575   -0.8123    0.2402 N   0  0  0  0  0  0  0  0  0  0  0  0
   -2.6005   -0.3333   -0.2478 H   0  0  0  0  0  0  0  0  0  0  0  0
   -0.5675   -0.1203    0.3102 C   0  0  1  0  0  0  0  0  0  0  0  0
    0.0191   -0.5718    1.1110 H   0  0  0  0  0  0  0  0  0  0  0  0
    0.1724   -0.3238   -1.0286 C   0  0  0  0  0  0  0  0  0  0  0  0
    1.0165    0.3674   -1.0690 H   0  0  0  0  0  0  0  0  0  0  0  0
    0.5753   -1.3390   -1.0404 H   0  0  0  0  0  0  0  0  0  0  0  0
   -0.6763   -0.1304   -2.2987 C   0  0  0  0  0  0  0  0  0  0  0  0
   -1.6245   -0.6573   -2.1916 H   0  0  0  0  0  0  0  0  0  0  0  0
   -0.9574    1.3469   -2.5882 C   0  0  0  0  0  0  0  0  0  0  0  0
   -0.0170    1.8915   -2.6821 H   0  0  0  0  0  0  0  0  0  0  0  0
   -1.5170    1.4386   -3.5193 H   0  0  0  0  0  0  0  0  0  0  0  0
   -1.5462    1.7899   -1.7878 H   0  0  0  0  0  0  0  0  0  0  0  0
    0.0574   -0.7169   -3.5042 C   0  0  0  0  0  0  0  0  0  0  0  0
    0.2430   -1.7783   -3.3396 H   0  0  0  0  0  0  0  0  0  0  0  0
   -0.5536   -0.6060   -4.4000 H   0  0  0  0  0  0  0  0  0  0  0  0
    1.0083   -0.2038   -3.6513 H   0  0  0  0  0  0  0  0  0  0  0  0
   -0.7793    1.3659    0.6455 C   0  0  0  0  0  0  0  0  0  0  0  0
   -1.6464    2.0125    0.0623 O   0  0  0  0  0  0  0  0  0  0  0  0
    0.0189    1.9059    1.5756 N   0  0  0  0  0  0  0  0  0  0  0  0
    0.7024    1.3094    2.0137 H   0  0  0  0  0  0  0  0  0  0  0  0
   -0.0451    3.3046    1.9929 C   0  0  0  0  0  0  0  0  0  0  0  0
   -1.0415    3.5286    2.3805 H   0  0  0  0  0  0  0  0  0  0  0  0
    0.6954    3.5023    2.7695 H   0  0  0  0  0  0  0  0  0  0  0  0
    0.1474    3.9536    1.1372 H   0  0  0  0  0  0  0  0  0  0  0  0
  5  6  2  0  0  0  0
  5  7  1  0  0  0  0
  2  3  1  0  0  0  0
  2  4  1  0  0  0  0
  2  5  1  0  0  0  0
  1  2  1  0  0  0  0
 24 25  2  0  0  0  0
 24 26  1  0  0  0  0
 20 21  1  0  0  0  0
 20 22  1  0  0  0  0
 20 23  1  0  0  0  0
 16 17  1  0  0  0  0
 16 18  1  0  0  0  0
 16 19  1  0  0  0  0
 14 15  1  0  0  0  0
 14 16  1  0  0  0  0
 14 20  1  0  0  0  0
 11 12  1  0  0  0  0
 11 13  1  0  0  0  0
 11 14  1  0  0  0  0
  9 10  1  0  0  0  0
  9 11  1  0  0  0  0
  9 24  1  0  0  0  0
  7  8  1  0  0  0  0
  7  9  1  0  0  0  0
 28 29  1  0  0  0  0
 28 30  1  0  0  0  0
 28 31  1  0  0  0  0
 26 27  1  0  0  0  0
 26 28  1  0  0  0  0
M  END
$$$$
default_name
  -OEChem-02102213163D

 31 30  0     1  0  0  0  0  0999 V2000
   -3.5895   -3.5013    1.1082 H   0  0  0  0  0  0  0  0  0  0  0  0
   -3.5145   -2.5363    0.6082 C   0  0  0  0  0  0  0  0  0  0  0  0
   -4.2285   -1.8413    1.0452 H   0  0  0  0  0  0  0  0  0  0  0  0
   -3.7155   -2.6583   -0.4538 H   0  0  0  0  0  0  0  0  0  0  0  0
   -2.1155   -1.9963    0.7922 C   0  0  0  0  0  0  0  0  0  0  0  0
   -1.2875   -2.6383    1.4252 O   0  0  0  0  0  0  0  0  0  0  0  0
   -1.8575   -0.8123    0.2402 N   0  0  0  0  0  0  0  0  0  0  0  0
   -2.6005   -0.3333   -0.2478 H   0  0  0  0  0  0  0  0  0  0  0  0
   -0.5675   -0.1203    0.3102 C   0  0  1  0  0  0  0  0  0  0  0  0
    0.0191   -0.5718    1.1110 H   0  0  0  0  0  0  0  0  0  0  0  0
    0.1724   -0.3238   -1.0286 C   0  0  0  0  0  0  0  0  0  0  0  0
    1.0165    0.3674   -1.0690 H   0  0  0  0  0  0  0  0  0  0  0  0
    0.5753   -1.3390   -1.0404 H   0  0  0  0  0  0  0  0  0  0  0  0
   -0.6763   -0.1304   -2.2987 C   0  0  0  0  0  0  0  0  0  0  0  0
   -1.7081   -0.4201   -2.0996 H   0  0  0  0  0  0  0  0  0  0  0  0
   -0.6528    1.3178   -2.7962 C   0  0  0  0  0  0  0  0  0  0  0  0
    0.3759    1.6281   -2.9847 H   0  0  0  0  0  0  0  0  0  0  0  0
   -1.2244    1.3976   -3.7211 H   0  0  0  0  0  0  0  0  0  0  0  0
   -1.0956    1.9844   -2.0593 H   0  0  0  0  0  0  0  0  0  0  0  0
   -0.1418   -1.0233   -3.4178 C   0  0  0  0  0  0  0  0  0  0  0  0
   -0.1767   -2.0663   -3.1030 H   0  0  0  0  0  0  0  0  0  0  0  0
   -0.7578   -0.9089   -4.3097 H   0  0  0  0  0  0  0  0  0  0  0  0
    0.8880   -0.7531   -3.6545 H   0  0  0  0  0  0  0  0  0  0  0  0
   -0.7793    1.3659    0.6455 C   0  0  0  0  0  0  0  0  0  0  0  0
   -1.6464    2.0125    0.0623 O   0  0  0  0  0  0  0  0  0  0  0  0
    0.0189    1.9059    1.5756 N   0  0  0  0  0  0  0  0  0  0  0  0
    0.7024    1.3094    2.0137 H   0  0  0  0  0  0  0  0  0  0  0  0
   -0.0451    3.3046    1.9929 C   0  0  0  0  0  0  0  0  0  0  0  0
   -1.0415    3.5286    2.3805 H   0  0  0  0  0  0  0  0  0  0  0  0
    0.6954    3.5023    2.7695 H   0  0  0  0  0  0  0  0  0  0  0  0
    0.1474    3.9536    1.1372 H   0  0  0  0  0  0  0  0  0  0  0  0
  5  6  2  0  0  0  0
  5  7  1  0  0  0  0
  2  3  1  0  0  0  0
  2  4  1  0  0  0  0
  2  5  1  0  0  0  0
  1  2  1  0  0  0  0
 24 25  2  0  0  0  0
 24 26  1  0  0  0  0
 20 21  1  0  0  0  0
 20 22  1  0  0  0  0
 20 23  1  0  0  0  0
 16 17  1  0  0  0  0
 16 18  1  0  0  0  0
 16 19  1  0  0  0  0
 14 15  1  0  0  0  0
 14 16  1  0  0  0  0
 14 20  1  0  0  0  0
 11 12  1  0  0  0  0
 11 13  1  0  0  0  0
 11 14  1  0  0  0  0
  9 10  1  0  0  0  0
  9 11  1  0  0  0  0
  9 24  1  0  0  0  0
  7  8  1  0  0  0  0
  7  9  1  0  0  0  0
 28 29  1  0  0  0  0
 28 30  1  0  0  0  0
 28 31  1  0  0  0  0
 26 27  1  0  0  0  0
 26 28  1  0  0  0  0
M  END
$$$$
default_name
  -OEChem-02102213163D

 31 30  0     1  0  0  0  0  0999 V2000
   -3.5895   -3.5013    1.1082 H   0  0  0  0  0  0  0  0  0  0  0  0
   -3.5145   -2.5363    0.6082 C   0  0  0  0  0  0  0  0  0  0  0  0
   -4.2285   -1.8413    1.0452 H   0  0  0  0  0  0  0  0  0  0  0  0
   -3.7155   -2.6583   -0.4538 H   0  0  0  0  0  0  0  0  0  0  0  0
   -2.1155   -1.9963    0.7922 C   0  0  0  0  0  0  0  0  0  0  0  0
   -1.2875   -2.6383    1.4252 O   0  0  0  0  0  0  0  0  0  0  0  0
   -1.8575   -0.8123    0.2402 N   0  0  0  0  0  0  0  0  0  0  0  0
   -2.6005   -0.3333   -0.2478 H   0  0  0  0  0  0  0  0  0  0  0  0
   -0.5675   -0.1203    0.3102 C   0  0  1  0  0  0  0  0  0  0  0  0
    0.0191   -0.5718    1.1110 H   0  0  0  0  0  0  0  0  0  0  0  0
    0.1724   -0.3238   -1.0286 C   0  0  0  0  0  0  0  0  0  0  0  0
    1.0165    0.3674   -1.0690 H   0  0  0  0  0  0  0  0  0  0  0  0
    0.5753   -1.3390   -1.0404 H   0  0  0  0  0  0  0  0  0  0  0  0
   -0.6763   -0.1304   -2.2987 C   0  0  0  0  0  0  0  0  0  0  0  0
   -1.7352   -0.1599   -2.0419 H   0  0  0  0  0  0  0  0  0  0  0  0
   -0.3714    1.1949   -3.0029 C   0  0  0  0  0  0  0  0  0  0  0  0
    0.6893    1.2465   -3.2522 H   0  0  0  0  0  0  0  0  0  0  0  0
   -0.9571    1.2667   -3.9197 H   0  0  0  0  0  0  0  0  0  0  0  0
   -0.6277    2.0373   -2.3639 H   0  0  0  0  0  0  0  0  0  0  0  0
   -0.3967   -1.2645   -3.2841 C   0  0  0  0  0  0  0  0  0  0  0  0
   -0.6358   -2.2211   -2.8197 H   0  0  0  0  0  0  0  0  0  0  0  0
   -1.0167   -1.1449   -4.1726 H   0  0  0  0  0  0  0  0  0  0  0  0
    0.6543   -1.2585   -3.5753 H   0  0  0  0  0  0  0  0  0  0  0  0
   -0.7793    1.3659    0.6455 C   0  0  0  0  0  0  0  0  0  0  0  0
   -1.6464    2.0125    0.0623 O   0  0  0  0  0  0  0  0  0  0  0  0
    0.0189    1.9059    1.5756 N   0  0  0  0  0  0  0  0  0  0  0  0
    0.7024    1.3094    2.0137 H   0  0  0  0  0  0  0  0  0  0  0  0
   -0.0451    3.3046    1.9929 C   0  0  0  0  0  0  0  0  0  0  0  0
   -1.0415    3.5286    2.3805 H   0  0  0  0  0  0  0  0  0  0  0  0
    0.6954    3.5023    2.7695 H   0  0  0  0  0  0  0  0  0  0  0  0
    0.1474    3.9536    1.1372 H   0  0  0  0  0  0  0  0  0  0  0  0
  5  6  2  0  0  0  0
  5  7  1  0  0  0  0
  2  3  1  0  0  0  0
  2  4  1  0  0  0  0
  2  5  1  0  0  0  0
  1  2  1  0  0  0  0
 24 25  2  0  0  0  0
 24 26  1  0  0  0  0
 20 21  1  0  0  0  0
 20 22  1  0  0  0  0
 20 23  1  0  0  0  0
 16 17  1  0  0  0  0
 16 18  1  0  0  0  0
 16 19  1  0  0  0  0
 14 15  1  0  0  0  0
 14 16  1  0  0  0  0
 14 20  1  0  0  0  0
 11 12  1  0  0  0  0
 11 13  1  0  0  0  0
 11 14  1  0  0  0  0
  9 10  1  0  0  0  0
  9 11  1  0  0  0  0
  9 24  1  0  0  0  0
  7  8  1  0  0  0  0
  7  9  1  0  0  0  0
 28 29  1  0  0  0  0
 28 30  1  0  0  0  0
 28 31  1  0  0  0  0
 26 27  1  0  0  0  0
 26 28  1  0  0  0  0
M  END
$$$$
default_name
  -OEChem-02102213163D

 31 30  0     1  0  0  0  0  0999 V2000
   -3.5895   -3.5013    1.1082 H   0  0  0  0  0  0  0  0  0  0  0  0
   -3.5145   -2.5363    0.6082 C   0  0  0  0  0  0  0  0  0  0  0  0
   -4.2285   -1.8413    1.0452 H   0  0  0  0  0  0  0  0  0  0  0  0
   -3.7155   -2.6583   -0.4538 H   0  0  0  0  0  0  0  0  0  0  0  0
   -2.1155   -1.9963    0.7922 C   0  0  0  0  0  0  0  0  0  0  0  0
   -1.2875   -2.6383    1.4252 O   0  0  0  0  0  0  0  0  0  0  0  0
   -1.8575   -0.8123    0.2402 N   0  0  0  0  0  0  0  0  0  0  0  0
   -2.6005   -0.3333   -0.2478 H   0  0  0  0  0  0  0  0  0  0  0  0
   -0.5675   -0.1203    0.3102 C   0  0  1  0  0  0  0  0  0  0  0  0
    0.0191   -0.5718    1.1110 H   0  0  0  0  0  0  0  0  0  0  0  0
    0.1724   -0.3238   -1.0286 C   0  0  0  0  0  0  0  0  0  0  0  0
    1.0165    0.3674   -1.0690 H   0  0  0  0  0  0  0  0  0  0  0  0
    0.5753   -1.3390   -1.0404 H   0  0  0  0  0  0  0  0  0  0  0  0
   -0.6763   -0.1304   -2.2987 C   0  0  0  0  0  0  0  0  0  0  0  0
   -1.7040    0.1053   -2.0224 H   0  0  0  0  0  0  0  0  0  0  0  0
   -0.1327    0.9867   -3.1941 C   0  0  0  0  0  0  0  0  0  0  0  0
    0.9018    0.7729   -3.4664 H   0  0  0  0  0  0  0  0  0  0  0  0
   -0.7333    1.0550   -4.1015 H   0  0  0  0  0  0  0  0  0  0  0  0
   -0.1743    1.9450   -2.6810 H   0  0  0  0  0  0  0  0  0  0  0  0
   -0.6901   -1.4239   -3.1124 C   0  0  0  0  0  0  0  0  0  0  0  0
   -1.1032   -2.2322   -2.5091 H   0  0  0  0  0  0  0  0  0  0  0  0
   -1.3128   -1.2981   -3.9981 H   0  0  0  0  0  0  0  0  0  0  0  0
    0.3233   -1.6855   -3.4191 H   0  0  0  0  0  0  0  0  0  0  0  0
   -0.7793    1.3659    0.6455 C   0  0  0  0  0  0  0  0  0  0  0  0
   -1.6464    2.0125    0.0623 O   0  0  0  0  0  0  0  0  0  0  0  0
    0.0189    1.9059    1.5756 N   0  0  0  0  0  0  0  0  0  0  0  0
    0.7024    1.3094    2.0137 H   0  0  0  0  0  0  0  0  0  0  0  0
   -0.0451    3.3046    1.9929 C   0  0  0  0  0  0  0  0  0  0  0  0
   -1.0415    3.5286    2.3805 H   0  0  0  0  0  0  0  0  0  0  0  0
    0.6954    3.5023    2.7695 H   0  0  0  0  0  0  0  0  0  0  0  0
    0.1474    3.9536    1.1372 H   0  0  0  0  0  0  0  0  0  0  0  0
  5  6  2  0  0  0  0
  5  7  1  0  0  0  0
  2  3  1  0  0  0  0
  2  4  1  0  0  0  0
  2  5  1  0  0  0  0
  1  2  1  0  0  0  0
 24 25  2  0  0  0  0
 24 26  1  0  0  0  0
 20 21  1  0  0  0  0
 20 22  1  0  0  0  0
 20 23  1  0  0  0  0
 16 17  1  0  0  0  0
 16 18  1  0  0  0  0
 16 19  1  0  0  0  0
 14 15  1  0  0  0  0
 14 16  1  0  0  0  0
 14 20  1  0  0  0  0
 11 12  1  0  0  0  0
 11 13  1  0  0  0  0
 11 14  1  0  0  0  0
  9 10  1  0  0  0  0
  9 11  1  0  0  0  0
  9 24  1  0  0  0  0
  7  8  1  0  0  0  0
  7  9  1  0  0  0  0
 28 29  1  0  0  0  0
 28 30  1  0  0  0  0
 28 31  1  0  0  0  0
 26 27  1  0  0  0  0
 26 28  1  0  0  0  0
M  END
$$$$
default_name
  -OEChem-02102213163D

 31 30  0     1  0  0  0  0  0999 V2000
   -3.5895   -3.5013    1.1082 H   0  0  0  0  0  0  0  0  0  0  0  0
   -3.5145   -2.5363    0.6082 C   0  0  0  0  0  0  0  0  0  0  0  0
   -4.2285   -1.8413    1.0452 H   0  0  0  0  0  0  0  0  0  0  0  0
   -3.7155   -2.6583   -0.4538 H   0  0  0  0  0  0  0  0  0  0  0  0
   -2.1155   -1.9963    0.7922 C   0  0  0  0  0  0  0  0  0  0  0  0
   -1.2875   -2.6383    1.4252 O   0  0  0  0  0  0  0  0  0  0  0  0
   -1.8575   -0.8123    0.2402 N   0  0  0  0  0  0  0  0  0  0  0  0
   -2.6005   -0.3333   -0.2478 H   0  0  0  0  0  0  0  0  0  0  0  0
   -0.5675   -0.1203    0.3102 C   0  0  1  0  0  0  0  0  0  0  0  0
    0.0191   -0.5718    1.1110 H   0  0  0  0  0  0  0  0  0  0  0  0
    0.1724   -0.3238   -1.0286 C   0  0  0  0  0  0  0  0  0  0  0  0
    1.0165    0.3674   -1.0690 H   0  0  0  0  0  0  0  0  0  0  0  0
    0.5753   -1.3390   -1.0404 H   0  0  0  0  0  0  0  0  0  0  0  0
   -0.6763   -0.1304   -2.2987 C   0  0  0  0  0  0  0  0  0  0  0  0
   -1.6166    0.3577   -2.0423 H   0  0  0  0  0  0  0  0  0  0  0  0
    0.0473    0.7073   -3.3570 C   0  0  0  0  0  0  0  0  0  0  0  0
    0.9991    0.2395   -3.6126 H   0  0  0  0  0  0  0  0  0  0  0  0
   -0.5682    0.7767   -4.2542 H   0  0  0  0  0  0  0  0  0  0  0  0
    0.2336    1.7138   -2.9887 H   0  0  0  0  0  0  0  0  0  0  0  0
   -1.0019   -1.4908   -2.9142 C   0  0  0  0  0  0  0  0  0  0  0  0
   -1.5470   -2.0988   -2.1923 H   0  0  0  0  0  0  0  0  0  0  0  0
   -1.6259   -1.3580   -3.7980 H   0  0  0  0  0  0  0  0  0  0  0  0
   -0.0826   -2.0050   -3.1966 H   0  0  0  0  0  0  0  0  0  0  0  0
   -0.7793    1.3659    0.6455 C   0  0  0  0  0  0  0  0  0  0  0  0
   -1.6464    2.0125    0.0623 O   0  0  0  0  0  0  0  0  0  0  0  0
    0.0189    1.9059    1.5756 N   0  0  0  0  0  0  0  0  0  0  0  0
    0.7024    1.3094    2.0137 H   0  0  0  0  0  0  0  0  0  0  0  0
   -0.0451    3.3046    1.9929 C   0  0  0  0  0  0  0  0  0  0  0  0
   -1.0415    3.5286    2.3805 H   0  0  0  0  0  0  0  0  0  0  0  0
    0.6954    3.5023    2.7695 H   0  0  0  0  0  0  0  0  0  0  0  0
    0.1474    3.9536    1.1372 H   0  0  0  0  0  0  0  0  0  0  0  0
  5  6  2  0  0  0  0
  5  7  1  0  0  0  0
  2  3  1  0  0  0  0
  2  4  1  0  0  0  0
  2  5  1  0  0  0  0
  1  2  1  0  0  0  0
 24 25  2  0  0  0  0
 24 26  1  0  0  0  0
 20 21  1  0  0  0  0
 20 22  1  0  0  0  0
 20 23  1  0  0  0  0
 16 17  1  0  0  0  0
 16 18  1  0  0  0  0
 16 19  1  0  0  0  0
 14 15  1  0  0  0  0
 14 16  1  0  0  0  0
 14 20  1  0  0  0  0
 11 12  1  0  0  0  0
 11 13  1  0  0  0  0
 11 14  1  0  0  0  0
  9 10  1  0  0  0  0
  9 11  1  0  0  0  0
  9 24  1  0  0  0  0
  7  8  1  0  0  0  0
  7  9  1  0  0  0  0
 28 29  1  0  0  0  0
 28 30  1  0  0  0  0
 28 31  1  0  0  0  0
 26 27  1  0  0  0  0
 26 28  1  0  0  0  0
M  END
$$$$
default_name
  -OEChem-02102213163D

 31 30  0     1  0  0  0  0  0999 V2000
   -3.5895   -3.5013    1.1082 H   0  0  0  0  0  0  0  0  0  0  0  0
   -3.5145   -2.5363    0.6082 C   0  0  0  0  0  0  0  0  0  0  0  0
   -4.2285   -1.8413    1.0452 H   0  0  0  0  0  0  0  0  0  0  0  0
   -3.7155   -2.6583   -0.4538 H   0  0  0  0  0  0  0  0  0  0  0  0
   -2.1155   -1.9963    0.7922 C   0  0  0  0  0  0  0  0  0  0  0  0
   -1.2875   -2.6383    1.4252 O   0  0  0  0  0  0  0  0  0  0  0  0
   -1.8575   -0.8123    0.2402 N   0  0  0  0  0  0  0  0  0  0  0  0
   -2.6005   -0.3333   -0.2478 H   0  0  0  0  0  0  0  0  0  0  0  0
   -0.5675   -0.1203    0.3102 C   0  0  1  0  0  0  0  0  0  0  0  0
    0.0191   -0.5718    1.1110 H   0  0  0  0  0  0  0  0  0  0  0  0
    0.1724   -0.3238   -1.0286 C   0  0  0  0  0  0  0  0  0  0  0  0
    1.0165    0.3674   -1.0690 H   0  0  0  0  0  0  0  0  0  0  0  0
    0.5753   -1.3390   -1.0404 H   0  0  0  0  0  0  0  0  0  0  0  0
   -0.6763   -0.1304   -2.2987 C   0  0  0  0  0  0  0  0  0  0  0  0
   -1.4789    0.5800   -2.1005 H   0  0  0  0  0  0  0  0  0  0  0  0
    0.1562    0.3758   -3.4802 C   0  0  0  0  0  0  0  0  0  0  0  0
    0.9743   -0.3173   -3.6809 H   0  0  0  0  0  0  0  0  0  0  0  0
   -0.4731    0.4509   -4.3673 H   0  0  0  0  0  0  0  0  0  0  0  0
    0.5683    1.3596   -3.2663 H   0  0  0  0  0  0  0  0  0  0  0  0
   -1.3109   -1.4605   -2.7031 C   0  0  0  0  0  0  0  0  0  0  0  0
   -1.9368   -1.8301   -1.8909 H   0  0  0  0  0  0  0  0  0  0  0  0
   -1.9345   -1.3205   -3.5861 H   0  0  0  0  0  0  0  0  0  0  0  0
   -0.5356   -2.1952   -2.9229 H   0  0  0  0  0  0  0  0  0  0  0  0
   -0.7793    1.3659    0.6455 C   0  0  0  0  0  0  0  0  0  0  0  0
   -1.6464    2.0125    0.0623 O   0  0  0  0  0  0  0  0  0  0  0  0
    0.0189    1.9059    1.5756 N   0  0  0  0  0  0  0  0  0  0  0  0
    0.7024    1.3094    2.0137 H   0  0  0  0  0  0  0  0  0  0  0  0
   -0.0451    3.3046    1.9929 C   0  0  0  0  0  0  0  0  0  0  0  0
   -1.0415    3.5286    2.3805 H   0  0  0  0  0  0  0  0  0  0  0  0
    0.6954    3.5023    2.7695 H   0  0  0  0  0  0  0  0  0  0  0  0
    0.1474    3.9536    1.1372 H   0  0  0  0  0  0  0  0  0  0  0  0
  5  6  2  0  0  0  0
  5  7  1  0  0  0  0
  2  3  1  0  0  0  0
  2  4  1  0  0  0  0
  2  5  1  0  0  0  0
  1  2  1  0  0  0  0
 24 25  2  0  0  0  0
 24 26  1  0  0  0  0
 20 21  1  0  0  0  0
 20 22  1  0  0  0  0
 20 23  1  0  0  0  0
 16 17  1  0  0  0  0
 16 18  1  0  0  0  0
 16 19  1  0  0  0  0
 14 15  1  0  0  0  0
 14 16  1  0  0  0  0
 14 20  1  0  0  0  0
 11 12  1  0  0  0  0
 11 13  1  0  0  0  0
 11 14  1  0  0  0  0
  9 10  1  0  0  0  0
  9 11  1  0  0  0  0
  9 24  1  0  0  0  0
  7  8  1  0  0  0  0
  7  9  1  0  0  0  0
 28 29  1  0  0  0  0
 28 30  1  0  0  0  0
 28 31  1  0  0  0  0
 26 27  1  0  0  0  0
 26 28  1  0  0  0  0
M  END
$$$$
default_name
  -OEChem-02102213163D

 31 30  0     1  0  0  0  0  0999 V2000
   -3.5895   -3.5013    1.1082 H   0  0  0  0  0  0  0  0  0  0  0  0
   -3.5145   -2.5363    0.6082 C   0  0  0  0  0  0  0  0  0  0  0  0
   -4.2285   -1.8413    1.0452 H   0  0  0  0  0  0  0  0  0  0  0  0
   -3.7155   -2.6583   -0.4538 H   0  0  0  0  0  0  0  0  0  0  0  0
   -2.1155   -1.9963    0.7922 C   0  0  0  0  0  0  0  0  0  0  0  0
   -1.2875   -2.6383    1.4252 O   0  0  0  0  0  0  0  0  0  0  0  0
   -1.8575   -0.8123    0.2402 N   0  0  0  0  0  0  0  0  0  0  0  0
   -2.6005   -0.3333   -0.2478 H   0  0  0  0  0  0  0  0  0  0  0  0
   -0.5675   -0.1203    0.3102 C   0  0  1  0  0  0  0  0  0  0  0  0
    0.0191   -0.5718    1.1110 H   0  0  0  0  0  0  0  0  0  0  0  0
    0.1724   -0.3238   -1.0286 C   0  0  0  0  0  0  0  0  0  0  0  0
    1.0165    0.3674   -1.0690 H   0  0  0  0  0  0  0  0  0  0  0  0
    0.5753   -1.3390   -1.0404 H   0  0  0  0  0  0  0  0  0  0  0  0
   -0.6763   -0.1304   -2.2987 C   0  0  0  0  0  0  0  0  0  0  0  0
   -1.3004    0.7570   -2.1928 H   0  0  0  0  0  0  0  0  0  0  0  0
    0.1866    0.0147   -3.5555 C   0  0  0  0  0  0  0  0  0  0  0  0
    0.8294   -0.8596   -3.6666 H   0  0  0  0  0  0  0  0  0  0  0  0
   -0.4545    0.0997   -4.4332 H   0  0  0  0  0  0  0  0  0  0  0  0
    0.8069    0.9063   -3.4948 H   0  0  0  0  0  0  0  0  0  0  0  0
   -1.5961   -1.3352   -2.4934 C   0  0  0  0  0  0  0  0  0  0  0  0
   -2.2462   -1.4443   -1.6254 H   0  0  0  0  0  0  0  0  0  0  0  0
   -2.2177   -1.1881   -3.3766 H   0  0  0  0  0  0  0  0  0  0  0  0
   -1.0048   -2.2432   -2.6166 H   0  0  0  0  0  0  0  0  0  0  0  0
   -0.7793    1.3659    0.6455 C   0  0  0  0  0  0  0  0  0  0  0  0
   -1.6464    2.0125    0.0623 O   0  0  0  0  0  0  0  0  0  0  0  0
    0.0189    1.9059    1.5756 N   0  0  0  0  0  0  0  0  0  0  0  0
    0.7024    1.3094    2.0137 H   0  0  0  0  0  0  0  0  0  0  0  0
   -0.0451    3.3046    1.9929 C   0  0  0  0  0  0  0  0  0  0  0  0
   -1.0415    3.5286    2.3805 H   0  0  0  0  0  0  0  0  0  0  0  0
    0.6954    3.5023    2.7695 H   0  0  0  0  0  0  0  0  0  0  0  0
    0.1474    3.9536    1.1372 H   0  0  0  0  0  0  0  0  0  0  0  0
  5  6  2  0  0  0  0
  5  7  1  0  0  0  0
  2  3  1  0  0  0  0
  2  4  1  0  0  0  0
  2  5  1  0  0  0  0
  1  2  1  0  0  0  0
 24 25  2  0  0  0  0
 24 26  1  0  0  0  0
 20 21  1  0  0  0  0
 20 22  1  0  0  0  0
 20 23  1  0  0  0  0
 16 17  1  0  0  0  0
 16 18  1  0  0  0  0
 16 19  1  0  0  0  0
 14 15  1  0  0  0  0
 14 16  1  0  0  0  0
 14 20  1  0  0  0  0
 11 12  1  0  0  0  0
 11 13  1  0  0  0  0
 11 14  1  0  0  0  0
  9 10  1  0  0  0  0
  9 11  1  0  0  0  0
  9 24  1  0  0  0  0
  7  8  1  0  0  0  0
  7  9  1  0  0  0  0
 28 29  1  0  0  0  0
 28 30  1  0  0  0  0
 28 31  1  0  0  0  0
 26 27  1  0  0  0  0
 26 28  1  0  0  0  0
M  END
$$$$
default_name
  -OEChem-02102213163D

 31 30  0     1  0  0  0  0  0999 V2000
   -3.5895   -3.5013    1.1082 H   0  0  0  0  0  0  0  0  0  0  0  0
   -3.5145   -2.5363    0.6082 C   0  0  0  0  0  0  0  0  0  0  0  0
   -4.2285   -1.8413    1.0452 H   0  0  0  0  0  0  0  0  0  0  0  0
   -3.7155   -2.6583   -0.4538 H   0  0  0  0  0  0  0  0  0  0  0  0
   -2.1155   -1.9963    0.7922 C   0  0  0  0  0  0  0  0  0  0  0  0
   -1.2875   -2.6383    1.4252 O   0  0  0  0  0  0  0  0  0  0  0  0
   -1.8575   -0.8123    0.2402 N   0  0  0  0  0  0  0  0  0  0  0  0
   -2.6005   -0.3333   -0.2478 H   0  0  0  0  0  0  0  0  0  0  0  0
   -0.5675   -0.1203    0.3102 C   0  0  1  0  0  0  0  0  0  0  0  0
    0.0191   -0.5718    1.1110 H   0  0  0  0  0  0  0  0  0  0  0  0
    0.1724   -0.3238   -1.0286 C   0  0  0  0  0  0  0  0  0  0  0  0
    1.1500    0.1577   -0.9634 H   0  0  0  0  0  0  0  0  0  0  0  0
    0.3396   -1.3949   -1.1622 H   0  0  0  0  0  0  0  0  0  0  0  0
   -0.5497    0.2082   -2.2802 C   0  0  0  0  0  0  0  0  0  0  0  0
   -0.7309    1.2777   -2.1739 H   0  0  0  0  0  0  0  0  0  0  0  0
    0.2544   -0.0358   -3.5605 C   0  0  0  0  0  0  0  0  0  0  0  0
    0.4580   -1.1016   -3.6727 H   0  0  0  0  0  0  0  0  0  0  0  0
   -0.3147    0.3112   -4.4232 H   0  0  0  0  0  0  0  0  0  0  0  0
    1.1979    0.5049   -3.5305 H   0  0  0  0  0  0  0  0  0  0  0  0
   -1.9017   -0.4880   -2.4313 C   0  0  0  0  0  0  0  0  0  0  0  0
   -2.5097   -0.3044   -1.5455 H   0  0  0  0  0  0  0  0  0  0  0  0
   -2.4268   -0.0933   -3.3011 H   0  0  0  0  0  0  0  0  0  0  0  0
   -1.7594   -1.5623   -2.5538 H   0  0  0  0  0  0  0  0  0  0  0  0
   -0.7793    1.3659    0.6455 C   0  0  0  0  0  0  0  0  0  0  0  0
   -1.6464    2.0125    0.0623 O   0  0  0  0  0  0  0  0  0  0  0  0
    0.0189    1.9059    1.5756 N   0  0  0  0  0  0  0  0  0  0  0  0
    0.7024    1.3094    2.0137 H   0  0  0  0  0  0  0  0  0  0  0  0
   -0.0451    3.3046    1.9929 C   0  0  0  0  0  0  0  0  0  0  0  0
   -1.0415    3.5286    2.3805 H   0  0  0  0  0  0  0  0  0  0  0  0
    0.6954    3.5023    2.7695 H   0  0  0  0  0  0  0  0  0  0  0  0
    0.1474    3.9536    1.1372 H   0  0  0  0  0  0  0  0  0  0  0  0
  5  6  2  0  0  0  0
  5  7  1  0  0  0  0
  2  3  1  0  0  0  0
  2  4  1  0  0  0  0
  2  5  1  0  0  0  0
  1  2  1  0  0  0  0
 24 25  2  0  0  0  0
 24 26  1  0  0  0  0
 20 21  1  0  0  0  0
 20 22  1  0  0  0  0
 20 23  1  0  0  0  0
 16 17  1  0  0  0  0
 16 18  1  0  0  0  0
 16 19  1  0  0  0  0
 14 15  1  0  0  0  0
 14 16  1  0  0  0  0
 14 20  1  0  0  0  0
 11 12  1  0  0  0  0
 11 13  1  0  0  0  0
 11 14  1  0  0  0  0
  9 10  1  0  0  0  0
  9 11  1  0  0  0  0
  9 24  1  0  0  0  0
  7  8  1  0  0  0  0
  7  9  1  0  0  0  0
 28 29  1  0  0  0  0
 28 30  1  0  0  0  0
 28 31  1  0  0  0  0
 26 27  1  0  0  0  0
 26 28  1  0  0  0  0
M  END
$$$$
default_name
  -OEChem-02102213163D

 31 30  0     1  0  0  0  0  0999 V2000
   -3.5895   -3.5013    1.1082 H   0  0  0  0  0  0  0  0  0  0  0  0
   -3.5145   -2.5363    0.6082 C   0  0  0  0  0  0  0  0  0  0  0  0
   -4.2285   -1.8413    1.0452 H   0  0  0  0  0  0  0  0  0  0  0  0
   -3.7155   -2.6583   -0.4538 H   0  0  0  0  0  0  0  0  0  0  0  0
   -2.1155   -1.9963    0.7922 C   0  0  0  0  0  0  0  0  0  0  0  0
   -1.2875   -2.6383    1.4252 O   0  0  0  0  0  0  0  0  0  0  0  0
   -1.8575   -0.8123    0.2402 N   0  0  0  0  0  0  0  0  0  0  0  0
   -2.6005   -0.3333   -0.2478 H   0  0  0  0  0  0  0  0  0  0  0  0
   -0.5675   -0.1203    0.3102 C   0  0  1  0  0  0  0  0  0  0  0  0
    0.0191   -0.5718    1.1110 H   0  0  0  0  0  0  0  0  0  0  0  0
    0.1724   -0.3238   -1.0286 C   0  0  0  0  0  0  0  0  0  0  0  0
    1.1500    0.1577   -0.9634 H   0  0  0  0  0  0  0  0  0  0  0  0
    0.3396   -1.3949   -1.1622 H   0  0  0  0  0  0  0  0  0  0  0  0
   -0.5497    0.2082   -2.2802 C   0  0  0  0  0  0  0  0  0  0  0  0
   -0.4961    1.2967   -2.3013 H   0  0  0  0  0  0  0  0  0  0  0  0
    0.0520   -0.3452   -3.5752 C   0  0  0  0  0  0  0  0  0  0  0  0
    0.0203   -1.4356   -3.5621 H   0  0  0  0  0  0  0  0  0  0  0  0
   -0.5193    0.0178   -4.4299 H   0  0  0  0  0  0  0  0  0  0  0  0
    1.0842   -0.0211   -3.6885 H   0  0  0  0  0  0  0  0  0  0  0  0
   -2.0238   -0.1921   -2.2350 C   0  0  0  0  0  0  0  0  0  0  0  0
   -2.4873    0.2163   -1.3371 H   0  0  0  0  0  0  0  0  0  0  0  0
   -2.5432    0.2069   -3.1063 H   0  0  0  0  0  0  0  0  0  0  0  0
   -2.1179   -1.2786   -2.2263 H   0  0  0  0  0  0  0  0  0  0  0  0
   -0.7793    1.3659    0.6455 C   0  0  0  0  0  0  0  0  0  0  0  0
   -1.6464    2.0125    0.0623 O   0  0  0  0  0  0  0  0  0  0  0  0
    0.0189    1.9059    1.5756 N   0  0  0  0  0  0  0  0  0  0  0  0
    0.7024    1.3094    2.0137 H   0  0  0  0  0  0  0  0  0  0  0  0
   -0.0451    3.3046    1.9929 C   0  0  0  0  0  0  0  0  0  0  0  0
   -1.0415    3.5286    2.3805 H   0  0  0  0  0  0  0  0  0  0  0  0
    0.6954    3.5023    2.7695 H   0  0  0  0  0  0  0  0  0  0  0  0
    0.1474    3.9536    1.1372 H   0  0  0  0  0  0  0  0  0  0  0  0
  5  6  2  0  0  0  0
  5  7  1  0  0  0  0
  2  3  1  0  0  0  0
  2  4  1  0  0  0  0
  2  5  1  0  0  0  0
  1  2  1  0  0  0  0
 24 25  2  0  0  0  0
 24 26  1  0  0  0  0
 20 21  1  0  0  0  0
 20 22  1  0  0  0  0
 20 23  1  0  0  0  0
 16 17  1  0  0  0  0
 16 18  1  0  0  0  0
 16 19  1  0  0  0  0
 14 15  1  0  0  0  0
 14 16  1  0  0  0  0
 14 20  1  0  0  0  0
 11 12  1  0  0  0  0
 11 13  1  0  0  0  0
 11 14  1  0  0  0  0
  9 10  1  0  0  0  0
  9 11  1  0  0  0  0
  9 24  1  0  0  0  0
  7  8  1  0  0  0  0
  7  9  1  0  0  0  0
 28 29  1  0  0  0  0
 28 30  1  0  0  0  0
 28 31  1  0  0  0  0
 26 27  1  0  0  0  0
 26 28  1  0  0  0  0
M  END
$$$$
default_name
  -OEChem-02102213163D

 31 30  0     1  0  0  0  0  0999 V2000
   -3.5895   -3.5013    1.1082 H   0  0  0  0  0  0  0  0  0  0  0  0
   -3.5145   -2.5363    0.6082 C   0  0  0  0  0  0  0  0  0  0  0  0
   -4.2285   -1.8413    1.0452 H   0  0  0  0  0  0  0  0  0  0  0  0
   -3.7155   -2.6583   -0.4538 H   0  0  0  0  0  0  0  0  0  0  0  0
   -2.1155   -1.9963    0.7922 C   0  0  0  0  0  0  0  0  0  0  0  0
   -1.2875   -2.6383    1.4252 O   0  0  0  0  0  0  0  0  0  0  0  0
   -1.8575   -0.8123    0.2402 N   0  0  0  0  0  0  0  0  0  0  0  0
   -2.6005   -0.3333   -0.2478 H   0  0  0  0  0  0  0  0  0  0  0  0
   -0.5675   -0.1203    0.3102 C   0  0  1  0  0  0  0  0  0  0  0  0
    0.0191   -0.5718    1.1110 H   0  0  0  0  0  0  0  0  0  0  0  0
    0.1724   -0.3238   -1.0286 C   0  0  0  0  0  0  0  0  0  0  0  0
    1.1500    0.1577   -0.9634 H   0  0  0  0  0  0  0  0  0  0  0  0
    0.3396   -1.3949   -1.1622 H   0  0  0  0  0  0  0  0  0  0  0  0
   -0.5497    0.2082   -2.2802 C   0  0  0  0  0  0  0  0  0  0  0  0
   -0.2767    1.2501   -2.4477 H   0  0  0  0  0  0  0  0  0  0  0  0
   -0.2100   -0.6033   -3.5337 C   0  0  0  0  0  0  0  0  0  0  0  0
   -0.4629   -1.6526   -3.3756 H   0  0  0  0  0  0  0  0  0  0  0  0
   -0.7793   -0.2234   -4.3824 H   0  0  0  0  0  0  0  0  0  0  0  0
    0.8496   -0.5244   -3.7671 H   0  0  0  0  0  0  0  0  0  0  0  0
   -2.0620    0.1432   -2.0705 C   0  0  0  0  0  0  0  0  0  0  0  0
   -2.3376    0.7398   -1.2009 H   0  0  0  0  0  0  0  0  0  0  0  0
   -2.5751    0.5450   -2.9442 H   0  0  0  0  0  0  0  0  0  0  0  0
   -2.3753   -0.8894   -1.9124 H   0  0  0  0  0  0  0  0  0  0  0  0
   -0.7793    1.3659    0.6455 C   0  0  0  0  0  0  0  0  0  0  0  0
   -1.6464    2.0125    0.0623 O   0  0  0  0  0  0  0  0  0  0  0  0
    0.0189    1.9059    1.5756 N   0  0  0  0  0  0  0  0  0  0  0  0
    0.7024    1.3094    2.0137 H   0  0  0  0  0  0  0  0  0  0  0  0
   -0.0451    3.3046    1.9929 C   0  0  0  0  0  0  0  0  0  0  0  0
   -1.0415    3.5286    2.3805 H   0  0  0  0  0  0  0  0  0  0  0  0
    0.6954    3.5023    2.7695 H   0  0  0  0  0  0  0  0  0  0  0  0
    0.1474    3.9536    1.1372 H   0  0  0  0  0  0  0  0  0  0  0  0
  5  6  2  0  0  0  0
  5  7  1  0  0  0  0
  2  3  1  0  0  0  0
  2  4  1  0  0  0  0
  2  5  1  0  0  0  0
  1  2  1  0  0  0  0
 24 25  2  0  0  0  0
 24 26  1  0  0  0  0
 20 21  1  0  0  0  0
 20 22  1  0  0  0  0
 20 23  1  0  0  0  0
 16 17  1  0  0  0  0
 16 18  1  0  0  0  0
 16 19  1  0  0  0  0
 14 15  1  0  0  0  0
 14 16  1  0  0  0  0
 14 20  1  0  0  0  0
 11 12  1  0  0  0  0
 11 13  1  0  0  0  0
 11 14  1  0  0  0  0
  9 10  1  0  0  0  0
  9 11  1  0  0  0  0
  9 24  1  0  0  0  0
  7  8  1  0  0  0  0
  7  9  1  0  0  0  0
 28 29  1  0  0  0  0
 28 30  1  0  0  0  0
 28 31  1  0  0  0  0
 26 27  1  0  0  0  0
 26 28  1  0  0  0  0
M  END
$$$$
default_name
  -OEChem-02102213163D

 31 30  0     1  0  0  0  0  0999 V2000
   -3.5895   -3.5013    1.1082 H   0  0  0  0  0  0  0  0  0  0  0  0
   -3.5145   -2.5363    0.6082 C   0  0  0  0  0  0  0  0  0  0  0  0
   -4.2285   -1.8413    1.0452 H   0  0  0  0  0  0  0  0  0  0  0  0
   -3.7155   -2.6583   -0.4538 H   0  0  0  0  0  0  0  0  0  0  0  0
   -2.1155   -1.9963    0.7922 C   0  0  0  0  0  0  0  0  0  0  0  0
   -1.2875   -2.6383    1.4252 O   0  0  0  0  0  0  0  0  0  0  0  0
   -1.8575   -0.8123    0.2402 N   0  0  0  0  0  0  0  0  0  0  0  0
   -2.6005   -0.3333   -0.2478 H   0  0  0  0  0  0  0  0  0  0  0  0
   -0.5675   -0.1203    0.3102 C   0  0  1  0  0  0  0  0  0  0  0  0
    0.0191   -0.5718    1.1110 H   0  0  0  0  0  0  0  0  0  0  0  0
    0.1724   -0.3238   -1.0286 C   0  0  0  0  0  0  0  0  0  0  0  0
    1.1500    0.1577   -0.9634 H   0  0  0  0  0  0  0  0  0  0  0  0
    0.3396   -1.3949   -1.1622 H   0  0  0  0  0  0  0  0  0  0  0  0
   -0.5497    0.2082   -2.2802 C   0  0  0  0  0  0  0  0  0  0  0  0
   -0.0877    1.1412   -2.6030 H   0  0  0  0  0  0  0  0  0  0  0  0
   -0.5137   -0.7924   -3.4390 C   0  0  0  0  0  0  0  0  0  0  0  0
   -0.9586   -1.7380   -3.1259 H   0  0  0  0  0  0  0  0  0  0  0  0
   -1.0769   -0.3959   -4.2841 H   0  0  0  0  0  0  0  0  0  0  0  0
    0.5100   -0.9708   -3.7609 H   0  0  0  0  0  0  0  0  0  0  0  0
   -2.0136    0.4951   -1.9488 C   0  0  0  0  0  0  0  0  0  0  0  0
   -2.0706    1.2306   -1.1464 H   0  0  0  0  0  0  0  0  0  0  0  0
   -2.5202    0.8979   -2.8258 H   0  0  0  0  0  0  0  0  0  0  0  0
   -2.5139   -0.4211   -1.6334 H   0  0  0  0  0  0  0  0  0  0  0  0
   -0.7793    1.3659    0.6455 C   0  0  0  0  0  0  0  0  0  0  0  0
   -1.6464    2.0125    0.0623 O   0  0  0  0  0  0  0  0  0  0  0  0
    0.0189    1.9059    1.5756 N   0  0  0  0  0  0  0  0  0  0  0  0
    0.7024    1.3094    2.0137 H   0  0  0  0  0  0  0  0  0  0  0  0
   -0.0451    3.3046    1.9929 C   0  0  0  0  0  0  0  0  0  0  0  0
   -1.0415    3.5286    2.3805 H   0  0  0  0  0  0  0  0  0  0  0  0
    0.6954    3.5023    2.7695 H   0  0  0  0  0  0  0  0  0  0  0  0
    0.1474    3.9536    1.1372 H   0  0  0  0  0  0  0  0  0  0  0  0
  5  6  2  0  0  0  0
  5  7  1  0  0  0  0
  2  3  1  0  0  0  0
  2  4  1  0  0  0  0
  2  5  1  0  0  0  0
  1  2  1  0  0  0  0
 24 25  2  0  0  0  0
 24 26  1  0  0  0  0
 20 21  1  0  0  0  0
 20 22  1  0  0  0  0
 20 23  1  0  0  0  0
 16 17  1  0  0  0  0
 16 18  1  0  0  0  0
 16 19  1  0  0  0  0
 14 15  1  0  0  0  0
 14 16  1  0  0  0  0
 14 20  1  0  0  0  0
 11 12  1  0  0  0  0
 11 13  1  0  0  0  0
 11 14  1  0  0  0  0
  9 10  1  0  0  0  0
  9 11  1  0  0  0  0
  9 24  1  0  0  0  0
  7  8  1  0  0  0  0
  7  9  1  0  0  0  0
 28 29  1  0  0  0  0
 28 30  1  0  0  0  0
 28 31  1  0  0  0  0
 26 27  1  0  0  0  0
 26 28  1  0  0  0  0
M  END
$$$$
default_name
  -OEChem-02102213163D

 31 30  0     1  0  0  0  0  0999 V2000
   -3.5895   -3.5013    1.1082 H   0  0  0  0  0  0  0  0  0  0  0  0
   -3.5145   -2.5363    0.6082 C   0  0  0  0  0  0  0  0  0  0  0  0
   -4.2285   -1.8413    1.0452 H   0  0  0  0  0  0  0  0  0  0  0  0
   -3.7155   -2.6583   -0.4538 H   0  0  0  0  0  0  0  0  0  0  0  0
   -2.1155   -1.9963    0.7922 C   0  0  0  0  0  0  0  0  0  0  0  0
   -1.2875   -2.6383    1.4252 O   0  0  0  0  0  0  0  0  0  0  0  0
   -1.8575   -0.8123    0.2402 N   0  0  0  0  0  0  0  0  0  0  0  0
   -2.6005   -0.3333   -0.2478 H   0  0  0  0  0  0  0  0  0  0  0  0
   -0.5675   -0.1203    0.3102 C   0  0  1  0  0  0  0  0  0  0  0  0
    0.0191   -0.5718    1.1110 H   0  0  0  0  0  0  0  0  0  0  0  0
    0.1724   -0.3238   -1.0286 C   0  0  0  0  0  0  0  0  0  0  0  0
    1.1500    0.1577   -0.9634 H   0  0  0  0  0  0  0  0  0  0  0  0
    0.3396   -1.3949   -1.1622 H   0  0  0  0  0  0  0  0  0  0  0  0
   -0.5497    0.2082   -2.2802 C   0  0  0  0  0  0  0  0  0  0  0  0
    0.0581    0.9773   -2.7568 H   0  0  0  0  0  0  0  0  0  0  0  0
   -0.8383   -0.8997   -3.2973 C   0  0  0  0  0  0  0  0  0  0  0  0
   -1.4330   -1.6858   -2.8301 H   0  0  0  0  0  0  0  0  0  0  0  0
   -1.3918   -0.4880   -4.1415 H   0  0  0  0  0  0  0  0  0  0  0  0
    0.0887   -1.3297   -3.6704 H   0  0  0  0  0  0  0  0  0  0  0  0
   -1.8820    0.8396   -1.8783 C   0  0  0  0  0  0  0  0  0  0  0  0
   -1.7046    1.6550   -1.1771 H   0  0  0  0  0  0  0  0  0  0  0  0
   -2.3824    1.2417   -2.7592 H   0  0  0  0  0  0  0  0  0  0  0  0
   -2.5244    0.0941   -1.4083 H   0  0  0  0  0  0  0  0  0  0  0  0
   -0.7793    1.3659    0.6455 C   0  0  0  0  0  0  0  0  0  0  0  0
   -1.6464    2.0125    0.0623 O   0  0  0  0  0  0  0  0  0  0  0  0
    0.0189    1.9059    1.5756 N   0  0  0  0  0  0  0  0  0  0  0  0
    0.7024    1.3094    2.0137 H   0  0  0  0  0  0  0  0  0  0  0  0
   -0.0451    3.3046    1.9929 C   0  0  0  0  0  0  0  0  0  0  0  0
   -1.0415    3.5286    2.3805 H   0  0  0  0  0  0  0  0  0  0  0  0
    0.6954    3.5023    2.7695 H   0  0  0  0  0  0  0  0  0  0  0  0
    0.1474    3.9536    1.1372 H   0  0  0  0  0  0  0  0  0  0  0  0
  5  6  2  0  0  0  0
  5  7  1  0  0  0  0
  2  3  1  0  0  0  0
  2  4  1  0  0  0  0
  2  5  1  0  0  0  0
  1  2  1  0  0  0  0
 24 25  2  0  0  0  0
 24 26  1  0  0  0  0
 20 21  1  0  0  0  0
 20 22  1  0  0  0  0
 20 23  1  0  0  0  0
 16 17  1  0  0  0  0
 16 18  1  0  0  0  0
 16 19  1  0  0  0  0
 14 15  1  0  0  0  0
 14 16  1  0  0  0  0
 14 20  1  0  0  0  0
 11 12  1  0  0  0  0
 11 13  1  0  0  0  0
 11 14  1  0  0  0  0
  9 10  1  0  0  0  0
  9 11  1  0  0  0  0
  9 24  1  0  0  0  0
  7  8  1  0  0  0  0
  7  9  1  0  0  0  0
 28 29  1  0  0  0  0
 28 30  1  0  0  0  0
 28 31  1  0  0  0  0
 26 27  1  0  0  0  0
 26 28  1  0  0  0  0
M  END
$$$$
default_name
  -OEChem-02102213163D

 31 30  0     1  0  0  0  0  0999 V2000
   -3.5895   -3.5013    1.1082 H   0  0  0  0  0  0  0  0  0  0  0  0
   -3.5145   -2.5363    0.6082 C   0  0  0  0  0  0  0  0  0  0  0  0
   -4.2285   -1.8413    1.0452 H   0  0  0  0  0  0  0  0  0  0  0  0
   -3.7155   -2.6583   -0.4538 H   0  0  0  0  0  0  0  0  0  0  0  0
   -2.1155   -1.9963    0.7922 C   0  0  0  0  0  0  0  0  0  0  0  0
   -1.2875   -2.6383    1.4252 O   0  0  0  0  0  0  0  0  0  0  0  0
   -1.8575   -0.8123    0.2402 N   0  0  0  0  0  0  0  0  0  0  0  0
   -2.6005   -0.3333   -0.2478 H   0  0  0  0  0  0  0  0  0  0  0  0
   -0.5675   -0.1203    0.3102 C   0  0  1  0  0  0  0  0  0  0  0  0
    0.0191   -0.5718    1.1110 H   0  0  0  0  0  0  0  0  0  0  0  0
    0.1724   -0.3238   -1.0286 C   0  0  0  0  0  0  0  0  0  0  0  0
    1.1500    0.1577   -0.9634 H   0  0  0  0  0  0  0  0  0  0  0  0
    0.3396   -1.3949   -1.1622 H   0  0  0  0  0  0  0  0  0  0  0  0
   -0.5497    0.2082   -2.2802 C   0  0  0  0  0  0  0  0  0  0  0  0
    0.1507    0.7697   -2.8984 H   0  0  0  0  0  0  0  0  0  0  0  0
   -1.1618   -0.9179   -3.1184 C   0  0  0  0  0  0  0  0  0  0  0  0
   -1.8539   -1.4998   -2.5082 H   0  0  0  0  0  0  0  0  0  0  0  0
   -1.7027   -0.4933   -3.9645 H   0  0  0  0  0  0  0  0  0  0  0  0
   -0.3857   -1.5768   -3.5018 H   0  0  0  0  0  0  0  0  0  0  0  0
   -1.6761    1.1533   -1.8638 C   0  0  0  0  0  0  0  0  0  0  0  0
   -1.2645    1.9843   -1.2910 H   0  0  0  0  0  0  0  0  0  0  0  0
   -2.1710    1.5528   -2.7489 H   0  0  0  0  0  0  0  0  0  0  0  0
   -2.4060    0.6214   -1.2525 H   0  0  0  0  0  0  0  0  0  0  0  0
   -0.7793    1.3659    0.6455 C   0  0  0  0  0  0  0  0  0  0  0  0
   -1.6464    2.0125    0.0623 O   0  0  0  0  0  0  0  0  0  0  0  0
    0.0189    1.9059    1.5756 N   0  0  0  0  0  0  0  0  0  0  0  0
    0.7024    1.3094    2.0137 H   0  0  0  0  0  0  0  0  0  0  0  0
   -0.0451    3.3046    1.9929 C   0  0  0  0  0  0  0  0  0  0  0  0
   -1.0415    3.5286    2.3805 H   0  0  0  0  0  0  0  0  0  0  0  0
    0.6954    3.5023    2.7695 H   0  0  0  0  0  0  0  0  0  0  0  0
    0.1474    3.9536    1.1372 H   0  0  0  0  0  0  0  0  0  0  0  0
  5  6  2  0  0  0  0
  5  7  1  0  0  0  0
  2  3  1  0  0  0  0
  2  4  1  0  0  0  0
  2  5  1  0  0  0  0
  1  2  1  0  0  0  0
 24 25  2  0  0  0  0
 24 26  1  0  0  0  0
 20 21  1  0  0  0  0
 20 22  1  0  0  0  0
 20 23  1  0  0  0  0
 16 17  1  0  0  0  0
 16 18  1  0  0  0  0
 16 19  1  0  0  0  0
 14 15  1  0  0  0  0
 14 16  1  0  0  0  0
 14 20  1  0  0  0  0
 11 12  1  0  0  0  0
 11 13  1  0  0  0  0
 11 14  1  0  0  0  0
  9 10  1  0  0  0  0
  9 11  1  0  0  0  0
  9 24  1  0  0  0  0
  7  8  1  0  0  0  0
  7  9  1  0  0  0  0
 28 29  1  0  0  0  0
 28 30  1  0  0  0  0
 28 31  1  0  0  0  0
 26 27  1  0  0  0  0
 26 28  1  0  0  0  0
M  END
$$$$
default_name
  -OEChem-02102213163D

 31 30  0     1  0  0  0  0  0999 V2000
   -3.5895   -3.5013    1.1082 H   0  0  0  0  0  0  0  0  0  0  0  0
   -3.5145   -2.5363    0.6082 C   0  0  0  0  0  0  0  0  0  0  0  0
   -4.2285   -1.8413    1.0452 H   0  0  0  0  0  0  0  0  0  0  0  0
   -3.7155   -2.6583   -0.4538 H   0  0  0  0  0  0  0  0  0  0  0  0
   -2.1155   -1.9963    0.7922 C   0  0  0  0  0  0  0  0  0  0  0  0
   -1.2875   -2.6383    1.4252 O   0  0  0  0  0  0  0  0  0  0  0  0
   -1.8575   -0.8123    0.2402 N   0  0  0  0  0  0  0  0  0  0  0  0
   -2.6005   -0.3333   -0.2478 H   0  0  0  0  0  0  0  0  0  0  0  0
   -0.5675   -0.1203    0.3102 C   0  0  1  0  0  0  0  0  0  0  0  0
    0.0191   -0.5718    1.1110 H   0  0  0  0  0  0  0  0  0  0  0  0
    0.1724   -0.3238   -1.0286 C   0  0  0  0  0  0  0  0  0  0  0  0
    1.1500    0.1577   -0.9634 H   0  0  0  0  0  0  0  0  0  0  0  0
    0.3396   -1.3949   -1.1622 H   0  0  0  0  0  0  0  0  0  0  0  0
   -0.5497    0.2082   -2.2802 C   0  0  0  0  0  0  0  0  0  0  0  0
    0.1838    0.5326   -3.0184 H   0  0  0  0  0  0  0  0  0  0  0  0
   -1.4620   -0.8456   -2.9145 C   0  0  0  0  0  0  0  0  0  0  0  0
   -2.1924   -1.1924   -2.1822 H   0  0  0  0  0  0  0  0  0  0  0  0
   -1.9882   -0.4117   -3.7650 H   0  0  0  0  0  0  0  0  0  0  0  0
   -0.8808   -1.6952   -3.2665 H   0  0  0  0  0  0  0  0  0  0  0  0
   -1.4099    1.4147   -1.9062 C   0  0  0  0  0  0  0  0  0  0  0  0
   -0.7804    2.1959   -1.4803 H   0  0  0  0  0  0  0  0  0  0  0  0
   -1.9005    1.8101   -2.7956 H   0  0  0  0  0  0  0  0  0  0  0  0
   -2.1667    1.1247   -1.1766 H   0  0  0  0  0  0  0  0  0  0  0  0
   -0.7793    1.3659    0.6455 C   0  0  0  0  0  0  0  0  0  0  0  0
   -1.6464    2.0125    0.0623 O   0  0  0  0  0  0  0  0  0  0  0  0
    0.0189    1.9059    1.5756 N   0  0  0  0  0  0  0  0  0  0  0  0
    0.7024    1.3094    2.0137 H   0  0  0  0  0  0  0  0  0  0  0  0
   -0.0451    3.3046    1.9929 C   0  0  0  0  0  0  0  0  0  0  0  0
   -1.0415    3.5286    2.3805 H   0  0  0  0  0  0  0  0  0  0  0  0
    0.6954    3.5023    2.7695 H   0  0  0  0  0  0  0  0  0  0  0  0
    0.1474    3.9536    1.1372 H   0  0  0  0  0  0  0  0  0  0  0  0
  5  6  2  0  0  0  0
  5  7  1  0  0  0  0
  2  3  1  0  0  0  0
  2  4  1  0  0  0  0
  2  5  1  0  0  0  0
  1  2  1  0  0  0  0
 24 25  2  0  0  0  0
 24 26  1  0  0  0  0
 20 21  1  0  0  0  0
 20 22  1  0  0  0  0
 20 23  1  0  0  0  0
 16 17  1  0  0  0  0
 16 18  1  0  0  0  0
 16 19  1  0  0  0  0
 14 15  1  0  0  0  0
 14 16  1  0  0  0  0
 14 20  1  0  0  0  0
 11 12  1  0  0  0  0
 11 13  1  0  0  0  0
 11 14  1  0  0  0  0
  9 10  1  0  0  0  0
  9 11  1  0  0  0  0
  9 24  1  0  0  0  0
  7  8  1  0  0  0  0
  7  9  1  0  0  0  0
 28 29  1  0  0  0  0
 28 30  1  0  0  0  0
 28 31  1  0  0  0  0
 26 27  1  0  0  0  0
 26 28  1  0  0  0  0
M  END
$$$$
default_name
  -OEChem-02102213163D

 31 30  0     1  0  0  0  0  0999 V2000
   -3.5895   -3.5013    1.1082 H   0  0  0  0  0  0  0  0  0  0  0  0
   -3.5145   -2.5363    0.6082 C   0  0  0  0  0  0  0  0  0  0  0  0
   -4.2285   -1.8413    1.0452 H   0  0  0  0  0  0  0  0  0  0  0  0
   -3.7155   -2.6583   -0.4538 H   0  0  0  0  0  0  0  0  0  0  0  0
   -2.1155   -1.9963    0.7922 C   0  0  0  0  0  0  0  0  0  0  0  0
   -1.2875   -2.6383    1.4252 O   0  0  0  0  0  0  0  0  0  0  0  0
   -1.8575   -0.8123    0.2402 N   0  0  0  0  0  0  0  0  0  0  0  0
   -2.6005   -0.3333   -0.2478 H   0  0  0  0  0  0  0  0  0  0  0  0
   -0.5675   -0.1203    0.3102 C   0  0  1  0  0  0  0  0  0  0  0  0
    0.0191   -0.5718    1.1110 H   0  0  0  0  0  0  0  0  0  0  0  0
    0.1724   -0.3238   -1.0286 C   0  0  0  0  0  0  0  0  0  0  0  0
    1.1500    0.1577   -0.9634 H   0  0  0  0  0  0  0  0  0  0  0  0
    0.3396   -1.3949   -1.1622 H   0  0  0  0  0  0  0  0  0  0  0  0
   -0.5497    0.2082   -2.2802 C   0  0  0  0  0  0  0  0  0  0  0  0
    0.1552    0.2819   -3.1084 H   0  0  0  0  0  0  0  0  0  0  0  0
   -1.7186   -0.6880   -2.6994 C   0  0  0  0  0  0  0  0  0  0  0  0
   -2.4257   -0.7848   -1.8744 H   0  0  0  0  0  0  0  0  0  0  0  0
   -2.2290   -0.2485   -3.5567 H   0  0  0  0  0  0  0  0  0  0  0  0
   -1.3630   -1.6769   -2.9805 H   0  0  0  0  0  0  0  0  0  0  0  0
   -1.1015    1.6060   -2.0028 C   0  0  0  0  0  0  0  0  0  0  0  0
   -0.2851    2.2755   -1.7322 H   0  0  0  0  0  0  0  0  0  0  0  0
   -1.5892    1.9961   -2.8961 H   0  0  0  0  0  0  0  0  0  0  0  0
   -1.8230    1.5697   -1.1857 H   0  0  0  0  0  0  0  0  0  0  0  0
   -0.7793    1.3659    0.6455 C   0  0  0  0  0  0  0  0  0  0  0  0
   -1.6464    2.0125    0.0623 O   0  0  0  0  0  0  0  0  0  0  0  0
    0.0189    1.9059    1.5756 N   0  0  0  0  0  0  0  0  0  0  0  0
    0.7024    1.3094    2.0137 H   0  0  0  0  0  0  0  0  0  0  0  0
   -0.0451    3.3046    1.9929 C   0  0  0  0  0  0  0  0  0  0  0  0
   -1.0415    3.5286    2.3805 H   0  0  0  0  0  0  0  0  0  0  0  0
    0.6954    3.5023    2.7695 H   0  0  0  0  0  0  0  0  0  0  0  0
    0.1474    3.9536    1.1372 H   0  0  0  0  0  0  0  0  0  0  0  0
  5  6  2  0  0  0  0
  5  7  1  0  0  0  0
  2  3  1  0  0  0  0
  2  4  1  0  0  0  0
  2  5  1  0  0  0  0
  1  2  1  0  0  0  0
 24 25  2  0  0  0  0
 24 26  1  0  0  0  0
 20 21  1  0  0  0  0
 20 22  1  0  0  0  0
 20 23  1  0  0  0  0
 16 17  1  0  0  0  0
 16 18  1  0  0  0  0
 16 19  1  0  0  0  0
 14 15  1  0  0  0  0
 14 16  1  0  0  0  0
 14 20  1  0  0  0  0
 11 12  1  0  0  0  0
 11 13  1  0  0  0  0
 11 14  1  0  0  0  0
  9 10  1  0  0  0  0
  9 11  1  0  0  0  0
  9 24  1  0  0  0  0
  7  8  1  0  0  0  0
  7  9  1  0  0  0  0
 28 29  1  0  0  0  0
 28 30  1  0  0  0  0
 28 31  1  0  0  0  0
 26 27  1  0  0  0  0
 26 28  1  0  0  0  0
M  END
$$$$
default_name
  -OEChem-02102213163D

 31 30  0     1  0  0  0  0  0999 V2000
   -3.5895   -3.5013    1.1082 H   0  0  0  0  0  0  0  0  0  0  0  0
   -3.5145   -2.5363    0.6082 C   0  0  0  0  0  0  0  0  0  0  0  0
   -4.2285   -1.8413    1.0452 H   0  0  0  0  0  0  0  0  0  0  0  0
   -3.7155   -2.6583   -0.4538 H   0  0  0  0  0  0  0  0  0  0  0  0
   -2.1155   -1.9963    0.7922 C   0  0  0  0  0  0  0  0  0  0  0  0
   -1.2875   -2.6383    1.4252 O   0  0  0  0  0  0  0  0  0  0  0  0
   -1.8575   -0.8123    0.2402 N   0  0  0  0  0  0  0  0  0  0  0  0
   -2.6005   -0.3333   -0.2478 H   0  0  0  0  0  0  0  0  0  0  0  0
   -0.5675   -0.1203    0.3102 C   0  0  1  0  0  0  0  0  0  0  0  0
    0.0191   -0.5718    1.1110 H   0  0  0  0  0  0  0  0  0  0  0  0
    0.1724   -0.3238   -1.0286 C   0  0  0  0  0  0  0  0  0  0  0  0
    1.1500    0.1577   -0.9634 H   0  0  0  0  0  0  0  0  0  0  0  0
    0.3396   -1.3949   -1.1622 H   0  0  0  0  0  0  0  0  0  0  0  0
   -0.5497    0.2082   -2.2802 C   0  0  0  0  0  0  0  0  0  0  0  0
    0.0667    0.0349   -3.1623 H   0  0  0  0  0  0  0  0  0  0  0  0
   -1.9141   -0.4556   -2.4879 C   0  0  0  0  0  0  0  0  0  0  0  0
   -2.5377   -0.3046   -1.6057 H   0  0  0  0  0  0  0  0  0  0  0  0
   -2.4087   -0.0149   -3.3538 H   0  0  0  0  0  0  0  0  0  0  0  0
   -1.7992   -1.5230   -2.6634 H   0  0  0  0  0  0  0  0  0  0  0  0
   -0.7721    1.7142   -2.1468 C   0  0  0  0  0  0  0  0  0  0  0  0
    0.1875    2.2176   -2.0295 H   0  0  0  0  0  0  0  0  0  0  0  0
   -1.2584    2.0980   -3.0437 H   0  0  0  0  0  0  0  0  0  0  0  0
   -1.3981    1.9261   -1.2793 H   0  0  0  0  0  0  0  0  0  0  0  0
   -0.7793    1.3659    0.6455 C   0  0  0  0  0  0  0  0  0  0  0  0
   -1.6464    2.0125    0.0623 O   0  0  0  0  0  0  0  0  0  0  0  0
    0.0189    1.9059    1.5756 N   0  0  0  0  0  0  0  0  0  0  0  0
    0.7024    1.3094    2.0137 H   0  0  0  0  0  0  0  0  0  0  0  0
   -0.0451    3.3046    1.9929 C   0  0  0  0  0  0  0  0  0  0  0  0
   -1.0415    3.5286    2.3805 H   0  0  0  0  0  0  0  0  0  0  0  0
    0.6954    3.5023    2.7695 H   0  0  0  0  0  0  0  0  0  0  0  0
    0.1474    3.9536    1.1372 H   0  0  0  0  0  0  0  0  0  0  0  0
  5  6  2  0  0  0  0
  5  7  1  0  0  0  0
  2  3  1  0  0  0  0
  2  4  1  0  0  0  0
  2  5  1  0  0  0  0
  1  2  1  0  0  0  0
 24 25  2  0  0  0  0
 24 26  1  0  0  0  0
 20 21  1  0  0  0  0
 20 22  1  0  0  0  0
 20 23  1  0  0  0  0
 16 17  1  0  0  0  0
 16 18  1  0  0  0  0
 16 19  1  0  0  0  0
 14 15  1  0  0  0  0
 14 16  1  0  0  0  0
 14 20  1  0  0  0  0
 11 12  1  0  0  0  0
 11 13  1  0  0  0  0
 11 14  1  0  0  0  0
  9 10  1  0  0  0  0
  9 11  1  0  0  0  0
  9 24  1  0  0  0  0
  7  8  1  0  0  0  0
  7  9  1  0  0  0  0
 28 29  1  0  0  0  0
 28 30  1  0  0  0  0
 28 31  1  0  0  0  0
 26 27  1  0  0  0  0
 26 28  1  0  0  0  0
M  END
$$$$
default_name
  -OEChem-02102213163D

 31 30  0     1  0  0  0  0  0999 V2000
   -3.5895   -3.5013    1.1082 H   0  0  0  0  0  0  0  0  0  0  0  0
   -3.5145   -2.5363    0.6082 C   0  0  0  0  0  0  0  0  0  0  0  0
   -4.2285   -1.8413    1.0452 H   0  0  0  0  0  0  0  0  0  0  0  0
   -3.7155   -2.6583   -0.4538 H   0  0  0  0  0  0  0  0  0  0  0  0
   -2.1155   -1.9963    0.7922 C   0  0  0  0  0  0  0  0  0  0  0  0
   -1.2875   -2.6383    1.4252 O   0  0  0  0  0  0  0  0  0  0  0  0
   -1.8575   -0.8123    0.2402 N   0  0  0  0  0  0  0  0  0  0  0  0
   -2.6005   -0.3333   -0.2478 H   0  0  0  0  0  0  0  0  0  0  0  0
   -0.5675   -0.1203    0.3102 C   0  0  1  0  0  0  0  0  0  0  0  0
    0.0191   -0.5718    1.1110 H   0  0  0  0  0  0  0  0  0  0  0  0
    0.1724   -0.3238   -1.0286 C   0  0  0  0  0  0  0  0  0  0  0  0
    1.1500    0.1577   -0.9634 H   0  0  0  0  0  0  0  0  0  0  0  0
    0.3396   -1.3949   -1.1622 H   0  0  0  0  0  0  0  0  0  0  0  0
   -0.5497    0.2082   -2.2802 C   0  0  0  0  0  0  0  0  0  0  0  0
   -0.0755   -0.1916   -3.1766 H   0  0  0  0  0  0  0  0  0  0  0  0
   -2.0350   -0.1643   -2.2943 C   0  0  0  0  0  0  0  0  0  0  0  0
   -2.5208    0.2154   -1.3944 H   0  0  0  0  0  0  0  0  0  0  0  0
   -2.5149    0.2731   -3.1701 H   0  0  0  0  0  0  0  0  0  0  0  0
   -2.1599   -1.2441   -2.3368 H   0  0  0  0  0  0  0  0  0  0  0  0
   -0.4440    1.7320   -2.3286 C   0  0  0  0  0  0  0  0  0  0  0  0
    0.6052    2.0262   -2.3518 H   0  0  0  0  0  0  0  0  0  0  0  0
   -0.9306    2.1089   -3.2281 H   0  0  0  0  0  0  0  0  0  0  0  0
   -0.9211    2.1696   -1.4510 H   0  0  0  0  0  0  0  0  0  0  0  0
   -0.7793    1.3659    0.6455 C   0  0  0  0  0  0  0  0  0  0  0  0
   -1.6464    2.0125    0.0623 O   0  0  0  0  0  0  0  0  0  0  0  0
    0.0189    1.9059    1.5756 N   0  0  0  0  0  0  0  0  0  0  0  0
    0.7024    1.3094    2.0137 H   0  0  0  0  0  0  0  0  0  0  0  0
   -0.0451    3.3046    1.9929 C   0  0  0  0  0  0  0  0  0  0  0  0
   -1.0415    3.5286    2.3805 H   0  0  0  0  0  0  0  0  0  0  0  0
    0.6954    3.5023    2.7695 H   0  0  0  0  0  0  0  0  0  0  0  0
    0.1474    3.9536    1.1372 H   0  0  0  0  0  0  0  0  0  0  0  0
  5  6  2  0  0  0  0
  5  7  1  0  0  0  0
  2  3  1  0  0  0  0
  2  4  1  0  0  0  0
  2  5  1  0  0  0  0
  1  2  1  0  0  0  0
 24 25  2  0  0  0  0
 24 26  1  0  0  0  0
 20 21  1  0  0  0  0
 20 22  1  0  0  0  0
 20 23  1  0  0  0  0
 16 17  1  0  0  0  0
 16 18  1  0  0  0  0
 16 19  1  0  0  0  0
 14 15  1  0  0  0  0
 14 16  1  0  0  0  0
 14 20  1  0  0  0  0
 11 12  1  0  0  0  0
 11 13  1  0  0  0  0
 11 14  1  0  0  0  0
  9 10  1  0  0  0  0
  9 11  1  0  0  0  0
  9 24  1  0  0  0  0
  7  8  1  0  0  0  0
  7  9  1  0  0  0  0
 28 29  1  0  0  0  0
 28 30  1  0  0  0  0
 28 31  1  0  0  0  0
 26 27  1  0  0  0  0
 26 28  1  0  0  0  0
M  END
$$$$
default_name
  -OEChem-02102213163D

 31 30  0     1  0  0  0  0  0999 V2000
   -3.5895   -3.5013    1.1082 H   0  0  0  0  0  0  0  0  0  0  0  0
   -3.5145   -2.5363    0.6082 C   0  0  0  0  0  0  0  0  0  0  0  0
   -4.2285   -1.8413    1.0452 H   0  0  0  0  0  0  0  0  0  0  0  0
   -3.7155   -2.6583   -0.4538 H   0  0  0  0  0  0  0  0  0  0  0  0
   -2.1155   -1.9963    0.7922 C   0  0  0  0  0  0  0  0  0  0  0  0
   -1.2875   -2.6383    1.4252 O   0  0  0  0  0  0  0  0  0  0  0  0
   -1.8575   -0.8123    0.2402 N   0  0  0  0  0  0  0  0  0  0  0  0
   -2.6005   -0.3333   -0.2478 H   0  0  0  0  0  0  0  0  0  0  0  0
   -0.5675   -0.1203    0.3102 C   0  0  1  0  0  0  0  0  0  0  0  0
    0.0191   -0.5718    1.1110 H   0  0  0  0  0  0  0  0  0  0  0  0
    0.1724   -0.3238   -1.0286 C   0  0  0  0  0  0  0  0  0  0  0  0
    1.1500    0.1577   -0.9634 H   0  0  0  0  0  0  0  0  0  0  0  0
    0.3396   -1.3949   -1.1622 H   0  0  0  0  0  0  0  0  0  0  0  0
   -0.5497    0.2082   -2.2802 C   0  0  0  0  0  0  0  0  0  0  0  0
   -0.2618   -0.3822   -3.1501 H   0  0  0  0  0  0  0  0  0  0  0  0
   -2.0733    0.1660   -2.1318 C   0  0  0  0  0  0  0  0  0  0  0  0
   -2.3762    0.7398   -1.2549 H   0  0  0  0  0  0  0  0  0  0  0  0
   -2.5405    0.5960   -3.0181 H   0  0  0  0  0  0  0  0  0  0  0  0
   -2.4204   -0.8592   -2.0229 H   0  0  0  0  0  0  0  0  0  0  0  0
   -0.1396    1.6580   -2.5356 C   0  0  0  0  0  0  0  0  0  0  0  0
    0.9396    1.7143   -2.6773 H   0  0  0  0  0  0  0  0  0  0  0  0
   -0.6281    2.0282   -3.4369 H   0  0  0  0  0  0  0  0  0  0  0  0
   -0.4245    2.2837   -1.6890 H   0  0  0  0  0  0  0  0  0  0  0  0
   -0.7793    1.3659    0.6455 C   0  0  0  0  0  0  0  0  0  0  0  0
   -1.6464    2.0125    0.0623 O   0  0  0  0  0  0  0  0  0  0  0  0
    0.0189    1.9059    1.5756 N   0  0  0  0  0  0  0  0  0  0  0  0
    0.7024    1.3094    2.0137 H   0  0  0  0  0  0  0  0  0  0  0  0
   -0.0451    3.3046    1.9929 C   0  0  0  0  0  0  0  0  0  0  0  0
   -1.0415    3.5286    2.3805 H   0  0  0  0  0  0  0  0  0  0  0  0
    0.6954    3.5023    2.7695 H   0  0  0  0  0  0  0  0  0  0  0  0
    0.1474    3.9536    1.1372 H   0  0  0  0  0  0  0  0  0  0  0  0
  5  6  2  0  0  0  0
  5  7  1  0  0  0  0
  2  3  1  0  0  0  0
  2  4  1  0  0  0  0
  2  5  1  0  0  0  0
  1  2  1  0  0  0  0
 24 25  2  0  0  0  0
 24 26  1  0  0  0  0
 20 21  1  0  0  0  0
 20 22  1  0  0  0  0
 20 23  1  0  0  0  0
 16 17  1  0  0  0  0
 16 18  1  0  0  0  0
 16 19  1  0  0  0  0
 14 15  1  0  0  0  0
 14 16  1  0  0  0  0
 14 20  1  0  0  0  0
 11 12  1  0  0  0  0
 11 13  1  0  0  0  0
 11 14  1  0  0  0  0
  9 10  1  0  0  0  0
  9 11  1  0  0  0  0
  9 24  1  0  0  0  0
  7  8  1  0  0  0  0
  7  9  1  0  0  0  0
 28 29  1  0  0  0  0
 28 30  1  0  0  0  0
 28 31  1  0  0  0  0
 26 27  1  0  0  0  0
 26 28  1  0  0  0  0
M  END
$$$$
default_name
  -OEChem-02102213163D

 31 30  0     1  0  0  0  0  0999 V2000
   -3.5895   -3.5013    1.1082 H   0  0  0  0  0  0  0  0  0  0  0  0
   -3.5145   -2.5363    0.6082 C   0  0  0  0  0  0  0  0  0  0  0  0
   -4.2285   -1.8413    1.0452 H   0  0  0  0  0  0  0  0  0  0  0  0
   -3.7155   -2.6583   -0.4538 H   0  0  0  0  0  0  0  0  0  0  0  0
   -2.1155   -1.9963    0.7922 C   0  0  0  0  0  0  0  0  0  0  0  0
   -1.2875   -2.6383    1.4252 O   0  0  0  0  0  0  0  0  0  0  0  0
   -1.8575   -0.8123    0.2402 N   0  0  0  0  0  0  0  0  0  0  0  0
   -2.6005   -0.3333   -0.2478 H   0  0  0  0  0  0  0  0  0  0  0  0
   -0.5675   -0.1203    0.3102 C   0  0  1  0  0  0  0  0  0  0  0  0
    0.0191   -0.5718    1.1110 H   0  0  0  0  0  0  0  0  0  0  0  0
    0.1724   -0.3238   -1.0286 C   0  0  0  0  0  0  0  0  0  0  0  0
    1.1500    0.1577   -0.9634 H   0  0  0  0  0  0  0  0  0  0  0  0
    0.3396   -1.3949   -1.1622 H   0  0  0  0  0  0  0  0  0  0  0  0
   -0.5497    0.2082   -2.2802 C   0  0  0  0  0  0  0  0  0  0  0  0
   -0.4794   -0.5239   -3.0848 H   0  0  0  0  0  0  0  0  0  0  0  0
   -2.0262    0.5128   -2.0115 C   0  0  0  0  0  0  0  0  0  0  0  0
   -2.1137    1.2328   -1.1968 H   0  0  0  0  0  0  0  0  0  0  0  0
   -2.4837    0.9317   -2.9081 H   0  0  0  0  0  0  0  0  0  0  0  0
   -2.5630   -0.3945   -1.7431 H   0  0  0  0  0  0  0  0  0  0  0  0
    0.1204    1.4974   -2.7538 C   0  0  0  0  0  0  0  0  0  0  0  0
    1.1679    1.3032   -2.9838 H   0  0  0  0  0  0  0  0  0  0  0  0
   -0.3717    1.8612   -3.6559 H   0  0  0  0  0  0  0  0  0  0  0  0
    0.0579    2.2605   -1.9772 H   0  0  0  0  0  0  0  0  0  0  0  0
   -0.7793    1.3659    0.6455 C   0  0  0  0  0  0  0  0  0  0  0  0
   -1.6464    2.0125    0.0623 O   0  0  0  0  0  0  0  0  0  0  0  0
    0.0189    1.9059    1.5756 N   0  0  0  0  0  0  0  0  0  0  0  0
    0.7024    1.3094    2.0137 H   0  0  0  0  0  0  0  0  0  0  0  0
   -0.0451    3.3046    1.9929 C   0  0  0  0  0  0  0  0  0  0  0  0
   -1.0415    3.5286    2.3805 H   0  0  0  0  0  0  0  0  0  0  0  0
    0.6954    3.5023    2.7695 H   0  0  0  0  0  0  0  0  0  0  0  0
    0.1474    3.9536    1.1372 H   0  0  0  0  0  0  0  0  0  0  0  0
  5  6  2  0  0  0  0
  5  7  1  0  0  0  0
  2  3  1  0  0  0  0
  2  4  1  0  0  0  0
  2  5  1  0  0  0  0
  1  2  1  0  0  0  0
 24 25  2  0  0  0  0
 24 26  1  0  0  0  0
 20 21  1  0  0  0  0
 20 22  1  0  0  0  0
 20 23  1  0  0  0  0
 16 17  1  0  0  0  0
 16 18  1  0  0  0  0
 16 19  1  0  0  0  0
 14 15  1  0  0  0  0
 14 16  1  0  0  0  0
 14 20  1  0  0  0  0
 11 12  1  0  0  0  0
 11 13  1  0  0  0  0
 11 14  1  0  0  0  0
  9 10  1  0  0  0  0
  9 11  1  0  0  0  0
  9 24  1  0  0  0  0
  7  8  1  0  0  0  0
  7  9  1  0  0  0  0
 28 29  1  0  0  0  0
 28 30  1  0  0  0  0
 28 31  1  0  0  0  0
 26 27  1  0  0  0  0
 26 28  1  0  0  0  0
M  END
$$$$
default_name
  -OEChem-02102213163D

 31 30  0     1  0  0  0  0  0999 V2000
   -3.5895   -3.5013    1.1082 H   0  0  0  0  0  0  0  0  0  0  0  0
   -3.5145   -2.5363    0.6082 C   0  0  0  0  0  0  0  0  0  0  0  0
   -4.2285   -1.8413    1.0452 H   0  0  0  0  0  0  0  0  0  0  0  0
   -3.7155   -2.6583   -0.4538 H   0  0  0  0  0  0  0  0  0  0  0  0
   -2.1155   -1.9963    0.7922 C   0  0  0  0  0  0  0  0  0  0  0  0
   -1.2875   -2.6383    1.4252 O   0  0  0  0  0  0  0  0  0  0  0  0
   -1.8575   -0.8123    0.2402 N   0  0  0  0  0  0  0  0  0  0  0  0
   -2.6005   -0.3333   -0.2478 H   0  0  0  0  0  0  0  0  0  0  0  0
   -0.5675   -0.1203    0.3102 C   0  0  1  0  0  0  0  0  0  0  0  0
    0.0191   -0.5718    1.1110 H   0  0  0  0  0  0  0  0  0  0  0  0
    0.1724   -0.3238   -1.0286 C   0  0  0  0  0  0  0  0  0  0  0  0
    1.1500    0.1577   -0.9634 H   0  0  0  0  0  0  0  0  0  0  0  0
    0.3396   -1.3949   -1.1622 H   0  0  0  0  0  0  0  0  0  0  0  0
   -0.5497    0.2082   -2.2802 C   0  0  0  0  0  0  0  0  0  0  0  0
   -0.7137   -0.6070   -2.9850 H   0  0  0  0  0  0  0  0  0  0  0  0
   -1.8971    0.8525   -1.9417 C   0  0  0  0  0  0  0  0  0  0  0  0
   -1.7513    1.6609   -1.2239 H   0  0  0  0  0  0  0  0  0  0  0  0
   -2.3484    1.2573   -2.8478 H   0  0  0  0  0  0  0  0  0  0  0  0
   -2.5780    0.1183   -1.5165 H   0  0  0  0  0  0  0  0  0  0  0  0
    0.3181    1.2611   -2.9684 C   0  0  0  0  0  0  0  0  0  0  0  0
    1.2745    0.8208   -3.2503 H   0  0  0  0  0  0  0  0  0  0  0  0
   -0.1787    1.6194   -3.8700 H   0  0  0  0  0  0  0  0  0  0  0  0
    0.4932    2.1016   -2.2958 H   0  0  0  0  0  0  0  0  0  0  0  0
   -0.7793    1.3659    0.6455 C   0  0  0  0  0  0  0  0  0  0  0  0
   -1.6464    2.0125    0.0623 O   0  0  0  0  0  0  0  0  0  0  0  0
    0.0189    1.9059    1.5756 N   0  0  0  0  0  0  0  0  0  0  0  0
    0.7024    1.3094    2.0137 H   0  0  0  0  0  0  0  0  0  0  0  0
   -0.0451    3.3046    1.9929 C   0  0  0  0  0  0  0  0  0  0  0  0
   -1.0415    3.5286    2.3805 H   0  0  0  0  0  0  0  0  0  0  0  0
    0.6954    3.5023    2.7695 H   0  0  0  0  0  0  0  0  0  0  0  0
    0.1474    3.9536    1.1372 H   0  0  0  0  0  0  0  0  0  0  0  0
  5  6  2  0  0  0  0
  5  7  1  0  0  0  0
  2  3  1  0  0  0  0
  2  4  1  0  0  0  0
  2  5  1  0  0  0  0
  1  2  1  0  0  0  0
 24 25  2  0  0  0  0
 24 26  1  0  0  0  0
 20 21  1  0  0  0  0
 20 22  1  0  0  0  0
 20 23  1  0  0  0  0
 16 17  1  0  0  0  0
 16 18  1  0  0  0  0
 16 19  1  0  0  0  0
 14 15  1  0  0  0  0
 14 16  1  0  0  0  0
 14 20  1  0  0  0  0
 11 12  1  0  0  0  0
 11 13  1  0  0  0  0
 11 14  1  0  0  0  0
  9 10  1  0  0  0  0
  9 11  1  0  0  0  0
  9 24  1  0  0  0  0
  7  8  1  0  0  0  0
  7  9  1  0  0  0  0
 28 29  1  0  0  0  0
 28 30  1  0  0  0  0
 28 31  1  0  0  0  0
 26 27  1  0  0  0  0
 26 28  1  0  0  0  0
M  END
$$$$
default_name
  -OEChem-02102213163D

 31 30  0     1  0  0  0  0  0999 V2000
   -3.5895   -3.5013    1.1082 H   0  0  0  0  0  0  0  0  0  0  0  0
   -3.5145   -2.5363    0.6082 C   0  0  0  0  0  0  0  0  0  0  0  0
   -4.2285   -1.8413    1.0452 H   0  0  0  0  0  0  0  0  0  0  0  0
   -3.7155   -2.6583   -0.4538 H   0  0  0  0  0  0  0  0  0  0  0  0
   -2.1155   -1.9963    0.7922 C   0  0  0  0  0  0  0  0  0  0  0  0
   -1.2875   -2.6383    1.4252 O   0  0  0  0  0  0  0  0  0  0  0  0
   -1.8575   -0.8123    0.2402 N   0  0  0  0  0  0  0  0  0  0  0  0
   -2.6005   -0.3333   -0.2478 H   0  0  0  0  0  0  0  0  0  0  0  0
   -0.5675   -0.1203    0.3102 C   0  0  1  0  0  0  0  0  0  0  0  0
    0.0191   -0.5718    1.1110 H   0  0  0  0  0  0  0  0  0  0  0  0
    0.1724   -0.3238   -1.0286 C   0  0  0  0  0  0  0  0  0  0  0  0
    1.1500    0.1577   -0.9634 H   0  0  0  0  0  0  0  0  0  0  0  0
    0.3396   -1.3949   -1.1622 H   0  0  0  0  0  0  0  0  0  0  0  0
   -0.5497    0.2082   -2.2802 C   0  0  0  0  0  0  0  0  0  0  0  0
   -0.9485   -0.6259   -2.8575 H   0  0  0  0  0  0  0  0  0  0  0  0
   -1.6946    1.1619   -1.9270 C   0  0  0  0  0  0  0  0  0  0  0  0
   -1.3135    1.9948   -1.3345 H   0  0  0  0  0  0  0  0  0  0  0  0
   -2.1438    1.5508   -2.8411 H   0  0  0  0  0  0  0  0  0  0  0  0
   -2.4643    0.6443   -1.3585 H   0  0  0  0  0  0  0  0  0  0  0  0
    0.4403    0.9652   -3.1646 C   0  0  0  0  0  0  0  0  0  0  0  0
    1.2522    0.3002   -3.4588 H   0  0  0  0  0  0  0  0  0  0  0  0
   -0.0623    1.3192   -4.0648 H   0  0  0  0  0  0  0  0  0  0  0  0
    0.8518    1.8179   -2.6233 H   0  0  0  0  0  0  0  0  0  0  0  0
   -0.7793    1.3659    0.6455 C   0  0  0  0  0  0  0  0  0  0  0  0
   -1.6464    2.0125    0.0623 O   0  0  0  0  0  0  0  0  0  0  0  0
    0.0189    1.9059    1.5756 N   0  0  0  0  0  0  0  0  0  0  0  0
    0.7024    1.3094    2.0137 H   0  0  0  0  0  0  0  0  0  0  0  0
   -0.0451    3.3046    1.9929 C   0  0  0  0  0  0  0  0  0  0  0  0
   -1.0415    3.5286    2.3805 H   0  0  0  0  0  0  0  0  0  0  0  0
    0.6954    3.5023    2.7695 H   0  0  0  0  0  0  0  0  0  0  0  0
    0.1474    3.9536    1.1372 H   0  0  0  0  0  0  0  0  0  0  0  0
  5  6  2  0  0  0  0
  5  7  1  0  0  0  0
  2  3  1  0  0  0  0
  2  4  1  0  0  0  0
  2  5  1  0  0  0  0
  1  2  1  0  0  0  0
 24 25  2  0  0  0  0
 24 26  1  0  0  0  0
 20 21  1  0  0  0  0
 20 22  1  0  0  0  0
 20 23  1  0  0  0  0
 16 17  1  0  0  0  0
 16 18  1  0  0  0  0
 16 19  1  0  0  0  0
 14 15  1  0  0  0  0
 14 16  1  0  0  0  0
 14 20  1  0  0  0  0
 11 12  1  0  0  0  0
 11 13  1  0  0  0  0
 11 14  1  0  0  0  0
  9 10  1  0  0  0  0
  9 11  1  0  0  0  0
  9 24  1  0  0  0  0
  7  8  1  0  0  0  0
  7  9  1  0  0  0  0
 28 29  1  0  0  0  0
 28 30  1  0  0  0  0
 28 31  1  0  0  0  0
 26 27  1  0  0  0  0
 26 28  1  0  0  0  0
M  END
$$$$
default_name
  -OEChem-02102213163D

 31 30  0     1  0  0  0  0  0999 V2000
   -3.5895   -3.5013    1.1082 H   0  0  0  0  0  0  0  0  0  0  0  0
   -3.5145   -2.5363    0.6082 C   0  0  0  0  0  0  0  0  0  0  0  0
   -4.2285   -1.8413    1.0452 H   0  0  0  0  0  0  0  0  0  0  0  0
   -3.7155   -2.6583   -0.4538 H   0  0  0  0  0  0  0  0  0  0  0  0
   -2.1155   -1.9963    0.7922 C   0  0  0  0  0  0  0  0  0  0  0  0
   -1.2875   -2.6383    1.4252 O   0  0  0  0  0  0  0  0  0  0  0  0
   -1.8575   -0.8123    0.2402 N   0  0  0  0  0  0  0  0  0  0  0  0
   -2.6005   -0.3333   -0.2478 H   0  0  0  0  0  0  0  0  0  0  0  0
   -0.5675   -0.1203    0.3102 C   0  0  1  0  0  0  0  0  0  0  0  0
    0.0191   -0.5718    1.1110 H   0  0  0  0  0  0  0  0  0  0  0  0
    0.1724   -0.3238   -1.0286 C   0  0  0  0  0  0  0  0  0  0  0  0
    1.1500    0.1577   -0.9634 H   0  0  0  0  0  0  0  0  0  0  0  0
    0.3396   -1.3949   -1.1622 H   0  0  0  0  0  0  0  0  0  0  0  0
   -0.5497    0.2082   -2.2802 C   0  0  0  0  0  0  0  0  0  0  0  0
   -1.1679   -0.5793   -2.7112 H   0  0  0  0  0  0  0  0  0  0  0  0
   -1.4326    1.4200   -1.9684 C   0  0  0  0  0  0  0  0  0  0  0  0
   -0.8304    2.2119   -1.5210 H   0  0  0  0  0  0  0  0  0  0  0  0
   -1.8838    1.7919   -2.8885 H   0  0  0  0  0  0  0  0  0  0  0  0
   -2.2296    1.1476   -1.2799 H   0  0  0  0  0  0  0  0  0  0  0  0
    0.4785    0.6299   -3.3292 C   0  0  0  0  0  0  0  0  0  0  0  0
    1.1024   -0.2234   -3.5949 H   0  0  0  0  0  0  0  0  0  0  0  0
   -0.0304    0.9811   -4.2269 H   0  0  0  0  0  0  0  0  0  0  0  0
    1.1091    1.4287   -2.9372 H   0  0  0  0  0  0  0  0  0  0  0  0
   -0.7793    1.3659    0.6455 C   0  0  0  0  0  0  0  0  0  0  0  0
   -1.6464    2.0125    0.0623 O   0  0  0  0  0  0  0  0  0  0  0  0
    0.0189    1.9059    1.5756 N   0  0  0  0  0  0  0  0  0  0  0  0
    0.7024    1.3094    2.0137 H   0  0  0  0  0  0  0  0  0  0  0  0
   -0.0451    3.3046    1.9929 C   0  0  0  0  0  0  0  0  0  0  0  0
   -1.0415    3.5286    2.3805 H   0  0  0  0  0  0  0  0  0  0  0  0
    0.6954    3.5023    2.7695 H   0  0  0  0  0  0  0  0  0  0  0  0
    0.1474    3.9536    1.1372 H   0  0  0  0  0  0  0  0  0  0  0  0
  5  6  2  0  0  0  0
  5  7  1  0  0  0  0
  2  3  1  0  0  0  0
  2  4  1  0  0  0  0
  2  5  1  0  0  0  0
  1  2  1  0  0  0  0
 24 25  2  0  0  0  0
 24 26  1  0  0  0  0
 20 21  1  0  0  0  0
 20 22  1  0  0  0  0
 20 23  1  0  0  0  0
 16 17  1  0  0  0  0
 16 18  1  0  0  0  0
 16 19  1  0  0  0  0
 14 15  1  0  0  0  0
 14 16  1  0  0  0  0
 14 20  1  0  0  0  0
 11 12  1  0  0  0  0
 11 13  1  0  0  0  0
 11 14  1  0  0  0  0
  9 10  1  0  0  0  0
  9 11  1  0  0  0  0
  9 24  1  0  0  0  0
  7  8  1  0  0  0  0
  7  9  1  0  0  0  0
 28 29  1  0  0  0  0
 28 30  1  0  0  0  0
 28 31  1  0  0  0  0
 26 27  1  0  0  0  0
 26 28  1  0  0  0  0
M  END
$$$$
default_name
  -OEChem-02102213163D

 31 30  0     1  0  0  0  0  0999 V2000
   -3.5895   -3.5013    1.1082 H   0  0  0  0  0  0  0  0  0  0  0  0
   -3.5145   -2.5363    0.6082 C   0  0  0  0  0  0  0  0  0  0  0  0
   -4.2285   -1.8413    1.0452 H   0  0  0  0  0  0  0  0  0  0  0  0
   -3.7155   -2.6583   -0.4538 H   0  0  0  0  0  0  0  0  0  0  0  0
   -2.1155   -1.9963    0.7922 C   0  0  0  0  0  0  0  0  0  0  0  0
   -1.2875   -2.6383    1.4252 O   0  0  0  0  0  0  0  0  0  0  0  0
   -1.8575   -0.8123    0.2402 N   0  0  0  0  0  0  0  0  0  0  0  0
   -2.6005   -0.3333   -0.2478 H   0  0  0  0  0  0  0  0  0  0  0  0
   -0.5675   -0.1203    0.3102 C   0  0  1  0  0  0  0  0  0  0  0  0
    0.0191   -0.5718    1.1110 H   0  0  0  0  0  0  0  0  0  0  0  0
    0.1724   -0.3238   -1.0286 C   0  0  0  0  0  0  0  0  0  0  0  0
    1.1500    0.1577   -0.9634 H   0  0  0  0  0  0  0  0  0  0  0  0
    0.3396   -1.3949   -1.1622 H   0  0  0  0  0  0  0  0  0  0  0  0
   -0.5497    0.2082   -2.2802 C   0  0  0  0  0  0  0  0  0  0  0  0
   -1.3569   -0.4704   -2.5558 H   0  0  0  0  0  0  0  0  0  0  0  0
   -1.1289    1.6091   -2.0632 C   0  0  0  0  0  0  0  0  0  0  0  0
   -0.3347    2.2972   -1.7706 H   0  0  0  0  0  0  0  0  0  0  0  0
   -1.5862    1.9644   -2.9869 H   0  0  0  0  0  0  0  0  0  0  0  0
   -1.8901    1.5940   -1.2861 H   0  0  0  0  0  0  0  0  0  0  0  0
    0.4301    0.2780   -3.4509 C   0  0  0  0  0  0  0  0  0  0  0  0
    0.8354   -0.7141   -3.6495 H   0  0  0  0  0  0  0  0  0  0  0  0
   -0.0852    0.6281   -4.3453 H   0  0  0  0  0  0  0  0  0  0  0  0
    1.2478    0.9604   -3.2162 H   0  0  0  0  0  0  0  0  0  0  0  0
   -0.7793    1.3659    0.6455 C   0  0  0  0  0  0  0  0  0  0  0  0
   -1.6464    2.0125    0.0623 O   0  0  0  0  0  0  0  0  0  0  0  0
    0.0189    1.9059    1.5756 N   0  0  0  0  0  0  0  0  0  0  0  0
    0.7024    1.3094    2.0137 H   0  0  0  0  0  0  0  0  0  0  0  0
   -0.0451    3.3046    1.9929 C   0  0  0  0  0  0  0  0  0  0  0  0
   -1.0415    3.5286    2.3805 H   0  0  0  0  0  0  0  0  0  0  0  0
    0.6954    3.5023    2.7695 H   0  0  0  0  0  0  0  0  0  0  0  0
    0.1474    3.9536    1.1372 H   0  0  0  0  0  0  0  0  0  0  0  0
  5  6  2  0  0  0  0
  5  7  1  0  0  0  0
  2  3  1  0  0  0  0
  2  4  1  0  0  0  0
  2  5  1  0  0  0  0
  1  2  1  0  0  0  0
 24 25  2  0  0  0  0
 24 26  1  0  0  0  0
 20 21  1  0  0  0  0
 20 22  1  0  0  0  0
 20 23  1  0  0  0  0
 16 17  1  0  0  0  0
 16 18  1  0  0  0  0
 16 19  1  0  0  0  0
 14 15  1  0  0  0  0
 14 16  1  0  0  0  0
 14 20  1  0  0  0  0
 11 12  1  0  0  0  0
 11 13  1  0  0  0  0
 11 14  1  0  0  0  0
  9 10  1  0  0  0  0
  9 11  1  0  0  0  0
  9 24  1  0  0  0  0
  7  8  1  0  0  0  0
  7  9  1  0  0  0  0
 28 29  1  0  0  0  0
 28 30  1  0  0  0  0
 28 31  1  0  0  0  0
 26 27  1  0  0  0  0
 26 28  1  0  0  0  0
M  END
$$$$
default_name
  -OEChem-02102213163D

 31 30  0     1  0  0  0  0  0999 V2000
   -3.5895   -3.5013    1.1082 H   0  0  0  0  0  0  0  0  0  0  0  0
   -3.5145   -2.5363    0.6082 C   0  0  0  0  0  0  0  0  0  0  0  0
   -4.2285   -1.8413    1.0452 H   0  0  0  0  0  0  0  0  0  0  0  0
   -3.7155   -2.6583   -0.4538 H   0  0  0  0  0  0  0  0  0  0  0  0
   -2.1155   -1.9963    0.7922 C   0  0  0  0  0  0  0  0  0  0  0  0
   -1.2875   -2.6383    1.4252 O   0  0  0  0  0  0  0  0  0  0  0  0
   -1.8575   -0.8123    0.2402 N   0  0  0  0  0  0  0  0  0  0  0  0
   -2.6005   -0.3333   -0.2478 H   0  0  0  0  0  0  0  0  0  0  0  0
   -0.5675   -0.1203    0.3102 C   0  0  1  0  0  0  0  0  0  0  0  0
    0.0191   -0.5718    1.1110 H   0  0  0  0  0  0  0  0  0  0  0  0
    0.1724   -0.3238   -1.0286 C   0  0  0  0  0  0  0  0  0  0  0  0
    1.1500    0.1577   -0.9634 H   0  0  0  0  0  0  0  0  0  0  0  0
    0.3396   -1.3949   -1.1622 H   0  0  0  0  0  0  0  0  0  0  0  0
   -0.5497    0.2082   -2.2802 C   0  0  0  0  0  0  0  0  0  0  0  0
   -1.5027   -0.3066   -2.4021 H   0  0  0  0  0  0  0  0  0  0  0  0
   -0.8043    1.7164   -2.2048 C   0  0  0  0  0  0  0  0  0  0  0  0
    0.1398    2.2451   -2.0665 H   0  0  0  0  0  0  0  0  0  0  0  0
   -1.2712    2.0565   -3.1295 H   0  0  0  0  0  0  0  0  0  0  0  0
   -1.4687    1.9529   -1.3766 H   0  0  0  0  0  0  0  0  0  0  0  0
    0.2985   -0.0665   -3.5214 C   0  0  0  0  0  0  0  0  0  0  0  0
    0.4694   -1.1386   -3.6188 H   0  0  0  0  0  0  0  0  0  0  0  0
   -0.2230    0.2844   -4.4119 H   0  0  0  0  0  0  0  0  0  0  0  0
    1.2582    0.4452   -3.4413 H   0  0  0  0  0  0  0  0  0  0  0  0
   -0.7793    1.3659    0.6455 C   0  0  0  0  0  0  0  0  0  0  0  0
   -1.6464    2.0125    0.0623 O   0  0  0  0  0  0  0  0  0  0  0  0
    0.0189    1.9059    1.5756 N   0  0  0  0  0  0  0  0  0  0  0  0
    0.7024    1.3094    2.0137 H   0  0  0  0  0  0  0  0  0  0  0  0
   -0.0451    3.3046    1.9929 C   0  0  0  0  0  0  0  0  0  0  0  0
   -1.0415    3.5286    2.3805 H   0  0  0  0  0  0  0  0  0  0  0  0
    0.6954    3.5023    2.7695 H   0  0  0  0  0  0  0  0  0  0  0  0
    0.1474    3.9536    1.1372 H   0  0  0  0  0  0  0  0  0  0  0  0
  5  6  2  0  0  0  0
  5  7  1  0  0  0  0
  2  3  1  0  0  0  0
  2  4  1  0  0  0  0
  2  5  1  0  0  0  0
  1  2  1  0  0  0  0
 24 25  2  0  0  0  0
 24 26  1  0  0  0  0
 20 21  1  0  0  0  0
 20 22  1  0  0  0  0
 20 23  1  0  0  0  0
 16 17  1  0  0  0  0
 16 18  1  0  0  0  0
 16 19  1  0  0  0  0
 14 15  1  0  0  0  0
 14 16  1  0  0  0  0
 14 20  1  0  0  0  0
 11 12  1  0  0  0  0
 11 13  1  0  0  0  0
 11 14  1  0  0  0  0
  9 10  1  0  0  0  0
  9 11  1  0  0  0  0
  9 24  1  0  0  0  0
  7  8  1  0  0  0  0
  7  9  1  0  0  0  0
 28 29  1  0  0  0  0
 28 30  1  0  0  0  0
 28 31  1  0  0  0  0
 26 27  1  0  0  0  0
 26 28  1  0  0  0  0
M  END
$$$$
default_name
  -OEChem-02102213163D

 31 30  0     1  0  0  0  0  0999 V2000
   -3.5895   -3.5013    1.1082 H   0  0  0  0  0  0  0  0  0  0  0  0
   -3.5145   -2.5363    0.6082 C   0  0  0  0  0  0  0  0  0  0  0  0
   -4.2285   -1.8413    1.0452 H   0  0  0  0  0  0  0  0  0  0  0  0
   -3.7155   -2.6583   -0.4538 H   0  0  0  0  0  0  0  0  0  0  0  0
   -2.1155   -1.9963    0.7922 C   0  0  0  0  0  0  0  0  0  0  0  0
   -1.2875   -2.6383    1.4252 O   0  0  0  0  0  0  0  0  0  0  0  0
   -1.8575   -0.8123    0.2402 N   0  0  0  0  0  0  0  0  0  0  0  0
   -2.6005   -0.3333   -0.2478 H   0  0  0  0  0  0  0  0  0  0  0  0
   -0.5675   -0.1203    0.3102 C   0  0  1  0  0  0  0  0  0  0  0  0
    0.0191   -0.5718    1.1110 H   0  0  0  0  0  0  0  0  0  0  0  0
    0.1724   -0.3238   -1.0286 C   0  0  0  0  0  0  0  0  0  0  0  0
    1.1500    0.1577   -0.9634 H   0  0  0  0  0  0  0  0  0  0  0  0
    0.3396   -1.3949   -1.1622 H   0  0  0  0  0  0  0  0  0  0  0  0
   -0.5497    0.2082   -2.2802 C   0  0  0  0  0  0  0  0  0  0  0  0
   -1.5953   -0.0990   -2.2604 H   0  0  0  0  0  0  0  0  0  0  0  0
   -0.4809    1.7345   -2.3837 C   0  0  0  0  0  0  0  0  0  0  0  0
    0.5606    2.0590   -2.3884 H   0  0  0  0  0  0  0  0  0  0  0  0
   -0.9604    2.0619   -3.3065 H   0  0  0  0  0  0  0  0  0  0  0  0
   -0.9943    2.2000   -1.5452 H   0  0  0  0  0  0  0  0  0  0  0  0
    0.0926   -0.3802   -3.5359 C   0  0  0  0  0  0  0  0  0  0  0  0
    0.0294   -1.4678   -3.5049 H   0  0  0  0  0  0  0  0  0  0  0  0
   -0.4344   -0.0267   -4.4222 H   0  0  0  0  0  0  0  0  0  0  0  0
    1.1398   -0.0821   -3.5971 H   0  0  0  0  0  0  0  0  0  0  0  0
   -0.7793    1.3659    0.6455 C   0  0  0  0  0  0  0  0  0  0  0  0
   -1.6464    2.0125    0.0623 O   0  0  0  0  0  0  0  0  0  0  0  0
    0.0189    1.9059    1.5756 N   0  0  0  0  0  0  0  0  0  0  0  0
    0.7024    1.3094    2.0137 H   0  0  0  0  0  0  0  0  0  0  0  0
   -0.0451    3.3046    1.9929 C   0  0  0  0  0  0  0  0  0  0  0  0
   -1.0415    3.5286    2.3805 H   0  0  0  0  0  0  0  0  0  0  0  0
    0.6954    3.5023    2.7695 H   0  0  0  0  0  0  0  0  0  0  0  0
    0.1474    3.9536    1.1372 H   0  0  0  0  0  0  0  0  0  0  0  0
  5  6  2  0  0  0  0
  5  7  1  0  0  0  0
  2  3  1  0  0  0  0
  2  4  1  0  0  0  0
  2  5  1  0  0  0  0
  1  2  1  0  0  0  0
 24 25  2  0  0  0  0
 24 26  1  0  0  0  0
 20 21  1  0  0  0  0
 20 22  1  0  0  0  0
 20 23  1  0  0  0  0
 16 17  1  0  0  0  0
 16 18  1  0  0  0  0
 16 19  1  0  0  0  0
 14 15  1  0  0  0  0
 14 16  1  0  0  0  0
 14 20  1  0  0  0  0
 11 12  1  0  0  0  0
 11 13  1  0  0  0  0
 11 14  1  0  0  0  0
  9 10  1  0  0  0  0
  9 11  1  0  0  0  0
  9 24  1  0  0  0  0
  7  8  1  0  0  0  0
  7  9  1  0  0  0  0
 28 29  1  0  0  0  0
 28 30  1  0  0  0  0
 28 31  1  0  0  0  0
 26 27  1  0  0  0  0
 26 28  1  0  0  0  0
M  END
$$$$
default_name
  -OEChem-02102213163D

 31 30  0     1  0  0  0  0  0999 V2000
   -3.5895   -3.5013    1.1082 H   0  0  0  0  0  0  0  0  0  0  0  0
   -3.5145   -2.5363    0.6082 C   0  0  0  0  0  0  0  0  0  0  0  0
   -4.2285   -1.8413    1.0452 H   0  0  0  0  0  0  0  0  0  0  0  0
   -3.7155   -2.6583   -0.4538 H   0  0  0  0  0  0  0  0  0  0  0  0
   -2.1155   -1.9963    0.7922 C   0  0  0  0  0  0  0  0  0  0  0  0
   -1.2875   -2.6383    1.4252 O   0  0  0  0  0  0  0  0  0  0  0  0
   -1.8575   -0.8123    0.2402 N   0  0  0  0  0  0  0  0  0  0  0  0
   -2.6005   -0.3333   -0.2478 H   0  0  0  0  0  0  0  0  0  0  0  0
   -0.5675   -0.1203    0.3102 C   0  0  1  0  0  0  0  0  0  0  0  0
    0.0191   -0.5718    1.1110 H   0  0  0  0  0  0  0  0  0  0  0  0
    0.1724   -0.3238   -1.0286 C   0  0  0  0  0  0  0  0  0  0  0  0
    1.1500    0.1577   -0.9634 H   0  0  0  0  0  0  0  0  0  0  0  0
    0.3396   -1.3949   -1.1622 H   0  0  0  0  0  0  0  0  0  0  0  0
   -0.5497    0.2082   -2.2802 C   0  0  0  0  0  0  0  0  0  0  0  0
   -1.6284    0.1382   -2.1405 H   0  0  0  0  0  0  0  0  0  0  0  0
   -0.1806    1.6623   -2.5877 C   0  0  0  0  0  0  0  0  0  0  0  0
    0.8992    1.7517   -2.7143 H   0  0  0  0  0  0  0  0  0  0  0  0
   -0.6748    1.9802   -3.5060 H   0  0  0  0  0  0  0  0  0  0  0  0
   -0.4992    2.3184   -1.7805 H   0  0  0  0  0  0  0  0  0  0  0  0
   -0.1737   -0.6416   -3.4934 C   0  0  0  0  0  0  0  0  0  0  0  0
   -0.4548   -1.6795   -3.3155 H   0  0  0  0  0  0  0  0  0  0  0  0
   -0.7050   -0.2840   -4.3755 H   0  0  0  0  0  0  0  0  0  0  0  0
    0.9006   -0.5854   -3.6730 H   0  0  0  0  0  0  0  0  0  0  0  0
   -0.7793    1.3659    0.6455 C   0  0  0  0  0  0  0  0  0  0  0  0
   -1.6464    2.0125    0.0623 O   0  0  0  0  0  0  0  0  0  0  0  0
    0.0189    1.9059    1.5756 N   0  0  0  0  0  0  0  0  0  0  0  0
    0.7024    1.3094    2.0137 H   0  0  0  0  0  0  0  0  0  0  0  0
   -0.0451    3.3046    1.9929 C   0  0  0  0  0  0  0  0  0  0  0  0
   -1.0415    3.5286    2.3805 H   0  0  0  0  0  0  0  0  0  0  0  0
    0.6954    3.5023    2.7695 H   0  0  0  0  0  0  0  0  0  0  0  0
    0.1474    3.9536    1.1372 H   0  0  0  0  0  0  0  0  0  0  0  0
  5  6  2  0  0  0  0
  5  7  1  0  0  0  0
  2  3  1  0  0  0  0
  2  4  1  0  0  0  0
  2  5  1  0  0  0  0
  1  2  1  0  0  0  0
 24 25  2  0  0  0  0
 24 26  1  0  0  0  0
 20 21  1  0  0  0  0
 20 22  1  0  0  0  0
 20 23  1  0  0  0  0
 16 17  1  0  0  0  0
 16 18  1  0  0  0  0
 16 19  1  0  0  0  0
 14 15  1  0  0  0  0
 14 16  1  0  0  0  0
 14 20  1  0  0  0  0
 11 12  1  0  0  0  0
 11 13  1  0  0  0  0
 11 14  1  0  0  0  0
  9 10  1  0  0  0  0
  9 11  1  0  0  0  0
  9 24  1  0  0  0  0
  7  8  1  0  0  0  0
  7  9  1  0  0  0  0
 28 29  1  0  0  0  0
 28 30  1  0  0  0  0
 28 31  1  0  0  0  0
 26 27  1  0  0  0  0
 26 28  1  0  0  0  0
M  END
$$$$
default_name
  -OEChem-02102213163D

 31 30  0     1  0  0  0  0  0999 V2000
   -3.5895   -3.5013    1.1082 H   0  0  0  0  0  0  0  0  0  0  0  0
   -3.5145   -2.5363    0.6082 C   0  0  0  0  0  0  0  0  0  0  0  0
   -4.2285   -1.8413    1.0452 H   0  0  0  0  0  0  0  0  0  0  0  0
   -3.7155   -2.6583   -0.4538 H   0  0  0  0  0  0  0  0  0  0  0  0
   -2.1155   -1.9963    0.7922 C   0  0  0  0  0  0  0  0  0  0  0  0
   -1.2875   -2.6383    1.4252 O   0  0  0  0  0  0  0  0  0  0  0  0
   -1.8575   -0.8123    0.2402 N   0  0  0  0  0  0  0  0  0  0  0  0
   -2.6005   -0.3333   -0.2478 H   0  0  0  0  0  0  0  0  0  0  0  0
   -0.5675   -0.1203    0.3102 C   0  0  1  0  0  0  0  0  0  0  0  0
    0.0191   -0.5718    1.1110 H   0  0  0  0  0  0  0  0  0  0  0  0
    0.1724   -0.3238   -1.0286 C   0  0  0  0  0  0  0  0  0  0  0  0
    1.1500    0.1577   -0.9634 H   0  0  0  0  0  0  0  0  0  0  0  0
    0.3396   -1.3949   -1.1622 H   0  0  0  0  0  0  0  0  0  0  0  0
   -0.5497    0.2082   -2.2802 C   0  0  0  0  0  0  0  0  0  0  0  0
   -1.5998    0.3888   -2.0505 H   0  0  0  0  0  0  0  0  0  0  0  0
    0.0760    1.5046   -2.8027 C   0  0  0  0  0  0  0  0  0  0  0  0
    1.1324    1.3440   -3.0222 H   0  0  0  0  0  0  0  0  0  0  0  0
   -0.4340    1.8170   -3.7143 H   0  0  0  0  0  0  0  0  0  0  0  0
   -0.0171    2.3001   -2.0665 H   0  0  0  0  0  0  0  0  0  0  0  0
   -0.4820   -0.8329   -3.3969 C   0  0  0  0  0  0  0  0  0  0  0  0
   -0.9500   -1.7591   -3.0636 H   0  0  0  0  0  0  0  0  0  0  0  0
   -1.0163   -0.4700   -4.2749 H   0  0  0  0  0  0  0  0  0  0  0  0
    0.5568   -1.0304   -3.6639 H   0  0  0  0  0  0  0  0  0  0  0  0
   -0.7793    1.3659    0.6455 C   0  0  0  0  0  0  0  0  0  0  0  0
   -1.6464    2.0125    0.0623 O   0  0  0  0  0  0  0  0  0  0  0  0
    0.0189    1.9059    1.5756 N   0  0  0  0  0  0  0  0  0  0  0  0
    0.7024    1.3094    2.0137 H   0  0  0  0  0  0  0  0  0  0  0  0
   -0.0451    3.3046    1.9929 C   0  0  0  0  0  0  0  0  0  0  0  0
   -1.0415    3.5286    2.3805 H   0  0  0  0  0  0  0  0  0  0  0  0
    0.6954    3.5023    2.7695 H   0  0  0  0  0  0  0  0  0  0  0  0
    0.1474    3.9536    1.1372 H   0  0  0  0  0  0  0  0  0  0  0  0
  5  6  2  0  0  0  0
  5  7  1  0  0  0  0
  2  3  1  0  0  0  0
  2  4  1  0  0  0  0
  2  5  1  0  0  0  0
  1  2  1  0  0  0  0
 24 25  2  0  0  0  0
 24 26  1  0  0  0  0
 20 21  1  0  0  0  0
 20 22  1  0  0  0  0
 20 23  1  0  0  0  0
 16 17  1  0  0  0  0
 16 18  1  0  0  0  0
 16 19  1  0  0  0  0
 14 15  1  0  0  0  0
 14 16  1  0  0  0  0
 14 20  1  0  0  0  0
 11 12  1  0  0  0  0
 11 13  1  0  0  0  0
 11 14  1  0  0  0  0
  9 10  1  0  0  0  0
  9 11  1  0  0  0  0
  9 24  1  0  0  0  0
  7  8  1  0  0  0  0
  7  9  1  0  0  0  0
 28 29  1  0  0  0  0
 28 30  1  0  0  0  0
 28 31  1  0  0  0  0
 26 27  1  0  0  0  0
 26 28  1  0  0  0  0
M  END
$$$$
default_name
  -OEChem-02102213163D

 31 30  0     1  0  0  0  0  0999 V2000
   -3.5895   -3.5013    1.1082 H   0  0  0  0  0  0  0  0  0  0  0  0
   -3.5145   -2.5363    0.6082 C   0  0  0  0  0  0  0  0  0  0  0  0
   -4.2285   -1.8413    1.0452 H   0  0  0  0  0  0  0  0  0  0  0  0
   -3.7155   -2.6583   -0.4538 H   0  0  0  0  0  0  0  0  0  0  0  0
   -2.1155   -1.9963    0.7922 C   0  0  0  0  0  0  0  0  0  0  0  0
   -1.2875   -2.6383    1.4252 O   0  0  0  0  0  0  0  0  0  0  0  0
   -1.8575   -0.8123    0.2402 N   0  0  0  0  0  0  0  0  0  0  0  0
   -2.6005   -0.3333   -0.2478 H   0  0  0  0  0  0  0  0  0  0  0  0
   -0.5675   -0.1203    0.3102 C   0  0  1  0  0  0  0  0  0  0  0  0
    0.0191   -0.5718    1.1110 H   0  0  0  0  0  0  0  0  0  0  0  0
    0.1724   -0.3238   -1.0286 C   0  0  0  0  0  0  0  0  0  0  0  0
    1.1500    0.1577   -0.9634 H   0  0  0  0  0  0  0  0  0  0  0  0
    0.3396   -1.3949   -1.1622 H   0  0  0  0  0  0  0  0  0  0  0  0
   -0.5497    0.2082   -2.2802 C   0  0  0  0  0  0  0  0  0  0  0  0
   -1.5113    0.6358   -1.9965 H   0  0  0  0  0  0  0  0  0  0  0  0
    0.2714    1.2722   -3.0143 C   0  0  0  0  0  0  0  0  0  0  0  0
    1.2444    0.8638   -3.2909 H   0  0  0  0  0  0  0  0  0  0  0  0
   -0.2544    1.5835   -3.9172 H   0  0  0  0  0  0  0  0  0  0  0  0
    0.4192    2.1462   -2.3836 H   0  0  0  0  0  0  0  0  0  0  0  0
   -0.8114   -0.9411   -3.2528 C   0  0  0  0  0  0  0  0  0  0  0  0
   -1.4226   -1.7012   -2.7664 H   0  0  0  0  0  0  0  0  0  0  0  0
   -1.3471   -0.5719   -4.1274 H   0  0  0  0  0  0  0  0  0  0  0  0
    0.1320   -1.3868   -3.5703 H   0  0  0  0  0  0  0  0  0  0  0  0
   -0.7793    1.3659    0.6455 C   0  0  0  0  0  0  0  0  0  0  0  0
   -1.6464    2.0125    0.0623 O   0  0  0  0  0  0  0  0  0  0  0  0
    0.0189    1.9059    1.5756 N   0  0  0  0  0  0  0  0  0  0  0  0
    0.7024    1.3094    2.0137 H   0  0  0  0  0  0  0  0  0  0  0  0
   -0.0451    3.3046    1.9929 C   0  0  0  0  0  0  0  0  0  0  0  0
   -1.0415    3.5286    2.3805 H   0  0  0  0  0  0  0  0  0  0  0  0
    0.6954    3.5023    2.7695 H   0  0  0  0  0  0  0  0  0  0  0  0
    0.1474    3.9536    1.1372 H   0  0  0  0  0  0  0  0  0  0  0  0
  5  6  2  0  0  0  0
  5  7  1  0  0  0  0
  2  3  1  0  0  0  0
  2  4  1  0  0  0  0
  2  5  1  0  0  0  0
  1  2  1  0  0  0  0
 24 25  2  0  0  0  0
 24 26  1  0  0  0  0
 20 21  1  0  0  0  0
 20 22  1  0  0  0  0
 20 23  1  0  0  0  0
 16 17  1  0  0  0  0
 16 18  1  0  0  0  0
 16 19  1  0  0  0  0
 14 15  1  0  0  0  0
 14 16  1  0  0  0  0
 14 20  1  0  0  0  0
 11 12  1  0  0  0  0
 11 13  1  0  0  0  0
 11 14  1  0  0  0  0
  9 10  1  0  0  0  0
  9 11  1  0  0  0  0
  9 24  1  0  0  0  0
  7  8  1  0  0  0  0
  7  9  1  0  0  0  0
 28 29  1  0  0  0  0
 28 30  1  0  0  0  0
 28 31  1  0  0  0  0
 26 27  1  0  0  0  0
 26 28  1  0  0  0  0
M  END
$$$$
default_name
  -OEChem-02102213163D

 31 30  0     1  0  0  0  0  0999 V2000
   -3.5895   -3.5013    1.1082 H   0  0  0  0  0  0  0  0  0  0  0  0
   -3.5145   -2.5363    0.6082 C   0  0  0  0  0  0  0  0  0  0  0  0
   -4.2285   -1.8413    1.0452 H   0  0  0  0  0  0  0  0  0  0  0  0
   -3.7155   -2.6583   -0.4538 H   0  0  0  0  0  0  0  0  0  0  0  0
   -2.1155   -1.9963    0.7922 C   0  0  0  0  0  0  0  0  0  0  0  0
   -1.2875   -2.6383    1.4252 O   0  0  0  0  0  0  0  0  0  0  0  0
   -1.8575   -0.8123    0.2402 N   0  0  0  0  0  0  0  0  0  0  0  0
   -2.6005   -0.3333   -0.2478 H   0  0  0  0  0  0  0  0  0  0  0  0
   -0.5675   -0.1203    0.3102 C   0  0  1  0  0  0  0  0  0  0  0  0
    0.0191   -0.5718    1.1110 H   0  0  0  0  0  0  0  0  0  0  0  0
    0.1724   -0.3238   -1.0286 C   0  0  0  0  0  0  0  0  0  0  0  0
    1.1500    0.1577   -0.9634 H   0  0  0  0  0  0  0  0  0  0  0  0
    0.3396   -1.3949   -1.1622 H   0  0  0  0  0  0  0  0  0  0  0  0
   -0.5497    0.2082   -2.2802 C   0  0  0  0  0  0  0  0  0  0  0  0
   -1.3691    0.8623   -1.9823 H   0  0  0  0  0  0  0  0  0  0  0  0
    0.3924    0.9810   -3.2079 C   0  0  0  0  0  0  0  0  0  0  0  0
    1.2275    0.3438   -3.5022 H   0  0  0  0  0  0  0  0  0  0  0  0
   -0.1482    1.2954   -4.1009 H   0  0  0  0  0  0  0  0  0  0  0  0
    0.7799    1.8673   -2.7102 H   0  0  0  0  0  0  0  0  0  0  0  0
   -1.1395   -0.9588   -3.0711 C   0  0  0  0  0  0  0  0  0  0  0  0
   -1.8404   -1.5098   -2.4440 H   0  0  0  0  0  0  0  0  0  0  0  0
   -1.6749   -0.5829   -3.9429 H   0  0  0  0  0  0  0  0  0  0  0  0
   -0.3450   -1.6303   -3.3986 H   0  0  0  0  0  0  0  0  0  0  0  0
   -0.7793    1.3659    0.6455 C   0  0  0  0  0  0  0  0  0  0  0  0
   -1.6464    2.0125    0.0623 O   0  0  0  0  0  0  0  0  0  0  0  0
    0.0189    1.9059    1.5756 N   0  0  0  0  0  0  0  0  0  0  0  0
    0.7024    1.3094    2.0137 H   0  0  0  0  0  0  0  0  0  0  0  0
   -0.0451    3.3046    1.9929 C   0  0  0  0  0  0  0  0  0  0  0  0
   -1.0415    3.5286    2.3805 H   0  0  0  0  0  0  0  0  0  0  0  0
    0.6954    3.5023    2.7695 H   0  0  0  0  0  0  0  0  0  0  0  0
    0.1474    3.9536    1.1372 H   0  0  0  0  0  0  0  0  0  0  0  0
  5  6  2  0  0  0  0
  5  7  1  0  0  0  0
  2  3  1  0  0  0  0
  2  4  1  0  0  0  0
  2  5  1  0  0  0  0
  1  2  1  0  0  0  0
 24 25  2  0  0  0  0
 24 26  1  0  0  0  0
 20 21  1  0  0  0  0
 20 22  1  0  0  0  0
 20 23  1  0  0  0  0
 16 17  1  0  0  0  0
 16 18  1  0  0  0  0
 16 19  1  0  0  0  0
 14 15  1  0  0  0  0
 14 16  1  0  0  0  0
 14 20  1  0  0  0  0
 11 12  1  0  0  0  0
 11 13  1  0  0  0  0
 11 14  1  0  0  0  0
  9 10  1  0  0  0  0
  9 11  1  0  0  0  0
  9 24  1  0  0  0  0
  7  8  1  0  0  0  0
  7  9  1  0  0  0  0
 28 29  1  0  0  0  0
 28 30  1  0  0  0  0
 28 31  1  0  0  0  0
 26 27  1  0  0  0  0
 26 28  1  0  0  0  0
M  END
$$$$
default_name
  -OEChem-02102213163D

 31 30  0     1  0  0  0  0  0999 V2000
   -3.5895   -3.5013    1.1082 H   0  0  0  0  0  0  0  0  0  0  0  0
   -3.5145   -2.5363    0.6082 C   0  0  0  0  0  0  0  0  0  0  0  0
   -4.2285   -1.8413    1.0452 H   0  0  0  0  0  0  0  0  0  0  0  0
   -3.7155   -2.6583   -0.4538 H   0  0  0  0  0  0  0  0  0  0  0  0
   -2.1155   -1.9963    0.7922 C   0  0  0  0  0  0  0  0  0  0  0  0
   -1.2875   -2.6383    1.4252 O   0  0  0  0  0  0  0  0  0  0  0  0
   -1.8575   -0.8123    0.2402 N   0  0  0  0  0  0  0  0  0  0  0  0
   -2.6005   -0.3333   -0.2478 H   0  0  0  0  0  0  0  0  0  0  0  0
   -0.5675   -0.1203    0.3102 C   0  0  1  0  0  0  0  0  0  0  0  0
    0.0191   -0.5718    1.1110 H   0  0  0  0  0  0  0  0  0  0  0  0
    0.1724   -0.3238   -1.0286 C   0  0  0  0  0  0  0  0  0  0  0  0
    1.1500    0.1577   -0.9634 H   0  0  0  0  0  0  0  0  0  0  0  0
    0.3396   -1.3949   -1.1622 H   0  0  0  0  0  0  0  0  0  0  0  0
   -0.5497    0.2082   -2.2802 C   0  0  0  0  0  0  0  0  0  0  0  0
   -1.1828    1.0529   -2.0087 H   0  0  0  0  0  0  0  0  0  0  0  0
    0.4307    0.6507   -3.3703 C   0  0  0  0  0  0  0  0  0  0  0  0
    1.0829   -0.1805   -3.6417 H   0  0  0  0  0  0  0  0  0  0  0  0
   -0.1226    0.9726   -4.2529 H   0  0  0  0  0  0  0  0  0  0  0  0
    1.0404    1.4824   -3.0241 H   0  0  0  0  0  0  0  0  0  0  0  0
   -1.4439   -0.8849   -2.8641 C   0  0  0  0  0  0  0  0  0  0  0  0
   -2.1748   -1.1979   -2.1185 H   0  0  0  0  0  0  0  0  0  0  0  0
   -1.9773   -0.5021   -3.7341 H   0  0  0  0  0  0  0  0  0  0  0  0
   -0.8417   -1.7444   -3.1606 H   0  0  0  0  0  0  0  0  0  0  0  0
   -0.7793    1.3659    0.6455 C   0  0  0  0  0  0  0  0  0  0  0  0
   -1.6464    2.0125    0.0623 O   0  0  0  0  0  0  0  0  0  0  0  0
    0.0189    1.9059    1.5756 N   0  0  0  0  0  0  0  0  0  0  0  0
    0.7024    1.3094    2.0137 H   0  0  0  0  0  0  0  0  0  0  0  0
   -0.0451    3.3046    1.9929 C   0  0  0  0  0  0  0  0  0  0  0  0
   -1.0415    3.5286    2.3805 H   0  0  0  0  0  0  0  0  0  0  0  0
    0.6954    3.5023    2.7695 H   0  0  0  0  0  0  0  0  0  0  0  0
    0.1474    3.9536    1.1372 H   0  0  0  0  0  0  0  0  0  0  0  0
  5  6  2  0  0  0  0
  5  7  1  0  0  0  0
  2  3  1  0  0  0  0
  2  4  1  0  0  0  0
  2  5  1  0  0  0  0
  1  2  1  0  0  0  0
 24 25  2  0  0  0  0
 24 26  1  0  0  0  0
 20 21  1  0  0  0  0
 20 22  1  0  0  0  0
 20 23  1  0  0  0  0
 16 17  1  0  0  0  0
 16 18  1  0  0  0  0
 16 19  1  0  0  0  0
 14 15  1  0  0  0  0
 14 16  1  0  0  0  0
 14 20  1  0  0  0  0
 11 12  1  0  0  0  0
 11 13  1  0  0  0  0
 11 14  1  0  0  0  0
  9 10  1  0  0  0  0
  9 11  1  0  0  0  0
  9 24  1  0  0  0  0
  7  8  1  0  0  0  0
  7  9  1  0  0  0  0
 28 29  1  0  0  0  0
 28 30  1  0  0  0  0
 28 31  1  0  0  0  0
 26 27  1  0  0  0  0
 26 28  1  0  0  0  0
M  END
$$$$
default_name
  -OEChem-02102213163D

 31 30  0     1  0  0  0  0  0999 V2000
   -3.5895   -3.5013    1.1082 H   0  0  0  0  0  0  0  0  0  0  0  0
   -3.5145   -2.5363    0.6082 C   0  0  0  0  0  0  0  0  0  0  0  0
   -4.2285   -1.8413    1.0452 H   0  0  0  0  0  0  0  0  0  0  0  0
   -3.7155   -2.6583   -0.4538 H   0  0  0  0  0  0  0  0  0  0  0  0
   -2.1155   -1.9963    0.7922 C   0  0  0  0  0  0  0  0  0  0  0  0
   -1.2875   -2.6383    1.4252 O   0  0  0  0  0  0  0  0  0  0  0  0
   -1.8575   -0.8123    0.2402 N   0  0  0  0  0  0  0  0  0  0  0  0
   -2.6005   -0.3333   -0.2478 H   0  0  0  0  0  0  0  0  0  0  0  0
   -0.5675   -0.1203    0.3102 C   0  0  1  0  0  0  0  0  0  0  0  0
    0.0191   -0.5718    1.1110 H   0  0  0  0  0  0  0  0  0  0  0  0
    0.1724   -0.3238   -1.0286 C   0  0  0  0  0  0  0  0  0  0  0  0
    1.1500    0.1577   -0.9634 H   0  0  0  0  0  0  0  0  0  0  0  0
    0.3396   -1.3949   -1.1622 H   0  0  0  0  0  0  0  0  0  0  0  0
   -0.5497    0.2082   -2.2802 C   0  0  0  0  0  0  0  0  0  0  0  0
   -0.9651    1.1946   -2.0741 H   0  0  0  0  0  0  0  0  0  0  0  0
    0.3836    0.3039   -3.4906 C   0  0  0  0  0  0  0  0  0  0  0  0
    0.8204   -0.6736   -3.6998 H   0  0  0  0  0  0  0  0  0  0  0  0
   -0.1794    0.6369   -4.3628 H   0  0  0  0  0  0  0  0  0  0  0  0
    1.1830    1.0177   -3.3039 H   0  0  0  0  0  0  0  0  0  0  0  0
   -1.7039   -0.7243   -2.6458 C   0  0  0  0  0  0  0  0  0  0  0  0
   -2.4031   -0.7867   -1.8120 H   0  0  0  0  0  0  0  0  0  0  0  0
   -2.2338   -0.3351   -3.5152 H   0  0  0  0  0  0  0  0  0  0  0  0
   -1.3241   -1.7212   -2.8724 H   0  0  0  0  0  0  0  0  0  0  0  0
   -0.7793    1.3659    0.6455 C   0  0  0  0  0  0  0  0  0  0  0  0
   -1.6464    2.0125    0.0623 O   0  0  0  0  0  0  0  0  0  0  0  0
    0.0189    1.9059    1.5756 N   0  0  0  0  0  0  0  0  0  0  0  0
    0.7024    1.3094    2.0137 H   0  0  0  0  0  0  0  0  0  0  0  0
   -0.0451    3.3046    1.9929 C   0  0  0  0  0  0  0  0  0  0  0  0
   -1.0415    3.5286    2.3805 H   0  0  0  0  0  0  0  0  0  0  0  0
    0.6954    3.5023    2.7695 H   0  0  0  0  0  0  0  0  0  0  0  0
    0.1474    3.9536    1.1372 H   0  0  0  0  0  0  0  0  0  0  0  0
  5  6  2  0  0  0  0
  5  7  1  0  0  0  0
  2  3  1  0  0  0  0
  2  4  1  0  0  0  0
  2  5  1  0  0  0  0
  1  2  1  0  0  0  0
 24 25  2  0  0  0  0
 24 26  1  0  0  0  0
 20 21  1  0  0  0  0
 20 22  1  0  0  0  0
 20 23  1  0  0  0  0
 16 17  1  0  0  0  0
 16 18  1  0  0  0  0
 16 19  1  0  0  0  0
 14 15  1  0  0  0  0
 14 16  1  0  0  0  0
 14 20  1  0  0  0  0
 11 12  1  0  0  0  0
 11 13  1  0  0  0  0
 11 14  1  0  0  0  0
  9 10  1  0  0  0  0
  9 11  1  0  0  0  0
  9 24  1  0  0  0  0
  7  8  1  0  0  0  0
  7  9  1  0  0  0  0
 28 29  1  0  0  0  0
 28 30  1  0  0  0  0
 28 31  1  0  0  0  0
 26 27  1  0  0  0  0
 26 28  1  0  0  0  0
M  END
$$$$
default_name
  -OEChem-02102213163D

 31 30  0     1  0  0  0  0  0999 V2000
   -3.5895   -3.5013    1.1082 H   0  0  0  0  0  0  0  0  0  0  0  0
   -3.5145   -2.5363    0.6082 C   0  0  0  0  0  0  0  0  0  0  0  0
   -4.2285   -1.8413    1.0452 H   0  0  0  0  0  0  0  0  0  0  0  0
   -3.7155   -2.6583   -0.4538 H   0  0  0  0  0  0  0  0  0  0  0  0
   -2.1155   -1.9963    0.7922 C   0  0  0  0  0  0  0  0  0  0  0  0
   -1.2875   -2.6383    1.4252 O   0  0  0  0  0  0  0  0  0  0  0  0
   -1.8575   -0.8123    0.2402 N   0  0  0  0  0  0  0  0  0  0  0  0
   -2.6005   -0.3333   -0.2478 H   0  0  0  0  0  0  0  0  0  0  0  0
   -0.5675   -0.1203    0.3102 C   0  0  1  0  0  0  0  0  0  0  0  0
    0.0191   -0.5718    1.1110 H   0  0  0  0  0  0  0  0  0  0  0  0
    0.1724   -0.3238   -1.0286 C   0  0  0  0  0  0  0  0  0  0  0  0
    1.2283   -0.0879   -0.8828 H   0  0  0  0  0  0  0  0  0  0  0  0
    0.1034   -1.3809   -1.2948 H   0  0  0  0  0  0  0  0  0  0  0  0
   -0.3519    0.5045   -2.2160 C   0  0  0  0  0  0  0  0  0  0  0  0
   -0.2957    1.5666   -1.9773 H   0  0  0  0  0  0  0  0  0  0  0  0
    0.4387    0.2402   -3.5006 C   0  0  0  0  0  0  0  0  0  0  0  0
    0.4053   -0.8225   -3.7443 H   0  0  0  0  0  0  0  0  0  0  0  0
    0.0033    0.8084   -4.3231 H   0  0  0  0  0  0  0  0  0  0  0  0
    1.4762    0.5454   -3.3829 H   0  0  0  0  0  0  0  0  0  0  0  0
   -1.8160    0.1563   -2.4819 C   0  0  0  0  0  0  0  0  0  0  0  0
   -2.4100    0.3651   -1.5922 H   0  0  0  0  0  0  0  0  0  0  0  0
   -2.1975    0.7614   -3.3043 H   0  0  0  0  0  0  0  0  0  0  0  0
   -1.9104   -0.8996   -2.7380 H   0  0  0  0  0  0  0  0  0  0  0  0
   -0.7793    1.3659    0.6455 C   0  0  0  0  0  0  0  0  0  0  0  0
   -1.6464    2.0125    0.0623 O   0  0  0  0  0  0  0  0  0  0  0  0
    0.0189    1.9059    1.5756 N   0  0  0  0  0  0  0  0  0  0  0  0
    0.7024    1.3094    2.0137 H   0  0  0  0  0  0  0  0  0  0  0  0
   -0.0451    3.3046    1.9929 C   0  0  0  0  0  0  0  0  0  0  0  0
   -1.0415    3.5286    2.3805 H   0  0  0  0  0  0  0  0  0  0  0  0
    0.6954    3.5023    2.7695 H   0  0  0  0  0  0  0  0  0  0  0  0
    0.1474    3.9536    1.1372 H   0  0  0  0  0  0  0  0  0  0  0  0
  5  6  2  0  0  0  0
  5  7  1  0  0  0  0
  2  3  1  0  0  0  0
  2  4  1  0  0  0  0
  2  5  1  0  0  0  0
  1  2  1  0  0  0  0
 24 25  2  0  0  0  0
 24 26  1  0  0  0  0
 20 21  1  0  0  0  0
 20 22  1  0  0  0  0
 20 23  1  0  0  0  0
 16 17  1  0  0  0  0
 16 18  1  0  0  0  0
 16 19  1  0  0  0  0
 14 15  1  0  0  0  0
 14 16  1  0  0  0  0
 14 20  1  0  0  0  0
 11 12  1  0  0  0  0
 11 13  1  0  0  0  0
 11 14  1  0  0  0  0
  9 10  1  0  0  0  0
  9 11  1  0  0  0  0
  9 24  1  0  0  0  0
  7  8  1  0  0  0  0
  7  9  1  0  0  0  0
 28 29  1  0  0  0  0
 28 30  1  0  0  0  0
 28 31  1  0  0  0  0
 26 27  1  0  0  0  0
 26 28  1  0  0  0  0
M  END
$$$$
default_name
  -OEChem-02102213163D

 31 30  0     1  0  0  0  0  0999 V2000
   -3.5895   -3.5013    1.1082 H   0  0  0  0  0  0  0  0  0  0  0  0
   -3.5145   -2.5363    0.6082 C   0  0  0  0  0  0  0  0  0  0  0  0
   -4.2285   -1.8413    1.0452 H   0  0  0  0  0  0  0  0  0  0  0  0
   -3.7155   -2.6583   -0.4538 H   0  0  0  0  0  0  0  0  0  0  0  0
   -2.1155   -1.9963    0.7922 C   0  0  0  0  0  0  0  0  0  0  0  0
   -1.2875   -2.6383    1.4252 O   0  0  0  0  0  0  0  0  0  0  0  0
   -1.8575   -0.8123    0.2402 N   0  0  0  0  0  0  0  0  0  0  0  0
   -2.6005   -0.3333   -0.2478 H   0  0  0  0  0  0  0  0  0  0  0  0
   -0.5675   -0.1203    0.3102 C   0  0  1  0  0  0  0  0  0  0  0  0
    0.0191   -0.5718    1.1110 H   0  0  0  0  0  0  0  0  0  0  0  0
    0.1724   -0.3238   -1.0286 C   0  0  0  0  0  0  0  0  0  0  0  0
    1.2283   -0.0879   -0.8828 H   0  0  0  0  0  0  0  0  0  0  0  0
    0.1034   -1.3809   -1.2948 H   0  0  0  0  0  0  0  0  0  0  0  0
   -0.3519    0.5045   -2.2160 C   0  0  0  0  0  0  0  0  0  0  0  0
   -0.0567    1.5469   -2.0965 H   0  0  0  0  0  0  0  0  0  0  0  0
    0.1734   -0.0111   -3.5589 C   0  0  0  0  0  0  0  0  0  0  0  0
   -0.1006   -1.0593   -3.6861 H   0  0  0  0  0  0  0  0  0  0  0  0
   -0.2608    0.5720   -4.3713 H   0  0  0  0  0  0  0  0  0  0  0  0
    1.2561    0.0817   -3.6091 H   0  0  0  0  0  0  0  0  0  0  0  0
   -1.8786    0.4464   -2.2519 C   0  0  0  0  0  0  0  0  0  0  0  0
   -2.2825    0.8383   -1.3184 H   0  0  0  0  0  0  0  0  0  0  0  0
   -2.2535    1.0545   -3.0751 H   0  0  0  0  0  0  0  0  0  0  0  0
   -2.2123   -0.5834   -2.3841 H   0  0  0  0  0  0  0  0  0  0  0  0
   -0.7793    1.3659    0.6455 C   0  0  0  0  0  0  0  0  0  0  0  0
   -1.6464    2.0125    0.0623 O   0  0  0  0  0  0  0  0  0  0  0  0
    0.0189    1.9059    1.5756 N   0  0  0  0  0  0  0  0  0  0  0  0
    0.7024    1.3094    2.0137 H   0  0  0  0  0  0  0  0  0  0  0  0
   -0.0451    3.3046    1.9929 C   0  0  0  0  0  0  0  0  0  0  0  0
   -1.0415    3.5286    2.3805 H   0  0  0  0  0  0  0  0  0  0  0  0
    0.6954    3.5023    2.7695 H   0  0  0  0  0  0  0  0  0  0  0  0
    0.1474    3.9536    1.1372 H   0  0  0  0  0  0  0  0  0  0  0  0
  5  6  2  0  0  0  0
  5  7  1  0  0  0  0
  2  3  1  0  0  0  0
  2  4  1  0  0  0  0
  2  5  1  0  0  0  0
  1  2  1  0  0  0  0
 24 25  2  0  0  0  0
 24 26  1  0  0  0  0
 20 21  1  0  0  0  0
 20 22  1  0  0  0  0
 20 23  1  0  0  0  0
 16 17  1  0  0  0  0
 16 18  1  0  0  0  0
 16 19  1  0  0  0  0
 14 15  1  0  0  0  0
 14 16  1  0  0  0  0
 14 20  1  0  0  0  0
 11 12  1  0  0  0  0
 11 13  1  0  0  0  0
 11 14  1  0  0  0  0
  9 10  1  0  0  0  0
  9 11  1  0  0  0  0
  9 24  1  0  0  0  0
  7  8  1  0  0  0  0
  7  9  1  0  0  0  0
 28 29  1  0  0  0  0
 28 30  1  0  0  0  0
 28 31  1  0  0  0  0
 26 27  1  0  0  0  0
 26 28  1  0  0  0  0
M  END
$$$$
default_name
  -OEChem-02102213163D

 31 30  0     1  0  0  0  0  0999 V2000
   -3.5895   -3.5013    1.1082 H   0  0  0  0  0  0  0  0  0  0  0  0
   -3.5145   -2.5363    0.6082 C   0  0  0  0  0  0  0  0  0  0  0  0
   -4.2285   -1.8413    1.0452 H   0  0  0  0  0  0  0  0  0  0  0  0
   -3.7155   -2.6583   -0.4538 H   0  0  0  0  0  0  0  0  0  0  0  0
   -2.1155   -1.9963    0.7922 C   0  0  0  0  0  0  0  0  0  0  0  0
   -1.2875   -2.6383    1.4252 O   0  0  0  0  0  0  0  0  0  0  0  0
   -1.8575   -0.8123    0.2402 N   0  0  0  0  0  0  0  0  0  0  0  0
   -2.6005   -0.3333   -0.2478 H   0  0  0  0  0  0  0  0  0  0  0  0
   -0.5675   -0.1203    0.3102 C   0  0  1  0  0  0  0  0  0  0  0  0
    0.0191   -0.5718    1.1110 H   0  0  0  0  0  0  0  0  0  0  0  0
    0.1724   -0.3238   -1.0286 C   0  0  0  0  0  0  0  0  0  0  0  0
    1.2283   -0.0879   -0.8828 H   0  0  0  0  0  0  0  0  0  0  0  0
    0.1034   -1.3809   -1.2948 H   0  0  0  0  0  0  0  0  0  0  0  0
   -0.3519    0.5045   -2.2160 C   0  0  0  0  0  0  0  0  0  0  0  0
    0.1537    1.4697   -2.2432 H   0  0  0  0  0  0  0  0  0  0  0  0
   -0.1411   -0.2062   -3.5560 C   0  0  0  0  0  0  0  0  0  0  0  0
   -0.6284   -1.1820   -3.5386 H   0  0  0  0  0  0  0  0  0  0  0  0
   -0.5699    0.3921   -4.3603 H   0  0  0  0  0  0  0  0  0  0  0  0
    0.9195   -0.3421   -3.7561 H   0  0  0  0  0  0  0  0  0  0  0  0
   -1.8492    0.7593   -2.0465 C   0  0  0  0  0  0  0  0  0  0  0  0
   -2.0268    1.2940   -1.1134 H   0  0  0  0  0  0  0  0  0  0  0  0
   -2.2172    1.3690   -2.8717 H   0  0  0  0  0  0  0  0  0  0  0  0
   -2.3915   -0.1866   -2.0282 H   0  0  0  0  0  0  0  0  0  0  0  0
   -0.7793    1.3659    0.6455 C   0  0  0  0  0  0  0  0  0  0  0  0
   -1.6464    2.0125    0.0623 O   0  0  0  0  0  0  0  0  0  0  0  0
    0.0189    1.9059    1.5756 N   0  0  0  0  0  0  0  0  0  0  0  0
    0.7024    1.3094    2.0137 H   0  0  0  0  0  0  0  0  0  0  0  0
   -0.0451    3.3046    1.9929 C   0  0  0  0  0  0  0  0  0  0  0  0
   -1.0415    3.5286    2.3805 H   0  0  0  0  0  0  0  0  0  0  0  0
    0.6954    3.5023    2.7695 H   0  0  0  0  0  0  0  0  0  0  0  0
    0.1474    3.9536    1.1372 H   0  0  0  0  0  0  0  0  0  0  0  0
  5  6  2  0  0  0  0
  5  7  1  0  0  0  0
  2  3  1  0  0  0  0
  2  4  1  0  0  0  0
  2  5  1  0  0  0  0
  1  2  1  0  0  0  0
 24 25  2  0  0  0  0
 24 26  1  0  0  0  0
 20 21  1  0  0  0  0
 20 22  1  0  0  0  0
 20 23  1  0  0  0  0
 16 17  1  0  0  0  0
 16 18  1  0  0  0  0
 16 19  1  0  0  0  0
 14 15  1  0  0  0  0
 14 16  1  0  0  0  0
 14 20  1  0  0  0  0
 11 12  1  0  0  0  0
 11 13  1  0  0  0  0
 11 14  1  0  0  0  0
  9 10  1  0  0  0  0
  9 11  1  0  0  0  0
  9 24  1  0  0  0  0
  7  8  1  0  0  0  0
  7  9  1  0  0  0  0
 28 29  1  0  0  0  0
 28 30  1  0  0  0  0
 28 31  1  0  0  0  0
 26 27  1  0  0  0  0
 26 28  1  0  0  0  0
M  END
$$$$
default_name
  -OEChem-02102213163D

 31 30  0     1  0  0  0  0  0999 V2000
   -3.5895   -3.5013    1.1082 H   0  0  0  0  0  0  0  0  0  0  0  0
   -3.5145   -2.5363    0.6082 C   0  0  0  0  0  0  0  0  0  0  0  0
   -4.2285   -1.8413    1.0452 H   0  0  0  0  0  0  0  0  0  0  0  0
   -3.7155   -2.6583   -0.4538 H   0  0  0  0  0  0  0  0  0  0  0  0
   -2.1155   -1.9963    0.7922 C   0  0  0  0  0  0  0  0  0  0  0  0
   -1.2875   -2.6383    1.4252 O   0  0  0  0  0  0  0  0  0  0  0  0
   -1.8575   -0.8123    0.2402 N   0  0  0  0  0  0  0  0  0  0  0  0
   -2.6005   -0.3333   -0.2478 H   0  0  0  0  0  0  0  0  0  0  0  0
   -0.5675   -0.1203    0.3102 C   0  0  1  0  0  0  0  0  0  0  0  0
    0.0191   -0.5718    1.1110 H   0  0  0  0  0  0  0  0  0  0  0  0
    0.1724   -0.3238   -1.0286 C   0  0  0  0  0  0  0  0  0  0  0  0
    1.2283   -0.0879   -0.8828 H   0  0  0  0  0  0  0  0  0  0  0  0
    0.1034   -1.3809   -1.2948 H   0  0  0  0  0  0  0  0  0  0  0  0
   -0.3519    0.5045   -2.2160 C   0  0  0  0  0  0  0  0  0  0  0  0
    0.3210    1.3403   -2.4075 H   0  0  0  0  0  0  0  0  0  0  0  0
   -0.4834   -0.3315   -3.4923 C   0  0  0  0  0  0  0  0  0  0  0  0
   -1.1421   -1.1821   -3.3118 H   0  0  0  0  0  0  0  0  0  0  0  0
   -0.9028    0.2810   -4.2908 H   0  0  0  0  0  0  0  0  0  0  0  0
    0.4893   -0.6973   -3.8139 H   0  0  0  0  0  0  0  0  0  0  0  0
   -1.7297    1.0739   -1.8798 C   0  0  0  0  0  0  0  0  0  0  0  0
   -1.6604    1.7012   -0.9912 H   0  0  0  0  0  0  0  0  0  0  0  0
   -2.0910    1.6835   -2.7081 H   0  0  0  0  0  0  0  0  0  0  0  0
   -2.4359    0.2638   -1.6944 H   0  0  0  0  0  0  0  0  0  0  0  0
   -0.7793    1.3659    0.6455 C   0  0  0  0  0  0  0  0  0  0  0  0
   -1.6464    2.0125    0.0623 O   0  0  0  0  0  0  0  0  0  0  0  0
    0.0189    1.9059    1.5756 N   0  0  0  0  0  0  0  0  0  0  0  0
    0.7024    1.3094    2.0137 H   0  0  0  0  0  0  0  0  0  0  0  0
   -0.0451    3.3046    1.9929 C   0  0  0  0  0  0  0  0  0  0  0  0
   -1.0415    3.5286    2.3805 H   0  0  0  0  0  0  0  0  0  0  0  0
    0.6954    3.5023    2.7695 H   0  0  0  0  0  0  0  0  0  0  0  0
    0.1474    3.9536    1.1372 H   0  0  0  0  0  0  0  0  0  0  0  0
  5  6  2  0  0  0  0
  5  7  1  0  0  0  0
  2  3  1  0  0  0  0
  2  4  1  0  0  0  0
  2  5  1  0  0  0  0
  1  2  1  0  0  0  0
 24 25  2  0  0  0  0
 24 26  1  0  0  0  0
 20 21  1  0  0  0  0
 20 22  1  0  0  0  0
 20 23  1  0  0  0  0
 16 17  1  0  0  0  0
 16 18  1  0  0  0  0
 16 19  1  0  0  0  0
 14 15  1  0  0  0  0
 14 16  1  0  0  0  0
 14 20  1  0  0  0  0
 11 12  1  0  0  0  0
 11 13  1  0  0  0  0
 11 14  1  0  0  0  0
  9 10  1  0  0  0  0
  9 11  1  0  0  0  0
  9 24  1  0  0  0  0
  7  8  1  0  0  0  0
  7  9  1  0  0  0  0
 28 29  1  0  0  0  0
 28 30  1  0  0  0  0
 28 31  1  0  0  0  0
 26 27  1  0  0  0  0
 26 28  1  0  0  0  0
M  END
$$$$
default_name
  -OEChem-02102213163D

 31 30  0     1  0  0  0  0  0999 V2000
   -3.5895   -3.5013    1.1082 H   0  0  0  0  0  0  0  0  0  0  0  0
   -3.5145   -2.5363    0.6082 C   0  0  0  0  0  0  0  0  0  0  0  0
   -4.2285   -1.8413    1.0452 H   0  0  0  0  0  0  0  0  0  0  0  0
   -3.7155   -2.6583   -0.4538 H   0  0  0  0  0  0  0  0  0  0  0  0
   -2.1155   -1.9963    0.7922 C   0  0  0  0  0  0  0  0  0  0  0  0
   -1.2875   -2.6383    1.4252 O   0  0  0  0  0  0  0  0  0  0  0  0
   -1.8575   -0.8123    0.2402 N   0  0  0  0  0  0  0  0  0  0  0  0
   -2.6005   -0.3333   -0.2478 H   0  0  0  0  0  0  0  0  0  0  0  0
   -0.5675   -0.1203    0.3102 C   0  0  1  0  0  0  0  0  0  0  0  0
    0.0191   -0.5718    1.1110 H   0  0  0  0  0  0  0  0  0  0  0  0
    0.1724   -0.3238   -1.0286 C   0  0  0  0  0  0  0  0  0  0  0  0
    1.2283   -0.0879   -0.8828 H   0  0  0  0  0  0  0  0  0  0  0  0
    0.1034   -1.3809   -1.2948 H   0  0  0  0  0  0  0  0  0  0  0  0
   -0.3519    0.5045   -2.2160 C   0  0  0  0  0  0  0  0  0  0  0  0
    0.4340    1.1674   -2.5780 H   0  0  0  0  0  0  0  0  0  0  0  0
   -0.8302   -0.3786   -3.3721 C   0  0  0  0  0  0  0  0  0  0  0  0
   -1.6068   -1.0597   -3.0213 H   0  0  0  0  0  0  0  0  0  0  0  0
   -1.2369    0.2463   -4.1675 H   0  0  0  0  0  0  0  0  0  0  0  0
   -0.0052   -0.9596   -3.7786 H   0  0  0  0  0  0  0  0  0  0  0  0
   -1.5283    1.3685   -1.7632 C   0  0  0  0  0  0  0  0  0  0  0  0
   -1.2081    2.0321   -0.9600 H   0  0  0  0  0  0  0  0  0  0  0  0
   -1.8836    1.9765   -2.5953 H   0  0  0  0  0  0  0  0  0  0  0  0
   -2.3423    0.7372   -1.4054 H   0  0  0  0  0  0  0  0  0  0  0  0
   -0.7793    1.3659    0.6455 C   0  0  0  0  0  0  0  0  0  0  0  0
   -1.6464    2.0125    0.0623 O   0  0  0  0  0  0  0  0  0  0  0  0
    0.0189    1.9059    1.5756 N   0  0  0  0  0  0  0  0  0  0  0  0
    0.7024    1.3094    2.0137 H   0  0  0  0  0  0  0  0  0  0  0  0
   -0.0451    3.3046    1.9929 C   0  0  0  0  0  0  0  0  0  0  0  0
   -1.0415    3.5286    2.3805 H   0  0  0  0  0  0  0  0  0  0  0  0
    0.6954    3.5023    2.7695 H   0  0  0  0  0  0  0  0  0  0  0  0
    0.1474    3.9536    1.1372 H   0  0  0  0  0  0  0  0  0  0  0  0
  5  6  2  0  0  0  0
  5  7  1  0  0  0  0
  2  3  1  0  0  0  0
  2  4  1  0  0  0  0
  2  5  1  0  0  0  0
  1  2  1  0  0  0  0
 24 25  2  0  0  0  0
 24 26  1  0  0  0  0
 20 21  1  0  0  0  0
 20 22  1  0  0  0  0
 20 23  1  0  0  0  0
 16 17  1  0  0  0  0
 16 18  1  0  0  0  0
 16 19  1  0  0  0  0
 14 15  1  0  0  0  0
 14 16  1  0  0  0  0
 14 20  1  0  0  0  0
 11 12  1  0  0  0  0
 11 13  1  0  0  0  0
 11 14  1  0  0  0  0
  9 10  1  0  0  0  0
  9 11  1  0  0  0  0
  9 24  1  0  0  0  0
  7  8  1  0  0  0  0
  7  9  1  0  0  0  0
 28 29  1  0  0  0  0
 28 30  1  0  0  0  0
 28 31  1  0  0  0  0
 26 27  1  0  0  0  0
 26 28  1  0  0  0  0
M  END
$$$$
default_name
  -OEChem-02102213163D

 31 30  0     1  0  0  0  0  0999 V2000
   -3.5895   -3.5013    1.1082 H   0  0  0  0  0  0  0  0  0  0  0  0
   -3.5145   -2.5363    0.6082 C   0  0  0  0  0  0  0  0  0  0  0  0
   -4.2285   -1.8413    1.0452 H   0  0  0  0  0  0  0  0  0  0  0  0
   -3.7155   -2.6583   -0.4538 H   0  0  0  0  0  0  0  0  0  0  0  0
   -2.1155   -1.9963    0.7922 C   0  0  0  0  0  0  0  0  0  0  0  0
   -1.2875   -2.6383    1.4252 O   0  0  0  0  0  0  0  0  0  0  0  0
   -1.8575   -0.8123    0.2402 N   0  0  0  0  0  0  0  0  0  0  0  0
   -2.6005   -0.3333   -0.2478 H   0  0  0  0  0  0  0  0  0  0  0  0
   -0.5675   -0.1203    0.3102 C   0  0  1  0  0  0  0  0  0  0  0  0
    0.0191   -0.5718    1.1110 H   0  0  0  0  0  0  0  0  0  0  0  0
    0.1724   -0.3238   -1.0286 C   0  0  0  0  0  0  0  0  0  0  0  0
    1.2283   -0.0879   -0.8828 H   0  0  0  0  0  0  0  0  0  0  0  0
    0.1034   -1.3809   -1.2948 H   0  0  0  0  0  0  0  0  0  0  0  0
   -0.3519    0.5045   -2.2160 C   0  0  0  0  0  0  0  0  0  0  0  0
    0.4848    0.9628   -2.7432 H   0  0  0  0  0  0  0  0  0  0  0  0
   -1.1579   -0.3444   -3.2035 C   0  0  0  0  0  0  0  0  0  0  0  0
   -1.9907   -0.8232   -2.6867 H   0  0  0  0  0  0  0  0  0  0  0  0
   -1.5493    0.2903   -3.9988 H   0  0  0  0  0  0  0  0  0  0  0  0
   -0.5302   -1.1111   -3.6524 H   0  0  0  0  0  0  0  0  0  0  0  0
   -1.2587    1.6233   -1.7046 C   0  0  0  0  0  0  0  0  0  0  0  0
   -0.7008    2.2643   -1.0221 H   0  0  0  0  0  0  0  0  0  0  0  0
   -1.6091    2.2280   -2.5410 H   0  0  0  0  0  0  0  0  0  0  0  0
   -2.1173    1.2012   -1.1811 H   0  0  0  0  0  0  0  0  0  0  0  0
   -0.7793    1.3659    0.6455 C   0  0  0  0  0  0  0  0  0  0  0  0
   -1.6464    2.0125    0.0623 O   0  0  0  0  0  0  0  0  0  0  0  0
    0.0189    1.9059    1.5756 N   0  0  0  0  0  0  0  0  0  0  0  0
    0.7024    1.3094    2.0137 H   0  0  0  0  0  0  0  0  0  0  0  0
   -0.0451    3.3046    1.9929 C   0  0  0  0  0  0  0  0  0  0  0  0
   -1.0415    3.5286    2.3805 H   0  0  0  0  0  0  0  0  0  0  0  0
    0.6954    3.5023    2.7695 H   0  0  0  0  0  0  0  0  0  0  0  0
    0.1474    3.9536    1.1372 H   0  0  0  0  0  0  0  0  0  0  0  0
  5  6  2  0  0  0  0
  5  7  1  0  0  0  0
  2  3  1  0  0  0  0
  2  4  1  0  0  0  0
  2  5  1  0  0  0  0
  1  2  1  0  0  0  0
 24 25  2  0  0  0  0
 24 26  1  0  0  0  0
 20 21  1  0  0  0  0
 20 22  1  0  0  0  0
 20 23  1  0  0  0  0
 16 17  1  0  0  0  0
 16 18  1  0  0  0  0
 16 19  1  0  0  0  0
 14 15  1  0  0  0  0
 14 16  1  0  0  0  0
 14 20  1  0  0  0  0
 11 12  1  0  0  0  0
 11 13  1  0  0  0  0
 11 14  1  0  0  0  0
  9 10  1  0  0  0  0
  9 11  1  0  0  0  0
  9 24  1  0  0  0  0
  7  8  1  0  0  0  0
  7  9  1  0  0  0  0
 28 29  1  0  0  0  0
 28 30  1  0  0  0  0
 28 31  1  0  0  0  0
 26 27  1  0  0  0  0
 26 28  1  0  0  0  0
M  END
$$$$
default_name
  -OEChem-02102213163D

 31 30  0     1  0  0  0  0  0999 V2000
   -3.5895   -3.5013    1.1082 H   0  0  0  0  0  0  0  0  0  0  0  0
   -3.5145   -2.5363    0.6082 C   0  0  0  0  0  0  0  0  0  0  0  0
   -4.2285   -1.8413    1.0452 H   0  0  0  0  0  0  0  0  0  0  0  0
   -3.7155   -2.6583   -0.4538 H   0  0  0  0  0  0  0  0  0  0  0  0
   -2.1155   -1.9963    0.7922 C   0  0  0  0  0  0  0  0  0  0  0  0
   -1.2875   -2.6383    1.4252 O   0  0  0  0  0  0  0  0  0  0  0  0
   -1.8575   -0.8123    0.2402 N   0  0  0  0  0  0  0  0  0  0  0  0
   -2.6005   -0.3333   -0.2478 H   0  0  0  0  0  0  0  0  0  0  0  0
   -0.5675   -0.1203    0.3102 C   0  0  1  0  0  0  0  0  0  0  0  0
    0.0191   -0.5718    1.1110 H   0  0  0  0  0  0  0  0  0  0  0  0
    0.1724   -0.3238   -1.0286 C   0  0  0  0  0  0  0  0  0  0  0  0
    1.2283   -0.0879   -0.8828 H   0  0  0  0  0  0  0  0  0  0  0  0
    0.1034   -1.3809   -1.2948 H   0  0  0  0  0  0  0  0  0  0  0  0
   -0.3519    0.5045   -2.2160 C   0  0  0  0  0  0  0  0  0  0  0  0
    0.4701    0.7404   -2.8918 H   0  0  0  0  0  0  0  0  0  0  0  0
   -1.4441   -0.2310   -2.9980 C   0  0  0  0  0  0  0  0  0  0  0  0
   -2.2678   -0.4886   -2.3309 H   0  0  0  0  0  0  0  0  0  0  0  0
   -1.8189    0.4100   -3.7963 H   0  0  0  0  0  0  0  0  0  0  0  0
   -1.0501   -1.1416   -3.4442 H   0  0  0  0  0  0  0  0  0  0  0  0
   -0.9393    1.8206   -1.7079 C   0  0  0  0  0  0  0  0  0  0  0  0
   -0.1732    2.3819   -1.1731 H   0  0  0  0  0  0  0  0  0  0  0  0
   -1.2861    2.4210   -2.5490 H   0  0  0  0  0  0  0  0  0  0  0  0
   -1.7761    1.6243   -1.0366 H   0  0  0  0  0  0  0  0  0  0  0  0
   -0.7793    1.3659    0.6455 C   0  0  0  0  0  0  0  0  0  0  0  0
   -1.6464    2.0125    0.0623 O   0  0  0  0  0  0  0  0  0  0  0  0
    0.0189    1.9059    1.5756 N   0  0  0  0  0  0  0  0  0  0  0  0
    0.7024    1.3094    2.0137 H   0  0  0  0  0  0  0  0  0  0  0  0
   -0.0451    3.3046    1.9929 C   0  0  0  0  0  0  0  0  0  0  0  0
   -1.0415    3.5286    2.3805 H   0  0  0  0  0  0  0  0  0  0  0  0
    0.6954    3.5023    2.7695 H   0  0  0  0  0  0  0  0  0  0  0  0
    0.1474    3.9536    1.1372 H   0  0  0  0  0  0  0  0  0  0  0  0
  5  6  2  0  0  0  0
  5  7  1  0  0  0  0
  2  3  1  0  0  0  0
  2  4  1  0  0  0  0
  2  5  1  0  0  0  0
  1  2  1  0  0  0  0
 24 25  2  0  0  0  0
 24 26  1  0  0  0  0
 20 21  1  0  0  0  0
 20 22  1  0  0  0  0
 20 23  1  0  0  0  0
 16 17  1  0  0  0  0
 16 18  1  0  0  0  0
 16 19  1  0  0  0  0
 14 15  1  0  0  0  0
 14 16  1  0  0  0  0
 14 20  1  0  0  0  0
 11 12  1  0  0  0  0
 11 13  1  0  0  0  0
 11 14  1  0  0  0  0
  9 10  1  0  0  0  0
  9 11  1  0  0  0  0
  9 24  1  0  0  0  0
  7  8  1  0  0  0  0
  7  9  1  0  0  0  0
 28 29  1  0  0  0  0
 28 30  1  0  0  0  0
 28 31  1  0  0  0  0
 26 27  1  0  0  0  0
 26 28  1  0  0  0  0
M  END
$$$$
default_name
  -OEChem-02102213163D

 31 30  0     1  0  0  0  0  0999 V2000
   -3.5895   -3.5013    1.1082 H   0  0  0  0  0  0  0  0  0  0  0  0
   -3.5145   -2.5363    0.6082 C   0  0  0  0  0  0  0  0  0  0  0  0
   -4.2285   -1.8413    1.0452 H   0  0  0  0  0  0  0  0  0  0  0  0
   -3.7155   -2.6583   -0.4538 H   0  0  0  0  0  0  0  0  0  0  0  0
   -2.1155   -1.9963    0.7922 C   0  0  0  0  0  0  0  0  0  0  0  0
   -1.2875   -2.6383    1.4252 O   0  0  0  0  0  0  0  0  0  0  0  0
   -1.8575   -0.8123    0.2402 N   0  0  0  0  0  0  0  0  0  0  0  0
   -2.6005   -0.3333   -0.2478 H   0  0  0  0  0  0  0  0  0  0  0  0
   -0.5675   -0.1203    0.3102 C   0  0  1  0  0  0  0  0  0  0  0  0
    0.0191   -0.5718    1.1110 H   0  0  0  0  0  0  0  0  0  0  0  0
    0.1724   -0.3238   -1.0286 C   0  0  0  0  0  0  0  0  0  0  0  0
    1.2283   -0.0879   -0.8828 H   0  0  0  0  0  0  0  0  0  0  0  0
    0.1034   -1.3809   -1.2948 H   0  0  0  0  0  0  0  0  0  0  0  0
   -0.3519    0.5045   -2.2160 C   0  0  0  0  0  0  0  0  0  0  0  0
    0.3908    0.5155   -3.0137 H   0  0  0  0  0  0  0  0  0  0  0  0
   -1.6692   -0.0463   -2.7697 C   0  0  0  0  0  0  0  0  0  0  0  0
   -2.4191   -0.0787   -1.9781 H   0  0  0  0  0  0  0  0  0  0  0  0
   -2.0271    0.5973   -3.5737 H   0  0  0  0  0  0  0  0  0  0  0  0
   -1.5293   -1.0489   -3.1679 H   0  0  0  0  0  0  0  0  0  0  0  0
   -0.5919    1.9473   -1.7730 C   0  0  0  0  0  0  0  0  0  0  0  0
    0.3390    2.3768   -1.4027 H   0  0  0  0  0  0  0  0  0  0  0  0
   -0.9368    2.5422   -2.6187 H   0  0  0  0  0  0  0  0  0  0  0  0
   -1.3419    1.9775   -0.9819 H   0  0  0  0  0  0  0  0  0  0  0  0
   -0.7793    1.3659    0.6455 C   0  0  0  0  0  0  0  0  0  0  0  0
   -1.6464    2.0125    0.0623 O   0  0  0  0  0  0  0  0  0  0  0  0
    0.0189    1.9059    1.5756 N   0  0  0  0  0  0  0  0  0  0  0  0
    0.7024    1.3094    2.0137 H   0  0  0  0  0  0  0  0  0  0  0  0
   -0.0451    3.3046    1.9929 C   0  0  0  0  0  0  0  0  0  0  0  0
   -1.0415    3.5286    2.3805 H   0  0  0  0  0  0  0  0  0  0  0  0
    0.6954    3.5023    2.7695 H   0  0  0  0  0  0  0  0  0  0  0  0
    0.1474    3.9536    1.1372 H   0  0  0  0  0  0  0  0  0  0  0  0
  5  6  2  0  0  0  0
  5  7  1  0  0  0  0
  2  3  1  0  0  0  0
  2  4  1  0  0  0  0
  2  5  1  0  0  0  0
  1  2  1  0  0  0  0
 24 25  2  0  0  0  0
 24 26  1  0  0  0  0
 20 21  1  0  0  0  0
 20 22  1  0  0  0  0
 20 23  1  0  0  0  0
 16 17  1  0  0  0  0
 16 18  1  0  0  0  0
 16 19  1  0  0  0  0
 14 15  1  0  0  0  0
 14 16  1  0  0  0  0
 14 20  1  0  0  0  0
 11 12  1  0  0  0  0
 11 13  1  0  0  0  0
 11 14  1  0  0  0  0
  9 10  1  0  0  0  0
  9 11  1  0  0  0  0
  9 24  1  0  0  0  0
  7  8  1  0  0  0  0
  7  9  1  0  0  0  0
 28 29  1  0  0  0  0
 28 30  1  0  0  0  0
 28 31  1  0  0  0  0
 26 27  1  0  0  0  0
 26 28  1  0  0  0  0
M  END
$$$$
default_name
  -OEChem-02102213163D

 31 30  0     1  0  0  0  0  0999 V2000
   -3.5895   -3.5013    1.1082 H   0  0  0  0  0  0  0  0  0  0  0  0
   -3.5145   -2.5363    0.6082 C   0  0  0  0  0  0  0  0  0  0  0  0
   -4.2285   -1.8413    1.0452 H   0  0  0  0  0  0  0  0  0  0  0  0
   -3.7155   -2.6583   -0.4538 H   0  0  0  0  0  0  0  0  0  0  0  0
   -2.1155   -1.9963    0.7922 C   0  0  0  0  0  0  0  0  0  0  0  0
   -1.2875   -2.6383    1.4252 O   0  0  0  0  0  0  0  0  0  0  0  0
   -1.8575   -0.8123    0.2402 N   0  0  0  0  0  0  0  0  0  0  0  0
   -2.6005   -0.3333   -0.2478 H   0  0  0  0  0  0  0  0  0  0  0  0
   -0.5675   -0.1203    0.3102 C   0  0  1  0  0  0  0  0  0  0  0  0
    0.0191   -0.5718    1.1110 H   0  0  0  0  0  0  0  0  0  0  0  0
    0.1724   -0.3238   -1.0286 C   0  0  0  0  0  0  0  0  0  0  0  0
    1.2283   -0.0879   -0.8828 H   0  0  0  0  0  0  0  0  0  0  0  0
    0.1034   -1.3809   -1.2948 H   0  0  0  0  0  0  0  0  0  0  0  0
   -0.3519    0.5045   -2.2160 C   0  0  0  0  0  0  0  0  0  0  0  0
    0.2524    0.3033   -3.1005 H   0  0  0  0  0  0  0  0  0  0  0  0
   -1.8181    0.1972   -2.5341 C   0  0  0  0  0  0  0  0  0  0  0  0
   -2.4344    0.3785   -1.6525 H   0  0  0  0  0  0  0  0  0  0  0  0
   -2.1599    0.8394   -3.3462 H   0  0  0  0  0  0  0  0  0  0  0  0
   -1.9352   -0.8394   -2.8425 H   0  0  0  0  0  0  0  0  0  0  0  0
   -0.2400    1.9945   -1.8954 C   0  0  0  0  0  0  0  0  0  0  0  0
    0.8007    2.2494   -1.6955 H   0  0  0  0  0  0  0  0  0  0  0  0
   -0.5849    2.5835   -2.7453 H   0  0  0  0  0  0  0  0  0  0  0  0
   -0.8444    2.2369   -1.0206 H   0  0  0  0  0  0  0  0  0  0  0  0
   -0.7793    1.3659    0.6455 C   0  0  0  0  0  0  0  0  0  0  0  0
   -1.6464    2.0125    0.0623 O   0  0  0  0  0  0  0  0  0  0  0  0
    0.0189    1.9059    1.5756 N   0  0  0  0  0  0  0  0  0  0  0  0
    0.7024    1.3094    2.0137 H   0  0  0  0  0  0  0  0  0  0  0  0
   -0.0451    3.3046    1.9929 C   0  0  0  0  0  0  0  0  0  0  0  0
   -1.0415    3.5286    2.3805 H   0  0  0  0  0  0  0  0  0  0  0  0
    0.6954    3.5023    2.7695 H   0  0  0  0  0  0  0  0  0  0  0  0
    0.1474    3.9536    1.1372 H   0  0  0  0  0  0  0  0  0  0  0  0
  5  6  2  0  0  0  0
  5  7  1  0  0  0  0
  2  3  1  0  0  0  0
  2  4  1  0  0  0  0
  2  5  1  0  0  0  0
  1  2  1  0  0  0  0
 24 25  2  0  0  0  0
 24 26  1  0  0  0  0
 20 21  1  0  0  0  0
 20 22  1  0  0  0  0
 20 23  1  0  0  0  0
 16 17  1  0  0  0  0
 16 18  1  0  0  0  0
 16 19  1  0  0  0  0
 14 15  1  0  0  0  0
 14 16  1  0  0  0  0
 14 20  1  0  0  0  0
 11 12  1  0  0  0  0
 11 13  1  0  0  0  0
 11 14  1  0  0  0  0
  9 10  1  0  0  0  0
  9 11  1  0  0  0  0
  9 24  1  0  0  0  0
  7  8  1  0  0  0  0
  7  9  1  0  0  0  0
 28 29  1  0  0  0  0
 28 30  1  0  0  0  0
 28 31  1  0  0  0  0
 26 27  1  0  0  0  0
 26 28  1  0  0  0  0
M  END
$$$$
default_name
  -OEChem-02102213163D

 31 30  0     1  0  0  0  0  0999 V2000
   -3.5895   -3.5013    1.1082 H   0  0  0  0  0  0  0  0  0  0  0  0
   -3.5145   -2.5363    0.6082 C   0  0  0  0  0  0  0  0  0  0  0  0
   -4.2285   -1.8413    1.0452 H   0  0  0  0  0  0  0  0  0  0  0  0
   -3.7155   -2.6583   -0.4538 H   0  0  0  0  0  0  0  0  0  0  0  0
   -2.1155   -1.9963    0.7922 C   0  0  0  0  0  0  0  0  0  0  0  0
   -1.2875   -2.6383    1.4252 O   0  0  0  0  0  0  0  0  0  0  0  0
   -1.8575   -0.8123    0.2402 N   0  0  0  0  0  0  0  0  0  0  0  0
   -2.6005   -0.3333   -0.2478 H   0  0  0  0  0  0  0  0  0  0  0  0
   -0.5675   -0.1203    0.3102 C   0  0  1  0  0  0  0  0  0  0  0  0
    0.0191   -0.5718    1.1110 H   0  0  0  0  0  0  0  0  0  0  0  0
    0.1724   -0.3238   -1.0286 C   0  0  0  0  0  0  0  0  0  0  0  0
    1.2283   -0.0879   -0.8828 H   0  0  0  0  0  0  0  0  0  0  0  0
    0.1034   -1.3809   -1.2948 H   0  0  0  0  0  0  0  0  0  0  0  0
   -0.3519    0.5045   -2.2160 C   0  0  0  0  0  0  0  0  0  0  0  0
    0.0642    0.1184   -3.1465 H   0  0  0  0  0  0  0  0  0  0  0  0
   -1.8805    0.4829   -2.3073 C   0  0  0  0  0  0  0  0  0  0  0  0
   -2.3125    0.8519   -1.3761 H   0  0  0  0  0  0  0  0  0  0  0  0
   -2.2082    1.1198   -3.1293 H   0  0  0  0  0  0  0  0  0  0  0  0
   -2.2402   -0.5273   -2.4901 H   0  0  0  0  0  0  0  0  0  0  0  0
    0.0922    1.9591   -2.0668 C   0  0  0  0  0  0  0  0  0  0  0  0
    1.1804    2.0084   -2.0313 H   0  0  0  0  0  0  0  0  0  0  0  0
   -0.2543    2.5419   -2.9202 H   0  0  0  0  0  0  0  0  0  0  0  0
   -0.3175    2.3848   -1.1501 H   0  0  0  0  0  0  0  0  0  0  0  0
   -0.7793    1.3659    0.6455 C   0  0  0  0  0  0  0  0  0  0  0  0
   -1.6464    2.0125    0.0623 O   0  0  0  0  0  0  0  0  0  0  0  0
    0.0189    1.9059    1.5756 N   0  0  0  0  0  0  0  0  0  0  0  0
    0.7024    1.3094    2.0137 H   0  0  0  0  0  0  0  0  0  0  0  0
   -0.0451    3.3046    1.9929 C   0  0  0  0  0  0  0  0  0  0  0  0
   -1.0415    3.5286    2.3805 H   0  0  0  0  0  0  0  0  0  0  0  0
    0.6954    3.5023    2.7695 H   0  0  0  0  0  0  0  0  0  0  0  0
    0.1474    3.9536    1.1372 H   0  0  0  0  0  0  0  0  0  0  0  0
  5  6  2  0  0  0  0
  5  7  1  0  0  0  0
  2  3  1  0  0  0  0
  2  4  1  0  0  0  0
  2  5  1  0  0  0  0
  1  2  1  0  0  0  0
 24 25  2  0  0  0  0
 24 26  1  0  0  0  0
 20 21  1  0  0  0  0
 20 22  1  0  0  0  0
 20 23  1  0  0  0  0
 16 17  1  0  0  0  0
 16 18  1  0  0  0  0
 16 19  1  0  0  0  0
 14 15  1  0  0  0  0
 14 16  1  0  0  0  0
 14 20  1  0  0  0  0
 11 12  1  0  0  0  0
 11 13  1  0  0  0  0
 11 14  1  0  0  0  0
  9 10  1  0  0  0  0
  9 11  1  0  0  0  0
  9 24  1  0  0  0  0
  7  8  1  0  0  0  0
  7  9  1  0  0  0  0
 28 29  1  0  0  0  0
 28 30  1  0  0  0  0
 28 31  1  0  0  0  0
 26 27  1  0  0  0  0
 26 28  1  0  0  0  0
M  END
$$$$
default_name
  -OEChem-02102213163D

 31 30  0     1  0  0  0  0  0999 V2000
   -3.5895   -3.5013    1.1082 H   0  0  0  0  0  0  0  0  0  0  0  0
   -3.5145   -2.5363    0.6082 C   0  0  0  0  0  0  0  0  0  0  0  0
   -4.2285   -1.8413    1.0452 H   0  0  0  0  0  0  0  0  0  0  0  0
   -3.7155   -2.6583   -0.4538 H   0  0  0  0  0  0  0  0  0  0  0  0
   -2.1155   -1.9963    0.7922 C   0  0  0  0  0  0  0  0  0  0  0  0
   -1.2875   -2.6383    1.4252 O   0  0  0  0  0  0  0  0  0  0  0  0
   -1.8575   -0.8123    0.2402 N   0  0  0  0  0  0  0  0  0  0  0  0
   -2.6005   -0.3333   -0.2478 H   0  0  0  0  0  0  0  0  0  0  0  0
   -0.5675   -0.1203    0.3102 C   0  0  1  0  0  0  0  0  0  0  0  0
    0.0191   -0.5718    1.1110 H   0  0  0  0  0  0  0  0  0  0  0  0
    0.1724   -0.3238   -1.0286 C   0  0  0  0  0  0  0  0  0  0  0  0
    1.2283   -0.0879   -0.8828 H   0  0  0  0  0  0  0  0  0  0  0  0
    0.1034   -1.3809   -1.2948 H   0  0  0  0  0  0  0  0  0  0  0  0
   -0.3519    0.5045   -2.2160 C   0  0  0  0  0  0  0  0  0  0  0  0
   -0.1608   -0.0268   -3.1484 H   0  0  0  0  0  0  0  0  0  0  0  0
   -1.8521    0.7913   -2.1047 C   0  0  0  0  0  0  0  0  0  0  0  0
   -2.0618    1.3092   -1.1677 H   0  0  0  0  0  0  0  0  0  0  0  0
   -2.1686    1.4193   -2.9377 H   0  0  0  0  0  0  0  0  0  0  0  0
   -2.4234   -0.1340   -2.1348 H   0  0  0  0  0  0  0  0  0  0  0  0
    0.3821    1.8435   -2.2755 C   0  0  0  0  0  0  0  0  0  0  0  0
    1.4524    1.6703   -2.3873 H   0  0  0  0  0  0  0  0  0  0  0  0
    0.0323    2.4204   -3.1316 H   0  0  0  0  0  0  0  0  0  0  0  0
    0.2029    2.4111   -1.3616 H   0  0  0  0  0  0  0  0  0  0  0  0
   -0.7793    1.3659    0.6455 C   0  0  0  0  0  0  0  0  0  0  0  0
   -1.6464    2.0125    0.0623 O   0  0  0  0  0  0  0  0  0  0  0  0
    0.0189    1.9059    1.5756 N   0  0  0  0  0  0  0  0  0  0  0  0
    0.7024    1.3094    2.0137 H   0  0  0  0  0  0  0  0  0  0  0  0
   -0.0451    3.3046    1.9929 C   0  0  0  0  0  0  0  0  0  0  0  0
   -1.0415    3.5286    2.3805 H   0  0  0  0  0  0  0  0  0  0  0  0
    0.6954    3.5023    2.7695 H   0  0  0  0  0  0  0  0  0  0  0  0
    0.1474    3.9536    1.1372 H   0  0  0  0  0  0  0  0  0  0  0  0
  5  6  2  0  0  0  0
  5  7  1  0  0  0  0
  2  3  1  0  0  0  0
  2  4  1  0  0  0  0
  2  5  1  0  0  0  0
  1  2  1  0  0  0  0
 24 25  2  0  0  0  0
 24 26  1  0  0  0  0
 20 21  1  0  0  0  0
 20 22  1  0  0  0  0
 20 23  1  0  0  0  0
 16 17  1  0  0  0  0
 16 18  1  0  0  0  0
 16 19  1  0  0  0  0
 14 15  1  0  0  0  0
 14 16  1  0  0  0  0
 14 20  1  0  0  0  0
 11 12  1  0  0  0  0
 11 13  1  0  0  0  0
 11 14  1  0  0  0  0
  9 10  1  0  0  0  0
  9 11  1  0  0  0  0
  9 24  1  0  0  0  0
  7  8  1  0  0  0  0
  7  9  1  0  0  0  0
 28 29  1  0  0  0  0
 28 30  1  0  0  0  0
 28 31  1  0  0  0  0
 26 27  1  0  0  0  0
 26 28  1  0  0  0  0
M  END
$$$$
default_name
  -OEChem-02102213163D

 31 30  0     1  0  0  0  0  0999 V2000
   -3.5895   -3.5013    1.1082 H   0  0  0  0  0  0  0  0  0  0  0  0
   -3.5145   -2.5363    0.6082 C   0  0  0  0  0  0  0  0  0  0  0  0
   -4.2285   -1.8413    1.0452 H   0  0  0  0  0  0  0  0  0  0  0  0
   -3.7155   -2.6583   -0.4538 H   0  0  0  0  0  0  0  0  0  0  0  0
   -2.1155   -1.9963    0.7922 C   0  0  0  0  0  0  0  0  0  0  0  0
   -1.2875   -2.6383    1.4252 O   0  0  0  0  0  0  0  0  0  0  0  0
   -1.8575   -0.8123    0.2402 N   0  0  0  0  0  0  0  0  0  0  0  0
   -2.6005   -0.3333   -0.2478 H   0  0  0  0  0  0  0  0  0  0  0  0
   -0.5675   -0.1203    0.3102 C   0  0  1  0  0  0  0  0  0  0  0  0
    0.0191   -0.5718    1.1110 H   0  0  0  0  0  0  0  0  0  0  0  0
    0.1724   -0.3238   -1.0286 C   0  0  0  0  0  0  0  0  0  0  0  0
    1.2283   -0.0879   -0.8828 H   0  0  0  0  0  0  0  0  0  0  0  0
    0.1034   -1.3809   -1.2948 H   0  0  0  0  0  0  0  0  0  0  0  0
   -0.3519    0.5045   -2.2160 C   0  0  0  0  0  0  0  0  0  0  0  0
   -0.4075   -0.1223   -3.1060 H   0  0  0  0  0  0  0  0  0  0  0  0
   -1.7350    1.1014   -1.9401 C   0  0  0  0  0  0  0  0  0  0  0  0
   -1.6994    1.7192   -1.0417 H   0  0  0  0  0  0  0  0  0  0  0  0
   -2.0440    1.7177   -2.7846 H   0  0  0  0  0  0  0  0  0  0  0  0
   -2.4725    0.3139   -1.8007 H   0  0  0  0  0  0  0  0  0  0  0  0
    0.6101    1.6556   -2.5072 C   0  0  0  0  0  0  0  0  0  0  0  0
    1.5981    1.2580   -2.7392 H   0  0  0  0  0  0  0  0  0  0  0  0
    0.2555    2.2271   -3.3649 H   0  0  0  0  0  0  0  0  0  0  0  0
    0.6815    2.3139   -1.6407 H   0  0  0  0  0  0  0  0  0  0  0  0
   -0.7793    1.3659    0.6455 C   0  0  0  0  0  0  0  0  0  0  0  0
   -1.6464    2.0125    0.0623 O   0  0  0  0  0  0  0  0  0  0  0  0
    0.0189    1.9059    1.5756 N   0  0  0  0  0  0  0  0  0  0  0  0
    0.7024    1.3094    2.0137 H   0  0  0  0  0  0  0  0  0  0  0  0
   -0.0451    3.3046    1.9929 C   0  0  0  0  0  0  0  0  0  0  0  0
   -1.0415    3.5286    2.3805 H   0  0  0  0  0  0  0  0  0  0  0  0
    0.6954    3.5023    2.7695 H   0  0  0  0  0  0  0  0  0  0  0  0
    0.1474    3.9536    1.1372 H   0  0  0  0  0  0  0  0  0  0  0  0
  5  6  2  0  0  0  0
  5  7  1  0  0  0  0
  2  3  1  0  0  0  0
  2  4  1  0  0  0  0
  2  5  1  0  0  0  0
  1  2  1  0  0  0  0
 24 25  2  0  0  0  0
 24 26  1  0  0  0  0
 20 21  1  0  0  0  0
 20 22  1  0  0  0  0
 20 23  1  0  0  0  0
 16 17  1  0  0  0  0
 16 18  1  0  0  0  0
 16 19  1  0  0  0  0
 14 15  1  0  0  0  0
 14 16  1  0  0  0  0
 14 20  1  0  0  0  0
 11 12  1  0  0  0  0
 11 13  1  0  0  0  0
 11 14  1  0  0  0  0
  9 10  1  0  0  0  0
  9 11  1  0  0  0  0
  9 24  1  0  0  0  0
  7  8  1  0  0  0  0
  7  9  1  0  0  0  0
 28 29  1  0  0  0  0
 28 30  1  0  0  0  0
 28 31  1  0  0  0  0
 26 27  1  0  0  0  0
 26 28  1  0  0  0  0
M  END
$$$$
default_name
  -OEChem-02102213163D

 31 30  0     1  0  0  0  0  0999 V2000
   -3.5895   -3.5013    1.1082 H   0  0  0  0  0  0  0  0  0  0  0  0
   -3.5145   -2.5363    0.6082 C   0  0  0  0  0  0  0  0  0  0  0  0
   -4.2285   -1.8413    1.0452 H   0  0  0  0  0  0  0  0  0  0  0  0
   -3.7155   -2.6583   -0.4538 H   0  0  0  0  0  0  0  0  0  0  0  0
   -2.1155   -1.9963    0.7922 C   0  0  0  0  0  0  0  0  0  0  0  0
   -1.2875   -2.6383    1.4252 O   0  0  0  0  0  0  0  0  0  0  0  0
   -1.8575   -0.8123    0.2402 N   0  0  0  0  0  0  0  0  0  0  0  0
   -2.6005   -0.3333   -0.2478 H   0  0  0  0  0  0  0  0  0  0  0  0
   -0.5675   -0.1203    0.3102 C   0  0  1  0  0  0  0  0  0  0  0  0
    0.0191   -0.5718    1.1110 H   0  0  0  0  0  0  0  0  0  0  0  0
    0.1724   -0.3238   -1.0286 C   0  0  0  0  0  0  0  0  0  0  0  0
    1.2283   -0.0879   -0.8828 H   0  0  0  0  0  0  0  0  0  0  0  0
    0.1034   -1.3809   -1.2948 H   0  0  0  0  0  0  0  0  0  0  0  0
   -0.3519    0.5045   -2.2160 C   0  0  0  0  0  0  0  0  0  0  0  0
   -0.6589   -0.1615   -3.0224 H   0  0  0  0  0  0  0  0  0  0  0  0
   -1.5370    1.3920   -1.8247 C   0  0  0  0  0  0  0  0  0  0  0  0
   -1.2500    2.0540   -1.0066 H   0  0  0  0  0  0  0  0  0  0  0  0
   -1.8427    1.9945   -2.6804 H   0  0  0  0  0  0  0  0  0  0  0  0
   -2.3839    0.7857   -1.5107 H   0  0  0  0  0  0  0  0  0  0  0  0
    0.7605    1.4082   -2.7463 C   0  0  0  0  0  0  0  0  0  0  0  0
    1.6075    0.7997   -3.0631 H   0  0  0  0  0  0  0  0  0  0  0  0
    0.4000    1.9754   -3.6044 H   0  0  0  0  0  0  0  0  0  0  0  0
    1.0854    2.1000   -1.9683 H   0  0  0  0  0  0  0  0  0  0  0  0
   -0.7793    1.3659    0.6455 C   0  0  0  0  0  0  0  0  0  0  0  0
   -1.6464    2.0125    0.0623 O   0  0  0  0  0  0  0  0  0  0  0  0
    0.0189    1.9059    1.5756 N   0  0  0  0  0  0  0  0  0  0  0  0
    0.7024    1.3094    2.0137 H   0  0  0  0  0  0  0  0  0  0  0  0
   -0.0451    3.3046    1.9929 C   0  0  0  0  0  0  0  0  0  0  0  0
   -1.0415    3.5286    2.3805 H   0  0  0  0  0  0  0  0  0  0  0  0
    0.6954    3.5023    2.7695 H   0  0  0  0  0  0  0  0  0  0  0  0
    0.1474    3.9536    1.1372 H   0  0  0  0  0  0  0  0  0  0  0  0
  5  6  2  0  0  0  0
  5  7  1  0  0  0  0
  2  3  1  0  0  0  0
  2  4  1  0  0  0  0
  2  5  1  0  0  0  0
  1  2  1  0  0  0  0
 24 25  2  0  0  0  0
 24 26  1  0  0  0  0
 20 21  1  0  0  0  0
 20 22  1  0  0  0  0
 20 23  1  0  0  0  0
 16 17  1  0  0  0  0
 16 18  1  0  0  0  0
 16 19  1  0  0  0  0
 14 15  1  0  0  0  0
 14 16  1  0  0  0  0
 14 20  1  0  0  0  0
 11 12  1  0  0  0  0
 11 13  1  0  0  0  0
 11 14  1  0  0  0  0
  9 10  1  0  0  0  0
  9 11  1  0  0  0  0
  9 24  1  0  0  0  0
  7  8  1  0  0  0  0
  7  9  1  0  0  0  0
 28 29  1  0  0  0  0
 28 30  1  0  0  0  0
 28 31  1  0  0  0  0
 26 27  1  0  0  0  0
 26 28  1  0  0  0  0
M  END
$$$$
default_name
  -OEChem-02102213163D

 31 30  0     1  0  0  0  0  0999 V2000
   -3.5895   -3.5013    1.1082 H   0  0  0  0  0  0  0  0  0  0  0  0
   -3.5145   -2.5363    0.6082 C   0  0  0  0  0  0  0  0  0  0  0  0
   -4.2285   -1.8413    1.0452 H   0  0  0  0  0  0  0  0  0  0  0  0
   -3.7155   -2.6583   -0.4538 H   0  0  0  0  0  0  0  0  0  0  0  0
   -2.1155   -1.9963    0.7922 C   0  0  0  0  0  0  0  0  0  0  0  0
   -1.2875   -2.6383    1.4252 O   0  0  0  0  0  0  0  0  0  0  0  0
   -1.8575   -0.8123    0.2402 N   0  0  0  0  0  0  0  0  0  0  0  0
   -2.6005   -0.3333   -0.2478 H   0  0  0  0  0  0  0  0  0  0  0  0
   -0.5675   -0.1203    0.3102 C   0  0  1  0  0  0  0  0  0  0  0  0
    0.0191   -0.5718    1.1110 H   0  0  0  0  0  0  0  0  0  0  0  0
    0.1724   -0.3238   -1.0286 C   0  0  0  0  0  0  0  0  0  0  0  0
    1.2283   -0.0879   -0.8828 H   0  0  0  0  0  0  0  0  0  0  0  0
    0.1034   -1.3809   -1.2948 H   0  0  0  0  0  0  0  0  0  0  0  0
   -0.3519    0.5045   -2.2160 C   0  0  0  0  0  0  0  0  0  0  0  0
   -0.8979   -0.1419   -2.9032 H   0  0  0  0  0  0  0  0  0  0  0  0
   -1.2718    1.6434   -1.7665 C   0  0  0  0  0  0  0  0  0  0  0  0
   -0.7441    2.2908   -1.0648 H   0  0  0  0  0  0  0  0  0  0  0  0
   -1.5785    2.2309   -2.6321 H   0  0  0  0  0  0  0  0  0  0  0  0
   -2.1638    1.2493   -1.2845 H   0  0  0  0  0  0  0  0  0  0  0  0
    0.8232    1.1181   -2.9763 C   0  0  0  0  0  0  0  0  0  0  0  0
    1.4800    0.3265   -3.3369 H   0  0  0  0  0  0  0  0  0  0  0  0
    0.4560    1.6823   -3.8336 H   0  0  0  0  0  0  0  0  0  0  0  0
    1.3873    1.7838   -2.3222 H   0  0  0  0  0  0  0  0  0  0  0  0
   -0.7793    1.3659    0.6455 C   0  0  0  0  0  0  0  0  0  0  0  0
   -1.6464    2.0125    0.0623 O   0  0  0  0  0  0  0  0  0  0  0  0
    0.0189    1.9059    1.5756 N   0  0  0  0  0  0  0  0  0  0  0  0
    0.7024    1.3094    2.0137 H   0  0  0  0  0  0  0  0  0  0  0  0
   -0.0451    3.3046    1.9929 C   0  0  0  0  0  0  0  0  0  0  0  0
   -1.0415    3.5286    2.3805 H   0  0  0  0  0  0  0  0  0  0  0  0
    0.6954    3.5023    2.7695 H   0  0  0  0  0  0  0  0  0  0  0  0
    0.1474    3.9536    1.1372 H   0  0  0  0  0  0  0  0  0  0  0  0
  5  6  2  0  0  0  0
  5  7  1  0  0  0  0
  2  3  1  0  0  0  0
  2  4  1  0  0  0  0
  2  5  1  0  0  0  0
  1  2  1  0  0  0  0
 24 25  2  0  0  0  0
 24 26  1  0  0  0  0
 20 21  1  0  0  0  0
 20 22  1  0  0  0  0
 20 23  1  0  0  0  0
 16 17  1  0  0  0  0
 16 18  1  0  0  0  0
 16 19  1  0  0  0  0
 14 15  1  0  0  0  0
 14 16  1  0  0  0  0
 14 20  1  0  0  0  0
 11 12  1  0  0  0  0
 11 13  1  0  0  0  0
 11 14  1  0  0  0  0
  9 10  1  0  0  0  0
  9 11  1  0  0  0  0
  9 24  1  0  0  0  0
  7  8  1  0  0  0  0
  7  9  1  0  0  0  0
 28 29  1  0  0  0  0
 28 30  1  0  0  0  0
 28 31  1  0  0  0  0
 26 27  1  0  0  0  0
 26 28  1  0  0  0  0
M  END
$$$$
default_name
  -OEChem-02102213163D

 31 30  0     1  0  0  0  0  0999 V2000
   -3.5895   -3.5013    1.1082 H   0  0  0  0  0  0  0  0  0  0  0  0
   -3.5145   -2.5363    0.6082 C   0  0  0  0  0  0  0  0  0  0  0  0
   -4.2285   -1.8413    1.0452 H   0  0  0  0  0  0  0  0  0  0  0  0
   -3.7155   -2.6583   -0.4538 H   0  0  0  0  0  0  0  0  0  0  0  0
   -2.1155   -1.9963    0.7922 C   0  0  0  0  0  0  0  0  0  0  0  0
   -1.2875   -2.6383    1.4252 O   0  0  0  0  0  0  0  0  0  0  0  0
   -1.8575   -0.8123    0.2402 N   0  0  0  0  0  0  0  0  0  0  0  0
   -2.6005   -0.3333   -0.2478 H   0  0  0  0  0  0  0  0  0  0  0  0
   -0.5675   -0.1203    0.3102 C   0  0  1  0  0  0  0  0  0  0  0  0
    0.0191   -0.5718    1.1110 H   0  0  0  0  0  0  0  0  0  0  0  0
    0.1724   -0.3238   -1.0286 C   0  0  0  0  0  0  0  0  0  0  0  0
    1.2283   -0.0879   -0.8828 H   0  0  0  0  0  0  0  0  0  0  0  0
    0.1034   -1.3809   -1.2948 H   0  0  0  0  0  0  0  0  0  0  0  0
   -0.3519    0.5045   -2.2160 C   0  0  0  0  0  0  0  0  0  0  0  0
   -1.1083   -0.0647   -2.7565 H   0  0  0  0  0  0  0  0  0  0  0  0
   -0.9573    1.8384   -1.7693 C   0  0  0  0  0  0  0  0  0  0  0  0
   -0.2163    2.4135   -1.2123 H   0  0  0  0  0  0  0  0  0  0  0  0
   -1.2695    2.4108   -2.6431 H   0  0  0  0  0  0  0  0  0  0  0  0
   -1.8272    1.6731   -1.1374 H   0  0  0  0  0  0  0  0  0  0  0  0
    0.7937    0.8051   -3.1816 C   0  0  0  0  0  0  0  0  0  0  0  0
    1.2243   -0.1292   -3.5419 H   0  0  0  0  0  0  0  0  0  0  0  0
    0.4197    1.3678   -4.0370 H   0  0  0  0  0  0  0  0  0  0  0  0
    1.5665    1.3870   -2.6782 H   0  0  0  0  0  0  0  0  0  0  0  0
   -0.7793    1.3659    0.6455 C   0  0  0  0  0  0  0  0  0  0  0  0
   -1.6464    2.0125    0.0623 O   0  0  0  0  0  0  0  0  0  0  0  0
    0.0189    1.9059    1.5756 N   0  0  0  0  0  0  0  0  0  0  0  0
    0.7024    1.3094    2.0137 H   0  0  0  0  0  0  0  0  0  0  0  0
   -0.0451    3.3046    1.9929 C   0  0  0  0  0  0  0  0  0  0  0  0
   -1.0415    3.5286    2.3805 H   0  0  0  0  0  0  0  0  0  0  0  0
    0.6954    3.5023    2.7695 H   0  0  0  0  0  0  0  0  0  0  0  0
    0.1474    3.9536    1.1372 H   0  0  0  0  0  0  0  0  0  0  0  0
  5  6  2  0  0  0  0
  5  7  1  0  0  0  0
  2  3  1  0  0  0  0
  2  4  1  0  0  0  0
  2  5  1  0  0  0  0
  1  2  1  0  0  0  0
 24 25  2  0  0  0  0
 24 26  1  0  0  0  0
 20 21  1  0  0  0  0
 20 22  1  0  0  0  0
 20 23  1  0  0  0  0
 16 17  1  0  0  0  0
 16 18  1  0  0  0  0
 16 19  1  0  0  0  0
 14 15  1  0  0  0  0
 14 16  1  0  0  0  0
 14 20  1  0  0  0  0
 11 12  1  0  0  0  0
 11 13  1  0  0  0  0
 11 14  1  0  0  0  0
  9 10  1  0  0  0  0
  9 11  1  0  0  0  0
  9 24  1  0  0  0  0
  7  8  1  0  0  0  0
  7  9  1  0  0  0  0
 28 29  1  0  0  0  0
 28 30  1  0  0  0  0
 28 31  1  0  0  0  0
 26 27  1  0  0  0  0
 26 28  1  0  0  0  0
M  END
$$$$
default_name
  -OEChem-02102213163D

 31 30  0     1  0  0  0  0  0999 V2000
   -3.5895   -3.5013    1.1082 H   0  0  0  0  0  0  0  0  0  0  0  0
   -3.5145   -2.5363    0.6082 C   0  0  0  0  0  0  0  0  0  0  0  0
   -4.2285   -1.8413    1.0452 H   0  0  0  0  0  0  0  0  0  0  0  0
   -3.7155   -2.6583   -0.4538 H   0  0  0  0  0  0  0  0  0  0  0  0
   -2.1155   -1.9963    0.7922 C   0  0  0  0  0  0  0  0  0  0  0  0
   -1.2875   -2.6383    1.4252 O   0  0  0  0  0  0  0  0  0  0  0  0
   -1.8575   -0.8123    0.2402 N   0  0  0  0  0  0  0  0  0  0  0  0
   -2.6005   -0.3333   -0.2478 H   0  0  0  0  0  0  0  0  0  0  0  0
   -0.5675   -0.1203    0.3102 C   0  0  1  0  0  0  0  0  0  0  0  0
    0.0191   -0.5718    1.1110 H   0  0  0  0  0  0  0  0  0  0  0  0
    0.1724   -0.3238   -1.0286 C   0  0  0  0  0  0  0  0  0  0  0  0
    1.2283   -0.0879   -0.8828 H   0  0  0  0  0  0  0  0  0  0  0  0
    0.1034   -1.3809   -1.2948 H   0  0  0  0  0  0  0  0  0  0  0  0
   -0.3519    0.5045   -2.2160 C   0  0  0  0  0  0  0  0  0  0  0  0
   -1.2756    0.0648   -2.5922 H   0  0  0  0  0  0  0  0  0  0  0  0
   -0.6149    1.9638   -1.8331 C   0  0  0  0  0  0  0  0  0  0  0  0
    0.2974    2.4136   -1.4390 H   0  0  0  0  0  0  0  0  0  0  0  0
   -0.9365    2.5219   -2.7126 H   0  0  0  0  0  0  0  0  0  0  0  0
   -1.3970    2.0283   -1.0796 H   0  0  0  0  0  0  0  0  0  0  0  0
    0.6742    0.4905   -3.3483 C   0  0  0  0  0  0  0  0  0  0  0  0
    0.8579   -0.5364   -3.6641 H   0  0  0  0  0  0  0  0  0  0  0  0
    0.2935    1.0533   -4.2006 H   0  0  0  0  0  0  0  0  0  0  0  0
    1.6109    0.9366   -3.0120 H   0  0  0  0  0  0  0  0  0  0  0  0
   -0.7793    1.3659    0.6455 C   0  0  0  0  0  0  0  0  0  0  0  0
   -1.6464    2.0125    0.0623 O   0  0  0  0  0  0  0  0  0  0  0  0
    0.0189    1.9059    1.5756 N   0  0  0  0  0  0  0  0  0  0  0  0
    0.7024    1.3094    2.0137 H   0  0  0  0  0  0  0  0  0  0  0  0
   -0.0451    3.3046    1.9929 C   0  0  0  0  0  0  0  0  0  0  0  0
   -1.0415    3.5286    2.3805 H   0  0  0  0  0  0  0  0  0  0  0  0
    0.6954    3.5023    2.7695 H   0  0  0  0  0  0  0  0  0  0  0  0
    0.1474    3.9536    1.1372 H   0  0  0  0  0  0  0  0  0  0  0  0
  5  6  2  0  0  0  0
  5  7  1  0  0  0  0
  2  3  1  0  0  0  0
  2  4  1  0  0  0  0
  2  5  1  0  0  0  0
  1  2  1  0  0  0  0
 24 25  2  0  0  0  0
 24 26  1  0  0  0  0
 20 21  1  0  0  0  0
 20 22  1  0  0  0  0
 20 23  1  0  0  0  0
 16 17  1  0  0  0  0
 16 18  1  0  0  0  0
 16 19  1  0  0  0  0
 14 15  1  0  0  0  0
 14 16  1  0  0  0  0
 14 20  1  0  0  0  0
 11 12  1  0  0  0  0
 11 13  1  0  0  0  0
 11 14  1  0  0  0  0
  9 10  1  0  0  0  0
  9 11  1  0  0  0  0
  9 24  1  0  0  0  0
  7  8  1  0  0  0  0
  7  9  1  0  0  0  0
 28 29  1  0  0  0  0
 28 30  1  0  0  0  0
 28 31  1  0  0  0  0
 26 27  1  0  0  0  0
 26 28  1  0  0  0  0
M  END
$$$$
default_name
  -OEChem-02102213163D

 31 30  0     1  0  0  0  0  0999 V2000
   -3.5895   -3.5013    1.1082 H   0  0  0  0  0  0  0  0  0  0  0  0
   -3.5145   -2.5363    0.6082 C   0  0  0  0  0  0  0  0  0  0  0  0
   -4.2285   -1.8413    1.0452 H   0  0  0  0  0  0  0  0  0  0  0  0
   -3.7155   -2.6583   -0.4538 H   0  0  0  0  0  0  0  0  0  0  0  0
   -2.1155   -1.9963    0.7922 C   0  0  0  0  0  0  0  0  0  0  0  0
   -1.2875   -2.6383    1.4252 O   0  0  0  0  0  0  0  0  0  0  0  0
   -1.8575   -0.8123    0.2402 N   0  0  0  0  0  0  0  0  0  0  0  0
   -2.6005   -0.3333   -0.2478 H   0  0  0  0  0  0  0  0  0  0  0  0
   -0.5675   -0.1203    0.3102 C   0  0  1  0  0  0  0  0  0  0  0  0
    0.0191   -0.5718    1.1110 H   0  0  0  0  0  0  0  0  0  0  0  0
    0.1724   -0.3238   -1.0286 C   0  0  0  0  0  0  0  0  0  0  0  0
    1.2283   -0.0879   -0.8828 H   0  0  0  0  0  0  0  0  0  0  0  0
    0.1034   -1.3809   -1.2948 H   0  0  0  0  0  0  0  0  0  0  0  0
   -0.3519    0.5045   -2.2160 C   0  0  0  0  0  0  0  0  0  0  0  0
   -1.3886    0.2377   -2.4217 H   0  0  0  0  0  0  0  0  0  0  0  0
   -0.2681    2.0109   -1.9533 C   0  0  0  0  0  0  0  0  0  0  0  0
    0.7621    2.2912   -1.7296 H   0  0  0  0  0  0  0  0  0  0  0  0
   -0.6025    2.5566   -2.8359 H   0  0  0  0  0  0  0  0  0  0  0  0
   -0.9025    2.2906   -1.1150 H   0  0  0  0  0  0  0  0  0  0  0  0
    0.4728    0.1959   -3.4649 C   0  0  0  0  0  0  0  0  0  0  0  0
    0.4056   -0.8673   -3.6953 H   0  0  0  0  0  0  0  0  0  0  0  0
    0.0861    0.7603   -4.3134 H   0  0  0  0  0  0  0  0  0  0  0  0
    1.5173    0.4632   -3.3009 H   0  0  0  0  0  0  0  0  0  0  0  0
   -0.7793    1.3659    0.6455 C   0  0  0  0  0  0  0  0  0  0  0  0
   -1.6464    2.0125    0.0623 O   0  0  0  0  0  0  0  0  0  0  0  0
    0.0189    1.9059    1.5756 N   0  0  0  0  0  0  0  0  0  0  0  0
    0.7024    1.3094    2.0137 H   0  0  0  0  0  0  0  0  0  0  0  0
   -0.0451    3.3046    1.9929 C   0  0  0  0  0  0  0  0  0  0  0  0
   -1.0415    3.5286    2.3805 H   0  0  0  0  0  0  0  0  0  0  0  0
    0.6954    3.5023    2.7695 H   0  0  0  0  0  0  0  0  0  0  0  0
    0.1474    3.9536    1.1372 H   0  0  0  0  0  0  0  0  0  0  0  0
  5  6  2  0  0  0  0
  5  7  1  0  0  0  0
  2  3  1  0  0  0  0
  2  4  1  0  0  0  0
  2  5  1  0  0  0  0
  1  2  1  0  0  0  0
 24 25  2  0  0  0  0
 24 26  1  0  0  0  0
 20 21  1  0  0  0  0
 20 22  1  0  0  0  0
 20 23  1  0  0  0  0
 16 17  1  0  0  0  0
 16 18  1  0  0  0  0
 16 19  1  0  0  0  0
 14 15  1  0  0  0  0
 14 16  1  0  0  0  0
 14 20  1  0  0  0  0
 11 12  1  0  0  0  0
 11 13  1  0  0  0  0
 11 14  1  0  0  0  0
  9 10  1  0  0  0  0
  9 11  1  0  0  0  0
  9 24  1  0  0  0  0
  7  8  1  0  0  0  0
  7  9  1  0  0  0  0
 28 29  1  0  0  0  0
 28 30  1  0  0  0  0
 28 31  1  0  0  0  0
 26 27  1  0  0  0  0
 26 28  1  0  0  0  0
M  END
$$$$
default_name
  -OEChem-02102213163D

 31 30  0     1  0  0  0  0  0999 V2000
   -3.5895   -3.5013    1.1082 H   0  0  0  0  0  0  0  0  0  0  0  0
   -3.5145   -2.5363    0.6082 C   0  0  0  0  0  0  0  0  0  0  0  0
   -4.2285   -1.8413    1.0452 H   0  0  0  0  0  0  0  0  0  0  0  0
   -3.7155   -2.6583   -0.4538 H   0  0  0  0  0  0  0  0  0  0  0  0
   -2.1155   -1.9963    0.7922 C   0  0  0  0  0  0  0  0  0  0  0  0
   -1.2875   -2.6383    1.4252 O   0  0  0  0  0  0  0  0  0  0  0  0
   -1.8575   -0.8123    0.2402 N   0  0  0  0  0  0  0  0  0  0  0  0
   -2.6005   -0.3333   -0.2478 H   0  0  0  0  0  0  0  0  0  0  0  0
   -0.5675   -0.1203    0.3102 C   0  0  1  0  0  0  0  0  0  0  0  0
    0.0191   -0.5718    1.1110 H   0  0  0  0  0  0  0  0  0  0  0  0
    0.1724   -0.3238   -1.0286 C   0  0  0  0  0  0  0  0  0  0  0  0
    1.2283   -0.0879   -0.8828 H   0  0  0  0  0  0  0  0  0  0  0  0
    0.1034   -1.3809   -1.2948 H   0  0  0  0  0  0  0  0  0  0  0  0
   -0.3519    0.5045   -2.2160 C   0  0  0  0  0  0  0  0  0  0  0  0
   -1.4394    0.4423   -2.2565 H   0  0  0  0  0  0  0  0  0  0  0  0
    0.0595    1.9766   -2.1219 C   0  0  0  0  0  0  0  0  0  0  0  0
    1.1460    2.0547   -2.0642 H   0  0  0  0  0  0  0  0  0  0  0  0
   -0.2900    2.5126   -3.0046 H   0  0  0  0  0  0  0  0  0  0  0  0
   -0.3775    2.4421   -1.2411 H   0  0  0  0  0  0  0  0  0  0  0  0
    0.2033   -0.0588   -3.5236 C   0  0  0  0  0  0  0  0  0  0  0  0
   -0.1017   -1.0995   -3.6333 H   0  0  0  0  0  0  0  0  0  0  0  0
   -0.1885    0.5088   -4.3677 H   0  0  0  0  0  0  0  0  0  0  0  0
    1.2923   -0.0008   -3.5252 H   0  0  0  0  0  0  0  0  0  0  0  0
   -0.7793    1.3659    0.6455 C   0  0  0  0  0  0  0  0  0  0  0  0
   -1.6464    2.0125    0.0623 O   0  0  0  0  0  0  0  0  0  0  0  0
    0.0189    1.9059    1.5756 N   0  0  0  0  0  0  0  0  0  0  0  0
    0.7024    1.3094    2.0137 H   0  0  0  0  0  0  0  0  0  0  0  0
   -0.0451    3.3046    1.9929 C   0  0  0  0  0  0  0  0  0  0  0  0
   -1.0415    3.5286    2.3805 H   0  0  0  0  0  0  0  0  0  0  0  0
    0.6954    3.5023    2.7695 H   0  0  0  0  0  0  0  0  0  0  0  0
    0.1474    3.9536    1.1372 H   0  0  0  0  0  0  0  0  0  0  0  0
  5  6  2  0  0  0  0
  5  7  1  0  0  0  0
  2  3  1  0  0  0  0
  2  4  1  0  0  0  0
  2  5  1  0  0  0  0
  1  2  1  0  0  0  0
 24 25  2  0  0  0  0
 24 26  1  0  0  0  0
 20 21  1  0  0  0  0
 20 22  1  0  0  0  0
 20 23  1  0  0  0  0
 16 17  1  0  0  0  0
 16 18  1  0  0  0  0
 16 19  1  0  0  0  0
 14 15  1  0  0  0  0
 14 16  1  0  0  0  0
 14 20  1  0  0  0  0
 11 12  1  0  0  0  0
 11 13  1  0  0  0  0
 11 14  1  0  0  0  0
  9 10  1  0  0  0  0
  9 11  1  0  0  0  0
  9 24  1  0  0  0  0
  7  8  1  0  0  0  0
  7  9  1  0  0  0  0
 28 29  1  0  0  0  0
 28 30  1  0  0  0  0
 28 31  1  0  0  0  0
 26 27  1  0  0  0  0
 26 28  1  0  0  0  0
M  END
$$$$
default_name
  -OEChem-02102213163D

 31 30  0     1  0  0  0  0  0999 V2000
   -3.5895   -3.5013    1.1082 H   0  0  0  0  0  0  0  0  0  0  0  0
   -3.5145   -2.5363    0.6082 C   0  0  0  0  0  0  0  0  0  0  0  0
   -4.2285   -1.8413    1.0452 H   0  0  0  0  0  0  0  0  0  0  0  0
   -3.7155   -2.6583   -0.4538 H   0  0  0  0  0  0  0  0  0  0  0  0
   -2.1155   -1.9963    0.7922 C   0  0  0  0  0  0  0  0  0  0  0  0
   -1.2875   -2.6383    1.4252 O   0  0  0  0  0  0  0  0  0  0  0  0
   -1.8575   -0.8123    0.2402 N   0  0  0  0  0  0  0  0  0  0  0  0
   -2.6005   -0.3333   -0.2478 H   0  0  0  0  0  0  0  0  0  0  0  0
   -0.5675   -0.1203    0.3102 C   0  0  1  0  0  0  0  0  0  0  0  0
    0.0191   -0.5718    1.1110 H   0  0  0  0  0  0  0  0  0  0  0  0
    0.1724   -0.3238   -1.0286 C   0  0  0  0  0  0  0  0  0  0  0  0
    1.2283   -0.0879   -0.8828 H   0  0  0  0  0  0  0  0  0  0  0  0
    0.1034   -1.3809   -1.2948 H   0  0  0  0  0  0  0  0  0  0  0  0
   -0.3519    0.5045   -2.2160 C   0  0  0  0  0  0  0  0  0  0  0  0
   -1.4247    0.6646   -2.1079 H   0  0  0  0  0  0  0  0  0  0  0  0
    0.3457    1.8632   -2.3274 C   0  0  0  0  0  0  0  0  0  0  0  0
    1.4231    1.7200   -2.4200 H   0  0  0  0  0  0  0  0  0  0  0  0
   -0.0205    2.3929   -3.2071 H   0  0  0  0  0  0  0  0  0  0  0  0
    0.1424    2.4726   -1.4494 H   0  0  0  0  0  0  0  0  0  0  0  0
   -0.1161   -0.2562   -3.5202 C   0  0  0  0  0  0  0  0  0  0  0  0
   -0.6293   -1.2170   -3.4823 H   0  0  0  0  0  0  0  0  0  0  0  0
   -0.5114    0.3158   -4.3597 H   0  0  0  0  0  0  0  0  0  0  0  0
    0.9510   -0.4239   -3.6697 H   0  0  0  0  0  0  0  0  0  0  0  0
   -0.7793    1.3659    0.6455 C   0  0  0  0  0  0  0  0  0  0  0  0
   -1.6464    2.0125    0.0623 O   0  0  0  0  0  0  0  0  0  0  0  0
    0.0189    1.9059    1.5756 N   0  0  0  0  0  0  0  0  0  0  0  0
    0.7024    1.3094    2.0137 H   0  0  0  0  0  0  0  0  0  0  0  0
   -0.0451    3.3046    1.9929 C   0  0  0  0  0  0  0  0  0  0  0  0
   -1.0415    3.5286    2.3805 H   0  0  0  0  0  0  0  0  0  0  0  0
    0.6954    3.5023    2.7695 H   0  0  0  0  0  0  0  0  0  0  0  0
    0.1474    3.9536    1.1372 H   0  0  0  0  0  0  0  0  0  0  0  0
  5  6  2  0  0  0  0
  5  7  1  0  0  0  0
  2  3  1  0  0  0  0
  2  4  1  0  0  0  0
  2  5  1  0  0  0  0
  1  2  1  0  0  0  0
 24 25  2  0  0  0  0
 24 26  1  0  0  0  0
 20 21  1  0  0  0  0
 20 22  1  0  0  0  0
 20 23  1  0  0  0  0
 16 17  1  0  0  0  0
 16 18  1  0  0  0  0
 16 19  1  0  0  0  0
 14 15  1  0  0  0  0
 14 16  1  0  0  0  0
 14 20  1  0  0  0  0
 11 12  1  0  0  0  0
 11 13  1  0  0  0  0
 11 14  1  0  0  0  0
  9 10  1  0  0  0  0
  9 11  1  0  0  0  0
  9 24  1  0  0  0  0
  7  8  1  0  0  0  0
  7  9  1  0  0  0  0
 28 29  1  0  0  0  0
 28 30  1  0  0  0  0
 28 31  1  0  0  0  0
 26 27  1  0  0  0  0
 26 28  1  0  0  0  0
M  END
$$$$
default_name
  -OEChem-02102213163D

 31 30  0     1  0  0  0  0  0999 V2000
   -3.5895   -3.5013    1.1082 H   0  0  0  0  0  0  0  0  0  0  0  0
   -3.5145   -2.5363    0.6082 C   0  0  0  0  0  0  0  0  0  0  0  0
   -4.2285   -1.8413    1.0452 H   0  0  0  0  0  0  0  0  0  0  0  0
   -3.7155   -2.6583   -0.4538 H   0  0  0  0  0  0  0  0  0  0  0  0
   -2.1155   -1.9963    0.7922 C   0  0  0  0  0  0  0  0  0  0  0  0
   -1.2875   -2.6383    1.4252 O   0  0  0  0  0  0  0  0  0  0  0  0
   -1.8575   -0.8123    0.2402 N   0  0  0  0  0  0  0  0  0  0  0  0
   -2.6005   -0.3333   -0.2478 H   0  0  0  0  0  0  0  0  0  0  0  0
   -0.5675   -0.1203    0.3102 C   0  0  1  0  0  0  0  0  0  0  0  0
    0.0191   -0.5718    1.1110 H   0  0  0  0  0  0  0  0  0  0  0  0
    0.1724   -0.3238   -1.0286 C   0  0  0  0  0  0  0  0  0  0  0  0
    1.2283   -0.0879   -0.8828 H   0  0  0  0  0  0  0  0  0  0  0  0
    0.1034   -1.3809   -1.2948 H   0  0  0  0  0  0  0  0  0  0  0  0
   -0.3519    0.5045   -2.2160 C   0  0  0  0  0  0  0  0  0  0  0  0
   -1.3454    0.8895   -1.9860 H   0  0  0  0  0  0  0  0  0  0  0  0
    0.5709    1.6785   -2.5557 C   0  0  0  0  0  0  0  0  0  0  0  0
    1.5744    1.3102   -2.7727 H   0  0  0  0  0  0  0  0  0  0  0  0
    0.1878    2.2056   -3.4297 H   0  0  0  0  0  0  0  0  0  0  0  0
    0.6216    2.3799   -1.7257 H   0  0  0  0  0  0  0  0  0  0  0  0
   -0.4636   -0.3828   -3.4552 C   0  0  0  0  0  0  0  0  0  0  0  0
   -1.1415   -1.2120   -3.2526 H   0  0  0  0  0  0  0  0  0  0  0  0
   -0.8607    0.1946   -4.2900 H   0  0  0  0  0  0  0  0  0  0  0  0
    0.5169   -0.7771   -3.7244 H   0  0  0  0  0  0  0  0  0  0  0  0
   -0.7793    1.3659    0.6455 C   0  0  0  0  0  0  0  0  0  0  0  0
   -1.6464    2.0125    0.0623 O   0  0  0  0  0  0  0  0  0  0  0  0
    0.0189    1.9059    1.5756 N   0  0  0  0  0  0  0  0  0  0  0  0
    0.7024    1.3094    2.0137 H   0  0  0  0  0  0  0  0  0  0  0  0
   -0.0451    3.3046    1.9929 C   0  0  0  0  0  0  0  0  0  0  0  0
   -1.0415    3.5286    2.3805 H   0  0  0  0  0  0  0  0  0  0  0  0
    0.6954    3.5023    2.7695 H   0  0  0  0  0  0  0  0  0  0  0  0
    0.1474    3.9536    1.1372 H   0  0  0  0  0  0  0  0  0  0  0  0
  5  6  2  0  0  0  0
  5  7  1  0  0  0  0
  2  3  1  0  0  0  0
  2  4  1  0  0  0  0
  2  5  1  0  0  0  0
  1  2  1  0  0  0  0
 24 25  2  0  0  0  0
 24 26  1  0  0  0  0
 20 21  1  0  0  0  0
 20 22  1  0  0  0  0
 20 23  1  0  0  0  0
 16 17  1  0  0  0  0
 16 18  1  0  0  0  0
 16 19  1  0  0  0  0
 14 15  1  0  0  0  0
 14 16  1  0  0  0  0
 14 20  1  0  0  0  0
 11 12  1  0  0  0  0
 11 13  1  0  0  0  0
 11 14  1  0  0  0  0
  9 10  1  0  0  0  0
  9 11  1  0  0  0  0
  9 24  1  0  0  0  0
  7  8  1  0  0  0  0
  7  9  1  0  0  0  0
 28 29  1  0  0  0  0
 28 30  1  0  0  0  0
 28 31  1  0  0  0  0
 26 27  1  0  0  0  0
 26 28  1  0  0  0  0
M  END
$$$$
default_name
  -OEChem-02102213163D

 31 30  0     1  0  0  0  0  0999 V2000
   -3.5895   -3.5013    1.1082 H   0  0  0  0  0  0  0  0  0  0  0  0
   -3.5145   -2.5363    0.6082 C   0  0  0  0  0  0  0  0  0  0  0  0
   -4.2285   -1.8413    1.0452 H   0  0  0  0  0  0  0  0  0  0  0  0
   -3.7155   -2.6583   -0.4538 H   0  0  0  0  0  0  0  0  0  0  0  0
   -2.1155   -1.9963    0.7922 C   0  0  0  0  0  0  0  0  0  0  0  0
   -1.2875   -2.6383    1.4252 O   0  0  0  0  0  0  0  0  0  0  0  0
   -1.8575   -0.8123    0.2402 N   0  0  0  0  0  0  0  0  0  0  0  0
   -2.6005   -0.3333   -0.2478 H   0  0  0  0  0  0  0  0  0  0  0  0
   -0.5675   -0.1203    0.3102 C   0  0  1  0  0  0  0  0  0  0  0  0
    0.0191   -0.5718    1.1110 H   0  0  0  0  0  0  0  0  0  0  0  0
    0.1724   -0.3238   -1.0286 C   0  0  0  0  0  0  0  0  0  0  0  0
    1.2283   -0.0879   -0.8828 H   0  0  0  0  0  0  0  0  0  0  0  0
    0.1034   -1.3809   -1.2948 H   0  0  0  0  0  0  0  0  0  0  0  0
   -0.3519    0.5045   -2.2160 C   0  0  0  0  0  0  0  0  0  0  0  0
   -1.2070    1.1017   -1.8992 H   0  0  0  0  0  0  0  0  0  0  0  0
    0.7197    1.4350   -2.7913 C   0  0  0  0  0  0  0  0  0  0  0  0
    1.5897    0.8530   -3.0984 H   0  0  0  0  0  0  0  0  0  0  0  0
    0.3205    1.9635   -3.6573 H   0  0  0  0  0  0  0  0  0  0  0  0
    1.0275    2.1704   -2.0511 H   0  0  0  0  0  0  0  0  0  0  0  0
   -0.8154   -0.4301   -3.3327 C   0  0  0  0  0  0  0  0  0  0  0  0
   -1.6032   -1.0846   -2.9599 H   0  0  0  0  0  0  0  0  0  0  0  0
   -1.2127    0.1533   -4.1634 H   0  0  0  0  0  0  0  0  0  0  0  0
    0.0194   -1.0366   -3.6857 H   0  0  0  0  0  0  0  0  0  0  0  0
   -0.7793    1.3659    0.6455 C   0  0  0  0  0  0  0  0  0  0  0  0
   -1.6464    2.0125    0.0623 O   0  0  0  0  0  0  0  0  0  0  0  0
    0.0189    1.9059    1.5756 N   0  0  0  0  0  0  0  0  0  0  0  0
    0.7024    1.3094    2.0137 H   0  0  0  0  0  0  0  0  0  0  0  0
   -0.0451    3.3046    1.9929 C   0  0  0  0  0  0  0  0  0  0  0  0
   -1.0415    3.5286    2.3805 H   0  0  0  0  0  0  0  0  0  0  0  0
    0.6954    3.5023    2.7695 H   0  0  0  0  0  0  0  0  0  0  0  0
    0.1474    3.9536    1.1372 H   0  0  0  0  0  0  0  0  0  0  0  0
  5  6  2  0  0  0  0
  5  7  1  0  0  0  0
  2  3  1  0  0  0  0
  2  4  1  0  0  0  0
  2  5  1  0  0  0  0
  1  2  1  0  0  0  0
 24 25  2  0  0  0  0
 24 26  1  0  0  0  0
 20 21  1  0  0  0  0
 20 22  1  0  0  0  0
 20 23  1  0  0  0  0
 16 17  1  0  0  0  0
 16 18  1  0  0  0  0
 16 19  1  0  0  0  0
 14 15  1  0  0  0  0
 14 16  1  0  0  0  0
 14 20  1  0  0  0  0
 11 12  1  0  0  0  0
 11 13  1  0  0  0  0
 11 14  1  0  0  0  0
  9 10  1  0  0  0  0
  9 11  1  0  0  0  0
  9 24  1  0  0  0  0
  7  8  1  0  0  0  0
  7  9  1  0  0  0  0
 28 29  1  0  0  0  0
 28 30  1  0  0  0  0
 28 31  1  0  0  0  0
 26 27  1  0  0  0  0
 26 28  1  0  0  0  0
M  END
$$$$
default_name
  -OEChem-02102213163D

 31 30  0     1  0  0  0  0  0999 V2000
   -3.5895   -3.5013    1.1082 H   0  0  0  0  0  0  0  0  0  0  0  0
   -3.5145   -2.5363    0.6082 C   0  0  0  0  0  0  0  0  0  0  0  0
   -4.2285   -1.8413    1.0452 H   0  0  0  0  0  0  0  0  0  0  0  0
   -3.7155   -2.6583   -0.4538 H   0  0  0  0  0  0  0  0  0  0  0  0
   -2.1155   -1.9963    0.7922 C   0  0  0  0  0  0  0  0  0  0  0  0
   -1.2875   -2.6383    1.4252 O   0  0  0  0  0  0  0  0  0  0  0  0
   -1.8575   -0.8123    0.2402 N   0  0  0  0  0  0  0  0  0  0  0  0
   -2.6005   -0.3333   -0.2478 H   0  0  0  0  0  0  0  0  0  0  0  0
   -0.5675   -0.1203    0.3102 C   0  0  1  0  0  0  0  0  0  0  0  0
    0.0191   -0.5718    1.1110 H   0  0  0  0  0  0  0  0  0  0  0  0
    0.1724   -0.3238   -1.0286 C   0  0  0  0  0  0  0  0  0  0  0  0
    1.2283   -0.0879   -0.8828 H   0  0  0  0  0  0  0  0  0  0  0  0
    0.1034   -1.3809   -1.2948 H   0  0  0  0  0  0  0  0  0  0  0  0
   -0.3519    0.5045   -2.2160 C   0  0  0  0  0  0  0  0  0  0  0  0
   -1.0188    1.2867   -1.8532 H   0  0  0  0  0  0  0  0  0  0  0  0
    0.7821    1.1493   -3.0181 C   0  0  0  0  0  0  0  0  0  0  0  0
    1.4678    0.3796   -3.3748 H   0  0  0  0  0  0  0  0  0  0  0  0
    0.3688    1.6831   -3.8742 H   0  0  0  0  0  0  0  0  0  0  0  0
    1.3325    1.8583   -2.4035 H   0  0  0  0  0  0  0  0  0  0  0  0
   -1.1476   -0.3947   -3.1614 C   0  0  0  0  0  0  0  0  0  0  0  0
   -1.9829   -0.8436   -2.6241 H   0  0  0  0  0  0  0  0  0  0  0  0
   -1.5432    0.1949   -3.9884 H   0  0  0  0  0  0  0  0  0  0  0  0
   -0.5075   -1.1844   -3.5562 H   0  0  0  0  0  0  0  0  0  0  0  0
   -0.7793    1.3659    0.6455 C   0  0  0  0  0  0  0  0  0  0  0  0
   -1.6464    2.0125    0.0623 O   0  0  0  0  0  0  0  0  0  0  0  0
    0.0189    1.9059    1.5756 N   0  0  0  0  0  0  0  0  0  0  0  0
    0.7024    1.3094    2.0137 H   0  0  0  0  0  0  0  0  0  0  0  0
   -0.0451    3.3046    1.9929 C   0  0  0  0  0  0  0  0  0  0  0  0
   -1.0415    3.5286    2.3805 H   0  0  0  0  0  0  0  0  0  0  0  0
    0.6954    3.5023    2.7695 H   0  0  0  0  0  0  0  0  0  0  0  0
    0.1474    3.9536    1.1372 H   0  0  0  0  0  0  0  0  0  0  0  0
  5  6  2  0  0  0  0
  5  7  1  0  0  0  0
  2  3  1  0  0  0  0
  2  4  1  0  0  0  0
  2  5  1  0  0  0  0
  1  2  1  0  0  0  0
 24 25  2  0  0  0  0
 24 26  1  0  0  0  0
 20 21  1  0  0  0  0
 20 22  1  0  0  0  0
 20 23  1  0  0  0  0
 16 17  1  0  0  0  0
 16 18  1  0  0  0  0
 16 19  1  0  0  0  0
 14 15  1  0  0  0  0
 14 16  1  0  0  0  0
 14 20  1  0  0  0  0
 11 12  1  0  0  0  0
 11 13  1  0  0  0  0
 11 14  1  0  0  0  0
  9 10  1  0  0  0  0
  9 11  1  0  0  0  0
  9 24  1  0  0  0  0
  7  8  1  0  0  0  0
  7  9  1  0  0  0  0
 28 29  1  0  0  0  0
 28 30  1  0  0  0  0
 28 31  1  0  0  0  0
 26 27  1  0  0  0  0
 26 28  1  0  0  0  0
M  END
$$$$
default_name
  -OEChem-02102213163D

 31 30  0     1  0  0  0  0  0999 V2000
   -3.5895   -3.5013    1.1082 H   0  0  0  0  0  0  0  0  0  0  0  0
   -3.5145   -2.5363    0.6082 C   0  0  0  0  0  0  0  0  0  0  0  0
   -4.2285   -1.8413    1.0452 H   0  0  0  0  0  0  0  0  0  0  0  0
   -3.7155   -2.6583   -0.4538 H   0  0  0  0  0  0  0  0  0  0  0  0
   -2.1155   -1.9963    0.7922 C   0  0  0  0  0  0  0  0  0  0  0  0
   -1.2875   -2.6383    1.4252 O   0  0  0  0  0  0  0  0  0  0  0  0
   -1.8575   -0.8123    0.2402 N   0  0  0  0  0  0  0  0  0  0  0  0
   -2.6005   -0.3333   -0.2478 H   0  0  0  0  0  0  0  0  0  0  0  0
   -0.5675   -0.1203    0.3102 C   0  0  1  0  0  0  0  0  0  0  0  0
    0.0191   -0.5718    1.1110 H   0  0  0  0  0  0  0  0  0  0  0  0
    0.1724   -0.3238   -1.0286 C   0  0  0  0  0  0  0  0  0  0  0  0
    1.2283   -0.0879   -0.8828 H   0  0  0  0  0  0  0  0  0  0  0  0
    0.1034   -1.3809   -1.2948 H   0  0  0  0  0  0  0  0  0  0  0  0
   -0.3519    0.5045   -2.2160 C   0  0  0  0  0  0  0  0  0  0  0  0
   -0.7937    1.4318   -1.8513 H   0  0  0  0  0  0  0  0  0  0  0  0
    0.7537    0.8409   -3.2207 C   0  0  0  0  0  0  0  0  0  0  0  0
    1.2171   -0.0777   -3.5831 H   0  0  0  0  0  0  0  0  0  0  0  0
    0.3293    1.3835   -4.0657 H   0  0  0  0  0  0  0  0  0  0  0  0
    1.5157    1.4650   -2.7588 H   0  0  0  0  0  0  0  0  0  0  0  0
   -1.4376   -0.2791   -2.9527 C   0  0  0  0  0  0  0  0  0  0  0  0
   -2.2549   -0.5055   -2.2681 H   0  0  0  0  0  0  0  0  0  0  0  0
   -1.8298    0.3164   -3.7771 H   0  0  0  0  0  0  0  0  0  0  0  0
   -1.0280   -1.2107   -3.3447 H   0  0  0  0  0  0  0  0  0  0  0  0
   -0.7793    1.3659    0.6455 C   0  0  0  0  0  0  0  0  0  0  0  0
   -1.6464    2.0125    0.0623 O   0  0  0  0  0  0  0  0  0  0  0  0
    0.0189    1.9059    1.5756 N   0  0  0  0  0  0  0  0  0  0  0  0
    0.7024    1.3094    2.0137 H   0  0  0  0  0  0  0  0  0  0  0  0
   -0.0451    3.3046    1.9929 C   0  0  0  0  0  0  0  0  0  0  0  0
   -1.0415    3.5286    2.3805 H   0  0  0  0  0  0  0  0  0  0  0  0
    0.6954    3.5023    2.7695 H   0  0  0  0  0  0  0  0  0  0  0  0
    0.1474    3.9536    1.1372 H   0  0  0  0  0  0  0  0  0  0  0  0
  5  6  2  0  0  0  0
  5  7  1  0  0  0  0
  2  3  1  0  0  0  0
  2  4  1  0  0  0  0
  2  5  1  0  0  0  0
  1  2  1  0  0  0  0
 24 25  2  0  0  0  0
 24 26  1  0  0  0  0
 20 21  1  0  0  0  0
 20 22  1  0  0  0  0
 20 23  1  0  0  0  0
 16 17  1  0  0  0  0
 16 18  1  0  0  0  0
 16 19  1  0  0  0  0
 14 15  1  0  0  0  0
 14 16  1  0  0  0  0
 14 20  1  0  0  0  0
 11 12  1  0  0  0  0
 11 13  1  0  0  0  0
 11 14  1  0  0  0  0
  9 10  1  0  0  0  0
  9 11  1  0  0  0  0
  9 24  1  0  0  0  0
  7  8  1  0  0  0  0
  7  9  1  0  0  0  0
 28 29  1  0  0  0  0
 28 30  1  0  0  0  0
 28 31  1  0  0  0  0
 26 27  1  0  0  0  0
 26 28  1  0  0  0  0
M  END
$$$$
default_name
  -OEChem-02102213163D

 31 30  0     1  0  0  0  0  0999 V2000
   -3.5895   -3.5013    1.1082 H   0  0  0  0  0  0  0  0  0  0  0  0
   -3.5145   -2.5363    0.6082 C   0  0  0  0  0  0  0  0  0  0  0  0
   -4.2285   -1.8413    1.0452 H   0  0  0  0  0  0  0  0  0  0  0  0
   -3.7155   -2.6583   -0.4538 H   0  0  0  0  0  0  0  0  0  0  0  0
   -2.1155   -1.9963    0.7922 C   0  0  0  0  0  0  0  0  0  0  0  0
   -1.2875   -2.6383    1.4252 O   0  0  0  0  0  0  0  0  0  0  0  0
   -1.8575   -0.8123    0.2402 N   0  0  0  0  0  0  0  0  0  0  0  0
   -2.6005   -0.3333   -0.2478 H   0  0  0  0  0  0  0  0  0  0  0  0
   -0.5675   -0.1203    0.3102 C   0  0  1  0  0  0  0  0  0  0  0  0
    0.0191   -0.5718    1.1110 H   0  0  0  0  0  0  0  0  0  0  0  0
    0.1724   -0.3238   -1.0286 C   0  0  0  0  0  0  0  0  0  0  0  0
    1.2283   -0.0879   -0.8828 H   0  0  0  0  0  0  0  0  0  0  0  0
    0.1034   -1.3809   -1.2948 H   0  0  0  0  0  0  0  0  0  0  0  0
   -0.3519    0.5045   -2.2160 C   0  0  0  0  0  0  0  0  0  0  0  0
   -0.5471    1.5273   -1.8936 H   0  0  0  0  0  0  0  0  0  0  0  0
    0.6366    0.5309   -3.3853 C   0  0  0  0  0  0  0  0  0  0  0  0
    0.8547   -0.4877   -3.7092 H   0  0  0  0  0  0  0  0  0  0  0  0
    0.2046    1.0852   -4.2188 H   0  0  0  0  0  0  0  0  0  0  0  0
    1.5647    1.0172   -3.0928 H   0  0  0  0  0  0  0  0  0  0  0  0
   -1.6656   -0.0912   -2.7209 C   0  0  0  0  0  0  0  0  0  0  0  0
   -2.4006   -0.0932   -1.9161 H   0  0  0  0  0  0  0  0  0  0  0  0
   -2.0530    0.5096   -3.5437 H   0  0  0  0  0  0  0  0  0  0  0  0
   -1.5065   -1.1135   -3.0656 H   0  0  0  0  0  0  0  0  0  0  0  0
   -0.7793    1.3659    0.6455 C   0  0  0  0  0  0  0  0  0  0  0  0
   -1.6464    2.0125    0.0623 O   0  0  0  0  0  0  0  0  0  0  0  0
    0.0189    1.9059    1.5756 N   0  0  0  0  0  0  0  0  0  0  0  0
    0.7024    1.3094    2.0137 H   0  0  0  0  0  0  0  0  0  0  0  0
   -0.0451    3.3046    1.9929 C   0  0  0  0  0  0  0  0  0  0  0  0
   -1.0415    3.5286    2.3805 H   0  0  0  0  0  0  0  0  0  0  0  0
    0.6954    3.5023    2.7695 H   0  0  0  0  0  0  0  0  0  0  0  0
    0.1474    3.9536    1.1372 H   0  0  0  0  0  0  0  0  0  0  0  0
  5  6  2  0  0  0  0
  5  7  1  0  0  0  0
  2  3  1  0  0  0  0
  2  4  1  0  0  0  0
  2  5  1  0  0  0  0
  1  2  1  0  0  0  0
 24 25  2  0  0  0  0
 24 26  1  0  0  0  0
 20 21  1  0  0  0  0
 20 22  1  0  0  0  0
 20 23  1  0  0  0  0
 16 17  1  0  0  0  0
 16 18  1  0  0  0  0
 16 19  1  0  0  0  0
 14 15  1  0  0  0  0
 14 16  1  0  0  0  0
 14 20  1  0  0  0  0
 11 12  1  0  0  0  0
 11 13  1  0  0  0  0
 11 14  1  0  0  0  0
  9 10  1  0  0  0  0
  9 11  1  0  0  0  0
  9 24  1  0  0  0  0
  7  8  1  0  0  0  0
  7  9  1  0  0  0  0
 28 29  1  0  0  0  0
 28 30  1  0  0  0  0
 28 31  1  0  0  0  0
 26 27  1  0  0  0  0
 26 28  1  0  0  0  0
M  END
$$$$
default_name
  -OEChem-02102213163D

 31 30  0     1  0  0  0  0  0999 V2000
   -3.5895   -3.5013    1.1082 H   0  0  0  0  0  0  0  0  0  0  0  0
   -3.5145   -2.5363    0.6082 C   0  0  0  0  0  0  0  0  0  0  0  0
   -4.2285   -1.8413    1.0452 H   0  0  0  0  0  0  0  0  0  0  0  0
   -3.7155   -2.6583   -0.4538 H   0  0  0  0  0  0  0  0  0  0  0  0
   -2.1155   -1.9963    0.7922 C   0  0  0  0  0  0  0  0  0  0  0  0
   -1.2875   -2.6383    1.4252 O   0  0  0  0  0  0  0  0  0  0  0  0
   -1.8575   -0.8123    0.2402 N   0  0  0  0  0  0  0  0  0  0  0  0
   -2.6005   -0.3333   -0.2478 H   0  0  0  0  0  0  0  0  0  0  0  0
   -0.5675   -0.1203    0.3102 C   0  0  1  0  0  0  0  0  0  0  0  0
    0.0191   -0.5718    1.1110 H   0  0  0  0  0  0  0  0  0  0  0  0
    0.1724   -0.3238   -1.0286 C   0  0  0  0  0  0  0  0  0  0  0  0
    1.2460   -0.3527   -0.8327 H   0  0  0  0  0  0  0  0  0  0  0  0
   -0.1170   -1.2979   -1.4292 H   0  0  0  0  0  0  0  0  0  0  0  0
   -0.0966    0.7383   -2.1104 C   0  0  0  0  0  0  0  0  0  0  0  0
    0.1828    1.7234   -1.7367 H   0  0  0  0  0  0  0  0  0  0  0  0
    0.6766    0.4581   -3.4023 C   0  0  0  0  0  0  0  0  0  0  0  0
    0.4194   -0.5322   -3.7806 H   0  0  0  0  0  0  0  0  0  0  0  0
    0.4187    1.2047   -4.1538 H   0  0  0  0  0  0  0  0  0  0  0  0
    1.7490    0.5036   -3.2258 H   0  0  0  0  0  0  0  0  0  0  0  0
   -1.5868    0.7656   -2.4479 C   0  0  0  0  0  0  0  0  0  0  0  0
   -2.1618    0.9952   -1.5508 H   0  0  0  0  0  0  0  0  0  0  0  0
   -1.7840    1.5358   -3.1935 H   0  0  0  0  0  0  0  0  0  0  0  0
   -1.9012   -0.2027   -2.8389 H   0  0  0  0  0  0  0  0  0  0  0  0
   -0.7793    1.3659    0.6455 C   0  0  0  0  0  0  0  0  0  0  0  0
   -1.6464    2.0125    0.0623 O   0  0  0  0  0  0  0  0  0  0  0  0
    0.0189    1.9059    1.5756 N   0  0  0  0  0  0  0  0  0  0  0  0
    0.7024    1.3094    2.0137 H   0  0  0  0  0  0  0  0  0  0  0  0
   -0.0451    3.3046    1.9929 C   0  0  0  0  0  0  0  0  0  0  0  0
   -1.0415    3.5286    2.3805 H   0  0  0  0  0  0  0  0  0  0  0  0
    0.6954    3.5023    2.7695 H   0  0  0  0  0  0  0  0  0  0  0  0
    0.1474    3.9536    1.1372 H   0  0  0  0  0  0  0  0  0  0  0  0
  5  6  2  0  0  0  0
  5  7  1  0  0  0  0
  2  3  1  0  0  0  0
  2  4  1  0  0  0  0
  2  5  1  0  0  0  0
  1  2  1  0  0  0  0
 24 25  2  0  0  0  0
 24 26  1  0  0  0  0
 20 21  1  0  0  0  0
 20 22  1  0  0  0  0
 20 23  1  0  0  0  0
 16 17  1  0  0  0  0
 16 18  1  0  0  0  0
 16 19  1  0  0  0  0
 14 15  1  0  0  0  0
 14 16  1  0  0  0  0
 14 20  1  0  0  0  0
 11 12  1  0  0  0  0
 11 13  1  0  0  0  0
 11 14  1  0  0  0  0
  9 10  1  0  0  0  0
  9 11  1  0  0  0  0
  9 24  1  0  0  0  0
  7  8  1  0  0  0  0
  7  9  1  0  0  0  0
 28 29  1  0  0  0  0
 28 30  1  0  0  0  0
 28 31  1  0  0  0  0
 26 27  1  0  0  0  0
 26 28  1  0  0  0  0
M  END
$$$$
default_name
  -OEChem-02102213163D

 31 30  0     1  0  0  0  0  0999 V2000
   -3.5895   -3.5013    1.1082 H   0  0  0  0  0  0  0  0  0  0  0  0
   -3.5145   -2.5363    0.6082 C   0  0  0  0  0  0  0  0  0  0  0  0
   -4.2285   -1.8413    1.0452 H   0  0  0  0  0  0  0  0  0  0  0  0
   -3.7155   -2.6583   -0.4538 H   0  0  0  0  0  0  0  0  0  0  0  0
   -2.1155   -1.9963    0.7922 C   0  0  0  0  0  0  0  0  0  0  0  0
   -1.2875   -2.6383    1.4252 O   0  0  0  0  0  0  0  0  0  0  0  0
   -1.8575   -0.8123    0.2402 N   0  0  0  0  0  0  0  0  0  0  0  0
   -2.6005   -0.3333   -0.2478 H   0  0  0  0  0  0  0  0  0  0  0  0
   -0.5675   -0.1203    0.3102 C   0  0  1  0  0  0  0  0  0  0  0  0
    0.0191   -0.5718    1.1110 H   0  0  0  0  0  0  0  0  0  0  0  0
    0.1724   -0.3238   -1.0286 C   0  0  0  0  0  0  0  0  0  0  0  0
    1.2460   -0.3527   -0.8327 H   0  0  0  0  0  0  0  0  0  0  0  0
   -0.1170   -1.2979   -1.4292 H   0  0  0  0  0  0  0  0  0  0  0  0
   -0.0966    0.7383   -2.1104 C   0  0  0  0  0  0  0  0  0  0  0  0
    0.4170    1.6646   -1.8527 H   0  0  0  0  0  0  0  0  0  0  0  0
    0.3651    0.2823   -3.4975 C   0  0  0  0  0  0  0  0  0  0  0  0
   -0.1286   -0.6534   -3.7633 H   0  0  0  0  0  0  0  0  0  0  0  0
    0.1112    1.0419   -4.2371 H   0  0  0  0  0  0  0  0  0  0  0  0
    1.4425    0.1326   -3.5138 H   0  0  0  0  0  0  0  0  0  0  0  0
   -1.5944    1.0326   -2.1839 C   0  0  0  0  0  0  0  0  0  0  0  0
   -1.9457    1.3907   -1.2163 H   0  0  0  0  0  0  0  0  0  0  0  0
   -1.7844    1.8043   -2.9299 H   0  0  0  0  0  0  0  0  0  0  0  0
   -2.1420    0.1288   -2.4536 H   0  0  0  0  0  0  0  0  0  0  0  0
   -0.7793    1.3659    0.6455 C   0  0  0  0  0  0  0  0  0  0  0  0
   -1.6464    2.0125    0.0623 O   0  0  0  0  0  0  0  0  0  0  0  0
    0.0189    1.9059    1.5756 N   0  0  0  0  0  0  0  0  0  0  0  0
    0.7024    1.3094    2.0137 H   0  0  0  0  0  0  0  0  0  0  0  0
   -0.0451    3.3046    1.9929 C   0  0  0  0  0  0  0  0  0  0  0  0
   -1.0415    3.5286    2.3805 H   0  0  0  0  0  0  0  0  0  0  0  0
    0.6954    3.5023    2.7695 H   0  0  0  0  0  0  0  0  0  0  0  0
    0.1474    3.9536    1.1372 H   0  0  0  0  0  0  0  0  0  0  0  0
  5  6  2  0  0  0  0
  5  7  1  0  0  0  0
  2  3  1  0  0  0  0
  2  4  1  0  0  0  0
  2  5  1  0  0  0  0
  1  2  1  0  0  0  0
 24 25  2  0  0  0  0
 24 26  1  0  0  0  0
 20 21  1  0  0  0  0
 20 22  1  0  0  0  0
 20 23  1  0  0  0  0
 16 17  1  0  0  0  0
 16 18  1  0  0  0  0
 16 19  1  0  0  0  0
 14 15  1  0  0  0  0
 14 16  1  0  0  0  0
 14 20  1  0  0  0  0
 11 12  1  0  0  0  0
 11 13  1  0  0  0  0
 11 14  1  0  0  0  0
  9 10  1  0  0  0  0
  9 11  1  0  0  0  0
  9 24  1  0  0  0  0
  7  8  1  0  0  0  0
  7  9  1  0  0  0  0
 28 29  1  0  0  0  0
 28 30  1  0  0  0  0
 28 31  1  0  0  0  0
 26 27  1  0  0  0  0
 26 28  1  0  0  0  0
M  END
$$$$
default_name
  -OEChem-02102213163D

 31 30  0     1  0  0  0  0  0999 V2000
   -3.5895   -3.5013    1.1082 H   0  0  0  0  0  0  0  0  0  0  0  0
   -3.5145   -2.5363    0.6082 C   0  0  0  0  0  0  0  0  0  0  0  0
   -4.2285   -1.8413    1.0452 H   0  0  0  0  0  0  0  0  0  0  0  0
   -3.7155   -2.6583   -0.4538 H   0  0  0  0  0  0  0  0  0  0  0  0
   -2.1155   -1.9963    0.7922 C   0  0  0  0  0  0  0  0  0  0  0  0
   -1.2875   -2.6383    1.4252 O   0  0  0  0  0  0  0  0  0  0  0  0
   -1.8575   -0.8123    0.2402 N   0  0  0  0  0  0  0  0  0  0  0  0
   -2.6005   -0.3333   -0.2478 H   0  0  0  0  0  0  0  0  0  0  0  0
   -0.5675   -0.1203    0.3102 C   0  0  1  0  0  0  0  0  0  0  0  0
    0.0191   -0.5718    1.1110 H   0  0  0  0  0  0  0  0  0  0  0  0
    0.1724   -0.3238   -1.0286 C   0  0  0  0  0  0  0  0  0  0  0  0
    1.2460   -0.3527   -0.8327 H   0  0  0  0  0  0  0  0  0  0  0  0
   -0.1170   -1.2979   -1.4292 H   0  0  0  0  0  0  0  0  0  0  0  0
   -0.0966    0.7383   -2.1104 C   0  0  0  0  0  0  0  0  0  0  0  0
    0.6117    1.5599   -2.0038 H   0  0  0  0  0  0  0  0  0  0  0  0
    0.0154    0.1647   -3.5259 C   0  0  0  0  0  0  0  0  0  0  0  0
   -0.6769   -0.6701   -3.6433 H   0  0  0  0  0  0  0  0  0  0  0  0
   -0.2303    0.9368   -4.2554 H   0  0  0  0  0  0  0  0  0  0  0  0
    1.0276   -0.1830   -3.7206 H   0  0  0  0  0  0  0  0  0  0  0  0
   -1.5061    1.3037   -1.9397 C   0  0  0  0  0  0  0  0  0  0  0  0
   -1.6052    1.7486   -0.9496 H   0  0  0  0  0  0  0  0  0  0  0  0
   -1.6890    2.0756   -2.6872 H   0  0  0  0  0  0  0  0  0  0  0  0
   -2.2454    0.5102   -2.0534 H   0  0  0  0  0  0  0  0  0  0  0  0
   -0.7793    1.3659    0.6455 C   0  0  0  0  0  0  0  0  0  0  0  0
   -1.6464    2.0125    0.0623 O   0  0  0  0  0  0  0  0  0  0  0  0
    0.0189    1.9059    1.5756 N   0  0  0  0  0  0  0  0  0  0  0  0
    0.7024    1.3094    2.0137 H   0  0  0  0  0  0  0  0  0  0  0  0
   -0.0451    3.3046    1.9929 C   0  0  0  0  0  0  0  0  0  0  0  0
   -1.0415    3.5286    2.3805 H   0  0  0  0  0  0  0  0  0  0  0  0
    0.6954    3.5023    2.7695 H   0  0  0  0  0  0  0  0  0  0  0  0
    0.1474    3.9536    1.1372 H   0  0  0  0  0  0  0  0  0  0  0  0
  5  6  2  0  0  0  0
  5  7  1  0  0  0  0
  2  3  1  0  0  0  0
  2  4  1  0  0  0  0
  2  5  1  0  0  0  0
  1  2  1  0  0  0  0
 24 25  2  0  0  0  0
 24 26  1  0  0  0  0
 20 21  1  0  0  0  0
 20 22  1  0  0  0  0
 20 23  1  0  0  0  0
 16 17  1  0  0  0  0
 16 18  1  0  0  0  0
 16 19  1  0  0  0  0
 14 15  1  0  0  0  0
 14 16  1  0  0  0  0
 14 20  1  0  0  0  0
 11 12  1  0  0  0  0
 11 13  1  0  0  0  0
 11 14  1  0  0  0  0
  9 10  1  0  0  0  0
  9 11  1  0  0  0  0
  9 24  1  0  0  0  0
  7  8  1  0  0  0  0
  7  9  1  0  0  0  0
 28 29  1  0  0  0  0
 28 30  1  0  0  0  0
 28 31  1  0  0  0  0
 26 27  1  0  0  0  0
 26 28  1  0  0  0  0
M  END
$$$$
default_name
  -OEChem-02102213163D

 31 30  0     1  0  0  0  0  0999 V2000
   -3.5895   -3.5013    1.1082 H   0  0  0  0  0  0  0  0  0  0  0  0
   -3.5145   -2.5363    0.6082 C   0  0  0  0  0  0  0  0  0  0  0  0
   -4.2285   -1.8413    1.0452 H   0  0  0  0  0  0  0  0  0  0  0  0
   -3.7155   -2.6583   -0.4538 H   0  0  0  0  0  0  0  0  0  0  0  0
   -2.1155   -1.9963    0.7922 C   0  0  0  0  0  0  0  0  0  0  0  0
   -1.2875   -2.6383    1.4252 O   0  0  0  0  0  0  0  0  0  0  0  0
   -1.8575   -0.8123    0.2402 N   0  0  0  0  0  0  0  0  0  0  0  0
   -2.6005   -0.3333   -0.2478 H   0  0  0  0  0  0  0  0  0  0  0  0
   -0.5675   -0.1203    0.3102 C   0  0  1  0  0  0  0  0  0  0  0  0
    0.0191   -0.5718    1.1110 H   0  0  0  0  0  0  0  0  0  0  0  0
    0.1724   -0.3238   -1.0286 C   0  0  0  0  0  0  0  0  0  0  0  0
    1.2460   -0.3527   -0.8327 H   0  0  0  0  0  0  0  0  0  0  0  0
   -0.1170   -1.2979   -1.4292 H   0  0  0  0  0  0  0  0  0  0  0  0
   -0.0966    0.7383   -2.1104 C   0  0  0  0  0  0  0  0  0  0  0  0
    0.7539    1.4166   -2.1799 H   0  0  0  0  0  0  0  0  0  0  0  0
   -0.3489    0.1135   -3.4856 C   0  0  0  0  0  0  0  0  0  0  0  0
   -1.1882   -0.5810   -3.4287 H   0  0  0  0  0  0  0  0  0  0  0  0
   -0.5825    0.8966   -4.2074 H   0  0  0  0  0  0  0  0  0  0  0  0
    0.5325   -0.4218   -3.8319 H   0  0  0  0  0  0  0  0  0  0  0  0
   -1.3278    1.5606   -1.7318 C   0  0  0  0  0  0  0  0  0  0  0  0
   -1.1637    2.0444   -0.7689 H   0  0  0  0  0  0  0  0  0  0  0  0
   -1.5041    2.3312   -2.4822 H   0  0  0  0  0  0  0  0  0  0  0  0
   -2.2046    0.9155   -1.6656 H   0  0  0  0  0  0  0  0  0  0  0  0
   -0.7793    1.3659    0.6455 C   0  0  0  0  0  0  0  0  0  0  0  0
   -1.6464    2.0125    0.0623 O   0  0  0  0  0  0  0  0  0  0  0  0
    0.0189    1.9059    1.5756 N   0  0  0  0  0  0  0  0  0  0  0  0
    0.7024    1.3094    2.0137 H   0  0  0  0  0  0  0  0  0  0  0  0
   -0.0451    3.3046    1.9929 C   0  0  0  0  0  0  0  0  0  0  0  0
   -1.0415    3.5286    2.3805 H   0  0  0  0  0  0  0  0  0  0  0  0
    0.6954    3.5023    2.7695 H   0  0  0  0  0  0  0  0  0  0  0  0
    0.1474    3.9536    1.1372 H   0  0  0  0  0  0  0  0  0  0  0  0
  5  6  2  0  0  0  0
  5  7  1  0  0  0  0
  2  3  1  0  0  0  0
  2  4  1  0  0  0  0
  2  5  1  0  0  0  0
  1  2  1  0  0  0  0
 24 25  2  0  0  0  0
 24 26  1  0  0  0  0
 20 21  1  0  0  0  0
 20 22  1  0  0  0  0
 20 23  1  0  0  0  0
 16 17  1  0  0  0  0
 16 18  1  0  0  0  0
 16 19  1  0  0  0  0
 14 15  1  0  0  0  0
 14 16  1  0  0  0  0
 14 20  1  0  0  0  0
 11 12  1  0  0  0  0
 11 13  1  0  0  0  0
 11 14  1  0  0  0  0
  9 10  1  0  0  0  0
  9 11  1  0  0  0  0
  9 24  1  0  0  0  0
  7  8  1  0  0  0  0
  7  9  1  0  0  0  0
 28 29  1  0  0  0  0
 28 30  1  0  0  0  0
 28 31  1  0  0  0  0
 26 27  1  0  0  0  0
 26 28  1  0  0  0  0
M  END
$$$$
default_name
  -OEChem-02102213163D

 31 30  0     1  0  0  0  0  0999 V2000
   -3.5895   -3.5013    1.1082 H   0  0  0  0  0  0  0  0  0  0  0  0
   -3.5145   -2.5363    0.6082 C   0  0  0  0  0  0  0  0  0  0  0  0
   -4.2285   -1.8413    1.0452 H   0  0  0  0  0  0  0  0  0  0  0  0
   -3.7155   -2.6583   -0.4538 H   0  0  0  0  0  0  0  0  0  0  0  0
   -2.1155   -1.9963    0.7922 C   0  0  0  0  0  0  0  0  0  0  0  0
   -1.2875   -2.6383    1.4252 O   0  0  0  0  0  0  0  0  0  0  0  0
   -1.8575   -0.8123    0.2402 N   0  0  0  0  0  0  0  0  0  0  0  0
   -2.6005   -0.3333   -0.2478 H   0  0  0  0  0  0  0  0  0  0  0  0
   -0.5675   -0.1203    0.3102 C   0  0  1  0  0  0  0  0  0  0  0  0
    0.0191   -0.5718    1.1110 H   0  0  0  0  0  0  0  0  0  0  0  0
    0.1724   -0.3238   -1.0286 C   0  0  0  0  0  0  0  0  0  0  0  0
    1.2460   -0.3527   -0.8327 H   0  0  0  0  0  0  0  0  0  0  0  0
   -0.1170   -1.2979   -1.4292 H   0  0  0  0  0  0  0  0  0  0  0  0
   -0.0966    0.7383   -2.1104 C   0  0  0  0  0  0  0  0  0  0  0  0
    0.8336    1.2443   -2.3688 H   0  0  0  0  0  0  0  0  0  0  0  0
   -0.7029    0.1322   -3.3794 C   0  0  0  0  0  0  0  0  0  0  0  0
   -1.6275   -0.3923   -3.1342 H   0  0  0  0  0  0  0  0  0  0  0  0
   -0.9215    0.9240   -4.0962 H   0  0  0  0  0  0  0  0  0  0  0  0
   -0.0090   -0.5675   -3.8403 H   0  0  0  0  0  0  0  0  0  0  0  0
   -1.0718    1.7857   -1.5744 C   0  0  0  0  0  0  0  0  0  0  0  0
   -0.6512    2.2580   -0.6866 H   0  0  0  0  0  0  0  0  0  0  0  0
   -1.2424    2.5538   -2.3287 H   0  0  0  0  0  0  0  0  0  0  0  0
   -2.0222    1.3170   -1.3167 H   0  0  0  0  0  0  0  0  0  0  0  0
   -0.7793    1.3659    0.6455 C   0  0  0  0  0  0  0  0  0  0  0  0
   -1.6464    2.0125    0.0623 O   0  0  0  0  0  0  0  0  0  0  0  0
    0.0189    1.9059    1.5756 N   0  0  0  0  0  0  0  0  0  0  0  0
    0.7024    1.3094    2.0137 H   0  0  0  0  0  0  0  0  0  0  0  0
   -0.0451    3.3046    1.9929 C   0  0  0  0  0  0  0  0  0  0  0  0
   -1.0415    3.5286    2.3805 H   0  0  0  0  0  0  0  0  0  0  0  0
    0.6954    3.5023    2.7695 H   0  0  0  0  0  0  0  0  0  0  0  0
    0.1474    3.9536    1.1372 H   0  0  0  0  0  0  0  0  0  0  0  0
  5  6  2  0  0  0  0
  5  7  1  0  0  0  0
  2  3  1  0  0  0  0
  2  4  1  0  0  0  0
  2  5  1  0  0  0  0
  1  2  1  0  0  0  0
 24 25  2  0  0  0  0
 24 26  1  0  0  0  0
 20 21  1  0  0  0  0
 20 22  1  0  0  0  0
 20 23  1  0  0  0  0
 16 17  1  0  0  0  0
 16 18  1  0  0  0  0
 16 19  1  0  0  0  0
 14 15  1  0  0  0  0
 14 16  1  0  0  0  0
 14 20  1  0  0  0  0
 11 12  1  0  0  0  0
 11 13  1  0  0  0  0
 11 14  1  0  0  0  0
  9 10  1  0  0  0  0
  9 11  1  0  0  0  0
  9 24  1  0  0  0  0
  7  8  1  0  0  0  0
  7  9  1  0  0  0  0
 28 29  1  0  0  0  0
 28 30  1  0  0  0  0
 28 31  1  0  0  0  0
 26 27  1  0  0  0  0
 26 28  1  0  0  0  0
M  END
$$$$
default_name
  -OEChem-02102213163D

 31 30  0     1  0  0  0  0  0999 V2000
   -3.5895   -3.5013    1.1082 H   0  0  0  0  0  0  0  0  0  0  0  0
   -3.5145   -2.5363    0.6082 C   0  0  0  0  0  0  0  0  0  0  0  0
   -4.2285   -1.8413    1.0452 H   0  0  0  0  0  0  0  0  0  0  0  0
   -3.7155   -2.6583   -0.4538 H   0  0  0  0  0  0  0  0  0  0  0  0
   -2.1155   -1.9963    0.7922 C   0  0  0  0  0  0  0  0  0  0  0  0
   -1.2875   -2.6383    1.4252 O   0  0  0  0  0  0  0  0  0  0  0  0
   -1.8575   -0.8123    0.2402 N   0  0  0  0  0  0  0  0  0  0  0  0
   -2.6005   -0.3333   -0.2478 H   0  0  0  0  0  0  0  0  0  0  0  0
   -0.5675   -0.1203    0.3102 C   0  0  1  0  0  0  0  0  0  0  0  0
    0.0191   -0.5718    1.1110 H   0  0  0  0  0  0  0  0  0  0  0  0
    0.1724   -0.3238   -1.0286 C   0  0  0  0  0  0  0  0  0  0  0  0
    1.2460   -0.3527   -0.8327 H   0  0  0  0  0  0  0  0  0  0  0  0
   -0.1170   -1.2979   -1.4292 H   0  0  0  0  0  0  0  0  0  0  0  0
   -0.0966    0.7383   -2.1104 C   0  0  0  0  0  0  0  0  0  0  0  0
    0.8456    1.0549   -2.5578 H   0  0  0  0  0  0  0  0  0  0  0  0
   -1.0225    0.2193   -3.2143 C   0  0  0  0  0  0  0  0  0  0  0  0
   -1.9649   -0.1168   -2.7798 H   0  0  0  0  0  0  0  0  0  0  0  0
   -1.2241    1.0170   -3.9296 H   0  0  0  0  0  0  0  0  0  0  0  0
   -0.5601   -0.6101   -3.7451 H   0  0  0  0  0  0  0  0  0  0  0  0
   -0.7555    1.9637   -1.4782 C   0  0  0  0  0  0  0  0  0  0  0  0
   -0.1026    2.3748   -0.7083 H   0  0  0  0  0  0  0  0  0  0  0  0
   -0.9217    2.7282   -2.2372 H   0  0  0  0  0  0  0  0  0  0  0  0
   -1.7107    1.6875   -1.0303 H   0  0  0  0  0  0  0  0  0  0  0  0
   -0.7793    1.3659    0.6455 C   0  0  0  0  0  0  0  0  0  0  0  0
   -1.6464    2.0125    0.0623 O   0  0  0  0  0  0  0  0  0  0  0  0
    0.0189    1.9059    1.5756 N   0  0  0  0  0  0  0  0  0  0  0  0
    0.7024    1.3094    2.0137 H   0  0  0  0  0  0  0  0  0  0  0  0
   -0.0451    3.3046    1.9929 C   0  0  0  0  0  0  0  0  0  0  0  0
   -1.0415    3.5286    2.3805 H   0  0  0  0  0  0  0  0  0  0  0  0
    0.6954    3.5023    2.7695 H   0  0  0  0  0  0  0  0  0  0  0  0
    0.1474    3.9536    1.1372 H   0  0  0  0  0  0  0  0  0  0  0  0
  5  6  2  0  0  0  0
  5  7  1  0  0  0  0
  2  3  1  0  0  0  0
  2  4  1  0  0  0  0
  2  5  1  0  0  0  0
  1  2  1  0  0  0  0
 24 25  2  0  0  0  0
 24 26  1  0  0  0  0
 20 21  1  0  0  0  0
 20 22  1  0  0  0  0
 20 23  1  0  0  0  0
 16 17  1  0  0  0  0
 16 18  1  0  0  0  0
 16 19  1  0  0  0  0
 14 15  1  0  0  0  0
 14 16  1  0  0  0  0
 14 20  1  0  0  0  0
 11 12  1  0  0  0  0
 11 13  1  0  0  0  0
 11 14  1  0  0  0  0
  9 10  1  0  0  0  0
  9 11  1  0  0  0  0
  9 24  1  0  0  0  0
  7  8  1  0  0  0  0
  7  9  1  0  0  0  0
 28 29  1  0  0  0  0
 28 30  1  0  0  0  0
 28 31  1  0  0  0  0
 26 27  1  0  0  0  0
 26 28  1  0  0  0  0
M  END
$$$$
default_name
  -OEChem-02102213163D

 31 30  0     1  0  0  0  0  0999 V2000
   -3.5895   -3.5013    1.1082 H   0  0  0  0  0  0  0  0  0  0  0  0
   -3.5145   -2.5363    0.6082 C   0  0  0  0  0  0  0  0  0  0  0  0
   -4.2285   -1.8413    1.0452 H   0  0  0  0  0  0  0  0  0  0  0  0
   -3.7155   -2.6583   -0.4538 H   0  0  0  0  0  0  0  0  0  0  0  0
   -2.1155   -1.9963    0.7922 C   0  0  0  0  0  0  0  0  0  0  0  0
   -1.2875   -2.6383    1.4252 O   0  0  0  0  0  0  0  0  0  0  0  0
   -1.8575   -0.8123    0.2402 N   0  0  0  0  0  0  0  0  0  0  0  0
   -2.6005   -0.3333   -0.2478 H   0  0  0  0  0  0  0  0  0  0  0  0
   -0.5675   -0.1203    0.3102 C   0  0  1  0  0  0  0  0  0  0  0  0
    0.0191   -0.5718    1.1110 H   0  0  0  0  0  0  0  0  0  0  0  0
    0.1724   -0.3238   -1.0286 C   0  0  0  0  0  0  0  0  0  0  0  0
    1.2460   -0.3527   -0.8327 H   0  0  0  0  0  0  0  0  0  0  0  0
   -0.1170   -1.2979   -1.4292 H   0  0  0  0  0  0  0  0  0  0  0  0
   -0.0966    0.7383   -2.1104 C   0  0  0  0  0  0  0  0  0  0  0  0
    0.7890    0.8612   -2.7339 H   0  0  0  0  0  0  0  0  0  0  0  0
   -1.2858    0.3691   -3.0018 C   0  0  0  0  0  0  0  0  0  0  0  0
   -2.1775    0.2267   -2.3897 H   0  0  0  0  0  0  0  0  0  0  0  0
   -1.4697    1.1695   -3.7188 H   0  0  0  0  0  0  0  0  0  0  0  0
   -1.0832   -0.5467   -3.5529 H   0  0  0  0  0  0  0  0  0  0  0  0
   -0.4004    2.0825   -1.4499 C   0  0  0  0  0  0  0  0  0  0  0  0
    0.4446    2.3870   -0.8324 H   0  0  0  0  0  0  0  0  0  0  0  0
   -0.5640    2.8425   -2.2140 H   0  0  0  0  0  0  0  0  0  0  0  0
   -1.2913    2.0017   -0.8261 H   0  0  0  0  0  0  0  0  0  0  0  0
   -0.7793    1.3659    0.6455 C   0  0  0  0  0  0  0  0  0  0  0  0
   -1.6464    2.0125    0.0623 O   0  0  0  0  0  0  0  0  0  0  0  0
    0.0189    1.9059    1.5756 N   0  0  0  0  0  0  0  0  0  0  0  0
    0.7024    1.3094    2.0137 H   0  0  0  0  0  0  0  0  0  0  0  0
   -0.0451    3.3046    1.9929 C   0  0  0  0  0  0  0  0  0  0  0  0
   -1.0415    3.5286    2.3805 H   0  0  0  0  0  0  0  0  0  0  0  0
    0.6954    3.5023    2.7695 H   0  0  0  0  0  0  0  0  0  0  0  0
    0.1474    3.9536    1.1372 H   0  0  0  0  0  0  0  0  0  0  0  0
  5  6  2  0  0  0  0
  5  7  1  0  0  0  0
  2  3  1  0  0  0  0
  2  4  1  0  0  0  0
  2  5  1  0  0  0  0
  1  2  1  0  0  0  0
 24 25  2  0  0  0  0
 24 26  1  0  0  0  0
 20 21  1  0  0  0  0
 20 22  1  0  0  0  0
 20 23  1  0  0  0  0
 16 17  1  0  0  0  0
 16 18  1  0  0  0  0
 16 19  1  0  0  0  0
 14 15  1  0  0  0  0
 14 16  1  0  0  0  0
 14 20  1  0  0  0  0
 11 12  1  0  0  0  0
 11 13  1  0  0  0  0
 11 14  1  0  0  0  0
  9 10  1  0  0  0  0
  9 11  1  0  0  0  0
  9 24  1  0  0  0  0
  7  8  1  0  0  0  0
  7  9  1  0  0  0  0
 28 29  1  0  0  0  0
 28 30  1  0  0  0  0
 28 31  1  0  0  0  0
 26 27  1  0  0  0  0
 26 28  1  0  0  0  0
M  END
$$$$
default_name
  -OEChem-02102213163D

 31 30  0     1  0  0  0  0  0999 V2000
   -3.5895   -3.5013    1.1082 H   0  0  0  0  0  0  0  0  0  0  0  0
   -3.5145   -2.5363    0.6082 C   0  0  0  0  0  0  0  0  0  0  0  0
   -4.2285   -1.8413    1.0452 H   0  0  0  0  0  0  0  0  0  0  0  0
   -3.7155   -2.6583   -0.4538 H   0  0  0  0  0  0  0  0  0  0  0  0
   -2.1155   -1.9963    0.7922 C   0  0  0  0  0  0  0  0  0  0  0  0
   -1.2875   -2.6383    1.4252 O   0  0  0  0  0  0  0  0  0  0  0  0
   -1.8575   -0.8123    0.2402 N   0  0  0  0  0  0  0  0  0  0  0  0
   -2.6005   -0.3333   -0.2478 H   0  0  0  0  0  0  0  0  0  0  0  0
   -0.5675   -0.1203    0.3102 C   0  0  1  0  0  0  0  0  0  0  0  0
    0.0191   -0.5718    1.1110 H   0  0  0  0  0  0  0  0  0  0  0  0
    0.1724   -0.3238   -1.0286 C   0  0  0  0  0  0  0  0  0  0  0  0
    1.2460   -0.3527   -0.8327 H   0  0  0  0  0  0  0  0  0  0  0  0
   -0.1170   -1.2979   -1.4292 H   0  0  0  0  0  0  0  0  0  0  0  0
   -0.0966    0.7383   -2.1104 C   0  0  0  0  0  0  0  0  0  0  0  0
    0.6677    0.6765   -2.8851 H   0  0  0  0  0  0  0  0  0  0  0  0
   -1.4751    0.5712   -2.7563 C   0  0  0  0  0  0  0  0  0  0  0  0
   -2.2507    0.6148   -1.9905 H   0  0  0  0  0  0  0  0  0  0  0  0
   -1.6416    1.3710   -3.4783 H   0  0  0  0  0  0  0  0  0  0  0  0
   -1.5425   -0.3817   -3.2766 H   0  0  0  0  0  0  0  0  0  0  0  0
   -0.0308    2.1340   -1.4913 C   0  0  0  0  0  0  0  0  0  0  0  0
    0.9533    2.2936   -1.0506 H   0  0  0  0  0  0  0  0  0  0  0  0
   -0.1935    2.8888   -2.2606 H   0  0  0  0  0  0  0  0  0  0  0  0
   -0.7926    2.2382   -0.7180 H   0  0  0  0  0  0  0  0  0  0  0  0
   -0.7793    1.3659    0.6455 C   0  0  0  0  0  0  0  0  0  0  0  0
   -1.6464    2.0125    0.0623 O   0  0  0  0  0  0  0  0  0  0  0  0
    0.0189    1.9059    1.5756 N   0  0  0  0  0  0  0  0  0  0  0  0
    0.7024    1.3094    2.0137 H   0  0  0  0  0  0  0  0  0  0  0  0
   -0.0451    3.3046    1.9929 C   0  0  0  0  0  0  0  0  0  0  0  0
   -1.0415    3.5286    2.3805 H   0  0  0  0  0  0  0  0  0  0  0  0
    0.6954    3.5023    2.7695 H   0  0  0  0  0  0  0  0  0  0  0  0
    0.1474    3.9536    1.1372 H   0  0  0  0  0  0  0  0  0  0  0  0
  5  6  2  0  0  0  0
  5  7  1  0  0  0  0
  2  3  1  0  0  0  0
  2  4  1  0  0  0  0
  2  5  1  0  0  0  0
  1  2  1  0  0  0  0
 24 25  2  0  0  0  0
 24 26  1  0  0  0  0
 20 21  1  0  0  0  0
 20 22  1  0  0  0  0
 20 23  1  0  0  0  0
 16 17  1  0  0  0  0
 16 18  1  0  0  0  0
 16 19  1  0  0  0  0
 14 15  1  0  0  0  0
 14 16  1  0  0  0  0
 14 20  1  0  0  0  0
 11 12  1  0  0  0  0
 11 13  1  0  0  0  0
 11 14  1  0  0  0  0
  9 10  1  0  0  0  0
  9 11  1  0  0  0  0
  9 24  1  0  0  0  0
  7  8  1  0  0  0  0
  7  9  1  0  0  0  0
 28 29  1  0  0  0  0
 28 30  1  0  0  0  0
 28 31  1  0  0  0  0
 26 27  1  0  0  0  0
 26 28  1  0  0  0  0
M  END
$$$$
default_name
  -OEChem-02102213163D

 31 30  0     1  0  0  0  0  0999 V2000
   -3.5895   -3.5013    1.1082 H   0  0  0  0  0  0  0  0  0  0  0  0
   -3.5145   -2.5363    0.6082 C   0  0  0  0  0  0  0  0  0  0  0  0
   -4.2285   -1.8413    1.0452 H   0  0  0  0  0  0  0  0  0  0  0  0
   -3.7155   -2.6583   -0.4538 H   0  0  0  0  0  0  0  0  0  0  0  0
   -2.1155   -1.9963    0.7922 C   0  0  0  0  0  0  0  0  0  0  0  0
   -1.2875   -2.6383    1.4252 O   0  0  0  0  0  0  0  0  0  0  0  0
   -1.8575   -0.8123    0.2402 N   0  0  0  0  0  0  0  0  0  0  0  0
   -2.6005   -0.3333   -0.2478 H   0  0  0  0  0  0  0  0  0  0  0  0
   -0.5675   -0.1203    0.3102 C   0  0  1  0  0  0  0  0  0  0  0  0
    0.0191   -0.5718    1.1110 H   0  0  0  0  0  0  0  0  0  0  0  0
    0.1724   -0.3238   -1.0286 C   0  0  0  0  0  0  0  0  0  0  0  0
    1.2460   -0.3527   -0.8327 H   0  0  0  0  0  0  0  0  0  0  0  0
   -0.1170   -1.2979   -1.4292 H   0  0  0  0  0  0  0  0  0  0  0  0
   -0.0966    0.7383   -2.1104 C   0  0  0  0  0  0  0  0  0  0  0  0
    0.4899    0.5132   -3.0012 H   0  0  0  0  0  0  0  0  0  0  0  0
   -1.5772    0.8120   -2.4945 C   0  0  0  0  0  0  0  0  0  0  0  0
   -2.1796    1.0210   -1.6094 H   0  0  0  0  0  0  0  0  0  0  0  0
   -1.7281    1.6077   -3.2243 H   0  0  0  0  0  0  0  0  0  0  0  0
   -1.9069   -0.1263   -2.9353 H   0  0  0  0  0  0  0  0  0  0  0  0
    0.3283    2.1146   -1.5996 C   0  0  0  0  0  0  0  0  0  0  0  0
    1.3887    2.1010   -1.3480 H   0  0  0  0  0  0  0  0  0  0  0  0
    0.1645    2.8641   -2.3738 H   0  0  0  0  0  0  0  0  0  0  0  0
   -0.2486    2.3808   -0.7132 H   0  0  0  0  0  0  0  0  0  0  0  0
   -0.7793    1.3659    0.6455 C   0  0  0  0  0  0  0  0  0  0  0  0
   -1.6464    2.0125    0.0623 O   0  0  0  0  0  0  0  0  0  0  0  0
    0.0189    1.9059    1.5756 N   0  0  0  0  0  0  0  0  0  0  0  0
    0.7024    1.3094    2.0137 H   0  0  0  0  0  0  0  0  0  0  0  0
   -0.0451    3.3046    1.9929 C   0  0  0  0  0  0  0  0  0  0  0  0
   -1.0415    3.5286    2.3805 H   0  0  0  0  0  0  0  0  0  0  0  0
    0.6954    3.5023    2.7695 H   0  0  0  0  0  0  0  0  0  0  0  0
    0.1474    3.9536    1.1372 H   0  0  0  0  0  0  0  0  0  0  0  0
  5  6  2  0  0  0  0
  5  7  1  0  0  0  0
  2  3  1  0  0  0  0
  2  4  1  0  0  0  0
  2  5  1  0  0  0  0
  1  2  1  0  0  0  0
 24 25  2  0  0  0  0
 24 26  1  0  0  0  0
 20 21  1  0  0  0  0
 20 22  1  0  0  0  0
 20 23  1  0  0  0  0
 16 17  1  0  0  0  0
 16 18  1  0  0  0  0
 16 19  1  0  0  0  0
 14 15  1  0  0  0  0
 14 16  1  0  0  0  0
 14 20  1  0  0  0  0
 11 12  1  0  0  0  0
 11 13  1  0  0  0  0
 11 14  1  0  0  0  0
  9 10  1  0  0  0  0
  9 11  1  0  0  0  0
  9 24  1  0  0  0  0
  7  8  1  0  0  0  0
  7  9  1  0  0  0  0
 28 29  1  0  0  0  0
 28 30  1  0  0  0  0
 28 31  1  0  0  0  0
 26 27  1  0  0  0  0
 26 28  1  0  0  0  0
M  END
$$$$
default_name
  -OEChem-02102213163D

 31 30  0     1  0  0  0  0  0999 V2000
   -3.5895   -3.5013    1.1082 H   0  0  0  0  0  0  0  0  0  0  0  0
   -3.5145   -2.5363    0.6082 C   0  0  0  0  0  0  0  0  0  0  0  0
   -4.2285   -1.8413    1.0452 H   0  0  0  0  0  0  0  0  0  0  0  0
   -3.7155   -2.6583   -0.4538 H   0  0  0  0  0  0  0  0  0  0  0  0
   -2.1155   -1.9963    0.7922 C   0  0  0  0  0  0  0  0  0  0  0  0
   -1.2875   -2.6383    1.4252 O   0  0  0  0  0  0  0  0  0  0  0  0
   -1.8575   -0.8123    0.2402 N   0  0  0  0  0  0  0  0  0  0  0  0
   -2.6005   -0.3333   -0.2478 H   0  0  0  0  0  0  0  0  0  0  0  0
   -0.5675   -0.1203    0.3102 C   0  0  1  0  0  0  0  0  0  0  0  0
    0.0191   -0.5718    1.1110 H   0  0  0  0  0  0  0  0  0  0  0  0
    0.1724   -0.3238   -1.0286 C   0  0  0  0  0  0  0  0  0  0  0  0
    1.2460   -0.3527   -0.8327 H   0  0  0  0  0  0  0  0  0  0  0  0
   -0.1170   -1.2979   -1.4292 H   0  0  0  0  0  0  0  0  0  0  0  0
   -0.0966    0.7383   -2.1104 C   0  0  0  0  0  0  0  0  0  0  0  0
    0.2677    0.3826   -3.0742 H   0  0  0  0  0  0  0  0  0  0  0  0
   -1.5854    1.0750   -2.2342 C   0  0  0  0  0  0  0  0  0  0  0  0
   -1.9690    1.4176   -1.2723 H   0  0  0  0  0  0  0  0  0  0  0  0
   -1.7232    1.8636   -2.9743 H   0  0  0  0  0  0  0  0  0  0  0  0
   -2.1515    0.2021   -2.5520 H   0  0  0  0  0  0  0  0  0  0  0  0
    0.6522    2.0256   -1.7675 C   0  0  0  0  0  0  0  0  0  0  0  0
    1.7211    1.8223   -1.7042 H   0  0  0  0  0  0  0  0  0  0  0  0
    0.4856    2.7700   -2.5460 H   0  0  0  0  0  0  0  0  0  0  0  0
    0.3036    2.4198   -0.8122 H   0  0  0  0  0  0  0  0  0  0  0  0
   -0.7793    1.3659    0.6455 C   0  0  0  0  0  0  0  0  0  0  0  0
   -1.6464    2.0125    0.0623 O   0  0  0  0  0  0  0  0  0  0  0  0
    0.0189    1.9059    1.5756 N   0  0  0  0  0  0  0  0  0  0  0  0
    0.7024    1.3094    2.0137 H   0  0  0  0  0  0  0  0  0  0  0  0
   -0.0451    3.3046    1.9929 C   0  0  0  0  0  0  0  0  0  0  0  0
   -1.0415    3.5286    2.3805 H   0  0  0  0  0  0  0  0  0  0  0  0
    0.6954    3.5023    2.7695 H   0  0  0  0  0  0  0  0  0  0  0  0
    0.1474    3.9536    1.1372 H   0  0  0  0  0  0  0  0  0  0  0  0
  5  6  2  0  0  0  0
  5  7  1  0  0  0  0
  2  3  1  0  0  0  0
  2  4  1  0  0  0  0
  2  5  1  0  0  0  0
  1  2  1  0  0  0  0
 24 25  2  0  0  0  0
 24 26  1  0  0  0  0
 20 21  1  0  0  0  0
 20 22  1  0  0  0  0
 20 23  1  0  0  0  0
 16 17  1  0  0  0  0
 16 18  1  0  0  0  0
 16 19  1  0  0  0  0
 14 15  1  0  0  0  0
 14 16  1  0  0  0  0
 14 20  1  0  0  0  0
 11 12  1  0  0  0  0
 11 13  1  0  0  0  0
 11 14  1  0  0  0  0
  9 10  1  0  0  0  0
  9 11  1  0  0  0  0
  9 24  1  0  0  0  0
  7  8  1  0  0  0  0
  7  9  1  0  0  0  0
 28 29  1  0  0  0  0
 28 30  1  0  0  0  0
 28 31  1  0  0  0  0
 26 27  1  0  0  0  0
 26 28  1  0  0  0  0
M  END
$$$$
default_name
  -OEChem-02102213163D

 31 30  0     1  0  0  0  0  0999 V2000
   -3.5895   -3.5013    1.1082 H   0  0  0  0  0  0  0  0  0  0  0  0
   -3.5145   -2.5363    0.6082 C   0  0  0  0  0  0  0  0  0  0  0  0
   -4.2285   -1.8413    1.0452 H   0  0  0  0  0  0  0  0  0  0  0  0
   -3.7155   -2.6583   -0.4538 H   0  0  0  0  0  0  0  0  0  0  0  0
   -2.1155   -1.9963    0.7922 C   0  0  0  0  0  0  0  0  0  0  0  0
   -1.2875   -2.6383    1.4252 O   0  0  0  0  0  0  0  0  0  0  0  0
   -1.8575   -0.8123    0.2402 N   0  0  0  0  0  0  0  0  0  0  0  0
   -2.6005   -0.3333   -0.2478 H   0  0  0  0  0  0  0  0  0  0  0  0
   -0.5675   -0.1203    0.3102 C   0  0  1  0  0  0  0  0  0  0  0  0
    0.0191   -0.5718    1.1110 H   0  0  0  0  0  0  0  0  0  0  0  0
    0.1724   -0.3238   -1.0286 C   0  0  0  0  0  0  0  0  0  0  0  0
    1.2460   -0.3527   -0.8327 H   0  0  0  0  0  0  0  0  0  0  0  0
   -0.1170   -1.2979   -1.4292 H   0  0  0  0  0  0  0  0  0  0  0  0
   -0.0966    0.7383   -2.1104 C   0  0  0  0  0  0  0  0  0  0  0  0
    0.0164    0.2936   -3.0991 H   0  0  0  0  0  0  0  0  0  0  0  0
   -1.4990    1.3423   -1.9933 C   0  0  0  0  0  0  0  0  0  0  0  0
   -1.6333    1.7777   -1.0022 H   0  0  0  0  0  0  0  0  0  0  0  0
   -1.6273    2.1212   -2.7453 H   0  0  0  0  0  0  0  0  0  0  0  0
   -2.2597    0.5811   -2.1530 H   0  0  0  0  0  0  0  0  0  0  0  0
    0.9189    1.8733   -1.9834 C   0  0  0  0  0  0  0  0  0  0  0  0
    1.9280    1.4766   -2.0950 H   0  0  0  0  0  0  0  0  0  0  0  0
    0.7479    2.6130   -2.7654 H   0  0  0  0  0  0  0  0  0  0  0  0
    0.8265    2.3526   -1.0082 H   0  0  0  0  0  0  0  0  0  0  0  0
   -0.7793    1.3659    0.6455 C   0  0  0  0  0  0  0  0  0  0  0  0
   -1.6464    2.0125    0.0623 O   0  0  0  0  0  0  0  0  0  0  0  0
    0.0189    1.9059    1.5756 N   0  0  0  0  0  0  0  0  0  0  0  0
    0.7024    1.3094    2.0137 H   0  0  0  0  0  0  0  0  0  0  0  0
   -0.0451    3.3046    1.9929 C   0  0  0  0  0  0  0  0  0  0  0  0
   -1.0415    3.5286    2.3805 H   0  0  0  0  0  0  0  0  0  0  0  0
    0.6954    3.5023    2.7695 H   0  0  0  0  0  0  0  0  0  0  0  0
    0.1474    3.9536    1.1372 H   0  0  0  0  0  0  0  0  0  0  0  0
  5  6  2  0  0  0  0
  5  7  1  0  0  0  0
  2  3  1  0  0  0  0
  2  4  1  0  0  0  0
  2  5  1  0  0  0  0
  1  2  1  0  0  0  0
 24 25  2  0  0  0  0
 24 26  1  0  0  0  0
 20 21  1  0  0  0  0
 20 22  1  0  0  0  0
 20 23  1  0  0  0  0
 16 17  1  0  0  0  0
 16 18  1  0  0  0  0
 16 19  1  0  0  0  0
 14 15  1  0  0  0  0
 14 16  1  0  0  0  0
 14 20  1  0  0  0  0
 11 12  1  0  0  0  0
 11 13  1  0  0  0  0
 11 14  1  0  0  0  0
  9 10  1  0  0  0  0
  9 11  1  0  0  0  0
  9 24  1  0  0  0  0
  7  8  1  0  0  0  0
  7  9  1  0  0  0  0
 28 29  1  0  0  0  0
 28 30  1  0  0  0  0
 28 31  1  0  0  0  0
 26 27  1  0  0  0  0
 26 28  1  0  0  0  0
M  END
$$$$
default_name
  -OEChem-02102213163D

 31 30  0     1  0  0  0  0  0999 V2000
   -3.5895   -3.5013    1.1082 H   0  0  0  0  0  0  0  0  0  0  0  0
   -3.5145   -2.5363    0.6082 C   0  0  0  0  0  0  0  0  0  0  0  0
   -4.2285   -1.8413    1.0452 H   0  0  0  0  0  0  0  0  0  0  0  0
   -3.7155   -2.6583   -0.4538 H   0  0  0  0  0  0  0  0  0  0  0  0
   -2.1155   -1.9963    0.7922 C   0  0  0  0  0  0  0  0  0  0  0  0
   -1.2875   -2.6383    1.4252 O   0  0  0  0  0  0  0  0  0  0  0  0
   -1.8575   -0.8123    0.2402 N   0  0  0  0  0  0  0  0  0  0  0  0
   -2.6005   -0.3333   -0.2478 H   0  0  0  0  0  0  0  0  0  0  0  0
   -0.5675   -0.1203    0.3102 C   0  0  1  0  0  0  0  0  0  0  0  0
    0.0191   -0.5718    1.1110 H   0  0  0  0  0  0  0  0  0  0  0  0
    0.1724   -0.3238   -1.0286 C   0  0  0  0  0  0  0  0  0  0  0  0
    1.2460   -0.3527   -0.8327 H   0  0  0  0  0  0  0  0  0  0  0  0
   -0.1170   -1.2979   -1.4292 H   0  0  0  0  0  0  0  0  0  0  0  0
   -0.0966    0.7383   -2.1104 C   0  0  0  0  0  0  0  0  0  0  0  0
   -0.2471    0.2521   -3.0743 H   0  0  0  0  0  0  0  0  0  0  0  0
   -1.3239    1.5956   -1.7881 C   0  0  0  0  0  0  0  0  0  0  0  0
   -1.1953    2.0767   -0.8175 H   0  0  0  0  0  0  0  0  0  0  0  0
   -1.4470    2.3629   -2.5528 H   0  0  0  0  0  0  0  0  0  0  0  0
   -2.2239    0.9849   -1.7654 H   0  0  0  0  0  0  0  0  0  0  0  0
    1.1103    1.6678   -2.2327 C   0  0  0  0  0  0  0  0  0  0  0  0
    1.9951    1.0874   -2.4939 H   0  0  0  0  0  0  0  0  0  0  0  0
    0.9335    2.4037   -3.0171 H   0  0  0  0  0  0  0  0  0  0  0  0
    1.2843    2.1838   -1.2878 H   0  0  0  0  0  0  0  0  0  0  0  0
   -0.7793    1.3659    0.6455 C   0  0  0  0  0  0  0  0  0  0  0  0
   -1.6464    2.0125    0.0623 O   0  0  0  0  0  0  0  0  0  0  0  0
    0.0189    1.9059    1.5756 N   0  0  0  0  0  0  0  0  0  0  0  0
    0.7024    1.3094    2.0137 H   0  0  0  0  0  0  0  0  0  0  0  0
   -0.0451    3.3046    1.9929 C   0  0  0  0  0  0  0  0  0  0  0  0
   -1.0415    3.5286    2.3805 H   0  0  0  0  0  0  0  0  0  0  0  0
    0.6954    3.5023    2.7695 H   0  0  0  0  0  0  0  0  0  0  0  0
    0.1474    3.9536    1.1372 H   0  0  0  0  0  0  0  0  0  0  0  0
  5  6  2  0  0  0  0
  5  7  1  0  0  0  0
  2  3  1  0  0  0  0
  2  4  1  0  0  0  0
  2  5  1  0  0  0  0
  1  2  1  0  0  0  0
 24 25  2  0  0  0  0
 24 26  1  0  0  0  0
 20 21  1  0  0  0  0
 20 22  1  0  0  0  0
 20 23  1  0  0  0  0
 16 17  1  0  0  0  0
 16 18  1  0  0  0  0
 16 19  1  0  0  0  0
 14 15  1  0  0  0  0
 14 16  1  0  0  0  0
 14 20  1  0  0  0  0
 11 12  1  0  0  0  0
 11 13  1  0  0  0  0
 11 14  1  0  0  0  0
  9 10  1  0  0  0  0
  9 11  1  0  0  0  0
  9 24  1  0  0  0  0
  7  8  1  0  0  0  0
  7  9  1  0  0  0  0
 28 29  1  0  0  0  0
 28 30  1  0  0  0  0
 28 31  1  0  0  0  0
 26 27  1  0  0  0  0
 26 28  1  0  0  0  0
M  END
$$$$
default_name
  -OEChem-02102213163D

 31 30  0     1  0  0  0  0  0999 V2000
   -3.5895   -3.5013    1.1082 H   0  0  0  0  0  0  0  0  0  0  0  0
   -3.5145   -2.5363    0.6082 C   0  0  0  0  0  0  0  0  0  0  0  0
   -4.2285   -1.8413    1.0452 H   0  0  0  0  0  0  0  0  0  0  0  0
   -3.7155   -2.6583   -0.4538 H   0  0  0  0  0  0  0  0  0  0  0  0
   -2.1155   -1.9963    0.7922 C   0  0  0  0  0  0  0  0  0  0  0  0
   -1.2875   -2.6383    1.4252 O   0  0  0  0  0  0  0  0  0  0  0  0
   -1.8575   -0.8123    0.2402 N   0  0  0  0  0  0  0  0  0  0  0  0
   -2.6005   -0.3333   -0.2478 H   0  0  0  0  0  0  0  0  0  0  0  0
   -0.5675   -0.1203    0.3102 C   0  0  1  0  0  0  0  0  0  0  0  0
    0.0191   -0.5718    1.1110 H   0  0  0  0  0  0  0  0  0  0  0  0
    0.1724   -0.3238   -1.0286 C   0  0  0  0  0  0  0  0  0  0  0  0
    1.2460   -0.3527   -0.8327 H   0  0  0  0  0  0  0  0  0  0  0  0
   -0.1170   -1.2979   -1.4292 H   0  0  0  0  0  0  0  0  0  0  0  0
   -0.0966    0.7383   -2.1104 C   0  0  0  0  0  0  0  0  0  0  0  0
   -0.5046    0.2611   -3.0014 H   0  0  0  0  0  0  0  0  0  0  0  0
   -1.0721    1.8178   -1.6325 C   0  0  0  0  0  0  0  0  0  0  0  0
   -0.6849    2.2942   -0.7309 H   0  0  0  0  0  0  0  0  0  0  0  0
   -1.1944    2.5723   -2.4100 H   0  0  0  0  0  0  0  0  0  0  0  0
   -2.0468    1.3860   -1.4157 H   0  0  0  0  0  0  0  0  0  0  0  0
    1.2133    1.4233   -2.4984 C   0  0  0  0  0  0  0  0  0  0  0  0
    1.9180    0.6812   -2.8735 H   0  0  0  0  0  0  0  0  0  0  0  0
    1.0298    2.1564   -3.2839 H   0  0  0  0  0  0  0  0  0  0  0  0
    1.6459    1.9248   -1.6320 H   0  0  0  0  0  0  0  0  0  0  0  0
   -0.7793    1.3659    0.6455 C   0  0  0  0  0  0  0  0  0  0  0  0
   -1.6464    2.0125    0.0623 O   0  0  0  0  0  0  0  0  0  0  0  0
    0.0189    1.9059    1.5756 N   0  0  0  0  0  0  0  0  0  0  0  0
    0.7024    1.3094    2.0137 H   0  0  0  0  0  0  0  0  0  0  0  0
   -0.0451    3.3046    1.9929 C   0  0  0  0  0  0  0  0  0  0  0  0
   -1.0415    3.5286    2.3805 H   0  0  0  0  0  0  0  0  0  0  0  0
    0.6954    3.5023    2.7695 H   0  0  0  0  0  0  0  0  0  0  0  0
    0.1474    3.9536    1.1372 H   0  0  0  0  0  0  0  0  0  0  0  0
  5  6  2  0  0  0  0
  5  7  1  0  0  0  0
  2  3  1  0  0  0  0
  2  4  1  0  0  0  0
  2  5  1  0  0  0  0
  1  2  1  0  0  0  0
 24 25  2  0  0  0  0
 24 26  1  0  0  0  0
 20 21  1  0  0  0  0
 20 22  1  0  0  0  0
 20 23  1  0  0  0  0
 16 17  1  0  0  0  0
 16 18  1  0  0  0  0
 16 19  1  0  0  0  0
 14 15  1  0  0  0  0
 14 16  1  0  0  0  0
 14 20  1  0  0  0  0
 11 12  1  0  0  0  0
 11 13  1  0  0  0  0
 11 14  1  0  0  0  0
  9 10  1  0  0  0  0
  9 11  1  0  0  0  0
  9 24  1  0  0  0  0
  7  8  1  0  0  0  0
  7  9  1  0  0  0  0
 28 29  1  0  0  0  0
 28 30  1  0  0  0  0
 28 31  1  0  0  0  0
 26 27  1  0  0  0  0
 26 28  1  0  0  0  0
M  END
$$$$
default_name
  -OEChem-02102213163D

 31 30  0     1  0  0  0  0  0999 V2000
   -3.5895   -3.5013    1.1082 H   0  0  0  0  0  0  0  0  0  0  0  0
   -3.5145   -2.5363    0.6082 C   0  0  0  0  0  0  0  0  0  0  0  0
   -4.2285   -1.8413    1.0452 H   0  0  0  0  0  0  0  0  0  0  0  0
   -3.7155   -2.6583   -0.4538 H   0  0  0  0  0  0  0  0  0  0  0  0
   -2.1155   -1.9963    0.7922 C   0  0  0  0  0  0  0  0  0  0  0  0
   -1.2875   -2.6383    1.4252 O   0  0  0  0  0  0  0  0  0  0  0  0
   -1.8575   -0.8123    0.2402 N   0  0  0  0  0  0  0  0  0  0  0  0
   -2.6005   -0.3333   -0.2478 H   0  0  0  0  0  0  0  0  0  0  0  0
   -0.5675   -0.1203    0.3102 C   0  0  1  0  0  0  0  0  0  0  0  0
    0.0191   -0.5718    1.1110 H   0  0  0  0  0  0  0  0  0  0  0  0
    0.1724   -0.3238   -1.0286 C   0  0  0  0  0  0  0  0  0  0  0  0
    1.2460   -0.3527   -0.8327 H   0  0  0  0  0  0  0  0  0  0  0  0
   -0.1170   -1.2979   -1.4292 H   0  0  0  0  0  0  0  0  0  0  0  0
   -0.0966    0.7383   -2.1104 C   0  0  0  0  0  0  0  0  0  0  0  0
   -0.7388    0.3200   -2.8855 H   0  0  0  0  0  0  0  0  0  0  0  0
   -0.7607    1.9936   -1.5373 C   0  0  0  0  0  0  0  0  0  0  0  0
   -0.1368    2.4154   -0.7481 H   0  0  0  0  0  0  0  0  0  0  0  0
   -0.8869    2.7351   -2.3266 H   0  0  0  0  0  0  0  0  0  0  0  0
   -1.7403    1.7570   -1.1276 H   0  0  0  0  0  0  0  0  0  0  0  0
    1.2208    1.1563   -2.7624 C   0  0  0  0  0  0  0  0  0  0  0  0
    1.7019    0.2858   -3.2081 H   0  0  0  0  0  0  0  0  0  0  0  0
    1.0302    1.8879   -3.5475 H   0  0  0  0  0  0  0  0  0  0  0  0
    1.8866    1.5933   -2.0173 H   0  0  0  0  0  0  0  0  0  0  0  0
   -0.7793    1.3659    0.6455 C   0  0  0  0  0  0  0  0  0  0  0  0
   -1.6464    2.0125    0.0623 O   0  0  0  0  0  0  0  0  0  0  0  0
    0.0189    1.9059    1.5756 N   0  0  0  0  0  0  0  0  0  0  0  0
    0.7024    1.3094    2.0137 H   0  0  0  0  0  0  0  0  0  0  0  0
   -0.0451    3.3046    1.9929 C   0  0  0  0  0  0  0  0  0  0  0  0
   -1.0415    3.5286    2.3805 H   0  0  0  0  0  0  0  0  0  0  0  0
    0.6954    3.5023    2.7695 H   0  0  0  0  0  0  0  0  0  0  0  0
    0.1474    3.9536    1.1372 H   0  0  0  0  0  0  0  0  0  0  0  0
  5  6  2  0  0  0  0
  5  7  1  0  0  0  0
  2  3  1  0  0  0  0
  2  4  1  0  0  0  0
  2  5  1  0  0  0  0
  1  2  1  0  0  0  0
 24 25  2  0  0  0  0
 24 26  1  0  0  0  0
 20 21  1  0  0  0  0
 20 22  1  0  0  0  0
 20 23  1  0  0  0  0
 16 17  1  0  0  0  0
 16 18  1  0  0  0  0
 16 19  1  0  0  0  0
 14 15  1  0  0  0  0
 14 16  1  0  0  0  0
 14 20  1  0  0  0  0
 11 12  1  0  0  0  0
 11 13  1  0  0  0  0
 11 14  1  0  0  0  0
  9 10  1  0  0  0  0
  9 11  1  0  0  0  0
  9 24  1  0  0  0  0
  7  8  1  0  0  0  0
  7  9  1  0  0  0  0
 28 29  1  0  0  0  0
 28 30  1  0  0  0  0
 28 31  1  0  0  0  0
 26 27  1  0  0  0  0
 26 28  1  0  0  0  0
M  END
$$$$
default_name
  -OEChem-02102213163D

 31 30  0     1  0  0  0  0  0999 V2000
   -3.5895   -3.5013    1.1082 H   0  0  0  0  0  0  0  0  0  0  0  0
   -3.5145   -2.5363    0.6082 C   0  0  0  0  0  0  0  0  0  0  0  0
   -4.2285   -1.8413    1.0452 H   0  0  0  0  0  0  0  0  0  0  0  0
   -3.7155   -2.6583   -0.4538 H   0  0  0  0  0  0  0  0  0  0  0  0
   -2.1155   -1.9963    0.7922 C   0  0  0  0  0  0  0  0  0  0  0  0
   -1.2875   -2.6383    1.4252 O   0  0  0  0  0  0  0  0  0  0  0  0
   -1.8575   -0.8123    0.2402 N   0  0  0  0  0  0  0  0  0  0  0  0
   -2.6005   -0.3333   -0.2478 H   0  0  0  0  0  0  0  0  0  0  0  0
   -0.5675   -0.1203    0.3102 C   0  0  1  0  0  0  0  0  0  0  0  0
    0.0191   -0.5718    1.1110 H   0  0  0  0  0  0  0  0  0  0  0  0
    0.1724   -0.3238   -1.0286 C   0  0  0  0  0  0  0  0  0  0  0  0
    1.2460   -0.3527   -0.8327 H   0  0  0  0  0  0  0  0  0  0  0  0
   -0.1170   -1.2979   -1.4292 H   0  0  0  0  0  0  0  0  0  0  0  0
   -0.0966    0.7383   -2.1104 C   0  0  0  0  0  0  0  0  0  0  0  0
   -0.9335    0.4246   -2.7343 H   0  0  0  0  0  0  0  0  0  0  0  0
   -0.4110    2.1111   -1.5089 C   0  0  0  0  0  0  0  0  0  0  0  0
    0.4115    2.4320   -0.8682 H   0  0  0  0  0  0  0  0  0  0  0  0
   -0.5454    2.8402   -2.3083 H   0  0  0  0  0  0  0  0  0  0  0  0
   -1.3254    2.0726   -0.9208 H   0  0  0  0  0  0  0  0  0  0  0  0
    1.1325    0.8852   -3.0066 C   0  0  0  0  0  0  0  0  0  0  0  0
    1.3614   -0.0721   -3.4748 H   0  0  0  0  0  0  0  0  0  0  0  0
    0.9347    1.6166   -3.7902 H   0  0  0  0  0  0  0  0  0  0  0  0
    1.9901    1.2119   -2.4174 H   0  0  0  0  0  0  0  0  0  0  0  0
   -0.7793    1.3659    0.6455 C   0  0  0  0  0  0  0  0  0  0  0  0
   -1.6464    2.0125    0.0623 O   0  0  0  0  0  0  0  0  0  0  0  0
    0.0189    1.9059    1.5756 N   0  0  0  0  0  0  0  0  0  0  0  0
    0.7024    1.3094    2.0137 H   0  0  0  0  0  0  0  0  0  0  0  0
   -0.0451    3.3046    1.9929 C   0  0  0  0  0  0  0  0  0  0  0  0
   -1.0415    3.5286    2.3805 H   0  0  0  0  0  0  0  0  0  0  0  0
    0.6954    3.5023    2.7695 H   0  0  0  0  0  0  0  0  0  0  0  0
    0.1474    3.9536    1.1372 H   0  0  0  0  0  0  0  0  0  0  0  0
  5  6  2  0  0  0  0
  5  7  1  0  0  0  0
  2  3  1  0  0  0  0
  2  4  1  0  0  0  0
  2  5  1  0  0  0  0
  1  2  1  0  0  0  0
 24 25  2  0  0  0  0
 24 26  1  0  0  0  0
 20 21  1  0  0  0  0
 20 22  1  0  0  0  0
 20 23  1  0  0  0  0
 16 17  1  0  0  0  0
 16 18  1  0  0  0  0
 16 19  1  0  0  0  0
 14 15  1  0  0  0  0
 14 16  1  0  0  0  0
 14 20  1  0  0  0  0
 11 12  1  0  0  0  0
 11 13  1  0  0  0  0
 11 14  1  0  0  0  0
  9 10  1  0  0  0  0
  9 11  1  0  0  0  0
  9 24  1  0  0  0  0
  7  8  1  0  0  0  0
  7  9  1  0  0  0  0
 28 29  1  0  0  0  0
 28 30  1  0  0  0  0
 28 31  1  0  0  0  0
 26 27  1  0  0  0  0
 26 28  1  0  0  0  0
M  END
$$$$
default_name
  -OEChem-02102213163D

 31 30  0     1  0  0  0  0  0999 V2000
   -3.5895   -3.5013    1.1082 H   0  0  0  0  0  0  0  0  0  0  0  0
   -3.5145   -2.5363    0.6082 C   0  0  0  0  0  0  0  0  0  0  0  0
   -4.2285   -1.8413    1.0452 H   0  0  0  0  0  0  0  0  0  0  0  0
   -3.7155   -2.6583   -0.4538 H   0  0  0  0  0  0  0  0  0  0  0  0
   -2.1155   -1.9963    0.7922 C   0  0  0  0  0  0  0  0  0  0  0  0
   -1.2875   -2.6383    1.4252 O   0  0  0  0  0  0  0  0  0  0  0  0
   -1.8575   -0.8123    0.2402 N   0  0  0  0  0  0  0  0  0  0  0  0
   -2.6005   -0.3333   -0.2478 H   0  0  0  0  0  0  0  0  0  0  0  0
   -0.5675   -0.1203    0.3102 C   0  0  1  0  0  0  0  0  0  0  0  0
    0.0191   -0.5718    1.1110 H   0  0  0  0  0  0  0  0  0  0  0  0
    0.1724   -0.3238   -1.0286 C   0  0  0  0  0  0  0  0  0  0  0  0
    1.2460   -0.3527   -0.8327 H   0  0  0  0  0  0  0  0  0  0  0  0
   -0.1170   -1.2979   -1.4292 H   0  0  0  0  0  0  0  0  0  0  0  0
   -0.0966    0.7383   -2.1104 C   0  0  0  0  0  0  0  0  0  0  0  0
   -1.0757    0.5679   -2.5582 H   0  0  0  0  0  0  0  0  0  0  0  0
   -0.0467    2.1623   -1.5492 C   0  0  0  0  0  0  0  0  0  0  0  0
    0.9227    2.3429   -1.0827 H   0  0  0  0  0  0  0  0  0  0  0  0
   -0.1932    2.8804   -2.3564 H   0  0  0  0  0  0  0  0  0  0  0  0
   -0.8303    2.3114   -0.8095 H   0  0  0  0  0  0  0  0  0  0  0  0
    0.9543    0.6283   -3.2145 C   0  0  0  0  0  0  0  0  0  0  0  0
    0.9199   -0.3679   -3.6554 H   0  0  0  0  0  0  0  0  0  0  0  0
    0.7498    1.3610   -3.9952 H   0  0  0  0  0  0  0  0  0  0  0  0
    1.9492    0.8066   -2.8052 H   0  0  0  0  0  0  0  0  0  0  0  0
   -0.7793    1.3659    0.6455 C   0  0  0  0  0  0  0  0  0  0  0  0
   -1.6464    2.0125    0.0623 O   0  0  0  0  0  0  0  0  0  0  0  0
    0.0189    1.9059    1.5756 N   0  0  0  0  0  0  0  0  0  0  0  0
    0.7024    1.3094    2.0137 H   0  0  0  0  0  0  0  0  0  0  0  0
   -0.0451    3.3046    1.9929 C   0  0  0  0  0  0  0  0  0  0  0  0
   -1.0415    3.5286    2.3805 H   0  0  0  0  0  0  0  0  0  0  0  0
    0.6954    3.5023    2.7695 H   0  0  0  0  0  0  0  0  0  0  0  0
    0.1474    3.9536    1.1372 H   0  0  0  0  0  0  0  0  0  0  0  0
  5  6  2  0  0  0  0
  5  7  1  0  0  0  0
  2  3  1  0  0  0  0
  2  4  1  0  0  0  0
  2  5  1  0  0  0  0
  1  2  1  0  0  0  0
 24 25  2  0  0  0  0
 24 26  1  0  0  0  0
 20 21  1  0  0  0  0
 20 22  1  0  0  0  0
 20 23  1  0  0  0  0
 16 17  1  0  0  0  0
 16 18  1  0  0  0  0
 16 19  1  0  0  0  0
 14 15  1  0  0  0  0
 14 16  1  0  0  0  0
 14 20  1  0  0  0  0
 11 12  1  0  0  0  0
 11 13  1  0  0  0  0
 11 14  1  0  0  0  0
  9 10  1  0  0  0  0
  9 11  1  0  0  0  0
  9 24  1  0  0  0  0
  7  8  1  0  0  0  0
  7  9  1  0  0  0  0
 28 29  1  0  0  0  0
 28 30  1  0  0  0  0
 28 31  1  0  0  0  0
 26 27  1  0  0  0  0
 26 28  1  0  0  0  0
M  END
$$$$
default_name
  -OEChem-02102213163D

 31 30  0     1  0  0  0  0  0999 V2000
   -3.5895   -3.5013    1.1082 H   0  0  0  0  0  0  0  0  0  0  0  0
   -3.5145   -2.5363    0.6082 C   0  0  0  0  0  0  0  0  0  0  0  0
   -4.2285   -1.8413    1.0452 H   0  0  0  0  0  0  0  0  0  0  0  0
   -3.7155   -2.6583   -0.4538 H   0  0  0  0  0  0  0  0  0  0  0  0
   -2.1155   -1.9963    0.7922 C   0  0  0  0  0  0  0  0  0  0  0  0
   -1.2875   -2.6383    1.4252 O   0  0  0  0  0  0  0  0  0  0  0  0
   -1.8575   -0.8123    0.2402 N   0  0  0  0  0  0  0  0  0  0  0  0
   -2.6005   -0.3333   -0.2478 H   0  0  0  0  0  0  0  0  0  0  0  0
   -0.5675   -0.1203    0.3102 C   0  0  1  0  0  0  0  0  0  0  0  0
    0.0191   -0.5718    1.1110 H   0  0  0  0  0  0  0  0  0  0  0  0
    0.1724   -0.3238   -1.0286 C   0  0  0  0  0  0  0  0  0  0  0  0
    1.2460   -0.3527   -0.8327 H   0  0  0  0  0  0  0  0  0  0  0  0
   -0.1170   -1.2979   -1.4292 H   0  0  0  0  0  0  0  0  0  0  0  0
   -0.0966    0.7383   -2.1104 C   0  0  0  0  0  0  0  0  0  0  0  0
   -1.1554    0.7402   -2.3693 H   0  0  0  0  0  0  0  0  0  0  0  0
    0.3073    2.1437   -1.6555 C   0  0  0  0  0  0  0  0  0  0  0  0
    1.3620    2.1542   -1.3772 H   0  0  0  0  0  0  0  0  0  0  0  0
    0.1458    2.8531   -2.4675 H   0  0  0  0  0  0  0  0  0  0  0  0
   -0.2887    2.4571   -0.8011 H   0  0  0  0  0  0  0  0  0  0  0  0
    0.6982    0.4032   -3.3719 C   0  0  0  0  0  0  0  0  0  0  0  0
    0.4074   -0.5815   -3.7377 H   0  0  0  0  0  0  0  0  0  0  0  0
    0.4881    1.1384   -4.1487 H   0  0  0  0  0  0  0  0  0  0  0  0
    1.7669    0.4051   -3.1542 H   0  0  0  0  0  0  0  0  0  0  0  0
   -0.7793    1.3659    0.6455 C   0  0  0  0  0  0  0  0  0  0  0  0
   -1.6464    2.0125    0.0623 O   0  0  0  0  0  0  0  0  0  0  0  0
    0.0189    1.9059    1.5756 N   0  0  0  0  0  0  0  0  0  0  0  0
    0.7024    1.3094    2.0137 H   0  0  0  0  0  0  0  0  0  0  0  0
   -0.0451    3.3046    1.9929 C   0  0  0  0  0  0  0  0  0  0  0  0
   -1.0415    3.5286    2.3805 H   0  0  0  0  0  0  0  0  0  0  0  0
    0.6954    3.5023    2.7695 H   0  0  0  0  0  0  0  0  0  0  0  0
    0.1474    3.9536    1.1372 H   0  0  0  0  0  0  0  0  0  0  0  0
  5  6  2  0  0  0  0
  5  7  1  0  0  0  0
  2  3  1  0  0  0  0
  2  4  1  0  0  0  0
  2  5  1  0  0  0  0
  1  2  1  0  0  0  0
 24 25  2  0  0  0  0
 24 26  1  0  0  0  0
 20 21  1  0  0  0  0
 20 22  1  0  0  0  0
 20 23  1  0  0  0  0
 16 17  1  0  0  0  0
 16 18  1  0  0  0  0
 16 19  1  0  0  0  0
 14 15  1  0  0  0  0
 14 16  1  0  0  0  0
 14 20  1  0  0  0  0
 11 12  1  0  0  0  0
 11 13  1  0  0  0  0
 11 14  1  0  0  0  0
  9 10  1  0  0  0  0
  9 11  1  0  0  0  0
  9 24  1  0  0  0  0
  7  8  1  0  0  0  0
  7  9  1  0  0  0  0
 28 29  1  0  0  0  0
 28 30  1  0  0  0  0
 28 31  1  0  0  0  0
 26 27  1  0  0  0  0
 26 28  1  0  0  0  0
M  END
$$$$
default_name
  -OEChem-02102213163D

 31 30  0     1  0  0  0  0  0999 V2000
   -3.5895   -3.5013    1.1082 H   0  0  0  0  0  0  0  0  0  0  0  0
   -3.5145   -2.5363    0.6082 C   0  0  0  0  0  0  0  0  0  0  0  0
   -4.2285   -1.8413    1.0452 H   0  0  0  0  0  0  0  0  0  0  0  0
   -3.7155   -2.6583   -0.4538 H   0  0  0  0  0  0  0  0  0  0  0  0
   -2.1155   -1.9963    0.7922 C   0  0  0  0  0  0  0  0  0  0  0  0
   -1.2875   -2.6383    1.4252 O   0  0  0  0  0  0  0  0  0  0  0  0
   -1.8575   -0.8123    0.2402 N   0  0  0  0  0  0  0  0  0  0  0  0
   -2.6005   -0.3333   -0.2478 H   0  0  0  0  0  0  0  0  0  0  0  0
   -0.5675   -0.1203    0.3102 C   0  0  1  0  0  0  0  0  0  0  0  0
    0.0191   -0.5718    1.1110 H   0  0  0  0  0  0  0  0  0  0  0  0
    0.1724   -0.3238   -1.0286 C   0  0  0  0  0  0  0  0  0  0  0  0
    1.2460   -0.3527   -0.8327 H   0  0  0  0  0  0  0  0  0  0  0  0
   -0.1170   -1.2979   -1.4292 H   0  0  0  0  0  0  0  0  0  0  0  0
   -0.0966    0.7383   -2.1104 C   0  0  0  0  0  0  0  0  0  0  0  0
   -1.1674    0.9296   -2.1803 H   0  0  0  0  0  0  0  0  0  0  0  0
    0.6269    2.0566   -1.8205 C   0  0  0  0  0  0  0  0  0  0  0  0
    1.6995    1.8788   -1.7316 H   0  0  0  0  0  0  0  0  0  0  0  0
    0.4484    2.7600   -2.6341 H   0  0  0  0  0  0  0  0  0  0  0  0
    0.2624    2.4997   -0.8963 H   0  0  0  0  0  0  0  0  0  0  0  0
    0.3819    0.2252   -3.4680 C   0  0  0  0  0  0  0  0  0  0  0  0
   -0.1411   -0.6983   -3.7161 H   0  0  0  0  0  0  0  0  0  0  0  0
    0.1675    0.9640   -4.2402 H   0  0  0  0  0  0  0  0  0  0  0  0
    1.4553    0.0346   -3.4405 H   0  0  0  0  0  0  0  0  0  0  0  0
   -0.7793    1.3659    0.6455 C   0  0  0  0  0  0  0  0  0  0  0  0
   -1.6464    2.0125    0.0623 O   0  0  0  0  0  0  0  0  0  0  0  0
    0.0189    1.9059    1.5756 N   0  0  0  0  0  0  0  0  0  0  0  0
    0.7024    1.3094    2.0137 H   0  0  0  0  0  0  0  0  0  0  0  0
   -0.0451    3.3046    1.9929 C   0  0  0  0  0  0  0  0  0  0  0  0
   -1.0415    3.5286    2.3805 H   0  0  0  0  0  0  0  0  0  0  0  0
    0.6954    3.5023    2.7695 H   0  0  0  0  0  0  0  0  0  0  0  0
    0.1474    3.9536    1.1372 H   0  0  0  0  0  0  0  0  0  0  0  0
  5  6  2  0  0  0  0
  5  7  1  0  0  0  0
  2  3  1  0  0  0  0
  2  4  1  0  0  0  0
  2  5  1  0  0  0  0
  1  2  1  0  0  0  0
 24 25  2  0  0  0  0
 24 26  1  0  0  0  0
 20 21  1  0  0  0  0
 20 22  1  0  0  0  0
 20 23  1  0  0  0  0
 16 17  1  0  0  0  0
 16 18  1  0  0  0  0
 16 19  1  0  0  0  0
 14 15  1  0  0  0  0
 14 16  1  0  0  0  0
 14 20  1  0  0  0  0
 11 12  1  0  0  0  0
 11 13  1  0  0  0  0
 11 14  1  0  0  0  0
  9 10  1  0  0  0  0
  9 11  1  0  0  0  0
  9 24  1  0  0  0  0
  7  8  1  0  0  0  0
  7  9  1  0  0  0  0
 28 29  1  0  0  0  0
 28 30  1  0  0  0  0
 28 31  1  0  0  0  0
 26 27  1  0  0  0  0
 26 28  1  0  0  0  0
M  END
$$$$
default_name
  -OEChem-02102213163D

 31 30  0     1  0  0  0  0  0999 V2000
   -3.5895   -3.5013    1.1082 H   0  0  0  0  0  0  0  0  0  0  0  0
   -3.5145   -2.5363    0.6082 C   0  0  0  0  0  0  0  0  0  0  0  0
   -4.2285   -1.8413    1.0452 H   0  0  0  0  0  0  0  0  0  0  0  0
   -3.7155   -2.6583   -0.4538 H   0  0  0  0  0  0  0  0  0  0  0  0
   -2.1155   -1.9963    0.7922 C   0  0  0  0  0  0  0  0  0  0  0  0
   -1.2875   -2.6383    1.4252 O   0  0  0  0  0  0  0  0  0  0  0  0
   -1.8575   -0.8123    0.2402 N   0  0  0  0  0  0  0  0  0  0  0  0
   -2.6005   -0.3333   -0.2478 H   0  0  0  0  0  0  0  0  0  0  0  0
   -0.5675   -0.1203    0.3102 C   0  0  1  0  0  0  0  0  0  0  0  0
    0.0191   -0.5718    1.1110 H   0  0  0  0  0  0  0  0  0  0  0  0
    0.1724   -0.3238   -1.0286 C   0  0  0  0  0  0  0  0  0  0  0  0
    1.2460   -0.3527   -0.8327 H   0  0  0  0  0  0  0  0  0  0  0  0
   -0.1170   -1.2979   -1.4292 H   0  0  0  0  0  0  0  0  0  0  0  0
   -0.0966    0.7383   -2.1104 C   0  0  0  0  0  0  0  0  0  0  0  0
   -1.1108    1.1233   -2.0042 H   0  0  0  0  0  0  0  0  0  0  0  0
    0.8903    1.9068   -2.0330 C   0  0  0  0  0  0  0  0  0  0  0  0
    1.9121    1.5353   -2.1217 H   0  0  0  0  0  0  0  0  0  0  0  0
    0.6940    2.6075   -2.8449 H   0  0  0  0  0  0  0  0  0  0  0  0
    0.7854    2.4363   -1.0886 H   0  0  0  0  0  0  0  0  0  0  0  0
    0.0268    0.1064   -3.4964 C   0  0  0  0  0  0  0  0  0  0  0  0
   -0.6884   -0.7105   -3.5919 H   0  0  0  0  0  0  0  0  0  0  0  0
   -0.1903    0.8498   -4.2634 H   0  0  0  0  0  0  0  0  0  0  0  0
    1.0360   -0.2796   -3.6447 H   0  0  0  0  0  0  0  0  0  0  0  0
   -0.7793    1.3659    0.6455 C   0  0  0  0  0  0  0  0  0  0  0  0
   -1.6464    2.0125    0.0623 O   0  0  0  0  0  0  0  0  0  0  0  0
    0.0189    1.9059    1.5756 N   0  0  0  0  0  0  0  0  0  0  0  0
    0.7024    1.3094    2.0137 H   0  0  0  0  0  0  0  0  0  0  0  0
   -0.0451    3.3046    1.9929 C   0  0  0  0  0  0  0  0  0  0  0  0
   -1.0415    3.5286    2.3805 H   0  0  0  0  0  0  0  0  0  0  0  0
    0.6954    3.5023    2.7695 H   0  0  0  0  0  0  0  0  0  0  0  0
    0.1474    3.9536    1.1372 H   0  0  0  0  0  0  0  0  0  0  0  0
  5  6  2  0  0  0  0
  5  7  1  0  0  0  0
  2  3  1  0  0  0  0
  2  4  1  0  0  0  0
  2  5  1  0  0  0  0
  1  2  1  0  0  0  0
 24 25  2  0  0  0  0
 24 26  1  0  0  0  0
 20 21  1  0  0  0  0
 20 22  1  0  0  0  0
 20 23  1  0  0  0  0
 16 17  1  0  0  0  0
 16 18  1  0  0  0  0
 16 19  1  0  0  0  0
 14 15  1  0  0  0  0
 14 16  1  0  0  0  0
 14 20  1  0  0  0  0
 11 12  1  0  0  0  0
 11 13  1  0  0  0  0
 11 14  1  0  0  0  0
  9 10  1  0  0  0  0
  9 11  1  0  0  0  0
  9 24  1  0  0  0  0
  7  8  1  0  0  0  0
  7  9  1  0  0  0  0
 28 29  1  0  0  0  0
 28 30  1  0  0  0  0
 28 31  1  0  0  0  0
 26 27  1  0  0  0  0
 26 28  1  0  0  0  0
M  END
$$$$
default_name
  -OEChem-02102213163D

 31 30  0     1  0  0  0  0  0999 V2000
   -3.5895   -3.5013    1.1082 H   0  0  0  0  0  0  0  0  0  0  0  0
   -3.5145   -2.5363    0.6082 C   0  0  0  0  0  0  0  0  0  0  0  0
   -4.2285   -1.8413    1.0452 H   0  0  0  0  0  0  0  0  0  0  0  0
   -3.7155   -2.6583   -0.4538 H   0  0  0  0  0  0  0  0  0  0  0  0
   -2.1155   -1.9963    0.7922 C   0  0  0  0  0  0  0  0  0  0  0  0
   -1.2875   -2.6383    1.4252 O   0  0  0  0  0  0  0  0  0  0  0  0
   -1.8575   -0.8123    0.2402 N   0  0  0  0  0  0  0  0  0  0  0  0
   -2.6005   -0.3333   -0.2478 H   0  0  0  0  0  0  0  0  0  0  0  0
   -0.5675   -0.1203    0.3102 C   0  0  1  0  0  0  0  0  0  0  0  0
    0.0191   -0.5718    1.1110 H   0  0  0  0  0  0  0  0  0  0  0  0
    0.1724   -0.3238   -1.0286 C   0  0  0  0  0  0  0  0  0  0  0  0
    1.2460   -0.3527   -0.8327 H   0  0  0  0  0  0  0  0  0  0  0  0
   -0.1170   -1.2979   -1.4292 H   0  0  0  0  0  0  0  0  0  0  0  0
   -0.0966    0.7383   -2.1104 C   0  0  0  0  0  0  0  0  0  0  0  0
   -0.9895    1.3081   -1.8530 H   0  0  0  0  0  0  0  0  0  0  0  0
    1.0795    1.7047   -2.2786 C   0  0  0  0  0  0  0  0  0  0  0  0
    1.9853    1.1472   -2.5209 H   0  0  0  0  0  0  0  0  0  0  0  0
    0.8659    2.4060   -3.0855 H   0  0  0  0  0  0  0  0  0  0  0  0
    1.2448    2.2713   -1.3648 H   0  0  0  0  0  0  0  0  0  0  0  0
   -0.3428    0.0550   -3.4550 C   0  0  0  0  0  0  0  0  0  0  0  0
   -1.1971   -0.6171   -3.3737 H   0  0  0  0  0  0  0  0  0  0  0  0
   -0.5608    0.8034   -4.2168 H   0  0  0  0  0  0  0  0  0  0  0  0
    0.5373   -0.5161   -3.7528 H   0  0  0  0  0  0  0  0  0  0  0  0
   -0.7793    1.3659    0.6455 C   0  0  0  0  0  0  0  0  0  0  0  0
   -1.6464    2.0125    0.0623 O   0  0  0  0  0  0  0  0  0  0  0  0
    0.0189    1.9059    1.5756 N   0  0  0  0  0  0  0  0  0  0  0  0
    0.7024    1.3094    2.0137 H   0  0  0  0  0  0  0  0  0  0  0  0
   -0.0451    3.3046    1.9929 C   0  0  0  0  0  0  0  0  0  0  0  0
   -1.0415    3.5286    2.3805 H   0  0  0  0  0  0  0  0  0  0  0  0
    0.6954    3.5023    2.7695 H   0  0  0  0  0  0  0  0  0  0  0  0
    0.1474    3.9536    1.1372 H   0  0  0  0  0  0  0  0  0  0  0  0
  5  6  2  0  0  0  0
  5  7  1  0  0  0  0
  2  3  1  0  0  0  0
  2  4  1  0  0  0  0
  2  5  1  0  0  0  0
  1  2  1  0  0  0  0
 24 25  2  0  0  0  0
 24 26  1  0  0  0  0
 20 21  1  0  0  0  0
 20 22  1  0  0  0  0
 20 23  1  0  0  0  0
 16 17  1  0  0  0  0
 16 18  1  0  0  0  0
 16 19  1  0  0  0  0
 14 15  1  0  0  0  0
 14 16  1  0  0  0  0
 14 20  1  0  0  0  0
 11 12  1  0  0  0  0
 11 13  1  0  0  0  0
 11 14  1  0  0  0  0
  9 10  1  0  0  0  0
  9 11  1  0  0  0  0
  9 24  1  0  0  0  0
  7  8  1  0  0  0  0
  7  9  1  0  0  0  0
 28 29  1  0  0  0  0
 28 30  1  0  0  0  0
 28 31  1  0  0  0  0
 26 27  1  0  0  0  0
 26 28  1  0  0  0  0
M  END
$$$$
default_name
  -OEChem-02102213163D

 31 30  0     1  0  0  0  0  0999 V2000
   -3.5895   -3.5013    1.1082 H   0  0  0  0  0  0  0  0  0  0  0  0
   -3.5145   -2.5363    0.6082 C   0  0  0  0  0  0  0  0  0  0  0  0
   -4.2285   -1.8413    1.0452 H   0  0  0  0  0  0  0  0  0  0  0  0
   -3.7155   -2.6583   -0.4538 H   0  0  0  0  0  0  0  0  0  0  0  0
   -2.1155   -1.9963    0.7922 C   0  0  0  0  0  0  0  0  0  0  0  0
   -1.2875   -2.6383    1.4252 O   0  0  0  0  0  0  0  0  0  0  0  0
   -1.8575   -0.8123    0.2402 N   0  0  0  0  0  0  0  0  0  0  0  0
   -2.6005   -0.3333   -0.2478 H   0  0  0  0  0  0  0  0  0  0  0  0
   -0.5675   -0.1203    0.3102 C   0  0  1  0  0  0  0  0  0  0  0  0
    0.0191   -0.5718    1.1110 H   0  0  0  0  0  0  0  0  0  0  0  0
    0.1724   -0.3238   -1.0286 C   0  0  0  0  0  0  0  0  0  0  0  0
    1.2460   -0.3527   -0.8327 H   0  0  0  0  0  0  0  0  0  0  0  0
   -0.1170   -1.2979   -1.4292 H   0  0  0  0  0  0  0  0  0  0  0  0
   -0.0966    0.7383   -2.1104 C   0  0  0  0  0  0  0  0  0  0  0  0
   -0.8117    1.4713   -1.7369 H   0  0  0  0  0  0  0  0  0  0  0  0
    1.1817    1.4639   -2.5404 C   0  0  0  0  0  0  0  0  0  0  0  0
    1.9142    0.7410   -2.9021 H   0  0  0  0  0  0  0  0  0  0  0  0
    0.9524    2.1693   -3.3394 H   0  0  0  0  0  0  0  0  0  0  0  0
    1.6092    2.0159   -1.7062 H   0  0  0  0  0  0  0  0  0  0  0  0
   -0.7018    0.0744   -3.3467 C   0  0  0  0  0  0  0  0  0  0  0  0
   -1.6324   -0.4245   -3.0764 H   0  0  0  0  0  0  0  0  0  0  0  0
   -0.9188    0.8281   -4.1035 H   0  0  0  0  0  0  0  0  0  0  0  0
   -0.0067   -0.6587   -3.7576 H   0  0  0  0  0  0  0  0  0  0  0  0
   -0.7793    1.3659    0.6455 C   0  0  0  0  0  0  0  0  0  0  0  0
   -1.6464    2.0125    0.0623 O   0  0  0  0  0  0  0  0  0  0  0  0
    0.0189    1.9059    1.5756 N   0  0  0  0  0  0  0  0  0  0  0  0
    0.7024    1.3094    2.0137 H   0  0  0  0  0  0  0  0  0  0  0  0
   -0.0451    3.3046    1.9929 C   0  0  0  0  0  0  0  0  0  0  0  0
   -1.0415    3.5286    2.3805 H   0  0  0  0  0  0  0  0  0  0  0  0
    0.6954    3.5023    2.7695 H   0  0  0  0  0  0  0  0  0  0  0  0
    0.1474    3.9536    1.1372 H   0  0  0  0  0  0  0  0  0  0  0  0
  5  6  2  0  0  0  0
  5  7  1  0  0  0  0
  2  3  1  0  0  0  0
  2  4  1  0  0  0  0
  2  5  1  0  0  0  0
  1  2  1  0  0  0  0
 24 25  2  0  0  0  0
 24 26  1  0  0  0  0
 20 21  1  0  0  0  0
 20 22  1  0  0  0  0
 20 23  1  0  0  0  0
 16 17  1  0  0  0  0
 16 18  1  0  0  0  0
 16 19  1  0  0  0  0
 14 15  1  0  0  0  0
 14 16  1  0  0  0  0
 14 20  1  0  0  0  0
 11 12  1  0  0  0  0
 11 13  1  0  0  0  0
 11 14  1  0  0  0  0
  9 10  1  0  0  0  0
  9 11  1  0  0  0  0
  9 24  1  0  0  0  0
  7  8  1  0  0  0  0
  7  9  1  0  0  0  0
 28 29  1  0  0  0  0
 28 30  1  0  0  0  0
 28 31  1  0  0  0  0
 26 27  1  0  0  0  0
 26 28  1  0  0  0  0
M  END
$$$$
default_name
  -OEChem-02102213163D

 31 30  0     1  0  0  0  0  0999 V2000
   -3.5895   -3.5013    1.1082 H   0  0  0  0  0  0  0  0  0  0  0  0
   -3.5145   -2.5363    0.6082 C   0  0  0  0  0  0  0  0  0  0  0  0
   -4.2285   -1.8413    1.0452 H   0  0  0  0  0  0  0  0  0  0  0  0
   -3.7155   -2.6583   -0.4538 H   0  0  0  0  0  0  0  0  0  0  0  0
   -2.1155   -1.9963    0.7922 C   0  0  0  0  0  0  0  0  0  0  0  0
   -1.2875   -2.6383    1.4252 O   0  0  0  0  0  0  0  0  0  0  0  0
   -1.8575   -0.8123    0.2402 N   0  0  0  0  0  0  0  0  0  0  0  0
   -2.6005   -0.3333   -0.2478 H   0  0  0  0  0  0  0  0  0  0  0  0
   -0.5675   -0.1203    0.3102 C   0  0  1  0  0  0  0  0  0  0  0  0
    0.0191   -0.5718    1.1110 H   0  0  0  0  0  0  0  0  0  0  0  0
    0.1724   -0.3238   -1.0286 C   0  0  0  0  0  0  0  0  0  0  0  0
    1.2460   -0.3527   -0.8327 H   0  0  0  0  0  0  0  0  0  0  0  0
   -0.1170   -1.2979   -1.4292 H   0  0  0  0  0  0  0  0  0  0  0  0
   -0.0966    0.7383   -2.1104 C   0  0  0  0  0  0  0  0  0  0  0  0
   -0.5895    1.6019   -1.6639 H   0  0  0  0  0  0  0  0  0  0  0  0
    1.1898    1.2009   -2.8006 C   0  0  0  0  0  0  0  0  0  0  0  0
    1.7036    0.3443   -3.2392 H   0  0  0  0  0  0  0  0  0  0  0  0
    0.9475    1.9134   -3.5894 H   0  0  0  0  0  0  0  0  0  0  0  0
    1.8538    1.6875   -2.0894 H   0  0  0  0  0  0  0  0  0  0  0  0
   -1.0257    0.1633   -3.1788 C   0  0  0  0  0  0  0  0  0  0  0  0
   -1.9649   -0.1459   -2.7202 H   0  0  0  0  0  0  0  0  0  0  0  0
   -1.2398    0.9222   -3.9313 H   0  0  0  0  0  0  0  0  0  0  0  0
   -0.5590   -0.6977   -3.6586 H   0  0  0  0  0  0  0  0  0  0  0  0
   -0.7793    1.3659    0.6455 C   0  0  0  0  0  0  0  0  0  0  0  0
   -1.6464    2.0125    0.0623 O   0  0  0  0  0  0  0  0  0  0  0  0
    0.0189    1.9059    1.5756 N   0  0  0  0  0  0  0  0  0  0  0  0
    0.7024    1.3094    2.0137 H   0  0  0  0  0  0  0  0  0  0  0  0
   -0.0451    3.3046    1.9929 C   0  0  0  0  0  0  0  0  0  0  0  0
   -1.0415    3.5286    2.3805 H   0  0  0  0  0  0  0  0  0  0  0  0
    0.6954    3.5023    2.7695 H   0  0  0  0  0  0  0  0  0  0  0  0
    0.1474    3.9536    1.1372 H   0  0  0  0  0  0  0  0  0  0  0  0
  5  6  2  0  0  0  0
  5  7  1  0  0  0  0
  2  3  1  0  0  0  0
  2  4  1  0  0  0  0
  2  5  1  0  0  0  0
  1  2  1  0  0  0  0
 24 25  2  0  0  0  0
 24 26  1  0  0  0  0
 20 21  1  0  0  0  0
 20 22  1  0  0  0  0
 20 23  1  0  0  0  0
 16 17  1  0  0  0  0
 16 18  1  0  0  0  0
 16 19  1  0  0  0  0
 14 15  1  0  0  0  0
 14 16  1  0  0  0  0
 14 20  1  0  0  0  0
 11 12  1  0  0  0  0
 11 13  1  0  0  0  0
 11 14  1  0  0  0  0
  9 10  1  0  0  0  0
  9 11  1  0  0  0  0
  9 24  1  0  0  0  0
  7  8  1  0  0  0  0
  7  9  1  0  0  0  0
 28 29  1  0  0  0  0
 28 30  1  0  0  0  0
 28 31  1  0  0  0  0
 26 27  1  0  0  0  0
 26 28  1  0  0  0  0
M  END
$$$$
default_name
  -OEChem-02102213163D

 31 30  0     1  0  0  0  0  0999 V2000
   -3.5895   -3.5013    1.1082 H   0  0  0  0  0  0  0  0  0  0  0  0
   -3.5145   -2.5363    0.6082 C   0  0  0  0  0  0  0  0  0  0  0  0
   -4.2285   -1.8413    1.0452 H   0  0  0  0  0  0  0  0  0  0  0  0
   -3.7155   -2.6583   -0.4538 H   0  0  0  0  0  0  0  0  0  0  0  0
   -2.1155   -1.9963    0.7922 C   0  0  0  0  0  0  0  0  0  0  0  0
   -1.2875   -2.6383    1.4252 O   0  0  0  0  0  0  0  0  0  0  0  0
   -1.8575   -0.8123    0.2402 N   0  0  0  0  0  0  0  0  0  0  0  0
   -2.6005   -0.3333   -0.2478 H   0  0  0  0  0  0  0  0  0  0  0  0
   -0.5675   -0.1203    0.3102 C   0  0  1  0  0  0  0  0  0  0  0  0
    0.0191   -0.5718    1.1110 H   0  0  0  0  0  0  0  0  0  0  0  0
    0.1724   -0.3238   -1.0286 C   0  0  0  0  0  0  0  0  0  0  0  0
    1.2460   -0.3527   -0.8327 H   0  0  0  0  0  0  0  0  0  0  0  0
   -0.1170   -1.2979   -1.4292 H   0  0  0  0  0  0  0  0  0  0  0  0
   -0.0966    0.7383   -2.1104 C   0  0  0  0  0  0  0  0  0  0  0  0
   -0.3382    1.6910   -1.6390 H   0  0  0  0  0  0  0  0  0  0  0  0
    1.1034    0.9336   -3.0416 C   0  0  0  0  0  0  0  0  0  0  0  0
    1.3679   -0.0158   -3.5093 H   0  0  0  0  0  0  0  0  0  0  0  0
    0.8516    1.6558   -3.8185 H   0  0  0  0  0  0  0  0  0  0  0  0
    1.9619    1.3085   -2.4884 H   0  0  0  0  0  0  0  0  0  0  0  0
   -1.2924    0.3157   -2.9629 C   0  0  0  0  0  0  0  0  0  0  0  0
   -2.1717    0.1998   -2.3293 H   0  0  0  0  0  0  0  0  0  0  0  0
   -1.5021    1.0792   -3.7119 H   0  0  0  0  0  0  0  0  0  0  0  0
   -1.0818   -0.6305   -3.4627 H   0  0  0  0  0  0  0  0  0  0  0  0
   -0.7793    1.3659    0.6455 C   0  0  0  0  0  0  0  0  0  0  0  0
   -1.6464    2.0125    0.0623 O   0  0  0  0  0  0  0  0  0  0  0  0
    0.0189    1.9059    1.5756 N   0  0  0  0  0  0  0  0  0  0  0  0
    0.7024    1.3094    2.0137 H   0  0  0  0  0  0  0  0  0  0  0  0
   -0.0451    3.3046    1.9929 C   0  0  0  0  0  0  0  0  0  0  0  0
   -1.0415    3.5286    2.3805 H   0  0  0  0  0  0  0  0  0  0  0  0
    0.6954    3.5023    2.7695 H   0  0  0  0  0  0  0  0  0  0  0  0
    0.1474    3.9536    1.1372 H   0  0  0  0  0  0  0  0  0  0  0  0
  5  6  2  0  0  0  0
  5  7  1  0  0  0  0
  2  3  1  0  0  0  0
  2  4  1  0  0  0  0
  2  5  1  0  0  0  0
  1  2  1  0  0  0  0
 24 25  2  0  0  0  0
 24 26  1  0  0  0  0
 20 21  1  0  0  0  0
 20 22  1  0  0  0  0
 20 23  1  0  0  0  0
 16 17  1  0  0  0  0
 16 18  1  0  0  0  0
 16 19  1  0  0  0  0
 14 15  1  0  0  0  0
 14 16  1  0  0  0  0
 14 20  1  0  0  0  0
 11 12  1  0  0  0  0
 11 13  1  0  0  0  0
 11 14  1  0  0  0  0
  9 10  1  0  0  0  0
  9 11  1  0  0  0  0
  9 24  1  0  0  0  0
  7  8  1  0  0  0  0
  7  9  1  0  0  0  0
 28 29  1  0  0  0  0
 28 30  1  0  0  0  0
 28 31  1  0  0  0  0
 26 27  1  0  0  0  0
 26 28  1  0  0  0  0
M  END
$$$$
default_name
  -OEChem-02102213163D

 31 30  0     1  0  0  0  0  0999 V2000
   -3.5895   -3.5013    1.1082 H   0  0  0  0  0  0  0  0  0  0  0  0
   -3.5145   -2.5363    0.6082 C   0  0  0  0  0  0  0  0  0  0  0  0
   -4.2285   -1.8413    1.0452 H   0  0  0  0  0  0  0  0  0  0  0  0
   -3.7155   -2.6583   -0.4538 H   0  0  0  0  0  0  0  0  0  0  0  0
   -2.1155   -1.9963    0.7922 C   0  0  0  0  0  0  0  0  0  0  0  0
   -1.2875   -2.6383    1.4252 O   0  0  0  0  0  0  0  0  0  0  0  0
   -1.8575   -0.8123    0.2402 N   0  0  0  0  0  0  0  0  0  0  0  0
   -2.6005   -0.3333   -0.2478 H   0  0  0  0  0  0  0  0  0  0  0  0
   -0.5675   -0.1203    0.3102 C   0  0  1  0  0  0  0  0  0  0  0  0
    0.0191   -0.5718    1.1110 H   0  0  0  0  0  0  0  0  0  0  0  0
    0.1724   -0.3238   -1.0286 C   0  0  0  0  0  0  0  0  0  0  0  0
    1.2460   -0.3527   -0.8327 H   0  0  0  0  0  0  0  0  0  0  0  0
   -0.1170   -1.2979   -1.4292 H   0  0  0  0  0  0  0  0  0  0  0  0
   -0.0966    0.7383   -2.1104 C   0  0  0  0  0  0  0  0  0  0  0  0
   -0.0747    1.7324   -1.6638 H   0  0  0  0  0  0  0  0  0  0  0  0
    0.9284    0.6803   -3.2468 C   0  0  0  0  0  0  0  0  0  0  0  0
    0.9298   -0.3147   -3.6939 H   0  0  0  0  0  0  0  0  0  0  0  0
    0.6712    1.4141   -4.0110 H   0  0  0  0  0  0  0  0  0  0  0  0
    1.9262    0.9047   -2.8760 H   0  0  0  0  0  0  0  0  0  0  0  0
   -1.4838    0.5211   -2.7136 C   0  0  0  0  0  0  0  0  0  0  0  0
   -2.2389    0.5891   -1.9305 H   0  0  0  0  0  0  0  0  0  0  0  0
   -1.6877    1.2885   -3.4603 H   0  0  0  0  0  0  0  0  0  0  0  0
   -1.5396   -0.4617   -3.1830 H   0  0  0  0  0  0  0  0  0  0  0  0
   -0.7793    1.3659    0.6455 C   0  0  0  0  0  0  0  0  0  0  0  0
   -1.6464    2.0125    0.0623 O   0  0  0  0  0  0  0  0  0  0  0  0
    0.0189    1.9059    1.5756 N   0  0  0  0  0  0  0  0  0  0  0  0
    0.7024    1.3094    2.0137 H   0  0  0  0  0  0  0  0  0  0  0  0
   -0.0451    3.3046    1.9929 C   0  0  0  0  0  0  0  0  0  0  0  0
   -1.0415    3.5286    2.3805 H   0  0  0  0  0  0  0  0  0  0  0  0
    0.6954    3.5023    2.7695 H   0  0  0  0  0  0  0  0  0  0  0  0
    0.1474    3.9536    1.1372 H   0  0  0  0  0  0  0  0  0  0  0  0
  5  6  2  0  0  0  0
  5  7  1  0  0  0  0
  2  3  1  0  0  0  0
  2  4  1  0  0  0  0
  2  5  1  0  0  0  0
  1  2  1  0  0  0  0
 24 25  2  0  0  0  0
 24 26  1  0  0  0  0
 20 21  1  0  0  0  0
 20 22  1  0  0  0  0
 20 23  1  0  0  0  0
 16 17  1  0  0  0  0
 16 18  1  0  0  0  0
 16 19  1  0  0  0  0
 14 15  1  0  0  0  0
 14 16  1  0  0  0  0
 14 20  1  0  0  0  0
 11 12  1  0  0  0  0
 11 13  1  0  0  0  0
 11 14  1  0  0  0  0
  9 10  1  0  0  0  0
  9 11  1  0  0  0  0
  9 24  1  0  0  0  0
  7  8  1  0  0  0  0
  7  9  1  0  0  0  0
 28 29  1  0  0  0  0
 28 30  1  0  0  0  0
 28 31  1  0  0  0  0
 26 27  1  0  0  0  0
 26 28  1  0  0  0  0
M  END
$$$$
default_name
  -OEChem-02102213163D

 31 30  0     1  0  0  0  0  0999 V2000
   -3.5895   -3.5013    1.1082 H   0  0  0  0  0  0  0  0  0  0  0  0
   -3.5145   -2.5363    0.6082 C   0  0  0  0  0  0  0  0  0  0  0  0
   -4.2285   -1.8413    1.0452 H   0  0  0  0  0  0  0  0  0  0  0  0
   -3.7155   -2.6583   -0.4538 H   0  0  0  0  0  0  0  0  0  0  0  0
   -2.1155   -1.9963    0.7922 C   0  0  0  0  0  0  0  0  0  0  0  0
   -1.2875   -2.6383    1.4252 O   0  0  0  0  0  0  0  0  0  0  0  0
   -1.8575   -0.8123    0.2402 N   0  0  0  0  0  0  0  0  0  0  0  0
   -2.6005   -0.3333   -0.2478 H   0  0  0  0  0  0  0  0  0  0  0  0
   -0.5675   -0.1203    0.3102 C   0  0  1  0  0  0  0  0  0  0  0  0
    0.0191   -0.5718    1.1110 H   0  0  0  0  0  0  0  0  0  0  0  0
    0.1724   -0.3238   -1.0286 C   0  0  0  0  0  0  0  0  0  0  0  0
    1.2020   -0.6187   -0.8166 H   0  0  0  0  0  0  0  0  0  0  0  0
   -0.3067   -1.1515   -1.5563 H   0  0  0  0  0  0  0  0  0  0  0  0
    0.1990    0.8938   -1.9707 C   0  0  0  0  0  0  0  0  0  0  0  0
    0.6721    1.7376   -1.4685 H   0  0  0  0  0  0  0  0  0  0  0  0
    0.9519    0.6029   -3.2722 C   0  0  0  0  0  0  0  0  0  0  0  0
    0.4996   -0.2505   -3.7791 H   0  0  0  0  0  0  0  0  0  0  0  0
    0.9032    1.4733   -3.9269 H   0  0  0  0  0  0  0  0  0  0  0  0
    1.9978    0.3826   -3.0699 H   0  0  0  0  0  0  0  0  0  0  0  0
   -1.2298    1.2986   -2.3316 C   0  0  0  0  0  0  0  0  0  0  0  0
   -1.7819    1.5430   -1.4242 H   0  0  0  0  0  0  0  0  0  0  0  0
   -1.2145    2.1773   -2.9763 H   0  0  0  0  0  0  0  0  0  0  0  0
   -1.7324    0.4809   -2.8495 H   0  0  0  0  0  0  0  0  0  0  0  0
   -0.7793    1.3659    0.6455 C   0  0  0  0  0  0  0  0  0  0  0  0
   -1.6464    2.0125    0.0623 O   0  0  0  0  0  0  0  0  0  0  0  0
    0.0189    1.9059    1.5756 N   0  0  0  0  0  0  0  0  0  0  0  0
    0.7024    1.3094    2.0137 H   0  0  0  0  0  0  0  0  0  0  0  0
   -0.0451    3.3046    1.9929 C   0  0  0  0  0  0  0  0  0  0  0  0
   -1.0415    3.5286    2.3805 H   0  0  0  0  0  0  0  0  0  0  0  0
    0.6954    3.5023    2.7695 H   0  0  0  0  0  0  0  0  0  0  0  0
    0.1474    3.9536    1.1372 H   0  0  0  0  0  0  0  0  0  0  0  0
  5  6  2  0  0  0  0
  5  7  1  0  0  0  0
  2  3  1  0  0  0  0
  2  4  1  0  0  0  0
  2  5  1  0  0  0  0
  1  2  1  0  0  0  0
 24 25  2  0  0  0  0
 24 26  1  0  0  0  0
 20 21  1  0  0  0  0
 20 22  1  0  0  0  0
 20 23  1  0  0  0  0
 16 17  1  0  0  0  0
 16 18  1  0  0  0  0
 16 19  1  0  0  0  0
 14 15  1  0  0  0  0
 14 16  1  0  0  0  0
 14 20  1  0  0  0  0
 11 12  1  0  0  0  0
 11 13  1  0  0  0  0
 11 14  1  0  0  0  0
  9 10  1  0  0  0  0
  9 11  1  0  0  0  0
  9 24  1  0  0  0  0
  7  8  1  0  0  0  0
  7  9  1  0  0  0  0
 28 29  1  0  0  0  0
 28 30  1  0  0  0  0
 28 31  1  0  0  0  0
 26 27  1  0  0  0  0
 26 28  1  0  0  0  0
M  END
$$$$
default_name
  -OEChem-02102213163D

 31 30  0     1  0  0  0  0  0999 V2000
   -3.5895   -3.5013    1.1082 H   0  0  0  0  0  0  0  0  0  0  0  0
   -3.5145   -2.5363    0.6082 C   0  0  0  0  0  0  0  0  0  0  0  0
   -4.2285   -1.8413    1.0452 H   0  0  0  0  0  0  0  0  0  0  0  0
   -3.7155   -2.6583   -0.4538 H   0  0  0  0  0  0  0  0  0  0  0  0
   -2.1155   -1.9963    0.7922 C   0  0  0  0  0  0  0  0  0  0  0  0
   -1.2875   -2.6383    1.4252 O   0  0  0  0  0  0  0  0  0  0  0  0
   -1.8575   -0.8123    0.2402 N   0  0  0  0  0  0  0  0  0  0  0  0
   -2.6005   -0.3333   -0.2478 H   0  0  0  0  0  0  0  0  0  0  0  0
   -0.5675   -0.1203    0.3102 C   0  0  1  0  0  0  0  0  0  0  0  0
    0.0191   -0.5718    1.1110 H   0  0  0  0  0  0  0  0  0  0  0  0
    0.1724   -0.3238   -1.0286 C   0  0  0  0  0  0  0  0  0  0  0  0
    1.2020   -0.6187   -0.8166 H   0  0  0  0  0  0  0  0  0  0  0  0
   -0.3067   -1.1515   -1.5563 H   0  0  0  0  0  0  0  0  0  0  0  0
    0.1990    0.8938   -1.9707 C   0  0  0  0  0  0  0  0  0  0  0  0
    0.8926    1.6416   -1.5863 H   0  0  0  0  0  0  0  0  0  0  0  0
    0.6142    0.5150   -3.3953 C   0  0  0  0  0  0  0  0  0  0  0  0
   -0.0619   -0.2455   -3.7884 H   0  0  0  0  0  0  0  0  0  0  0  0
    0.5716    1.3957   -4.0365 H   0  0  0  0  0  0  0  0  0  0  0  0
    1.6308    0.1281   -3.4091 H   0  0  0  0  0  0  0  0  0  0  0  0
   -1.1906    1.5265   -2.0359 C   0  0  0  0  0  0  0  0  0  0  0  0
   -1.4997    1.8361   -1.0375 H   0  0  0  0  0  0  0  0  0  0  0  0
   -1.1679    2.4052   -2.6805 H   0  0  0  0  0  0  0  0  0  0  0  0
   -1.9117    0.8096   -2.4298 H   0  0  0  0  0  0  0  0  0  0  0  0
   -0.7793    1.3659    0.6455 C   0  0  0  0  0  0  0  0  0  0  0  0
   -1.6464    2.0125    0.0623 O   0  0  0  0  0  0  0  0  0  0  0  0
    0.0189    1.9059    1.5756 N   0  0  0  0  0  0  0  0  0  0  0  0
    0.7024    1.3094    2.0137 H   0  0  0  0  0  0  0  0  0  0  0  0
   -0.0451    3.3046    1.9929 C   0  0  0  0  0  0  0  0  0  0  0  0
   -1.0415    3.5286    2.3805 H   0  0  0  0  0  0  0  0  0  0  0  0
    0.6954    3.5023    2.7695 H   0  0  0  0  0  0  0  0  0  0  0  0
    0.1474    3.9536    1.1372 H   0  0  0  0  0  0  0  0  0  0  0  0
  5  6  2  0  0  0  0
  5  7  1  0  0  0  0
  2  3  1  0  0  0  0
  2  4  1  0  0  0  0
  2  5  1  0  0  0  0
  1  2  1  0  0  0  0
 24 25  2  0  0  0  0
 24 26  1  0  0  0  0
 20 21  1  0  0  0  0
 20 22  1  0  0  0  0
 20 23  1  0  0  0  0
 16 17  1  0  0  0  0
 16 18  1  0  0  0  0
 16 19  1  0  0  0  0
 14 15  1  0  0  0  0
 14 16  1  0  0  0  0
 14 20  1  0  0  0  0
 11 12  1  0  0  0  0
 11 13  1  0  0  0  0
 11 14  1  0  0  0  0
  9 10  1  0  0  0  0
  9 11  1  0  0  0  0
  9 24  1  0  0  0  0
  7  8  1  0  0  0  0
  7  9  1  0  0  0  0
 28 29  1  0  0  0  0
 28 30  1  0  0  0  0
 28 31  1  0  0  0  0
 26 27  1  0  0  0  0
 26 28  1  0  0  0  0
M  END
$$$$
default_name
  -OEChem-02102213163D

 31 30  0     1  0  0  0  0  0999 V2000
   -3.5895   -3.5013    1.1082 H   0  0  0  0  0  0  0  0  0  0  0  0
   -3.5145   -2.5363    0.6082 C   0  0  0  0  0  0  0  0  0  0  0  0
   -4.2285   -1.8413    1.0452 H   0  0  0  0  0  0  0  0  0  0  0  0
   -3.7155   -2.6583   -0.4538 H   0  0  0  0  0  0  0  0  0  0  0  0
   -2.1155   -1.9963    0.7922 C   0  0  0  0  0  0  0  0  0  0  0  0
   -1.2875   -2.6383    1.4252 O   0  0  0  0  0  0  0  0  0  0  0  0
   -1.8575   -0.8123    0.2402 N   0  0  0  0  0  0  0  0  0  0  0  0
   -2.6005   -0.3333   -0.2478 H   0  0  0  0  0  0  0  0  0  0  0  0
   -0.5675   -0.1203    0.3102 C   0  0  1  0  0  0  0  0  0  0  0  0
    0.0191   -0.5718    1.1110 H   0  0  0  0  0  0  0  0  0  0  0  0
    0.1724   -0.3238   -1.0286 C   0  0  0  0  0  0  0  0  0  0  0  0
    1.2020   -0.6187   -0.8166 H   0  0  0  0  0  0  0  0  0  0  0  0
   -0.3067   -1.1515   -1.5563 H   0  0  0  0  0  0  0  0  0  0  0  0
    0.1990    0.8938   -1.9707 C   0  0  0  0  0  0  0  0  0  0  0  0
    1.0663    1.5145   -1.7457 H   0  0  0  0  0  0  0  0  0  0  0  0
    0.2488    0.4841   -3.4455 C   0  0  0  0  0  0  0  0  0  0  0  0
   -0.6053   -0.1517   -3.6825 H   0  0  0  0  0  0  0  0  0  0  0  0
    0.2166    1.3738   -4.0749 H   0  0  0  0  0  0  0  0  0  0  0  0
    1.1665   -0.0581   -3.6628 H   0  0  0  0  0  0  0  0  0  0  0  0
   -1.0560    1.7392   -1.7572 C   0  0  0  0  0  0  0  0  0  0  0  0
   -1.1015    2.0727   -0.7205 H   0  0  0  0  0  0  0  0  0  0  0  0
   -1.0264    2.6166   -2.4033 H   0  0  0  0  0  0  0  0  0  0  0  0
   -1.9470    1.1535   -1.9863 H   0  0  0  0  0  0  0  0  0  0  0  0
   -0.7793    1.3659    0.6455 C   0  0  0  0  0  0  0  0  0  0  0  0
   -1.6464    2.0125    0.0623 O   0  0  0  0  0  0  0  0  0  0  0  0
    0.0189    1.9059    1.5756 N   0  0  0  0  0  0  0  0  0  0  0  0
    0.7024    1.3094    2.0137 H   0  0  0  0  0  0  0  0  0  0  0  0
   -0.0451    3.3046    1.9929 C   0  0  0  0  0  0  0  0  0  0  0  0
   -1.0415    3.5286    2.3805 H   0  0  0  0  0  0  0  0  0  0  0  0
    0.6954    3.5023    2.7695 H   0  0  0  0  0  0  0  0  0  0  0  0
    0.1474    3.9536    1.1372 H   0  0  0  0  0  0  0  0  0  0  0  0
  5  6  2  0  0  0  0
  5  7  1  0  0  0  0
  2  3  1  0  0  0  0
  2  4  1  0  0  0  0
  2  5  1  0  0  0  0
  1  2  1  0  0  0  0
 24 25  2  0  0  0  0
 24 26  1  0  0  0  0
 20 21  1  0  0  0  0
 20 22  1  0  0  0  0
 20 23  1  0  0  0  0
 16 17  1  0  0  0  0
 16 18  1  0  0  0  0
 16 19  1  0  0  0  0
 14 15  1  0  0  0  0
 14 16  1  0  0  0  0
 14 20  1  0  0  0  0
 11 12  1  0  0  0  0
 11 13  1  0  0  0  0
 11 14  1  0  0  0  0
  9 10  1  0  0  0  0
  9 11  1  0  0  0  0
  9 24  1  0  0  0  0
  7  8  1  0  0  0  0
  7  9  1  0  0  0  0
 28 29  1  0  0  0  0
 28 30  1  0  0  0  0
 28 31  1  0  0  0  0
 26 27  1  0  0  0  0
 26 28  1  0  0  0  0
M  END
$$$$
default_name
  -OEChem-02102213163D

 31 30  0     1  0  0  0  0  0999 V2000
   -3.5895   -3.5013    1.1082 H   0  0  0  0  0  0  0  0  0  0  0  0
   -3.5145   -2.5363    0.6082 C   0  0  0  0  0  0  0  0  0  0  0  0
   -4.2285   -1.8413    1.0452 H   0  0  0  0  0  0  0  0  0  0  0  0
   -3.7155   -2.6583   -0.4538 H   0  0  0  0  0  0  0  0  0  0  0  0
   -2.1155   -1.9963    0.7922 C   0  0  0  0  0  0  0  0  0  0  0  0
   -1.2875   -2.6383    1.4252 O   0  0  0  0  0  0  0  0  0  0  0  0
   -1.8575   -0.8123    0.2402 N   0  0  0  0  0  0  0  0  0  0  0  0
   -2.6005   -0.3333   -0.2478 H   0  0  0  0  0  0  0  0  0  0  0  0
   -0.5675   -0.1203    0.3102 C   0  0  1  0  0  0  0  0  0  0  0  0
    0.0191   -0.5718    1.1110 H   0  0  0  0  0  0  0  0  0  0  0  0
    0.1724   -0.3238   -1.0286 C   0  0  0  0  0  0  0  0  0  0  0  0
    1.2020   -0.6187   -0.8166 H   0  0  0  0  0  0  0  0  0  0  0  0
   -0.3067   -1.1515   -1.5563 H   0  0  0  0  0  0  0  0  0  0  0  0
    0.1990    0.8938   -1.9707 C   0  0  0  0  0  0  0  0  0  0  0  0
    1.1813    1.3649   -1.9358 H   0  0  0  0  0  0  0  0  0  0  0  0
   -0.1193    0.5124   -3.4194 C   0  0  0  0  0  0  0  0  0  0  0  0
   -1.0937    0.0246   -3.4686 H   0  0  0  0  0  0  0  0  0  0  0  0
   -0.1377    1.4089   -4.0394 H   0  0  0  0  0  0  0  0  0  0  0  0
    0.6367   -0.1633   -3.8137 H   0  0  0  0  0  0  0  0  0  0  0  0
   -0.8354    1.9221   -1.5146 C   0  0  0  0  0  0  0  0  0  0  0  0
   -0.6145    2.2368   -0.4947 H   0  0  0  0  0  0  0  0  0  0  0  0
   -0.7994    2.7971   -2.1636 H   0  0  0  0  0  0  0  0  0  0  0  0
   -1.8358    1.4894   -1.5491 H   0  0  0  0  0  0  0  0  0  0  0  0
   -0.7793    1.3659    0.6455 C   0  0  0  0  0  0  0  0  0  0  0  0
   -1.6464    2.0125    0.0623 O   0  0  0  0  0  0  0  0  0  0  0  0
    0.0189    1.9059    1.5756 N   0  0  0  0  0  0  0  0  0  0  0  0
    0.7024    1.3094    2.0137 H   0  0  0  0  0  0  0  0  0  0  0  0
   -0.0451    3.3046    1.9929 C   0  0  0  0  0  0  0  0  0  0  0  0
   -1.0415    3.5286    2.3805 H   0  0  0  0  0  0  0  0  0  0  0  0
    0.6954    3.5023    2.7695 H   0  0  0  0  0  0  0  0  0  0  0  0
    0.1474    3.9536    1.1372 H   0  0  0  0  0  0  0  0  0  0  0  0
  5  6  2  0  0  0  0
  5  7  1  0  0  0  0
  2  3  1  0  0  0  0
  2  4  1  0  0  0  0
  2  5  1  0  0  0  0
  1  2  1  0  0  0  0
 24 25  2  0  0  0  0
 24 26  1  0  0  0  0
 20 21  1  0  0  0  0
 20 22  1  0  0  0  0
 20 23  1  0  0  0  0
 16 17  1  0  0  0  0
 16 18  1  0  0  0  0
 16 19  1  0  0  0  0
 14 15  1  0  0  0  0
 14 16  1  0  0  0  0
 14 20  1  0  0  0  0
 11 12  1  0  0  0  0
 11 13  1  0  0  0  0
 11 14  1  0  0  0  0
  9 10  1  0  0  0  0
  9 11  1  0  0  0  0
  9 24  1  0  0  0  0
  7  8  1  0  0  0  0
  7  9  1  0  0  0  0
 28 29  1  0  0  0  0
 28 30  1  0  0  0  0
 28 31  1  0  0  0  0
 26 27  1  0  0  0  0
 26 28  1  0  0  0  0
M  END
$$$$
default_name
  -OEChem-02102213163D

 31 30  0     1  0  0  0  0  0999 V2000
   -3.5895   -3.5013    1.1082 H   0  0  0  0  0  0  0  0  0  0  0  0
   -3.5145   -2.5363    0.6082 C   0  0  0  0  0  0  0  0  0  0  0  0
   -4.2285   -1.8413    1.0452 H   0  0  0  0  0  0  0  0  0  0  0  0
   -3.7155   -2.6583   -0.4538 H   0  0  0  0  0  0  0  0  0  0  0  0
   -2.1155   -1.9963    0.7922 C   0  0  0  0  0  0  0  0  0  0  0  0
   -1.2875   -2.6383    1.4252 O   0  0  0  0  0  0  0  0  0  0  0  0
   -1.8575   -0.8123    0.2402 N   0  0  0  0  0  0  0  0  0  0  0  0
   -2.6005   -0.3333   -0.2478 H   0  0  0  0  0  0  0  0  0  0  0  0
   -0.5675   -0.1203    0.3102 C   0  0  1  0  0  0  0  0  0  0  0  0
    0.0191   -0.5718    1.1110 H   0  0  0  0  0  0  0  0  0  0  0  0
    0.1724   -0.3238   -1.0286 C   0  0  0  0  0  0  0  0  0  0  0  0
    1.2020   -0.6187   -0.8166 H   0  0  0  0  0  0  0  0  0  0  0  0
   -0.3067   -1.1515   -1.5563 H   0  0  0  0  0  0  0  0  0  0  0  0
    0.1990    0.8938   -1.9707 C   0  0  0  0  0  0  0  0  0  0  0  0
    1.2298    1.2030   -2.1436 H   0  0  0  0  0  0  0  0  0  0  0  0
   -0.4650    0.5979   -3.3187 C   0  0  0  0  0  0  0  0  0  0  0  0
   -1.4937    0.2711   -3.1612 H   0  0  0  0  0  0  0  0  0  0  0  0
   -0.4671    1.4989   -3.9325 H   0  0  0  0  0  0  0  0  0  0  0  0
    0.0774   -0.1803   -3.8514 H   0  0  0  0  0  0  0  0  0  0  0  0
   -0.5436    2.0628   -1.3246 C   0  0  0  0  0  0  0  0  0  0  0  0
   -0.0720    2.3171   -0.3755 H   0  0  0  0  0  0  0  0  0  0  0  0
   -0.5025    2.9345   -1.9777 H   0  0  0  0  0  0  0  0  0  0  0  0
   -1.5858    1.7942   -1.1480 H   0  0  0  0  0  0  0  0  0  0  0  0
   -0.7793    1.3659    0.6455 C   0  0  0  0  0  0  0  0  0  0  0  0
   -1.6464    2.0125    0.0623 O   0  0  0  0  0  0  0  0  0  0  0  0
    0.0189    1.9059    1.5756 N   0  0  0  0  0  0  0  0  0  0  0  0
    0.7024    1.3094    2.0137 H   0  0  0  0  0  0  0  0  0  0  0  0
   -0.0451    3.3046    1.9929 C   0  0  0  0  0  0  0  0  0  0  0  0
   -1.0415    3.5286    2.3805 H   0  0  0  0  0  0  0  0  0  0  0  0
    0.6954    3.5023    2.7695 H   0  0  0  0  0  0  0  0  0  0  0  0
    0.1474    3.9536    1.1372 H   0  0  0  0  0  0  0  0  0  0  0  0
  5  6  2  0  0  0  0
  5  7  1  0  0  0  0
  2  3  1  0  0  0  0
  2  4  1  0  0  0  0
  2  5  1  0  0  0  0
  1  2  1  0  0  0  0
 24 25  2  0  0  0  0
 24 26  1  0  0  0  0
 20 21  1  0  0  0  0
 20 22  1  0  0  0  0
 20 23  1  0  0  0  0
 16 17  1  0  0  0  0
 16 18  1  0  0  0  0
 16 19  1  0  0  0  0
 14 15  1  0  0  0  0
 14 16  1  0  0  0  0
 14 20  1  0  0  0  0
 11 12  1  0  0  0  0
 11 13  1  0  0  0  0
 11 14  1  0  0  0  0
  9 10  1  0  0  0  0
  9 11  1  0  0  0  0
  9 24  1  0  0  0  0
  7  8  1  0  0  0  0
  7  9  1  0  0  0  0
 28 29  1  0  0  0  0
 28 30  1  0  0  0  0
 28 31  1  0  0  0  0
 26 27  1  0  0  0  0
 26 28  1  0  0  0  0
M  END
$$$$
default_name
  -OEChem-02102213163D

 31 30  0     1  0  0  0  0  0999 V2000
   -3.5895   -3.5013    1.1082 H   0  0  0  0  0  0  0  0  0  0  0  0
   -3.5145   -2.5363    0.6082 C   0  0  0  0  0  0  0  0  0  0  0  0
   -4.2285   -1.8413    1.0452 H   0  0  0  0  0  0  0  0  0  0  0  0
   -3.7155   -2.6583   -0.4538 H   0  0  0  0  0  0  0  0  0  0  0  0
   -2.1155   -1.9963    0.7922 C   0  0  0  0  0  0  0  0  0  0  0  0
   -1.2875   -2.6383    1.4252 O   0  0  0  0  0  0  0  0  0  0  0  0
   -1.8575   -0.8123    0.2402 N   0  0  0  0  0  0  0  0  0  0  0  0
   -2.6005   -0.3333   -0.2478 H   0  0  0  0  0  0  0  0  0  0  0  0
   -0.5675   -0.1203    0.3102 C   0  0  1  0  0  0  0  0  0  0  0  0
    0.0191   -0.5718    1.1110 H   0  0  0  0  0  0  0  0  0  0  0  0
    0.1724   -0.3238   -1.0286 C   0  0  0  0  0  0  0  0  0  0  0  0
    1.2020   -0.6187   -0.8166 H   0  0  0  0  0  0  0  0  0  0  0  0
   -0.3067   -1.1515   -1.5563 H   0  0  0  0  0  0  0  0  0  0  0  0
    0.1990    0.8938   -1.9707 C   0  0  0  0  0  0  0  0  0  0  0  0
    1.2085    1.0399   -2.3550 H   0  0  0  0  0  0  0  0  0  0  0  0
   -0.7647    0.7347   -3.1503 C   0  0  0  0  0  0  0  0  0  0  0  0
   -1.7782    0.5713   -2.7812 H   0  0  0  0  0  0  0  0  0  0  0  0
   -0.7491    1.6374   -3.7614 H   0  0  0  0  0  0  0  0  0  0  0  0
   -0.4733   -0.1080   -3.7735 H   0  0  0  0  0  0  0  0  0  0  0  0
   -0.2006    2.1515   -1.2002 C   0  0  0  0  0  0  0  0  0  0  0  0
    0.4893    2.3083   -0.3711 H   0  0  0  0  0  0  0  0  0  0  0  0
   -0.1559    3.0193   -1.8582 H   0  0  0  0  0  0  0  0  0  0  0  0
   -1.2139    2.0473   -0.8105 H   0  0  0  0  0  0  0  0  0  0  0  0
   -0.7793    1.3659    0.6455 C   0  0  0  0  0  0  0  0  0  0  0  0
   -1.6464    2.0125    0.0623 O   0  0  0  0  0  0  0  0  0  0  0  0
    0.0189    1.9059    1.5756 N   0  0  0  0  0  0  0  0  0  0  0  0
    0.7024    1.3094    2.0137 H   0  0  0  0  0  0  0  0  0  0  0  0
   -0.0451    3.3046    1.9929 C   0  0  0  0  0  0  0  0  0  0  0  0
   -1.0415    3.5286    2.3805 H   0  0  0  0  0  0  0  0  0  0  0  0
    0.6954    3.5023    2.7695 H   0  0  0  0  0  0  0  0  0  0  0  0
    0.1474    3.9536    1.1372 H   0  0  0  0  0  0  0  0  0  0  0  0
  5  6  2  0  0  0  0
  5  7  1  0  0  0  0
  2  3  1  0  0  0  0
  2  4  1  0  0  0  0
  2  5  1  0  0  0  0
  1  2  1  0  0  0  0
 24 25  2  0  0  0  0
 24 26  1  0  0  0  0
 20 21  1  0  0  0  0
 20 22  1  0  0  0  0
 20 23  1  0  0  0  0
 16 17  1  0  0  0  0
 16 18  1  0  0  0  0
 16 19  1  0  0  0  0
 14 15  1  0  0  0  0
 14 16  1  0  0  0  0
 14 20  1  0  0  0  0
 11 12  1  0  0  0  0
 11 13  1  0  0  0  0
 11 14  1  0  0  0  0
  9 10  1  0  0  0  0
  9 11  1  0  0  0  0
  9 24  1  0  0  0  0
  7  8  1  0  0  0  0
  7  9  1  0  0  0  0
 28 29  1  0  0  0  0
 28 30  1  0  0  0  0
 28 31  1  0  0  0  0
 26 27  1  0  0  0  0
 26 28  1  0  0  0  0
M  END
$$$$
default_name
  -OEChem-02102213163D

 31 30  0     1  0  0  0  0  0999 V2000
   -3.5895   -3.5013    1.1082 H   0  0  0  0  0  0  0  0  0  0  0  0
   -3.5145   -2.5363    0.6082 C   0  0  0  0  0  0  0  0  0  0  0  0
   -4.2285   -1.8413    1.0452 H   0  0  0  0  0  0  0  0  0  0  0  0
   -3.7155   -2.6583   -0.4538 H   0  0  0  0  0  0  0  0  0  0  0  0
   -2.1155   -1.9963    0.7922 C   0  0  0  0  0  0  0  0  0  0  0  0
   -1.2875   -2.6383    1.4252 O   0  0  0  0  0  0  0  0  0  0  0  0
   -1.8575   -0.8123    0.2402 N   0  0  0  0  0  0  0  0  0  0  0  0
   -2.6005   -0.3333   -0.2478 H   0  0  0  0  0  0  0  0  0  0  0  0
   -0.5675   -0.1203    0.3102 C   0  0  1  0  0  0  0  0  0  0  0  0
    0.0191   -0.5718    1.1110 H   0  0  0  0  0  0  0  0  0  0  0  0
    0.1724   -0.3238   -1.0286 C   0  0  0  0  0  0  0  0  0  0  0  0
    1.2020   -0.6187   -0.8166 H   0  0  0  0  0  0  0  0  0  0  0  0
   -0.3067   -1.1515   -1.5563 H   0  0  0  0  0  0  0  0  0  0  0  0
    0.1990    0.8938   -1.9707 C   0  0  0  0  0  0  0  0  0  0  0  0
    1.1188    0.8867   -2.5555 H   0  0  0  0  0  0  0  0  0  0  0  0
   -0.9982    0.9136   -2.9256 C   0  0  0  0  0  0  0  0  0  0  0  0
   -1.9276    0.9046   -2.3547 H   0  0  0  0  0  0  0  0  0  0  0  0
   -0.9645    1.8151   -3.5378 H   0  0  0  0  0  0  0  0  0  0  0  0
   -0.9778    0.0488   -3.5852 H   0  0  0  0  0  0  0  0  0  0  0  0
    0.1702    2.1824   -1.1498 C   0  0  0  0  0  0  0  0  0  0  0  0
    1.0309    2.2109   -0.4817 H   0  0  0  0  0  0  0  0  0  0  0  0
    0.2168    3.0459   -1.8134 H   0  0  0  0  0  0  0  0  0  0  0  0
   -0.7455    2.2313   -0.5594 H   0  0  0  0  0  0  0  0  0  0  0  0
   -0.7793    1.3659    0.6455 C   0  0  0  0  0  0  0  0  0  0  0  0
   -1.6464    2.0125    0.0623 O   0  0  0  0  0  0  0  0  0  0  0  0
    0.0189    1.9059    1.5756 N   0  0  0  0  0  0  0  0  0  0  0  0
    0.7024    1.3094    2.0137 H   0  0  0  0  0  0  0  0  0  0  0  0
   -0.0451    3.3046    1.9929 C   0  0  0  0  0  0  0  0  0  0  0  0
   -1.0415    3.5286    2.3805 H   0  0  0  0  0  0  0  0  0  0  0  0
    0.6954    3.5023    2.7695 H   0  0  0  0  0  0  0  0  0  0  0  0
    0.1474    3.9536    1.1372 H   0  0  0  0  0  0  0  0  0  0  0  0
  5  6  2  0  0  0  0
  5  7  1  0  0  0  0
  2  3  1  0  0  0  0
  2  4  1  0  0  0  0
  2  5  1  0  0  0  0
  1  2  1  0  0  0  0
 24 25  2  0  0  0  0
 24 26  1  0  0  0  0
 20 21  1  0  0  0  0
 20 22  1  0  0  0  0
 20 23  1  0  0  0  0
 16 17  1  0  0  0  0
 16 18  1  0  0  0  0
 16 19  1  0  0  0  0
 14 15  1  0  0  0  0
 14 16  1  0  0  0  0
 14 20  1  0  0  0  0
 11 12  1  0  0  0  0
 11 13  1  0  0  0  0
 11 14  1  0  0  0  0
  9 10  1  0  0  0  0
  9 11  1  0  0  0  0
  9 24  1  0  0  0  0
  7  8  1  0  0  0  0
  7  9  1  0  0  0  0
 28 29  1  0  0  0  0
 28 30  1  0  0  0  0
 28 31  1  0  0  0  0
 26 27  1  0  0  0  0
 26 28  1  0  0  0  0
M  END
$$$$
default_name
  -OEChem-02102213163D

 31 30  0     1  0  0  0  0  0999 V2000
   -3.5895   -3.5013    1.1082 H   0  0  0  0  0  0  0  0  0  0  0  0
   -3.5145   -2.5363    0.6082 C   0  0  0  0  0  0  0  0  0  0  0  0
   -4.2285   -1.8413    1.0452 H   0  0  0  0  0  0  0  0  0  0  0  0
   -3.7155   -2.6583   -0.4538 H   0  0  0  0  0  0  0  0  0  0  0  0
   -2.1155   -1.9963    0.7922 C   0  0  0  0  0  0  0  0  0  0  0  0
   -1.2875   -2.6383    1.4252 O   0  0  0  0  0  0  0  0  0  0  0  0
   -1.8575   -0.8123    0.2402 N   0  0  0  0  0  0  0  0  0  0  0  0
   -2.6005   -0.3333   -0.2478 H   0  0  0  0  0  0  0  0  0  0  0  0
   -0.5675   -0.1203    0.3102 C   0  0  1  0  0  0  0  0  0  0  0  0
    0.0191   -0.5718    1.1110 H   0  0  0  0  0  0  0  0  0  0  0  0
    0.1724   -0.3238   -1.0286 C   0  0  0  0  0  0  0  0  0  0  0  0
    1.2020   -0.6187   -0.8166 H   0  0  0  0  0  0  0  0  0  0  0  0
   -0.3067   -1.1515   -1.5563 H   0  0  0  0  0  0  0  0  0  0  0  0
    0.1990    0.8938   -1.9707 C   0  0  0  0  0  0  0  0  0  0  0  0
    0.9668    0.7538   -2.7316 H   0  0  0  0  0  0  0  0  0  0  0  0
   -1.1493    1.1224   -2.6601 C   0  0  0  0  0  0  0  0  0  0  0  0
   -1.9319    1.2483   -1.9107 H   0  0  0  0  0  0  0  0  0  0  0  0
   -1.0987    2.0199   -3.2769 H   0  0  0  0  0  0  0  0  0  0  0  0
   -1.4018    0.2792   -3.2994 H   0  0  0  0  0  0  0  0  0  0  0  0
    0.5435    2.1533   -1.1769 C   0  0  0  0  0  0  0  0  0  0  0  0
    1.5159    2.0315   -0.6998 H   0  0  0  0  0  0  0  0  0  0  0  0
    0.5901    3.0123   -1.8463 H   0  0  0  0  0  0  0  0  0  0  0  0
   -0.2125    2.3338   -0.4120 H   0  0  0  0  0  0  0  0  0  0  0  0
   -0.7793    1.3659    0.6455 C   0  0  0  0  0  0  0  0  0  0  0  0
   -1.6464    2.0125    0.0623 O   0  0  0  0  0  0  0  0  0  0  0  0
    0.0189    1.9059    1.5756 N   0  0  0  0  0  0  0  0  0  0  0  0
    0.7024    1.3094    2.0137 H   0  0  0  0  0  0  0  0  0  0  0  0
   -0.0451    3.3046    1.9929 C   0  0  0  0  0  0  0  0  0  0  0  0
   -1.0415    3.5286    2.3805 H   0  0  0  0  0  0  0  0  0  0  0  0
    0.6954    3.5023    2.7695 H   0  0  0  0  0  0  0  0  0  0  0  0
    0.1474    3.9536    1.1372 H   0  0  0  0  0  0  0  0  0  0  0  0
  5  6  2  0  0  0  0
  5  7  1  0  0  0  0
  2  3  1  0  0  0  0
  2  4  1  0  0  0  0
  2  5  1  0  0  0  0
  1  2  1  0  0  0  0
 24 25  2  0  0  0  0
 24 26  1  0  0  0  0
 20 21  1  0  0  0  0
 20 22  1  0  0  0  0
 20 23  1  0  0  0  0
 16 17  1  0  0  0  0
 16 18  1  0  0  0  0
 16 19  1  0  0  0  0
 14 15  1  0  0  0  0
 14 16  1  0  0  0  0
 14 20  1  0  0  0  0
 11 12  1  0  0  0  0
 11 13  1  0  0  0  0
 11 14  1  0  0  0  0
  9 10  1  0  0  0  0
  9 11  1  0  0  0  0
  9 24  1  0  0  0  0
  7  8  1  0  0  0  0
  7  9  1  0  0  0  0
 28 29  1  0  0  0  0
 28 30  1  0  0  0  0
 28 31  1  0  0  0  0
 26 27  1  0  0  0  0
 26 28  1  0  0  0  0
M  END
$$$$
default_name
  -OEChem-02102213163D

 31 30  0     1  0  0  0  0  0999 V2000
   -3.5895   -3.5013    1.1082 H   0  0  0  0  0  0  0  0  0  0  0  0
   -3.5145   -2.5363    0.6082 C   0  0  0  0  0  0  0  0  0  0  0  0
   -4.2285   -1.8413    1.0452 H   0  0  0  0  0  0  0  0  0  0  0  0
   -3.7155   -2.6583   -0.4538 H   0  0  0  0  0  0  0  0  0  0  0  0
   -2.1155   -1.9963    0.7922 C   0  0  0  0  0  0  0  0  0  0  0  0
   -1.2875   -2.6383    1.4252 O   0  0  0  0  0  0  0  0  0  0  0  0
   -1.8575   -0.8123    0.2402 N   0  0  0  0  0  0  0  0  0  0  0  0
   -2.6005   -0.3333   -0.2478 H   0  0  0  0  0  0  0  0  0  0  0  0
   -0.5675   -0.1203    0.3102 C   0  0  1  0  0  0  0  0  0  0  0  0
    0.0191   -0.5718    1.1110 H   0  0  0  0  0  0  0  0  0  0  0  0
    0.1724   -0.3238   -1.0286 C   0  0  0  0  0  0  0  0  0  0  0  0
    1.2020   -0.6187   -0.8166 H   0  0  0  0  0  0  0  0  0  0  0  0
   -0.3067   -1.1515   -1.5563 H   0  0  0  0  0  0  0  0  0  0  0  0
    0.1990    0.8938   -1.9707 C   0  0  0  0  0  0  0  0  0  0  0  0
    0.7630    0.6503   -2.8711 H   0  0  0  0  0  0  0  0  0  0  0  0
   -1.2079    1.3468   -2.3717 C   0  0  0  0  0  0  0  0  0  0  0  0
   -1.7908    1.5790   -1.4793 H   0  0  0  0  0  0  0  0  0  0  0  0
   -1.1425    2.2378   -2.9966 H   0  0  0  0  0  0  0  0  0  0  0  0
   -1.7163    0.5676   -2.9354 H   0  0  0  0  0  0  0  0  0  0  0  0
    0.8940    2.0662   -1.2796 C   0  0  0  0  0  0  0  0  0  0  0  0
    1.9114    1.7824   -1.0106 H   0  0  0  0  0  0  0  0  0  0  0  0
    0.9387    2.9209   -1.9546 H   0  0  0  0  0  0  0  0  0  0  0  0
    0.3487    2.3477   -0.3781 H   0  0  0  0  0  0  0  0  0  0  0  0
   -0.7793    1.3659    0.6455 C   0  0  0  0  0  0  0  0  0  0  0  0
   -1.6464    2.0125    0.0623 O   0  0  0  0  0  0  0  0  0  0  0  0
    0.0189    1.9059    1.5756 N   0  0  0  0  0  0  0  0  0  0  0  0
    0.7024    1.3094    2.0137 H   0  0  0  0  0  0  0  0  0  0  0  0
   -0.0451    3.3046    1.9929 C   0  0  0  0  0  0  0  0  0  0  0  0
   -1.0415    3.5286    2.3805 H   0  0  0  0  0  0  0  0  0  0  0  0
    0.6954    3.5023    2.7695 H   0  0  0  0  0  0  0  0  0  0  0  0
    0.1474    3.9536    1.1372 H   0  0  0  0  0  0  0  0  0  0  0  0
  5  6  2  0  0  0  0
  5  7  1  0  0  0  0
  2  3  1  0  0  0  0
  2  4  1  0  0  0  0
  2  5  1  0  0  0  0
  1  2  1  0  0  0  0
 24 25  2  0  0  0  0
 24 26  1  0  0  0  0
 20 21  1  0  0  0  0
 20 22  1  0  0  0  0
 20 23  1  0  0  0  0
 16 17  1  0  0  0  0
 16 18  1  0  0  0  0
 16 19  1  0  0  0  0
 14 15  1  0  0  0  0
 14 16  1  0  0  0  0
 14 20  1  0  0  0  0
 11 12  1  0  0  0  0
 11 13  1  0  0  0  0
 11 14  1  0  0  0  0
  9 10  1  0  0  0  0
  9 11  1  0  0  0  0
  9 24  1  0  0  0  0
  7  8  1  0  0  0  0
  7  9  1  0  0  0  0
 28 29  1  0  0  0  0
 28 30  1  0  0  0  0
 28 31  1  0  0  0  0
 26 27  1  0  0  0  0
 26 28  1  0  0  0  0
M  END
$$$$
default_name
  -OEChem-02102213163D

 31 30  0     1  0  0  0  0  0999 V2000
   -3.5895   -3.5013    1.1082 H   0  0  0  0  0  0  0  0  0  0  0  0
   -3.5145   -2.5363    0.6082 C   0  0  0  0  0  0  0  0  0  0  0  0
   -4.2285   -1.8413    1.0452 H   0  0  0  0  0  0  0  0  0  0  0  0
   -3.7155   -2.6583   -0.4538 H   0  0  0  0  0  0  0  0  0  0  0  0
   -2.1155   -1.9963    0.7922 C   0  0  0  0  0  0  0  0  0  0  0  0
   -1.2875   -2.6383    1.4252 O   0  0  0  0  0  0  0  0  0  0  0  0
   -1.8575   -0.8123    0.2402 N   0  0  0  0  0  0  0  0  0  0  0  0
   -2.6005   -0.3333   -0.2478 H   0  0  0  0  0  0  0  0  0  0  0  0
   -0.5675   -0.1203    0.3102 C   0  0  1  0  0  0  0  0  0  0  0  0
    0.0191   -0.5718    1.1110 H   0  0  0  0  0  0  0  0  0  0  0  0
    0.1724   -0.3238   -1.0286 C   0  0  0  0  0  0  0  0  0  0  0  0
    1.2020   -0.6187   -0.8166 H   0  0  0  0  0  0  0  0  0  0  0  0
   -0.3067   -1.1515   -1.5563 H   0  0  0  0  0  0  0  0  0  0  0  0
    0.1990    0.8938   -1.9707 C   0  0  0  0  0  0  0  0  0  0  0  0
    0.5212    0.5832   -2.9646 H   0  0  0  0  0  0  0  0  0  0  0  0
   -1.1699    1.5716   -2.0801 C   0  0  0  0  0  0  0  0  0  0  0  0
   -1.5138    1.8741   -1.0901 H   0  0  0  0  0  0  0  0  0  0  0  0
   -1.0930    2.4539   -2.7158 H   0  0  0  0  0  0  0  0  0  0  0  0
   -1.9000    0.8944   -2.5183 H   0  0  0  0  0  0  0  0  0  0  0  0
    1.1978    1.9270   -1.4509 C   0  0  0  0  0  0  0  0  0  0  0  0
    2.1904    1.4806   -1.3929 H   0  0  0  0  0  0  0  0  0  0  0  0
    1.2388    2.7778   -2.1310 H   0  0  0  0  0  0  0  0  0  0  0  0
    0.8999    2.2722   -0.4603 H   0  0  0  0  0  0  0  0  0  0  0  0
   -0.7793    1.3659    0.6455 C   0  0  0  0  0  0  0  0  0  0  0  0
   -1.6464    2.0125    0.0623 O   0  0  0  0  0  0  0  0  0  0  0  0
    0.0189    1.9059    1.5756 N   0  0  0  0  0  0  0  0  0  0  0  0
    0.7024    1.3094    2.0137 H   0  0  0  0  0  0  0  0  0  0  0  0
   -0.0451    3.3046    1.9929 C   0  0  0  0  0  0  0  0  0  0  0  0
   -1.0415    3.5286    2.3805 H   0  0  0  0  0  0  0  0  0  0  0  0
    0.6954    3.5023    2.7695 H   0  0  0  0  0  0  0  0  0  0  0  0
    0.1474    3.9536    1.1372 H   0  0  0  0  0  0  0  0  0  0  0  0
  5  6  2  0  0  0  0
  5  7  1  0  0  0  0
  2  3  1  0  0  0  0
  2  4  1  0  0  0  0
  2  5  1  0  0  0  0
  1  2  1  0  0  0  0
 24 25  2  0  0  0  0
 24 26  1  0  0  0  0
 20 21  1  0  0  0  0
 20 22  1  0  0  0  0
 20 23  1  0  0  0  0
 16 17  1  0  0  0  0
 16 18  1  0  0  0  0
 16 19  1  0  0  0  0
 14 15  1  0  0  0  0
 14 16  1  0  0  0  0
 14 20  1  0  0  0  0
 11 12  1  0  0  0  0
 11 13  1  0  0  0  0
 11 14  1  0  0  0  0
  9 10  1  0  0  0  0
  9 11  1  0  0  0  0
  9 24  1  0  0  0  0
  7  8  1  0  0  0  0
  7  9  1  0  0  0  0
 28 29  1  0  0  0  0
 28 30  1  0  0  0  0
 28 31  1  0  0  0  0
 26 27  1  0  0  0  0
 26 28  1  0  0  0  0
M  END
$$$$
default_name
  -OEChem-02102213163D

 31 30  0     1  0  0  0  0  0999 V2000
   -3.5895   -3.5013    1.1082 H   0  0  0  0  0  0  0  0  0  0  0  0
   -3.5145   -2.5363    0.6082 C   0  0  0  0  0  0  0  0  0  0  0  0
   -4.2285   -1.8413    1.0452 H   0  0  0  0  0  0  0  0  0  0  0  0
   -3.7155   -2.6583   -0.4538 H   0  0  0  0  0  0  0  0  0  0  0  0
   -2.1155   -1.9963    0.7922 C   0  0  0  0  0  0  0  0  0  0  0  0
   -1.2875   -2.6383    1.4252 O   0  0  0  0  0  0  0  0  0  0  0  0
   -1.8575   -0.8123    0.2402 N   0  0  0  0  0  0  0  0  0  0  0  0
   -2.6005   -0.3333   -0.2478 H   0  0  0  0  0  0  0  0  0  0  0  0
   -0.5675   -0.1203    0.3102 C   0  0  1  0  0  0  0  0  0  0  0  0
    0.0191   -0.5718    1.1110 H   0  0  0  0  0  0  0  0  0  0  0  0
    0.1724   -0.3238   -1.0286 C   0  0  0  0  0  0  0  0  0  0  0  0
    1.2020   -0.6187   -0.8166 H   0  0  0  0  0  0  0  0  0  0  0  0
   -0.3067   -1.1515   -1.5563 H   0  0  0  0  0  0  0  0  0  0  0  0
    0.1990    0.8938   -1.9707 C   0  0  0  0  0  0  0  0  0  0  0  0
    0.2578    0.5571   -3.0058 H   0  0  0  0  0  0  0  0  0  0  0  0
   -1.0380    1.7813   -1.8053 C   0  0  0  0  0  0  0  0  0  0  0  0
   -1.1198    2.1135   -0.7695 H   0  0  0  0  0  0  0  0  0  0  0  0
   -0.9534    2.6536   -2.4538 H   0  0  0  0  0  0  0  0  0  0  0  0
   -1.9403    1.2373   -2.0763 H   0  0  0  0  0  0  0  0  0  0  0  0
    1.4341    1.7452   -1.6792 C   0  0  0  0  0  0  0  0  0  0  0  0
    2.3338    1.1465   -1.8206 H   0  0  0  0  0  0  0  0  0  0  0  0
    1.4698    2.5930   -2.3634 H   0  0  0  0  0  0  0  0  0  0  0  0
    1.4035    2.1122   -0.6527 H   0  0  0  0  0  0  0  0  0  0  0  0
   -0.7793    1.3659    0.6455 C   0  0  0  0  0  0  0  0  0  0  0  0
   -1.6464    2.0125    0.0623 O   0  0  0  0  0  0  0  0  0  0  0  0
    0.0189    1.9059    1.5756 N   0  0  0  0  0  0  0  0  0  0  0  0
    0.7024    1.3094    2.0137 H   0  0  0  0  0  0  0  0  0  0  0  0
   -0.0451    3.3046    1.9929 C   0  0  0  0  0  0  0  0  0  0  0  0
   -1.0415    3.5286    2.3805 H   0  0  0  0  0  0  0  0  0  0  0  0
    0.6954    3.5023    2.7695 H   0  0  0  0  0  0  0  0  0  0  0  0
    0.1474    3.9536    1.1372 H   0  0  0  0  0  0  0  0  0  0  0  0
  5  6  2  0  0  0  0
  5  7  1  0  0  0  0
  2  3  1  0  0  0  0
  2  4  1  0  0  0  0
  2  5  1  0  0  0  0
  1  2  1  0  0  0  0
 24 25  2  0  0  0  0
 24 26  1  0  0  0  0
 20 21  1  0  0  0  0
 20 22  1  0  0  0  0
 20 23  1  0  0  0  0
 16 17  1  0  0  0  0
 16 18  1  0  0  0  0
 16 19  1  0  0  0  0
 14 15  1  0  0  0  0
 14 16  1  0  0  0  0
 14 20  1  0  0  0  0
 11 12  1  0  0  0  0
 11 13  1  0  0  0  0
 11 14  1  0  0  0  0
  9 10  1  0  0  0  0
  9 11  1  0  0  0  0
  9 24  1  0  0  0  0
  7  8  1  0  0  0  0
  7  9  1  0  0  0  0
 28 29  1  0  0  0  0
 28 30  1  0  0  0  0
 28 31  1  0  0  0  0
 26 27  1  0  0  0  0
 26 28  1  0  0  0  0
M  END
$$$$
default_name
  -OEChem-02102213163D

 31 30  0     1  0  0  0  0  0999 V2000
   -3.5895   -3.5013    1.1082 H   0  0  0  0  0  0  0  0  0  0  0  0
   -3.5145   -2.5363    0.6082 C   0  0  0  0  0  0  0  0  0  0  0  0
   -4.2285   -1.8413    1.0452 H   0  0  0  0  0  0  0  0  0  0  0  0
   -3.7155   -2.6583   -0.4538 H   0  0  0  0  0  0  0  0  0  0  0  0
   -2.1155   -1.9963    0.7922 C   0  0  0  0  0  0  0  0  0  0  0  0
   -1.2875   -2.6383    1.4252 O   0  0  0  0  0  0  0  0  0  0  0  0
   -1.8575   -0.8123    0.2402 N   0  0  0  0  0  0  0  0  0  0  0  0
   -2.6005   -0.3333   -0.2478 H   0  0  0  0  0  0  0  0  0  0  0  0
   -0.5675   -0.1203    0.3102 C   0  0  1  0  0  0  0  0  0  0  0  0
    0.0191   -0.5718    1.1110 H   0  0  0  0  0  0  0  0  0  0  0  0
    0.1724   -0.3238   -1.0286 C   0  0  0  0  0  0  0  0  0  0  0  0
    1.2020   -0.6187   -0.8166 H   0  0  0  0  0  0  0  0  0  0  0  0
   -0.3067   -1.1515   -1.5563 H   0  0  0  0  0  0  0  0  0  0  0  0
    0.1990    0.8938   -1.9707 C   0  0  0  0  0  0  0  0  0  0  0  0
   -0.0091    0.5738   -2.9917 H   0  0  0  0  0  0  0  0  0  0  0  0
   -0.8211    1.9619   -1.5659 C   0  0  0  0  0  0  0  0  0  0  0  0
   -0.6357    2.2810   -0.5394 H   0  0  0  0  0  0  0  0  0  0  0  0
   -0.7333    2.8232   -2.2284 H   0  0  0  0  0  0  0  0  0  0  0  0
   -1.8344    1.5729   -1.6395 H   0  0  0  0  0  0  0  0  0  0  0  0
    1.5868    1.5332   -1.9489 C   0  0  0  0  0  0  0  0  0  0  0  0
    2.3319    0.8031   -2.2645 H   0  0  0  0  0  0  0  0  0  0  0  0
    1.6162    2.3788   -2.6361 H   0  0  0  0  0  0  0  0  0  0  0  0
    1.8253    1.8789   -0.9425 H   0  0  0  0  0  0  0  0  0  0  0  0
   -0.7793    1.3659    0.6455 C   0  0  0  0  0  0  0  0  0  0  0  0
   -1.6464    2.0125    0.0623 O   0  0  0  0  0  0  0  0  0  0  0  0
    0.0189    1.9059    1.5756 N   0  0  0  0  0  0  0  0  0  0  0  0
    0.7024    1.3094    2.0137 H   0  0  0  0  0  0  0  0  0  0  0  0
   -0.0451    3.3046    1.9929 C   0  0  0  0  0  0  0  0  0  0  0  0
   -1.0415    3.5286    2.3805 H   0  0  0  0  0  0  0  0  0  0  0  0
    0.6954    3.5023    2.7695 H   0  0  0  0  0  0  0  0  0  0  0  0
    0.1474    3.9536    1.1372 H   0  0  0  0  0  0  0  0  0  0  0  0
  5  6  2  0  0  0  0
  5  7  1  0  0  0  0
  2  3  1  0  0  0  0
  2  4  1  0  0  0  0
  2  5  1  0  0  0  0
  1  2  1  0  0  0  0
 24 25  2  0  0  0  0
 24 26  1  0  0  0  0
 20 21  1  0  0  0  0
 20 22  1  0  0  0  0
 20 23  1  0  0  0  0
 16 17  1  0  0  0  0
 16 18  1  0  0  0  0
 16 19  1  0  0  0  0
 14 15  1  0  0  0  0
 14 16  1  0  0  0  0
 14 20  1  0  0  0  0
 11 12  1  0  0  0  0
 11 13  1  0  0  0  0
 11 14  1  0  0  0  0
  9 10  1  0  0  0  0
  9 11  1  0  0  0  0
  9 24  1  0  0  0  0
  7  8  1  0  0  0  0
  7  9  1  0  0  0  0
 28 29  1  0  0  0  0
 28 30  1  0  0  0  0
 28 31  1  0  0  0  0
 26 27  1  0  0  0  0
 26 28  1  0  0  0  0
M  END
$$$$
default_name
  -OEChem-02102213163D

 31 30  0     1  0  0  0  0  0999 V2000
   -3.5895   -3.5013    1.1082 H   0  0  0  0  0  0  0  0  0  0  0  0
   -3.5145   -2.5363    0.6082 C   0  0  0  0  0  0  0  0  0  0  0  0
   -4.2285   -1.8413    1.0452 H   0  0  0  0  0  0  0  0  0  0  0  0
   -3.7155   -2.6583   -0.4538 H   0  0  0  0  0  0  0  0  0  0  0  0
   -2.1155   -1.9963    0.7922 C   0  0  0  0  0  0  0  0  0  0  0  0
   -1.2875   -2.6383    1.4252 O   0  0  0  0  0  0  0  0  0  0  0  0
   -1.8575   -0.8123    0.2402 N   0  0  0  0  0  0  0  0  0  0  0  0
   -2.6005   -0.3333   -0.2478 H   0  0  0  0  0  0  0  0  0  0  0  0
   -0.5675   -0.1203    0.3102 C   0  0  1  0  0  0  0  0  0  0  0  0
    0.0191   -0.5718    1.1110 H   0  0  0  0  0  0  0  0  0  0  0  0
    0.1724   -0.3238   -1.0286 C   0  0  0  0  0  0  0  0  0  0  0  0
    1.2020   -0.6187   -0.8166 H   0  0  0  0  0  0  0  0  0  0  0  0
   -0.3067   -1.1515   -1.5563 H   0  0  0  0  0  0  0  0  0  0  0  0
    0.1990    0.8938   -1.9707 C   0  0  0  0  0  0  0  0  0  0  0  0
   -0.2615    0.6322   -2.9235 H   0  0  0  0  0  0  0  0  0  0  0  0
   -0.5340    2.1008   -1.3782 C   0  0  0  0  0  0  0  0  0  0  0  0
   -0.0945    2.3651   -0.4154 H   0  0  0  0  0  0  0  0  0  0  0  0
   -0.4477    2.9512   -2.0550 H   0  0  0  0  0  0  0  0  0  0  0  0
   -1.5896    1.8783   -1.2379 H   0  0  0  0  0  0  0  0  0  0  0  0
    1.6455    1.3055   -2.2416 C   0  0  0  0  0  0  0  0  0  0  0  0
    2.1848    0.4736   -2.6945 H   0  0  0  0  0  0  0  0  0  0  0  0
    1.6678    2.1500   -2.9303 H   0  0  0  0  0  0  0  0  0  0  0  0
    2.1365    1.5880   -1.3097 H   0  0  0  0  0  0  0  0  0  0  0  0
   -0.7793    1.3659    0.6455 C   0  0  0  0  0  0  0  0  0  0  0  0
   -1.6464    2.0125    0.0623 O   0  0  0  0  0  0  0  0  0  0  0  0
    0.0189    1.9059    1.5756 N   0  0  0  0  0  0  0  0  0  0  0  0
    0.7024    1.3094    2.0137 H   0  0  0  0  0  0  0  0  0  0  0  0
   -0.0451    3.3046    1.9929 C   0  0  0  0  0  0  0  0  0  0  0  0
   -1.0415    3.5286    2.3805 H   0  0  0  0  0  0  0  0  0  0  0  0
    0.6954    3.5023    2.7695 H   0  0  0  0  0  0  0  0  0  0  0  0
    0.1474    3.9536    1.1372 H   0  0  0  0  0  0  0  0  0  0  0  0
  5  6  2  0  0  0  0
  5  7  1  0  0  0  0
  2  3  1  0  0  0  0
  2  4  1  0  0  0  0
  2  5  1  0  0  0  0
  1  2  1  0  0  0  0
 24 25  2  0  0  0  0
 24 26  1  0  0  0  0
 20 21  1  0  0  0  0
 20 22  1  0  0  0  0
 20 23  1  0  0  0  0
 16 17  1  0  0  0  0
 16 18  1  0  0  0  0
 16 19  1  0  0  0  0
 14 15  1  0  0  0  0
 14 16  1  0  0  0  0
 14 20  1  0  0  0  0
 11 12  1  0  0  0  0
 11 13  1  0  0  0  0
 11 14  1  0  0  0  0
  9 10  1  0  0  0  0
  9 11  1  0  0  0  0
  9 24  1  0  0  0  0
  7  8  1  0  0  0  0
  7  9  1  0  0  0  0
 28 29  1  0  0  0  0
 28 30  1  0  0  0  0
 28 31  1  0  0  0  0
 26 27  1  0  0  0  0
 26 28  1  0  0  0  0
M  END
$$$$
default_name
  -OEChem-02102213163D

 31 30  0     1  0  0  0  0  0999 V2000
   -3.5895   -3.5013    1.1082 H   0  0  0  0  0  0  0  0  0  0  0  0
   -3.5145   -2.5363    0.6082 C   0  0  0  0  0  0  0  0  0  0  0  0
   -4.2285   -1.8413    1.0452 H   0  0  0  0  0  0  0  0  0  0  0  0
   -3.7155   -2.6583   -0.4538 H   0  0  0  0  0  0  0  0  0  0  0  0
   -2.1155   -1.9963    0.7922 C   0  0  0  0  0  0  0  0  0  0  0  0
   -1.2875   -2.6383    1.4252 O   0  0  0  0  0  0  0  0  0  0  0  0
   -1.8575   -0.8123    0.2402 N   0  0  0  0  0  0  0  0  0  0  0  0
   -2.6005   -0.3333   -0.2478 H   0  0  0  0  0  0  0  0  0  0  0  0
   -0.5675   -0.1203    0.3102 C   0  0  1  0  0  0  0  0  0  0  0  0
    0.0191   -0.5718    1.1110 H   0  0  0  0  0  0  0  0  0  0  0  0
    0.1724   -0.3238   -1.0286 C   0  0  0  0  0  0  0  0  0  0  0  0
    1.2020   -0.6187   -0.8166 H   0  0  0  0  0  0  0  0  0  0  0  0
   -0.3067   -1.1515   -1.5563 H   0  0  0  0  0  0  0  0  0  0  0  0
    0.1990    0.8938   -1.9707 C   0  0  0  0  0  0  0  0  0  0  0  0
   -0.4820    0.7282   -2.8056 H   0  0  0  0  0  0  0  0  0  0  0  0
   -0.1963    2.1887   -1.2551 C   0  0  0  0  0  0  0  0  0  0  0  0
    0.4669    2.3601   -0.4061 H   0  0  0  0  0  0  0  0  0  0  0  0
   -0.1162    3.0288   -1.9453 H   0  0  0  0  0  0  0  0  0  0  0  0
   -1.2226    2.1328   -0.8986 H   0  0  0  0  0  0  0  0  0  0  0  0
    1.6063    1.0775   -2.5374 C   0  0  0  0  0  0  0  0  0  0  0  0
    1.9026    0.1806   -3.0812 H   0  0  0  0  0  0  0  0  0  0  0  0
    1.6213    1.9222   -3.2261 H   0  0  0  0  0  0  0  0  0  0  0  0
    2.3158    1.2593   -1.7293 H   0  0  0  0  0  0  0  0  0  0  0  0
   -0.7793    1.3659    0.6455 C   0  0  0  0  0  0  0  0  0  0  0  0
   -1.6464    2.0125    0.0623 O   0  0  0  0  0  0  0  0  0  0  0  0
    0.0189    1.9059    1.5756 N   0  0  0  0  0  0  0  0  0  0  0  0
    0.7024    1.3094    2.0137 H   0  0  0  0  0  0  0  0  0  0  0  0
   -0.0451    3.3046    1.9929 C   0  0  0  0  0  0  0  0  0  0  0  0
   -1.0415    3.5286    2.3805 H   0  0  0  0  0  0  0  0  0  0  0  0
    0.6954    3.5023    2.7695 H   0  0  0  0  0  0  0  0  0  0  0  0
    0.1474    3.9536    1.1372 H   0  0  0  0  0  0  0  0  0  0  0  0
  5  6  2  0  0  0  0
  5  7  1  0  0  0  0
  2  3  1  0  0  0  0
  2  4  1  0  0  0  0
  2  5  1  0  0  0  0
  1  2  1  0  0  0  0
 24 25  2  0  0  0  0
 24 26  1  0  0  0  0
 20 21  1  0  0  0  0
 20 22  1  0  0  0  0
 20 23  1  0  0  0  0
 16 17  1  0  0  0  0
 16 18  1  0  0  0  0
 16 19  1  0  0  0  0
 14 15  1  0  0  0  0
 14 16  1  0  0  0  0
 14 20  1  0  0  0  0
 11 12  1  0  0  0  0
 11 13  1  0  0  0  0
 11 14  1  0  0  0  0
  9 10  1  0  0  0  0
  9 11  1  0  0  0  0
  9 24  1  0  0  0  0
  7  8  1  0  0  0  0
  7  9  1  0  0  0  0
 28 29  1  0  0  0  0
 28 30  1  0  0  0  0
 28 31  1  0  0  0  0
 26 27  1  0  0  0  0
 26 28  1  0  0  0  0
M  END
$$$$
default_name
  -OEChem-02102213163D

 31 30  0     1  0  0  0  0  0999 V2000
   -3.5895   -3.5013    1.1082 H   0  0  0  0  0  0  0  0  0  0  0  0
   -3.5145   -2.5363    0.6082 C   0  0  0  0  0  0  0  0  0  0  0  0
   -4.2285   -1.8413    1.0452 H   0  0  0  0  0  0  0  0  0  0  0  0
   -3.7155   -2.6583   -0.4538 H   0  0  0  0  0  0  0  0  0  0  0  0
   -2.1155   -1.9963    0.7922 C   0  0  0  0  0  0  0  0  0  0  0  0
   -1.2875   -2.6383    1.4252 O   0  0  0  0  0  0  0  0  0  0  0  0
   -1.8575   -0.8123    0.2402 N   0  0  0  0  0  0  0  0  0  0  0  0
   -2.6005   -0.3333   -0.2478 H   0  0  0  0  0  0  0  0  0  0  0  0
   -0.5675   -0.1203    0.3102 C   0  0  1  0  0  0  0  0  0  0  0  0
    0.0191   -0.5718    1.1110 H   0  0  0  0  0  0  0  0  0  0  0  0
    0.1724   -0.3238   -1.0286 C   0  0  0  0  0  0  0  0  0  0  0  0
    1.2020   -0.6187   -0.8166 H   0  0  0  0  0  0  0  0  0  0  0  0
   -0.3067   -1.1515   -1.5563 H   0  0  0  0  0  0  0  0  0  0  0  0
    0.1990    0.8938   -1.9707 C   0  0  0  0  0  0  0  0  0  0  0  0
   -0.6557    0.8553   -2.6462 H   0  0  0  0  0  0  0  0  0  0  0  0
    0.1691    2.2196   -1.2049 C   0  0  0  0  0  0  0  0  0  0  0  0
    1.0104    2.2663   -0.5120 H   0  0  0  0  0  0  0  0  0  0  0  0
    0.2389    3.0508   -1.9069 H   0  0  0  0  0  0  0  0  0  0  0  0
   -0.7583    2.3190   -0.6449 H   0  0  0  0  0  0  0  0  0  0  0  0
    1.4718    0.8648   -2.8160 C   0  0  0  0  0  0  0  0  0  0  0  0
    1.5044   -0.0561   -3.3982 H   0  0  0  0  0  0  0  0  0  0  0  0
    1.4797    1.7108   -3.5033 H   0  0  0  0  0  0  0  0  0  0  0  0
    2.3510    0.9154   -2.1729 H   0  0  0  0  0  0  0  0  0  0  0  0
   -0.7793    1.3659    0.6455 C   0  0  0  0  0  0  0  0  0  0  0  0
   -1.6464    2.0125    0.0623 O   0  0  0  0  0  0  0  0  0  0  0  0
    0.0189    1.9059    1.5756 N   0  0  0  0  0  0  0  0  0  0  0  0
    0.7024    1.3094    2.0137 H   0  0  0  0  0  0  0  0  0  0  0  0
   -0.0451    3.3046    1.9929 C   0  0  0  0  0  0  0  0  0  0  0  0
   -1.0415    3.5286    2.3805 H   0  0  0  0  0  0  0  0  0  0  0  0
    0.6954    3.5023    2.7695 H   0  0  0  0  0  0  0  0  0  0  0  0
    0.1474    3.9536    1.1372 H   0  0  0  0  0  0  0  0  0  0  0  0
  5  6  2  0  0  0  0
  5  7  1  0  0  0  0
  2  3  1  0  0  0  0
  2  4  1  0  0  0  0
  2  5  1  0  0  0  0
  1  2  1  0  0  0  0
 24 25  2  0  0  0  0
 24 26  1  0  0  0  0
 20 21  1  0  0  0  0
 20 22  1  0  0  0  0
 20 23  1  0  0  0  0
 16 17  1  0  0  0  0
 16 18  1  0  0  0  0
 16 19  1  0  0  0  0
 14 15  1  0  0  0  0
 14 16  1  0  0  0  0
 14 20  1  0  0  0  0
 11 12  1  0  0  0  0
 11 13  1  0  0  0  0
 11 14  1  0  0  0  0
  9 10  1  0  0  0  0
  9 11  1  0  0  0  0
  9 24  1  0  0  0  0
  7  8  1  0  0  0  0
  7  9  1  0  0  0  0
 28 29  1  0  0  0  0
 28 30  1  0  0  0  0
 28 31  1  0  0  0  0
 26 27  1  0  0  0  0
 26 28  1  0  0  0  0
M  END
$$$$
default_name
  -OEChem-02102213163D

 31 30  0     1  0  0  0  0  0999 V2000
   -3.5895   -3.5013    1.1082 H   0  0  0  0  0  0  0  0  0  0  0  0
   -3.5145   -2.5363    0.6082 C   0  0  0  0  0  0  0  0  0  0  0  0
   -4.2285   -1.8413    1.0452 H   0  0  0  0  0  0  0  0  0  0  0  0
   -3.7155   -2.6583   -0.4538 H   0  0  0  0  0  0  0  0  0  0  0  0
   -2.1155   -1.9963    0.7922 C   0  0  0  0  0  0  0  0  0  0  0  0
   -1.2875   -2.6383    1.4252 O   0  0  0  0  0  0  0  0  0  0  0  0
   -1.8575   -0.8123    0.2402 N   0  0  0  0  0  0  0  0  0  0  0  0
   -2.6005   -0.3333   -0.2478 H   0  0  0  0  0  0  0  0  0  0  0  0
   -0.5675   -0.1203    0.3102 C   0  0  1  0  0  0  0  0  0  0  0  0
    0.0191   -0.5718    1.1110 H   0  0  0  0  0  0  0  0  0  0  0  0
    0.1724   -0.3238   -1.0286 C   0  0  0  0  0  0  0  0  0  0  0  0
    1.2020   -0.6187   -0.8166 H   0  0  0  0  0  0  0  0  0  0  0  0
   -0.3067   -1.1515   -1.5563 H   0  0  0  0  0  0  0  0  0  0  0  0
    0.1990    0.8938   -1.9707 C   0  0  0  0  0  0  0  0  0  0  0  0
   -0.7707    1.0049   -2.4561 H   0  0  0  0  0  0  0  0  0  0  0  0
    0.5371    2.1913   -1.2310 C   0  0  0  0  0  0  0  0  0  0  0  0
    1.4987    2.0901   -0.7260 H   0  0  0  0  0  0  0  0  0  0  0  0
    0.5931    3.0156   -1.9424 H   0  0  0  0  0  0  0  0  0  0  0  0
   -0.2285    2.4242   -0.4941 H   0  0  0  0  0  0  0  0  0  0  0  0
    1.2511    0.6819   -3.0586 C   0  0  0  0  0  0  0  0  0  0  0  0
    1.0174   -0.2202   -3.6240 H   0  0  0  0  0  0  0  0  0  0  0  0
    1.2527    1.5302   -3.7431 H   0  0  0  0  0  0  0  0  0  0  0  0
    2.2399    0.5795   -2.6101 H   0  0  0  0  0  0  0  0  0  0  0  0
   -0.7793    1.3659    0.6455 C   0  0  0  0  0  0  0  0  0  0  0  0
   -1.6464    2.0125    0.0623 O   0  0  0  0  0  0  0  0  0  0  0  0
    0.0189    1.9059    1.5756 N   0  0  0  0  0  0  0  0  0  0  0  0
    0.7024    1.3094    2.0137 H   0  0  0  0  0  0  0  0  0  0  0  0
   -0.0451    3.3046    1.9929 C   0  0  0  0  0  0  0  0  0  0  0  0
   -1.0415    3.5286    2.3805 H   0  0  0  0  0  0  0  0  0  0  0  0
    0.6954    3.5023    2.7695 H   0  0  0  0  0  0  0  0  0  0  0  0
    0.1474    3.9536    1.1372 H   0  0  0  0  0  0  0  0  0  0  0  0
  5  6  2  0  0  0  0
  5  7  1  0  0  0  0
  2  3  1  0  0  0  0
  2  4  1  0  0  0  0
  2  5  1  0  0  0  0
  1  2  1  0  0  0  0
 24 25  2  0  0  0  0
 24 26  1  0  0  0  0
 20 21  1  0  0  0  0
 20 22  1  0  0  0  0
 20 23  1  0  0  0  0
 16 17  1  0  0  0  0
 16 18  1  0  0  0  0
 16 19  1  0  0  0  0
 14 15  1  0  0  0  0
 14 16  1  0  0  0  0
 14 20  1  0  0  0  0
 11 12  1  0  0  0  0
 11 13  1  0  0  0  0
 11 14  1  0  0  0  0
  9 10  1  0  0  0  0
  9 11  1  0  0  0  0
  9 24  1  0  0  0  0
  7  8  1  0  0  0  0
  7  9  1  0  0  0  0
 28 29  1  0  0  0  0
 28 30  1  0  0  0  0
 28 31  1  0  0  0  0
 26 27  1  0  0  0  0
 26 28  1  0  0  0  0
M  END
$$$$
default_name
  -OEChem-02102213163D

 31 30  0     1  0  0  0  0  0999 V2000
   -3.5895   -3.5013    1.1082 H   0  0  0  0  0  0  0  0  0  0  0  0
   -3.5145   -2.5363    0.6082 C   0  0  0  0  0  0  0  0  0  0  0  0
   -4.2285   -1.8413    1.0452 H   0  0  0  0  0  0  0  0  0  0  0  0
   -3.7155   -2.6583   -0.4538 H   0  0  0  0  0  0  0  0  0  0  0  0
   -2.1155   -1.9963    0.7922 C   0  0  0  0  0  0  0  0  0  0  0  0
   -1.2875   -2.6383    1.4252 O   0  0  0  0  0  0  0  0  0  0  0  0
   -1.8575   -0.8123    0.2402 N   0  0  0  0  0  0  0  0  0  0  0  0
   -2.6005   -0.3333   -0.2478 H   0  0  0  0  0  0  0  0  0  0  0  0
   -0.5675   -0.1203    0.3102 C   0  0  1  0  0  0  0  0  0  0  0  0
    0.0191   -0.5718    1.1110 H   0  0  0  0  0  0  0  0  0  0  0  0
    0.1724   -0.3238   -1.0286 C   0  0  0  0  0  0  0  0  0  0  0  0
    1.2020   -0.6187   -0.8166 H   0  0  0  0  0  0  0  0  0  0  0  0
   -0.3067   -1.1515   -1.5563 H   0  0  0  0  0  0  0  0  0  0  0  0
    0.1990    0.8938   -1.9707 C   0  0  0  0  0  0  0  0  0  0  0  0
   -0.8192    1.1667   -2.2483 H   0  0  0  0  0  0  0  0  0  0  0  0
    0.8829    2.1059   -1.3317 C   0  0  0  0  0  0  0  0  0  0  0  0
    1.8988    1.8435   -1.0334 H   0  0  0  0  0  0  0  0  0  0  0  0
    0.9225    2.9257   -2.0493 H   0  0  0  0  0  0  0  0  0  0  0  0
    0.3309    2.4412   -0.4563 H   0  0  0  0  0  0  0  0  0  0  0  0
    0.9593    0.5413   -3.2486 C   0  0  0  0  0  0  0  0  0  0  0  0
    0.4749   -0.3005   -3.7432 H   0  0  0  0  0  0  0  0  0  0  0  0
    0.9558    1.3928   -3.9290 H   0  0  0  0  0  0  0  0  0  0  0  0
    1.9898    0.2747   -3.0111 H   0  0  0  0  0  0  0  0  0  0  0  0
   -0.7793    1.3659    0.6455 C   0  0  0  0  0  0  0  0  0  0  0  0
   -1.6464    2.0125    0.0623 O   0  0  0  0  0  0  0  0  0  0  0  0
    0.0189    1.9059    1.5756 N   0  0  0  0  0  0  0  0  0  0  0  0
    0.7024    1.3094    2.0137 H   0  0  0  0  0  0  0  0  0  0  0  0
   -0.0451    3.3046    1.9929 C   0  0  0  0  0  0  0  0  0  0  0  0
   -1.0415    3.5286    2.3805 H   0  0  0  0  0  0  0  0  0  0  0  0
    0.6954    3.5023    2.7695 H   0  0  0  0  0  0  0  0  0  0  0  0
    0.1474    3.9536    1.1372 H   0  0  0  0  0  0  0  0  0  0  0  0
  5  6  2  0  0  0  0
  5  7  1  0  0  0  0
  2  3  1  0  0  0  0
  2  4  1  0  0  0  0
  2  5  1  0  0  0  0
  1  2  1  0  0  0  0
 24 25  2  0  0  0  0
 24 26  1  0  0  0  0
 20 21  1  0  0  0  0
 20 22  1  0  0  0  0
 20 23  1  0  0  0  0
 16 17  1  0  0  0  0
 16 18  1  0  0  0  0
 16 19  1  0  0  0  0
 14 15  1  0  0  0  0
 14 16  1  0  0  0  0
 14 20  1  0  0  0  0
 11 12  1  0  0  0  0
 11 13  1  0  0  0  0
 11 14  1  0  0  0  0
  9 10  1  0  0  0  0
  9 11  1  0  0  0  0
  9 24  1  0  0  0  0
  7  8  1  0  0  0  0
  7  9  1  0  0  0  0
 28 29  1  0  0  0  0
 28 30  1  0  0  0  0
 28 31  1  0  0  0  0
 26 27  1  0  0  0  0
 26 28  1  0  0  0  0
M  END
$$$$
default_name
  -OEChem-02102213163D

 31 30  0     1  0  0  0  0  0999 V2000
   -3.5895   -3.5013    1.1082 H   0  0  0  0  0  0  0  0  0  0  0  0
   -3.5145   -2.5363    0.6082 C   0  0  0  0  0  0  0  0  0  0  0  0
   -4.2285   -1.8413    1.0452 H   0  0  0  0  0  0  0  0  0  0  0  0
   -3.7155   -2.6583   -0.4538 H   0  0  0  0  0  0  0  0  0  0  0  0
   -2.1155   -1.9963    0.7922 C   0  0  0  0  0  0  0  0  0  0  0  0
   -1.2875   -2.6383    1.4252 O   0  0  0  0  0  0  0  0  0  0  0  0
   -1.8575   -0.8123    0.2402 N   0  0  0  0  0  0  0  0  0  0  0  0
   -2.6005   -0.3333   -0.2478 H   0  0  0  0  0  0  0  0  0  0  0  0
   -0.5675   -0.1203    0.3102 C   0  0  1  0  0  0  0  0  0  0  0  0
    0.0191   -0.5718    1.1110 H   0  0  0  0  0  0  0  0  0  0  0  0
    0.1724   -0.3238   -1.0286 C   0  0  0  0  0  0  0  0  0  0  0  0
    1.2020   -0.6187   -0.8166 H   0  0  0  0  0  0  0  0  0  0  0  0
   -0.3067   -1.1515   -1.5563 H   0  0  0  0  0  0  0  0  0  0  0  0
    0.1990    0.8938   -1.9707 C   0  0  0  0  0  0  0  0  0  0  0  0
   -0.7978    1.3298   -2.0369 H   0  0  0  0  0  0  0  0  0  0  0  0
    1.1826    1.9690   -1.5001 C   0  0  0  0  0  0  0  0  0  0  0  0
    2.1832    1.5433   -1.4133 H   0  0  0  0  0  0  0  0  0  0  0  0
    1.2045    2.7871   -2.2204 H   0  0  0  0  0  0  0  0  0  0  0  0
    0.8815    2.3689   -0.5342 H   0  0  0  0  0  0  0  0  0  0  0  0
    0.6164    0.4525   -3.3730 C   0  0  0  0  0  0  0  0  0  0  0  0
   -0.0864   -0.2917   -3.7476 H   0  0  0  0  0  0  0  0  0  0  0  0
    0.6092    1.3080   -4.0484 H   0  0  0  0  0  0  0  0  0  0  0  0
    1.6179    0.0216   -3.3487 H   0  0  0  0  0  0  0  0  0  0  0  0
   -0.7793    1.3659    0.6455 C   0  0  0  0  0  0  0  0  0  0  0  0
   -1.6464    2.0125    0.0623 O   0  0  0  0  0  0  0  0  0  0  0  0
    0.0189    1.9059    1.5756 N   0  0  0  0  0  0  0  0  0  0  0  0
    0.7024    1.3094    2.0137 H   0  0  0  0  0  0  0  0  0  0  0  0
   -0.0451    3.3046    1.9929 C   0  0  0  0  0  0  0  0  0  0  0  0
   -1.0415    3.5286    2.3805 H   0  0  0  0  0  0  0  0  0  0  0  0
    0.6954    3.5023    2.7695 H   0  0  0  0  0  0  0  0  0  0  0  0
    0.1474    3.9536    1.1372 H   0  0  0  0  0  0  0  0  0  0  0  0
  5  6  2  0  0  0  0
  5  7  1  0  0  0  0
  2  3  1  0  0  0  0
  2  4  1  0  0  0  0
  2  5  1  0  0  0  0
  1  2  1  0  0  0  0
 24 25  2  0  0  0  0
 24 26  1  0  0  0  0
 20 21  1  0  0  0  0
 20 22  1  0  0  0  0
 20 23  1  0  0  0  0
 16 17  1  0  0  0  0
 16 18  1  0  0  0  0
 16 19  1  0  0  0  0
 14 15  1  0  0  0  0
 14 16  1  0  0  0  0
 14 20  1  0  0  0  0
 11 12  1  0  0  0  0
 11 13  1  0  0  0  0
 11 14  1  0  0  0  0
  9 10  1  0  0  0  0
  9 11  1  0  0  0  0
  9 24  1  0  0  0  0
  7  8  1  0  0  0  0
  7  9  1  0  0  0  0
 28 29  1  0  0  0  0
 28 30  1  0  0  0  0
 28 31  1  0  0  0  0
 26 27  1  0  0  0  0
 26 28  1  0  0  0  0
M  END
$$$$
default_name
  -OEChem-02102213163D

 31 30  0     1  0  0  0  0  0999 V2000
   -3.5895   -3.5013    1.1082 H   0  0  0  0  0  0  0  0  0  0  0  0
   -3.5145   -2.5363    0.6082 C   0  0  0  0  0  0  0  0  0  0  0  0
   -4.2285   -1.8413    1.0452 H   0  0  0  0  0  0  0  0  0  0  0  0
   -3.7155   -2.6583   -0.4538 H   0  0  0  0  0  0  0  0  0  0  0  0
   -2.1155   -1.9963    0.7922 C   0  0  0  0  0  0  0  0  0  0  0  0
   -1.2875   -2.6383    1.4252 O   0  0  0  0  0  0  0  0  0  0  0  0
   -1.8575   -0.8123    0.2402 N   0  0  0  0  0  0  0  0  0  0  0  0
   -2.6005   -0.3333   -0.2478 H   0  0  0  0  0  0  0  0  0  0  0  0
   -0.5675   -0.1203    0.3102 C   0  0  1  0  0  0  0  0  0  0  0  0
    0.0191   -0.5718    1.1110 H   0  0  0  0  0  0  0  0  0  0  0  0
    0.1724   -0.3238   -1.0286 C   0  0  0  0  0  0  0  0  0  0  0  0
    1.2020   -0.6187   -0.8166 H   0  0  0  0  0  0  0  0  0  0  0  0
   -0.3067   -1.1515   -1.5563 H   0  0  0  0  0  0  0  0  0  0  0  0
    0.1990    0.8938   -1.9707 C   0  0  0  0  0  0  0  0  0  0  0  0
   -0.7082    1.4830   -1.8364 H   0  0  0  0  0  0  0  0  0  0  0  0
    1.4160    1.7901   -1.7247 C   0  0  0  0  0  0  0  0  0  0  0  0
    2.3327    1.2100   -1.8398 H   0  0  0  0  0  0  0  0  0  0  0  0
    1.4200    2.6094   -2.4440 H   0  0  0  0  0  0  0  0  0  0  0  0
    1.3861    2.2122   -0.7225 H   0  0  0  0  0  0  0  0  0  0  0  0
    0.2456    0.4216   -3.4234 C   0  0  0  0  0  0  0  0  0  0  0  0
   -0.6280   -0.1943   -3.6370 H   0  0  0  0  0  0  0  0  0  0  0  0
    0.2365    1.2815   -4.0932 H   0  0  0  0  0  0  0  0  0  0  0  0
    1.1495   -0.1624   -3.5997 H   0  0  0  0  0  0  0  0  0  0  0  0
   -0.7793    1.3659    0.6455 C   0  0  0  0  0  0  0  0  0  0  0  0
   -1.6464    2.0125    0.0623 O   0  0  0  0  0  0  0  0  0  0  0  0
    0.0189    1.9059    1.5756 N   0  0  0  0  0  0  0  0  0  0  0  0
    0.7024    1.3094    2.0137 H   0  0  0  0  0  0  0  0  0  0  0  0
   -0.0451    3.3046    1.9929 C   0  0  0  0  0  0  0  0  0  0  0  0
   -1.0415    3.5286    2.3805 H   0  0  0  0  0  0  0  0  0  0  0  0
    0.6954    3.5023    2.7695 H   0  0  0  0  0  0  0  0  0  0  0  0
    0.1474    3.9536    1.1372 H   0  0  0  0  0  0  0  0  0  0  0  0
  5  6  2  0  0  0  0
  5  7  1  0  0  0  0
  2  3  1  0  0  0  0
  2  4  1  0  0  0  0
  2  5  1  0  0  0  0
  1  2  1  0  0  0  0
 24 25  2  0  0  0  0
 24 26  1  0  0  0  0
 20 21  1  0  0  0  0
 20 22  1  0  0  0  0
 20 23  1  0  0  0  0
 16 17  1  0  0  0  0
 16 18  1  0  0  0  0
 16 19  1  0  0  0  0
 14 15  1  0  0  0  0
 14 16  1  0  0  0  0
 14 20  1  0  0  0  0
 11 12  1  0  0  0  0
 11 13  1  0  0  0  0
 11 14  1  0  0  0  0
  9 10  1  0  0  0  0
  9 11  1  0  0  0  0
  9 24  1  0  0  0  0
  7  8  1  0  0  0  0
  7  9  1  0  0  0  0
 28 29  1  0  0  0  0
 28 30  1  0  0  0  0
 28 31  1  0  0  0  0
 26 27  1  0  0  0  0
 26 28  1  0  0  0  0
M  END
$$$$
default_name
  -OEChem-02102213163D

 31 30  0     1  0  0  0  0  0999 V2000
   -3.5895   -3.5013    1.1082 H   0  0  0  0  0  0  0  0  0  0  0  0
   -3.5145   -2.5363    0.6082 C   0  0  0  0  0  0  0  0  0  0  0  0
   -4.2285   -1.8413    1.0452 H   0  0  0  0  0  0  0  0  0  0  0  0
   -3.7155   -2.6583   -0.4538 H   0  0  0  0  0  0  0  0  0  0  0  0
   -2.1155   -1.9963    0.7922 C   0  0  0  0  0  0  0  0  0  0  0  0
   -1.2875   -2.6383    1.4252 O   0  0  0  0  0  0  0  0  0  0  0  0
   -1.8575   -0.8123    0.2402 N   0  0  0  0  0  0  0  0  0  0  0  0
   -2.6005   -0.3333   -0.2478 H   0  0  0  0  0  0  0  0  0  0  0  0
   -0.5675   -0.1203    0.3102 C   0  0  1  0  0  0  0  0  0  0  0  0
    0.0191   -0.5718    1.1110 H   0  0  0  0  0  0  0  0  0  0  0  0
    0.1724   -0.3238   -1.0286 C   0  0  0  0  0  0  0  0  0  0  0  0
    1.2020   -0.6187   -0.8166 H   0  0  0  0  0  0  0  0  0  0  0  0
   -0.3067   -1.1515   -1.5563 H   0  0  0  0  0  0  0  0  0  0  0  0
    0.1990    0.8938   -1.9707 C   0  0  0  0  0  0  0  0  0  0  0  0
   -0.5562    1.6159   -1.6604 H   0  0  0  0  0  0  0  0  0  0  0  0
    1.5672    1.5813   -1.9903 C   0  0  0  0  0  0  0  0  0  0  0  0
    2.3370    0.8663   -2.2839 H   0  0  0  0  0  0  0  0  0  0  0  0
    1.5542    2.4046   -2.7049 H   0  0  0  0  0  0  0  0  0  0  0  0
    1.8100    1.9817   -1.0084 H   0  0  0  0  0  0  0  0  0  0  0  0
   -0.1278    0.4507   -3.3963 C   0  0  0  0  0  0  0  0  0  0  0  0
   -1.1130   -0.0149   -3.4189 H   0  0  0  0  0  0  0  0  0  0  0  0
   -0.1368    1.3151   -4.0603 H   0  0  0  0  0  0  0  0  0  0  0  0
    0.6166   -0.2649   -3.7472 H   0  0  0  0  0  0  0  0  0  0  0  0
   -0.7793    1.3659    0.6455 C   0  0  0  0  0  0  0  0  0  0  0  0
   -1.6464    2.0125    0.0623 O   0  0  0  0  0  0  0  0  0  0  0  0
    0.0189    1.9059    1.5756 N   0  0  0  0  0  0  0  0  0  0  0  0
    0.7024    1.3094    2.0137 H   0  0  0  0  0  0  0  0  0  0  0  0
   -0.0451    3.3046    1.9929 C   0  0  0  0  0  0  0  0  0  0  0  0
   -1.0415    3.5286    2.3805 H   0  0  0  0  0  0  0  0  0  0  0  0
    0.6954    3.5023    2.7695 H   0  0  0  0  0  0  0  0  0  0  0  0
    0.1474    3.9536    1.1372 H   0  0  0  0  0  0  0  0  0  0  0  0
  5  6  2  0  0  0  0
  5  7  1  0  0  0  0
  2  3  1  0  0  0  0
  2  4  1  0  0  0  0
  2  5  1  0  0  0  0
  1  2  1  0  0  0  0
 24 25  2  0  0  0  0
 24 26  1  0  0  0  0
 20 21  1  0  0  0  0
 20 22  1  0  0  0  0
 20 23  1  0  0  0  0
 16 17  1  0  0  0  0
 16 18  1  0  0  0  0
 16 19  1  0  0  0  0
 14 15  1  0  0  0  0
 14 16  1  0  0  0  0
 14 20  1  0  0  0  0
 11 12  1  0  0  0  0
 11 13  1  0  0  0  0
 11 14  1  0  0  0  0
  9 10  1  0  0  0  0
  9 11  1  0  0  0  0
  9 24  1  0  0  0  0
  7  8  1  0  0  0  0
  7  9  1  0  0  0  0
 28 29  1  0  0  0  0
 28 30  1  0  0  0  0
 28 31  1  0  0  0  0
 26 27  1  0  0  0  0
 26 28  1  0  0  0  0
M  END
$$$$
default_name
  -OEChem-02102213163D

 31 30  0     1  0  0  0  0  0999 V2000
   -3.5895   -3.5013    1.1082 H   0  0  0  0  0  0  0  0  0  0  0  0
   -3.5145   -2.5363    0.6082 C   0  0  0  0  0  0  0  0  0  0  0  0
   -4.2285   -1.8413    1.0452 H   0  0  0  0  0  0  0  0  0  0  0  0
   -3.7155   -2.6583   -0.4538 H   0  0  0  0  0  0  0  0  0  0  0  0
   -2.1155   -1.9963    0.7922 C   0  0  0  0  0  0  0  0  0  0  0  0
   -1.2875   -2.6383    1.4252 O   0  0  0  0  0  0  0  0  0  0  0  0
   -1.8575   -0.8123    0.2402 N   0  0  0  0  0  0  0  0  0  0  0  0
   -2.6005   -0.3333   -0.2478 H   0  0  0  0  0  0  0  0  0  0  0  0
   -0.5675   -0.1203    0.3102 C   0  0  1  0  0  0  0  0  0  0  0  0
    0.0191   -0.5718    1.1110 H   0  0  0  0  0  0  0  0  0  0  0  0
    0.1724   -0.3238   -1.0286 C   0  0  0  0  0  0  0  0  0  0  0  0
    1.2020   -0.6187   -0.8166 H   0  0  0  0  0  0  0  0  0  0  0  0
   -0.3067   -1.1515   -1.5563 H   0  0  0  0  0  0  0  0  0  0  0  0
    0.1990    0.8938   -1.9707 C   0  0  0  0  0  0  0  0  0  0  0  0
   -0.3524    1.7194   -1.5208 H   0  0  0  0  0  0  0  0  0  0  0  0
    1.6258    1.3569   -2.2787 C   0  0  0  0  0  0  0  0  0  0  0  0
    2.1958    0.5357   -2.7152 H   0  0  0  0  0  0  0  0  0  0  0  0
    1.5980    2.1867   -2.9853 H   0  0  0  0  0  0  0  0  0  0  0  0
    2.1246    1.6933   -1.3723 H   0  0  0  0  0  0  0  0  0  0  0  0
   -0.4783    0.5378   -3.2936 C   0  0  0  0  0  0  0  0  0  0  0  0
   -1.5085    0.2342   -3.1081 H   0  0  0  0  0  0  0  0  0  0  0  0
   -0.4854    1.4065   -3.9520 H   0  0  0  0  0  0  0  0  0  0  0  0
    0.0554   -0.2788   -3.7810 H   0  0  0  0  0  0  0  0  0  0  0  0
   -0.7793    1.3659    0.6455 C   0  0  0  0  0  0  0  0  0  0  0  0
   -1.6464    2.0125    0.0623 O   0  0  0  0  0  0  0  0  0  0  0  0
    0.0189    1.9059    1.5756 N   0  0  0  0  0  0  0  0  0  0  0  0
    0.7024    1.3094    2.0137 H   0  0  0  0  0  0  0  0  0  0  0  0
   -0.0451    3.3046    1.9929 C   0  0  0  0  0  0  0  0  0  0  0  0
   -1.0415    3.5286    2.3805 H   0  0  0  0  0  0  0  0  0  0  0  0
    0.6954    3.5023    2.7695 H   0  0  0  0  0  0  0  0  0  0  0  0
    0.1474    3.9536    1.1372 H   0  0  0  0  0  0  0  0  0  0  0  0
  5  6  2  0  0  0  0
  5  7  1  0  0  0  0
  2  3  1  0  0  0  0
  2  4  1  0  0  0  0
  2  5  1  0  0  0  0
  1  2  1  0  0  0  0
 24 25  2  0  0  0  0
 24 26  1  0  0  0  0
 20 21  1  0  0  0  0
 20 22  1  0  0  0  0
 20 23  1  0  0  0  0
 16 17  1  0  0  0  0
 16 18  1  0  0  0  0
 16 19  1  0  0  0  0
 14 15  1  0  0  0  0
 14 16  1  0  0  0  0
 14 20  1  0  0  0  0
 11 12  1  0  0  0  0
 11 13  1  0  0  0  0
 11 14  1  0  0  0  0
  9 10  1  0  0  0  0
  9 11  1  0  0  0  0
  9 24  1  0  0  0  0
  7  8  1  0  0  0  0
  7  9  1  0  0  0  0
 28 29  1  0  0  0  0
 28 30  1  0  0  0  0
 28 31  1  0  0  0  0
 26 27  1  0  0  0  0
 26 28  1  0  0  0  0
M  END
$$$$
default_name
  -OEChem-02102213163D

 31 30  0     1  0  0  0  0  0999 V2000
   -3.5895   -3.5013    1.1082 H   0  0  0  0  0  0  0  0  0  0  0  0
   -3.5145   -2.5363    0.6082 C   0  0  0  0  0  0  0  0  0  0  0  0
   -4.2285   -1.8413    1.0452 H   0  0  0  0  0  0  0  0  0  0  0  0
   -3.7155   -2.6583   -0.4538 H   0  0  0  0  0  0  0  0  0  0  0  0
   -2.1155   -1.9963    0.7922 C   0  0  0  0  0  0  0  0  0  0  0  0
   -1.2875   -2.6383    1.4252 O   0  0  0  0  0  0  0  0  0  0  0  0
   -1.8575   -0.8123    0.2402 N   0  0  0  0  0  0  0  0  0  0  0  0
   -2.6005   -0.3333   -0.2478 H   0  0  0  0  0  0  0  0  0  0  0  0
   -0.5675   -0.1203    0.3102 C   0  0  1  0  0  0  0  0  0  0  0  0
    0.0191   -0.5718    1.1110 H   0  0  0  0  0  0  0  0  0  0  0  0
    0.1724   -0.3238   -1.0286 C   0  0  0  0  0  0  0  0  0  0  0  0
    1.2020   -0.6187   -0.8166 H   0  0  0  0  0  0  0  0  0  0  0  0
   -0.3067   -1.1515   -1.5563 H   0  0  0  0  0  0  0  0  0  0  0  0
    0.1990    0.8938   -1.9707 C   0  0  0  0  0  0  0  0  0  0  0  0
   -0.1106    1.7865   -1.4273 H   0  0  0  0  0  0  0  0  0  0  0  0
    1.5878    1.1322   -2.5702 C   0  0  0  0  0  0  0  0  0  0  0  0
    1.9188    0.2405   -3.1045 H   0  0  0  0  0  0  0  0  0  0  0  0
    1.5484    1.9706   -3.2660 H   0  0  0  0  0  0  0  0  0  0  0  0
    2.3082    1.3665   -1.7895 H   0  0  0  0  0  0  0  0  0  0  0  0
   -0.7821    0.6770   -3.1223 C   0  0  0  0  0  0  0  0  0  0  0  0
   -1.7875    0.5360   -2.7258 H   0  0  0  0  0  0  0  0  0  0  0  0
   -0.7854    1.5495   -3.7756 H   0  0  0  0  0  0  0  0  0  0  0  0
   -0.4958   -0.2033   -3.6989 H   0  0  0  0  0  0  0  0  0  0  0  0
   -0.7793    1.3659    0.6455 C   0  0  0  0  0  0  0  0  0  0  0  0
   -1.6464    2.0125    0.0623 O   0  0  0  0  0  0  0  0  0  0  0  0
    0.0189    1.9059    1.5756 N   0  0  0  0  0  0  0  0  0  0  0  0
    0.7024    1.3094    2.0137 H   0  0  0  0  0  0  0  0  0  0  0  0
   -0.0451    3.3046    1.9929 C   0  0  0  0  0  0  0  0  0  0  0  0
   -1.0415    3.5286    2.3805 H   0  0  0  0  0  0  0  0  0  0  0  0
    0.6954    3.5023    2.7695 H   0  0  0  0  0  0  0  0  0  0  0  0
    0.1474    3.9536    1.1372 H   0  0  0  0  0  0  0  0  0  0  0  0
  5  6  2  0  0  0  0
  5  7  1  0  0  0  0
  2  3  1  0  0  0  0
  2  4  1  0  0  0  0
  2  5  1  0  0  0  0
  1  2  1  0  0  0  0
 24 25  2  0  0  0  0
 24 26  1  0  0  0  0
 20 21  1  0  0  0  0
 20 22  1  0  0  0  0
 20 23  1  0  0  0  0
 16 17  1  0  0  0  0
 16 18  1  0  0  0  0
 16 19  1  0  0  0  0
 14 15  1  0  0  0  0
 14 16  1  0  0  0  0
 14 20  1  0  0  0  0
 11 12  1  0  0  0  0
 11 13  1  0  0  0  0
 11 14  1  0  0  0  0
  9 10  1  0  0  0  0
  9 11  1  0  0  0  0
  9 24  1  0  0  0  0
  7  8  1  0  0  0  0
  7  9  1  0  0  0  0
 28 29  1  0  0  0  0
 28 30  1  0  0  0  0
 28 31  1  0  0  0  0
 26 27  1  0  0  0  0
 26 28  1  0  0  0  0
M  END
$$$$
default_name
  -OEChem-02102213163D

 31 30  0     1  0  0  0  0  0999 V2000
   -3.5895   -3.5013    1.1082 H   0  0  0  0  0  0  0  0  0  0  0  0
   -3.5145   -2.5363    0.6082 C   0  0  0  0  0  0  0  0  0  0  0  0
   -4.2285   -1.8413    1.0452 H   0  0  0  0  0  0  0  0  0  0  0  0
   -3.7155   -2.6583   -0.4538 H   0  0  0  0  0  0  0  0  0  0  0  0
   -2.1155   -1.9963    0.7922 C   0  0  0  0  0  0  0  0  0  0  0  0
   -1.2875   -2.6383    1.4252 O   0  0  0  0  0  0  0  0  0  0  0  0
   -1.8575   -0.8123    0.2402 N   0  0  0  0  0  0  0  0  0  0  0  0
   -2.6005   -0.3333   -0.2478 H   0  0  0  0  0  0  0  0  0  0  0  0
   -0.5675   -0.1203    0.3102 C   0  0  1  0  0  0  0  0  0  0  0  0
    0.0191   -0.5718    1.1110 H   0  0  0  0  0  0  0  0  0  0  0  0
    0.1724   -0.3238   -1.0286 C   0  0  0  0  0  0  0  0  0  0  0  0
    1.2020   -0.6187   -0.8166 H   0  0  0  0  0  0  0  0  0  0  0  0
   -0.3067   -1.1515   -1.5563 H   0  0  0  0  0  0  0  0  0  0  0  0
    0.1990    0.8938   -1.9707 C   0  0  0  0  0  0  0  0  0  0  0  0
    0.1528    1.8126   -1.3862 H   0  0  0  0  0  0  0  0  0  0  0  0
    1.4559    0.9224   -2.8451 C   0  0  0  0  0  0  0  0  0  0  0  0
    1.5248    0.0011   -3.4251 H   0  0  0  0  0  0  0  0  0  0  0  0
    1.4088    1.7709   -3.5280 H   0  0  0  0  0  0  0  0  0  0  0  0
    2.3485    1.0236   -2.2315 H   0  0  0  0  0  0  0  0  0  0  0  0
   -1.0183    0.8588   -2.8940 C   0  0  0  0  0  0  0  0  0  0  0  0
   -1.9309    0.8701   -2.2981 H   0  0  0  0  0  0  0  0  0  0  0  0
   -1.0165    1.7344   -3.5432 H   0  0  0  0  0  0  0  0  0  0  0  0
   -0.9995   -0.0434   -3.5064 H   0  0  0  0  0  0  0  0  0  0  0  0
   -0.7793    1.3659    0.6455 C   0  0  0  0  0  0  0  0  0  0  0  0
   -1.6464    2.0125    0.0623 O   0  0  0  0  0  0  0  0  0  0  0  0
    0.0189    1.9059    1.5756 N   0  0  0  0  0  0  0  0  0  0  0  0
    0.7024    1.3094    2.0137 H   0  0  0  0  0  0  0  0  0  0  0  0
   -0.0451    3.3046    1.9929 C   0  0  0  0  0  0  0  0  0  0  0  0
   -1.0415    3.5286    2.3805 H   0  0  0  0  0  0  0  0  0  0  0  0
    0.6954    3.5023    2.7695 H   0  0  0  0  0  0  0  0  0  0  0  0
    0.1474    3.9536    1.1372 H   0  0  0  0  0  0  0  0  0  0  0  0
  5  6  2  0  0  0  0
  5  7  1  0  0  0  0
  2  3  1  0  0  0  0
  2  4  1  0  0  0  0
  2  5  1  0  0  0  0
  1  2  1  0  0  0  0
 24 25  2  0  0  0  0
 24 26  1  0  0  0  0
 20 21  1  0  0  0  0
 20 22  1  0  0  0  0
 20 23  1  0  0  0  0
 16 17  1  0  0  0  0
 16 18  1  0  0  0  0
 16 19  1  0  0  0  0
 14 15  1  0  0  0  0
 14 16  1  0  0  0  0
 14 20  1  0  0  0  0
 11 12  1  0  0  0  0
 11 13  1  0  0  0  0
 11 14  1  0  0  0  0
  9 10  1  0  0  0  0
  9 11  1  0  0  0  0
  9 24  1  0  0  0  0
  7  8  1  0  0  0  0
  7  9  1  0  0  0  0
 28 29  1  0  0  0  0
 28 30  1  0  0  0  0
 28 31  1  0  0  0  0
 26 27  1  0  0  0  0
 26 28  1  0  0  0  0
M  END
$$$$
default_name
  -OEChem-02102213163D

 31 30  0     1  0  0  0  0  0999 V2000
   -3.5895   -3.5013    1.1082 H   0  0  0  0  0  0  0  0  0  0  0  0
   -3.5145   -2.5363    0.6082 C   0  0  0  0  0  0  0  0  0  0  0  0
   -4.2285   -1.8413    1.0452 H   0  0  0  0  0  0  0  0  0  0  0  0
   -3.7155   -2.6583   -0.4538 H   0  0  0  0  0  0  0  0  0  0  0  0
   -2.1155   -1.9963    0.7922 C   0  0  0  0  0  0  0  0  0  0  0  0
   -1.2875   -2.6383    1.4252 O   0  0  0  0  0  0  0  0  0  0  0  0
   -1.8575   -0.8123    0.2402 N   0  0  0  0  0  0  0  0  0  0  0  0
   -2.6005   -0.3333   -0.2478 H   0  0  0  0  0  0  0  0  0  0  0  0
   -0.5675   -0.1203    0.3102 C   0  0  1  0  0  0  0  0  0  0  0  0
    0.0191   -0.5718    1.1110 H   0  0  0  0  0  0  0  0  0  0  0  0
    0.1724   -0.3238   -1.0286 C   0  0  0  0  0  0  0  0  0  0  0  0
    1.2020   -0.6187   -0.8166 H   0  0  0  0  0  0  0  0  0  0  0  0
   -0.3067   -1.1515   -1.5563 H   0  0  0  0  0  0  0  0  0  0  0  0
    0.1990    0.8938   -1.9707 C   0  0  0  0  0  0  0  0  0  0  0  0
    0.4197    1.7959   -1.4002 H   0  0  0  0  0  0  0  0  0  0  0  0
    1.2390    0.7419   -3.0845 C   0  0  0  0  0  0  0  0  0  0  0  0
    1.0408   -0.1664   -3.6552 H   0  0  0  0  0  0  0  0  0  0  0  0
    1.1888    1.6013   -3.7534 H   0  0  0  0  0  0  0  0  0  0  0  0
    2.2426    0.6880   -2.6682 H   0  0  0  0  0  0  0  0  0  0  0  0
   -1.1710    1.0708   -2.6243 C   0  0  0  0  0  0  0  0  0  0  0  0
   -1.9290    1.2135   -1.8542 H   0  0  0  0  0  0  0  0  0  0  0  0
   -1.1628    1.9485   -3.2706 H   0  0  0  0  0  0  0  0  0  0  0  0
   -1.4213    0.1900   -3.2167 H   0  0  0  0  0  0  0  0  0  0  0  0
   -0.7793    1.3659    0.6455 C   0  0  0  0  0  0  0  0  0  0  0  0
   -1.6464    2.0125    0.0623 O   0  0  0  0  0  0  0  0  0  0  0  0
    0.0189    1.9059    1.5756 N   0  0  0  0  0  0  0  0  0  0  0  0
    0.7024    1.3094    2.0137 H   0  0  0  0  0  0  0  0  0  0  0  0
   -0.0451    3.3046    1.9929 C   0  0  0  0  0  0  0  0  0  0  0  0
   -1.0415    3.5286    2.3805 H   0  0  0  0  0  0  0  0  0  0  0  0
    0.6954    3.5023    2.7695 H   0  0  0  0  0  0  0  0  0  0  0  0
    0.1474    3.9536    1.1372 H   0  0  0  0  0  0  0  0  0  0  0  0
  5  6  2  0  0  0  0
  5  7  1  0  0  0  0
  2  3  1  0  0  0  0
  2  4  1  0  0  0  0
  2  5  1  0  0  0  0
  1  2  1  0  0  0  0
 24 25  2  0  0  0  0
 24 26  1  0  0  0  0
 20 21  1  0  0  0  0
 20 22  1  0  0  0  0
 20 23  1  0  0  0  0
 16 17  1  0  0  0  0
 16 18  1  0  0  0  0
 16 19  1  0  0  0  0
 14 15  1  0  0  0  0
 14 16  1  0  0  0  0
 14 20  1  0  0  0  0
 11 12  1  0  0  0  0
 11 13  1  0  0  0  0
 11 14  1  0  0  0  0
  9 10  1  0  0  0  0
  9 11  1  0  0  0  0
  9 24  1  0  0  0  0
  7  8  1  0  0  0  0
  7  9  1  0  0  0  0
 28 29  1  0  0  0  0
 28 30  1  0  0  0  0
 28 31  1  0  0  0  0
 26 27  1  0  0  0  0
 26 28  1  0  0  0  0
M  END
$$$$
default_name
  -OEChem-02102213163D

 31 30  0     1  0  0  0  0  0999 V2000
   -3.5895   -3.5013    1.1082 H   0  0  0  0  0  0  0  0  0  0  0  0
   -3.5145   -2.5363    0.6082 C   0  0  0  0  0  0  0  0  0  0  0  0
   -4.2285   -1.8413    1.0452 H   0  0  0  0  0  0  0  0  0  0  0  0
   -3.7155   -2.6583   -0.4538 H   0  0  0  0  0  0  0  0  0  0  0  0
   -2.1155   -1.9963    0.7922 C   0  0  0  0  0  0  0  0  0  0  0  0
   -1.2875   -2.6383    1.4252 O   0  0  0  0  0  0  0  0  0  0  0  0
   -1.8575   -0.8123    0.2402 N   0  0  0  0  0  0  0  0  0  0  0  0
   -2.6005   -0.3333   -0.2478 H   0  0  0  0  0  0  0  0  0  0  0  0
   -0.5675   -0.1203    0.3102 C   0  0  1  0  0  0  0  0  0  0  0  0
    0.0191   -0.5718    1.1110 H   0  0  0  0  0  0  0  0  0  0  0  0
    0.1724   -0.3238   -1.0286 C   0  0  0  0  0  0  0  0  0  0  0  0
    1.0991   -0.8677   -0.8356 H   0  0  0  0  0  0  0  0  0  0  0  0
   -0.4527   -0.9518   -1.6673 H   0  0  0  0  0  0  0  0  0  0  0  0
    0.5146    0.9602   -1.8064 C   0  0  0  0  0  0  0  0  0  0  0  0
    1.1387    1.6081   -1.1910 H   0  0  0  0  0  0  0  0  0  0  0  0
    1.2459    0.6648   -3.1191 C   0  0  0  0  0  0  0  0  0  0  0  0
    0.6402    0.0034   -3.7400 H   0  0  0  0  0  0  0  0  0  0  0  0
    1.4237    1.5958   -3.6578 H   0  0  0  0  0  0  0  0  0  0  0  0
    2.2056    0.1904   -2.9258 H   0  0  0  0  0  0  0  0  0  0  0  0
   -0.7692    1.7187   -2.1410 C   0  0  0  0  0  0  0  0  0  0  0  0
   -1.2964    1.9711   -1.2210 H   0  0  0  0  0  0  0  0  0  0  0  0
   -0.5278    2.6421   -2.6675 H   0  0  0  0  0  0  0  0  0  0  0  0
   -1.4155    1.1047   -2.7692 H   0  0  0  0  0  0  0  0  0  0  0  0
   -0.7793    1.3659    0.6455 C   0  0  0  0  0  0  0  0  0  0  0  0
   -1.6464    2.0125    0.0623 O   0  0  0  0  0  0  0  0  0  0  0  0
    0.0189    1.9059    1.5756 N   0  0  0  0  0  0  0  0  0  0  0  0
    0.7024    1.3094    2.0137 H   0  0  0  0  0  0  0  0  0  0  0  0
   -0.0451    3.3046    1.9929 C   0  0  0  0  0  0  0  0  0  0  0  0
   -1.0415    3.5286    2.3805 H   0  0  0  0  0  0  0  0  0  0  0  0
    0.6954    3.5023    2.7695 H   0  0  0  0  0  0  0  0  0  0  0  0
    0.1474    3.9536    1.1372 H   0  0  0  0  0  0  0  0  0  0  0  0
  5  6  2  0  0  0  0
  5  7  1  0  0  0  0
  2  3  1  0  0  0  0
  2  4  1  0  0  0  0
  2  5  1  0  0  0  0
  1  2  1  0  0  0  0
 24 25  2  0  0  0  0
 24 26  1  0  0  0  0
 20 21  1  0  0  0  0
 20 22  1  0  0  0  0
 20 23  1  0  0  0  0
 16 17  1  0  0  0  0
 16 18  1  0  0  0  0
 16 19  1  0  0  0  0
 14 15  1  0  0  0  0
 14 16  1  0  0  0  0
 14 20  1  0  0  0  0
 11 12  1  0  0  0  0
 11 13  1  0  0  0  0
 11 14  1  0  0  0  0
  9 10  1  0  0  0  0
  9 11  1  0  0  0  0
  9 24  1  0  0  0  0
  7  8  1  0  0  0  0
  7  9  1  0  0  0  0
 28 29  1  0  0  0  0
 28 30  1  0  0  0  0
 28 31  1  0  0  0  0
 26 27  1  0  0  0  0
 26 28  1  0  0  0  0
M  END
$$$$
default_name
  -OEChem-02102213163D

 31 30  0     1  0  0  0  0  0999 V2000
   -3.5895   -3.5013    1.1082 H   0  0  0  0  0  0  0  0  0  0  0  0
   -3.5145   -2.5363    0.6082 C   0  0  0  0  0  0  0  0  0  0  0  0
   -4.2285   -1.8413    1.0452 H   0  0  0  0  0  0  0  0  0  0  0  0
   -3.7155   -2.6583   -0.4538 H   0  0  0  0  0  0  0  0  0  0  0  0
   -2.1155   -1.9963    0.7922 C   0  0  0  0  0  0  0  0  0  0  0  0
   -1.2875   -2.6383    1.4252 O   0  0  0  0  0  0  0  0  0  0  0  0
   -1.8575   -0.8123    0.2402 N   0  0  0  0  0  0  0  0  0  0  0  0
   -2.6005   -0.3333   -0.2478 H   0  0  0  0  0  0  0  0  0  0  0  0
   -0.5675   -0.1203    0.3102 C   0  0  1  0  0  0  0  0  0  0  0  0
    0.0191   -0.5718    1.1110 H   0  0  0  0  0  0  0  0  0  0  0  0
    0.1724   -0.3238   -1.0286 C   0  0  0  0  0  0  0  0  0  0  0  0
    1.0991   -0.8677   -0.8356 H   0  0  0  0  0  0  0  0  0  0  0  0
   -0.4527   -0.9518   -1.6673 H   0  0  0  0  0  0  0  0  0  0  0  0
    0.5146    0.9602   -1.8064 C   0  0  0  0  0  0  0  0  0  0  0  0
    1.3377    1.4795   -1.3157 H   0  0  0  0  0  0  0  0  0  0  0  0
    0.9035    0.6712   -3.2592 C   0  0  0  0  0  0  0  0  0  0  0  0
    0.0950    0.1367   -3.7598 H   0  0  0  0  0  0  0  0  0  0  0  0
    1.0889    1.6092   -3.7831 H   0  0  0  0  0  0  0  0  0  0  0  0
    1.8080    0.0684   -3.3021 H   0  0  0  0  0  0  0  0  0  0  0  0
   -0.6946    1.8946   -1.8178 C   0  0  0  0  0  0  0  0  0  0  0  0
   -0.9750    2.1439   -0.7944 H   0  0  0  0  0  0  0  0  0  0  0  0
   -0.4460    2.8162   -2.3441 H   0  0  0  0  0  0  0  0  0  0  0  0
   -1.5373    1.4125   -2.3146 H   0  0  0  0  0  0  0  0  0  0  0  0
   -0.7793    1.3659    0.6455 C   0  0  0  0  0  0  0  0  0  0  0  0
   -1.6464    2.0125    0.0623 O   0  0  0  0  0  0  0  0  0  0  0  0
    0.0189    1.9059    1.5756 N   0  0  0  0  0  0  0  0  0  0  0  0
    0.7024    1.3094    2.0137 H   0  0  0  0  0  0  0  0  0  0  0  0
   -0.0451    3.3046    1.9929 C   0  0  0  0  0  0  0  0  0  0  0  0
   -1.0415    3.5286    2.3805 H   0  0  0  0  0  0  0  0  0  0  0  0
    0.6954    3.5023    2.7695 H   0  0  0  0  0  0  0  0  0  0  0  0
    0.1474    3.9536    1.1372 H   0  0  0  0  0  0  0  0  0  0  0  0
  5  6  2  0  0  0  0
  5  7  1  0  0  0  0
  2  3  1  0  0  0  0
  2  4  1  0  0  0  0
  2  5  1  0  0  0  0
  1  2  1  0  0  0  0
 24 25  2  0  0  0  0
 24 26  1  0  0  0  0
 20 21  1  0  0  0  0
 20 22  1  0  0  0  0
 20 23  1  0  0  0  0
 16 17  1  0  0  0  0
 16 18  1  0  0  0  0
 16 19  1  0  0  0  0
 14 15  1  0  0  0  0
 14 16  1  0  0  0  0
 14 20  1  0  0  0  0
 11 12  1  0  0  0  0
 11 13  1  0  0  0  0
 11 14  1  0  0  0  0
  9 10  1  0  0  0  0
  9 11  1  0  0  0  0
  9 24  1  0  0  0  0
  7  8  1  0  0  0  0
  7  9  1  0  0  0  0
 28 29  1  0  0  0  0
 28 30  1  0  0  0  0
 28 31  1  0  0  0  0
 26 27  1  0  0  0  0
 26 28  1  0  0  0  0
M  END
$$$$
default_name
  -OEChem-02102213163D

 31 30  0     1  0  0  0  0  0999 V2000
   -3.5895   -3.5013    1.1082 H   0  0  0  0  0  0  0  0  0  0  0  0
   -3.5145   -2.5363    0.6082 C   0  0  0  0  0  0  0  0  0  0  0  0
   -4.2285   -1.8413    1.0452 H   0  0  0  0  0  0  0  0  0  0  0  0
   -3.7155   -2.6583   -0.4538 H   0  0  0  0  0  0  0  0  0  0  0  0
   -2.1155   -1.9963    0.7922 C   0  0  0  0  0  0  0  0  0  0  0  0
   -1.2875   -2.6383    1.4252 O   0  0  0  0  0  0  0  0  0  0  0  0
   -1.8575   -0.8123    0.2402 N   0  0  0  0  0  0  0  0  0  0  0  0
   -2.6005   -0.3333   -0.2478 H   0  0  0  0  0  0  0  0  0  0  0  0
   -0.5675   -0.1203    0.3102 C   0  0  1  0  0  0  0  0  0  0  0  0
    0.0191   -0.5718    1.1110 H   0  0  0  0  0  0  0  0  0  0  0  0
    0.1724   -0.3238   -1.0286 C   0  0  0  0  0  0  0  0  0  0  0  0
    1.0991   -0.8677   -0.8356 H   0  0  0  0  0  0  0  0  0  0  0  0
   -0.4527   -0.9518   -1.6673 H   0  0  0  0  0  0  0  0  0  0  0  0
    0.5146    0.9602   -1.8064 C   0  0  0  0  0  0  0  0  0  0  0  0
    1.4863    1.3364   -1.4866 H   0  0  0  0  0  0  0  0  0  0  0  0
    0.5433    0.7302   -3.3202 C   0  0  0  0  0  0  0  0  0  0  0  0
   -0.4184    0.3379   -3.6537 H   0  0  0  0  0  0  0  0  0  0  0  0
    0.7401    1.6730   -3.8311 H   0  0  0  0  0  0  0  0  0  0  0  0
    1.3268    0.0242   -3.5868 H   0  0  0  0  0  0  0  0  0  0  0  0
   -0.5298    2.0362   -1.5115 C   0  0  0  0  0  0  0  0  0  0  0  0
   -0.5500    2.2442   -0.4418 H   0  0  0  0  0  0  0  0  0  0  0  0
   -0.2745    2.9551   -2.0393 H   0  0  0  0  0  0  0  0  0  0  0  0
   -1.5166    1.6997   -1.8314 H   0  0  0  0  0  0  0  0  0  0  0  0
   -0.7793    1.3659    0.6455 C   0  0  0  0  0  0  0  0  0  0  0  0
   -1.6464    2.0125    0.0623 O   0  0  0  0  0  0  0  0  0  0  0  0
    0.0189    1.9059    1.5756 N   0  0  0  0  0  0  0  0  0  0  0  0
    0.7024    1.3094    2.0137 H   0  0  0  0  0  0  0  0  0  0  0  0
   -0.0451    3.3046    1.9929 C   0  0  0  0  0  0  0  0  0  0  0  0
   -1.0415    3.5286    2.3805 H   0  0  0  0  0  0  0  0  0  0  0  0
    0.6954    3.5023    2.7695 H   0  0  0  0  0  0  0  0  0  0  0  0
    0.1474    3.9536    1.1372 H   0  0  0  0  0  0  0  0  0  0  0  0
  5  6  2  0  0  0  0
  5  7  1  0  0  0  0
  2  3  1  0  0  0  0
  2  4  1  0  0  0  0
  2  5  1  0  0  0  0
  1  2  1  0  0  0  0
 24 25  2  0  0  0  0
 24 26  1  0  0  0  0
 20 21  1  0  0  0  0
 20 22  1  0  0  0  0
 20 23  1  0  0  0  0
 16 17  1  0  0  0  0
 16 18  1  0  0  0  0
 16 19  1  0  0  0  0
 14 15  1  0  0  0  0
 14 16  1  0  0  0  0
 14 20  1  0  0  0  0
 11 12  1  0  0  0  0
 11 13  1  0  0  0  0
 11 14  1  0  0  0  0
  9 10  1  0  0  0  0
  9 11  1  0  0  0  0
  9 24  1  0  0  0  0
  7  8  1  0  0  0  0
  7  9  1  0  0  0  0
 28 29  1  0  0  0  0
 28 30  1  0  0  0  0
 28 31  1  0  0  0  0
 26 27  1  0  0  0  0
 26 28  1  0  0  0  0
M  END
$$$$
default_name
  -OEChem-02102213163D

 31 30  0     1  0  0  0  0  0999 V2000
   -3.5895   -3.5013    1.1082 H   0  0  0  0  0  0  0  0  0  0  0  0
   -3.5145   -2.5363    0.6082 C   0  0  0  0  0  0  0  0  0  0  0  0
   -4.2285   -1.8413    1.0452 H   0  0  0  0  0  0  0  0  0  0  0  0
   -3.7155   -2.6583   -0.4538 H   0  0  0  0  0  0  0  0  0  0  0  0
   -2.1155   -1.9963    0.7922 C   0  0  0  0  0  0  0  0  0  0  0  0
   -1.2875   -2.6383    1.4252 O   0  0  0  0  0  0  0  0  0  0  0  0
   -1.8575   -0.8123    0.2402 N   0  0  0  0  0  0  0  0  0  0  0  0
   -2.6005   -0.3333   -0.2478 H   0  0  0  0  0  0  0  0  0  0  0  0
   -0.5675   -0.1203    0.3102 C   0  0  1  0  0  0  0  0  0  0  0  0
    0.0191   -0.5718    1.1110 H   0  0  0  0  0  0  0  0  0  0  0  0
    0.1724   -0.3238   -1.0286 C   0  0  0  0  0  0  0  0  0  0  0  0
    1.0991   -0.8677   -0.8356 H   0  0  0  0  0  0  0  0  0  0  0  0
   -0.4527   -0.9518   -1.6673 H   0  0  0  0  0  0  0  0  0  0  0  0
    0.5146    0.9602   -1.8064 C   0  0  0  0  0  0  0  0  0  0  0  0
    1.5742    1.1886   -1.6919 H   0  0  0  0  0  0  0  0  0  0  0  0
    0.1899    0.8379   -3.2980 C   0  0  0  0  0  0  0  0  0  0  0  0
   -0.8651    0.5932   -3.4287 H   0  0  0  0  0  0  0  0  0  0  0  0
    0.4013    1.7831   -3.7985 H   0  0  0  0  0  0  0  0  0  0  0  0
    0.7948    0.0608   -3.7604 H   0  0  0  0  0  0  0  0  0  0  0  0
   -0.2860    2.1338   -1.2432 C   0  0  0  0  0  0  0  0  0  0  0  0
   -0.0502    2.2653   -0.1872 H   0  0  0  0  0  0  0  0  0  0  0  0
   -0.0249    3.0493   -1.7740 H   0  0  0  0  0  0  0  0  0  0  0  0
   -1.3547    1.9465   -1.3527 H   0  0  0  0  0  0  0  0  0  0  0  0
   -0.7793    1.3659    0.6455 C   0  0  0  0  0  0  0  0  0  0  0  0
   -1.6464    2.0125    0.0623 O   0  0  0  0  0  0  0  0  0  0  0  0
    0.0189    1.9059    1.5756 N   0  0  0  0  0  0  0  0  0  0  0  0
    0.7024    1.3094    2.0137 H   0  0  0  0  0  0  0  0  0  0  0  0
   -0.0451    3.3046    1.9929 C   0  0  0  0  0  0  0  0  0  0  0  0
   -1.0415    3.5286    2.3805 H   0  0  0  0  0  0  0  0  0  0  0  0
    0.6954    3.5023    2.7695 H   0  0  0  0  0  0  0  0  0  0  0  0
    0.1474    3.9536    1.1372 H   0  0  0  0  0  0  0  0  0  0  0  0
  5  6  2  0  0  0  0
  5  7  1  0  0  0  0
  2  3  1  0  0  0  0
  2  4  1  0  0  0  0
  2  5  1  0  0  0  0
  1  2  1  0  0  0  0
 24 25  2  0  0  0  0
 24 26  1  0  0  0  0
 20 21  1  0  0  0  0
 20 22  1  0  0  0  0
 20 23  1  0  0  0  0
 16 17  1  0  0  0  0
 16 18  1  0  0  0  0
 16 19  1  0  0  0  0
 14 15  1  0  0  0  0
 14 16  1  0  0  0  0
 14 20  1  0  0  0  0
 11 12  1  0  0  0  0
 11 13  1  0  0  0  0
 11 14  1  0  0  0  0
  9 10  1  0  0  0  0
  9 11  1  0  0  0  0
  9 24  1  0  0  0  0
  7  8  1  0  0  0  0
  7  9  1  0  0  0  0
 28 29  1  0  0  0  0
 28 30  1  0  0  0  0
 28 31  1  0  0  0  0
 26 27  1  0  0  0  0
 26 28  1  0  0  0  0
M  END
$$$$
default_name
  -OEChem-02102213163D

 31 30  0     1  0  0  0  0  0999 V2000
   -3.5895   -3.5013    1.1082 H   0  0  0  0  0  0  0  0  0  0  0  0
   -3.5145   -2.5363    0.6082 C   0  0  0  0  0  0  0  0  0  0  0  0
   -4.2285   -1.8413    1.0452 H   0  0  0  0  0  0  0  0  0  0  0  0
   -3.7155   -2.6583   -0.4538 H   0  0  0  0  0  0  0  0  0  0  0  0
   -2.1155   -1.9963    0.7922 C   0  0  0  0  0  0  0  0  0  0  0  0
   -1.2875   -2.6383    1.4252 O   0  0  0  0  0  0  0  0  0  0  0  0
   -1.8575   -0.8123    0.2402 N   0  0  0  0  0  0  0  0  0  0  0  0
   -2.6005   -0.3333   -0.2478 H   0  0  0  0  0  0  0  0  0  0  0  0
   -0.5675   -0.1203    0.3102 C   0  0  1  0  0  0  0  0  0  0  0  0
    0.0191   -0.5718    1.1110 H   0  0  0  0  0  0  0  0  0  0  0  0
    0.1724   -0.3238   -1.0286 C   0  0  0  0  0  0  0  0  0  0  0  0
    1.0991   -0.8677   -0.8356 H   0  0  0  0  0  0  0  0  0  0  0  0
   -0.4527   -0.9518   -1.6673 H   0  0  0  0  0  0  0  0  0  0  0  0
    0.5146    0.9602   -1.8064 C   0  0  0  0  0  0  0  0  0  0  0  0
    1.5955    1.0462   -1.9177 H   0  0  0  0  0  0  0  0  0  0  0  0
   -0.1326    0.9867   -3.1941 C   0  0  0  0  0  0  0  0  0  0  0  0
   -1.2147    0.8853   -3.1003 H   0  0  0  0  0  0  0  0  0  0  0  0
    0.0954    1.9318   -3.6875 H   0  0  0  0  0  0  0  0  0  0  0  0
    0.2482    0.1757   -3.8112 H   0  0  0  0  0  0  0  0  0  0  0  0
    0.0202    2.1807   -1.0310 C   0  0  0  0  0  0  0  0  0  0  0  0
    0.4902    2.2056   -0.0479 H   0  0  0  0  0  0  0  0  0  0  0  0
    0.2857    3.0925   -1.5661 H   0  0  0  0  0  0  0  0  0  0  0  0
   -1.0628    2.1363   -0.9111 H   0  0  0  0  0  0  0  0  0  0  0  0
   -0.7793    1.3659    0.6455 C   0  0  0  0  0  0  0  0  0  0  0  0
   -1.6464    2.0125    0.0623 O   0  0  0  0  0  0  0  0  0  0  0  0
    0.0189    1.9059    1.5756 N   0  0  0  0  0  0  0  0  0  0  0  0
    0.7024    1.3094    2.0137 H   0  0  0  0  0  0  0  0  0  0  0  0
   -0.0451    3.3046    1.9929 C   0  0  0  0  0  0  0  0  0  0  0  0
   -1.0415    3.5286    2.3805 H   0  0  0  0  0  0  0  0  0  0  0  0
    0.6954    3.5023    2.7695 H   0  0  0  0  0  0  0  0  0  0  0  0
    0.1474    3.9536    1.1372 H   0  0  0  0  0  0  0  0  0  0  0  0
  5  6  2  0  0  0  0
  5  7  1  0  0  0  0
  2  3  1  0  0  0  0
  2  4  1  0  0  0  0
  2  5  1  0  0  0  0
  1  2  1  0  0  0  0
 24 25  2  0  0  0  0
 24 26  1  0  0  0  0
 20 21  1  0  0  0  0
 20 22  1  0  0  0  0
 20 23  1  0  0  0  0
 16 17  1  0  0  0  0
 16 18  1  0  0  0  0
 16 19  1  0  0  0  0
 14 15  1  0  0  0  0
 14 16  1  0  0  0  0
 14 20  1  0  0  0  0
 11 12  1  0  0  0  0
 11 13  1  0  0  0  0
 11 14  1  0  0  0  0
  9 10  1  0  0  0  0
  9 11  1  0  0  0  0
  9 24  1  0  0  0  0
  7  8  1  0  0  0  0
  7  9  1  0  0  0  0
 28 29  1  0  0  0  0
 28 30  1  0  0  0  0
 28 31  1  0  0  0  0
 26 27  1  0  0  0  0
 26 28  1  0  0  0  0
M  END
$$$$
default_name
  -OEChem-02102213163D

 31 30  0     1  0  0  0  0  0999 V2000
   -3.5895   -3.5013    1.1082 H   0  0  0  0  0  0  0  0  0  0  0  0
   -3.5145   -2.5363    0.6082 C   0  0  0  0  0  0  0  0  0  0  0  0
   -4.2285   -1.8413    1.0452 H   0  0  0  0  0  0  0  0  0  0  0  0
   -3.7155   -2.6583   -0.4538 H   0  0  0  0  0  0  0  0  0  0  0  0
   -2.1155   -1.9963    0.7922 C   0  0  0  0  0  0  0  0  0  0  0  0
   -1.2875   -2.6383    1.4252 O   0  0  0  0  0  0  0  0  0  0  0  0
   -1.8575   -0.8123    0.2402 N   0  0  0  0  0  0  0  0  0  0  0  0
   -2.6005   -0.3333   -0.2478 H   0  0  0  0  0  0  0  0  0  0  0  0
   -0.5675   -0.1203    0.3102 C   0  0  1  0  0  0  0  0  0  0  0  0
    0.0191   -0.5718    1.1110 H   0  0  0  0  0  0  0  0  0  0  0  0
    0.1724   -0.3238   -1.0286 C   0  0  0  0  0  0  0  0  0  0  0  0
    1.0991   -0.8677   -0.8356 H   0  0  0  0  0  0  0  0  0  0  0  0
   -0.4527   -0.9518   -1.6673 H   0  0  0  0  0  0  0  0  0  0  0  0
    0.5146    0.9602   -1.8064 C   0  0  0  0  0  0  0  0  0  0  0  0
    1.5486    0.9188   -2.1486 H   0  0  0  0  0  0  0  0  0  0  0  0
   -0.4022    1.1667   -3.0156 C   0  0  0  0  0  0  0  0  0  0  0  0
   -1.4433    1.1942   -2.6909 H   0  0  0  0  0  0  0  0  0  0  0  0
   -0.1567    2.1091   -3.5058 H   0  0  0  0  0  0  0  0  0  0  0  0
   -0.2757    0.3611   -3.7356 H   0  0  0  0  0  0  0  0  0  0  0  0
    0.3679    2.1738   -0.8894 C   0  0  0  0  0  0  0  0  0  0  0  0
    1.0346    2.0693   -0.0334 H   0  0  0  0  0  0  0  0  0  0  0  0
    0.6363    3.0815   -1.4299 H   0  0  0  0  0  0  0  0  0  0  0  0
   -0.6607    2.2560   -0.5365 H   0  0  0  0  0  0  0  0  0  0  0  0
   -0.7793    1.3659    0.6455 C   0  0  0  0  0  0  0  0  0  0  0  0
   -1.6464    2.0125    0.0623 O   0  0  0  0  0  0  0  0  0  0  0  0
    0.0189    1.9059    1.5756 N   0  0  0  0  0  0  0  0  0  0  0  0
    0.7024    1.3094    2.0137 H   0  0  0  0  0  0  0  0  0  0  0  0
   -0.0451    3.3046    1.9929 C   0  0  0  0  0  0  0  0  0  0  0  0
   -1.0415    3.5286    2.3805 H   0  0  0  0  0  0  0  0  0  0  0  0
    0.6954    3.5023    2.7695 H   0  0  0  0  0  0  0  0  0  0  0  0
    0.1474    3.9536    1.1372 H   0  0  0  0  0  0  0  0  0  0  0  0
  5  6  2  0  0  0  0
  5  7  1  0  0  0  0
  2  3  1  0  0  0  0
  2  4  1  0  0  0  0
  2  5  1  0  0  0  0
  1  2  1  0  0  0  0
 24 25  2  0  0  0  0
 24 26  1  0  0  0  0
 20 21  1  0  0  0  0
 20 22  1  0  0  0  0
 20 23  1  0  0  0  0
 16 17  1  0  0  0  0
 16 18  1  0  0  0  0
 16 19  1  0  0  0  0
 14 15  1  0  0  0  0
 14 16  1  0  0  0  0
 14 20  1  0  0  0  0
 11 12  1  0  0  0  0
 11 13  1  0  0  0  0
 11 14  1  0  0  0  0
  9 10  1  0  0  0  0
  9 11  1  0  0  0  0
  9 24  1  0  0  0  0
  7  8  1  0  0  0  0
  7  9  1  0  0  0  0
 28 29  1  0  0  0  0
 28 30  1  0  0  0  0
 28 31  1  0  0  0  0
 26 27  1  0  0  0  0
 26 28  1  0  0  0  0
M  END
$$$$
default_name
  -OEChem-02102213163D

 31 30  0     1  0  0  0  0  0999 V2000
   -3.5895   -3.5013    1.1082 H   0  0  0  0  0  0  0  0  0  0  0  0
   -3.5145   -2.5363    0.6082 C   0  0  0  0  0  0  0  0  0  0  0  0
   -4.2285   -1.8413    1.0452 H   0  0  0  0  0  0  0  0  0  0  0  0
   -3.7155   -2.6583   -0.4538 H   0  0  0  0  0  0  0  0  0  0  0  0
   -2.1155   -1.9963    0.7922 C   0  0  0  0  0  0  0  0  0  0  0  0
   -1.2875   -2.6383    1.4252 O   0  0  0  0  0  0  0  0  0  0  0  0
   -1.8575   -0.8123    0.2402 N   0  0  0  0  0  0  0  0  0  0  0  0
   -2.6005   -0.3333   -0.2478 H   0  0  0  0  0  0  0  0  0  0  0  0
   -0.5675   -0.1203    0.3102 C   0  0  1  0  0  0  0  0  0  0  0  0
    0.0191   -0.5718    1.1110 H   0  0  0  0  0  0  0  0  0  0  0  0
    0.1724   -0.3238   -1.0286 C   0  0  0  0  0  0  0  0  0  0  0  0
    1.0991   -0.8677   -0.8356 H   0  0  0  0  0  0  0  0  0  0  0  0
   -0.4527   -0.9518   -1.6673 H   0  0  0  0  0  0  0  0  0  0  0  0
    0.5146    0.9602   -1.8064 C   0  0  0  0  0  0  0  0  0  0  0  0
    1.4369    0.8152   -2.3688 H   0  0  0  0  0  0  0  0  0  0  0  0
   -0.6006    1.3656   -2.7746 C   0  0  0  0  0  0  0  0  0  0  0  0
   -1.5353    1.4989   -2.2283 H   0  0  0  0  0  0  0  0  0  0  0  0
   -0.3378    2.3028   -3.2656 H   0  0  0  0  0  0  0  0  0  0  0  0
   -0.7413    0.6043   -3.5389 H   0  0  0  0  0  0  0  0  0  0  0  0
    0.7335    2.1136   -0.8281 C   0  0  0  0  0  0  0  0  0  0  0  0
    1.5456    1.8657   -0.1448 H   0  0  0  0  0  0  0  0  0  0  0  0
    1.0030    3.0173   -1.3747 H   0  0  0  0  0  0  0  0  0  0  0  0
   -0.1758    2.2975   -0.2547 H   0  0  0  0  0  0  0  0  0  0  0  0
   -0.7793    1.3659    0.6455 C   0  0  0  0  0  0  0  0  0  0  0  0
   -1.6464    2.0125    0.0623 O   0  0  0  0  0  0  0  0  0  0  0  0
    0.0189    1.9059    1.5756 N   0  0  0  0  0  0  0  0  0  0  0  0
    0.7024    1.3094    2.0137 H   0  0  0  0  0  0  0  0  0  0  0  0
   -0.0451    3.3046    1.9929 C   0  0  0  0  0  0  0  0  0  0  0  0
   -1.0415    3.5286    2.3805 H   0  0  0  0  0  0  0  0  0  0  0  0
    0.6954    3.5023    2.7695 H   0  0  0  0  0  0  0  0  0  0  0  0
    0.1474    3.9536    1.1372 H   0  0  0  0  0  0  0  0  0  0  0  0
  5  6  2  0  0  0  0
  5  7  1  0  0  0  0
  2  3  1  0  0  0  0
  2  4  1  0  0  0  0
  2  5  1  0  0  0  0
  1  2  1  0  0  0  0
 24 25  2  0  0  0  0
 24 26  1  0  0  0  0
 20 21  1  0  0  0  0
 20 22  1  0  0  0  0
 20 23  1  0  0  0  0
 16 17  1  0  0  0  0
 16 18  1  0  0  0  0
 16 19  1  0  0  0  0
 14 15  1  0  0  0  0
 14 16  1  0  0  0  0
 14 20  1  0  0  0  0
 11 12  1  0  0  0  0
 11 13  1  0  0  0  0
 11 14  1  0  0  0  0
  9 10  1  0  0  0  0
  9 11  1  0  0  0  0
  9 24  1  0  0  0  0
  7  8  1  0  0  0  0
  7  9  1  0  0  0  0
 28 29  1  0  0  0  0
 28 30  1  0  0  0  0
 28 31  1  0  0  0  0
 26 27  1  0  0  0  0
 26 28  1  0  0  0  0
M  END
$$$$
default_name
  -OEChem-02102213163D

 31 30  0     1  0  0  0  0  0999 V2000
   -3.5895   -3.5013    1.1082 H   0  0  0  0  0  0  0  0  0  0  0  0
   -3.5145   -2.5363    0.6082 C   0  0  0  0  0  0  0  0  0  0  0  0
   -4.2285   -1.8413    1.0452 H   0  0  0  0  0  0  0  0  0  0  0  0
   -3.7155   -2.6583   -0.4538 H   0  0  0  0  0  0  0  0  0  0  0  0
   -2.1155   -1.9963    0.7922 C   0  0  0  0  0  0  0  0  0  0  0  0
   -1.2875   -2.6383    1.4252 O   0  0  0  0  0  0  0  0  0  0  0  0
   -1.8575   -0.8123    0.2402 N   0  0  0  0  0  0  0  0  0  0  0  0
   -2.6005   -0.3333   -0.2478 H   0  0  0  0  0  0  0  0  0  0  0  0
   -0.5675   -0.1203    0.3102 C   0  0  1  0  0  0  0  0  0  0  0  0
    0.0191   -0.5718    1.1110 H   0  0  0  0  0  0  0  0  0  0  0  0
    0.1724   -0.3238   -1.0286 C   0  0  0  0  0  0  0  0  0  0  0  0
    1.0991   -0.8677   -0.8356 H   0  0  0  0  0  0  0  0  0  0  0  0
   -0.4527   -0.9518   -1.6673 H   0  0  0  0  0  0  0  0  0  0  0  0
    0.5146    0.9602   -1.8064 C   0  0  0  0  0  0  0  0  0  0  0  0
    1.2679    0.7423   -2.5634 H   0  0  0  0  0  0  0  0  0  0  0  0
   -0.7142    1.5697   -2.4876 C   0  0  0  0  0  0  0  0  0  0  0  0
   -1.4845    1.7787   -1.7440 H   0  0  0  0  0  0  0  0  0  0  0  0
   -0.4355    2.4998   -2.9834 H   0  0  0  0  0  0  0  0  0  0  0  0
   -1.1167    0.8888   -3.2345 H   0  0  0  0  0  0  0  0  0  0  0  0
    1.0919    2.0041   -0.8512 C   0  0  0  0  0  0  0  0  0  0  0  0
    1.9886    1.6086   -0.3743 H   0  0  0  0  0  0  0  0  0  0  0  0
    1.3606    2.9041   -1.4041 H   0  0  0  0  0  0  0  0  0  0  0  0
    0.3588    2.2580   -0.0847 H   0  0  0  0  0  0  0  0  0  0  0  0
   -0.7793    1.3659    0.6455 C   0  0  0  0  0  0  0  0  0  0  0  0
   -1.6464    2.0125    0.0623 O   0  0  0  0  0  0  0  0  0  0  0  0
    0.0189    1.9059    1.5756 N   0  0  0  0  0  0  0  0  0  0  0  0
    0.7024    1.3094    2.0137 H   0  0  0  0  0  0  0  0  0  0  0  0
   -0.0451    3.3046    1.9929 C   0  0  0  0  0  0  0  0  0  0  0  0
   -1.0415    3.5286    2.3805 H   0  0  0  0  0  0  0  0  0  0  0  0
    0.6954    3.5023    2.7695 H   0  0  0  0  0  0  0  0  0  0  0  0
    0.1474    3.9536    1.1372 H   0  0  0  0  0  0  0  0  0  0  0  0
  5  6  2  0  0  0  0
  5  7  1  0  0  0  0
  2  3  1  0  0  0  0
  2  4  1  0  0  0  0
  2  5  1  0  0  0  0
  1  2  1  0  0  0  0
 24 25  2  0  0  0  0
 24 26  1  0  0  0  0
 20 21  1  0  0  0  0
 20 22  1  0  0  0  0
 20 23  1  0  0  0  0
 16 17  1  0  0  0  0
 16 18  1  0  0  0  0
 16 19  1  0  0  0  0
 14 15  1  0  0  0  0
 14 16  1  0  0  0  0
 14 20  1  0  0  0  0
 11 12  1  0  0  0  0
 11 13  1  0  0  0  0
 11 14  1  0  0  0  0
  9 10  1  0  0  0  0
  9 11  1  0  0  0  0
  9 24  1  0  0  0  0
  7  8  1  0  0  0  0
  7  9  1  0  0  0  0
 28 29  1  0  0  0  0
 28 30  1  0  0  0  0
 28 31  1  0  0  0  0
 26 27  1  0  0  0  0
 26 28  1  0  0  0  0
M  END
$$$$
default_name
  -OEChem-02102213163D

 31 30  0     1  0  0  0  0  0999 V2000
   -3.5895   -3.5013    1.1082 H   0  0  0  0  0  0  0  0  0  0  0  0
   -3.5145   -2.5363    0.6082 C   0  0  0  0  0  0  0  0  0  0  0  0
   -4.2285   -1.8413    1.0452 H   0  0  0  0  0  0  0  0  0  0  0  0
   -3.7155   -2.6583   -0.4538 H   0  0  0  0  0  0  0  0  0  0  0  0
   -2.1155   -1.9963    0.7922 C   0  0  0  0  0  0  0  0  0  0  0  0
   -1.2875   -2.6383    1.4252 O   0  0  0  0  0  0  0  0  0  0  0  0
   -1.8575   -0.8123    0.2402 N   0  0  0  0  0  0  0  0  0  0  0  0
   -2.6005   -0.3333   -0.2478 H   0  0  0  0  0  0  0  0  0  0  0  0
   -0.5675   -0.1203    0.3102 C   0  0  1  0  0  0  0  0  0  0  0  0
    0.0191   -0.5718    1.1110 H   0  0  0  0  0  0  0  0  0  0  0  0
    0.1724   -0.3238   -1.0286 C   0  0  0  0  0  0  0  0  0  0  0  0
    1.0991   -0.8677   -0.8356 H   0  0  0  0  0  0  0  0  0  0  0  0
   -0.4527   -0.9518   -1.6673 H   0  0  0  0  0  0  0  0  0  0  0  0
    0.5146    0.9602   -1.8064 C   0  0  0  0  0  0  0  0  0  0  0  0
    1.0532    0.7052   -2.7191 H   0  0  0  0  0  0  0  0  0  0  0  0
   -0.7353    1.7652   -2.1741 C   0  0  0  0  0  0  0  0  0  0  0  0
   -1.2943    2.0145   -1.2712 H   0  0  0  0  0  0  0  0  0  0  0  0
   -0.4433    2.6867   -2.6784 H   0  0  0  0  0  0  0  0  0  0  0  0
   -1.3764    1.1951   -2.8430 H   0  0  0  0  0  0  0  0  0  0  0  0
    1.4188    1.8527   -0.9572 C   0  0  0  0  0  0  0  0  0  0  0  0
    2.3334    1.3155   -0.7065 H   0  0  0  0  0  0  0  0  0  0  0  0
    1.6849    2.7498   -1.5163 H   0  0  0  0  0  0  0  0  0  0  0  0
    0.9068    2.1401   -0.0382 H   0  0  0  0  0  0  0  0  0  0  0  0
   -0.7793    1.3659    0.6455 C   0  0  0  0  0  0  0  0  0  0  0  0
   -1.6464    2.0125    0.0623 O   0  0  0  0  0  0  0  0  0  0  0  0
    0.0189    1.9059    1.5756 N   0  0  0  0  0  0  0  0  0  0  0  0
    0.7024    1.3094    2.0137 H   0  0  0  0  0  0  0  0  0  0  0  0
   -0.0451    3.3046    1.9929 C   0  0  0  0  0  0  0  0  0  0  0  0
   -1.0415    3.5286    2.3805 H   0  0  0  0  0  0  0  0  0  0  0  0
    0.6954    3.5023    2.7695 H   0  0  0  0  0  0  0  0  0  0  0  0
    0.1474    3.9536    1.1372 H   0  0  0  0  0  0  0  0  0  0  0  0
  5  6  2  0  0  0  0
  5  7  1  0  0  0  0
  2  3  1  0  0  0  0
  2  4  1  0  0  0  0
  2  5  1  0  0  0  0
  1  2  1  0  0  0  0
 24 25  2  0  0  0  0
 24 26  1  0  0  0  0
 20 21  1  0  0  0  0
 20 22  1  0  0  0  0
 20 23  1  0  0  0  0
 16 17  1  0  0  0  0
 16 18  1  0  0  0  0
 16 19  1  0  0  0  0
 14 15  1  0  0  0  0
 14 16  1  0  0  0  0
 14 20  1  0  0  0  0
 11 12  1  0  0  0  0
 11 13  1  0  0  0  0
 11 14  1  0  0  0  0
  9 10  1  0  0  0  0
  9 11  1  0  0  0  0
  9 24  1  0  0  0  0
  7  8  1  0  0  0  0
  7  9  1  0  0  0  0
 28 29  1  0  0  0  0
 28 30  1  0  0  0  0
 28 31  1  0  0  0  0
 26 27  1  0  0  0  0
 26 28  1  0  0  0  0
M  END
$$$$
default_name
  -OEChem-02102213163D

 31 30  0     1  0  0  0  0  0999 V2000
   -3.5895   -3.5013    1.1082 H   0  0  0  0  0  0  0  0  0  0  0  0
   -3.5145   -2.5363    0.6082 C   0  0  0  0  0  0  0  0  0  0  0  0
   -4.2285   -1.8413    1.0452 H   0  0  0  0  0  0  0  0  0  0  0  0
   -3.7155   -2.6583   -0.4538 H   0  0  0  0  0  0  0  0  0  0  0  0
   -2.1155   -1.9963    0.7922 C   0  0  0  0  0  0  0  0  0  0  0  0
   -1.2875   -2.6383    1.4252 O   0  0  0  0  0  0  0  0  0  0  0  0
   -1.8575   -0.8123    0.2402 N   0  0  0  0  0  0  0  0  0  0  0  0
   -2.6005   -0.3333   -0.2478 H   0  0  0  0  0  0  0  0  0  0  0  0
   -0.5675   -0.1203    0.3102 C   0  0  1  0  0  0  0  0  0  0  0  0
    0.0191   -0.5718    1.1110 H   0  0  0  0  0  0  0  0  0  0  0  0
    0.1724   -0.3238   -1.0286 C   0  0  0  0  0  0  0  0  0  0  0  0
    1.0991   -0.8677   -0.8356 H   0  0  0  0  0  0  0  0  0  0  0  0
   -0.4527   -0.9518   -1.6673 H   0  0  0  0  0  0  0  0  0  0  0  0
    0.5146    0.9602   -1.8064 C   0  0  0  0  0  0  0  0  0  0  0  0
    0.8073    0.7065   -2.8253 H   0  0  0  0  0  0  0  0  0  0  0  0
   -0.6624    1.9388   -1.8555 C   0  0  0  0  0  0  0  0  0  0  0  0
   -0.9777    2.1901   -0.8419 H   0  0  0  0  0  0  0  0  0  0  0  0
   -0.3605    2.8506   -2.3713 H   0  0  0  0  0  0  0  0  0  0  0  0
   -1.5027    1.5025   -2.3912 H   0  0  0  0  0  0  0  0  0  0  0  0
    1.6918    1.6699   -1.1388 C   0  0  0  0  0  0  0  0  0  0  0  0
    2.5563    1.0064   -1.1186 H   0  0  0  0  0  0  0  0  0  0  0  0
    1.9538    2.5647   -1.7035 H   0  0  0  0  0  0  0  0  0  0  0  0
    1.4307    1.9520   -0.1183 H   0  0  0  0  0  0  0  0  0  0  0  0
   -0.7793    1.3659    0.6455 C   0  0  0  0  0  0  0  0  0  0  0  0
   -1.6464    2.0125    0.0623 O   0  0  0  0  0  0  0  0  0  0  0  0
    0.0189    1.9059    1.5756 N   0  0  0  0  0  0  0  0  0  0  0  0
    0.7024    1.3094    2.0137 H   0  0  0  0  0  0  0  0  0  0  0  0
   -0.0451    3.3046    1.9929 C   0  0  0  0  0  0  0  0  0  0  0  0
   -1.0415    3.5286    2.3805 H   0  0  0  0  0  0  0  0  0  0  0  0
    0.6954    3.5023    2.7695 H   0  0  0  0  0  0  0  0  0  0  0  0
    0.1474    3.9536    1.1372 H   0  0  0  0  0  0  0  0  0  0  0  0
  5  6  2  0  0  0  0
  5  7  1  0  0  0  0
  2  3  1  0  0  0  0
  2  4  1  0  0  0  0
  2  5  1  0  0  0  0
  1  2  1  0  0  0  0
 24 25  2  0  0  0  0
 24 26  1  0  0  0  0
 20 21  1  0  0  0  0
 20 22  1  0  0  0  0
 20 23  1  0  0  0  0
 16 17  1  0  0  0  0
 16 18  1  0  0  0  0
 16 19  1  0  0  0  0
 14 15  1  0  0  0  0
 14 16  1  0  0  0  0
 14 20  1  0  0  0  0
 11 12  1  0  0  0  0
 11 13  1  0  0  0  0
 11 14  1  0  0  0  0
  9 10  1  0  0  0  0
  9 11  1  0  0  0  0
  9 24  1  0  0  0  0
  7  8  1  0  0  0  0
  7  9  1  0  0  0  0
 28 29  1  0  0  0  0
 28 30  1  0  0  0  0
 28 31  1  0  0  0  0
 26 27  1  0  0  0  0
 26 28  1  0  0  0  0
M  END
$$$$
default_name
  -OEChem-02102213163D

 31 30  0     1  0  0  0  0  0999 V2000
   -3.5895   -3.5013    1.1082 H   0  0  0  0  0  0  0  0  0  0  0  0
   -3.5145   -2.5363    0.6082 C   0  0  0  0  0  0  0  0  0  0  0  0
   -4.2285   -1.8413    1.0452 H   0  0  0  0  0  0  0  0  0  0  0  0
   -3.7155   -2.6583   -0.4538 H   0  0  0  0  0  0  0  0  0  0  0  0
   -2.1155   -1.9963    0.7922 C   0  0  0  0  0  0  0  0  0  0  0  0
   -1.2875   -2.6383    1.4252 O   0  0  0  0  0  0  0  0  0  0  0  0
   -1.8575   -0.8123    0.2402 N   0  0  0  0  0  0  0  0  0  0  0  0
   -2.6005   -0.3333   -0.2478 H   0  0  0  0  0  0  0  0  0  0  0  0
   -0.5675   -0.1203    0.3102 C   0  0  1  0  0  0  0  0  0  0  0  0
    0.0191   -0.5718    1.1110 H   0  0  0  0  0  0  0  0  0  0  0  0
    0.1724   -0.3238   -1.0286 C   0  0  0  0  0  0  0  0  0  0  0  0
    1.0991   -0.8677   -0.8356 H   0  0  0  0  0  0  0  0  0  0  0  0
   -0.4527   -0.9518   -1.6673 H   0  0  0  0  0  0  0  0  0  0  0  0
    0.5146    0.9602   -1.8064 C   0  0  0  0  0  0  0  0  0  0  0  0
    0.5470    0.7459   -2.8747 H   0  0  0  0  0  0  0  0  0  0  0  0
   -0.5005    2.0786   -1.5535 C   0  0  0  0  0  0  0  0  0  0  0  0
   -0.5564    2.2937   -0.4855 H   0  0  0  0  0  0  0  0  0  0  0  0
   -0.1928    2.9804   -2.0832 H   0  0  0  0  0  0  0  0  0  0  0  0
   -1.4870    1.7899   -1.9098 H   0  0  0  0  0  0  0  0  0  0  0  0
    1.8925    1.4681   -1.3837 C   0  0  0  0  0  0  0  0  0  0  0  0
    2.6424    0.7025   -1.5825 H   0  0  0  0  0  0  0  0  0  0  0  0
    2.1489    2.3616   -1.9530 H   0  0  0  0  0  0  0  0  0  0  0  0
    1.8949    1.7064   -0.3195 H   0  0  0  0  0  0  0  0  0  0  0  0
   -0.7793    1.3659    0.6455 C   0  0  0  0  0  0  0  0  0  0  0  0
   -1.6464    2.0125    0.0623 O   0  0  0  0  0  0  0  0  0  0  0  0
    0.0189    1.9059    1.5756 N   0  0  0  0  0  0  0  0  0  0  0  0
    0.7024    1.3094    2.0137 H   0  0  0  0  0  0  0  0  0  0  0  0
   -0.0451    3.3046    1.9929 C   0  0  0  0  0  0  0  0  0  0  0  0
   -1.0415    3.5286    2.3805 H   0  0  0  0  0  0  0  0  0  0  0  0
    0.6954    3.5023    2.7695 H   0  0  0  0  0  0  0  0  0  0  0  0
    0.1474    3.9536    1.1372 H   0  0  0  0  0  0  0  0  0  0  0  0
  5  6  2  0  0  0  0
  5  7  1  0  0  0  0
  2  3  1  0  0  0  0
  2  4  1  0  0  0  0
  2  5  1  0  0  0  0
  1  2  1  0  0  0  0
 24 25  2  0  0  0  0
 24 26  1  0  0  0  0
 20 21  1  0  0  0  0
 20 22  1  0  0  0  0
 20 23  1  0  0  0  0
 16 17  1  0  0  0  0
 16 18  1  0  0  0  0
 16 19  1  0  0  0  0
 14 15  1  0  0  0  0
 14 16  1  0  0  0  0
 14 20  1  0  0  0  0
 11 12  1  0  0  0  0
 11 13  1  0  0  0  0
 11 14  1  0  0  0  0
  9 10  1  0  0  0  0
  9 11  1  0  0  0  0
  9 24  1  0  0  0  0
  7  8  1  0  0  0  0
  7  9  1  0  0  0  0
 28 29  1  0  0  0  0
 28 30  1  0  0  0  0
 28 31  1  0  0  0  0
 26 27  1  0  0  0  0
 26 28  1  0  0  0  0
M  END
$$$$
default_name
  -OEChem-02102213163D

 31 30  0     1  0  0  0  0  0999 V2000
   -3.5895   -3.5013    1.1082 H   0  0  0  0  0  0  0  0  0  0  0  0
   -3.5145   -2.5363    0.6082 C   0  0  0  0  0  0  0  0  0  0  0  0
   -4.2285   -1.8413    1.0452 H   0  0  0  0  0  0  0  0  0  0  0  0
   -3.7155   -2.6583   -0.4538 H   0  0  0  0  0  0  0  0  0  0  0  0
   -2.1155   -1.9963    0.7922 C   0  0  0  0  0  0  0  0  0  0  0  0
   -1.2875   -2.6383    1.4252 O   0  0  0  0  0  0  0  0  0  0  0  0
   -1.8575   -0.8123    0.2402 N   0  0  0  0  0  0  0  0  0  0  0  0
   -2.6005   -0.3333   -0.2478 H   0  0  0  0  0  0  0  0  0  0  0  0
   -0.5675   -0.1203    0.3102 C   0  0  1  0  0  0  0  0  0  0  0  0
    0.0191   -0.5718    1.1110 H   0  0  0  0  0  0  0  0  0  0  0  0
    0.1724   -0.3238   -1.0286 C   0  0  0  0  0  0  0  0  0  0  0  0
    1.0991   -0.8677   -0.8356 H   0  0  0  0  0  0  0  0  0  0  0  0
   -0.4527   -0.9518   -1.6673 H   0  0  0  0  0  0  0  0  0  0  0  0
    0.5146    0.9602   -1.8064 C   0  0  0  0  0  0  0  0  0  0  0  0
    0.2901    0.8209   -2.8639 H   0  0  0  0  0  0  0  0  0  0  0  0
   -0.2608    2.1751   -1.2886 C   0  0  0  0  0  0  0  0  0  0  0  0
   -0.0588    2.3182   -0.2262 H   0  0  0  0  0  0  0  0  0  0  0  0
    0.0483    3.0674   -1.8336 H   0  0  0  0  0  0  0  0  0  0  0  0
   -1.3304    2.0378   -1.4317 H   0  0  0  0  0  0  0  0  0  0  0  0
    2.0071    1.2610   -1.6752 C   0  0  0  0  0  0  0  0  0  0  0  0
    2.5856    0.4243   -2.0668 H   0  0  0  0  0  0  0  0  0  0  0  0
    2.2570    2.1542   -2.2478 H   0  0  0  0  0  0  0  0  0  0  0  0
    2.2677    1.4200   -0.6283 H   0  0  0  0  0  0  0  0  0  0  0  0
   -0.7793    1.3659    0.6455 C   0  0  0  0  0  0  0  0  0  0  0  0
   -1.6464    2.0125    0.0623 O   0  0  0  0  0  0  0  0  0  0  0  0
    0.0189    1.9059    1.5756 N   0  0  0  0  0  0  0  0  0  0  0  0
    0.7024    1.3094    2.0137 H   0  0  0  0  0  0  0  0  0  0  0  0
   -0.0451    3.3046    1.9929 C   0  0  0  0  0  0  0  0  0  0  0  0
   -1.0415    3.5286    2.3805 H   0  0  0  0  0  0  0  0  0  0  0  0
    0.6954    3.5023    2.7695 H   0  0  0  0  0  0  0  0  0  0  0  0
    0.1474    3.9536    1.1372 H   0  0  0  0  0  0  0  0  0  0  0  0
  5  6  2  0  0  0  0
  5  7  1  0  0  0  0
  2  3  1  0  0  0  0
  2  4  1  0  0  0  0
  2  5  1  0  0  0  0
  1  2  1  0  0  0  0
 24 25  2  0  0  0  0
 24 26  1  0  0  0  0
 20 21  1  0  0  0  0
 20 22  1  0  0  0  0
 20 23  1  0  0  0  0
 16 17  1  0  0  0  0
 16 18  1  0  0  0  0
 16 19  1  0  0  0  0
 14 15  1  0  0  0  0
 14 16  1  0  0  0  0
 14 20  1  0  0  0  0
 11 12  1  0  0  0  0
 11 13  1  0  0  0  0
 11 14  1  0  0  0  0
  9 10  1  0  0  0  0
  9 11  1  0  0  0  0
  9 24  1  0  0  0  0
  7  8  1  0  0  0  0
  7  9  1  0  0  0  0
 28 29  1  0  0  0  0
 28 30  1  0  0  0  0
 28 31  1  0  0  0  0
 26 27  1  0  0  0  0
 26 28  1  0  0  0  0
M  END
$$$$
default_name
  -OEChem-02102213163D

 31 30  0     1  0  0  0  0  0999 V2000
   -3.5895   -3.5013    1.1082 H   0  0  0  0  0  0  0  0  0  0  0  0
   -3.5145   -2.5363    0.6082 C   0  0  0  0  0  0  0  0  0  0  0  0
   -4.2285   -1.8413    1.0452 H   0  0  0  0  0  0  0  0  0  0  0  0
   -3.7155   -2.6583   -0.4538 H   0  0  0  0  0  0  0  0  0  0  0  0
   -2.1155   -1.9963    0.7922 C   0  0  0  0  0  0  0  0  0  0  0  0
   -1.2875   -2.6383    1.4252 O   0  0  0  0  0  0  0  0  0  0  0  0
   -1.8575   -0.8123    0.2402 N   0  0  0  0  0  0  0  0  0  0  0  0
   -2.6005   -0.3333   -0.2478 H   0  0  0  0  0  0  0  0  0  0  0  0
   -0.5675   -0.1203    0.3102 C   0  0  1  0  0  0  0  0  0  0  0  0
    0.0191   -0.5718    1.1110 H   0  0  0  0  0  0  0  0  0  0  0  0
    0.1724   -0.3238   -1.0286 C   0  0  0  0  0  0  0  0  0  0  0  0
    1.0991   -0.8677   -0.8356 H   0  0  0  0  0  0  0  0  0  0  0  0
   -0.4527   -0.9518   -1.6673 H   0  0  0  0  0  0  0  0  0  0  0  0
    0.5146    0.9602   -1.8064 C   0  0  0  0  0  0  0  0  0  0  0  0
    0.0541    0.9263   -2.7938 H   0  0  0  0  0  0  0  0  0  0  0  0
    0.0407    2.2218   -1.0790 C   0  0  0  0  0  0  0  0  0  0  0  0
    0.4809    2.2619   -0.0818 H   0  0  0  0  0  0  0  0  0  0  0  0
    0.3465    3.1055   -1.6395 H   0  0  0  0  0  0  0  0  0  0  0  0
   -1.0435    2.2292   -0.9894 H   0  0  0  0  0  0  0  0  0  0  0  0
    2.0278    1.0627   -1.9934 C   0  0  0  0  0  0  0  0  0  0  0  0
    2.3899    0.1909   -2.5382 H   0  0  0  0  0  0  0  0  0  0  0  0
    2.2706    1.9567   -2.5678 H   0  0  0  0  0  0  0  0  0  0  0  0
    2.5237    1.1125   -1.0234 H   0  0  0  0  0  0  0  0  0  0  0  0
   -0.7793    1.3659    0.6455 C   0  0  0  0  0  0  0  0  0  0  0  0
   -1.6464    2.0125    0.0623 O   0  0  0  0  0  0  0  0  0  0  0  0
    0.0189    1.9059    1.5756 N   0  0  0  0  0  0  0  0  0  0  0  0
    0.7024    1.3094    2.0137 H   0  0  0  0  0  0  0  0  0  0  0  0
   -0.0451    3.3046    1.9929 C   0  0  0  0  0  0  0  0  0  0  0  0
   -1.0415    3.5286    2.3805 H   0  0  0  0  0  0  0  0  0  0  0  0
    0.6954    3.5023    2.7695 H   0  0  0  0  0  0  0  0  0  0  0  0
    0.1474    3.9536    1.1372 H   0  0  0  0  0  0  0  0  0  0  0  0
  5  6  2  0  0  0  0
  5  7  1  0  0  0  0
  2  3  1  0  0  0  0
  2  4  1  0  0  0  0
  2  5  1  0  0  0  0
  1  2  1  0  0  0  0
 24 25  2  0  0  0  0
 24 26  1  0  0  0  0
 20 21  1  0  0  0  0
 20 22  1  0  0  0  0
 20 23  1  0  0  0  0
 16 17  1  0  0  0  0
 16 18  1  0  0  0  0
 16 19  1  0  0  0  0
 14 15  1  0  0  0  0
 14 16  1  0  0  0  0
 14 20  1  0  0  0  0
 11 12  1  0  0  0  0
 11 13  1  0  0  0  0
 11 14  1  0  0  0  0
  9 10  1  0  0  0  0
  9 11  1  0  0  0  0
  9 24  1  0  0  0  0
  7  8  1  0  0  0  0
  7  9  1  0  0  0  0
 28 29  1  0  0  0  0
 28 30  1  0  0  0  0
 28 31  1  0  0  0  0
 26 27  1  0  0  0  0
 26 28  1  0  0  0  0
M  END
$$$$
default_name
  -OEChem-02102213163D

 31 30  0     1  0  0  0  0  0999 V2000
   -3.5895   -3.5013    1.1082 H   0  0  0  0  0  0  0  0  0  0  0  0
   -3.5145   -2.5363    0.6082 C   0  0  0  0  0  0  0  0  0  0  0  0
   -4.2285   -1.8413    1.0452 H   0  0  0  0  0  0  0  0  0  0  0  0
   -3.7155   -2.6583   -0.4538 H   0  0  0  0  0  0  0  0  0  0  0  0
   -2.1155   -1.9963    0.7922 C   0  0  0  0  0  0  0  0  0  0  0  0
   -1.2875   -2.6383    1.4252 O   0  0  0  0  0  0  0  0  0  0  0  0
   -1.8575   -0.8123    0.2402 N   0  0  0  0  0  0  0  0  0  0  0  0
   -2.6005   -0.3333   -0.2478 H   0  0  0  0  0  0  0  0  0  0  0  0
   -0.5675   -0.1203    0.3102 C   0  0  1  0  0  0  0  0  0  0  0  0
    0.0191   -0.5718    1.1110 H   0  0  0  0  0  0  0  0  0  0  0  0
    0.1724   -0.3238   -1.0286 C   0  0  0  0  0  0  0  0  0  0  0  0
    1.0991   -0.8677   -0.8356 H   0  0  0  0  0  0  0  0  0  0  0  0
   -0.4527   -0.9518   -1.6673 H   0  0  0  0  0  0  0  0  0  0  0  0
    0.5146    0.9602   -1.8064 C   0  0  0  0  0  0  0  0  0  0  0  0
   -0.1450    1.0549   -2.6691 H   0  0  0  0  0  0  0  0  0  0  0  0
    0.3831    2.2154   -0.9389 C   0  0  0  0  0  0  0  0  0  0  0  0
    1.0260    2.1286   -0.0619 H   0  0  0  0  0  0  0  0  0  0  0  0
    0.6813    3.0921   -1.5142 H   0  0  0  0  0  0  0  0  0  0  0  0
   -0.6459    2.3512   -0.6132 H   0  0  0  0  0  0  0  0  0  0  0  0
    1.9532    0.8868   -2.3167 C   0  0  0  0  0  0  0  0  0  0  0  0
    2.0685    0.0181   -2.9648 H   0  0  0  0  0  0  0  0  0  0  0  0
    2.1889    1.7826   -2.8912 H   0  0  0  0  0  0  0  0  0  0  0  0
    2.6455    0.8046   -1.4780 H   0  0  0  0  0  0  0  0  0  0  0  0
   -0.7793    1.3659    0.6455 C   0  0  0  0  0  0  0  0  0  0  0  0
   -1.6464    2.0125    0.0623 O   0  0  0  0  0  0  0  0  0  0  0  0
    0.0189    1.9059    1.5756 N   0  0  0  0  0  0  0  0  0  0  0  0
    0.7024    1.3094    2.0137 H   0  0  0  0  0  0  0  0  0  0  0  0
   -0.0451    3.3046    1.9929 C   0  0  0  0  0  0  0  0  0  0  0  0
   -1.0415    3.5286    2.3805 H   0  0  0  0  0  0  0  0  0  0  0  0
    0.6954    3.5023    2.7695 H   0  0  0  0  0  0  0  0  0  0  0  0
    0.1474    3.9536    1.1372 H   0  0  0  0  0  0  0  0  0  0  0  0
  5  6  2  0  0  0  0
  5  7  1  0  0  0  0
  2  3  1  0  0  0  0
  2  4  1  0  0  0  0
  2  5  1  0  0  0  0
  1  2  1  0  0  0  0
 24 25  2  0  0  0  0
 24 26  1  0  0  0  0
 20 21  1  0  0  0  0
 20 22  1  0  0  0  0
 20 23  1  0  0  0  0
 16 17  1  0  0  0  0
 16 18  1  0  0  0  0
 16 19  1  0  0  0  0
 14 15  1  0  0  0  0
 14 16  1  0  0  0  0
 14 20  1  0  0  0  0
 11 12  1  0  0  0  0
 11 13  1  0  0  0  0
 11 14  1  0  0  0  0
  9 10  1  0  0  0  0
  9 11  1  0  0  0  0
  9 24  1  0  0  0  0
  7  8  1  0  0  0  0
  7  9  1  0  0  0  0
 28 29  1  0  0  0  0
 28 30  1  0  0  0  0
 28 31  1  0  0  0  0
 26 27  1  0  0  0  0
 26 28  1  0  0  0  0
M  END
$$$$
default_name
  -OEChem-02102213163D

 31 30  0     1  0  0  0  0  0999 V2000
   -3.5895   -3.5013    1.1082 H   0  0  0  0  0  0  0  0  0  0  0  0
   -3.5145   -2.5363    0.6082 C   0  0  0  0  0  0  0  0  0  0  0  0
   -4.2285   -1.8413    1.0452 H   0  0  0  0  0  0  0  0  0  0  0  0
   -3.7155   -2.6583   -0.4538 H   0  0  0  0  0  0  0  0  0  0  0  0
   -2.1155   -1.9963    0.7922 C   0  0  0  0  0  0  0  0  0  0  0  0
   -1.2875   -2.6383    1.4252 O   0  0  0  0  0  0  0  0  0  0  0  0
   -1.8575   -0.8123    0.2402 N   0  0  0  0  0  0  0  0  0  0  0  0
   -2.6005   -0.3333   -0.2478 H   0  0  0  0  0  0  0  0  0  0  0  0
   -0.5675   -0.1203    0.3102 C   0  0  1  0  0  0  0  0  0  0  0  0
    0.0191   -0.5718    1.1110 H   0  0  0  0  0  0  0  0  0  0  0  0
    0.1724   -0.3238   -1.0286 C   0  0  0  0  0  0  0  0  0  0  0  0
    1.0991   -0.8677   -0.8356 H   0  0  0  0  0  0  0  0  0  0  0  0
   -0.4527   -0.9518   -1.6673 H   0  0  0  0  0  0  0  0  0  0  0  0
    0.5146    0.9602   -1.8064 C   0  0  0  0  0  0  0  0  0  0  0  0
   -0.2936    1.1980   -2.4982 H   0  0  0  0  0  0  0  0  0  0  0  0
    0.7433    2.1564   -0.8779 C   0  0  0  0  0  0  0  0  0  0  0  0
    1.5394    1.9275   -0.1681 H   0  0  0  0  0  0  0  0  0  0  0  0
    1.0301    3.0283   -1.4663 H   0  0  0  0  0  0  0  0  0  0  0  0
   -0.1647    2.3954   -0.3285 H   0  0  0  0  0  0  0  0  0  0  0  0
    1.7884    0.7452   -2.6229 C   0  0  0  0  0  0  0  0  0  0  0  0
    1.6435   -0.0822   -3.3174 H   0  0  0  0  0  0  0  0  0  0  0  0
    2.0174    1.6437   -3.1960 H   0  0  0  0  0  0  0  0  0  0  0  0
    2.6247    0.5175   -1.9612 H   0  0  0  0  0  0  0  0  0  0  0  0
   -0.7793    1.3659    0.6455 C   0  0  0  0  0  0  0  0  0  0  0  0
   -1.6464    2.0125    0.0623 O   0  0  0  0  0  0  0  0  0  0  0  0
    0.0189    1.9059    1.5756 N   0  0  0  0  0  0  0  0  0  0  0  0
    0.7024    1.3094    2.0137 H   0  0  0  0  0  0  0  0  0  0  0  0
   -0.0451    3.3046    1.9929 C   0  0  0  0  0  0  0  0  0  0  0  0
   -1.0415    3.5286    2.3805 H   0  0  0  0  0  0  0  0  0  0  0  0
    0.6954    3.5023    2.7695 H   0  0  0  0  0  0  0  0  0  0  0  0
    0.1474    3.9536    1.1372 H   0  0  0  0  0  0  0  0  0  0  0  0
  5  6  2  0  0  0  0
  5  7  1  0  0  0  0
  2  3  1  0  0  0  0
  2  4  1  0  0  0  0
  2  5  1  0  0  0  0
  1  2  1  0  0  0  0
 24 25  2  0  0  0  0
 24 26  1  0  0  0  0
 20 21  1  0  0  0  0
 20 22  1  0  0  0  0
 20 23  1  0  0  0  0
 16 17  1  0  0  0  0
 16 18  1  0  0  0  0
 16 19  1  0  0  0  0
 14 15  1  0  0  0  0
 14 16  1  0  0  0  0
 14 20  1  0  0  0  0
 11 12  1  0  0  0  0
 11 13  1  0  0  0  0
 11 14  1  0  0  0  0
  9 10  1  0  0  0  0
  9 11  1  0  0  0  0
  9 24  1  0  0  0  0
  7  8  1  0  0  0  0
  7  9  1  0  0  0  0
 28 29  1  0  0  0  0
 28 30  1  0  0  0  0
 28 31  1  0  0  0  0
 26 27  1  0  0  0  0
 26 28  1  0  0  0  0
M  END
$$$$
default_name
  -OEChem-02102213163D

 31 30  0     1  0  0  0  0  0999 V2000
   -3.5895   -3.5013    1.1082 H   0  0  0  0  0  0  0  0  0  0  0  0
   -3.5145   -2.5363    0.6082 C   0  0  0  0  0  0  0  0  0  0  0  0
   -4.2285   -1.8413    1.0452 H   0  0  0  0  0  0  0  0  0  0  0  0
   -3.7155   -2.6583   -0.4538 H   0  0  0  0  0  0  0  0  0  0  0  0
   -2.1155   -1.9963    0.7922 C   0  0  0  0  0  0  0  0  0  0  0  0
   -1.2875   -2.6383    1.4252 O   0  0  0  0  0  0  0  0  0  0  0  0
   -1.8575   -0.8123    0.2402 N   0  0  0  0  0  0  0  0  0  0  0  0
   -2.6005   -0.3333   -0.2478 H   0  0  0  0  0  0  0  0  0  0  0  0
   -0.5675   -0.1203    0.3102 C   0  0  1  0  0  0  0  0  0  0  0  0
    0.0191   -0.5718    1.1110 H   0  0  0  0  0  0  0  0  0  0  0  0
    0.1724   -0.3238   -1.0286 C   0  0  0  0  0  0  0  0  0  0  0  0
    1.0991   -0.8677   -0.8356 H   0  0  0  0  0  0  0  0  0  0  0  0
   -0.4527   -0.9518   -1.6673 H   0  0  0  0  0  0  0  0  0  0  0  0
    0.5146    0.9602   -1.8064 C   0  0  0  0  0  0  0  0  0  0  0  0
   -0.3815    1.3458   -2.2929 H   0  0  0  0  0  0  0  0  0  0  0  0
    1.0967    2.0487   -0.9001 C   0  0  0  0  0  0  0  0  0  0  0  0
    1.9862    1.6722   -0.3931 H   0  0  0  0  0  0  0  0  0  0  0  0
    1.3689    2.9182   -1.4989 H   0  0  0  0  0  0  0  0  0  0  0  0
    0.3674    2.3588   -0.1549 H   0  0  0  0  0  0  0  0  0  0  0  0
    1.5445    0.6477   -2.8913 C   0  0  0  0  0  0  0  0  0  0  0  0
    1.1437   -0.1033   -3.5720 H   0  0  0  0  0  0  0  0  0  0  0  0
    1.7678    1.5495   -3.4613 H   0  0  0  0  0  0  0  0  0  0  0  0
    2.4629    0.2706   -2.4399 H   0  0  0  0  0  0  0  0  0  0  0  0
   -0.7793    1.3659    0.6455 C   0  0  0  0  0  0  0  0  0  0  0  0
   -1.6464    2.0125    0.0623 O   0  0  0  0  0  0  0  0  0  0  0  0
    0.0189    1.9059    1.5756 N   0  0  0  0  0  0  0  0  0  0  0  0
    0.7024    1.3094    2.0137 H   0  0  0  0  0  0  0  0  0  0  0  0
   -0.0451    3.3046    1.9929 C   0  0  0  0  0  0  0  0  0  0  0  0
   -1.0415    3.5286    2.3805 H   0  0  0  0  0  0  0  0  0  0  0  0
    0.6954    3.5023    2.7695 H   0  0  0  0  0  0  0  0  0  0  0  0
    0.1474    3.9536    1.1372 H   0  0  0  0  0  0  0  0  0  0  0  0
  5  6  2  0  0  0  0
  5  7  1  0  0  0  0
  2  3  1  0  0  0  0
  2  4  1  0  0  0  0
  2  5  1  0  0  0  0
  1  2  1  0  0  0  0
 24 25  2  0  0  0  0
 24 26  1  0  0  0  0
 20 21  1  0  0  0  0
 20 22  1  0  0  0  0
 20 23  1  0  0  0  0
 16 17  1  0  0  0  0
 16 18  1  0  0  0  0
 16 19  1  0  0  0  0
 14 15  1  0  0  0  0
 14 16  1  0  0  0  0
 14 20  1  0  0  0  0
 11 12  1  0  0  0  0
 11 13  1  0  0  0  0
 11 14  1  0  0  0  0
  9 10  1  0  0  0  0
  9 11  1  0  0  0  0
  9 24  1  0  0  0  0
  7  8  1  0  0  0  0
  7  9  1  0  0  0  0
 28 29  1  0  0  0  0
 28 30  1  0  0  0  0
 28 31  1  0  0  0  0
 26 27  1  0  0  0  0
 26 28  1  0  0  0  0
M  END
$$$$
default_name
  -OEChem-02102213163D

 31 30  0     1  0  0  0  0  0999 V2000
   -3.5895   -3.5013    1.1082 H   0  0  0  0  0  0  0  0  0  0  0  0
   -3.5145   -2.5363    0.6082 C   0  0  0  0  0  0  0  0  0  0  0  0
   -4.2285   -1.8413    1.0452 H   0  0  0  0  0  0  0  0  0  0  0  0
   -3.7155   -2.6583   -0.4538 H   0  0  0  0  0  0  0  0  0  0  0  0
   -2.1155   -1.9963    0.7922 C   0  0  0  0  0  0  0  0  0  0  0  0
   -1.2875   -2.6383    1.4252 O   0  0  0  0  0  0  0  0  0  0  0  0
   -1.8575   -0.8123    0.2402 N   0  0  0  0  0  0  0  0  0  0  0  0
   -2.6005   -0.3333   -0.2478 H   0  0  0  0  0  0  0  0  0  0  0  0
   -0.5675   -0.1203    0.3102 C   0  0  1  0  0  0  0  0  0  0  0  0
    0.0191   -0.5718    1.1110 H   0  0  0  0  0  0  0  0  0  0  0  0
    0.1724   -0.3238   -1.0286 C   0  0  0  0  0  0  0  0  0  0  0  0
    1.0991   -0.8677   -0.8356 H   0  0  0  0  0  0  0  0  0  0  0  0
   -0.4527   -0.9518   -1.6673 H   0  0  0  0  0  0  0  0  0  0  0  0
    0.5146    0.9602   -1.8064 C   0  0  0  0  0  0  0  0  0  0  0  0
   -0.4027    1.4882   -2.0671 H   0  0  0  0  0  0  0  0  0  0  0  0
    1.4192    1.8999   -1.0040 C   0  0  0  0  0  0  0  0  0  0  0  0
    2.3357    1.3801   -0.7215 H   0  0  0  0  0  0  0  0  0  0  0  0
    1.6748    2.7695   -1.6098 H   0  0  0  0  0  0  0  0  0  0  0  0
    0.9140    2.2439   -0.1041 H   0  0  0  0  0  0  0  0  0  0  0  0
    1.2383    0.6007   -3.1035 C   0  0  0  0  0  0  0  0  0  0  0  0
    0.6032   -0.0436   -3.7113 H   0  0  0  0  0  0  0  0  0  0  0  0
    1.4571    1.5064   -3.6692 H   0  0  0  0  0  0  0  0  0  0  0  0
    2.1710    0.0809   -2.8815 H   0  0  0  0  0  0  0  0  0  0  0  0
   -0.7793    1.3659    0.6455 C   0  0  0  0  0  0  0  0  0  0  0  0
   -1.6464    2.0125    0.0623 O   0  0  0  0  0  0  0  0  0  0  0  0
    0.0189    1.9059    1.5756 N   0  0  0  0  0  0  0  0  0  0  0  0
    0.7024    1.3094    2.0137 H   0  0  0  0  0  0  0  0  0  0  0  0
   -0.0451    3.3046    1.9929 C   0  0  0  0  0  0  0  0  0  0  0  0
   -1.0415    3.5286    2.3805 H   0  0  0  0  0  0  0  0  0  0  0  0
    0.6954    3.5023    2.7695 H   0  0  0  0  0  0  0  0  0  0  0  0
    0.1474    3.9536    1.1372 H   0  0  0  0  0  0  0  0  0  0  0  0
  5  6  2  0  0  0  0
  5  7  1  0  0  0  0
  2  3  1  0  0  0  0
  2  4  1  0  0  0  0
  2  5  1  0  0  0  0
  1  2  1  0  0  0  0
 24 25  2  0  0  0  0
 24 26  1  0  0  0  0
 20 21  1  0  0  0  0
 20 22  1  0  0  0  0
 20 23  1  0  0  0  0
 16 17  1  0  0  0  0
 16 18  1  0  0  0  0
 16 19  1  0  0  0  0
 14 15  1  0  0  0  0
 14 16  1  0  0  0  0
 14 20  1  0  0  0  0
 11 12  1  0  0  0  0
 11 13  1  0  0  0  0
 11 14  1  0  0  0  0
  9 10  1  0  0  0  0
  9 11  1  0  0  0  0
  9 24  1  0  0  0  0
  7  8  1  0  0  0  0
  7  9  1  0  0  0  0
 28 29  1  0  0  0  0
 28 30  1  0  0  0  0
 28 31  1  0  0  0  0
 26 27  1  0  0  0  0
 26 28  1  0  0  0  0
M  END
$$$$
default_name
  -OEChem-02102213163D

 31 30  0     1  0  0  0  0  0999 V2000
   -3.5895   -3.5013    1.1082 H   0  0  0  0  0  0  0  0  0  0  0  0
   -3.5145   -2.5363    0.6082 C   0  0  0  0  0  0  0  0  0  0  0  0
   -4.2285   -1.8413    1.0452 H   0  0  0  0  0  0  0  0  0  0  0  0
   -3.7155   -2.6583   -0.4538 H   0  0  0  0  0  0  0  0  0  0  0  0
   -2.1155   -1.9963    0.7922 C   0  0  0  0  0  0  0  0  0  0  0  0
   -1.2875   -2.6383    1.4252 O   0  0  0  0  0  0  0  0  0  0  0  0
   -1.8575   -0.8123    0.2402 N   0  0  0  0  0  0  0  0  0  0  0  0
   -2.6005   -0.3333   -0.2478 H   0  0  0  0  0  0  0  0  0  0  0  0
   -0.5675   -0.1203    0.3102 C   0  0  1  0  0  0  0  0  0  0  0  0
    0.0191   -0.5718    1.1110 H   0  0  0  0  0  0  0  0  0  0  0  0
    0.1724   -0.3238   -1.0286 C   0  0  0  0  0  0  0  0  0  0  0  0
    1.0991   -0.8677   -0.8356 H   0  0  0  0  0  0  0  0  0  0  0  0
   -0.4527   -0.9518   -1.6673 H   0  0  0  0  0  0  0  0  0  0  0  0
    0.5146    0.9602   -1.8064 C   0  0  0  0  0  0  0  0  0  0  0  0
   -0.3559    1.6156   -1.8362 H   0  0  0  0  0  0  0  0  0  0  0  0
    1.6888    1.7199   -1.1825 C   0  0  0  0  0  0  0  0  0  0  0  0
    2.5643    1.0712   -1.1309 H   0  0  0  0  0  0  0  0  0  0  0  0
    1.9269    2.5922   -1.7916 H   0  0  0  0  0  0  0  0  0  0  0  0
    1.4379    2.0585   -0.1796 H   0  0  0  0  0  0  0  0  0  0  0  0
    0.8906    0.6076   -3.2451 C   0  0  0  0  0  0  0  0  0  0  0  0
    0.0589    0.0927   -3.7258 H   0  0  0  0  0  0  0  0  0  0  0  0
    1.1065    1.5173   -3.8054 H   0  0  0  0  0  0  0  0  0  0  0  0
    1.7689   -0.0388   -3.2561 H   0  0  0  0  0  0  0  0  0  0  0  0
   -0.7793    1.3659    0.6455 C   0  0  0  0  0  0  0  0  0  0  0  0
   -1.6464    2.0125    0.0623 O   0  0  0  0  0  0  0  0  0  0  0  0
    0.0189    1.9059    1.5756 N   0  0  0  0  0  0  0  0  0  0  0  0
    0.7024    1.3094    2.0137 H   0  0  0  0  0  0  0  0  0  0  0  0
   -0.0451    3.3046    1.9929 C   0  0  0  0  0  0  0  0  0  0  0  0
   -1.0415    3.5286    2.3805 H   0  0  0  0  0  0  0  0  0  0  0  0
    0.6954    3.5023    2.7695 H   0  0  0  0  0  0  0  0  0  0  0  0
    0.1474    3.9536    1.1372 H   0  0  0  0  0  0  0  0  0  0  0  0
  5  6  2  0  0  0  0
  5  7  1  0  0  0  0
  2  3  1  0  0  0  0
  2  4  1  0  0  0  0
  2  5  1  0  0  0  0
  1  2  1  0  0  0  0
 24 25  2  0  0  0  0
 24 26  1  0  0  0  0
 20 21  1  0  0  0  0
 20 22  1  0  0  0  0
 20 23  1  0  0  0  0
 16 17  1  0  0  0  0
 16 18  1  0  0  0  0
 16 19  1  0  0  0  0
 14 15  1  0  0  0  0
 14 16  1  0  0  0  0
 14 20  1  0  0  0  0
 11 12  1  0  0  0  0
 11 13  1  0  0  0  0
 11 14  1  0  0  0  0
  9 10  1  0  0  0  0
  9 11  1  0  0  0  0
  9 24  1  0  0  0  0
  7  8  1  0  0  0  0
  7  9  1  0  0  0  0
 28 29  1  0  0  0  0
 28 30  1  0  0  0  0
 28 31  1  0  0  0  0
 26 27  1  0  0  0  0
 26 28  1  0  0  0  0
M  END
$$$$
default_name
  -OEChem-02102213163D

 31 30  0     1  0  0  0  0  0999 V2000
   -3.5895   -3.5013    1.1082 H   0  0  0  0  0  0  0  0  0  0  0  0
   -3.5145   -2.5363    0.6082 C   0  0  0  0  0  0  0  0  0  0  0  0
   -4.2285   -1.8413    1.0452 H   0  0  0  0  0  0  0  0  0  0  0  0
   -3.7155   -2.6583   -0.4538 H   0  0  0  0  0  0  0  0  0  0  0  0
   -2.1155   -1.9963    0.7922 C   0  0  0  0  0  0  0  0  0  0  0  0
   -1.2875   -2.6383    1.4252 O   0  0  0  0  0  0  0  0  0  0  0  0
   -1.8575   -0.8123    0.2402 N   0  0  0  0  0  0  0  0  0  0  0  0
   -2.6005   -0.3333   -0.2478 H   0  0  0  0  0  0  0  0  0  0  0  0
   -0.5675   -0.1203    0.3102 C   0  0  1  0  0  0  0  0  0  0  0  0
    0.0191   -0.5718    1.1110 H   0  0  0  0  0  0  0  0  0  0  0  0
    0.1724   -0.3238   -1.0286 C   0  0  0  0  0  0  0  0  0  0  0  0
    1.0991   -0.8677   -0.8356 H   0  0  0  0  0  0  0  0  0  0  0  0
   -0.4527   -0.9518   -1.6673 H   0  0  0  0  0  0  0  0  0  0  0  0
    0.5146    0.9602   -1.8064 C   0  0  0  0  0  0  0  0  0  0  0  0
   -0.2442    1.7192   -1.6159 H   0  0  0  0  0  0  0  0  0  0  0  0
    1.8872    1.5210   -1.4235 C   0  0  0  0  0  0  0  0  0  0  0  0
    2.6563    0.7664   -1.5935 H   0  0  0  0  0  0  0  0  0  0  0  0
    2.1080    2.3985   -2.0318 H   0  0  0  0  0  0  0  0  0  0  0  0
    1.9034    1.8153   -0.3763 H   0  0  0  0  0  0  0  0  0  0  0  0
    0.5251    0.6679   -3.3064 C   0  0  0  0  0  0  0  0  0  0  0  0
   -0.4521    0.2963   -3.6144 H   0  0  0  0  0  0  0  0  0  0  0  0
    0.7399    1.5815   -3.8606 H   0  0  0  0  0  0  0  0  0  0  0  0
    1.2840   -0.0804   -3.5379 H   0  0  0  0  0  0  0  0  0  0  0  0
   -0.7793    1.3659    0.6455 C   0  0  0  0  0  0  0  0  0  0  0  0
   -1.6464    2.0125    0.0623 O   0  0  0  0  0  0  0  0  0  0  0  0
    0.0189    1.9059    1.5756 N   0  0  0  0  0  0  0  0  0  0  0  0
    0.7024    1.3094    2.0137 H   0  0  0  0  0  0  0  0  0  0  0  0
   -0.0451    3.3046    1.9929 C   0  0  0  0  0  0  0  0  0  0  0  0
   -1.0415    3.5286    2.3805 H   0  0  0  0  0  0  0  0  0  0  0  0
    0.6954    3.5023    2.7695 H   0  0  0  0  0  0  0  0  0  0  0  0
    0.1474    3.9536    1.1372 H   0  0  0  0  0  0  0  0  0  0  0  0
  5  6  2  0  0  0  0
  5  7  1  0  0  0  0
  2  3  1  0  0  0  0
  2  4  1  0  0  0  0
  2  5  1  0  0  0  0
  1  2  1  0  0  0  0
 24 25  2  0  0  0  0
 24 26  1  0  0  0  0
 20 21  1  0  0  0  0
 20 22  1  0  0  0  0
 20 23  1  0  0  0  0
 16 17  1  0  0  0  0
 16 18  1  0  0  0  0
 16 19  1  0  0  0  0
 14 15  1  0  0  0  0
 14 16  1  0  0  0  0
 14 20  1  0  0  0  0
 11 12  1  0  0  0  0
 11 13  1  0  0  0  0
 11 14  1  0  0  0  0
  9 10  1  0  0  0  0
  9 11  1  0  0  0  0
  9 24  1  0  0  0  0
  7  8  1  0  0  0  0
  7  9  1  0  0  0  0
 28 29  1  0  0  0  0
 28 30  1  0  0  0  0
 28 31  1  0  0  0  0
 26 27  1  0  0  0  0
 26 28  1  0  0  0  0
M  END
$$$$
default_name
  -OEChem-02102213163D

 31 30  0     1  0  0  0  0  0999 V2000
   -3.5895   -3.5013    1.1082 H   0  0  0  0  0  0  0  0  0  0  0  0
   -3.5145   -2.5363    0.6082 C   0  0  0  0  0  0  0  0  0  0  0  0
   -4.2285   -1.8413    1.0452 H   0  0  0  0  0  0  0  0  0  0  0  0
   -3.7155   -2.6583   -0.4538 H   0  0  0  0  0  0  0  0  0  0  0  0
   -2.1155   -1.9963    0.7922 C   0  0  0  0  0  0  0  0  0  0  0  0
   -1.2875   -2.6383    1.4252 O   0  0  0  0  0  0  0  0  0  0  0  0
   -1.8575   -0.8123    0.2402 N   0  0  0  0  0  0  0  0  0  0  0  0
   -2.6005   -0.3333   -0.2478 H   0  0  0  0  0  0  0  0  0  0  0  0
   -0.5675   -0.1203    0.3102 C   0  0  1  0  0  0  0  0  0  0  0  0
    0.0191   -0.5718    1.1110 H   0  0  0  0  0  0  0  0  0  0  0  0
    0.1724   -0.3238   -1.0286 C   0  0  0  0  0  0  0  0  0  0  0  0
    1.0991   -0.8677   -0.8356 H   0  0  0  0  0  0  0  0  0  0  0  0
   -0.4527   -0.9518   -1.6673 H   0  0  0  0  0  0  0  0  0  0  0  0
    0.5146    0.9602   -1.8064 C   0  0  0  0  0  0  0  0  0  0  0  0
   -0.0752    1.7921   -1.4213 H   0  0  0  0  0  0  0  0  0  0  0  0
    2.0008    1.3169   -1.7105 C   0  0  0  0  0  0  0  0  0  0  0  0
    2.6055    0.4866   -2.0778 H   0  0  0  0  0  0  0  0  0  0  0  0
    2.2057    2.2015   -2.3140 H   0  0  0  0  0  0  0  0  0  0  0  0
    2.2788    1.5308   -0.6808 H   0  0  0  0  0  0  0  0  0  0  0  0
    0.1667    0.7774   -3.2832 C   0  0  0  0  0  0  0  0  0  0  0  0
   -0.8951    0.5534   -3.3848 H   0  0  0  0  0  0  0  0  0  0  0  0
    0.3823    1.6947   -3.8312 H   0  0  0  0  0  0  0  0  0  0  0  0
    0.7494   -0.0408   -3.7079 H   0  0  0  0  0  0  0  0  0  0  0  0
   -0.7793    1.3659    0.6455 C   0  0  0  0  0  0  0  0  0  0  0  0
   -1.6464    2.0125    0.0623 O   0  0  0  0  0  0  0  0  0  0  0  0
    0.0189    1.9059    1.5756 N   0  0  0  0  0  0  0  0  0  0  0  0
    0.7024    1.3094    2.0137 H   0  0  0  0  0  0  0  0  0  0  0  0
   -0.0451    3.3046    1.9929 C   0  0  0  0  0  0  0  0  0  0  0  0
   -1.0415    3.5286    2.3805 H   0  0  0  0  0  0  0  0  0  0  0  0
    0.6954    3.5023    2.7695 H   0  0  0  0  0  0  0  0  0  0  0  0
    0.1474    3.9536    1.1372 H   0  0  0  0  0  0  0  0  0  0  0  0
  5  6  2  0  0  0  0
  5  7  1  0  0  0  0
  2  3  1  0  0  0  0
  2  4  1  0  0  0  0
  2  5  1  0  0  0  0
  1  2  1  0  0  0  0
 24 25  2  0  0  0  0
 24 26  1  0  0  0  0
 20 21  1  0  0  0  0
 20 22  1  0  0  0  0
 20 23  1  0  0  0  0
 16 17  1  0  0  0  0
 16 18  1  0  0  0  0
 16 19  1  0  0  0  0
 14 15  1  0  0  0  0
 14 16  1  0  0  0  0
 14 20  1  0  0  0  0
 11 12  1  0  0  0  0
 11 13  1  0  0  0  0
 11 14  1  0  0  0  0
  9 10  1  0  0  0  0
  9 11  1  0  0  0  0
  9 24  1  0  0  0  0
  7  8  1  0  0  0  0
  7  9  1  0  0  0  0
 28 29  1  0  0  0  0
 28 30  1  0  0  0  0
 28 31  1  0  0  0  0
 26 27  1  0  0  0  0
 26 28  1  0  0  0  0
M  END
$$$$
default_name
  -OEChem-02102213163D

 31 30  0     1  0  0  0  0  0999 V2000
   -3.5895   -3.5013    1.1082 H   0  0  0  0  0  0  0  0  0  0  0  0
   -3.5145   -2.5363    0.6082 C   0  0  0  0  0  0  0  0  0  0  0  0
   -4.2285   -1.8413    1.0452 H   0  0  0  0  0  0  0  0  0  0  0  0
   -3.7155   -2.6583   -0.4538 H   0  0  0  0  0  0  0  0  0  0  0  0
   -2.1155   -1.9963    0.7922 C   0  0  0  0  0  0  0  0  0  0  0  0
   -1.2875   -2.6383    1.4252 O   0  0  0  0  0  0  0  0  0  0  0  0
   -1.8575   -0.8123    0.2402 N   0  0  0  0  0  0  0  0  0  0  0  0
   -2.6005   -0.3333   -0.2478 H   0  0  0  0  0  0  0  0  0  0  0  0
   -0.5675   -0.1203    0.3102 C   0  0  1  0  0  0  0  0  0  0  0  0
    0.0191   -0.5718    1.1110 H   0  0  0  0  0  0  0  0  0  0  0  0
    0.1724   -0.3238   -1.0286 C   0  0  0  0  0  0  0  0  0  0  0  0
    1.0991   -0.8677   -0.8356 H   0  0  0  0  0  0  0  0  0  0  0  0
   -0.4527   -0.9518   -1.6673 H   0  0  0  0  0  0  0  0  0  0  0  0
    0.5146    0.9602   -1.8064 C   0  0  0  0  0  0  0  0  0  0  0  0
    0.1396    1.8292   -1.2656 H   0  0  0  0  0  0  0  0  0  0  0  0
    2.0218    1.1214   -2.0240 C   0  0  0  0  0  0  0  0  0  0  0  0
    2.4153    0.2509   -2.5506 H   0  0  0  0  0  0  0  0  0  0  0  0
    2.2134    2.0146   -2.6190 H   0  0  0  0  0  0  0  0  0  0  0  0
    2.5385    1.2245   -1.0723 H   0  0  0  0  0  0  0  0  0  0  0  0
   -0.1602    0.9287   -3.1772 C   0  0  0  0  0  0  0  0  0  0  0  0
   -1.2399    0.8465   -3.0527 H   0  0  0  0  0  0  0  0  0  0  0  0
    0.0579    1.8490   -3.7190 H   0  0  0  0  0  0  0  0  0  0  0  0
    0.2014    0.0770   -3.7544 H   0  0  0  0  0  0  0  0  0  0  0  0
   -0.7793    1.3659    0.6455 C   0  0  0  0  0  0  0  0  0  0  0  0
   -1.6464    2.0125    0.0623 O   0  0  0  0  0  0  0  0  0  0  0  0
    0.0189    1.9059    1.5756 N   0  0  0  0  0  0  0  0  0  0  0  0
    0.7024    1.3094    2.0137 H   0  0  0  0  0  0  0  0  0  0  0  0
   -0.0451    3.3046    1.9929 C   0  0  0  0  0  0  0  0  0  0  0  0
   -1.0415    3.5286    2.3805 H   0  0  0  0  0  0  0  0  0  0  0  0
    0.6954    3.5023    2.7695 H   0  0  0  0  0  0  0  0  0  0  0  0
    0.1474    3.9536    1.1372 H   0  0  0  0  0  0  0  0  0  0  0  0
  5  6  2  0  0  0  0
  5  7  1  0  0  0  0
  2  3  1  0  0  0  0
  2  4  1  0  0  0  0
  2  5  1  0  0  0  0
  1  2  1  0  0  0  0
 24 25  2  0  0  0  0
 24 26  1  0  0  0  0
 20 21  1  0  0  0  0
 20 22  1  0  0  0  0
 20 23  1  0  0  0  0
 16 17  1  0  0  0  0
 16 18  1  0  0  0  0
 16 19  1  0  0  0  0
 14 15  1  0  0  0  0
 14 16  1  0  0  0  0
 14 20  1  0  0  0  0
 11 12  1  0  0  0  0
 11 13  1  0  0  0  0
 11 14  1  0  0  0  0
  9 10  1  0  0  0  0
  9 11  1  0  0  0  0
  9 24  1  0  0  0  0
  7  8  1  0  0  0  0
  7  9  1  0  0  0  0
 28 29  1  0  0  0  0
 28 30  1  0  0  0  0
 28 31  1  0  0  0  0
 26 27  1  0  0  0  0
 26 28  1  0  0  0  0
M  END
$$$$
default_name
  -OEChem-02102213163D

 31 30  0     1  0  0  0  0  0999 V2000
   -3.5895   -3.5013    1.1082 H   0  0  0  0  0  0  0  0  0  0  0  0
   -3.5145   -2.5363    0.6082 C   0  0  0  0  0  0  0  0  0  0  0  0
   -4.2285   -1.8413    1.0452 H   0  0  0  0  0  0  0  0  0  0  0  0
   -3.7155   -2.6583   -0.4538 H   0  0  0  0  0  0  0  0  0  0  0  0
   -2.1155   -1.9963    0.7922 C   0  0  0  0  0  0  0  0  0  0  0  0
   -1.2875   -2.6383    1.4252 O   0  0  0  0  0  0  0  0  0  0  0  0
   -1.8575   -0.8123    0.2402 N   0  0  0  0  0  0  0  0  0  0  0  0
   -2.6005   -0.3333   -0.2478 H   0  0  0  0  0  0  0  0  0  0  0  0
   -0.5675   -0.1203    0.3102 C   0  0  1  0  0  0  0  0  0  0  0  0
    0.0191   -0.5718    1.1110 H   0  0  0  0  0  0  0  0  0  0  0  0
    0.1724   -0.3238   -1.0286 C   0  0  0  0  0  0  0  0  0  0  0  0
    1.0991   -0.8677   -0.8356 H   0  0  0  0  0  0  0  0  0  0  0  0
   -0.4527   -0.9518   -1.6673 H   0  0  0  0  0  0  0  0  0  0  0  0
    0.5146    0.9602   -1.8064 C   0  0  0  0  0  0  0  0  0  0  0  0
    0.3855    1.8279   -1.1595 H   0  0  0  0  0  0  0  0  0  0  0  0
    1.9490    0.9478   -2.3426 C   0  0  0  0  0  0  0  0  0  0  0  0
    2.0988    0.0752   -2.9799 H   0  0  0  0  0  0  0  0  0  0  0  0
    2.1307    1.8507   -2.9260 H   0  0  0  0  0  0  0  0  0  0  0  0
    2.6649    0.9171   -1.5241 H   0  0  0  0  0  0  0  0  0  0  0  0
   -0.4333    1.1115   -2.9956 C   0  0  0  0  0  0  0  0  0  0  0  0
   -1.4628    1.1555   -2.6406 H   0  0  0  0  0  0  0  0  0  0  0  0
   -0.2110    2.0341   -3.5318 H   0  0  0  0  0  0  0  0  0  0  0  0
   -0.3225    0.2651   -3.6743 H   0  0  0  0  0  0  0  0  0  0  0  0
   -0.7793    1.3659    0.6455 C   0  0  0  0  0  0  0  0  0  0  0  0
   -1.6464    2.0125    0.0623 O   0  0  0  0  0  0  0  0  0  0  0  0
    0.0189    1.9059    1.5756 N   0  0  0  0  0  0  0  0  0  0  0  0
    0.7024    1.3094    2.0137 H   0  0  0  0  0  0  0  0  0  0  0  0
   -0.0451    3.3046    1.9929 C   0  0  0  0  0  0  0  0  0  0  0  0
   -1.0415    3.5286    2.3805 H   0  0  0  0  0  0  0  0  0  0  0  0
    0.6954    3.5023    2.7695 H   0  0  0  0  0  0  0  0  0  0  0  0
    0.1474    3.9536    1.1372 H   0  0  0  0  0  0  0  0  0  0  0  0
  5  6  2  0  0  0  0
  5  7  1  0  0  0  0
  2  3  1  0  0  0  0
  2  4  1  0  0  0  0
  2  5  1  0  0  0  0
  1  2  1  0  0  0  0
 24 25  2  0  0  0  0
 24 26  1  0  0  0  0
 20 21  1  0  0  0  0
 20 22  1  0  0  0  0
 20 23  1  0  0  0  0
 16 17  1  0  0  0  0
 16 18  1  0  0  0  0
 16 19  1  0  0  0  0
 14 15  1  0  0  0  0
 14 16  1  0  0  0  0
 14 20  1  0  0  0  0
 11 12  1  0  0  0  0
 11 13  1  0  0  0  0
 11 14  1  0  0  0  0
  9 10  1  0  0  0  0
  9 11  1  0  0  0  0
  9 24  1  0  0  0  0
  7  8  1  0  0  0  0
  7  9  1  0  0  0  0
 28 29  1  0  0  0  0
 28 30  1  0  0  0  0
 28 31  1  0  0  0  0
 26 27  1  0  0  0  0
 26 28  1  0  0  0  0
M  END
$$$$
default_name
  -OEChem-02102213163D

 31 30  0     1  0  0  0  0  0999 V2000
   -3.5895   -3.5013    1.1082 H   0  0  0  0  0  0  0  0  0  0  0  0
   -3.5145   -2.5363    0.6082 C   0  0  0  0  0  0  0  0  0  0  0  0
   -4.2285   -1.8413    1.0452 H   0  0  0  0  0  0  0  0  0  0  0  0
   -3.7155   -2.6583   -0.4538 H   0  0  0  0  0  0  0  0  0  0  0  0
   -2.1155   -1.9963    0.7922 C   0  0  0  0  0  0  0  0  0  0  0  0
   -1.2875   -2.6383    1.4252 O   0  0  0  0  0  0  0  0  0  0  0  0
   -1.8575   -0.8123    0.2402 N   0  0  0  0  0  0  0  0  0  0  0  0
   -2.6005   -0.3333   -0.2478 H   0  0  0  0  0  0  0  0  0  0  0  0
   -0.5675   -0.1203    0.3102 C   0  0  1  0  0  0  0  0  0  0  0  0
    0.0191   -0.5718    1.1110 H   0  0  0  0  0  0  0  0  0  0  0  0
    0.1724   -0.3238   -1.0286 C   0  0  0  0  0  0  0  0  0  0  0  0
    1.0991   -0.8677   -0.8356 H   0  0  0  0  0  0  0  0  0  0  0  0
   -0.4527   -0.9518   -1.6673 H   0  0  0  0  0  0  0  0  0  0  0  0
    0.5146    0.9602   -1.8064 C   0  0  0  0  0  0  0  0  0  0  0  0
    0.6457    1.7885   -1.1101 H   0  0  0  0  0  0  0  0  0  0  0  0
    1.7871    0.8080   -2.6446 C   0  0  0  0  0  0  0  0  0  0  0  0
    1.6774   -0.0284   -3.3363 H   0  0  0  0  0  0  0  0  0  0  0  0
    1.9630    1.7209   -3.2142 H   0  0  0  0  0  0  0  0  0  0  0  0
    2.6492    0.6297   -2.0054 H   0  0  0  0  0  0  0  0  0  0  0  0
   -0.6340    1.3134   -2.7507 C   0  0  0  0  0  0  0  0  0  0  0  0
   -1.5489    1.4595   -2.1766 H   0  0  0  0  0  0  0  0  0  0  0  0
   -0.4061    2.2372   -3.2823 H   0  0  0  0  0  0  0  0  0  0  0  0
   -0.7867    0.5107   -3.4731 H   0  0  0  0  0  0  0  0  0  0  0  0
   -0.7793    1.3659    0.6455 C   0  0  0  0  0  0  0  0  0  0  0  0
   -1.6464    2.0125    0.0623 O   0  0  0  0  0  0  0  0  0  0  0  0
    0.0189    1.9059    1.5756 N   0  0  0  0  0  0  0  0  0  0  0  0
    0.7024    1.3094    2.0137 H   0  0  0  0  0  0  0  0  0  0  0  0
   -0.0451    3.3046    1.9929 C   0  0  0  0  0  0  0  0  0  0  0  0
   -1.0415    3.5286    2.3805 H   0  0  0  0  0  0  0  0  0  0  0  0
    0.6954    3.5023    2.7695 H   0  0  0  0  0  0  0  0  0  0  0  0
    0.1474    3.9536    1.1372 H   0  0  0  0  0  0  0  0  0  0  0  0
  5  6  2  0  0  0  0
  5  7  1  0  0  0  0
  2  3  1  0  0  0  0
  2  4  1  0  0  0  0
  2  5  1  0  0  0  0
  1  2  1  0  0  0  0
 24 25  2  0  0  0  0
 24 26  1  0  0  0  0
 20 21  1  0  0  0  0
 20 22  1  0  0  0  0
 20 23  1  0  0  0  0
 16 17  1  0  0  0  0
 16 18  1  0  0  0  0
 16 19  1  0  0  0  0
 14 15  1  0  0  0  0
 14 16  1  0  0  0  0
 14 20  1  0  0  0  0
 11 12  1  0  0  0  0
 11 13  1  0  0  0  0
 11 14  1  0  0  0  0
  9 10  1  0  0  0  0
  9 11  1  0  0  0  0
  9 24  1  0  0  0  0
  7  8  1  0  0  0  0
  7  9  1  0  0  0  0
 28 29  1  0  0  0  0
 28 30  1  0  0  0  0
 28 31  1  0  0  0  0
 26 27  1  0  0  0  0
 26 28  1  0  0  0  0
M  END
$$$$
default_name
  -OEChem-02102213163D

 31 30  0     1  0  0  0  0  0999 V2000
   -3.5895   -3.5013    1.1082 H   0  0  0  0  0  0  0  0  0  0  0  0
   -3.5145   -2.5363    0.6082 C   0  0  0  0  0  0  0  0  0  0  0  0
   -4.2285   -1.8413    1.0452 H   0  0  0  0  0  0  0  0  0  0  0  0
   -3.7155   -2.6583   -0.4538 H   0  0  0  0  0  0  0  0  0  0  0  0
   -2.1155   -1.9963    0.7922 C   0  0  0  0  0  0  0  0  0  0  0  0
   -1.2875   -2.6383    1.4252 O   0  0  0  0  0  0  0  0  0  0  0  0
   -1.8575   -0.8123    0.2402 N   0  0  0  0  0  0  0  0  0  0  0  0
   -2.6005   -0.3333   -0.2478 H   0  0  0  0  0  0  0  0  0  0  0  0
   -0.5675   -0.1203    0.3102 C   0  0  1  0  0  0  0  0  0  0  0  0
    0.0191   -0.5718    1.1110 H   0  0  0  0  0  0  0  0  0  0  0  0
    0.1724   -0.3238   -1.0286 C   0  0  0  0  0  0  0  0  0  0  0  0
    1.0991   -0.8677   -0.8356 H   0  0  0  0  0  0  0  0  0  0  0  0
   -0.4527   -0.9518   -1.6673 H   0  0  0  0  0  0  0  0  0  0  0  0
    0.5146    0.9602   -1.8064 C   0  0  0  0  0  0  0  0  0  0  0  0
    0.9026    1.7135   -1.1208 H   0  0  0  0  0  0  0  0  0  0  0  0
    1.5473    0.7115   -2.9095 C   0  0  0  0  0  0  0  0  0  0  0  0
    1.1799   -0.0529   -3.5956 H   0  0  0  0  0  0  0  0  0  0  0  0
    1.7219    1.6339   -3.4638 H   0  0  0  0  0  0  0  0  0  0  0  0
    2.4925    0.3819   -2.4835 H   0  0  0  0  0  0  0  0  0  0  0  0
   -0.7485    1.5205   -2.4592 C   0  0  0  0  0  0  0  0  0  0  0  0
   -1.4921    1.7377   -1.6924 H   0  0  0  0  0  0  0  0  0  0  0  0
   -0.5141    2.4446   -2.9875 H   0  0  0  0  0  0  0  0  0  0  0  0
   -1.1595    0.7971   -3.1643 H   0  0  0  0  0  0  0  0  0  0  0  0
   -0.7793    1.3659    0.6455 C   0  0  0  0  0  0  0  0  0  0  0  0
   -1.6464    2.0125    0.0623 O   0  0  0  0  0  0  0  0  0  0  0  0
    0.0189    1.9059    1.5756 N   0  0  0  0  0  0  0  0  0  0  0  0
    0.7024    1.3094    2.0137 H   0  0  0  0  0  0  0  0  0  0  0  0
   -0.0451    3.3046    1.9929 C   0  0  0  0  0  0  0  0  0  0  0  0
   -1.0415    3.5286    2.3805 H   0  0  0  0  0  0  0  0  0  0  0  0
    0.6954    3.5023    2.7695 H   0  0  0  0  0  0  0  0  0  0  0  0
    0.1474    3.9536    1.1372 H   0  0  0  0  0  0  0  0  0  0  0  0
  5  6  2  0  0  0  0
  5  7  1  0  0  0  0
  2  3  1  0  0  0  0
  2  4  1  0  0  0  0
  2  5  1  0  0  0  0
  1  2  1  0  0  0  0
 24 25  2  0  0  0  0
 24 26  1  0  0  0  0
 20 21  1  0  0  0  0
 20 22  1  0  0  0  0
 20 23  1  0  0  0  0
 16 17  1  0  0  0  0
 16 18  1  0  0  0  0
 16 19  1  0  0  0  0
 14 15  1  0  0  0  0
 14 16  1  0  0  0  0
 14 20  1  0  0  0  0
 11 12  1  0  0  0  0
 11 13  1  0  0  0  0
 11 14  1  0  0  0  0
  9 10  1  0  0  0  0
  9 11  1  0  0  0  0
  9 24  1  0  0  0  0
  7  8  1  0  0  0  0
  7  9  1  0  0  0  0
 28 29  1  0  0  0  0
 28 30  1  0  0  0  0
 28 31  1  0  0  0  0
 26 27  1  0  0  0  0
 26 28  1  0  0  0  0
M  END
$$$$
default_name
  -OEChem-02102213163D

 31 30  0     1  0  0  0  0  0999 V2000
   -3.5895   -3.5013    1.1082 H   0  0  0  0  0  0  0  0  0  0  0  0
   -3.5145   -2.5363    0.6082 C   0  0  0  0  0  0  0  0  0  0  0  0
   -4.2285   -1.8413    1.0452 H   0  0  0  0  0  0  0  0  0  0  0  0
   -3.7155   -2.6583   -0.4538 H   0  0  0  0  0  0  0  0  0  0  0  0
   -2.1155   -1.9963    0.7922 C   0  0  0  0  0  0  0  0  0  0  0  0
   -1.2875   -2.6383    1.4252 O   0  0  0  0  0  0  0  0  0  0  0  0
   -1.8575   -0.8123    0.2402 N   0  0  0  0  0  0  0  0  0  0  0  0
   -2.6005   -0.3333   -0.2478 H   0  0  0  0  0  0  0  0  0  0  0  0
   -0.5675   -0.1203    0.3102 C   0  0  1  0  0  0  0  0  0  0  0  0
    0.0191   -0.5718    1.1110 H   0  0  0  0  0  0  0  0  0  0  0  0
    0.1724   -0.3238   -1.0286 C   0  0  0  0  0  0  0  0  0  0  0  0
    0.9445   -1.0828   -0.8883 H   0  0  0  0  0  0  0  0  0  0  0  0
   -0.5451   -0.7123   -1.7548 H   0  0  0  0  0  0  0  0  0  0  0  0
    0.8287    0.9331   -1.6287 C   0  0  0  0  0  0  0  0  0  0  0  0
    1.5508    1.3439   -0.9230 H   0  0  0  0  0  0  0  0  0  0  0  0
    1.5386    0.6396   -2.9535 C   0  0  0  0  0  0  0  0  0  0  0  0
    0.8317    0.2123   -3.6660 H   0  0  0  0  0  0  0  0  0  0  0  0
    1.9448    1.5639   -3.3650 H   0  0  0  0  0  0  0  0  0  0  0  0
    2.3583   -0.0597   -2.8034 H   0  0  0  0  0  0  0  0  0  0  0  0
   -0.2365    1.9975   -1.8890 C   0  0  0  0  0  0  0  0  0  0  0  0
   -0.7381    2.2504   -0.9549 H   0  0  0  0  0  0  0  0  0  0  0  0
    0.2294    2.8985   -2.2881 H   0  0  0  0  0  0  0  0  0  0  0  0
   -0.9720    1.6260   -2.6034 H   0  0  0  0  0  0  0  0  0  0  0  0
   -0.7793    1.3659    0.6455 C   0  0  0  0  0  0  0  0  0  0  0  0
   -1.6464    2.0125    0.0623 O   0  0  0  0  0  0  0  0  0  0  0  0
    0.0189    1.9059    1.5756 N   0  0  0  0  0  0  0  0  0  0  0  0
    0.7024    1.3094    2.0137 H   0  0  0  0  0  0  0  0  0  0  0  0
   -0.0451    3.3046    1.9929 C   0  0  0  0  0  0  0  0  0  0  0  0
   -1.0415    3.5286    2.3805 H   0  0  0  0  0  0  0  0  0  0  0  0
    0.6954    3.5023    2.7695 H   0  0  0  0  0  0  0  0  0  0  0  0
    0.1474    3.9536    1.1372 H   0  0  0  0  0  0  0  0  0  0  0  0
  5  6  2  0  0  0  0
  5  7  1  0  0  0  0
  2  3  1  0  0  0  0
  2  4  1  0  0  0  0
  2  5  1  0  0  0  0
  1  2  1  0  0  0  0
 24 25  2  0  0  0  0
 24 26  1  0  0  0  0
 20 21  1  0  0  0  0
 20 22  1  0  0  0  0
 20 23  1  0  0  0  0
 16 17  1  0  0  0  0
 16 18  1  0  0  0  0
 16 19  1  0  0  0  0
 14 15  1  0  0  0  0
 14 16  1  0  0  0  0
 14 20  1  0  0  0  0
 11 12  1  0  0  0  0
 11 13  1  0  0  0  0
 11 14  1  0  0  0  0
  9 10  1  0  0  0  0
  9 11  1  0  0  0  0
  9 24  1  0  0  0  0
  7  8  1  0  0  0  0
  7  9  1  0  0  0  0
 28 29  1  0  0  0  0
 28 30  1  0  0  0  0
 28 31  1  0  0  0  0
 26 27  1  0  0  0  0
 26 28  1  0  0  0  0
M  END
$$$$
default_name
  -OEChem-02102213163D

 31 30  0     1  0  0  0  0  0999 V2000
   -3.5895   -3.5013    1.1082 H   0  0  0  0  0  0  0  0  0  0  0  0
   -3.5145   -2.5363    0.6082 C   0  0  0  0  0  0  0  0  0  0  0  0
   -4.2285   -1.8413    1.0452 H   0  0  0  0  0  0  0  0  0  0  0  0
   -3.7155   -2.6583   -0.4538 H   0  0  0  0  0  0  0  0  0  0  0  0
   -2.1155   -1.9963    0.7922 C   0  0  0  0  0  0  0  0  0  0  0  0
   -1.2875   -2.6383    1.4252 O   0  0  0  0  0  0  0  0  0  0  0  0
   -1.8575   -0.8123    0.2402 N   0  0  0  0  0  0  0  0  0  0  0  0
   -2.6005   -0.3333   -0.2478 H   0  0  0  0  0  0  0  0  0  0  0  0
   -0.5675   -0.1203    0.3102 C   0  0  1  0  0  0  0  0  0  0  0  0
    0.0191   -0.5718    1.1110 H   0  0  0  0  0  0  0  0  0  0  0  0
    0.1724   -0.3238   -1.0286 C   0  0  0  0  0  0  0  0  0  0  0  0
    0.9445   -1.0828   -0.8883 H   0  0  0  0  0  0  0  0  0  0  0  0
   -0.5451   -0.7123   -1.7548 H   0  0  0  0  0  0  0  0  0  0  0  0
    0.8287    0.9331   -1.6287 C   0  0  0  0  0  0  0  0  0  0  0  0
    1.7221    1.1895   -1.0592 H   0  0  0  0  0  0  0  0  0  0  0  0
    1.2133    0.7403   -3.0984 C   0  0  0  0  0  0  0  0  0  0  0  0
    0.3314    0.4671   -3.6794 H   0  0  0  0  0  0  0  0  0  0  0  0
    1.6278    1.6677   -3.4942 H   0  0  0  0  0  0  0  0  0  0  0  0
    1.9622   -0.0423   -3.2001 H   0  0  0  0  0  0  0  0  0  0  0  0
   -0.1404    2.1118   -1.5445 C   0  0  0  0  0  0  0  0  0  0  0  0
   -0.4074    2.2932   -0.5034 H   0  0  0  0  0  0  0  0  0  0  0  0
    0.3321    3.0094   -1.9435 H   0  0  0  0  0  0  0  0  0  0  0  0
   -1.0441    1.8965   -2.1156 H   0  0  0  0  0  0  0  0  0  0  0  0
   -0.7793    1.3659    0.6455 C   0  0  0  0  0  0  0  0  0  0  0  0
   -1.6464    2.0125    0.0623 O   0  0  0  0  0  0  0  0  0  0  0  0
    0.0189    1.9059    1.5756 N   0  0  0  0  0  0  0  0  0  0  0  0
    0.7024    1.3094    2.0137 H   0  0  0  0  0  0  0  0  0  0  0  0
   -0.0451    3.3046    1.9929 C   0  0  0  0  0  0  0  0  0  0  0  0
   -1.0415    3.5286    2.3805 H   0  0  0  0  0  0  0  0  0  0  0  0
    0.6954    3.5023    2.7695 H   0  0  0  0  0  0  0  0  0  0  0  0
    0.1474    3.9536    1.1372 H   0  0  0  0  0  0  0  0  0  0  0  0
  5  6  2  0  0  0  0
  5  7  1  0  0  0  0
  2  3  1  0  0  0  0
  2  4  1  0  0  0  0
  2  5  1  0  0  0  0
  1  2  1  0  0  0  0
 24 25  2  0  0  0  0
 24 26  1  0  0  0  0
 20 21  1  0  0  0  0
 20 22  1  0  0  0  0
 20 23  1  0  0  0  0
 16 17  1  0  0  0  0
 16 18  1  0  0  0  0
 16 19  1  0  0  0  0
 14 15  1  0  0  0  0
 14 16  1  0  0  0  0
 14 20  1  0  0  0  0
 11 12  1  0  0  0  0
 11 13  1  0  0  0  0
 11 14  1  0  0  0  0
  9 10  1  0  0  0  0
  9 11  1  0  0  0  0
  9 24  1  0  0  0  0
  7  8  1  0  0  0  0
  7  9  1  0  0  0  0
 28 29  1  0  0  0  0
 28 30  1  0  0  0  0
 28 31  1  0  0  0  0
 26 27  1  0  0  0  0
 26 28  1  0  0  0  0
M  END
$$$$
default_name
  -OEChem-02102213163D

 31 30  0     1  0  0  0  0  0999 V2000
   -3.5895   -3.5013    1.1082 H   0  0  0  0  0  0  0  0  0  0  0  0
   -3.5145   -2.5363    0.6082 C   0  0  0  0  0  0  0  0  0  0  0  0
   -4.2285   -1.8413    1.0452 H   0  0  0  0  0  0  0  0  0  0  0  0
   -3.7155   -2.6583   -0.4538 H   0  0  0  0  0  0  0  0  0  0  0  0
   -2.1155   -1.9963    0.7922 C   0  0  0  0  0  0  0  0  0  0  0  0
   -1.2875   -2.6383    1.4252 O   0  0  0  0  0  0  0  0  0  0  0  0
   -1.8575   -0.8123    0.2402 N   0  0  0  0  0  0  0  0  0  0  0  0
   -2.6005   -0.3333   -0.2478 H   0  0  0  0  0  0  0  0  0  0  0  0
   -0.5675   -0.1203    0.3102 C   0  0  1  0  0  0  0  0  0  0  0  0
    0.0191   -0.5718    1.1110 H   0  0  0  0  0  0  0  0  0  0  0  0
    0.1724   -0.3238   -1.0286 C   0  0  0  0  0  0  0  0  0  0  0  0
    0.9445   -1.0828   -0.8883 H   0  0  0  0  0  0  0  0  0  0  0  0
   -0.5451   -0.7123   -1.7548 H   0  0  0  0  0  0  0  0  0  0  0  0
    0.8287    0.9331   -1.6287 C   0  0  0  0  0  0  0  0  0  0  0  0
    1.8432    1.0380   -1.2440 H   0  0  0  0  0  0  0  0  0  0  0  0
    0.8787    0.8863   -3.1586 C   0  0  0  0  0  0  0  0  0  0  0  0
   -0.1289    0.7652   -3.5586 H   0  0  0  0  0  0  0  0  0  0  0  0
    1.3047    1.8143   -3.5406 H   0  0  0  0  0  0  0  0  0  0  0  0
    1.4975    0.0583   -3.4976 H   0  0  0  0  0  0  0  0  0  0  0  0
    0.0368    2.1744   -1.2194 C   0  0  0  0  0  0  0  0  0  0  0  0
    0.0117    2.2515   -0.1325 H   0  0  0  0  0  0  0  0  0  0  0  0
    0.5152    3.0681   -1.6201 H   0  0  0  0  0  0  0  0  0  0  0  0
   -0.9834    2.1113   -1.5994 H   0  0  0  0  0  0  0  0  0  0  0  0
   -0.7793    1.3659    0.6455 C   0  0  0  0  0  0  0  0  0  0  0  0
   -1.6464    2.0125    0.0623 O   0  0  0  0  0  0  0  0  0  0  0  0
    0.0189    1.9059    1.5756 N   0  0  0  0  0  0  0  0  0  0  0  0
    0.7024    1.3094    2.0137 H   0  0  0  0  0  0  0  0  0  0  0  0
   -0.0451    3.3046    1.9929 C   0  0  0  0  0  0  0  0  0  0  0  0
   -1.0415    3.5286    2.3805 H   0  0  0  0  0  0  0  0  0  0  0  0
    0.6954    3.5023    2.7695 H   0  0  0  0  0  0  0  0  0  0  0  0
    0.1474    3.9536    1.1372 H   0  0  0  0  0  0  0  0  0  0  0  0
  5  6  2  0  0  0  0
  5  7  1  0  0  0  0
  2  3  1  0  0  0  0
  2  4  1  0  0  0  0
  2  5  1  0  0  0  0
  1  2  1  0  0  0  0
 24 25  2  0  0  0  0
 24 26  1  0  0  0  0
 20 21  1  0  0  0  0
 20 22  1  0  0  0  0
 20 23  1  0  0  0  0
 16 17  1  0  0  0  0
 16 18  1  0  0  0  0
 16 19  1  0  0  0  0
 14 15  1  0  0  0  0
 14 16  1  0  0  0  0
 14 20  1  0  0  0  0
 11 12  1  0  0  0  0
 11 13  1  0  0  0  0
 11 14  1  0  0  0  0
  9 10  1  0  0  0  0
  9 11  1  0  0  0  0
  9 24  1  0  0  0  0
  7  8  1  0  0  0  0
  7  9  1  0  0  0  0
 28 29  1  0  0  0  0
 28 30  1  0  0  0  0
 28 31  1  0  0  0  0
 26 27  1  0  0  0  0
 26 28  1  0  0  0  0
M  END
$$$$
default_name
  -OEChem-02102213163D

 31 30  0     1  0  0  0  0  0999 V2000
   -3.5895   -3.5013    1.1082 H   0  0  0  0  0  0  0  0  0  0  0  0
   -3.5145   -2.5363    0.6082 C   0  0  0  0  0  0  0  0  0  0  0  0
   -4.2285   -1.8413    1.0452 H   0  0  0  0  0  0  0  0  0  0  0  0
   -3.7155   -2.6583   -0.4538 H   0  0  0  0  0  0  0  0  0  0  0  0
   -2.1155   -1.9963    0.7922 C   0  0  0  0  0  0  0  0  0  0  0  0
   -1.2875   -2.6383    1.4252 O   0  0  0  0  0  0  0  0  0  0  0  0
   -1.8575   -0.8123    0.2402 N   0  0  0  0  0  0  0  0  0  0  0  0
   -2.6005   -0.3333   -0.2478 H   0  0  0  0  0  0  0  0  0  0  0  0
   -0.5675   -0.1203    0.3102 C   0  0  1  0  0  0  0  0  0  0  0  0
    0.0191   -0.5718    1.1110 H   0  0  0  0  0  0  0  0  0  0  0  0
    0.1724   -0.3238   -1.0286 C   0  0  0  0  0  0  0  0  0  0  0  0
    0.9445   -1.0828   -0.8883 H   0  0  0  0  0  0  0  0  0  0  0  0
   -0.5451   -0.7123   -1.7548 H   0  0  0  0  0  0  0  0  0  0  0  0
    0.8287    0.9331   -1.6287 C   0  0  0  0  0  0  0  0  0  0  0  0
    1.9058    0.8999   -1.4647 H   0  0  0  0  0  0  0  0  0  0  0  0
    0.5574    1.0678   -3.1299 C   0  0  0  0  0  0  0  0  0  0  0  0
   -0.5180    1.0861   -3.3118 H   0  0  0  0  0  0  0  0  0  0  0  0
    0.9976    1.9936   -3.5009 H   0  0  0  0  0  0  0  0  0  0  0  0
    0.9960    0.2352   -3.6757 H   0  0  0  0  0  0  0  0  0  0  0  0
    0.2830    2.1812   -0.9360 C   0  0  0  0  0  0  0  0  0  0  0  0
    0.4908    2.1279    0.1327 H   0  0  0  0  0  0  0  0  0  0  0  0
    0.7664    3.0707   -1.3399 H   0  0  0  0  0  0  0  0  0  0  0  0
   -0.7941    2.2557   -1.0899 H   0  0  0  0  0  0  0  0  0  0  0  0
   -0.7793    1.3659    0.6455 C   0  0  0  0  0  0  0  0  0  0  0  0
   -1.6464    2.0125    0.0623 O   0  0  0  0  0  0  0  0  0  0  0  0
    0.0189    1.9059    1.5756 N   0  0  0  0  0  0  0  0  0  0  0  0
    0.7024    1.3094    2.0137 H   0  0  0  0  0  0  0  0  0  0  0  0
   -0.0451    3.3046    1.9929 C   0  0  0  0  0  0  0  0  0  0  0  0
   -1.0415    3.5286    2.3805 H   0  0  0  0  0  0  0  0  0  0  0  0
    0.6954    3.5023    2.7695 H   0  0  0  0  0  0  0  0  0  0  0  0
    0.1474    3.9536    1.1372 H   0  0  0  0  0  0  0  0  0  0  0  0
  5  6  2  0  0  0  0
  5  7  1  0  0  0  0
  2  3  1  0  0  0  0
  2  4  1  0  0  0  0
  2  5  1  0  0  0  0
  1  2  1  0  0  0  0
 24 25  2  0  0  0  0
 24 26  1  0  0  0  0
 20 21  1  0  0  0  0
 20 22  1  0  0  0  0
 20 23  1  0  0  0  0
 16 17  1  0  0  0  0
 16 18  1  0  0  0  0
 16 19  1  0  0  0  0
 14 15  1  0  0  0  0
 14 16  1  0  0  0  0
 14 20  1  0  0  0  0
 11 12  1  0  0  0  0
 11 13  1  0  0  0  0
 11 14  1  0  0  0  0
  9 10  1  0  0  0  0
  9 11  1  0  0  0  0
  9 24  1  0  0  0  0
  7  8  1  0  0  0  0
  7  9  1  0  0  0  0
 28 29  1  0  0  0  0
 28 30  1  0  0  0  0
 28 31  1  0  0  0  0
 26 27  1  0  0  0  0
 26 28  1  0  0  0  0
M  END
$$$$
default_name
  -OEChem-02102213163D

 31 30  0     1  0  0  0  0  0999 V2000
   -3.5895   -3.5013    1.1082 H   0  0  0  0  0  0  0  0  0  0  0  0
   -3.5145   -2.5363    0.6082 C   0  0  0  0  0  0  0  0  0  0  0  0
   -4.2285   -1.8413    1.0452 H   0  0  0  0  0  0  0  0  0  0  0  0
   -3.7155   -2.6583   -0.4538 H   0  0  0  0  0  0  0  0  0  0  0  0
   -2.1155   -1.9963    0.7922 C   0  0  0  0  0  0  0  0  0  0  0  0
   -1.2875   -2.6383    1.4252 O   0  0  0  0  0  0  0  0  0  0  0  0
   -1.8575   -0.8123    0.2402 N   0  0  0  0  0  0  0  0  0  0  0  0
   -2.6005   -0.3333   -0.2478 H   0  0  0  0  0  0  0  0  0  0  0  0
   -0.5675   -0.1203    0.3102 C   0  0  1  0  0  0  0  0  0  0  0  0
    0.0191   -0.5718    1.1110 H   0  0  0  0  0  0  0  0  0  0  0  0
    0.1724   -0.3238   -1.0286 C   0  0  0  0  0  0  0  0  0  0  0  0
    0.9445   -1.0828   -0.8883 H   0  0  0  0  0  0  0  0  0  0  0  0
   -0.5451   -0.7123   -1.7548 H   0  0  0  0  0  0  0  0  0  0  0  0
    0.8287    0.9331   -1.6287 C   0  0  0  0  0  0  0  0  0  0  0  0
    1.9058    0.7846   -1.7064 H   0  0  0  0  0  0  0  0  0  0  0  0
    0.2715    1.2723   -3.0142 C   0  0  0  0  0  0  0  0  0  0  0  0
   -0.8093    1.4082   -2.9558 H   0  0  0  0  0  0  0  0  0  0  0  0
    0.7275    2.1933   -3.3780 H   0  0  0  0  0  0  0  0  0  0  0  0
    0.4917    0.4763   -3.7223 H   0  0  0  0  0  0  0  0  0  0  0  0
    0.5814    2.1317   -0.7134 C   0  0  0  0  0  0  0  0  0  0  0  0
    0.9971    1.9310    0.2740 H   0  0  0  0  0  0  0  0  0  0  0  0
    1.0685    3.0170   -1.1221 H   0  0  0  0  0  0  0  0  0  0  0  0
   -0.4890    2.3198   -0.6218 H   0  0  0  0  0  0  0  0  0  0  0  0
   -0.7793    1.3659    0.6455 C   0  0  0  0  0  0  0  0  0  0  0  0
   -1.6464    2.0125    0.0623 O   0  0  0  0  0  0  0  0  0  0  0  0
    0.0189    1.9059    1.5756 N   0  0  0  0  0  0  0  0  0  0  0  0
    0.7024    1.3094    2.0137 H   0  0  0  0  0  0  0  0  0  0  0  0
   -0.0451    3.3046    1.9929 C   0  0  0  0  0  0  0  0  0  0  0  0
   -1.0415    3.5286    2.3805 H   0  0  0  0  0  0  0  0  0  0  0  0
    0.6954    3.5023    2.7695 H   0  0  0  0  0  0  0  0  0  0  0  0
    0.1474    3.9536    1.1372 H   0  0  0  0  0  0  0  0  0  0  0  0
  5  6  2  0  0  0  0
  5  7  1  0  0  0  0
  2  3  1  0  0  0  0
  2  4  1  0  0  0  0
  2  5  1  0  0  0  0
  1  2  1  0  0  0  0
 24 25  2  0  0  0  0
 24 26  1  0  0  0  0
 20 21  1  0  0  0  0
 20 22  1  0  0  0  0
 20 23  1  0  0  0  0
 16 17  1  0  0  0  0
 16 18  1  0  0  0  0
 16 19  1  0  0  0  0
 14 15  1  0  0  0  0
 14 16  1  0  0  0  0
 14 20  1  0  0  0  0
 11 12  1  0  0  0  0
 11 13  1  0  0  0  0
 11 14  1  0  0  0  0
  9 10  1  0  0  0  0
  9 11  1  0  0  0  0
  9 24  1  0  0  0  0
  7  8  1  0  0  0  0
  7  9  1  0  0  0  0
 28 29  1  0  0  0  0
 28 30  1  0  0  0  0
 28 31  1  0  0  0  0
 26 27  1  0  0  0  0
 26 28  1  0  0  0  0
M  END
$$$$
default_name
  -OEChem-02102213163D

 31 30  0     1  0  0  0  0  0999 V2000
   -3.5895   -3.5013    1.1082 H   0  0  0  0  0  0  0  0  0  0  0  0
   -3.5145   -2.5363    0.6082 C   0  0  0  0  0  0  0  0  0  0  0  0
   -4.2285   -1.8413    1.0452 H   0  0  0  0  0  0  0  0  0  0  0  0
   -3.7155   -2.6583   -0.4538 H   0  0  0  0  0  0  0  0  0  0  0  0
   -2.1155   -1.9963    0.7922 C   0  0  0  0  0  0  0  0  0  0  0  0
   -1.2875   -2.6383    1.4252 O   0  0  0  0  0  0  0  0  0  0  0  0
   -1.8575   -0.8123    0.2402 N   0  0  0  0  0  0  0  0  0  0  0  0
   -2.6005   -0.3333   -0.2478 H   0  0  0  0  0  0  0  0  0  0  0  0
   -0.5675   -0.1203    0.3102 C   0  0  1  0  0  0  0  0  0  0  0  0
    0.0191   -0.5718    1.1110 H   0  0  0  0  0  0  0  0  0  0  0  0
    0.1724   -0.3238   -1.0286 C   0  0  0  0  0  0  0  0  0  0  0  0
    0.9445   -1.0828   -0.8883 H   0  0  0  0  0  0  0  0  0  0  0  0
   -0.5451   -0.7123   -1.7548 H   0  0  0  0  0  0  0  0  0  0  0  0
    0.8287    0.9331   -1.6287 C   0  0  0  0  0  0  0  0  0  0  0  0
    1.8430    0.6998   -1.9526 H   0  0  0  0  0  0  0  0  0  0  0  0
    0.0403    1.4859   -2.8196 C   0  0  0  0  0  0  0  0  0  0  0  0
   -0.9829    1.7094   -2.5148 H   0  0  0  0  0  0  0  0  0  0  0  0
    0.5127    2.4000   -3.1801 H   0  0  0  0  0  0  0  0  0  0  0  0
    0.0191    0.7651   -3.6341 H   0  0  0  0  0  0  0  0  0  0  0  0
    0.9116    2.0292   -0.5670 C   0  0  0  0  0  0  0  0  0  0  0  0
    1.4961    1.6741    0.2817 H   0  0  0  0  0  0  0  0  0  0  0  0
    1.4009    2.9106   -0.9814 H   0  0  0  0  0  0  0  0  0  0  0  0
   -0.0889    2.2993   -0.2271 H   0  0  0  0  0  0  0  0  0  0  0  0
   -0.7793    1.3659    0.6455 C   0  0  0  0  0  0  0  0  0  0  0  0
   -1.6464    2.0125    0.0623 O   0  0  0  0  0  0  0  0  0  0  0  0
    0.0189    1.9059    1.5756 N   0  0  0  0  0  0  0  0  0  0  0  0
    0.7024    1.3094    2.0137 H   0  0  0  0  0  0  0  0  0  0  0  0
   -0.0451    3.3046    1.9929 C   0  0  0  0  0  0  0  0  0  0  0  0
   -1.0415    3.5286    2.3805 H   0  0  0  0  0  0  0  0  0  0  0  0
    0.6954    3.5023    2.7695 H   0  0  0  0  0  0  0  0  0  0  0  0
    0.1474    3.9536    1.1372 H   0  0  0  0  0  0  0  0  0  0  0  0
  5  6  2  0  0  0  0
  5  7  1  0  0  0  0
  2  3  1  0  0  0  0
  2  4  1  0  0  0  0
  2  5  1  0  0  0  0
  1  2  1  0  0  0  0
 24 25  2  0  0  0  0
 24 26  1  0  0  0  0
 20 21  1  0  0  0  0
 20 22  1  0  0  0  0
 20 23  1  0  0  0  0
 16 17  1  0  0  0  0
 16 18  1  0  0  0  0
 16 19  1  0  0  0  0
 14 15  1  0  0  0  0
 14 16  1  0  0  0  0
 14 20  1  0  0  0  0
 11 12  1  0  0  0  0
 11 13  1  0  0  0  0
 11 14  1  0  0  0  0
  9 10  1  0  0  0  0
  9 11  1  0  0  0  0
  9 24  1  0  0  0  0
  7  8  1  0  0  0  0
  7  9  1  0  0  0  0
 28 29  1  0  0  0  0
 28 30  1  0  0  0  0
 28 31  1  0  0  0  0
 26 27  1  0  0  0  0
 26 28  1  0  0  0  0
M  END
$$$$
default_name
  -OEChem-02102213163D

 31 30  0     1  0  0  0  0  0999 V2000
   -3.5895   -3.5013    1.1082 H   0  0  0  0  0  0  0  0  0  0  0  0
   -3.5145   -2.5363    0.6082 C   0  0  0  0  0  0  0  0  0  0  0  0
   -4.2285   -1.8413    1.0452 H   0  0  0  0  0  0  0  0  0  0  0  0
   -3.7155   -2.6583   -0.4538 H   0  0  0  0  0  0  0  0  0  0  0  0
   -2.1155   -1.9963    0.7922 C   0  0  0  0  0  0  0  0  0  0  0  0
   -1.2875   -2.6383    1.4252 O   0  0  0  0  0  0  0  0  0  0  0  0
   -1.8575   -0.8123    0.2402 N   0  0  0  0  0  0  0  0  0  0  0  0
   -2.6005   -0.3333   -0.2478 H   0  0  0  0  0  0  0  0  0  0  0  0
   -0.5675   -0.1203    0.3102 C   0  0  1  0  0  0  0  0  0  0  0  0
    0.0191   -0.5718    1.1110 H   0  0  0  0  0  0  0  0  0  0  0  0
    0.1724   -0.3238   -1.0286 C   0  0  0  0  0  0  0  0  0  0  0  0
    0.9445   -1.0828   -0.8883 H   0  0  0  0  0  0  0  0  0  0  0  0
   -0.5451   -0.7123   -1.7548 H   0  0  0  0  0  0  0  0  0  0  0  0
    0.8287    0.9331   -1.6287 C   0  0  0  0  0  0  0  0  0  0  0  0
    1.7218    0.6514   -2.1865 H   0  0  0  0  0  0  0  0  0  0  0  0
   -0.1202    1.6941   -2.5591 C   0  0  0  0  0  0  0  0  0  0  0  0
   -1.0271    1.9692   -2.0189 H   0  0  0  0  0  0  0  0  0  0  0  0
    0.3678    2.5994   -2.9208 H   0  0  0  0  0  0  0  0  0  0  0  0
   -0.3896    1.0821   -3.4172 H   0  0  0  0  0  0  0  0  0  0  0  0
    1.2511    1.8807   -0.5066 C   0  0  0  0  0  0  0  0  0  0  0  0
    1.9538    1.3748    0.1555 H   0  0  0  0  0  0  0  0  0  0  0  0
    1.7409    2.7587   -0.9275 H   0  0  0  0  0  0  0  0  0  0  0  0
    0.3789    2.1956    0.0674 H   0  0  0  0  0  0  0  0  0  0  0  0
   -0.7793    1.3659    0.6455 C   0  0  0  0  0  0  0  0  0  0  0  0
   -1.6464    2.0125    0.0623 O   0  0  0  0  0  0  0  0  0  0  0  0
    0.0189    1.9059    1.5756 N   0  0  0  0  0  0  0  0  0  0  0  0
    0.7024    1.3094    2.0137 H   0  0  0  0  0  0  0  0  0  0  0  0
   -0.0451    3.3046    1.9929 C   0  0  0  0  0  0  0  0  0  0  0  0
   -1.0415    3.5286    2.3805 H   0  0  0  0  0  0  0  0  0  0  0  0
    0.6954    3.5023    2.7695 H   0  0  0  0  0  0  0  0  0  0  0  0
    0.1474    3.9536    1.1372 H   0  0  0  0  0  0  0  0  0  0  0  0
  5  6  2  0  0  0  0
  5  7  1  0  0  0  0
  2  3  1  0  0  0  0
  2  4  1  0  0  0  0
  2  5  1  0  0  0  0
  1  2  1  0  0  0  0
 24 25  2  0  0  0  0
 24 26  1  0  0  0  0
 20 21  1  0  0  0  0
 20 22  1  0  0  0  0
 20 23  1  0  0  0  0
 16 17  1  0  0  0  0
 16 18  1  0  0  0  0
 16 19  1  0  0  0  0
 14 15  1  0  0  0  0
 14 16  1  0  0  0  0
 14 20  1  0  0  0  0
 11 12  1  0  0  0  0
 11 13  1  0  0  0  0
 11 14  1  0  0  0  0
  9 10  1  0  0  0  0
  9 11  1  0  0  0  0
  9 24  1  0  0  0  0
  7  8  1  0  0  0  0
  7  9  1  0  0  0  0
 28 29  1  0  0  0  0
 28 30  1  0  0  0  0
 28 31  1  0  0  0  0
 26 27  1  0  0  0  0
 26 28  1  0  0  0  0
M  END
$$$$
default_name
  -OEChem-02102213163D

 31 30  0     1  0  0  0  0  0999 V2000
   -3.5895   -3.5013    1.1082 H   0  0  0  0  0  0  0  0  0  0  0  0
   -3.5145   -2.5363    0.6082 C   0  0  0  0  0  0  0  0  0  0  0  0
   -4.2285   -1.8413    1.0452 H   0  0  0  0  0  0  0  0  0  0  0  0
   -3.7155   -2.6583   -0.4538 H   0  0  0  0  0  0  0  0  0  0  0  0
   -2.1155   -1.9963    0.7922 C   0  0  0  0  0  0  0  0  0  0  0  0
   -1.2875   -2.6383    1.4252 O   0  0  0  0  0  0  0  0  0  0  0  0
   -1.8575   -0.8123    0.2402 N   0  0  0  0  0  0  0  0  0  0  0  0
   -2.6005   -0.3333   -0.2478 H   0  0  0  0  0  0  0  0  0  0  0  0
   -0.5675   -0.1203    0.3102 C   0  0  1  0  0  0  0  0  0  0  0  0
    0.0191   -0.5718    1.1110 H   0  0  0  0  0  0  0  0  0  0  0  0
    0.1724   -0.3238   -1.0286 C   0  0  0  0  0  0  0  0  0  0  0  0
    0.9445   -1.0828   -0.8883 H   0  0  0  0  0  0  0  0  0  0  0  0
   -0.5451   -0.7123   -1.7548 H   0  0  0  0  0  0  0  0  0  0  0  0
    0.8287    0.9331   -1.6287 C   0  0  0  0  0  0  0  0  0  0  0  0
    1.5504    0.6427   -2.3922 H   0  0  0  0  0  0  0  0  0  0  0  0
   -0.1993    1.8826   -2.2507 C   0  0  0  0  0  0  0  0  0  0  0  0
   -0.9388    2.1699   -1.5020 H   0  0  0  0  0  0  0  0  0  0  0  0
    0.3028    2.7780   -2.6177 H   0  0  0  0  0  0  0  0  0  0  0  0
   -0.7066    1.4056   -3.0864 H   0  0  0  0  0  0  0  0  0  0  0  0
    1.5769    1.6963   -0.5364 C   0  0  0  0  0  0  0  0  0  0  0  0
    2.3391    1.0535   -0.0963 H   0  0  0  0  0  0  0  0  0  0  0  0
    2.0655    2.5718   -0.9641 H   0  0  0  0  0  0  0  0  0  0  0  0
    0.8825    2.0158    0.2415 H   0  0  0  0  0  0  0  0  0  0  0  0
   -0.7793    1.3659    0.6455 C   0  0  0  0  0  0  0  0  0  0  0  0
   -1.6464    2.0125    0.0623 O   0  0  0  0  0  0  0  0  0  0  0  0
    0.0189    1.9059    1.5756 N   0  0  0  0  0  0  0  0  0  0  0  0
    0.7024    1.3094    2.0137 H   0  0  0  0  0  0  0  0  0  0  0  0
   -0.0451    3.3046    1.9929 C   0  0  0  0  0  0  0  0  0  0  0  0
   -1.0415    3.5286    2.3805 H   0  0  0  0  0  0  0  0  0  0  0  0
    0.6954    3.5023    2.7695 H   0  0  0  0  0  0  0  0  0  0  0  0
    0.1474    3.9536    1.1372 H   0  0  0  0  0  0  0  0  0  0  0  0
  5  6  2  0  0  0  0
  5  7  1  0  0  0  0
  2  3  1  0  0  0  0
  2  4  1  0  0  0  0
  2  5  1  0  0  0  0
  1  2  1  0  0  0  0
 24 25  2  0  0  0  0
 24 26  1  0  0  0  0
 20 21  1  0  0  0  0
 20 22  1  0  0  0  0
 20 23  1  0  0  0  0
 16 17  1  0  0  0  0
 16 18  1  0  0  0  0
 16 19  1  0  0  0  0
 14 15  1  0  0  0  0
 14 16  1  0  0  0  0
 14 20  1  0  0  0  0
 11 12  1  0  0  0  0
 11 13  1  0  0  0  0
 11 14  1  0  0  0  0
  9 10  1  0  0  0  0
  9 11  1  0  0  0  0
  9 24  1  0  0  0  0
  7  8  1  0  0  0  0
  7  9  1  0  0  0  0
 28 29  1  0  0  0  0
 28 30  1  0  0  0  0
 28 31  1  0  0  0  0
 26 27  1  0  0  0  0
 26 28  1  0  0  0  0
M  END
$$$$
default_name
  -OEChem-02102213163D

 31 30  0     1  0  0  0  0  0999 V2000
   -3.5895   -3.5013    1.1082 H   0  0  0  0  0  0  0  0  0  0  0  0
   -3.5145   -2.5363    0.6082 C   0  0  0  0  0  0  0  0  0  0  0  0
   -4.2285   -1.8413    1.0452 H   0  0  0  0  0  0  0  0  0  0  0  0
   -3.7155   -2.6583   -0.4538 H   0  0  0  0  0  0  0  0  0  0  0  0
   -2.1155   -1.9963    0.7922 C   0  0  0  0  0  0  0  0  0  0  0  0
   -1.2875   -2.6383    1.4252 O   0  0  0  0  0  0  0  0  0  0  0  0
   -1.8575   -0.8123    0.2402 N   0  0  0  0  0  0  0  0  0  0  0  0
   -2.6005   -0.3333   -0.2478 H   0  0  0  0  0  0  0  0  0  0  0  0
   -0.5675   -0.1203    0.3102 C   0  0  1  0  0  0  0  0  0  0  0  0
    0.0191   -0.5718    1.1110 H   0  0  0  0  0  0  0  0  0  0  0  0
    0.1724   -0.3238   -1.0286 C   0  0  0  0  0  0  0  0  0  0  0  0
    0.9445   -1.0828   -0.8883 H   0  0  0  0  0  0  0  0  0  0  0  0
   -0.5451   -0.7123   -1.7548 H   0  0  0  0  0  0  0  0  0  0  0  0
    0.8287    0.9331   -1.6287 C   0  0  0  0  0  0  0  0  0  0  0  0
    1.3406    0.6743   -2.5556 H   0  0  0  0  0  0  0  0  0  0  0  0
   -0.1915    2.0387   -1.9152 C   0  0  0  0  0  0  0  0  0  0  0  0
   -0.7241    2.2978   -0.9991 H   0  0  0  0  0  0  0  0  0  0  0  0
    0.3221    2.9237   -2.2915 H   0  0  0  0  0  0  0  0  0  0  0  0
   -0.9103    1.7135   -2.6642 H   0  0  0  0  0  0  0  0  0  0  0  0
    1.8667    1.4887   -0.6543 C   0  0  0  0  0  0  0  0  0  0  0  0
    2.6257    0.7320   -0.4562 H   0  0  0  0  0  0  0  0  0  0  0  0
    2.3524    2.3626   -1.0886 H   0  0  0  0  0  0  0  0  0  0  0  0
    1.3876    1.7721    0.2835 H   0  0  0  0  0  0  0  0  0  0  0  0
   -0.7793    1.3659    0.6455 C   0  0  0  0  0  0  0  0  0  0  0  0
   -1.6464    2.0125    0.0623 O   0  0  0  0  0  0  0  0  0  0  0  0
    0.0189    1.9059    1.5756 N   0  0  0  0  0  0  0  0  0  0  0  0
    0.7024    1.3094    2.0137 H   0  0  0  0  0  0  0  0  0  0  0  0
   -0.0451    3.3046    1.9929 C   0  0  0  0  0  0  0  0  0  0  0  0
   -1.0415    3.5286    2.3805 H   0  0  0  0  0  0  0  0  0  0  0  0
    0.6954    3.5023    2.7695 H   0  0  0  0  0  0  0  0  0  0  0  0
    0.1474    3.9536    1.1372 H   0  0  0  0  0  0  0  0  0  0  0  0
  5  6  2  0  0  0  0
  5  7  1  0  0  0  0
  2  3  1  0  0  0  0
  2  4  1  0  0  0  0
  2  5  1  0  0  0  0
  1  2  1  0  0  0  0
 24 25  2  0  0  0  0
 24 26  1  0  0  0  0
 20 21  1  0  0  0  0
 20 22  1  0  0  0  0
 20 23  1  0  0  0  0
 16 17  1  0  0  0  0
 16 18  1  0  0  0  0
 16 19  1  0  0  0  0
 14 15  1  0  0  0  0
 14 16  1  0  0  0  0
 14 20  1  0  0  0  0
 11 12  1  0  0  0  0
 11 13  1  0  0  0  0
 11 14  1  0  0  0  0
  9 10  1  0  0  0  0
  9 11  1  0  0  0  0
  9 24  1  0  0  0  0
  7  8  1  0  0  0  0
  7  9  1  0  0  0  0
 28 29  1  0  0  0  0
 28 30  1  0  0  0  0
 28 31  1  0  0  0  0
 26 27  1  0  0  0  0
 26 28  1  0  0  0  0
M  END
$$$$
default_name
  -OEChem-02102213163D

 31 30  0     1  0  0  0  0  0999 V2000
   -3.5895   -3.5013    1.1082 H   0  0  0  0  0  0  0  0  0  0  0  0
   -3.5145   -2.5363    0.6082 C   0  0  0  0  0  0  0  0  0  0  0  0
   -4.2285   -1.8413    1.0452 H   0  0  0  0  0  0  0  0  0  0  0  0
   -3.7155   -2.6583   -0.4538 H   0  0  0  0  0  0  0  0  0  0  0  0
   -2.1155   -1.9963    0.7922 C   0  0  0  0  0  0  0  0  0  0  0  0
   -1.2875   -2.6383    1.4252 O   0  0  0  0  0  0  0  0  0  0  0  0
   -1.8575   -0.8123    0.2402 N   0  0  0  0  0  0  0  0  0  0  0  0
   -2.6005   -0.3333   -0.2478 H   0  0  0  0  0  0  0  0  0  0  0  0
   -0.5675   -0.1203    0.3102 C   0  0  1  0  0  0  0  0  0  0  0  0
    0.0191   -0.5718    1.1110 H   0  0  0  0  0  0  0  0  0  0  0  0
    0.1724   -0.3238   -1.0286 C   0  0  0  0  0  0  0  0  0  0  0  0
    0.9445   -1.0828   -0.8883 H   0  0  0  0  0  0  0  0  0  0  0  0
   -0.5451   -0.7123   -1.7548 H   0  0  0  0  0  0  0  0  0  0  0  0
    0.8287    0.9331   -1.6287 C   0  0  0  0  0  0  0  0  0  0  0  0
    1.1065    0.7440   -2.6656 H   0  0  0  0  0  0  0  0  0  0  0  0
   -0.0973    2.1517   -1.5756 C   0  0  0  0  0  0  0  0  0  0  0  0
   -0.3975    2.3443   -0.5447 H   0  0  0  0  0  0  0  0  0  0  0  0
    0.4244    3.0265   -1.9644 H   0  0  0  0  0  0  0  0  0  0  0  0
   -0.9868    1.9849   -2.1794 H   0  0  0  0  0  0  0  0  0  0  0  0
    2.1007    1.2720   -0.8524 C   0  0  0  0  0  0  0  0  0  0  0  0
    2.7940    0.4323   -0.9000 H   0  0  0  0  0  0  0  0  0  0  0  0
    2.5821    2.1453   -1.2925 H   0  0  0  0  0  0  0  0  0  0  0  0
    1.8598    1.4811    0.1905 H   0  0  0  0  0  0  0  0  0  0  0  0
   -0.7793    1.3659    0.6455 C   0  0  0  0  0  0  0  0  0  0  0  0
   -1.6464    2.0125    0.0623 O   0  0  0  0  0  0  0  0  0  0  0  0
    0.0189    1.9059    1.5756 N   0  0  0  0  0  0  0  0  0  0  0  0
    0.7024    1.3094    2.0137 H   0  0  0  0  0  0  0  0  0  0  0  0
   -0.0451    3.3046    1.9929 C   0  0  0  0  0  0  0  0  0  0  0  0
   -1.0415    3.5286    2.3805 H   0  0  0  0  0  0  0  0  0  0  0  0
    0.6954    3.5023    2.7695 H   0  0  0  0  0  0  0  0  0  0  0  0
    0.1474    3.9536    1.1372 H   0  0  0  0  0  0  0  0  0  0  0  0
  5  6  2  0  0  0  0
  5  7  1  0  0  0  0
  2  3  1  0  0  0  0
  2  4  1  0  0  0  0
  2  5  1  0  0  0  0
  1  2  1  0  0  0  0
 24 25  2  0  0  0  0
 24 26  1  0  0  0  0
 20 21  1  0  0  0  0
 20 22  1  0  0  0  0
 20 23  1  0  0  0  0
 16 17  1  0  0  0  0
 16 18  1  0  0  0  0
 16 19  1  0  0  0  0
 14 15  1  0  0  0  0
 14 16  1  0  0  0  0
 14 20  1  0  0  0  0
 11 12  1  0  0  0  0
 11 13  1  0  0  0  0
 11 14  1  0  0  0  0
  9 10  1  0  0  0  0
  9 11  1  0  0  0  0
  9 24  1  0  0  0  0
  7  8  1  0  0  0  0
  7  9  1  0  0  0  0
 28 29  1  0  0  0  0
 28 30  1  0  0  0  0
 28 31  1  0  0  0  0
 26 27  1  0  0  0  0
 26 28  1  0  0  0  0
M  END
$$$$
default_name
  -OEChem-02102213163D

 31 30  0     1  0  0  0  0  0999 V2000
   -3.5895   -3.5013    1.1082 H   0  0  0  0  0  0  0  0  0  0  0  0
   -3.5145   -2.5363    0.6082 C   0  0  0  0  0  0  0  0  0  0  0  0
   -4.2285   -1.8413    1.0452 H   0  0  0  0  0  0  0  0  0  0  0  0
   -3.7155   -2.6583   -0.4538 H   0  0  0  0  0  0  0  0  0  0  0  0
   -2.1155   -1.9963    0.7922 C   0  0  0  0  0  0  0  0  0  0  0  0
   -1.2875   -2.6383    1.4252 O   0  0  0  0  0  0  0  0  0  0  0  0
   -1.8575   -0.8123    0.2402 N   0  0  0  0  0  0  0  0  0  0  0  0
   -2.6005   -0.3333   -0.2478 H   0  0  0  0  0  0  0  0  0  0  0  0
   -0.5675   -0.1203    0.3102 C   0  0  1  0  0  0  0  0  0  0  0  0
    0.0191   -0.5718    1.1110 H   0  0  0  0  0  0  0  0  0  0  0  0
    0.1724   -0.3238   -1.0286 C   0  0  0  0  0  0  0  0  0  0  0  0
    0.9445   -1.0828   -0.8883 H   0  0  0  0  0  0  0  0  0  0  0  0
   -0.5451   -0.7123   -1.7548 H   0  0  0  0  0  0  0  0  0  0  0  0
    0.8287    0.9331   -1.6287 C   0  0  0  0  0  0  0  0  0  0  0  0
    0.8643    0.8470   -2.7147 H   0  0  0  0  0  0  0  0  0  0  0  0
    0.0768    2.2138   -1.2550 C   0  0  0  0  0  0  0  0  0  0  0  0
    0.0187    2.3060   -0.1696 H   0  0  0  0  0  0  0  0  0  0  0  0
    0.6026    3.0794   -1.6587 H   0  0  0  0  0  0  0  0  0  0  0  0
   -0.9308    2.2012   -1.6650 H   0  0  0  0  0  0  0  0  0  0  0  0
    2.2631    1.0608   -1.1171 C   0  0  0  0  0  0  0  0  0  0  0  0
    2.8326    0.1747   -1.3972 H   0  0  0  0  0  0  0  0  0  0  0  0
    2.7390    1.9347   -1.5620 H   0  0  0  0  0  0  0  0  0  0  0  0
    2.2669    1.1627   -0.0313 H   0  0  0  0  0  0  0  0  0  0  0  0
   -0.7793    1.3659    0.6455 C   0  0  0  0  0  0  0  0  0  0  0  0
   -1.6464    2.0125    0.0623 O   0  0  0  0  0  0  0  0  0  0  0  0
    0.0189    1.9059    1.5756 N   0  0  0  0  0  0  0  0  0  0  0  0
    0.7024    1.3094    2.0137 H   0  0  0  0  0  0  0  0  0  0  0  0
   -0.0451    3.3046    1.9929 C   0  0  0  0  0  0  0  0  0  0  0  0
   -1.0415    3.5286    2.3805 H   0  0  0  0  0  0  0  0  0  0  0  0
    0.6954    3.5023    2.7695 H   0  0  0  0  0  0  0  0  0  0  0  0
    0.1474    3.9536    1.1372 H   0  0  0  0  0  0  0  0  0  0  0  0
  5  6  2  0  0  0  0
  5  7  1  0  0  0  0
  2  3  1  0  0  0  0
  2  4  1  0  0  0  0
  2  5  1  0  0  0  0
  1  2  1  0  0  0  0
 24 25  2  0  0  0  0
 24 26  1  0  0  0  0
 20 21  1  0  0  0  0
 20 22  1  0  0  0  0
 20 23  1  0  0  0  0
 16 17  1  0  0  0  0
 16 18  1  0  0  0  0
 16 19  1  0  0  0  0
 14 15  1  0  0  0  0
 14 16  1  0  0  0  0
 14 20  1  0  0  0  0
 11 12  1  0  0  0  0
 11 13  1  0  0  0  0
 11 14  1  0  0  0  0
  9 10  1  0  0  0  0
  9 11  1  0  0  0  0
  9 24  1  0  0  0  0
  7  8  1  0  0  0  0
  7  9  1  0  0  0  0
 28 29  1  0  0  0  0
 28 30  1  0  0  0  0
 28 31  1  0  0  0  0
 26 27  1  0  0  0  0
 26 28  1  0  0  0  0
M  END
$$$$
default_name
  -OEChem-02102213163D

 31 30  0     1  0  0  0  0  0999 V2000
   -3.5895   -3.5013    1.1082 H   0  0  0  0  0  0  0  0  0  0  0  0
   -3.5145   -2.5363    0.6082 C   0  0  0  0  0  0  0  0  0  0  0  0
   -4.2285   -1.8413    1.0452 H   0  0  0  0  0  0  0  0  0  0  0  0
   -3.7155   -2.6583   -0.4538 H   0  0  0  0  0  0  0  0  0  0  0  0
   -2.1155   -1.9963    0.7922 C   0  0  0  0  0  0  0  0  0  0  0  0
   -1.2875   -2.6383    1.4252 O   0  0  0  0  0  0  0  0  0  0  0  0
   -1.8575   -0.8123    0.2402 N   0  0  0  0  0  0  0  0  0  0  0  0
   -2.6005   -0.3333   -0.2478 H   0  0  0  0  0  0  0  0  0  0  0  0
   -0.5675   -0.1203    0.3102 C   0  0  1  0  0  0  0  0  0  0  0  0
    0.0191   -0.5718    1.1110 H   0  0  0  0  0  0  0  0  0  0  0  0
    0.1724   -0.3238   -1.0286 C   0  0  0  0  0  0  0  0  0  0  0  0
    0.9445   -1.0828   -0.8883 H   0  0  0  0  0  0  0  0  0  0  0  0
   -0.5451   -0.7123   -1.7548 H   0  0  0  0  0  0  0  0  0  0  0  0
    0.8287    0.9331   -1.6287 C   0  0  0  0  0  0  0  0  0  0  0  0
    0.6303    0.9764   -2.6996 H   0  0  0  0  0  0  0  0  0  0  0  0
    0.3189    2.2209   -0.9752 C   0  0  0  0  0  0  0  0  0  0  0  0
    0.4960    2.1857    0.1006 H   0  0  0  0  0  0  0  0  0  0  0  0
    0.8447    3.0787   -1.3952 H   0  0  0  0  0  0  0  0  0  0  0  0
   -0.7463    2.3478   -1.1560 H   0  0  0  0  0  0  0  0  0  0  0  0
    2.3427    0.8697   -1.4303 C   0  0  0  0  0  0  0  0  0  0  0  0
    2.7388   -0.0231   -1.9141 H   0  0  0  0  0  0  0  0  0  0  0  0
    2.8123    1.7452   -1.8787 H   0  0  0  0  0  0  0  0  0  0  0  0
    2.5812    0.8385   -0.3666 H   0  0  0  0  0  0  0  0  0  0  0  0
   -0.7793    1.3659    0.6455 C   0  0  0  0  0  0  0  0  0  0  0  0
   -1.6464    2.0125    0.0623 O   0  0  0  0  0  0  0  0  0  0  0  0
    0.0189    1.9059    1.5756 N   0  0  0  0  0  0  0  0  0  0  0  0
    0.7024    1.3094    2.0137 H   0  0  0  0  0  0  0  0  0  0  0  0
   -0.0451    3.3046    1.9929 C   0  0  0  0  0  0  0  0  0  0  0  0
   -1.0415    3.5286    2.3805 H   0  0  0  0  0  0  0  0  0  0  0  0
    0.6954    3.5023    2.7695 H   0  0  0  0  0  0  0  0  0  0  0  0
    0.1474    3.9536    1.1372 H   0  0  0  0  0  0  0  0  0  0  0  0
  5  6  2  0  0  0  0
  5  7  1  0  0  0  0
  2  3  1  0  0  0  0
  2  4  1  0  0  0  0
  2  5  1  0  0  0  0
  1  2  1  0  0  0  0
 24 25  2  0  0  0  0
 24 26  1  0  0  0  0
 20 21  1  0  0  0  0
 20 22  1  0  0  0  0
 20 23  1  0  0  0  0
 16 17  1  0  0  0  0
 16 18  1  0  0  0  0
 16 19  1  0  0  0  0
 14 15  1  0  0  0  0
 14 16  1  0  0  0  0
 14 20  1  0  0  0  0
 11 12  1  0  0  0  0
 11 13  1  0  0  0  0
 11 14  1  0  0  0  0
  9 10  1  0  0  0  0
  9 11  1  0  0  0  0
  9 24  1  0  0  0  0
  7  8  1  0  0  0  0
  7  9  1  0  0  0  0
 28 29  1  0  0  0  0
 28 30  1  0  0  0  0
 28 31  1  0  0  0  0
 26 27  1  0  0  0  0
 26 28  1  0  0  0  0
M  END
$$$$
default_name
  -OEChem-02102213163D

 31 30  0     1  0  0  0  0  0999 V2000
   -3.5895   -3.5013    1.1082 H   0  0  0  0  0  0  0  0  0  0  0  0
   -3.5145   -2.5363    0.6082 C   0  0  0  0  0  0  0  0  0  0  0  0
   -4.2285   -1.8413    1.0452 H   0  0  0  0  0  0  0  0  0  0  0  0
   -3.7155   -2.6583   -0.4538 H   0  0  0  0  0  0  0  0  0  0  0  0
   -2.1155   -1.9963    0.7922 C   0  0  0  0  0  0  0  0  0  0  0  0
   -1.2875   -2.6383    1.4252 O   0  0  0  0  0  0  0  0  0  0  0  0
   -1.8575   -0.8123    0.2402 N   0  0  0  0  0  0  0  0  0  0  0  0
   -2.6005   -0.3333   -0.2478 H   0  0  0  0  0  0  0  0  0  0  0  0
   -0.5675   -0.1203    0.3102 C   0  0  1  0  0  0  0  0  0  0  0  0
    0.0191   -0.5718    1.1110 H   0  0  0  0  0  0  0  0  0  0  0  0
    0.1724   -0.3238   -1.0286 C   0  0  0  0  0  0  0  0  0  0  0  0
    0.9445   -1.0828   -0.8883 H   0  0  0  0  0  0  0  0  0  0  0  0
   -0.5451   -0.7123   -1.7548 H   0  0  0  0  0  0  0  0  0  0  0  0
    0.8287    0.9331   -1.6287 C   0  0  0  0  0  0  0  0  0  0  0  0
    0.4205    1.1234   -2.6213 H   0  0  0  0  0  0  0  0  0  0  0  0
    0.6127    2.1725   -0.7554 C   0  0  0  0  0  0  0  0  0  0  0  0
    1.0021    1.9916    0.2474 H   0  0  0  0  0  0  0  0  0  0  0  0
    1.1341    3.0246   -1.1920 H   0  0  0  0  0  0  0  0  0  0  0  0
   -0.4457    2.4147   -0.6873 H   0  0  0  0  0  0  0  0  0  0  0  0
    2.3341    0.7116   -1.7708 C   0  0  0  0  0  0  0  0  0  0  0  0
    2.5191   -0.1476   -2.4153 H   0  0  0  0  0  0  0  0  0  0  0  0
    2.7971    1.5897   -2.2210 H   0  0  0  0  0  0  0  0  0  0  0  0
    2.7811    0.5307   -0.7927 H   0  0  0  0  0  0  0  0  0  0  0  0
   -0.7793    1.3659    0.6455 C   0  0  0  0  0  0  0  0  0  0  0  0
   -1.6464    2.0125    0.0623 O   0  0  0  0  0  0  0  0  0  0  0  0
    0.0189    1.9059    1.5756 N   0  0  0  0  0  0  0  0  0  0  0  0
    0.7024    1.3094    2.0137 H   0  0  0  0  0  0  0  0  0  0  0  0
   -0.0451    3.3046    1.9929 C   0  0  0  0  0  0  0  0  0  0  0  0
   -1.0415    3.5286    2.3805 H   0  0  0  0  0  0  0  0  0  0  0  0
    0.6954    3.5023    2.7695 H   0  0  0  0  0  0  0  0  0  0  0  0
    0.1474    3.9536    1.1372 H   0  0  0  0  0  0  0  0  0  0  0  0
  5  6  2  0  0  0  0
  5  7  1  0  0  0  0
  2  3  1  0  0  0  0
  2  4  1  0  0  0  0
  2  5  1  0  0  0  0
  1  2  1  0  0  0  0
 24 25  2  0  0  0  0
 24 26  1  0  0  0  0
 20 21  1  0  0  0  0
 20 22  1  0  0  0  0
 20 23  1  0  0  0  0
 16 17  1  0  0  0  0
 16 18  1  0  0  0  0
 16 19  1  0  0  0  0
 14 15  1  0  0  0  0
 14 16  1  0  0  0  0
 14 20  1  0  0  0  0
 11 12  1  0  0  0  0
 11 13  1  0  0  0  0
 11 14  1  0  0  0  0
  9 10  1  0  0  0  0
  9 11  1  0  0  0  0
  9 24  1  0  0  0  0
  7  8  1  0  0  0  0
  7  9  1  0  0  0  0
 28 29  1  0  0  0  0
 28 30  1  0  0  0  0
 28 31  1  0  0  0  0
 26 27  1  0  0  0  0
 26 28  1  0  0  0  0
M  END
$$$$
default_name
  -OEChem-02102213163D

 31 30  0     1  0  0  0  0  0999 V2000
   -3.5895   -3.5013    1.1082 H   0  0  0  0  0  0  0  0  0  0  0  0
   -3.5145   -2.5363    0.6082 C   0  0  0  0  0  0  0  0  0  0  0  0
   -4.2285   -1.8413    1.0452 H   0  0  0  0  0  0  0  0  0  0  0  0
   -3.7155   -2.6583   -0.4538 H   0  0  0  0  0  0  0  0  0  0  0  0
   -2.1155   -1.9963    0.7922 C   0  0  0  0  0  0  0  0  0  0  0  0
   -1.2875   -2.6383    1.4252 O   0  0  0  0  0  0  0  0  0  0  0  0
   -1.8575   -0.8123    0.2402 N   0  0  0  0  0  0  0  0  0  0  0  0
   -2.6005   -0.3333   -0.2478 H   0  0  0  0  0  0  0  0  0  0  0  0
   -0.5675   -0.1203    0.3102 C   0  0  1  0  0  0  0  0  0  0  0  0
    0.0191   -0.5718    1.1110 H   0  0  0  0  0  0  0  0  0  0  0  0
    0.1724   -0.3238   -1.0286 C   0  0  0  0  0  0  0  0  0  0  0  0
    0.9445   -1.0828   -0.8883 H   0  0  0  0  0  0  0  0  0  0  0  0
   -0.5451   -0.7123   -1.7548 H   0  0  0  0  0  0  0  0  0  0  0  0
    0.8287    0.9331   -1.6287 C   0  0  0  0  0  0  0  0  0  0  0  0
    0.2492    1.2778   -2.4851 H   0  0  0  0  0  0  0  0  0  0  0  0
    0.9380    2.0718   -0.6105 C   0  0  0  0  0  0  0  0  0  0  0  0
    1.5023    1.7368    0.2608 H   0  0  0  0  0  0  0  0  0  0  0  0
    1.4511    2.9208   -1.0628 H   0  0  0  0  0  0  0  0  0  0  0  0
   -0.0496    2.3972   -0.2906 H   0  0  0  0  0  0  0  0  0  0  0  0
    2.2379    0.5974   -2.1153 C   0  0  0  0  0  0  0  0  0  0  0  0
    2.1884   -0.1905   -2.8668 H   0  0  0  0  0  0  0  0  0  0  0  0
    2.6945    1.4788   -2.5656 H   0  0  0  0  0  0  0  0  0  0  0  0
    2.8532    0.2602   -1.2804 H   0  0  0  0  0  0  0  0  0  0  0  0
   -0.7793    1.3659    0.6455 C   0  0  0  0  0  0  0  0  0  0  0  0
   -1.6464    2.0125    0.0623 O   0  0  0  0  0  0  0  0  0  0  0  0
    0.0189    1.9059    1.5756 N   0  0  0  0  0  0  0  0  0  0  0  0
    0.7024    1.3094    2.0137 H   0  0  0  0  0  0  0  0  0  0  0  0
   -0.0451    3.3046    1.9929 C   0  0  0  0  0  0  0  0  0  0  0  0
   -1.0415    3.5286    2.3805 H   0  0  0  0  0  0  0  0  0  0  0  0
    0.6954    3.5023    2.7695 H   0  0  0  0  0  0  0  0  0  0  0  0
    0.1474    3.9536    1.1372 H   0  0  0  0  0  0  0  0  0  0  0  0
  5  6  2  0  0  0  0
  5  7  1  0  0  0  0
  2  3  1  0  0  0  0
  2  4  1  0  0  0  0
  2  5  1  0  0  0  0
  1  2  1  0  0  0  0
 24 25  2  0  0  0  0
 24 26  1  0  0  0  0
 20 21  1  0  0  0  0
 20 22  1  0  0  0  0
 20 23  1  0  0  0  0
 16 17  1  0  0  0  0
 16 18  1  0  0  0  0
 16 19  1  0  0  0  0
 14 15  1  0  0  0  0
 14 16  1  0  0  0  0
 14 20  1  0  0  0  0
 11 12  1  0  0  0  0
 11 13  1  0  0  0  0
 11 14  1  0  0  0  0
  9 10  1  0  0  0  0
  9 11  1  0  0  0  0
  9 24  1  0  0  0  0
  7  8  1  0  0  0  0
  7  9  1  0  0  0  0
 28 29  1  0  0  0  0
 28 30  1  0  0  0  0
 28 31  1  0  0  0  0
 26 27  1  0  0  0  0
 26 28  1  0  0  0  0
M  END
$$$$
default_name
  -OEChem-02102213163D

 31 30  0     1  0  0  0  0  0999 V2000
   -3.5895   -3.5013    1.1082 H   0  0  0  0  0  0  0  0  0  0  0  0
   -3.5145   -2.5363    0.6082 C   0  0  0  0  0  0  0  0  0  0  0  0
   -4.2285   -1.8413    1.0452 H   0  0  0  0  0  0  0  0  0  0  0  0
   -3.7155   -2.6583   -0.4538 H   0  0  0  0  0  0  0  0  0  0  0  0
   -2.1155   -1.9963    0.7922 C   0  0  0  0  0  0  0  0  0  0  0  0
   -1.2875   -2.6383    1.4252 O   0  0  0  0  0  0  0  0  0  0  0  0
   -1.8575   -0.8123    0.2402 N   0  0  0  0  0  0  0  0  0  0  0  0
   -2.6005   -0.3333   -0.2478 H   0  0  0  0  0  0  0  0  0  0  0  0
   -0.5675   -0.1203    0.3102 C   0  0  1  0  0  0  0  0  0  0  0  0
    0.0191   -0.5718    1.1110 H   0  0  0  0  0  0  0  0  0  0  0  0
    0.1724   -0.3238   -1.0286 C   0  0  0  0  0  0  0  0  0  0  0  0
    0.9445   -1.0828   -0.8883 H   0  0  0  0  0  0  0  0  0  0  0  0
   -0.5451   -0.7123   -1.7548 H   0  0  0  0  0  0  0  0  0  0  0  0
    0.8287    0.9331   -1.6287 C   0  0  0  0  0  0  0  0  0  0  0  0
    0.1281    1.4293   -2.3003 H   0  0  0  0  0  0  0  0  0  0  0  0
    1.2726    1.9258   -0.5503 C   0  0  0  0  0  0  0  0  0  0  0  0
    1.9627    1.4387    0.1401 H   0  0  0  0  0  0  0  0  0  0  0  0
    1.7742    2.7742   -1.0164 H   0  0  0  0  0  0  0  0  0  0  0  0
    0.4151    2.2966    0.0069 H   0  0  0  0  0  0  0  0  0  0  0  0
    2.0607    0.5347   -2.4404 C   0  0  0  0  0  0  0  0  0  0  0  0
    1.7692   -0.1487   -3.2378 H   0  0  0  0  0  0  0  0  0  0  0  0
    2.5113    1.4200   -2.8890 H   0  0  0  0  0  0  0  0  0  0  0  0
    2.7926    0.0454   -1.7967 H   0  0  0  0  0  0  0  0  0  0  0  0
   -0.7793    1.3659    0.6455 C   0  0  0  0  0  0  0  0  0  0  0  0
   -1.6464    2.0125    0.0623 O   0  0  0  0  0  0  0  0  0  0  0  0
    0.0189    1.9059    1.5756 N   0  0  0  0  0  0  0  0  0  0  0  0
    0.7024    1.3094    2.0137 H   0  0  0  0  0  0  0  0  0  0  0  0
   -0.0451    3.3046    1.9929 C   0  0  0  0  0  0  0  0  0  0  0  0
   -1.0415    3.5286    2.3805 H   0  0  0  0  0  0  0  0  0  0  0  0
    0.6954    3.5023    2.7695 H   0  0  0  0  0  0  0  0  0  0  0  0
    0.1474    3.9536    1.1372 H   0  0  0  0  0  0  0  0  0  0  0  0
  5  6  2  0  0  0  0
  5  7  1  0  0  0  0
  2  3  1  0  0  0  0
  2  4  1  0  0  0  0
  2  5  1  0  0  0  0
  1  2  1  0  0  0  0
 24 25  2  0  0  0  0
 24 26  1  0  0  0  0
 20 21  1  0  0  0  0
 20 22  1  0  0  0  0
 20 23  1  0  0  0  0
 16 17  1  0  0  0  0
 16 18  1  0  0  0  0
 16 19  1  0  0  0  0
 14 15  1  0  0  0  0
 14 16  1  0  0  0  0
 14 20  1  0  0  0  0
 11 12  1  0  0  0  0
 11 13  1  0  0  0  0
 11 14  1  0  0  0  0
  9 10  1  0  0  0  0
  9 11  1  0  0  0  0
  9 24  1  0  0  0  0
  7  8  1  0  0  0  0
  7  9  1  0  0  0  0
 28 29  1  0  0  0  0
 28 30  1  0  0  0  0
 28 31  1  0  0  0  0
 26 27  1  0  0  0  0
 26 28  1  0  0  0  0
M  END
$$$$
default_name
  -OEChem-02102213163D

 31 30  0     1  0  0  0  0  0999 V2000
   -3.5895   -3.5013    1.1082 H   0  0  0  0  0  0  0  0  0  0  0  0
   -3.5145   -2.5363    0.6082 C   0  0  0  0  0  0  0  0  0  0  0  0
   -4.2285   -1.8413    1.0452 H   0  0  0  0  0  0  0  0  0  0  0  0
   -3.7155   -2.6583   -0.4538 H   0  0  0  0  0  0  0  0  0  0  0  0
   -2.1155   -1.9963    0.7922 C   0  0  0  0  0  0  0  0  0  0  0  0
   -1.2875   -2.6383    1.4252 O   0  0  0  0  0  0  0  0  0  0  0  0
   -1.8575   -0.8123    0.2402 N   0  0  0  0  0  0  0  0  0  0  0  0
   -2.6005   -0.3333   -0.2478 H   0  0  0  0  0  0  0  0  0  0  0  0
   -0.5675   -0.1203    0.3102 C   0  0  1  0  0  0  0  0  0  0  0  0
    0.0191   -0.5718    1.1110 H   0  0  0  0  0  0  0  0  0  0  0  0
    0.1724   -0.3238   -1.0286 C   0  0  0  0  0  0  0  0  0  0  0  0
    0.9445   -1.0828   -0.8883 H   0  0  0  0  0  0  0  0  0  0  0  0
   -0.5451   -0.7123   -1.7548 H   0  0  0  0  0  0  0  0  0  0  0  0
    0.8287    0.9331   -1.6287 C   0  0  0  0  0  0  0  0  0  0  0  0
    0.0655    1.5674   -2.0796 H   0  0  0  0  0  0  0  0  0  0  0  0
    1.5939    1.7443   -0.5791 C   0  0  0  0  0  0  0  0  0  0  0  0
    2.3518    1.1178   -0.1068 H   0  0  0  0  0  0  0  0  0  0  0  0
    2.0813    2.5949   -1.0561 H   0  0  0  0  0  0  0  0  0  0  0  0
    0.9166    2.1197    0.1850 H   0  0  0  0  0  0  0  0  0  0  0  0
    1.8146    0.5279   -2.7238 C   0  0  0  0  0  0  0  0  0  0  0  0
    1.2901   -0.0252   -3.5030 H   0  0  0  0  0  0  0  0  0  0  0  0
    2.2601    1.4174   -3.1692 H   0  0  0  0  0  0  0  0  0  0  0  0
    2.6032   -0.0989   -2.3062 H   0  0  0  0  0  0  0  0  0  0  0  0
   -0.7793    1.3659    0.6455 C   0  0  0  0  0  0  0  0  0  0  0  0
   -1.6464    2.0125    0.0623 O   0  0  0  0  0  0  0  0  0  0  0  0
    0.0189    1.9059    1.5756 N   0  0  0  0  0  0  0  0  0  0  0  0
    0.7024    1.3094    2.0137 H   0  0  0  0  0  0  0  0  0  0  0  0
   -0.0451    3.3046    1.9929 C   0  0  0  0  0  0  0  0  0  0  0  0
   -1.0415    3.5286    2.3805 H   0  0  0  0  0  0  0  0  0  0  0  0
    0.6954    3.5023    2.7695 H   0  0  0  0  0  0  0  0  0  0  0  0
    0.1474    3.9536    1.1372 H   0  0  0  0  0  0  0  0  0  0  0  0
  5  6  2  0  0  0  0
  5  7  1  0  0  0  0
  2  3  1  0  0  0  0
  2  4  1  0  0  0  0
  2  5  1  0  0  0  0
  1  2  1  0  0  0  0
 24 25  2  0  0  0  0
 24 26  1  0  0  0  0
 20 21  1  0  0  0  0
 20 22  1  0  0  0  0
 20 23  1  0  0  0  0
 16 17  1  0  0  0  0
 16 18  1  0  0  0  0
 16 19  1  0  0  0  0
 14 15  1  0  0  0  0
 14 16  1  0  0  0  0
 14 20  1  0  0  0  0
 11 12  1  0  0  0  0
 11 13  1  0  0  0  0
 11 14  1  0  0  0  0
  9 10  1  0  0  0  0
  9 11  1  0  0  0  0
  9 24  1  0  0  0  0
  7  8  1  0  0  0  0
  7  9  1  0  0  0  0
 28 29  1  0  0  0  0
 28 30  1  0  0  0  0
 28 31  1  0  0  0  0
 26 27  1  0  0  0  0
 26 28  1  0  0  0  0
M  END
$$$$
default_name
  -OEChem-02102213163D

 31 30  0     1  0  0  0  0  0999 V2000
   -3.5895   -3.5013    1.1082 H   0  0  0  0  0  0  0  0  0  0  0  0
   -3.5145   -2.5363    0.6082 C   0  0  0  0  0  0  0  0  0  0  0  0
   -4.2285   -1.8413    1.0452 H   0  0  0  0  0  0  0  0  0  0  0  0
   -3.7155   -2.6583   -0.4538 H   0  0  0  0  0  0  0  0  0  0  0  0
   -2.1155   -1.9963    0.7922 C   0  0  0  0  0  0  0  0  0  0  0  0
   -1.2875   -2.6383    1.4252 O   0  0  0  0  0  0  0  0  0  0  0  0
   -1.8575   -0.8123    0.2402 N   0  0  0  0  0  0  0  0  0  0  0  0
   -2.6005   -0.3333   -0.2478 H   0  0  0  0  0  0  0  0  0  0  0  0
   -0.5675   -0.1203    0.3102 C   0  0  1  0  0  0  0  0  0  0  0  0
    0.0191   -0.5718    1.1110 H   0  0  0  0  0  0  0  0  0  0  0  0
    0.1724   -0.3238   -1.0286 C   0  0  0  0  0  0  0  0  0  0  0  0
    0.9445   -1.0828   -0.8883 H   0  0  0  0  0  0  0  0  0  0  0  0
   -0.5451   -0.7123   -1.7548 H   0  0  0  0  0  0  0  0  0  0  0  0
    0.8287    0.9331   -1.6287 C   0  0  0  0  0  0  0  0  0  0  0  0
    0.0655    1.6827   -1.8379 H   0  0  0  0  0  0  0  0  0  0  0  0
    1.8798    1.5398   -0.6947 C   0  0  0  0  0  0  0  0  0  0  0  0
    2.6430    0.7957   -0.4628 H   0  0  0  0  0  0  0  0  0  0  0  0
    2.3514    2.3952   -1.1790 H   0  0  0  0  0  0  0  0  0  0  0  0
    1.4209    1.8787    0.2316 H   0  0  0  0  0  0  0  0  0  0  0  0
    1.5162    0.5775   -2.9464 C   0  0  0  0  0  0  0  0  0  0  0  0
    0.7839    0.1717   -3.6442 H   0  0  0  0  0  0  0  0  0  0  0  0
    1.9580    1.4712   -3.3870 H   0  0  0  0  0  0  0  0  0  0  0  0
    2.2981   -0.1631   -2.7742 H   0  0  0  0  0  0  0  0  0  0  0  0
   -0.7793    1.3659    0.6455 C   0  0  0  0  0  0  0  0  0  0  0  0
   -1.6464    2.0125    0.0623 O   0  0  0  0  0  0  0  0  0  0  0  0
    0.0189    1.9059    1.5756 N   0  0  0  0  0  0  0  0  0  0  0  0
    0.7024    1.3094    2.0137 H   0  0  0  0  0  0  0  0  0  0  0  0
   -0.0451    3.3046    1.9929 C   0  0  0  0  0  0  0  0  0  0  0  0
   -1.0415    3.5286    2.3805 H   0  0  0  0  0  0  0  0  0  0  0  0
    0.6954    3.5023    2.7695 H   0  0  0  0  0  0  0  0  0  0  0  0
    0.1474    3.9536    1.1372 H   0  0  0  0  0  0  0  0  0  0  0  0
  5  6  2  0  0  0  0
  5  7  1  0  0  0  0
  2  3  1  0  0  0  0
  2  4  1  0  0  0  0
  2  5  1  0  0  0  0
  1  2  1  0  0  0  0
 24 25  2  0  0  0  0
 24 26  1  0  0  0  0
 20 21  1  0  0  0  0
 20 22  1  0  0  0  0
 20 23  1  0  0  0  0
 16 17  1  0  0  0  0
 16 18  1  0  0  0  0
 16 19  1  0  0  0  0
 14 15  1  0  0  0  0
 14 16  1  0  0  0  0
 14 20  1  0  0  0  0
 11 12  1  0  0  0  0
 11 13  1  0  0  0  0
 11 14  1  0  0  0  0
  9 10  1  0  0  0  0
  9 11  1  0  0  0  0
  9 24  1  0  0  0  0
  7  8  1  0  0  0  0
  7  9  1  0  0  0  0
 28 29  1  0  0  0  0
 28 30  1  0  0  0  0
 28 31  1  0  0  0  0
 26 27  1  0  0  0  0
 26 28  1  0  0  0  0
M  END
$$$$
default_name
  -OEChem-02102213163D

 31 30  0     1  0  0  0  0  0999 V2000
   -3.5895   -3.5013    1.1082 H   0  0  0  0  0  0  0  0  0  0  0  0
   -3.5145   -2.5363    0.6082 C   0  0  0  0  0  0  0  0  0  0  0  0
   -4.2285   -1.8413    1.0452 H   0  0  0  0  0  0  0  0  0  0  0  0
   -3.7155   -2.6583   -0.4538 H   0  0  0  0  0  0  0  0  0  0  0  0
   -2.1155   -1.9963    0.7922 C   0  0  0  0  0  0  0  0  0  0  0  0
   -1.2875   -2.6383    1.4252 O   0  0  0  0  0  0  0  0  0  0  0  0
   -1.8575   -0.8123    0.2402 N   0  0  0  0  0  0  0  0  0  0  0  0
   -2.6005   -0.3333   -0.2478 H   0  0  0  0  0  0  0  0  0  0  0  0
   -0.5675   -0.1203    0.3102 C   0  0  1  0  0  0  0  0  0  0  0  0
    0.0191   -0.5718    1.1110 H   0  0  0  0  0  0  0  0  0  0  0  0
    0.1724   -0.3238   -1.0286 C   0  0  0  0  0  0  0  0  0  0  0  0
    0.9445   -1.0828   -0.8883 H   0  0  0  0  0  0  0  0  0  0  0  0
   -0.5451   -0.7123   -1.7548 H   0  0  0  0  0  0  0  0  0  0  0  0
    0.8287    0.9331   -1.6287 C   0  0  0  0  0  0  0  0  0  0  0  0
    0.1283    1.7675   -1.5917 H   0  0  0  0  0  0  0  0  0  0  0  0
    2.1110    1.3262   -0.8894 C   0  0  0  0  0  0  0  0  0  0  0  0
    2.8167    0.4945   -0.9038 H   0  0  0  0  0  0  0  0  0  0  0  0
    2.5662    2.1885   -1.3769 H   0  0  0  0  0  0  0  0  0  0  0  0
    1.8935    1.5898    0.1434 H   0  0  0  0  0  0  0  0  0  0  0  0
    1.1860    0.6800   -3.0928 C   0  0  0  0  0  0  0  0  0  0  0  0
    0.2848    0.4286   -3.6520 H   0  0  0  0  0  0  0  0  0  0  0  0
    1.6256    1.5776   -3.5277 H   0  0  0  0  0  0  0  0  0  0  0  0
    1.8980   -0.1426   -3.1689 H   0  0  0  0  0  0  0  0  0  0  0  0
   -0.7793    1.3659    0.6455 C   0  0  0  0  0  0  0  0  0  0  0  0
   -1.6464    2.0125    0.0623 O   0  0  0  0  0  0  0  0  0  0  0  0
    0.0189    1.9059    1.5756 N   0  0  0  0  0  0  0  0  0  0  0  0
    0.7024    1.3094    2.0137 H   0  0  0  0  0  0  0  0  0  0  0  0
   -0.0451    3.3046    1.9929 C   0  0  0  0  0  0  0  0  0  0  0  0
   -1.0415    3.5286    2.3805 H   0  0  0  0  0  0  0  0  0  0  0  0
    0.6954    3.5023    2.7695 H   0  0  0  0  0  0  0  0  0  0  0  0
    0.1474    3.9536    1.1372 H   0  0  0  0  0  0  0  0  0  0  0  0
  5  6  2  0  0  0  0
  5  7  1  0  0  0  0
  2  3  1  0  0  0  0
  2  4  1  0  0  0  0
  2  5  1  0  0  0  0
  1  2  1  0  0  0  0
 24 25  2  0  0  0  0
 24 26  1  0  0  0  0
 20 21  1  0  0  0  0
 20 22  1  0  0  0  0
 20 23  1  0  0  0  0
 16 17  1  0  0  0  0
 16 18  1  0  0  0  0
 16 19  1  0  0  0  0
 14 15  1  0  0  0  0
 14 16  1  0  0  0  0
 14 20  1  0  0  0  0
 11 12  1  0  0  0  0
 11 13  1  0  0  0  0
 11 14  1  0  0  0  0
  9 10  1  0  0  0  0
  9 11  1  0  0  0  0
  9 24  1  0  0  0  0
  7  8  1  0  0  0  0
  7  9  1  0  0  0  0
 28 29  1  0  0  0  0
 28 30  1  0  0  0  0
 28 31  1  0  0  0  0
 26 27  1  0  0  0  0
 26 28  1  0  0  0  0
M  END
$$$$
default_name
  -OEChem-02102213163D

 31 30  0     1  0  0  0  0  0999 V2000
   -3.5895   -3.5013    1.1082 H   0  0  0  0  0  0  0  0  0  0  0  0
   -3.5145   -2.5363    0.6082 C   0  0  0  0  0  0  0  0  0  0  0  0
   -4.2285   -1.8413    1.0452 H   0  0  0  0  0  0  0  0  0  0  0  0
   -3.7155   -2.6583   -0.4538 H   0  0  0  0  0  0  0  0  0  0  0  0
   -2.1155   -1.9963    0.7922 C   0  0  0  0  0  0  0  0  0  0  0  0
   -1.2875   -2.6383    1.4252 O   0  0  0  0  0  0  0  0  0  0  0  0
   -1.8575   -0.8123    0.2402 N   0  0  0  0  0  0  0  0  0  0  0  0
   -2.6005   -0.3333   -0.2478 H   0  0  0  0  0  0  0  0  0  0  0  0
   -0.5675   -0.1203    0.3102 C   0  0  1  0  0  0  0  0  0  0  0  0
    0.0191   -0.5718    1.1110 H   0  0  0  0  0  0  0  0  0  0  0  0
    0.1724   -0.3238   -1.0286 C   0  0  0  0  0  0  0  0  0  0  0  0
    0.9445   -1.0828   -0.8883 H   0  0  0  0  0  0  0  0  0  0  0  0
   -0.5451   -0.7123   -1.7548 H   0  0  0  0  0  0  0  0  0  0  0  0
    0.8287    0.9331   -1.6287 C   0  0  0  0  0  0  0  0  0  0  0  0
    0.2495    1.8159   -1.3578 H   0  0  0  0  0  0  0  0  0  0  0  0
    2.2715    1.1180   -1.1498 C   0  0  0  0  0  0  0  0  0  0  0  0
    2.8609    0.2347   -1.3996 H   0  0  0  0  0  0  0  0  0  0  0  0
    2.7111    1.9891   -1.6362 H   0  0  0  0  0  0  0  0  0  0  0  0
    2.3022    1.2728   -0.0735 H   0  0  0  0  0  0  0  0  0  0  0  0
    0.8465    0.8285   -3.1532 C   0  0  0  0  0  0  0  0  0  0  0  0
   -0.1729    0.7279   -3.5257 H   0  0  0  0  0  0  0  0  0  0  0  0
    1.2856    1.7294   -3.5816 H   0  0  0  0  0  0  0  0  0  0  0  0
    1.4302   -0.0389   -3.4634 H   0  0  0  0  0  0  0  0  0  0  0  0
   -0.7793    1.3659    0.6455 C   0  0  0  0  0  0  0  0  0  0  0  0
   -1.6464    2.0125    0.0623 O   0  0  0  0  0  0  0  0  0  0  0  0
    0.0189    1.9059    1.5756 N   0  0  0  0  0  0  0  0  0  0  0  0
    0.7024    1.3094    2.0137 H   0  0  0  0  0  0  0  0  0  0  0  0
   -0.0451    3.3046    1.9929 C   0  0  0  0  0  0  0  0  0  0  0  0
   -1.0415    3.5286    2.3805 H   0  0  0  0  0  0  0  0  0  0  0  0
    0.6954    3.5023    2.7695 H   0  0  0  0  0  0  0  0  0  0  0  0
    0.1474    3.9536    1.1372 H   0  0  0  0  0  0  0  0  0  0  0  0
  5  6  2  0  0  0  0
  5  7  1  0  0  0  0
  2  3  1  0  0  0  0
  2  4  1  0  0  0  0
  2  5  1  0  0  0  0
  1  2  1  0  0  0  0
 24 25  2  0  0  0  0
 24 26  1  0  0  0  0
 20 21  1  0  0  0  0
 20 22  1  0  0  0  0
 20 23  1  0  0  0  0
 16 17  1  0  0  0  0
 16 18  1  0  0  0  0
 16 19  1  0  0  0  0
 14 15  1  0  0  0  0
 14 16  1  0  0  0  0
 14 20  1  0  0  0  0
 11 12  1  0  0  0  0
 11 13  1  0  0  0  0
 11 14  1  0  0  0  0
  9 10  1  0  0  0  0
  9 11  1  0  0  0  0
  9 24  1  0  0  0  0
  7  8  1  0  0  0  0
  7  9  1  0  0  0  0
 28 29  1  0  0  0  0
 28 30  1  0  0  0  0
 28 31  1  0  0  0  0
 26 27  1  0  0  0  0
 26 28  1  0  0  0  0
M  END
$$$$
default_name
  -OEChem-02102213163D

 31 30  0     1  0  0  0  0  0999 V2000
   -3.5895   -3.5013    1.1082 H   0  0  0  0  0  0  0  0  0  0  0  0
   -3.5145   -2.5363    0.6082 C   0  0  0  0  0  0  0  0  0  0  0  0
   -4.2285   -1.8413    1.0452 H   0  0  0  0  0  0  0  0  0  0  0  0
   -3.7155   -2.6583   -0.4538 H   0  0  0  0  0  0  0  0  0  0  0  0
   -2.1155   -1.9963    0.7922 C   0  0  0  0  0  0  0  0  0  0  0  0
   -1.2875   -2.6383    1.4252 O   0  0  0  0  0  0  0  0  0  0  0  0
   -1.8575   -0.8123    0.2402 N   0  0  0  0  0  0  0  0  0  0  0  0
   -2.6005   -0.3333   -0.2478 H   0  0  0  0  0  0  0  0  0  0  0  0
   -0.5675   -0.1203    0.3102 C   0  0  1  0  0  0  0  0  0  0  0  0
    0.0191   -0.5718    1.1110 H   0  0  0  0  0  0  0  0  0  0  0  0
    0.1724   -0.3238   -1.0286 C   0  0  0  0  0  0  0  0  0  0  0  0
    0.9445   -1.0828   -0.8883 H   0  0  0  0  0  0  0  0  0  0  0  0
   -0.5451   -0.7123   -1.7548 H   0  0  0  0  0  0  0  0  0  0  0  0
    0.8287    0.9331   -1.6287 C   0  0  0  0  0  0  0  0  0  0  0  0
    0.4208    1.8246   -1.1521 H   0  0  0  0  0  0  0  0  0  0  0  0
    2.3506    0.9294   -1.4583 C   0  0  0  0  0  0  0  0  0  0  0  0
    2.7726    0.0340   -1.9166 H   0  0  0  0  0  0  0  0  0  0  0  0
    2.7761    1.8104   -1.9393 H   0  0  0  0  0  0  0  0  0  0  0  0
    2.6192    0.9494   -0.4043 H   0  0  0  0  0  0  0  0  0  0  0  0
    0.5207    1.0128   -3.1234 C   0  0  0  0  0  0  0  0  0  0  0  0
   -0.5582    1.0493   -3.2740 H   0  0  0  0  0  0  0  0  0  0  0  0
    0.9611    1.9163   -3.5450 H   0  0  0  0  0  0  0  0  0  0  0  0
    0.9266    0.1409   -3.6376 H   0  0  0  0  0  0  0  0  0  0  0  0
   -0.7793    1.3659    0.6455 C   0  0  0  0  0  0  0  0  0  0  0  0
   -1.6464    2.0125    0.0623 O   0  0  0  0  0  0  0  0  0  0  0  0
    0.0189    1.9059    1.5756 N   0  0  0  0  0  0  0  0  0  0  0  0
    0.7024    1.3094    2.0137 H   0  0  0  0  0  0  0  0  0  0  0  0
   -0.0451    3.3046    1.9929 C   0  0  0  0  0  0  0  0  0  0  0  0
   -1.0415    3.5286    2.3805 H   0  0  0  0  0  0  0  0  0  0  0  0
    0.6954    3.5023    2.7695 H   0  0  0  0  0  0  0  0  0  0  0  0
    0.1474    3.9536    1.1372 H   0  0  0  0  0  0  0  0  0  0  0  0
  5  6  2  0  0  0  0
  5  7  1  0  0  0  0
  2  3  1  0  0  0  0
  2  4  1  0  0  0  0
  2  5  1  0  0  0  0
  1  2  1  0  0  0  0
 24 25  2  0  0  0  0
 24 26  1  0  0  0  0
 20 21  1  0  0  0  0
 20 22  1  0  0  0  0
 20 23  1  0  0  0  0
 16 17  1  0  0  0  0
 16 18  1  0  0  0  0
 16 19  1  0  0  0  0
 14 15  1  0  0  0  0
 14 16  1  0  0  0  0
 14 20  1  0  0  0  0
 11 12  1  0  0  0  0
 11 13  1  0  0  0  0
 11 14  1  0  0  0  0
  9 10  1  0  0  0  0
  9 11  1  0  0  0  0
  9 24  1  0  0  0  0
  7  8  1  0  0  0  0
  7  9  1  0  0  0  0
 28 29  1  0  0  0  0
 28 30  1  0  0  0  0
 28 31  1  0  0  0  0
 26 27  1  0  0  0  0
 26 28  1  0  0  0  0
M  END
$$$$
default_name
  -OEChem-02102213163D

 31 30  0     1  0  0  0  0  0999 V2000
   -3.5895   -3.5013    1.1082 H   0  0  0  0  0  0  0  0  0  0  0  0
   -3.5145   -2.5363    0.6082 C   0  0  0  0  0  0  0  0  0  0  0  0
   -4.2285   -1.8413    1.0452 H   0  0  0  0  0  0  0  0  0  0  0  0
   -3.7155   -2.6583   -0.4538 H   0  0  0  0  0  0  0  0  0  0  0  0
   -2.1155   -1.9963    0.7922 C   0  0  0  0  0  0  0  0  0  0  0  0
   -1.2875   -2.6383    1.4252 O   0  0  0  0  0  0  0  0  0  0  0  0
   -1.8575   -0.8123    0.2402 N   0  0  0  0  0  0  0  0  0  0  0  0
   -2.6005   -0.3333   -0.2478 H   0  0  0  0  0  0  0  0  0  0  0  0
   -0.5675   -0.1203    0.3102 C   0  0  1  0  0  0  0  0  0  0  0  0
    0.0191   -0.5718    1.1110 H   0  0  0  0  0  0  0  0  0  0  0  0
    0.1724   -0.3238   -1.0286 C   0  0  0  0  0  0  0  0  0  0  0  0
    0.9445   -1.0828   -0.8883 H   0  0  0  0  0  0  0  0  0  0  0  0
   -0.5451   -0.7123   -1.7548 H   0  0  0  0  0  0  0  0  0  0  0  0
    0.8287    0.9331   -1.6287 C   0  0  0  0  0  0  0  0  0  0  0  0
    0.6307    1.7930   -0.9887 H   0  0  0  0  0  0  0  0  0  0  0  0
    2.3428    0.7734   -1.7937 C   0  0  0  0  0  0  0  0  0  0  0  0
    2.5578   -0.0939   -2.4195 H   0  0  0  0  0  0  0  0  0  0  0  0
    2.7568    1.6648   -2.2655 H   0  0  0  0  0  0  0  0  0  0  0  0
    2.8229    0.6415   -0.8265 H   0  0  0  0  0  0  0  0  0  0  0  0
    0.2309    1.2204   -3.0055 C   0  0  0  0  0  0  0  0  0  0  0  0
   -0.8447    1.3708   -2.9140 H   0  0  0  0  0  0  0  0  0  0  0  0
    0.6742    2.1256   -3.4205 H   0  0  0  0  0  0  0  0  0  0  0  0
    0.4215    0.3846   -3.6796 H   0  0  0  0  0  0  0  0  0  0  0  0
   -0.7793    1.3659    0.6455 C   0  0  0  0  0  0  0  0  0  0  0  0
   -1.6464    2.0125    0.0623 O   0  0  0  0  0  0  0  0  0  0  0  0
    0.0189    1.9059    1.5756 N   0  0  0  0  0  0  0  0  0  0  0  0
    0.7024    1.3094    2.0137 H   0  0  0  0  0  0  0  0  0  0  0  0
   -0.0451    3.3046    1.9929 C   0  0  0  0  0  0  0  0  0  0  0  0
   -1.0415    3.5286    2.3805 H   0  0  0  0  0  0  0  0  0  0  0  0
    0.6954    3.5023    2.7695 H   0  0  0  0  0  0  0  0  0  0  0  0
    0.1474    3.9536    1.1372 H   0  0  0  0  0  0  0  0  0  0  0  0
  5  6  2  0  0  0  0
  5  7  1  0  0  0  0
  2  3  1  0  0  0  0
  2  4  1  0  0  0  0
  2  5  1  0  0  0  0
  1  2  1  0  0  0  0
 24 25  2  0  0  0  0
 24 26  1  0  0  0  0
 20 21  1  0  0  0  0
 20 22  1  0  0  0  0
 20 23  1  0  0  0  0
 16 17  1  0  0  0  0
 16 18  1  0  0  0  0
 16 19  1  0  0  0  0
 14 15  1  0  0  0  0
 14 16  1  0  0  0  0
 14 20  1  0  0  0  0
 11 12  1  0  0  0  0
 11 13  1  0  0  0  0
 11 14  1  0  0  0  0
  9 10  1  0  0  0  0
  9 11  1  0  0  0  0
  9 24  1  0  0  0  0
  7  8  1  0  0  0  0
  7  9  1  0  0  0  0
 28 29  1  0  0  0  0
 28 30  1  0  0  0  0
 28 31  1  0  0  0  0
 26 27  1  0  0  0  0
 26 28  1  0  0  0  0
M  END
$$$$
default_name
  -OEChem-02102213163D

 31 30  0     1  0  0  0  0  0999 V2000
   -3.5895   -3.5013    1.1082 H   0  0  0  0  0  0  0  0  0  0  0  0
   -3.5145   -2.5363    0.6082 C   0  0  0  0  0  0  0  0  0  0  0  0
   -4.2285   -1.8413    1.0452 H   0  0  0  0  0  0  0  0  0  0  0  0
   -3.7155   -2.6583   -0.4538 H   0  0  0  0  0  0  0  0  0  0  0  0
   -2.1155   -1.9963    0.7922 C   0  0  0  0  0  0  0  0  0  0  0  0
   -1.2875   -2.6383    1.4252 O   0  0  0  0  0  0  0  0  0  0  0  0
   -1.8575   -0.8123    0.2402 N   0  0  0  0  0  0  0  0  0  0  0  0
   -2.6005   -0.3333   -0.2478 H   0  0  0  0  0  0  0  0  0  0  0  0
   -0.5675   -0.1203    0.3102 C   0  0  1  0  0  0  0  0  0  0  0  0
    0.0191   -0.5718    1.1110 H   0  0  0  0  0  0  0  0  0  0  0  0
    0.1724   -0.3238   -1.0286 C   0  0  0  0  0  0  0  0  0  0  0  0
    0.9445   -1.0828   -0.8883 H   0  0  0  0  0  0  0  0  0  0  0  0
   -0.5451   -0.7123   -1.7548 H   0  0  0  0  0  0  0  0  0  0  0  0
    0.8287    0.9331   -1.6287 C   0  0  0  0  0  0  0  0  0  0  0  0
    0.8647    1.7233   -0.8787 H   0  0  0  0  0  0  0  0  0  0  0  0
    2.2487    0.6604   -2.1333 C   0  0  0  0  0  0  0  0  0  0  0  0
    2.2312   -0.1404   -2.8739 H   0  0  0  0  0  0  0  0  0  0  0  0
    2.6546    1.5620   -2.5926 H   0  0  0  0  0  0  0  0  0  0  0  0
    2.8994    0.3701   -1.3113 H   0  0  0  0  0  0  0  0  0  0  0  0
   -0.0031    1.4372   -2.8074 C   0  0  0  0  0  0  0  0  0  0  0  0
   -1.0131    1.6705   -2.4703 H   0  0  0  0  0  0  0  0  0  0  0  0
    0.4444    2.3429   -3.2166 H   0  0  0  0  0  0  0  0  0  0  0  0
   -0.0507    0.6756   -3.5865 H   0  0  0  0  0  0  0  0  0  0  0  0
   -0.7793    1.3659    0.6455 C   0  0  0  0  0  0  0  0  0  0  0  0
   -1.6464    2.0125    0.0623 O   0  0  0  0  0  0  0  0  0  0  0  0
    0.0189    1.9059    1.5756 N   0  0  0  0  0  0  0  0  0  0  0  0
    0.7024    1.3094    2.0137 H   0  0  0  0  0  0  0  0  0  0  0  0
   -0.0451    3.3046    1.9929 C   0  0  0  0  0  0  0  0  0  0  0  0
   -1.0415    3.5286    2.3805 H   0  0  0  0  0  0  0  0  0  0  0  0
    0.6954    3.5023    2.7695 H   0  0  0  0  0  0  0  0  0  0  0  0
    0.1474    3.9536    1.1372 H   0  0  0  0  0  0  0  0  0  0  0  0
  5  6  2  0  0  0  0
  5  7  1  0  0  0  0
  2  3  1  0  0  0  0
  2  4  1  0  0  0  0
  2  5  1  0  0  0  0
  1  2  1  0  0  0  0
 24 25  2  0  0  0  0
 24 26  1  0  0  0  0
 20 21  1  0  0  0  0
 20 22  1  0  0  0  0
 20 23  1  0  0  0  0
 16 17  1  0  0  0  0
 16 18  1  0  0  0  0
 16 19  1  0  0  0  0
 14 15  1  0  0  0  0
 14 16  1  0  0  0  0
 14 20  1  0  0  0  0
 11 12  1  0  0  0  0
 11 13  1  0  0  0  0
 11 14  1  0  0  0  0
  9 10  1  0  0  0  0
  9 11  1  0  0  0  0
  9 24  1  0  0  0  0
  7  8  1  0  0  0  0
  7  9  1  0  0  0  0
 28 29  1  0  0  0  0
 28 30  1  0  0  0  0
 28 31  1  0  0  0  0
 26 27  1  0  0  0  0
 26 28  1  0  0  0  0
M  END
$$$$
default_name
  -OEChem-02102213163D

 31 30  0     1  0  0  0  0  0999 V2000
   -3.5895   -3.5013    1.1082 H   0  0  0  0  0  0  0  0  0  0  0  0
   -3.5145   -2.5363    0.6082 C   0  0  0  0  0  0  0  0  0  0  0  0
   -4.2285   -1.8413    1.0452 H   0  0  0  0  0  0  0  0  0  0  0  0
   -3.7155   -2.6583   -0.4538 H   0  0  0  0  0  0  0  0  0  0  0  0
   -2.1155   -1.9963    0.7922 C   0  0  0  0  0  0  0  0  0  0  0  0
   -1.2875   -2.6383    1.4252 O   0  0  0  0  0  0  0  0  0  0  0  0
   -1.8575   -0.8123    0.2402 N   0  0  0  0  0  0  0  0  0  0  0  0
   -2.6005   -0.3333   -0.2478 H   0  0  0  0  0  0  0  0  0  0  0  0
   -0.5675   -0.1203    0.3102 C   0  0  1  0  0  0  0  0  0  0  0  0
    0.0191   -0.5718    1.1110 H   0  0  0  0  0  0  0  0  0  0  0  0
    0.1724   -0.3238   -1.0286 C   0  0  0  0  0  0  0  0  0  0  0  0
    0.9445   -1.0828   -0.8883 H   0  0  0  0  0  0  0  0  0  0  0  0
   -0.5451   -0.7123   -1.7548 H   0  0  0  0  0  0  0  0  0  0  0  0
    0.8287    0.9331   -1.6287 C   0  0  0  0  0  0  0  0  0  0  0  0
    1.1070    1.6202   -0.8296 H   0  0  0  0  0  0  0  0  0  0  0  0
    2.0746    0.5982   -2.4539 C   0  0  0  0  0  0  0  0  0  0  0  0
    1.8151   -0.1021   -3.2490 H   0  0  0  0  0  0  0  0  0  0  0  0
    2.4763    1.5091   -2.8983 H   0  0  0  0  0  0  0  0  0  0  0  0
    2.8434    0.1537   -1.8257 H   0  0  0  0  0  0  0  0  0  0  0  0
   -0.1655    1.6483   -2.5427 C   0  0  0  0  0  0  0  0  0  0  0  0
   -1.0516    1.9280   -1.9731 H   0  0  0  0  0  0  0  0  0  0  0  0
    0.2876    2.5535   -2.9471 H   0  0  0  0  0  0  0  0  0  0  0  0
   -0.4578    0.9940   -3.3648 H   0  0  0  0  0  0  0  0  0  0  0  0
   -0.7793    1.3659    0.6455 C   0  0  0  0  0  0  0  0  0  0  0  0
   -1.6464    2.0125    0.0623 O   0  0  0  0  0  0  0  0  0  0  0  0
    0.0189    1.9059    1.5756 N   0  0  0  0  0  0  0  0  0  0  0  0
    0.7024    1.3094    2.0137 H   0  0  0  0  0  0  0  0  0  0  0  0
   -0.0451    3.3046    1.9929 C   0  0  0  0  0  0  0  0  0  0  0  0
   -1.0415    3.5286    2.3805 H   0  0  0  0  0  0  0  0  0  0  0  0
    0.6954    3.5023    2.7695 H   0  0  0  0  0  0  0  0  0  0  0  0
    0.1474    3.9536    1.1372 H   0  0  0  0  0  0  0  0  0  0  0  0
  5  6  2  0  0  0  0
  5  7  1  0  0  0  0
  2  3  1  0  0  0  0
  2  4  1  0  0  0  0
  2  5  1  0  0  0  0
  1  2  1  0  0  0  0
 24 25  2  0  0  0  0
 24 26  1  0  0  0  0
 20 21  1  0  0  0  0
 20 22  1  0  0  0  0
 20 23  1  0  0  0  0
 16 17  1  0  0  0  0
 16 18  1  0  0  0  0
 16 19  1  0  0  0  0
 14 15  1  0  0  0  0
 14 16  1  0  0  0  0
 14 20  1  0  0  0  0
 11 12  1  0  0  0  0
 11 13  1  0  0  0  0
 11 14  1  0  0  0  0
  9 10  1  0  0  0  0
  9 11  1  0  0  0  0
  9 24  1  0  0  0  0
  7  8  1  0  0  0  0
  7  9  1  0  0  0  0
 28 29  1  0  0  0  0
 28 30  1  0  0  0  0
 28 31  1  0  0  0  0
 26 27  1  0  0  0  0
 26 28  1  0  0  0  0
M  END
$$$$
default_name
  -OEChem-02102213163D

 31 30  0     1  0  0  0  0  0999 V2000
   -3.5895   -3.5013    1.1082 H   0  0  0  0  0  0  0  0  0  0  0  0
   -3.5145   -2.5363    0.6082 C   0  0  0  0  0  0  0  0  0  0  0  0
   -4.2285   -1.8413    1.0452 H   0  0  0  0  0  0  0  0  0  0  0  0
   -3.7155   -2.6583   -0.4538 H   0  0  0  0  0  0  0  0  0  0  0  0
   -2.1155   -1.9963    0.7922 C   0  0  0  0  0  0  0  0  0  0  0  0
   -1.2875   -2.6383    1.4252 O   0  0  0  0  0  0  0  0  0  0  0  0
   -1.8575   -0.8123    0.2402 N   0  0  0  0  0  0  0  0  0  0  0  0
   -2.6005   -0.3333   -0.2478 H   0  0  0  0  0  0  0  0  0  0  0  0
   -0.5675   -0.1203    0.3102 C   0  0  1  0  0  0  0  0  0  0  0  0
    0.0191   -0.5718    1.1110 H   0  0  0  0  0  0  0  0  0  0  0  0
    0.1724   -0.3238   -1.0286 C   0  0  0  0  0  0  0  0  0  0  0  0
    0.9445   -1.0828   -0.8883 H   0  0  0  0  0  0  0  0  0  0  0  0
   -0.5451   -0.7123   -1.7548 H   0  0  0  0  0  0  0  0  0  0  0  0
    0.8287    0.9331   -1.6287 C   0  0  0  0  0  0  0  0  0  0  0  0
    1.3410    1.4908   -0.8447 H   0  0  0  0  0  0  0  0  0  0  0  0
    1.8324    0.5912   -2.7337 C   0  0  0  0  0  0  0  0  0  0  0  0
    1.3377    0.0182   -3.5191 H   0  0  0  0  0  0  0  0  0  0  0  0
    2.2343    1.5098   -3.1618 H   0  0  0  0  0  0  0  0  0  0  0  0
    2.6589    0.0071   -2.3346 H   0  0  0  0  0  0  0  0  0  0  0  0
   -0.2451    1.8394   -2.2295 C   0  0  0  0  0  0  0  0  0  0  0  0
   -0.9579    2.1258   -1.4562 H   0  0  0  0  0  0  0  0  0  0  0  0
    0.2142    2.7430   -2.6304 H   0  0  0  0  0  0  0  0  0  0  0  0
   -0.7720    1.3182   -3.0295 H   0  0  0  0  0  0  0  0  0  0  0  0
   -0.7793    1.3659    0.6455 C   0  0  0  0  0  0  0  0  0  0  0  0
   -1.6464    2.0125    0.0623 O   0  0  0  0  0  0  0  0  0  0  0  0
    0.0189    1.9059    1.5756 N   0  0  0  0  0  0  0  0  0  0  0  0
    0.7024    1.3094    2.0137 H   0  0  0  0  0  0  0  0  0  0  0  0
   -0.0451    3.3046    1.9929 C   0  0  0  0  0  0  0  0  0  0  0  0
   -1.0415    3.5286    2.3805 H   0  0  0  0  0  0  0  0  0  0  0  0
    0.6954    3.5023    2.7695 H   0  0  0  0  0  0  0  0  0  0  0  0
    0.1474    3.9536    1.1372 H   0  0  0  0  0  0  0  0  0  0  0  0
  5  6  2  0  0  0  0
  5  7  1  0  0  0  0
  2  3  1  0  0  0  0
  2  4  1  0  0  0  0
  2  5  1  0  0  0  0
  1  2  1  0  0  0  0
 24 25  2  0  0  0  0
 24 26  1  0  0  0  0
 20 21  1  0  0  0  0
 20 22  1  0  0  0  0
 20 23  1  0  0  0  0
 16 17  1  0  0  0  0
 16 18  1  0  0  0  0
 16 19  1  0  0  0  0
 14 15  1  0  0  0  0
 14 16  1  0  0  0  0
 14 20  1  0  0  0  0
 11 12  1  0  0  0  0
 11 13  1  0  0  0  0
 11 14  1  0  0  0  0
  9 10  1  0  0  0  0
  9 11  1  0  0  0  0
  9 24  1  0  0  0  0
  7  8  1  0  0  0  0
  7  9  1  0  0  0  0
 28 29  1  0  0  0  0
 28 30  1  0  0  0  0
 28 31  1  0  0  0  0
 26 27  1  0  0  0  0
 26 28  1  0  0  0  0
M  END
$$$$
default_name
  -OEChem-02102213163D

 31 30  0     1  0  0  0  0  0999 V2000
   -3.5895   -3.5013    1.1082 H   0  0  0  0  0  0  0  0  0  0  0  0
   -3.5145   -2.5363    0.6082 C   0  0  0  0  0  0  0  0  0  0  0  0
   -4.2285   -1.8413    1.0452 H   0  0  0  0  0  0  0  0  0  0  0  0
   -3.7155   -2.6583   -0.4538 H   0  0  0  0  0  0  0  0  0  0  0  0
   -2.1155   -1.9963    0.7922 C   0  0  0  0  0  0  0  0  0  0  0  0
   -1.2875   -2.6383    1.4252 O   0  0  0  0  0  0  0  0  0  0  0  0
   -1.8575   -0.8123    0.2402 N   0  0  0  0  0  0  0  0  0  0  0  0
   -2.6005   -0.3333   -0.2478 H   0  0  0  0  0  0  0  0  0  0  0  0
   -0.5675   -0.1203    0.3102 C   0  0  1  0  0  0  0  0  0  0  0  0
    0.0191   -0.5718    1.1110 H   0  0  0  0  0  0  0  0  0  0  0  0
    0.1724   -0.3238   -1.0286 C   0  0  0  0  0  0  0  0  0  0  0  0
    0.7487   -1.2493   -0.9712 H   0  0  0  0  0  0  0  0  0  0  0  0
   -0.5776   -0.4493   -1.8127 H   0  0  0  0  0  0  0  0  0  0  0  0
    1.1200    0.8144   -1.4497 C   0  0  0  0  0  0  0  0  0  0  0  0
    1.8804    0.9629   -0.6829 H   0  0  0  0  0  0  0  0  0  0  0  0
    1.8100    0.5289   -2.7867 C   0  0  0  0  0  0  0  0  0  0  0  0
    1.0610    0.3619   -3.5619 H   0  0  0  0  0  0  0  0  0  0  0  0
    2.4310    1.3797   -3.0683 H   0  0  0  0  0  0  0  0  0  0  0  0
    2.4454   -0.3508   -2.7110 H   0  0  0  0  0  0  0  0  0  0  0  0
    0.3320    2.1159   -1.5928 C   0  0  0  0  0  0  0  0  0  0  0  0
   -0.1453    2.3617   -0.6443 H   0  0  0  0  0  0  0  0  0  0  0  0
    1.0054    2.9290   -1.8639 H   0  0  0  0  0  0  0  0  0  0  0  0
   -0.4323    2.0095   -2.3634 H   0  0  0  0  0  0  0  0  0  0  0  0
   -0.7793    1.3659    0.6455 C   0  0  0  0  0  0  0  0  0  0  0  0
   -1.6464    2.0125    0.0623 O   0  0  0  0  0  0  0  0  0  0  0  0
    0.0189    1.9059    1.5756 N   0  0  0  0  0  0  0  0  0  0  0  0
    0.7024    1.3094    2.0137 H   0  0  0  0  0  0  0  0  0  0  0  0
   -0.0451    3.3046    1.9929 C   0  0  0  0  0  0  0  0  0  0  0  0
   -1.0415    3.5286    2.3805 H   0  0  0  0  0  0  0  0  0  0  0  0
    0.6954    3.5023    2.7695 H   0  0  0  0  0  0  0  0  0  0  0  0
    0.1474    3.9536    1.1372 H   0  0  0  0  0  0  0  0  0  0  0  0
  5  6  2  0  0  0  0
  5  7  1  0  0  0  0
  2  3  1  0  0  0  0
  2  4  1  0  0  0  0
  2  5  1  0  0  0  0
  1  2  1  0  0  0  0
 24 25  2  0  0  0  0
 24 26  1  0  0  0  0
 20 21  1  0  0  0  0
 20 22  1  0  0  0  0
 20 23  1  0  0  0  0
 16 17  1  0  0  0  0
 16 18  1  0  0  0  0
 16 19  1  0  0  0  0
 14 15  1  0  0  0  0
 14 16  1  0  0  0  0
 14 20  1  0  0  0  0
 11 12  1  0  0  0  0
 11 13  1  0  0  0  0
 11 14  1  0  0  0  0
  9 10  1  0  0  0  0
  9 11  1  0  0  0  0
  9 24  1  0  0  0  0
  7  8  1  0  0  0  0
  7  9  1  0  0  0  0
 28 29  1  0  0  0  0
 28 30  1  0  0  0  0
 28 31  1  0  0  0  0
 26 27  1  0  0  0  0
 26 28  1  0  0  0  0
M  END
$$$$
default_name
  -OEChem-02102213163D

 31 30  0     1  0  0  0  0  0999 V2000
   -3.5895   -3.5013    1.1082 H   0  0  0  0  0  0  0  0  0  0  0  0
   -3.5145   -2.5363    0.6082 C   0  0  0  0  0  0  0  0  0  0  0  0
   -4.2285   -1.8413    1.0452 H   0  0  0  0  0  0  0  0  0  0  0  0
   -3.7155   -2.6583   -0.4538 H   0  0  0  0  0  0  0  0  0  0  0  0
   -2.1155   -1.9963    0.7922 C   0  0  0  0  0  0  0  0  0  0  0  0
   -1.2875   -2.6383    1.4252 O   0  0  0  0  0  0  0  0  0  0  0  0
   -1.8575   -0.8123    0.2402 N   0  0  0  0  0  0  0  0  0  0  0  0
   -2.6005   -0.3333   -0.2478 H   0  0  0  0  0  0  0  0  0  0  0  0
   -0.5675   -0.1203    0.3102 C   0  0  1  0  0  0  0  0  0  0  0  0
    0.0191   -0.5718    1.1110 H   0  0  0  0  0  0  0  0  0  0  0  0
    0.1724   -0.3238   -1.0286 C   0  0  0  0  0  0  0  0  0  0  0  0
    0.7487   -1.2493   -0.9712 H   0  0  0  0  0  0  0  0  0  0  0  0
   -0.5776   -0.4493   -1.8127 H   0  0  0  0  0  0  0  0  0  0  0  0
    1.1200    0.8144   -1.4497 C   0  0  0  0  0  0  0  0  0  0  0  0
    2.0194    0.7911   -0.8343 H   0  0  0  0  0  0  0  0  0  0  0  0
    1.5227    0.7174   -2.9240 C   0  0  0  0  0  0  0  0  0  0  0  0
    0.6312    0.7232   -3.5527 H   0  0  0  0  0  0  0  0  0  0  0  0
    2.1516    1.5674   -3.1895 H   0  0  0  0  0  0  0  0  0  0  0  0
    2.0828   -0.1965   -3.1100 H   0  0  0  0  0  0  0  0  0  0  0  0
    0.4344    2.1631   -1.2346 C   0  0  0  0  0  0  0  0  0  0  0  0
    0.1644    2.2739   -0.1845 H   0  0  0  0  0  0  0  0  0  0  0  0
    1.1134    2.9715   -1.5059 H   0  0  0  0  0  0  0  0  0  0  0  0
   -0.4659    2.2286   -1.8466 H   0  0  0  0  0  0  0  0  0  0  0  0
   -0.7793    1.3659    0.6455 C   0  0  0  0  0  0  0  0  0  0  0  0
   -1.6464    2.0125    0.0623 O   0  0  0  0  0  0  0  0  0  0  0  0
    0.0189    1.9059    1.5756 N   0  0  0  0  0  0  0  0  0  0  0  0
    0.7024    1.3094    2.0137 H   0  0  0  0  0  0  0  0  0  0  0  0
   -0.0451    3.3046    1.9929 C   0  0  0  0  0  0  0  0  0  0  0  0
   -1.0415    3.5286    2.3805 H   0  0  0  0  0  0  0  0  0  0  0  0
    0.6954    3.5023    2.7695 H   0  0  0  0  0  0  0  0  0  0  0  0
    0.1474    3.9536    1.1372 H   0  0  0  0  0  0  0  0  0  0  0  0
  5  6  2  0  0  0  0
  5  7  1  0  0  0  0
  2  3  1  0  0  0  0
  2  4  1  0  0  0  0
  2  5  1  0  0  0  0
  1  2  1  0  0  0  0
 24 25  2  0  0  0  0
 24 26  1  0  0  0  0
 20 21  1  0  0  0  0
 20 22  1  0  0  0  0
 20 23  1  0  0  0  0
 16 17  1  0  0  0  0
 16 18  1  0  0  0  0
 16 19  1  0  0  0  0
 14 15  1  0  0  0  0
 14 16  1  0  0  0  0
 14 20  1  0  0  0  0
 11 12  1  0  0  0  0
 11 13  1  0  0  0  0
 11 14  1  0  0  0  0
  9 10  1  0  0  0  0
  9 11  1  0  0  0  0
  9 24  1  0  0  0  0
  7  8  1  0  0  0  0
  7  9  1  0  0  0  0
 28 29  1  0  0  0  0
 28 30  1  0  0  0  0
 28 31  1  0  0  0  0
 26 27  1  0  0  0  0
 26 28  1  0  0  0  0
M  END
$$$$
default_name
  -OEChem-02102213163D

 31 30  0     1  0  0  0  0  0999 V2000
   -3.5895   -3.5013    1.1082 H   0  0  0  0  0  0  0  0  0  0  0  0
   -3.5145   -2.5363    0.6082 C   0  0  0  0  0  0  0  0  0  0  0  0
   -4.2285   -1.8413    1.0452 H   0  0  0  0  0  0  0  0  0  0  0  0
   -3.7155   -2.6583   -0.4538 H   0  0  0  0  0  0  0  0  0  0  0  0
   -2.1155   -1.9963    0.7922 C   0  0  0  0  0  0  0  0  0  0  0  0
   -1.2875   -2.6383    1.4252 O   0  0  0  0  0  0  0  0  0  0  0  0
   -1.8575   -0.8123    0.2402 N   0  0  0  0  0  0  0  0  0  0  0  0
   -2.6005   -0.3333   -0.2478 H   0  0  0  0  0  0  0  0  0  0  0  0
   -0.5675   -0.1203    0.3102 C   0  0  1  0  0  0  0  0  0  0  0  0
    0.0191   -0.5718    1.1110 H   0  0  0  0  0  0  0  0  0  0  0  0
    0.1724   -0.3238   -1.0286 C   0  0  0  0  0  0  0  0  0  0  0  0
    0.7487   -1.2493   -0.9712 H   0  0  0  0  0  0  0  0  0  0  0  0
   -0.5776   -0.4493   -1.8127 H   0  0  0  0  0  0  0  0  0  0  0  0
    1.1200    0.8144   -1.4497 C   0  0  0  0  0  0  0  0  0  0  0  0
    2.1126    0.6395   -1.0345 H   0  0  0  0  0  0  0  0  0  0  0  0
    1.2322    0.9417   -2.9717 C   0  0  0  0  0  0  0  0  0  0  0  0
    0.2434    1.1011   -3.4040 H   0  0  0  0  0  0  0  0  0  0  0  0
    1.8719    1.7879   -3.2231 H   0  0  0  0  0  0  0  0  0  0  0  0
    1.6670    0.0419   -3.4014 H   0  0  0  0  0  0  0  0  0  0  0  0
    0.6052    2.1444   -0.9008 C   0  0  0  0  0  0  0  0  0  0  0  0
    0.5454    2.0939    0.1864 H   0  0  0  0  0  0  0  0  0  0  0  0
    1.2892    2.9479   -1.1741 H   0  0  0  0  0  0  0  0  0  0  0  0
   -0.3840    2.3604   -1.3060 H   0  0  0  0  0  0  0  0  0  0  0  0
   -0.7793    1.3659    0.6455 C   0  0  0  0  0  0  0  0  0  0  0  0
   -1.6464    2.0125    0.0623 O   0  0  0  0  0  0  0  0  0  0  0  0
    0.0189    1.9059    1.5756 N   0  0  0  0  0  0  0  0  0  0  0  0
    0.7024    1.3094    2.0137 H   0  0  0  0  0  0  0  0  0  0  0  0
   -0.0451    3.3046    1.9929 C   0  0  0  0  0  0  0  0  0  0  0  0
   -1.0415    3.5286    2.3805 H   0  0  0  0  0  0  0  0  0  0  0  0
    0.6954    3.5023    2.7695 H   0  0  0  0  0  0  0  0  0  0  0  0
    0.1474    3.9536    1.1372 H   0  0  0  0  0  0  0  0  0  0  0  0
  5  6  2  0  0  0  0
  5  7  1  0  0  0  0
  2  3  1  0  0  0  0
  2  4  1  0  0  0  0
  2  5  1  0  0  0  0
  1  2  1  0  0  0  0
 24 25  2  0  0  0  0
 24 26  1  0  0  0  0
 20 21  1  0  0  0  0
 20 22  1  0  0  0  0
 20 23  1  0  0  0  0
 16 17  1  0  0  0  0
 16 18  1  0  0  0  0
 16 19  1  0  0  0  0
 14 15  1  0  0  0  0
 14 16  1  0  0  0  0
 14 20  1  0  0  0  0
 11 12  1  0  0  0  0
 11 13  1  0  0  0  0
 11 14  1  0  0  0  0
  9 10  1  0  0  0  0
  9 11  1  0  0  0  0
  9 24  1  0  0  0  0
  7  8  1  0  0  0  0
  7  9  1  0  0  0  0
 28 29  1  0  0  0  0
 28 30  1  0  0  0  0
 28 31  1  0  0  0  0
 26 27  1  0  0  0  0
 26 28  1  0  0  0  0
M  END
$$$$
default_name
  -OEChem-02102213163D

 31 30  0     1  0  0  0  0  0999 V2000
   -3.5895   -3.5013    1.1082 H   0  0  0  0  0  0  0  0  0  0  0  0
   -3.5145   -2.5363    0.6082 C   0  0  0  0  0  0  0  0  0  0  0  0
   -4.2285   -1.8413    1.0452 H   0  0  0  0  0  0  0  0  0  0  0  0
   -3.7155   -2.6583   -0.4538 H   0  0  0  0  0  0  0  0  0  0  0  0
   -2.1155   -1.9963    0.7922 C   0  0  0  0  0  0  0  0  0  0  0  0
   -1.2875   -2.6383    1.4252 O   0  0  0  0  0  0  0  0  0  0  0  0
   -1.8575   -0.8123    0.2402 N   0  0  0  0  0  0  0  0  0  0  0  0
   -2.6005   -0.3333   -0.2478 H   0  0  0  0  0  0  0  0  0  0  0  0
   -0.5675   -0.1203    0.3102 C   0  0  1  0  0  0  0  0  0  0  0  0
    0.0191   -0.5718    1.1110 H   0  0  0  0  0  0  0  0  0  0  0  0
    0.1724   -0.3238   -1.0286 C   0  0  0  0  0  0  0  0  0  0  0  0
    0.7487   -1.2493   -0.9712 H   0  0  0  0  0  0  0  0  0  0  0  0
   -0.5776   -0.4493   -1.8127 H   0  0  0  0  0  0  0  0  0  0  0  0
    1.1200    0.8144   -1.4497 C   0  0  0  0  0  0  0  0  0  0  0  0
    2.1536    0.5184   -1.2698 H   0  0  0  0  0  0  0  0  0  0  0  0
    0.9583    1.1864   -2.9264 C   0  0  0  0  0  0  0  0  0  0  0  0
   -0.0760    1.4699   -3.1259 H   0  0  0  0  0  0  0  0  0  0  0  0
    1.6108    2.0260   -3.1670 H   0  0  0  0  0  0  0  0  0  0  0  0
    1.2266    0.3479   -3.5654 H   0  0  0  0  0  0  0  0  0  0  0  0
    0.8327    2.0611   -0.6139 C   0  0  0  0  0  0  0  0  0  0  0  0
    0.9716    1.8341    0.4431 H   0  0  0  0  0  0  0  0  0  0  0  0
    1.5208    2.8598   -0.8909 H   0  0  0  0  0  0  0  0  0  0  0  0
   -0.1921    2.3958   -0.7785 H   0  0  0  0  0  0  0  0  0  0  0  0
   -0.7793    1.3659    0.6455 C   0  0  0  0  0  0  0  0  0  0  0  0
   -1.6464    2.0125    0.0623 O   0  0  0  0  0  0  0  0  0  0  0  0
    0.0189    1.9059    1.5756 N   0  0  0  0  0  0  0  0  0  0  0  0
    0.7024    1.3094    2.0137 H   0  0  0  0  0  0  0  0  0  0  0  0
   -0.0451    3.3046    1.9929 C   0  0  0  0  0  0  0  0  0  0  0  0
   -1.0415    3.5286    2.3805 H   0  0  0  0  0  0  0  0  0  0  0  0
    0.6954    3.5023    2.7695 H   0  0  0  0  0  0  0  0  0  0  0  0
    0.1474    3.9536    1.1372 H   0  0  0  0  0  0  0  0  0  0  0  0
  5  6  2  0  0  0  0
  5  7  1  0  0  0  0
  2  3  1  0  0  0  0
  2  4  1  0  0  0  0
  2  5  1  0  0  0  0
  1  2  1  0  0  0  0
 24 25  2  0  0  0  0
 24 26  1  0  0  0  0
 20 21  1  0  0  0  0
 20 22  1  0  0  0  0
 20 23  1  0  0  0  0
 16 17  1  0  0  0  0
 16 18  1  0  0  0  0
 16 19  1  0  0  0  0
 14 15  1  0  0  0  0
 14 16  1  0  0  0  0
 14 20  1  0  0  0  0
 11 12  1  0  0  0  0
 11 13  1  0  0  0  0
 11 14  1  0  0  0  0
  9 10  1  0  0  0  0
  9 11  1  0  0  0  0
  9 24  1  0  0  0  0
  7  8  1  0  0  0  0
  7  9  1  0  0  0  0
 28 29  1  0  0  0  0
 28 30  1  0  0  0  0
 28 31  1  0  0  0  0
 26 27  1  0  0  0  0
 26 28  1  0  0  0  0
M  END
$$$$
default_name
  -OEChem-02102213163D

 31 30  0     1  0  0  0  0  0999 V2000
   -3.5895   -3.5013    1.1082 H   0  0  0  0  0  0  0  0  0  0  0  0
   -3.5145   -2.5363    0.6082 C   0  0  0  0  0  0  0  0  0  0  0  0
   -4.2285   -1.8413    1.0452 H   0  0  0  0  0  0  0  0  0  0  0  0
   -3.7155   -2.6583   -0.4538 H   0  0  0  0  0  0  0  0  0  0  0  0
   -2.1155   -1.9963    0.7922 C   0  0  0  0  0  0  0  0  0  0  0  0
   -1.2875   -2.6383    1.4252 O   0  0  0  0  0  0  0  0  0  0  0  0
   -1.8575   -0.8123    0.2402 N   0  0  0  0  0  0  0  0  0  0  0  0
   -2.6005   -0.3333   -0.2478 H   0  0  0  0  0  0  0  0  0  0  0  0
   -0.5675   -0.1203    0.3102 C   0  0  1  0  0  0  0  0  0  0  0  0
    0.0191   -0.5718    1.1110 H   0  0  0  0  0  0  0  0  0  0  0  0
    0.1724   -0.3238   -1.0286 C   0  0  0  0  0  0  0  0  0  0  0  0
    0.7487   -1.2493   -0.9712 H   0  0  0  0  0  0  0  0  0  0  0  0
   -0.5776   -0.4493   -1.8127 H   0  0  0  0  0  0  0  0  0  0  0  0
    1.1200    0.8144   -1.4497 C   0  0  0  0  0  0  0  0  0  0  0  0
    2.1395    0.4359   -1.5243 H   0  0  0  0  0  0  0  0  0  0  0  0
    0.7198    1.4350   -2.7912 C   0  0  0  0  0  0  0  0  0  0  0  0
   -0.3052    1.8044   -2.7375 H   0  0  0  0  0  0  0  0  0  0  0  0
    1.3862    2.2656   -3.0249 H   0  0  0  0  0  0  0  0  0  0  0  0
    0.7914    0.7008   -3.5908 H   0  0  0  0  0  0  0  0  0  0  0  0
    1.1015    1.9188   -0.3936 C   0  0  0  0  0  0  0  0  0  0  0  0
    1.4140    1.5120    0.5680 H   0  0  0  0  0  0  0  0  0  0  0  0
    1.7925    2.7132   -0.6758 H   0  0  0  0  0  0  0  0  0  0  0  0
    0.0967    2.3323   -0.3001 H   0  0  0  0  0  0  0  0  0  0  0  0
   -0.7793    1.3659    0.6455 C   0  0  0  0  0  0  0  0  0  0  0  0
   -1.6464    2.0125    0.0623 O   0  0  0  0  0  0  0  0  0  0  0  0
    0.0189    1.9059    1.5756 N   0  0  0  0  0  0  0  0  0  0  0  0
    0.7024    1.3094    2.0137 H   0  0  0  0  0  0  0  0  0  0  0  0
   -0.0451    3.3046    1.9929 C   0  0  0  0  0  0  0  0  0  0  0  0
   -1.0415    3.5286    2.3805 H   0  0  0  0  0  0  0  0  0  0  0  0
    0.6954    3.5023    2.7695 H   0  0  0  0  0  0  0  0  0  0  0  0
    0.1474    3.9536    1.1372 H   0  0  0  0  0  0  0  0  0  0  0  0
  5  6  2  0  0  0  0
  5  7  1  0  0  0  0
  2  3  1  0  0  0  0
  2  4  1  0  0  0  0
  2  5  1  0  0  0  0
  1  2  1  0  0  0  0
 24 25  2  0  0  0  0
 24 26  1  0  0  0  0
 20 21  1  0  0  0  0
 20 22  1  0  0  0  0
 20 23  1  0  0  0  0
 16 17  1  0  0  0  0
 16 18  1  0  0  0  0
 16 19  1  0  0  0  0
 14 15  1  0  0  0  0
 14 16  1  0  0  0  0
 14 20  1  0  0  0  0
 11 12  1  0  0  0  0
 11 13  1  0  0  0  0
 11 14  1  0  0  0  0
  9 10  1  0  0  0  0
  9 11  1  0  0  0  0
  9 24  1  0  0  0  0
  7  8  1  0  0  0  0
  7  9  1  0  0  0  0
 28 29  1  0  0  0  0
 28 30  1  0  0  0  0
 28 31  1  0  0  0  0
 26 27  1  0  0  0  0
 26 28  1  0  0  0  0
M  END
$$$$
default_name
  -OEChem-02102213163D

 31 30  0     1  0  0  0  0  0999 V2000
   -3.5895   -3.5013    1.1082 H   0  0  0  0  0  0  0  0  0  0  0  0
   -3.5145   -2.5363    0.6082 C   0  0  0  0  0  0  0  0  0  0  0  0
   -4.2285   -1.8413    1.0452 H   0  0  0  0  0  0  0  0  0  0  0  0
   -3.7155   -2.6583   -0.4538 H   0  0  0  0  0  0  0  0  0  0  0  0
   -2.1155   -1.9963    0.7922 C   0  0  0  0  0  0  0  0  0  0  0  0
   -1.2875   -2.6383    1.4252 O   0  0  0  0  0  0  0  0  0  0  0  0
   -1.8575   -0.8123    0.2402 N   0  0  0  0  0  0  0  0  0  0  0  0
   -2.6005   -0.3333   -0.2478 H   0  0  0  0  0  0  0  0  0  0  0  0
   -0.5675   -0.1203    0.3102 C   0  0  1  0  0  0  0  0  0  0  0  0
    0.0191   -0.5718    1.1110 H   0  0  0  0  0  0  0  0  0  0  0  0
    0.1724   -0.3238   -1.0286 C   0  0  0  0  0  0  0  0  0  0  0  0
    0.7487   -1.2493   -0.9712 H   0  0  0  0  0  0  0  0  0  0  0  0
   -0.5776   -0.4493   -1.8127 H   0  0  0  0  0  0  0  0  0  0  0  0
    1.1200    0.8144   -1.4497 C   0  0  0  0  0  0  0  0  0  0  0  0
    2.0714    0.3978   -1.7805 H   0  0  0  0  0  0  0  0  0  0  0  0
    0.5328    1.6705   -2.5755 C   0  0  0  0  0  0  0  0  0  0  0  0
   -0.4286    2.0819   -2.2651 H   0  0  0  0  0  0  0  0  0  0  0  0
    1.2135    2.4902   -2.8065 H   0  0  0  0  0  0  0  0  0  0  0  0
    0.3912    1.0766   -3.4758 H   0  0  0  0  0  0  0  0  0  0  0  0
    1.3932    1.7273   -0.2549 C   0  0  0  0  0  0  0  0  0  0  0  0
    1.8424    1.1496    0.5528 H   0  0  0  0  0  0  0  0  0  0  0  0
    2.0857    2.5181   -0.5433 H   0  0  0  0  0  0  0  0  0  0  0  0
    0.4626    2.1744    0.0966 H   0  0  0  0  0  0  0  0  0  0  0  0
   -0.7793    1.3659    0.6455 C   0  0  0  0  0  0  0  0  0  0  0  0
   -1.6464    2.0125    0.0623 O   0  0  0  0  0  0  0  0  0  0  0  0
    0.0189    1.9059    1.5756 N   0  0  0  0  0  0  0  0  0  0  0  0
    0.7024    1.3094    2.0137 H   0  0  0  0  0  0  0  0  0  0  0  0
   -0.0451    3.3046    1.9929 C   0  0  0  0  0  0  0  0  0  0  0  0
   -1.0415    3.5286    2.3805 H   0  0  0  0  0  0  0  0  0  0  0  0
    0.6954    3.5023    2.7695 H   0  0  0  0  0  0  0  0  0  0  0  0
    0.1474    3.9536    1.1372 H   0  0  0  0  0  0  0  0  0  0  0  0
  5  6  2  0  0  0  0
  5  7  1  0  0  0  0
  2  3  1  0  0  0  0
  2  4  1  0  0  0  0
  2  5  1  0  0  0  0
  1  2  1  0  0  0  0
 24 25  2  0  0  0  0
 24 26  1  0  0  0  0
 20 21  1  0  0  0  0
 20 22  1  0  0  0  0
 20 23  1  0  0  0  0
 16 17  1  0  0  0  0
 16 18  1  0  0  0  0
 16 19  1  0  0  0  0
 14 15  1  0  0  0  0
 14 16  1  0  0  0  0
 14 20  1  0  0  0  0
 11 12  1  0  0  0  0
 11 13  1  0  0  0  0
 11 14  1  0  0  0  0
  9 10  1  0  0  0  0
  9 11  1  0  0  0  0
  9 24  1  0  0  0  0
  7  8  1  0  0  0  0
  7  9  1  0  0  0  0
 28 29  1  0  0  0  0
 28 30  1  0  0  0  0
 28 31  1  0  0  0  0
 26 27  1  0  0  0  0
 26 28  1  0  0  0  0
M  END
$$$$
default_name
  -OEChem-02102213163D

 31 30  0     1  0  0  0  0  0999 V2000
   -3.5895   -3.5013    1.1082 H   0  0  0  0  0  0  0  0  0  0  0  0
   -3.5145   -2.5363    0.6082 C   0  0  0  0  0  0  0  0  0  0  0  0
   -4.2285   -1.8413    1.0452 H   0  0  0  0  0  0  0  0  0  0  0  0
   -3.7155   -2.6583   -0.4538 H   0  0  0  0  0  0  0  0  0  0  0  0
   -2.1155   -1.9963    0.7922 C   0  0  0  0  0  0  0  0  0  0  0  0
   -1.2875   -2.6383    1.4252 O   0  0  0  0  0  0  0  0  0  0  0  0
   -1.8575   -0.8123    0.2402 N   0  0  0  0  0  0  0  0  0  0  0  0
   -2.6005   -0.3333   -0.2478 H   0  0  0  0  0  0  0  0  0  0  0  0
   -0.5675   -0.1203    0.3102 C   0  0  1  0  0  0  0  0  0  0  0  0
    0.0191   -0.5718    1.1110 H   0  0  0  0  0  0  0  0  0  0  0  0
    0.1724   -0.3238   -1.0286 C   0  0  0  0  0  0  0  0  0  0  0  0
    0.7487   -1.2493   -0.9712 H   0  0  0  0  0  0  0  0  0  0  0  0
   -0.5776   -0.4493   -1.8127 H   0  0  0  0  0  0  0  0  0  0  0  0
    1.1200    0.8144   -1.4497 C   0  0  0  0  0  0  0  0  0  0  0  0
    1.9540    0.4067   -2.0210 H   0  0  0  0  0  0  0  0  0  0  0  0
    0.4102    1.8768   -2.2938 C   0  0  0  0  0  0  0  0  0  0  0  0
   -0.4378    2.2834   -1.7411 H   0  0  0  0  0  0  0  0  0  0  0  0
    1.1042    2.6846   -2.5268 H   0  0  0  0  0  0  0  0  0  0  0  0
    0.0532    1.4495   -3.2284 H   0  0  0  0  0  0  0  0  0  0  0  0
    1.6879    1.4996   -0.2073 C   0  0  0  0  0  0  0  0  0  0  0  0
    2.2276    0.7718    0.3985 H   0  0  0  0  0  0  0  0  0  0  0  0
    2.3804    2.2878   -0.5025 H   0  0  0  0  0  0  0  0  0  0  0  0
    0.8809    1.9327    0.3847 H   0  0  0  0  0  0  0  0  0  0  0  0
   -0.7793    1.3659    0.6455 C   0  0  0  0  0  0  0  0  0  0  0  0
   -1.6464    2.0125    0.0623 O   0  0  0  0  0  0  0  0  0  0  0  0
    0.0189    1.9059    1.5756 N   0  0  0  0  0  0  0  0  0  0  0  0
    0.7024    1.3094    2.0137 H   0  0  0  0  0  0  0  0  0  0  0  0
   -0.0451    3.3046    1.9929 C   0  0  0  0  0  0  0  0  0  0  0  0
   -1.0415    3.5286    2.3805 H   0  0  0  0  0  0  0  0  0  0  0  0
    0.6954    3.5023    2.7695 H   0  0  0  0  0  0  0  0  0  0  0  0
    0.1474    3.9536    1.1372 H   0  0  0  0  0  0  0  0  0  0  0  0
  5  6  2  0  0  0  0
  5  7  1  0  0  0  0
  2  3  1  0  0  0  0
  2  4  1  0  0  0  0
  2  5  1  0  0  0  0
  1  2  1  0  0  0  0
 24 25  2  0  0  0  0
 24 26  1  0  0  0  0
 20 21  1  0  0  0  0
 20 22  1  0  0  0  0
 20 23  1  0  0  0  0
 16 17  1  0  0  0  0
 16 18  1  0  0  0  0
 16 19  1  0  0  0  0
 14 15  1  0  0  0  0
 14 16  1  0  0  0  0
 14 20  1  0  0  0  0
 11 12  1  0  0  0  0
 11 13  1  0  0  0  0
 11 14  1  0  0  0  0
  9 10  1  0  0  0  0
  9 11  1  0  0  0  0
  9 24  1  0  0  0  0
  7  8  1  0  0  0  0
  7  9  1  0  0  0  0
 28 29  1  0  0  0  0
 28 30  1  0  0  0  0
 28 31  1  0  0  0  0
 26 27  1  0  0  0  0
 26 28  1  0  0  0  0
M  END
$$$$
default_name
  -OEChem-02102213163D

 31 30  0     1  0  0  0  0  0999 V2000
   -3.5895   -3.5013    1.1082 H   0  0  0  0  0  0  0  0  0  0  0  0
   -3.5145   -2.5363    0.6082 C   0  0  0  0  0  0  0  0  0  0  0  0
   -4.2285   -1.8413    1.0452 H   0  0  0  0  0  0  0  0  0  0  0  0
   -3.7155   -2.6583   -0.4538 H   0  0  0  0  0  0  0  0  0  0  0  0
   -2.1155   -1.9963    0.7922 C   0  0  0  0  0  0  0  0  0  0  0  0
   -1.2875   -2.6383    1.4252 O   0  0  0  0  0  0  0  0  0  0  0  0
   -1.8575   -0.8123    0.2402 N   0  0  0  0  0  0  0  0  0  0  0  0
   -2.6005   -0.3333   -0.2478 H   0  0  0  0  0  0  0  0  0  0  0  0
   -0.5675   -0.1203    0.3102 C   0  0  1  0  0  0  0  0  0  0  0  0
    0.0191   -0.5718    1.1110 H   0  0  0  0  0  0  0  0  0  0  0  0
    0.1724   -0.3238   -1.0286 C   0  0  0  0  0  0  0  0  0  0  0  0
    0.7487   -1.2493   -0.9712 H   0  0  0  0  0  0  0  0  0  0  0  0
   -0.5776   -0.4493   -1.8127 H   0  0  0  0  0  0  0  0  0  0  0  0
    1.1200    0.8144   -1.4497 C   0  0  0  0  0  0  0  0  0  0  0  0
    1.7951    0.4618   -2.2295 H   0  0  0  0  0  0  0  0  0  0  0  0
    0.3602    2.0399   -1.9654 C   0  0  0  0  0  0  0  0  0  0  0  0
   -0.3322    2.3952   -1.2010 H   0  0  0  0  0  0  0  0  0  0  0  0
    1.0660    2.8356   -2.2047 H   0  0  0  0  0  0  0  0  0  0  0  0
   -0.1995    1.7943   -2.8653 H   0  0  0  0  0  0  0  0  0  0  0  0
    1.9655    1.2511   -0.2539 C   0  0  0  0  0  0  0  0  0  0  0  0
    2.5435    0.4041    0.1154 H   0  0  0  0  0  0  0  0  0  0  0  0
    2.6567    2.0379   -0.5562 H   0  0  0  0  0  0  0  0  0  0  0  0
    1.3228    1.6238    0.5445 H   0  0  0  0  0  0  0  0  0  0  0  0
   -0.7793    1.3659    0.6455 C   0  0  0  0  0  0  0  0  0  0  0  0
   -1.6464    2.0125    0.0623 O   0  0  0  0  0  0  0  0  0  0  0  0
    0.0189    1.9059    1.5756 N   0  0  0  0  0  0  0  0  0  0  0  0
    0.7024    1.3094    2.0137 H   0  0  0  0  0  0  0  0  0  0  0  0
   -0.0451    3.3046    1.9929 C   0  0  0  0  0  0  0  0  0  0  0  0
   -1.0415    3.5286    2.3805 H   0  0  0  0  0  0  0  0  0  0  0  0
    0.6954    3.5023    2.7695 H   0  0  0  0  0  0  0  0  0  0  0  0
    0.1474    3.9536    1.1372 H   0  0  0  0  0  0  0  0  0  0  0  0
  5  6  2  0  0  0  0
  5  7  1  0  0  0  0
  2  3  1  0  0  0  0
  2  4  1  0  0  0  0
  2  5  1  0  0  0  0
  1  2  1  0  0  0  0
 24 25  2  0  0  0  0
 24 26  1  0  0  0  0
 20 21  1  0  0  0  0
 20 22  1  0  0  0  0
 20 23  1  0  0  0  0
 16 17  1  0  0  0  0
 16 18  1  0  0  0  0
 16 19  1  0  0  0  0
 14 15  1  0  0  0  0
 14 16  1  0  0  0  0
 14 20  1  0  0  0  0
 11 12  1  0  0  0  0
 11 13  1  0  0  0  0
 11 14  1  0  0  0  0
  9 10  1  0  0  0  0
  9 11  1  0  0  0  0
  9 24  1  0  0  0  0
  7  8  1  0  0  0  0
  7  9  1  0  0  0  0
 28 29  1  0  0  0  0
 28 30  1  0  0  0  0
 28 31  1  0  0  0  0
 26 27  1  0  0  0  0
 26 28  1  0  0  0  0
M  END
$$$$
default_name
  -OEChem-02102213163D

 31 30  0     1  0  0  0  0  0999 V2000
   -3.5895   -3.5013    1.1082 H   0  0  0  0  0  0  0  0  0  0  0  0
   -3.5145   -2.5363    0.6082 C   0  0  0  0  0  0  0  0  0  0  0  0
   -4.2285   -1.8413    1.0452 H   0  0  0  0  0  0  0  0  0  0  0  0
   -3.7155   -2.6583   -0.4538 H   0  0  0  0  0  0  0  0  0  0  0  0
   -2.1155   -1.9963    0.7922 C   0  0  0  0  0  0  0  0  0  0  0  0
   -1.2875   -2.6383    1.4252 O   0  0  0  0  0  0  0  0  0  0  0  0
   -1.8575   -0.8123    0.2402 N   0  0  0  0  0  0  0  0  0  0  0  0
   -2.6005   -0.3333   -0.2478 H   0  0  0  0  0  0  0  0  0  0  0  0
   -0.5675   -0.1203    0.3102 C   0  0  1  0  0  0  0  0  0  0  0  0
    0.0191   -0.5718    1.1110 H   0  0  0  0  0  0  0  0  0  0  0  0
    0.1724   -0.3238   -1.0286 C   0  0  0  0  0  0  0  0  0  0  0  0
    0.7487   -1.2493   -0.9712 H   0  0  0  0  0  0  0  0  0  0  0  0
   -0.5776   -0.4493   -1.8127 H   0  0  0  0  0  0  0  0  0  0  0  0
    1.1200    0.8144   -1.4497 C   0  0  0  0  0  0  0  0  0  0  0  0
    1.6057    0.5596   -2.3916 H   0  0  0  0  0  0  0  0  0  0  0  0
    0.3863    2.1487   -1.6126 C   0  0  0  0  0  0  0  0  0  0  0  0
   -0.1189    2.4098   -0.6817 H   0  0  0  0  0  0  0  0  0  0  0  0
    1.1014    2.9328   -1.8622 H   0  0  0  0  0  0  0  0  0  0  0  0
   -0.3498    2.0873   -2.4113 H   0  0  0  0  0  0  0  0  0  0  0  0
    2.2072    0.9989   -0.3917 C   0  0  0  0  0  0  0  0  0  0  0  0
    2.7684    0.0717   -0.2769 H   0  0  0  0  0  0  0  0  0  0  0  0
    2.8955    1.7856   -0.7007 H   0  0  0  0  0  0  0  0  0  0  0  0
    1.7585    1.2687    0.5650 H   0  0  0  0  0  0  0  0  0  0  0  0
   -0.7793    1.3659    0.6455 C   0  0  0  0  0  0  0  0  0  0  0  0
   -1.6464    2.0125    0.0623 O   0  0  0  0  0  0  0  0  0  0  0  0
    0.0189    1.9059    1.5756 N   0  0  0  0  0  0  0  0  0  0  0  0
    0.7024    1.3094    2.0137 H   0  0  0  0  0  0  0  0  0  0  0  0
   -0.0451    3.3046    1.9929 C   0  0  0  0  0  0  0  0  0  0  0  0
   -1.0415    3.5286    2.3805 H   0  0  0  0  0  0  0  0  0  0  0  0
    0.6954    3.5023    2.7695 H   0  0  0  0  0  0  0  0  0  0  0  0
    0.1474    3.9536    1.1372 H   0  0  0  0  0  0  0  0  0  0  0  0
  5  6  2  0  0  0  0
  5  7  1  0  0  0  0
  2  3  1  0  0  0  0
  2  4  1  0  0  0  0
  2  5  1  0  0  0  0
  1  2  1  0  0  0  0
 24 25  2  0  0  0  0
 24 26  1  0  0  0  0
 20 21  1  0  0  0  0
 20 22  1  0  0  0  0
 20 23  1  0  0  0  0
 16 17  1  0  0  0  0
 16 18  1  0  0  0  0
 16 19  1  0  0  0  0
 14 15  1  0  0  0  0
 14 16  1  0  0  0  0
 14 20  1  0  0  0  0
 11 12  1  0  0  0  0
 11 13  1  0  0  0  0
 11 14  1  0  0  0  0
  9 10  1  0  0  0  0
  9 11  1  0  0  0  0
  9 24  1  0  0  0  0
  7  8  1  0  0  0  0
  7  9  1  0  0  0  0
 28 29  1  0  0  0  0
 28 30  1  0  0  0  0
 28 31  1  0  0  0  0
 26 27  1  0  0  0  0
 26 28  1  0  0  0  0
M  END
$$$$
default_name
  -OEChem-02102213163D

 31 30  0     1  0  0  0  0  0999 V2000
   -3.5895   -3.5013    1.1082 H   0  0  0  0  0  0  0  0  0  0  0  0
   -3.5145   -2.5363    0.6082 C   0  0  0  0  0  0  0  0  0  0  0  0
   -4.2285   -1.8413    1.0452 H   0  0  0  0  0  0  0  0  0  0  0  0
   -3.7155   -2.6583   -0.4538 H   0  0  0  0  0  0  0  0  0  0  0  0
   -2.1155   -1.9963    0.7922 C   0  0  0  0  0  0  0  0  0  0  0  0
   -1.2875   -2.6383    1.4252 O   0  0  0  0  0  0  0  0  0  0  0  0
   -1.8575   -0.8123    0.2402 N   0  0  0  0  0  0  0  0  0  0  0  0
   -2.6005   -0.3333   -0.2478 H   0  0  0  0  0  0  0  0  0  0  0  0
   -0.5675   -0.1203    0.3102 C   0  0  1  0  0  0  0  0  0  0  0  0
    0.0191   -0.5718    1.1110 H   0  0  0  0  0  0  0  0  0  0  0  0
    0.1724   -0.3238   -1.0286 C   0  0  0  0  0  0  0  0  0  0  0  0
    0.7487   -1.2493   -0.9712 H   0  0  0  0  0  0  0  0  0  0  0  0
   -0.5776   -0.4493   -1.8127 H   0  0  0  0  0  0  0  0  0  0  0  0
    1.1200    0.8144   -1.4497 C   0  0  0  0  0  0  0  0  0  0  0  0
    1.3986    0.6932   -2.4965 H   0  0  0  0  0  0  0  0  0  0  0  0
    0.4867    2.1957   -1.2595 C   0  0  0  0  0  0  0  0  0  0  0  0
    0.1875    2.3260   -0.2186 H   0  0  0  0  0  0  0  0  0  0  0  0
    1.2081    2.9697   -1.5226 H   0  0  0  0  0  0  0  0  0  0  0  0
   -0.3873    2.3087   -1.8973 H   0  0  0  0  0  0  0  0  0  0  0  0
    2.3965    0.7602   -0.6111 C   0  0  0  0  0  0  0  0  0  0  0  0
    2.8871   -0.2029   -0.7519 H   0  0  0  0  0  0  0  0  0  0  0  0
    3.0807    1.5480   -0.9262 H   0  0  0  0  0  0  0  0  0  0  0  0
    2.1581    0.8916    0.4449 H   0  0  0  0  0  0  0  0  0  0  0  0
   -0.7793    1.3659    0.6455 C   0  0  0  0  0  0  0  0  0  0  0  0
   -1.6464    2.0125    0.0623 O   0  0  0  0  0  0  0  0  0  0  0  0
    0.0189    1.9059    1.5756 N   0  0  0  0  0  0  0  0  0  0  0  0
    0.7024    1.3094    2.0137 H   0  0  0  0  0  0  0  0  0  0  0  0
   -0.0451    3.3046    1.9929 C   0  0  0  0  0  0  0  0  0  0  0  0
   -1.0415    3.5286    2.3805 H   0  0  0  0  0  0  0  0  0  0  0  0
    0.6954    3.5023    2.7695 H   0  0  0  0  0  0  0  0  0  0  0  0
    0.1474    3.9536    1.1372 H   0  0  0  0  0  0  0  0  0  0  0  0
  5  6  2  0  0  0  0
  5  7  1  0  0  0  0
  2  3  1  0  0  0  0
  2  4  1  0  0  0  0
  2  5  1  0  0  0  0
  1  2  1  0  0  0  0
 24 25  2  0  0  0  0
 24 26  1  0  0  0  0
 20 21  1  0  0  0  0
 20 22  1  0  0  0  0
 20 23  1  0  0  0  0
 16 17  1  0  0  0  0
 16 18  1  0  0  0  0
 16 19  1  0  0  0  0
 14 15  1  0  0  0  0
 14 16  1  0  0  0  0
 14 20  1  0  0  0  0
 11 12  1  0  0  0  0
 11 13  1  0  0  0  0
 11 14  1  0  0  0  0
  9 10  1  0  0  0  0
  9 11  1  0  0  0  0
  9 24  1  0  0  0  0
  7  8  1  0  0  0  0
  7  9  1  0  0  0  0
 28 29  1  0  0  0  0
 28 30  1  0  0  0  0
 28 31  1  0  0  0  0
 26 27  1  0  0  0  0
 26 28  1  0  0  0  0
M  END
$$$$
default_name
  -OEChem-02102213163D

 31 30  0     1  0  0  0  0  0999 V2000
   -3.5895   -3.5013    1.1082 H   0  0  0  0  0  0  0  0  0  0  0  0
   -3.5145   -2.5363    0.6082 C   0  0  0  0  0  0  0  0  0  0  0  0
   -4.2285   -1.8413    1.0452 H   0  0  0  0  0  0  0  0  0  0  0  0
   -3.7155   -2.6583   -0.4538 H   0  0  0  0  0  0  0  0  0  0  0  0
   -2.1155   -1.9963    0.7922 C   0  0  0  0  0  0  0  0  0  0  0  0
   -1.2875   -2.6383    1.4252 O   0  0  0  0  0  0  0  0  0  0  0  0
   -1.8575   -0.8123    0.2402 N   0  0  0  0  0  0  0  0  0  0  0  0
   -2.6005   -0.3333   -0.2478 H   0  0  0  0  0  0  0  0  0  0  0  0
   -0.5675   -0.1203    0.3102 C   0  0  1  0  0  0  0  0  0  0  0  0
    0.0191   -0.5718    1.1110 H   0  0  0  0  0  0  0  0  0  0  0  0
    0.1724   -0.3238   -1.0286 C   0  0  0  0  0  0  0  0  0  0  0  0
    0.7487   -1.2493   -0.9712 H   0  0  0  0  0  0  0  0  0  0  0  0
   -0.5776   -0.4493   -1.8127 H   0  0  0  0  0  0  0  0  0  0  0  0
    1.1200    0.8144   -1.4497 C   0  0  0  0  0  0  0  0  0  0  0  0
    1.1880    0.8536   -2.5368 H   0  0  0  0  0  0  0  0  0  0  0  0
    0.6546    2.1777   -0.9302 C   0  0  0  0  0  0  0  0  0  0  0  0
    0.5661    2.1496    0.1567 H   0  0  0  0  0  0  0  0  0  0  0  0
    1.3786    2.9436   -1.2092 H   0  0  0  0  0  0  0  0  0  0  0  0
   -0.3096    2.4433   -1.3585 H   0  0  0  0  0  0  0  0  0  0  0  0
    2.5204    0.5511   -0.8974 C   0  0  0  0  0  0  0  0  0  0  0  0
    2.8914   -0.4008   -1.2772 H   0  0  0  0  0  0  0  0  0  0  0  0
    3.1997    1.3413   -1.2172 H   0  0  0  0  0  0  0  0  0  0  0  0
    2.4944    0.5182    0.1924 H   0  0  0  0  0  0  0  0  0  0  0  0
   -0.7793    1.3659    0.6455 C   0  0  0  0  0  0  0  0  0  0  0  0
   -1.6464    2.0125    0.0623 O   0  0  0  0  0  0  0  0  0  0  0  0
    0.0189    1.9059    1.5756 N   0  0  0  0  0  0  0  0  0  0  0  0
    0.7024    1.3094    2.0137 H   0  0  0  0  0  0  0  0  0  0  0  0
   -0.0451    3.3046    1.9929 C   0  0  0  0  0  0  0  0  0  0  0  0
   -1.0415    3.5286    2.3805 H   0  0  0  0  0  0  0  0  0  0  0  0
    0.6954    3.5023    2.7695 H   0  0  0  0  0  0  0  0  0  0  0  0
    0.1474    3.9536    1.1372 H   0  0  0  0  0  0  0  0  0  0  0  0
  5  6  2  0  0  0  0
  5  7  1  0  0  0  0
  2  3  1  0  0  0  0
  2  4  1  0  0  0  0
  2  5  1  0  0  0  0
  1  2  1  0  0  0  0
 24 25  2  0  0  0  0
 24 26  1  0  0  0  0
 20 21  1  0  0  0  0
 20 22  1  0  0  0  0
 20 23  1  0  0  0  0
 16 17  1  0  0  0  0
 16 18  1  0  0  0  0
 16 19  1  0  0  0  0
 14 15  1  0  0  0  0
 14 16  1  0  0  0  0
 14 20  1  0  0  0  0
 11 12  1  0  0  0  0
 11 13  1  0  0  0  0
 11 14  1  0  0  0  0
  9 10  1  0  0  0  0
  9 11  1  0  0  0  0
  9 24  1  0  0  0  0
  7  8  1  0  0  0  0
  7  9  1  0  0  0  0
 28 29  1  0  0  0  0
 28 30  1  0  0  0  0
 28 31  1  0  0  0  0
 26 27  1  0  0  0  0
 26 28  1  0  0  0  0
M  END
$$$$
default_name
  -OEChem-02102213163D

 31 30  0     1  0  0  0  0  0999 V2000
   -3.5895   -3.5013    1.1082 H   0  0  0  0  0  0  0  0  0  0  0  0
   -3.5145   -2.5363    0.6082 C   0  0  0  0  0  0  0  0  0  0  0  0
   -4.2285   -1.8413    1.0452 H   0  0  0  0  0  0  0  0  0  0  0  0
   -3.7155   -2.6583   -0.4538 H   0  0  0  0  0  0  0  0  0  0  0  0
   -2.1155   -1.9963    0.7922 C   0  0  0  0  0  0  0  0  0  0  0  0
   -1.2875   -2.6383    1.4252 O   0  0  0  0  0  0  0  0  0  0  0  0
   -1.8575   -0.8123    0.2402 N   0  0  0  0  0  0  0  0  0  0  0  0
   -2.6005   -0.3333   -0.2478 H   0  0  0  0  0  0  0  0  0  0  0  0
   -0.5675   -0.1203    0.3102 C   0  0  1  0  0  0  0  0  0  0  0  0
    0.0191   -0.5718    1.1110 H   0  0  0  0  0  0  0  0  0  0  0  0
    0.1724   -0.3238   -1.0286 C   0  0  0  0  0  0  0  0  0  0  0  0
    0.7487   -1.2493   -0.9712 H   0  0  0  0  0  0  0  0  0  0  0  0
   -0.5776   -0.4493   -1.8127 H   0  0  0  0  0  0  0  0  0  0  0  0
    1.1200    0.8144   -1.4497 C   0  0  0  0  0  0  0  0  0  0  0  0
    0.9882    1.0299   -2.5100 H   0  0  0  0  0  0  0  0  0  0  0  0
    0.8784    2.0961   -0.6471 C   0  0  0  0  0  0  0  0  0  0  0  0
    0.9911    1.8926    0.4187 H   0  0  0  0  0  0  0  0  0  0  0  0
    1.6014    2.8565   -0.9432 H   0  0  0  0  0  0  0  0  0  0  0  0
   -0.1218    2.4820   -0.8314 H   0  0  0  0  0  0  0  0  0  0  0  0
    2.5706    0.3860   -1.2308 C   0  0  0  0  0  0  0  0  0  0  0  0
    2.7811   -0.5085   -1.8169 H   0  0  0  0  0  0  0  0  0  0  0  0
    3.2442    1.1796   -1.5540 H   0  0  0  0  0  0  0  0  0  0  0  0
    2.7445    0.1739   -0.1753 H   0  0  0  0  0  0  0  0  0  0  0  0
   -0.7793    1.3659    0.6455 C   0  0  0  0  0  0  0  0  0  0  0  0
   -1.6464    2.0125    0.0623 O   0  0  0  0  0  0  0  0  0  0  0  0
    0.0189    1.9059    1.5756 N   0  0  0  0  0  0  0  0  0  0  0  0
    0.7024    1.3094    2.0137 H   0  0  0  0  0  0  0  0  0  0  0  0
   -0.0451    3.3046    1.9929 C   0  0  0  0  0  0  0  0  0  0  0  0
   -1.0415    3.5286    2.3805 H   0  0  0  0  0  0  0  0  0  0  0  0
    0.6954    3.5023    2.7695 H   0  0  0  0  0  0  0  0  0  0  0  0
    0.1474    3.9536    1.1372 H   0  0  0  0  0  0  0  0  0  0  0  0
  5  6  2  0  0  0  0
  5  7  1  0  0  0  0
  2  3  1  0  0  0  0
  2  4  1  0  0  0  0
  2  5  1  0  0  0  0
  1  2  1  0  0  0  0
 24 25  2  0  0  0  0
 24 26  1  0  0  0  0
 20 21  1  0  0  0  0
 20 22  1  0  0  0  0
 20 23  1  0  0  0  0
 16 17  1  0  0  0  0
 16 18  1  0  0  0  0
 16 19  1  0  0  0  0
 14 15  1  0  0  0  0
 14 16  1  0  0  0  0
 14 20  1  0  0  0  0
 11 12  1  0  0  0  0
 11 13  1  0  0  0  0
 11 14  1  0  0  0  0
  9 10  1  0  0  0  0
  9 11  1  0  0  0  0
  9 24  1  0  0  0  0
  7  8  1  0  0  0  0
  7  9  1  0  0  0  0
 28 29  1  0  0  0  0
 28 30  1  0  0  0  0
 28 31  1  0  0  0  0
 26 27  1  0  0  0  0
 26 28  1  0  0  0  0
M  END
$$$$
default_name
  -OEChem-02102213163D

 31 30  0     1  0  0  0  0  0999 V2000
   -3.5895   -3.5013    1.1082 H   0  0  0  0  0  0  0  0  0  0  0  0
   -3.5145   -2.5363    0.6082 C   0  0  0  0  0  0  0  0  0  0  0  0
   -4.2285   -1.8413    1.0452 H   0  0  0  0  0  0  0  0  0  0  0  0
   -3.7155   -2.6583   -0.4538 H   0  0  0  0  0  0  0  0  0  0  0  0
   -2.1155   -1.9963    0.7922 C   0  0  0  0  0  0  0  0  0  0  0  0
   -1.2875   -2.6383    1.4252 O   0  0  0  0  0  0  0  0  0  0  0  0
   -1.8575   -0.8123    0.2402 N   0  0  0  0  0  0  0  0  0  0  0  0
   -2.6005   -0.3333   -0.2478 H   0  0  0  0  0  0  0  0  0  0  0  0
   -0.5675   -0.1203    0.3102 C   0  0  1  0  0  0  0  0  0  0  0  0
    0.0191   -0.5718    1.1110 H   0  0  0  0  0  0  0  0  0  0  0  0
    0.1724   -0.3238   -1.0286 C   0  0  0  0  0  0  0  0  0  0  0  0
    0.7487   -1.2493   -0.9712 H   0  0  0  0  0  0  0  0  0  0  0  0
   -0.5776   -0.4493   -1.8127 H   0  0  0  0  0  0  0  0  0  0  0  0
    1.1200    0.8144   -1.4497 C   0  0  0  0  0  0  0  0  0  0  0  0
    0.8128    1.2101   -2.4177 H   0  0  0  0  0  0  0  0  0  0  0  0
    1.1431    1.9562   -0.4294 C   0  0  0  0  0  0  0  0  0  0  0  0
    1.4336    1.5726    0.5495 H   0  0  0  0  0  0  0  0  0  0  0  0
    1.8614    2.7141   -0.7428 H   0  0  0  0  0  0  0  0  0  0  0  0
    0.1631    2.4221   -0.3520 H   0  0  0  0  0  0  0  0  0  0  0  0
    2.5435    0.2761   -1.5889 C   0  0  0  0  0  0  0  0  0  0  0  0
    2.5637   -0.5189   -2.3343 H   0  0  0  0  0  0  0  0  0  0  0  0
    3.2114    1.0739   -1.9137 H   0  0  0  0  0  0  0  0  0  0  0  0
    2.8913   -0.1177   -0.6332 H   0  0  0  0  0  0  0  0  0  0  0  0
   -0.7793    1.3659    0.6455 C   0  0  0  0  0  0  0  0  0  0  0  0
   -1.6464    2.0125    0.0623 O   0  0  0  0  0  0  0  0  0  0  0  0
    0.0189    1.9059    1.5756 N   0  0  0  0  0  0  0  0  0  0  0  0
    0.7024    1.3094    2.0137 H   0  0  0  0  0  0  0  0  0  0  0  0
   -0.0451    3.3046    1.9929 C   0  0  0  0  0  0  0  0  0  0  0  0
   -1.0415    3.5286    2.3805 H   0  0  0  0  0  0  0  0  0  0  0  0
    0.6954    3.5023    2.7695 H   0  0  0  0  0  0  0  0  0  0  0  0
    0.1474    3.9536    1.1372 H   0  0  0  0  0  0  0  0  0  0  0  0
  5  6  2  0  0  0  0
  5  7  1  0  0  0  0
  2  3  1  0  0  0  0
  2  4  1  0  0  0  0
  2  5  1  0  0  0  0
  1  2  1  0  0  0  0
 24 25  2  0  0  0  0
 24 26  1  0  0  0  0
 20 21  1  0  0  0  0
 20 22  1  0  0  0  0
 20 23  1  0  0  0  0
 16 17  1  0  0  0  0
 16 18  1  0  0  0  0
 16 19  1  0  0  0  0
 14 15  1  0  0  0  0
 14 16  1  0  0  0  0
 14 20  1  0  0  0  0
 11 12  1  0  0  0  0
 11 13  1  0  0  0  0
 11 14  1  0  0  0  0
  9 10  1  0  0  0  0
  9 11  1  0  0  0  0
  9 24  1  0  0  0  0
  7  8  1  0  0  0  0
  7  9  1  0  0  0  0
 28 29  1  0  0  0  0
 28 30  1  0  0  0  0
 28 31  1  0  0  0  0
 26 27  1  0  0  0  0
 26 28  1  0  0  0  0
M  END
$$$$
default_name
  -OEChem-02102213163D

 31 30  0     1  0  0  0  0  0999 V2000
   -3.5895   -3.5013    1.1082 H   0  0  0  0  0  0  0  0  0  0  0  0
   -3.5145   -2.5363    0.6082 C   0  0  0  0  0  0  0  0  0  0  0  0
   -4.2285   -1.8413    1.0452 H   0  0  0  0  0  0  0  0  0  0  0  0
   -3.7155   -2.6583   -0.4538 H   0  0  0  0  0  0  0  0  0  0  0  0
   -2.1155   -1.9963    0.7922 C   0  0  0  0  0  0  0  0  0  0  0  0
   -1.2875   -2.6383    1.4252 O   0  0  0  0  0  0  0  0  0  0  0  0
   -1.8575   -0.8123    0.2402 N   0  0  0  0  0  0  0  0  0  0  0  0
   -2.6005   -0.3333   -0.2478 H   0  0  0  0  0  0  0  0  0  0  0  0
   -0.5675   -0.1203    0.3102 C   0  0  1  0  0  0  0  0  0  0  0  0
    0.0191   -0.5718    1.1110 H   0  0  0  0  0  0  0  0  0  0  0  0
    0.1724   -0.3238   -1.0286 C   0  0  0  0  0  0  0  0  0  0  0  0
    0.7487   -1.2493   -0.9712 H   0  0  0  0  0  0  0  0  0  0  0  0
   -0.5776   -0.4493   -1.8127 H   0  0  0  0  0  0  0  0  0  0  0  0
    1.1200    0.8144   -1.4497 C   0  0  0  0  0  0  0  0  0  0  0  0
    0.6738    1.3818   -2.2663 H   0  0  0  0  0  0  0  0  0  0  0  0
    1.4305    1.7678   -0.2921 C   0  0  0  0  0  0  0  0  0  0  0  0
    1.8634    1.2113    0.5403 H   0  0  0  0  0  0  0  0  0  0  0  0
    2.1408    2.5263   -0.6217 H   0  0  0  0  0  0  0  0  0  0  0  0
    0.5257    2.2677    0.0470 H   0  0  0  0  0  0  0  0  0  0  0  0
    2.4411    0.2289   -1.9470 C   0  0  0  0  0  0  0  0  0  0  0  0
    2.2539   -0.4311   -2.7940 H   0  0  0  0  0  0  0  0  0  0  0  0
    3.1034    1.0314   -2.2716 H   0  0  0  0  0  0  0  0  0  0  0  0
    2.9249   -0.3369   -1.1500 H   0  0  0  0  0  0  0  0  0  0  0  0
   -0.7793    1.3659    0.6455 C   0  0  0  0  0  0  0  0  0  0  0  0
   -1.6464    2.0125    0.0623 O   0  0  0  0  0  0  0  0  0  0  0  0
    0.0189    1.9059    1.5756 N   0  0  0  0  0  0  0  0  0  0  0  0
    0.7024    1.3094    2.0137 H   0  0  0  0  0  0  0  0  0  0  0  0
   -0.0451    3.3046    1.9929 C   0  0  0  0  0  0  0  0  0  0  0  0
   -1.0415    3.5286    2.3805 H   0  0  0  0  0  0  0  0  0  0  0  0
    0.6954    3.5023    2.7695 H   0  0  0  0  0  0  0  0  0  0  0  0
    0.1474    3.9536    1.1372 H   0  0  0  0  0  0  0  0  0  0  0  0
  5  6  2  0  0  0  0
  5  7  1  0  0  0  0
  2  3  1  0  0  0  0
  2  4  1  0  0  0  0
  2  5  1  0  0  0  0
  1  2  1  0  0  0  0
 24 25  2  0  0  0  0
 24 26  1  0  0  0  0
 20 21  1  0  0  0  0
 20 22  1  0  0  0  0
 20 23  1  0  0  0  0
 16 17  1  0  0  0  0
 16 18  1  0  0  0  0
 16 19  1  0  0  0  0
 14 15  1  0  0  0  0
 14 16  1  0  0  0  0
 14 20  1  0  0  0  0
 11 12  1  0  0  0  0
 11 13  1  0  0  0  0
 11 14  1  0  0  0  0
  9 10  1  0  0  0  0
  9 11  1  0  0  0  0
  9 24  1  0  0  0  0
  7  8  1  0  0  0  0
  7  9  1  0  0  0  0
 28 29  1  0  0  0  0
 28 30  1  0  0  0  0
 28 31  1  0  0  0  0
 26 27  1  0  0  0  0
 26 28  1  0  0  0  0
M  END
$$$$
default_name
  -OEChem-02102213163D

 31 30  0     1  0  0  0  0  0999 V2000
   -3.5895   -3.5013    1.1082 H   0  0  0  0  0  0  0  0  0  0  0  0
   -3.5145   -2.5363    0.6082 C   0  0  0  0  0  0  0  0  0  0  0  0
   -4.2285   -1.8413    1.0452 H   0  0  0  0  0  0  0  0  0  0  0  0
   -3.7155   -2.6583   -0.4538 H   0  0  0  0  0  0  0  0  0  0  0  0
   -2.1155   -1.9963    0.7922 C   0  0  0  0  0  0  0  0  0  0  0  0
   -1.2875   -2.6383    1.4252 O   0  0  0  0  0  0  0  0  0  0  0  0
   -1.8575   -0.8123    0.2402 N   0  0  0  0  0  0  0  0  0  0  0  0
   -2.6005   -0.3333   -0.2478 H   0  0  0  0  0  0  0  0  0  0  0  0
   -0.5675   -0.1203    0.3102 C   0  0  1  0  0  0  0  0  0  0  0  0
    0.0191   -0.5718    1.1110 H   0  0  0  0  0  0  0  0  0  0  0  0
    0.1724   -0.3238   -1.0286 C   0  0  0  0  0  0  0  0  0  0  0  0
    0.7487   -1.2493   -0.9712 H   0  0  0  0  0  0  0  0  0  0  0  0
   -0.5776   -0.4493   -1.8127 H   0  0  0  0  0  0  0  0  0  0  0  0
    1.1200    0.8144   -1.4497 C   0  0  0  0  0  0  0  0  0  0  0  0
    0.5806    1.5335   -2.0661 H   0  0  0  0  0  0  0  0  0  0  0  0
    1.7210    1.5435   -0.2445 C   0  0  0  0  0  0  0  0  0  0  0  0
    2.2512    0.8334    0.3915 H   0  0  0  0  0  0  0  0  0  0  0  0
    2.4206    2.3059   -0.5880 H   0  0  0  0  0  0  0  0  0  0  0  0
    0.9415    2.0294    0.3384 H   0  0  0  0  0  0  0  0  0  0  0  0
    2.2703    0.2476   -2.2809 C   0  0  0  0  0  0  0  0  0  0  0  0
    1.8730   -0.2511   -3.1649 H   0  0  0  0  0  0  0  0  0  0  0  0
    2.9276    1.0550   -2.6035 H   0  0  0  0  0  0  0  0  0  0  0  0
    2.8430   -0.4686   -1.6906 H   0  0  0  0  0  0  0  0  0  0  0  0
   -0.7793    1.3659    0.6455 C   0  0  0  0  0  0  0  0  0  0  0  0
   -1.6464    2.0125    0.0623 O   0  0  0  0  0  0  0  0  0  0  0  0
    0.0189    1.9059    1.5756 N   0  0  0  0  0  0  0  0  0  0  0  0
    0.7024    1.3094    2.0137 H   0  0  0  0  0  0  0  0  0  0  0  0
   -0.0451    3.3046    1.9929 C   0  0  0  0  0  0  0  0  0  0  0  0
   -1.0415    3.5286    2.3805 H   0  0  0  0  0  0  0  0  0  0  0  0
    0.6954    3.5023    2.7695 H   0  0  0  0  0  0  0  0  0  0  0  0
    0.1474    3.9536    1.1372 H   0  0  0  0  0  0  0  0  0  0  0  0
  5  6  2  0  0  0  0
  5  7  1  0  0  0  0
  2  3  1  0  0  0  0
  2  4  1  0  0  0  0
  2  5  1  0  0  0  0
  1  2  1  0  0  0  0
 24 25  2  0  0  0  0
 24 26  1  0  0  0  0
 20 21  1  0  0  0  0
 20 22  1  0  0  0  0
 20 23  1  0  0  0  0
 16 17  1  0  0  0  0
 16 18  1  0  0  0  0
 16 19  1  0  0  0  0
 14 15  1  0  0  0  0
 14 16  1  0  0  0  0
 14 20  1  0  0  0  0
 11 12  1  0  0  0  0
 11 13  1  0  0  0  0
 11 14  1  0  0  0  0
  9 10  1  0  0  0  0
  9 11  1  0  0  0  0
  9 24  1  0  0  0  0
  7  8  1  0  0  0  0
  7  9  1  0  0  0  0
 28 29  1  0  0  0  0
 28 30  1  0  0  0  0
 28 31  1  0  0  0  0
 26 27  1  0  0  0  0
 26 28  1  0  0  0  0
M  END
$$$$
default_name
  -OEChem-02102213163D

 31 30  0     1  0  0  0  0  0999 V2000
   -3.5895   -3.5013    1.1082 H   0  0  0  0  0  0  0  0  0  0  0  0
   -3.5145   -2.5363    0.6082 C   0  0  0  0  0  0  0  0  0  0  0  0
   -4.2285   -1.8413    1.0452 H   0  0  0  0  0  0  0  0  0  0  0  0
   -3.7155   -2.6583   -0.4538 H   0  0  0  0  0  0  0  0  0  0  0  0
   -2.1155   -1.9963    0.7922 C   0  0  0  0  0  0  0  0  0  0  0  0
   -1.2875   -2.6383    1.4252 O   0  0  0  0  0  0  0  0  0  0  0  0
   -1.8575   -0.8123    0.2402 N   0  0  0  0  0  0  0  0  0  0  0  0
   -2.6005   -0.3333   -0.2478 H   0  0  0  0  0  0  0  0  0  0  0  0
   -0.5675   -0.1203    0.3102 C   0  0  1  0  0  0  0  0  0  0  0  0
    0.0191   -0.5718    1.1110 H   0  0  0  0  0  0  0  0  0  0  0  0
    0.1724   -0.3238   -1.0286 C   0  0  0  0  0  0  0  0  0  0  0  0
    0.7487   -1.2493   -0.9712 H   0  0  0  0  0  0  0  0  0  0  0  0
   -0.5776   -0.4493   -1.8127 H   0  0  0  0  0  0  0  0  0  0  0  0
    1.1200    0.8144   -1.4497 C   0  0  0  0  0  0  0  0  0  0  0  0
    0.5396    1.6546   -1.8308 H   0  0  0  0  0  0  0  0  0  0  0  0
    1.9948    1.2988   -0.2898 C   0  0  0  0  0  0  0  0  0  0  0  0
    2.5706    0.4646    0.1135 H   0  0  0  0  0  0  0  0  0  0  0  0
    2.6816    2.0677   -0.6442 H   0  0  0  0  0  0  0  0  0  0  0  0
    1.3819    1.7233    0.5024 H   0  0  0  0  0  0  0  0  0  0  0  0
    2.0428    0.3309   -2.5677 C   0  0  0  0  0  0  0  0  0  0  0  0
    1.4468    0.0088   -3.4216 H   0  0  0  0  0  0  0  0  0  0  0  0
    2.6960    1.1431   -2.8866 H   0  0  0  0  0  0  0  0  0  0  0  0
    2.6511   -0.5040   -2.2181 H   0  0  0  0  0  0  0  0  0  0  0  0
   -0.7793    1.3659    0.6455 C   0  0  0  0  0  0  0  0  0  0  0  0
   -1.6464    2.0125    0.0623 O   0  0  0  0  0  0  0  0  0  0  0  0
    0.0189    1.9059    1.5756 N   0  0  0  0  0  0  0  0  0  0  0  0
    0.7024    1.3094    2.0137 H   0  0  0  0  0  0  0  0  0  0  0  0
   -0.0451    3.3046    1.9929 C   0  0  0  0  0  0  0  0  0  0  0  0
   -1.0415    3.5286    2.3805 H   0  0  0  0  0  0  0  0  0  0  0  0
    0.6954    3.5023    2.7695 H   0  0  0  0  0  0  0  0  0  0  0  0
    0.1474    3.9536    1.1372 H   0  0  0  0  0  0  0  0  0  0  0  0
  5  6  2  0  0  0  0
  5  7  1  0  0  0  0
  2  3  1  0  0  0  0
  2  4  1  0  0  0  0
  2  5  1  0  0  0  0
  1  2  1  0  0  0  0
 24 25  2  0  0  0  0
 24 26  1  0  0  0  0
 20 21  1  0  0  0  0
 20 22  1  0  0  0  0
 20 23  1  0  0  0  0
 16 17  1  0  0  0  0
 16 18  1  0  0  0  0
 16 19  1  0  0  0  0
 14 15  1  0  0  0  0
 14 16  1  0  0  0  0
 14 20  1  0  0  0  0
 11 12  1  0  0  0  0
 11 13  1  0  0  0  0
 11 14  1  0  0  0  0
  9 10  1  0  0  0  0
  9 11  1  0  0  0  0
  9 24  1  0  0  0  0
  7  8  1  0  0  0  0
  7  9  1  0  0  0  0
 28 29  1  0  0  0  0
 28 30  1  0  0  0  0
 28 31  1  0  0  0  0
 26 27  1  0  0  0  0
 26 28  1  0  0  0  0
M  END
$$$$
default_name
  -OEChem-02102213163D

 31 30  0     1  0  0  0  0  0999 V2000
   -3.5895   -3.5013    1.1082 H   0  0  0  0  0  0  0  0  0  0  0  0
   -3.5145   -2.5363    0.6082 C   0  0  0  0  0  0  0  0  0  0  0  0
   -4.2285   -1.8413    1.0452 H   0  0  0  0  0  0  0  0  0  0  0  0
   -3.7155   -2.6583   -0.4538 H   0  0  0  0  0  0  0  0  0  0  0  0
   -2.1155   -1.9963    0.7922 C   0  0  0  0  0  0  0  0  0  0  0  0
   -1.2875   -2.6383    1.4252 O   0  0  0  0  0  0  0  0  0  0  0  0
   -1.8575   -0.8123    0.2402 N   0  0  0  0  0  0  0  0  0  0  0  0
   -2.6005   -0.3333   -0.2478 H   0  0  0  0  0  0  0  0  0  0  0  0
   -0.5675   -0.1203    0.3102 C   0  0  1  0  0  0  0  0  0  0  0  0
    0.0191   -0.5718    1.1110 H   0  0  0  0  0  0  0  0  0  0  0  0
    0.1724   -0.3238   -1.0286 C   0  0  0  0  0  0  0  0  0  0  0  0
    0.7487   -1.2493   -0.9712 H   0  0  0  0  0  0  0  0  0  0  0  0
   -0.5776   -0.4493   -1.8127 H   0  0  0  0  0  0  0  0  0  0  0  0
    1.1200    0.8144   -1.4497 C   0  0  0  0  0  0  0  0  0  0  0  0
    0.5537    1.7370   -1.5764 H   0  0  0  0  0  0  0  0  0  0  0  0
    2.2334    1.0502   -0.4249 C   0  0  0  0  0  0  0  0  0  0  0  0
    2.7998    0.1301   -0.2749 H   0  0  0  0  0  0  0  0  0  0  0  0
    2.9062    1.8282   -0.7862 H   0  0  0  0  0  0  0  0  0  0  0  0
    1.8171    1.3704    0.5278 H   0  0  0  0  0  0  0  0  0  0  0  0
    1.7741    0.4731   -2.7880 C   0  0  0  0  0  0  0  0  0  0  0  0
    1.0044    0.3309   -3.5466 H   0  0  0  0  0  0  0  0  0  0  0  0
    2.4243    1.2897   -3.1018 H   0  0  0  0  0  0  0  0  0  0  0  0
    2.3624   -0.4406   -2.6965 H   0  0  0  0  0  0  0  0  0  0  0  0
   -0.7793    1.3659    0.6455 C   0  0  0  0  0  0  0  0  0  0  0  0
   -1.6464    2.0125    0.0623 O   0  0  0  0  0  0  0  0  0  0  0  0
    0.0189    1.9059    1.5756 N   0  0  0  0  0  0  0  0  0  0  0  0
    0.7024    1.3094    2.0137 H   0  0  0  0  0  0  0  0  0  0  0  0
   -0.0451    3.3046    1.9929 C   0  0  0  0  0  0  0  0  0  0  0  0
   -1.0415    3.5286    2.3805 H   0  0  0  0  0  0  0  0  0  0  0  0
    0.6954    3.5023    2.7695 H   0  0  0  0  0  0  0  0  0  0  0  0
    0.1474    3.9536    1.1372 H   0  0  0  0  0  0  0  0  0  0  0  0
  5  6  2  0  0  0  0
  5  7  1  0  0  0  0
  2  3  1  0  0  0  0
  2  4  1  0  0  0  0
  2  5  1  0  0  0  0
  1  2  1  0  0  0  0
 24 25  2  0  0  0  0
 24 26  1  0  0  0  0
 20 21  1  0  0  0  0
 20 22  1  0  0  0  0
 20 23  1  0  0  0  0
 16 17  1  0  0  0  0
 16 18  1  0  0  0  0
 16 19  1  0  0  0  0
 14 15  1  0  0  0  0
 14 16  1  0  0  0  0
 14 20  1  0  0  0  0
 11 12  1  0  0  0  0
 11 13  1  0  0  0  0
 11 14  1  0  0  0  0
  9 10  1  0  0  0  0
  9 11  1  0  0  0  0
  9 24  1  0  0  0  0
  7  8  1  0  0  0  0
  7  9  1  0  0  0  0
 28 29  1  0  0  0  0
 28 30  1  0  0  0  0
 28 31  1  0  0  0  0
 26 27  1  0  0  0  0
 26 28  1  0  0  0  0
M  END
$$$$
default_name
  -OEChem-02102213163D

 31 30  0     1  0  0  0  0  0999 V2000
   -3.5895   -3.5013    1.1082 H   0  0  0  0  0  0  0  0  0  0  0  0
   -3.5145   -2.5363    0.6082 C   0  0  0  0  0  0  0  0  0  0  0  0
   -4.2285   -1.8413    1.0452 H   0  0  0  0  0  0  0  0  0  0  0  0
   -3.7155   -2.6583   -0.4538 H   0  0  0  0  0  0  0  0  0  0  0  0
   -2.1155   -1.9963    0.7922 C   0  0  0  0  0  0  0  0  0  0  0  0
   -1.2875   -2.6383    1.4252 O   0  0  0  0  0  0  0  0  0  0  0  0
   -1.8575   -0.8123    0.2402 N   0  0  0  0  0  0  0  0  0  0  0  0
   -2.6005   -0.3333   -0.2478 H   0  0  0  0  0  0  0  0  0  0  0  0
   -0.5675   -0.1203    0.3102 C   0  0  1  0  0  0  0  0  0  0  0  0
    0.0191   -0.5718    1.1110 H   0  0  0  0  0  0  0  0  0  0  0  0
    0.1724   -0.3238   -1.0286 C   0  0  0  0  0  0  0  0  0  0  0  0
    0.7487   -1.2493   -0.9712 H   0  0  0  0  0  0  0  0  0  0  0  0
   -0.5776   -0.4493   -1.8127 H   0  0  0  0  0  0  0  0  0  0  0  0
    1.1200    0.8144   -1.4497 C   0  0  0  0  0  0  0  0  0  0  0  0
    0.6218    1.7751   -1.3202 H   0  0  0  0  0  0  0  0  0  0  0  0
    2.4203    0.8147   -0.6406 C   0  0  0  0  0  0  0  0  0  0  0  0
    2.9233   -0.1474   -0.7473 H   0  0  0  0  0  0  0  0  0  0  0  0
    3.0790    1.6036   -1.0046 H   0  0  0  0  0  0  0  0  0  0  0  0
    2.2173    0.9947    0.4128 H   0  0  0  0  0  0  0  0  0  0  0  0
    1.4824    0.6647   -2.9267 C   0  0  0  0  0  0  0  0  0  0  0  0
    0.5760    0.6932   -3.5314 H   0  0  0  0  0  0  0  0  0  0  0  0
    2.1311    1.4848   -3.2342 H   0  0  0  0  0  0  0  0  0  0  0  0
    1.9964   -0.2826   -3.0933 H   0  0  0  0  0  0  0  0  0  0  0  0
   -0.7793    1.3659    0.6455 C   0  0  0  0  0  0  0  0  0  0  0  0
   -1.6464    2.0125    0.0623 O   0  0  0  0  0  0  0  0  0  0  0  0
    0.0189    1.9059    1.5756 N   0  0  0  0  0  0  0  0  0  0  0  0
    0.7024    1.3094    2.0137 H   0  0  0  0  0  0  0  0  0  0  0  0
   -0.0451    3.3046    1.9929 C   0  0  0  0  0  0  0  0  0  0  0  0
   -1.0415    3.5286    2.3805 H   0  0  0  0  0  0  0  0  0  0  0  0
    0.6954    3.5023    2.7695 H   0  0  0  0  0  0  0  0  0  0  0  0
    0.1474    3.9536    1.1372 H   0  0  0  0  0  0  0  0  0  0  0  0
  5  6  2  0  0  0  0
  5  7  1  0  0  0  0
  2  3  1  0  0  0  0
  2  4  1  0  0  0  0
  2  5  1  0  0  0  0
  1  2  1  0  0  0  0
 24 25  2  0  0  0  0
 24 26  1  0  0  0  0
 20 21  1  0  0  0  0
 20 22  1  0  0  0  0
 20 23  1  0  0  0  0
 16 17  1  0  0  0  0
 16 18  1  0  0  0  0
 16 19  1  0  0  0  0
 14 15  1  0  0  0  0
 14 16  1  0  0  0  0
 14 20  1  0  0  0  0
 11 12  1  0  0  0  0
 11 13  1  0  0  0  0
 11 14  1  0  0  0  0
  9 10  1  0  0  0  0
  9 11  1  0  0  0  0
  9 24  1  0  0  0  0
  7  8  1  0  0  0  0
  7  9  1  0  0  0  0
 28 29  1  0  0  0  0
 28 30  1  0  0  0  0
 28 31  1  0  0  0  0
 26 27  1  0  0  0  0
 26 28  1  0  0  0  0
M  END
$$$$
default_name
  -OEChem-02102213163D

 31 30  0     1  0  0  0  0  0999 V2000
   -3.5895   -3.5013    1.1082 H   0  0  0  0  0  0  0  0  0  0  0  0
   -3.5145   -2.5363    0.6082 C   0  0  0  0  0  0  0  0  0  0  0  0
   -4.2285   -1.8413    1.0452 H   0  0  0  0  0  0  0  0  0  0  0  0
   -3.7155   -2.6583   -0.4538 H   0  0  0  0  0  0  0  0  0  0  0  0
   -2.1155   -1.9963    0.7922 C   0  0  0  0  0  0  0  0  0  0  0  0
   -1.2875   -2.6383    1.4252 O   0  0  0  0  0  0  0  0  0  0  0  0
   -1.8575   -0.8123    0.2402 N   0  0  0  0  0  0  0  0  0  0  0  0
   -2.6005   -0.3333   -0.2478 H   0  0  0  0  0  0  0  0  0  0  0  0
   -0.5675   -0.1203    0.3102 C   0  0  1  0  0  0  0  0  0  0  0  0
    0.0191   -0.5718    1.1110 H   0  0  0  0  0  0  0  0  0  0  0  0
    0.1724   -0.3238   -1.0286 C   0  0  0  0  0  0  0  0  0  0  0  0
    0.7487   -1.2493   -0.9712 H   0  0  0  0  0  0  0  0  0  0  0  0
   -0.5776   -0.4493   -1.8127 H   0  0  0  0  0  0  0  0  0  0  0  0
    1.1200    0.8144   -1.4497 C   0  0  0  0  0  0  0  0  0  0  0  0
    0.7392    1.7663   -1.0796 H   0  0  0  0  0  0  0  0  0  0  0  0
    2.5430    0.6084   -0.9223 C   0  0  0  0  0  0  0  0  0  0  0  0
    2.9325   -0.3489   -1.2714 H   0  0  0  0  0  0  0  0  0  0  0  0
    3.1882    1.4091   -1.2844 H   0  0  0  0  0  0  0  0  0  0  0  0
    2.5553    0.6217    0.1654 H   0  0  0  0  0  0  0  0  0  0  0  0
    1.1877    0.8924   -2.9744 C   0  0  0  0  0  0  0  0  0  0  0  0
    0.1907    1.0711   -3.3770 H   0  0  0  0  0  0  0  0  0  0  0  0
    1.8364    1.7152   -3.2750 H   0  0  0  0  0  0  0  0  0  0  0  0
    1.5782   -0.0410   -3.3813 H   0  0  0  0  0  0  0  0  0  0  0  0
   -0.7793    1.3659    0.6455 C   0  0  0  0  0  0  0  0  0  0  0  0
   -1.6464    2.0125    0.0623 O   0  0  0  0  0  0  0  0  0  0  0  0
    0.0189    1.9059    1.5756 N   0  0  0  0  0  0  0  0  0  0  0  0
    0.7024    1.3094    2.0137 H   0  0  0  0  0  0  0  0  0  0  0  0
   -0.0451    3.3046    1.9929 C   0  0  0  0  0  0  0  0  0  0  0  0
   -1.0415    3.5286    2.3805 H   0  0  0  0  0  0  0  0  0  0  0  0
    0.6954    3.5023    2.7695 H   0  0  0  0  0  0  0  0  0  0  0  0
    0.1474    3.9536    1.1372 H   0  0  0  0  0  0  0  0  0  0  0  0
  5  6  2  0  0  0  0
  5  7  1  0  0  0  0
  2  3  1  0  0  0  0
  2  4  1  0  0  0  0
  2  5  1  0  0  0  0
  1  2  1  0  0  0  0
 24 25  2  0  0  0  0
 24 26  1  0  0  0  0
 20 21  1  0  0  0  0
 20 22  1  0  0  0  0
 20 23  1  0  0  0  0
 16 17  1  0  0  0  0
 16 18  1  0  0  0  0
 16 19  1  0  0  0  0
 14 15  1  0  0  0  0
 14 16  1  0  0  0  0
 14 20  1  0  0  0  0
 11 12  1  0  0  0  0
 11 13  1  0  0  0  0
 11 14  1  0  0  0  0
  9 10  1  0  0  0  0
  9 11  1  0  0  0  0
  9 24  1  0  0  0  0
  7  8  1  0  0  0  0
  7  9  1  0  0  0  0
 28 29  1  0  0  0  0
 28 30  1  0  0  0  0
 28 31  1  0  0  0  0
 26 27  1  0  0  0  0
 26 28  1  0  0  0  0
M  END
$$$$
default_name
  -OEChem-02102213163D

 31 30  0     1  0  0  0  0  0999 V2000
   -3.5895   -3.5013    1.1082 H   0  0  0  0  0  0  0  0  0  0  0  0
   -3.5145   -2.5363    0.6082 C   0  0  0  0  0  0  0  0  0  0  0  0
   -4.2285   -1.8413    1.0452 H   0  0  0  0  0  0  0  0  0  0  0  0
   -3.7155   -2.6583   -0.4538 H   0  0  0  0  0  0  0  0  0  0  0  0
   -2.1155   -1.9963    0.7922 C   0  0  0  0  0  0  0  0  0  0  0  0
   -1.2875   -2.6383    1.4252 O   0  0  0  0  0  0  0  0  0  0  0  0
   -1.8575   -0.8123    0.2402 N   0  0  0  0  0  0  0  0  0  0  0  0
   -2.6005   -0.3333   -0.2478 H   0  0  0  0  0  0  0  0  0  0  0  0
   -0.5675   -0.1203    0.3102 C   0  0  1  0  0  0  0  0  0  0  0  0
    0.0191   -0.5718    1.1110 H   0  0  0  0  0  0  0  0  0  0  0  0
    0.1724   -0.3238   -1.0286 C   0  0  0  0  0  0  0  0  0  0  0  0
    0.7487   -1.2493   -0.9712 H   0  0  0  0  0  0  0  0  0  0  0  0
   -0.5776   -0.4493   -1.8127 H   0  0  0  0  0  0  0  0  0  0  0  0
    1.1200    0.8144   -1.4497 C   0  0  0  0  0  0  0  0  0  0  0  0
    0.8981    1.7111   -0.8712 H   0  0  0  0  0  0  0  0  0  0  0  0
    2.5929    0.4453   -1.2508 C   0  0  0  0  0  0  0  0  0  0  0  0
    2.8268   -0.4608   -1.8114 H   0  0  0  0  0  0  0  0  0  0  0  0
    3.2264    1.2582   -1.6065 H   0  0  0  0  0  0  0  0  0  0  0  0
    2.8080    0.2770   -0.1977 H   0  0  0  0  0  0  0  0  0  0  0  0
    0.9100    1.1409   -2.9277 C   0  0  0  0  0  0  0  0  0  0  0  0
   -0.1252    1.4388   -3.0940 H   0  0  0  0  0  0  0  0  0  0  0  0
    1.5601    1.9650   -3.2214 H   0  0  0  0  0  0  0  0  0  0  0  0
    1.1362    0.2679   -3.5411 H   0  0  0  0  0  0  0  0  0  0  0  0
   -0.7793    1.3659    0.6455 C   0  0  0  0  0  0  0  0  0  0  0  0
   -1.6464    2.0125    0.0623 O   0  0  0  0  0  0  0  0  0  0  0  0
    0.0189    1.9059    1.5756 N   0  0  0  0  0  0  0  0  0  0  0  0
    0.7024    1.3094    2.0137 H   0  0  0  0  0  0  0  0  0  0  0  0
   -0.0451    3.3046    1.9929 C   0  0  0  0  0  0  0  0  0  0  0  0
   -1.0415    3.5286    2.3805 H   0  0  0  0  0  0  0  0  0  0  0  0
    0.6954    3.5023    2.7695 H   0  0  0  0  0  0  0  0  0  0  0  0
    0.1474    3.9536    1.1372 H   0  0  0  0  0  0  0  0  0  0  0  0
  5  6  2  0  0  0  0
  5  7  1  0  0  0  0
  2  3  1  0  0  0  0
  2  4  1  0  0  0  0
  2  5  1  0  0  0  0
  1  2  1  0  0  0  0
 24 25  2  0  0  0  0
 24 26  1  0  0  0  0
 20 21  1  0  0  0  0
 20 22  1  0  0  0  0
 20 23  1  0  0  0  0
 16 17  1  0  0  0  0
 16 18  1  0  0  0  0
 16 19  1  0  0  0  0
 14 15  1  0  0  0  0
 14 16  1  0  0  0  0
 14 20  1  0  0  0  0
 11 12  1  0  0  0  0
 11 13  1  0  0  0  0
 11 14  1  0  0  0  0
  9 10  1  0  0  0  0
  9 11  1  0  0  0  0
  9 24  1  0  0  0  0
  7  8  1  0  0  0  0
  7  9  1  0  0  0  0
 28 29  1  0  0  0  0
 28 30  1  0  0  0  0
 28 31  1  0  0  0  0
 26 27  1  0  0  0  0
 26 28  1  0  0  0  0
M  END
$$$$
default_name
  -OEChem-02102213163D

 31 30  0     1  0  0  0  0  0999 V2000
   -3.5895   -3.5013    1.1082 H   0  0  0  0  0  0  0  0  0  0  0  0
   -3.5145   -2.5363    0.6082 C   0  0  0  0  0  0  0  0  0  0  0  0
   -4.2285   -1.8413    1.0452 H   0  0  0  0  0  0  0  0  0  0  0  0
   -3.7155   -2.6583   -0.4538 H   0  0  0  0  0  0  0  0  0  0  0  0
   -2.1155   -1.9963    0.7922 C   0  0  0  0  0  0  0  0  0  0  0  0
   -1.2875   -2.6383    1.4252 O   0  0  0  0  0  0  0  0  0  0  0  0
   -1.8575   -0.8123    0.2402 N   0  0  0  0  0  0  0  0  0  0  0  0
   -2.6005   -0.3333   -0.2478 H   0  0  0  0  0  0  0  0  0  0  0  0
   -0.5675   -0.1203    0.3102 C   0  0  1  0  0  0  0  0  0  0  0  0
    0.0191   -0.5718    1.1110 H   0  0  0  0  0  0  0  0  0  0  0  0
    0.1724   -0.3238   -1.0286 C   0  0  0  0  0  0  0  0  0  0  0  0
    0.7487   -1.2493   -0.9712 H   0  0  0  0  0  0  0  0  0  0  0  0
   -0.5776   -0.4493   -1.8127 H   0  0  0  0  0  0  0  0  0  0  0  0
    1.1200    0.8144   -1.4497 C   0  0  0  0  0  0  0  0  0  0  0  0
    1.0875    1.6134   -0.7090 H   0  0  0  0  0  0  0  0  0  0  0  0
    2.5668    0.3365   -1.6035 C   0  0  0  0  0  0  0  0  0  0  0  0
    2.6136   -0.4753   -2.3307 H   0  0  0  0  0  0  0  0  0  0  0  0
    3.1910    1.1610   -1.9490 H   0  0  0  0  0  0  0  0  0  0  0  0
    2.9583   -0.0160   -0.6517 H   0  0  0  0  0  0  0  0  0  0  0  0
    0.6683    1.3930   -2.7900 C   0  0  0  0  0  0  0  0  0  0  0  0
   -0.3501    1.7712   -2.7016 H   0  0  0  0  0  0  0  0  0  0  0  0
    1.3213    2.2173   -3.0769 H   0  0  0  0  0  0  0  0  0  0  0  0
    0.7006    0.6230   -3.5616 H   0  0  0  0  0  0  0  0  0  0  0  0
   -0.7793    1.3659    0.6455 C   0  0  0  0  0  0  0  0  0  0  0  0
   -1.6464    2.0125    0.0623 O   0  0  0  0  0  0  0  0  0  0  0  0
    0.0189    1.9059    1.5756 N   0  0  0  0  0  0  0  0  0  0  0  0
    0.7024    1.3094    2.0137 H   0  0  0  0  0  0  0  0  0  0  0  0
   -0.0451    3.3046    1.9929 C   0  0  0  0  0  0  0  0  0  0  0  0
   -1.0415    3.5286    2.3805 H   0  0  0  0  0  0  0  0  0  0  0  0
    0.6954    3.5023    2.7695 H   0  0  0  0  0  0  0  0  0  0  0  0
    0.1474    3.9536    1.1372 H   0  0  0  0  0  0  0  0  0  0  0  0
  5  6  2  0  0  0  0
  5  7  1  0  0  0  0
  2  3  1  0  0  0  0
  2  4  1  0  0  0  0
  2  5  1  0  0  0  0
  1  2  1  0  0  0  0
 24 25  2  0  0  0  0
 24 26  1  0  0  0  0
 20 21  1  0  0  0  0
 20 22  1  0  0  0  0
 20 23  1  0  0  0  0
 16 17  1  0  0  0  0
 16 18  1  0  0  0  0
 16 19  1  0  0  0  0
 14 15  1  0  0  0  0
 14 16  1  0  0  0  0
 14 20  1  0  0  0  0
 11 12  1  0  0  0  0
 11 13  1  0  0  0  0
 11 14  1  0  0  0  0
  9 10  1  0  0  0  0
  9 11  1  0  0  0  0
  9 24  1  0  0  0  0
  7  8  1  0  0  0  0
  7  9  1  0  0  0  0
 28 29  1  0  0  0  0
 28 30  1  0  0  0  0
 28 31  1  0  0  0  0
 26 27  1  0  0  0  0
 26 28  1  0  0  0  0
M  END
$$$$
default_name
  -OEChem-02102213163D

 31 30  0     1  0  0  0  0  0999 V2000
   -3.5895   -3.5013    1.1082 H   0  0  0  0  0  0  0  0  0  0  0  0
   -3.5145   -2.5363    0.6082 C   0  0  0  0  0  0  0  0  0  0  0  0
   -4.2285   -1.8413    1.0452 H   0  0  0  0  0  0  0  0  0  0  0  0
   -3.7155   -2.6583   -0.4538 H   0  0  0  0  0  0  0  0  0  0  0  0
   -2.1155   -1.9963    0.7922 C   0  0  0  0  0  0  0  0  0  0  0  0
   -1.2875   -2.6383    1.4252 O   0  0  0  0  0  0  0  0  0  0  0  0
   -1.8575   -0.8123    0.2402 N   0  0  0  0  0  0  0  0  0  0  0  0
   -2.6005   -0.3333   -0.2478 H   0  0  0  0  0  0  0  0  0  0  0  0
   -0.5675   -0.1203    0.3102 C   0  0  1  0  0  0  0  0  0  0  0  0
    0.0191   -0.5718    1.1110 H   0  0  0  0  0  0  0  0  0  0  0  0
    0.1724   -0.3238   -1.0286 C   0  0  0  0  0  0  0  0  0  0  0  0
    0.7487   -1.2493   -0.9712 H   0  0  0  0  0  0  0  0  0  0  0  0
   -0.5776   -0.4493   -1.8127 H   0  0  0  0  0  0  0  0  0  0  0  0
    1.1200    0.8144   -1.4497 C   0  0  0  0  0  0  0  0  0  0  0  0
    1.2946    1.4798   -0.6042 H   0  0  0  0  0  0  0  0  0  0  0  0
    2.4664    0.2895   -1.9566 C   0  0  0  0  0  0  0  0  0  0  0  0
    2.3072   -0.3915   -2.7938 H   0  0  0  0  0  0  0  0  0  0  0  0
    3.0844    1.1241   -2.2885 H   0  0  0  0  0  0  0  0  0  0  0  0
    2.9958   -0.2374   -1.1657 H   0  0  0  0  0  0  0  0  0  0  0  0
    0.4791    1.6318   -2.5705 C   0  0  0  0  0  0  0  0  0  0  0  0
   -0.4688    2.0457   -2.2266 H   0  0  0  0  0  0  0  0  0  0  0  0
    1.1361    2.4549   -2.8514 H   0  0  0  0  0  0  0  0  0  0  0  0
    0.3010    1.0001   -3.4415 H   0  0  0  0  0  0  0  0  0  0  0  0
   -0.7793    1.3659    0.6455 C   0  0  0  0  0  0  0  0  0  0  0  0
   -1.6464    2.0125    0.0623 O   0  0  0  0  0  0  0  0  0  0  0  0
    0.0189    1.9059    1.5756 N   0  0  0  0  0  0  0  0  0  0  0  0
    0.7024    1.3094    2.0137 H   0  0  0  0  0  0  0  0  0  0  0  0
   -0.0451    3.3046    1.9929 C   0  0  0  0  0  0  0  0  0  0  0  0
   -1.0415    3.5286    2.3805 H   0  0  0  0  0  0  0  0  0  0  0  0
    0.6954    3.5023    2.7695 H   0  0  0  0  0  0  0  0  0  0  0  0
    0.1474    3.9536    1.1372 H   0  0  0  0  0  0  0  0  0  0  0  0
  5  6  2  0  0  0  0
  5  7  1  0  0  0  0
  2  3  1  0  0  0  0
  2  4  1  0  0  0  0
  2  5  1  0  0  0  0
  1  2  1  0  0  0  0
 24 25  2  0  0  0  0
 24 26  1  0  0  0  0
 20 21  1  0  0  0  0
 20 22  1  0  0  0  0
 20 23  1  0  0  0  0
 16 17  1  0  0  0  0
 16 18  1  0  0  0  0
 16 19  1  0  0  0  0
 14 15  1  0  0  0  0
 14 16  1  0  0  0  0
 14 20  1  0  0  0  0
 11 12  1  0  0  0  0
 11 13  1  0  0  0  0
 11 14  1  0  0  0  0
  9 10  1  0  0  0  0
  9 11  1  0  0  0  0
  9 24  1  0  0  0  0
  7  8  1  0  0  0  0
  7  9  1  0  0  0  0
 28 29  1  0  0  0  0
 28 30  1  0  0  0  0
 28 31  1  0  0  0  0
 26 27  1  0  0  0  0
 26 28  1  0  0  0  0
M  END
$$$$
default_name
  -OEChem-02102213163D

 31 30  0     1  0  0  0  0  0999 V2000
   -3.5895   -3.5013    1.1082 H   0  0  0  0  0  0  0  0  0  0  0  0
   -3.5145   -2.5363    0.6082 C   0  0  0  0  0  0  0  0  0  0  0  0
   -4.2285   -1.8413    1.0452 H   0  0  0  0  0  0  0  0  0  0  0  0
   -3.7155   -2.6583   -0.4538 H   0  0  0  0  0  0  0  0  0  0  0  0
   -2.1155   -1.9963    0.7922 C   0  0  0  0  0  0  0  0  0  0  0  0
   -1.2875   -2.6383    1.4252 O   0  0  0  0  0  0  0  0  0  0  0  0
   -1.8575   -0.8123    0.2402 N   0  0  0  0  0  0  0  0  0  0  0  0
   -2.6005   -0.3333   -0.2478 H   0  0  0  0  0  0  0  0  0  0  0  0
   -0.5675   -0.1203    0.3102 C   0  0  1  0  0  0  0  0  0  0  0  0
    0.0191   -0.5718    1.1110 H   0  0  0  0  0  0  0  0  0  0  0  0
    0.1724   -0.3238   -1.0286 C   0  0  0  0  0  0  0  0  0  0  0  0
    0.7487   -1.2493   -0.9712 H   0  0  0  0  0  0  0  0  0  0  0  0
   -0.5776   -0.4493   -1.8127 H   0  0  0  0  0  0  0  0  0  0  0  0
    1.1200    0.8144   -1.4497 C   0  0  0  0  0  0  0  0  0  0  0  0
    1.5052    1.3193   -0.5638 H   0  0  0  0  0  0  0  0  0  0  0  0
    2.2986    0.3075   -2.2859 C   0  0  0  0  0  0  0  0  0  0  0  0
    1.9286   -0.2151   -3.1691 H   0  0  0  0  0  0  0  0  0  0  0  0
    2.9138    1.1502   -2.6020 H   0  0  0  0  0  0  0  0  0  0  0  0
    2.9181   -0.3720   -1.7045 H   0  0  0  0  0  0  0  0  0  0  0  0
    0.3551    1.8409   -2.2843 C   0  0  0  0  0  0  0  0  0  0  0  0
   -0.4731    2.2436   -1.7013 H   0  0  0  0  0  0  0  0  0  0  0  0
    1.0171    2.6616   -2.5604 H   0  0  0  0  0  0  0  0  0  0  0  0
   -0.0353    1.3735   -3.1890 H   0  0  0  0  0  0  0  0  0  0  0  0
   -0.7793    1.3659    0.6455 C   0  0  0  0  0  0  0  0  0  0  0  0
   -1.6464    2.0125    0.0623 O   0  0  0  0  0  0  0  0  0  0  0  0
    0.0189    1.9059    1.5756 N   0  0  0  0  0  0  0  0  0  0  0  0
    0.7024    1.3094    2.0137 H   0  0  0  0  0  0  0  0  0  0  0  0
   -0.0451    3.3046    1.9929 C   0  0  0  0  0  0  0  0  0  0  0  0
   -1.0415    3.5286    2.3805 H   0  0  0  0  0  0  0  0  0  0  0  0
    0.6954    3.5023    2.7695 H   0  0  0  0  0  0  0  0  0  0  0  0
    0.1474    3.9536    1.1372 H   0  0  0  0  0  0  0  0  0  0  0  0
  5  6  2  0  0  0  0
  5  7  1  0  0  0  0
  2  3  1  0  0  0  0
  2  4  1  0  0  0  0
  2  5  1  0  0  0  0
  1  2  1  0  0  0  0
 24 25  2  0  0  0  0
 24 26  1  0  0  0  0
 20 21  1  0  0  0  0
 20 22  1  0  0  0  0
 20 23  1  0  0  0  0
 16 17  1  0  0  0  0
 16 18  1  0  0  0  0
 16 19  1  0  0  0  0
 14 15  1  0  0  0  0
 14 16  1  0  0  0  0
 14 20  1  0  0  0  0
 11 12  1  0  0  0  0
 11 13  1  0  0  0  0
 11 14  1  0  0  0  0
  9 10  1  0  0  0  0
  9 11  1  0  0  0  0
  9 24  1  0  0  0  0
  7  8  1  0  0  0  0
  7  9  1  0  0  0  0
 28 29  1  0  0  0  0
 28 30  1  0  0  0  0
 28 31  1  0  0  0  0
 26 27  1  0  0  0  0
 26 28  1  0  0  0  0
M  END
$$$$
default_name
  -OEChem-02102213163D

 31 30  0     1  0  0  0  0  0999 V2000
   -3.5895   -3.5013    1.1082 H   0  0  0  0  0  0  0  0  0  0  0  0
   -3.5145   -2.5363    0.6082 C   0  0  0  0  0  0  0  0  0  0  0  0
   -4.2285   -1.8413    1.0452 H   0  0  0  0  0  0  0  0  0  0  0  0
   -3.7155   -2.6583   -0.4538 H   0  0  0  0  0  0  0  0  0  0  0  0
   -2.1155   -1.9963    0.7922 C   0  0  0  0  0  0  0  0  0  0  0  0
   -1.2875   -2.6383    1.4252 O   0  0  0  0  0  0  0  0  0  0  0  0
   -1.8575   -0.8123    0.2402 N   0  0  0  0  0  0  0  0  0  0  0  0
   -2.6005   -0.3333   -0.2478 H   0  0  0  0  0  0  0  0  0  0  0  0
   -0.5675   -0.1203    0.3102 C   0  0  1  0  0  0  0  0  0  0  0  0
    0.0191   -0.5718    1.1110 H   0  0  0  0  0  0  0  0  0  0  0  0
    0.1724   -0.3238   -1.0286 C   0  0  0  0  0  0  0  0  0  0  0  0
    0.7487   -1.2493   -0.9712 H   0  0  0  0  0  0  0  0  0  0  0  0
   -0.5776   -0.4493   -1.8127 H   0  0  0  0  0  0  0  0  0  0  0  0
    1.1200    0.8144   -1.4497 C   0  0  0  0  0  0  0  0  0  0  0  0
    1.7050    1.1430   -0.5907 H   0  0  0  0  0  0  0  0  0  0  0  0
    2.0747    0.3891   -2.5691 C   0  0  0  0  0  0  0  0  0  0  0  0
    1.5035    0.0419   -3.4311 H   0  0  0  0  0  0  0  0  0  0  0  0
    2.6910    1.2373   -2.8679 H   0  0  0  0  0  0  0  0  0  0  0  0
    2.7303   -0.4107   -2.2316 H   0  0  0  0  0  0  0  0  0  0  0  0
    0.3050    2.0060   -1.9508 C   0  0  0  0  0  0  0  0  0  0  0  0
   -0.3628    2.3514   -1.1616 H   0  0  0  0  0  0  0  0  0  0  0  0
    0.9725    2.8233   -2.2235 H   0  0  0  0  0  0  0  0  0  0  0  0
   -0.2854    1.7178   -2.8213 H   0  0  0  0  0  0  0  0  0  0  0  0
   -0.7793    1.3659    0.6455 C   0  0  0  0  0  0  0  0  0  0  0  0
   -1.6464    2.0125    0.0623 O   0  0  0  0  0  0  0  0  0  0  0  0
    0.0189    1.9059    1.5756 N   0  0  0  0  0  0  0  0  0  0  0  0
    0.7024    1.3094    2.0137 H   0  0  0  0  0  0  0  0  0  0  0  0
   -0.0451    3.3046    1.9929 C   0  0  0  0  0  0  0  0  0  0  0  0
   -1.0415    3.5286    2.3805 H   0  0  0  0  0  0  0  0  0  0  0  0
    0.6954    3.5023    2.7695 H   0  0  0  0  0  0  0  0  0  0  0  0
    0.1474    3.9536    1.1372 H   0  0  0  0  0  0  0  0  0  0  0  0
  5  6  2  0  0  0  0
  5  7  1  0  0  0  0
  2  3  1  0  0  0  0
  2  4  1  0  0  0  0
  2  5  1  0  0  0  0
  1  2  1  0  0  0  0
 24 25  2  0  0  0  0
 24 26  1  0  0  0  0
 20 21  1  0  0  0  0
 20 22  1  0  0  0  0
 20 23  1  0  0  0  0
 16 17  1  0  0  0  0
 16 18  1  0  0  0  0
 16 19  1  0  0  0  0
 14 15  1  0  0  0  0
 14 16  1  0  0  0  0
 14 20  1  0  0  0  0
 11 12  1  0  0  0  0
 11 13  1  0  0  0  0
 11 14  1  0  0  0  0
  9 10  1  0  0  0  0
  9 11  1  0  0  0  0
  9 24  1  0  0  0  0
  7  8  1  0  0  0  0
  7  9  1  0  0  0  0
 28 29  1  0  0  0  0
 28 30  1  0  0  0  0
 28 31  1  0  0  0  0
 26 27  1  0  0  0  0
 26 28  1  0  0  0  0
M  END
$$$$
default_name
  -OEChem-02102213163D

 31 30  0     1  0  0  0  0  0999 V2000
   -3.5895   -3.5013    1.1082 H   0  0  0  0  0  0  0  0  0  0  0  0
   -3.5145   -2.5363    0.6082 C   0  0  0  0  0  0  0  0  0  0  0  0
   -4.2285   -1.8413    1.0452 H   0  0  0  0  0  0  0  0  0  0  0  0
   -3.7155   -2.6583   -0.4538 H   0  0  0  0  0  0  0  0  0  0  0  0
   -2.1155   -1.9963    0.7922 C   0  0  0  0  0  0  0  0  0  0  0  0
   -1.2875   -2.6383    1.4252 O   0  0  0  0  0  0  0  0  0  0  0  0
   -1.8575   -0.8123    0.2402 N   0  0  0  0  0  0  0  0  0  0  0  0
   -2.6005   -0.3333   -0.2478 H   0  0  0  0  0  0  0  0  0  0  0  0
   -0.5675   -0.1203    0.3102 C   0  0  1  0  0  0  0  0  0  0  0  0
    0.0191   -0.5718    1.1110 H   0  0  0  0  0  0  0  0  0  0  0  0
    0.1724   -0.3238   -1.0286 C   0  0  0  0  0  0  0  0  0  0  0  0
    0.5250   -1.3558   -1.0787 H   0  0  0  0  0  0  0  0  0  0  0  0
   -0.5479   -0.1809   -1.8372 H   0  0  0  0  0  0  0  0  0  0  0  0
    1.3686    0.6120   -1.2815 C   0  0  0  0  0  0  0  0  0  0  0  0
    2.1051    0.4910   -0.4871 H   0  0  0  0  0  0  0  0  0  0  0  0
    2.0417    0.3404   -2.6300 C   0  0  0  0  0  0  0  0  0  0  0  0
    1.3126    0.4420   -3.4351 H   0  0  0  0  0  0  0  0  0  0  0  0
    2.8491    1.0557   -2.7880 H   0  0  0  0  0  0  0  0  0  0  0  0
    2.4611   -0.6630   -2.6549 H   0  0  0  0  0  0  0  0  0  0  0  0
    0.8977    2.0658   -1.2726 C   0  0  0  0  0  0  0  0  0  0  0  0
    0.4417    2.2977   -0.3101 H   0  0  0  0  0  0  0  0  0  0  0  0
    1.7473    2.7317   -1.4239 H   0  0  0  0  0  0  0  0  0  0  0  0
    0.1670    2.2289   -2.0656 H   0  0  0  0  0  0  0  0  0  0  0  0
   -0.7793    1.3659    0.6455 C   0  0  0  0  0  0  0  0  0  0  0  0
   -1.6464    2.0125    0.0623 O   0  0  0  0  0  0  0  0  0  0  0  0
    0.0189    1.9059    1.5756 N   0  0  0  0  0  0  0  0  0  0  0  0
    0.7024    1.3094    2.0137 H   0  0  0  0  0  0  0  0  0  0  0  0
   -0.0451    3.3046    1.9929 C   0  0  0  0  0  0  0  0  0  0  0  0
   -1.0415    3.5286    2.3805 H   0  0  0  0  0  0  0  0  0  0  0  0
    0.6954    3.5023    2.7695 H   0  0  0  0  0  0  0  0  0  0  0  0
    0.1474    3.9536    1.1372 H   0  0  0  0  0  0  0  0  0  0  0  0
  5  6  2  0  0  0  0
  5  7  1  0  0  0  0
  2  3  1  0  0  0  0
  2  4  1  0  0  0  0
  2  5  1  0  0  0  0
  1  2  1  0  0  0  0
 24 25  2  0  0  0  0
 24 26  1  0  0  0  0
 20 21  1  0  0  0  0
 20 22  1  0  0  0  0
 20 23  1  0  0  0  0
 16 17  1  0  0  0  0
 16 18  1  0  0  0  0
 16 19  1  0  0  0  0
 14 15  1  0  0  0  0
 14 16  1  0  0  0  0
 14 20  1  0  0  0  0
 11 12  1  0  0  0  0
 11 13  1  0  0  0  0
 11 14  1  0  0  0  0
  9 10  1  0  0  0  0
  9 11  1  0  0  0  0
  9 24  1  0  0  0  0
  7  8  1  0  0  0  0
  7  9  1  0  0  0  0
 28 29  1  0  0  0  0
 28 30  1  0  0  0  0
 28 31  1  0  0  0  0
 26 27  1  0  0  0  0
 26 28  1  0  0  0  0
M  END
$$$$
default_name
  -OEChem-02102213163D

 31 30  0     1  0  0  0  0  0999 V2000
   -3.5895   -3.5013    1.1082 H   0  0  0  0  0  0  0  0  0  0  0  0
   -3.5145   -2.5363    0.6082 C   0  0  0  0  0  0  0  0  0  0  0  0
   -4.2285   -1.8413    1.0452 H   0  0  0  0  0  0  0  0  0  0  0  0
   -3.7155   -2.6583   -0.4538 H   0  0  0  0  0  0  0  0  0  0  0  0
   -2.1155   -1.9963    0.7922 C   0  0  0  0  0  0  0  0  0  0  0  0
   -1.2875   -2.6383    1.4252 O   0  0  0  0  0  0  0  0  0  0  0  0
   -1.8575   -0.8123    0.2402 N   0  0  0  0  0  0  0  0  0  0  0  0
   -2.6005   -0.3333   -0.2478 H   0  0  0  0  0  0  0  0  0  0  0  0
   -0.5675   -0.1203    0.3102 C   0  0  1  0  0  0  0  0  0  0  0  0
    0.0191   -0.5718    1.1110 H   0  0  0  0  0  0  0  0  0  0  0  0
    0.1724   -0.3238   -1.0286 C   0  0  0  0  0  0  0  0  0  0  0  0
    0.5250   -1.3558   -1.0787 H   0  0  0  0  0  0  0  0  0  0  0  0
   -0.5479   -0.1809   -1.8372 H   0  0  0  0  0  0  0  0  0  0  0  0
    1.3686    0.6120   -1.2815 C   0  0  0  0  0  0  0  0  0  0  0  0
    2.2096    0.3117   -0.6564 H   0  0  0  0  0  0  0  0  0  0  0  0
    1.8104    0.6042   -2.7478 C   0  0  0  0  0  0  0  0  0  0  0  0
    0.9740    0.8875   -3.3883 H   0  0  0  0  0  0  0  0  0  0  0  0
    2.6247    1.3151   -2.8897 H   0  0  0  0  0  0  0  0  0  0  0  0
    2.1615   -0.3837   -3.0380 H   0  0  0  0  0  0  0  0  0  0  0  0
    0.9906    2.0452   -0.9094 C   0  0  0  0  0  0  0  0  0  0  0  0
    0.7016    2.0873    0.1407 H   0  0  0  0  0  0  0  0  0  0  0  0
    1.8446    2.7052   -1.0614 H   0  0  0  0  0  0  0  0  0  0  0  0
    0.1580    2.3862   -1.5257 H   0  0  0  0  0  0  0  0  0  0  0  0
   -0.7793    1.3659    0.6455 C   0  0  0  0  0  0  0  0  0  0  0  0
   -1.6464    2.0125    0.0623 O   0  0  0  0  0  0  0  0  0  0  0  0
    0.0189    1.9059    1.5756 N   0  0  0  0  0  0  0  0  0  0  0  0
    0.7024    1.3094    2.0137 H   0  0  0  0  0  0  0  0  0  0  0  0
   -0.0451    3.3046    1.9929 C   0  0  0  0  0  0  0  0  0  0  0  0
   -1.0415    3.5286    2.3805 H   0  0  0  0  0  0  0  0  0  0  0  0
    0.6954    3.5023    2.7695 H   0  0  0  0  0  0  0  0  0  0  0  0
    0.1474    3.9536    1.1372 H   0  0  0  0  0  0  0  0  0  0  0  0
  5  6  2  0  0  0  0
  5  7  1  0  0  0  0
  2  3  1  0  0  0  0
  2  4  1  0  0  0  0
  2  5  1  0  0  0  0
  1  2  1  0  0  0  0
 24 25  2  0  0  0  0
 24 26  1  0  0  0  0
 20 21  1  0  0  0  0
 20 22  1  0  0  0  0
 20 23  1  0  0  0  0
 16 17  1  0  0  0  0
 16 18  1  0  0  0  0
 16 19  1  0  0  0  0
 14 15  1  0  0  0  0
 14 16  1  0  0  0  0
 14 20  1  0  0  0  0
 11 12  1  0  0  0  0
 11 13  1  0  0  0  0
 11 14  1  0  0  0  0
  9 10  1  0  0  0  0
  9 11  1  0  0  0  0
  9 24  1  0  0  0  0
  7  8  1  0  0  0  0
  7  9  1  0  0  0  0
 28 29  1  0  0  0  0
 28 30  1  0  0  0  0
 28 31  1  0  0  0  0
 26 27  1  0  0  0  0
 26 28  1  0  0  0  0
M  END
$$$$
default_name
  -OEChem-02102213163D

 31 30  0     1  0  0  0  0  0999 V2000
   -3.5895   -3.5013    1.1082 H   0  0  0  0  0  0  0  0  0  0  0  0
   -3.5145   -2.5363    0.6082 C   0  0  0  0  0  0  0  0  0  0  0  0
   -4.2285   -1.8413    1.0452 H   0  0  0  0  0  0  0  0  0  0  0  0
   -3.7155   -2.6583   -0.4538 H   0  0  0  0  0  0  0  0  0  0  0  0
   -2.1155   -1.9963    0.7922 C   0  0  0  0  0  0  0  0  0  0  0  0
   -1.2875   -2.6383    1.4252 O   0  0  0  0  0  0  0  0  0  0  0  0
   -1.8575   -0.8123    0.2402 N   0  0  0  0  0  0  0  0  0  0  0  0
   -2.6005   -0.3333   -0.2478 H   0  0  0  0  0  0  0  0  0  0  0  0
   -0.5675   -0.1203    0.3102 C   0  0  1  0  0  0  0  0  0  0  0  0
    0.0191   -0.5718    1.1110 H   0  0  0  0  0  0  0  0  0  0  0  0
    0.1724   -0.3238   -1.0286 C   0  0  0  0  0  0  0  0  0  0  0  0
    0.5250   -1.3558   -1.0787 H   0  0  0  0  0  0  0  0  0  0  0  0
   -0.5479   -0.1809   -1.8372 H   0  0  0  0  0  0  0  0  0  0  0  0
    1.3686    0.6120   -1.2815 C   0  0  0  0  0  0  0  0  0  0  0  0
    2.2762    0.1681   -0.8724 H   0  0  0  0  0  0  0  0  0  0  0  0
    1.5797    0.8926   -2.7722 C   0  0  0  0  0  0  0  0  0  0  0  0
    0.6732    1.3228   -3.2002 H   0  0  0  0  0  0  0  0  0  0  0  0
    2.4029    1.5957   -2.9004 H   0  0  0  0  0  0  0  0  0  0  0  0
    1.8238   -0.0240   -3.3048 H   0  0  0  0  0  0  0  0  0  0  0  0
    1.1366    1.9483   -0.5773 C   0  0  0  0  0  0  0  0  0  0  0  0
    1.0146    1.7824    0.4930 H   0  0  0  0  0  0  0  0  0  0  0  0
    1.9945    2.6027   -0.7318 H   0  0  0  0  0  0  0  0  0  0  0  0
    0.2410    2.4300   -0.9712 H   0  0  0  0  0  0  0  0  0  0  0  0
   -0.7793    1.3659    0.6455 C   0  0  0  0  0  0  0  0  0  0  0  0
   -1.6464    2.0125    0.0623 O   0  0  0  0  0  0  0  0  0  0  0  0
    0.0189    1.9059    1.5756 N   0  0  0  0  0  0  0  0  0  0  0  0
    0.7024    1.3094    2.0137 H   0  0  0  0  0  0  0  0  0  0  0  0
   -0.0451    3.3046    1.9929 C   0  0  0  0  0  0  0  0  0  0  0  0
   -1.0415    3.5286    2.3805 H   0  0  0  0  0  0  0  0  0  0  0  0
    0.6954    3.5023    2.7695 H   0  0  0  0  0  0  0  0  0  0  0  0
    0.1474    3.9536    1.1372 H   0  0  0  0  0  0  0  0  0  0  0  0
  5  6  2  0  0  0  0
  5  7  1  0  0  0  0
  2  3  1  0  0  0  0
  2  4  1  0  0  0  0
  2  5  1  0  0  0  0
  1  2  1  0  0  0  0
 24 25  2  0  0  0  0
 24 26  1  0  0  0  0
 20 21  1  0  0  0  0
 20 22  1  0  0  0  0
 20 23  1  0  0  0  0
 16 17  1  0  0  0  0
 16 18  1  0  0  0  0
 16 19  1  0  0  0  0
 14 15  1  0  0  0  0
 14 16  1  0  0  0  0
 14 20  1  0  0  0  0
 11 12  1  0  0  0  0
 11 13  1  0  0  0  0
 11 14  1  0  0  0  0
  9 10  1  0  0  0  0
  9 11  1  0  0  0  0
  9 24  1  0  0  0  0
  7  8  1  0  0  0  0
  7  9  1  0  0  0  0
 28 29  1  0  0  0  0
 28 30  1  0  0  0  0
 28 31  1  0  0  0  0
 26 27  1  0  0  0  0
 26 28  1  0  0  0  0
M  END
$$$$
default_name
  -OEChem-02102213163D

 31 30  0     1  0  0  0  0  0999 V2000
   -3.5895   -3.5013    1.1082 H   0  0  0  0  0  0  0  0  0  0  0  0
   -3.5145   -2.5363    0.6082 C   0  0  0  0  0  0  0  0  0  0  0  0
   -4.2285   -1.8413    1.0452 H   0  0  0  0  0  0  0  0  0  0  0  0
   -3.7155   -2.6583   -0.4538 H   0  0  0  0  0  0  0  0  0  0  0  0
   -2.1155   -1.9963    0.7922 C   0  0  0  0  0  0  0  0  0  0  0  0
   -1.2875   -2.6383    1.4252 O   0  0  0  0  0  0  0  0  0  0  0  0
   -1.8575   -0.8123    0.2402 N   0  0  0  0  0  0  0  0  0  0  0  0
   -2.6005   -0.3333   -0.2478 H   0  0  0  0  0  0  0  0  0  0  0  0
   -0.5675   -0.1203    0.3102 C   0  0  1  0  0  0  0  0  0  0  0  0
    0.0191   -0.5718    1.1110 H   0  0  0  0  0  0  0  0  0  0  0  0
    0.1724   -0.3238   -1.0286 C   0  0  0  0  0  0  0  0  0  0  0  0
    0.5250   -1.3558   -1.0787 H   0  0  0  0  0  0  0  0  0  0  0  0
   -0.5479   -0.1809   -1.8372 H   0  0  0  0  0  0  0  0  0  0  0  0
    1.3686    0.6120   -1.2815 C   0  0  0  0  0  0  0  0  0  0  0  0
    2.3005    0.0700   -1.1204 H   0  0  0  0  0  0  0  0  0  0  0  0
    1.3652    1.1858   -2.7014 C   0  0  0  0  0  0  0  0  0  0  0  0
    0.4308    1.7182   -2.8836 H   0  0  0  0  0  0  0  0  0  0  0  0
    2.1990    1.8783   -2.8195 H   0  0  0  0  0  0  0  0  0  0  0  0
    1.4709    0.3913   -3.4370 H   0  0  0  0  0  0  0  0  0  0  0  0
    1.3258    1.7817   -0.2990 C   0  0  0  0  0  0  0  0  0  0  0  0
    1.3594    1.4037    0.7228 H   0  0  0  0  0  0  0  0  0  0  0  0
    2.1868    2.4310   -0.4577 H   0  0  0  0  0  0  0  0  0  0  0  0
    0.4102    2.3573   -0.4398 H   0  0  0  0  0  0  0  0  0  0  0  0
   -0.7793    1.3659    0.6455 C   0  0  0  0  0  0  0  0  0  0  0  0
   -1.6464    2.0125    0.0623 O   0  0  0  0  0  0  0  0  0  0  0  0
    0.0189    1.9059    1.5756 N   0  0  0  0  0  0  0  0  0  0  0  0
    0.7024    1.3094    2.0137 H   0  0  0  0  0  0  0  0  0  0  0  0
   -0.0451    3.3046    1.9929 C   0  0  0  0  0  0  0  0  0  0  0  0
   -1.0415    3.5286    2.3805 H   0  0  0  0  0  0  0  0  0  0  0  0
    0.6954    3.5023    2.7695 H   0  0  0  0  0  0  0  0  0  0  0  0
    0.1474    3.9536    1.1372 H   0  0  0  0  0  0  0  0  0  0  0  0
  5  6  2  0  0  0  0
  5  7  1  0  0  0  0
  2  3  1  0  0  0  0
  2  4  1  0  0  0  0
  2  5  1  0  0  0  0
  1  2  1  0  0  0  0
 24 25  2  0  0  0  0
 24 26  1  0  0  0  0
 20 21  1  0  0  0  0
 20 22  1  0  0  0  0
 20 23  1  0  0  0  0
 16 17  1  0  0  0  0
 16 18  1  0  0  0  0
 16 19  1  0  0  0  0
 14 15  1  0  0  0  0
 14 16  1  0  0  0  0
 14 20  1  0  0  0  0
 11 12  1  0  0  0  0
 11 13  1  0  0  0  0
 11 14  1  0  0  0  0
  9 10  1  0  0  0  0
  9 11  1  0  0  0  0
  9 24  1  0  0  0  0
  7  8  1  0  0  0  0
  7  9  1  0  0  0  0
 28 29  1  0  0  0  0
 28 30  1  0  0  0  0
 28 31  1  0  0  0  0
 26 27  1  0  0  0  0
 26 28  1  0  0  0  0
M  END
$$$$
default_name
  -OEChem-02102213163D

 31 30  0     1  0  0  0  0  0999 V2000
   -3.5895   -3.5013    1.1082 H   0  0  0  0  0  0  0  0  0  0  0  0
   -3.5145   -2.5363    0.6082 C   0  0  0  0  0  0  0  0  0  0  0  0
   -4.2285   -1.8413    1.0452 H   0  0  0  0  0  0  0  0  0  0  0  0
   -3.7155   -2.6583   -0.4538 H   0  0  0  0  0  0  0  0  0  0  0  0
   -2.1155   -1.9963    0.7922 C   0  0  0  0  0  0  0  0  0  0  0  0
   -1.2875   -2.6383    1.4252 O   0  0  0  0  0  0  0  0  0  0  0  0
   -1.8575   -0.8123    0.2402 N   0  0  0  0  0  0  0  0  0  0  0  0
   -2.6005   -0.3333   -0.2478 H   0  0  0  0  0  0  0  0  0  0  0  0
   -0.5675   -0.1203    0.3102 C   0  0  1  0  0  0  0  0  0  0  0  0
    0.0191   -0.5718    1.1110 H   0  0  0  0  0  0  0  0  0  0  0  0
    0.1724   -0.3238   -1.0286 C   0  0  0  0  0  0  0  0  0  0  0  0
    0.5250   -1.3558   -1.0787 H   0  0  0  0  0  0  0  0  0  0  0  0
   -0.5479   -0.1809   -1.8372 H   0  0  0  0  0  0  0  0  0  0  0  0
    1.3686    0.6120   -1.2815 C   0  0  0  0  0  0  0  0  0  0  0  0
    2.2808    0.0241   -1.3836 H   0  0  0  0  0  0  0  0  0  0  0  0
    1.1817    1.4639   -2.5403 C   0  0  0  0  0  0  0  0  0  0  0  0
    0.2632    2.0468   -2.4602 H   0  0  0  0  0  0  0  0  0  0  0  0
    2.0267    2.1436   -2.6524 H   0  0  0  0  0  0  0  0  0  0  0  0
    1.1268    0.8341   -3.4257 H   0  0  0  0  0  0  0  0  0  0  0  0
    1.5452    1.5568   -0.0934 C   0  0  0  0  0  0  0  0  0  0  0  0
    1.7125    0.9771    0.8143 H   0  0  0  0  0  0  0  0  0  0  0  0
    2.4083    2.2018   -0.2577 H   0  0  0  0  0  0  0  0  0  0  0  0
    0.6542    2.1730    0.0322 H   0  0  0  0  0  0  0  0  0  0  0  0
   -0.7793    1.3659    0.6455 C   0  0  0  0  0  0  0  0  0  0  0  0
   -1.6464    2.0125    0.0623 O   0  0  0  0  0  0  0  0  0  0  0  0
    0.0189    1.9059    1.5756 N   0  0  0  0  0  0  0  0  0  0  0  0
    0.7024    1.3094    2.0137 H   0  0  0  0  0  0  0  0  0  0  0  0
   -0.0451    3.3046    1.9929 C   0  0  0  0  0  0  0  0  0  0  0  0
   -1.0415    3.5286    2.3805 H   0  0  0  0  0  0  0  0  0  0  0  0
    0.6954    3.5023    2.7695 H   0  0  0  0  0  0  0  0  0  0  0  0
    0.1474    3.9536    1.1372 H   0  0  0  0  0  0  0  0  0  0  0  0
  5  6  2  0  0  0  0
  5  7  1  0  0  0  0
  2  3  1  0  0  0  0
  2  4  1  0  0  0  0
  2  5  1  0  0  0  0
  1  2  1  0  0  0  0
 24 25  2  0  0  0  0
 24 26  1  0  0  0  0
 20 21  1  0  0  0  0
 20 22  1  0  0  0  0
 20 23  1  0  0  0  0
 16 17  1  0  0  0  0
 16 18  1  0  0  0  0
 16 19  1  0  0  0  0
 14 15  1  0  0  0  0
 14 16  1  0  0  0  0
 14 20  1  0  0  0  0
 11 12  1  0  0  0  0
 11 13  1  0  0  0  0
 11 14  1  0  0  0  0
  9 10  1  0  0  0  0
  9 11  1  0  0  0  0
  9 24  1  0  0  0  0
  7  8  1  0  0  0  0
  7  9  1  0  0  0  0
 28 29  1  0  0  0  0
 28 30  1  0  0  0  0
 28 31  1  0  0  0  0
 26 27  1  0  0  0  0
 26 28  1  0  0  0  0
M  END
$$$$
default_name
  -OEChem-02102213163D

 31 30  0     1  0  0  0  0  0999 V2000
   -3.5895   -3.5013    1.1082 H   0  0  0  0  0  0  0  0  0  0  0  0
   -3.5145   -2.5363    0.6082 C   0  0  0  0  0  0  0  0  0  0  0  0
   -4.2285   -1.8413    1.0452 H   0  0  0  0  0  0  0  0  0  0  0  0
   -3.7155   -2.6583   -0.4538 H   0  0  0  0  0  0  0  0  0  0  0  0
   -2.1155   -1.9963    0.7922 C   0  0  0  0  0  0  0  0  0  0  0  0
   -1.2875   -2.6383    1.4252 O   0  0  0  0  0  0  0  0  0  0  0  0
   -1.8575   -0.8123    0.2402 N   0  0  0  0  0  0  0  0  0  0  0  0
   -2.6005   -0.3333   -0.2478 H   0  0  0  0  0  0  0  0  0  0  0  0
   -0.5675   -0.1203    0.3102 C   0  0  1  0  0  0  0  0  0  0  0  0
    0.0191   -0.5718    1.1110 H   0  0  0  0  0  0  0  0  0  0  0  0
    0.1724   -0.3238   -1.0286 C   0  0  0  0  0  0  0  0  0  0  0  0
    0.5250   -1.3558   -1.0787 H   0  0  0  0  0  0  0  0  0  0  0  0
   -0.5479   -0.1809   -1.8372 H   0  0  0  0  0  0  0  0  0  0  0  0
    1.3686    0.6120   -1.2815 C   0  0  0  0  0  0  0  0  0  0  0  0
    2.2184    0.0335   -1.6439 H   0  0  0  0  0  0  0  0  0  0  0  0
    1.0416    1.7079   -2.3000 C   0  0  0  0  0  0  0  0  0  0  0  0
    0.1819    2.2862   -1.9588 H   0  0  0  0  0  0  0  0  0  0  0  0
    1.8979    2.3737   -2.4106 H   0  0  0  0  0  0  0  0  0  0  0  0
    0.8151    1.2742   -3.2716 H   0  0  0  0  0  0  0  0  0  0  0  0
    1.7799    1.2889    0.0254 C   0  0  0  0  0  0  0  0  0  0  0  0
    2.0498    0.5316    0.7614 H   0  0  0  0  0  0  0  0  0  0  0  0
    2.6441    1.9308   -0.1455 H   0  0  0  0  0  0  0  0  0  0  0  0
    0.9562    1.8897    0.4127 H   0  0  0  0  0  0  0  0  0  0  0  0
   -0.7793    1.3659    0.6455 C   0  0  0  0  0  0  0  0  0  0  0  0
   -1.6464    2.0125    0.0623 O   0  0  0  0  0  0  0  0  0  0  0  0
    0.0189    1.9059    1.5756 N   0  0  0  0  0  0  0  0  0  0  0  0
    0.7024    1.3094    2.0137 H   0  0  0  0  0  0  0  0  0  0  0  0
   -0.0451    3.3046    1.9929 C   0  0  0  0  0  0  0  0  0  0  0  0
   -1.0415    3.5286    2.3805 H   0  0  0  0  0  0  0  0  0  0  0  0
    0.6954    3.5023    2.7695 H   0  0  0  0  0  0  0  0  0  0  0  0
    0.1474    3.9536    1.1372 H   0  0  0  0  0  0  0  0  0  0  0  0
  5  6  2  0  0  0  0
  5  7  1  0  0  0  0
  2  3  1  0  0  0  0
  2  4  1  0  0  0  0
  2  5  1  0  0  0  0
  1  2  1  0  0  0  0
 24 25  2  0  0  0  0
 24 26  1  0  0  0  0
 20 21  1  0  0  0  0
 20 22  1  0  0  0  0
 20 23  1  0  0  0  0
 16 17  1  0  0  0  0
 16 18  1  0  0  0  0
 16 19  1  0  0  0  0
 14 15  1  0  0  0  0
 14 16  1  0  0  0  0
 14 20  1  0  0  0  0
 11 12  1  0  0  0  0
 11 13  1  0  0  0  0
 11 14  1  0  0  0  0
  9 10  1  0  0  0  0
  9 11  1  0  0  0  0
  9 24  1  0  0  0  0
  7  8  1  0  0  0  0
  7  9  1  0  0  0  0
 28 29  1  0  0  0  0
 28 30  1  0  0  0  0
 28 31  1  0  0  0  0
 26 27  1  0  0  0  0
 26 28  1  0  0  0  0
M  END
$$$$
default_name
  -OEChem-02102213163D

 31 30  0     1  0  0  0  0  0999 V2000
   -3.5895   -3.5013    1.1082 H   0  0  0  0  0  0  0  0  0  0  0  0
   -3.5145   -2.5363    0.6082 C   0  0  0  0  0  0  0  0  0  0  0  0
   -4.2285   -1.8413    1.0452 H   0  0  0  0  0  0  0  0  0  0  0  0
   -3.7155   -2.6583   -0.4538 H   0  0  0  0  0  0  0  0  0  0  0  0
   -2.1155   -1.9963    0.7922 C   0  0  0  0  0  0  0  0  0  0  0  0
   -1.2875   -2.6383    1.4252 O   0  0  0  0  0  0  0  0  0  0  0  0
   -1.8575   -0.8123    0.2402 N   0  0  0  0  0  0  0  0  0  0  0  0
   -2.6005   -0.3333   -0.2478 H   0  0  0  0  0  0  0  0  0  0  0  0
   -0.5675   -0.1203    0.3102 C   0  0  1  0  0  0  0  0  0  0  0  0
    0.0191   -0.5718    1.1110 H   0  0  0  0  0  0  0  0  0  0  0  0
    0.1724   -0.3238   -1.0286 C   0  0  0  0  0  0  0  0  0  0  0  0
    0.5250   -1.3558   -1.0787 H   0  0  0  0  0  0  0  0  0  0  0  0
   -0.5479   -0.1809   -1.8372 H   0  0  0  0  0  0  0  0  0  0  0  0
    1.3686    0.6120   -1.2815 C   0  0  0  0  0  0  0  0  0  0  0  0
    2.1176    0.0976   -1.8836 H   0  0  0  0  0  0  0  0  0  0  0  0
    0.9545    1.9013   -1.9967 C   0  0  0  0  0  0  0  0  0  0  0  0
    0.1924    2.4201   -1.4135 H   0  0  0  0  0  0  0  0  0  0  0  0
    1.8212    2.5527   -2.1105 H   0  0  0  0  0  0  0  0  0  0  0  0
    0.5570    1.6816   -2.9853 H   0  0  0  0  0  0  0  0  0  0  0  0
    2.0139    0.9962    0.0494 C   0  0  0  0  0  0  0  0  0  0  0  0
    2.3484    0.0976    0.5677 H   0  0  0  0  0  0  0  0  0  0  0  0
    2.8779    1.6365   -0.1286 H   0  0  0  0  0  0  0  0  0  0  0  0
    1.2958    1.5267    0.6758 H   0  0  0  0  0  0  0  0  0  0  0  0
   -0.7793    1.3659    0.6455 C   0  0  0  0  0  0  0  0  0  0  0  0
   -1.6464    2.0125    0.0623 O   0  0  0  0  0  0  0  0  0  0  0  0
    0.0189    1.9059    1.5756 N   0  0  0  0  0  0  0  0  0  0  0  0
    0.7024    1.3094    2.0137 H   0  0  0  0  0  0  0  0  0  0  0  0
   -0.0451    3.3046    1.9929 C   0  0  0  0  0  0  0  0  0  0  0  0
   -1.0415    3.5286    2.3805 H   0  0  0  0  0  0  0  0  0  0  0  0
    0.6954    3.5023    2.7695 H   0  0  0  0  0  0  0  0  0  0  0  0
    0.1474    3.9536    1.1372 H   0  0  0  0  0  0  0  0  0  0  0  0
  5  6  2  0  0  0  0
  5  7  1  0  0  0  0
  2  3  1  0  0  0  0
  2  4  1  0  0  0  0
  2  5  1  0  0  0  0
  1  2  1  0  0  0  0
 24 25  2  0  0  0  0
 24 26  1  0  0  0  0
 20 21  1  0  0  0  0
 20 22  1  0  0  0  0
 20 23  1  0  0  0  0
 16 17  1  0  0  0  0
 16 18  1  0  0  0  0
 16 19  1  0  0  0  0
 14 15  1  0  0  0  0
 14 16  1  0  0  0  0
 14 20  1  0  0  0  0
 11 12  1  0  0  0  0
 11 13  1  0  0  0  0
 11 14  1  0  0  0  0
  9 10  1  0  0  0  0
  9 11  1  0  0  0  0
  9 24  1  0  0  0  0
  7  8  1  0  0  0  0
  7  9  1  0  0  0  0
 28 29  1  0  0  0  0
 28 30  1  0  0  0  0
 28 31  1  0  0  0  0
 26 27  1  0  0  0  0
 26 28  1  0  0  0  0
M  END
$$$$
default_name
  -OEChem-02102213163D

 31 30  0     1  0  0  0  0  0999 V2000
   -3.5895   -3.5013    1.1082 H   0  0  0  0  0  0  0  0  0  0  0  0
   -3.5145   -2.5363    0.6082 C   0  0  0  0  0  0  0  0  0  0  0  0
   -4.2285   -1.8413    1.0452 H   0  0  0  0  0  0  0  0  0  0  0  0
   -3.7155   -2.6583   -0.4538 H   0  0  0  0  0  0  0  0  0  0  0  0
   -2.1155   -1.9963    0.7922 C   0  0  0  0  0  0  0  0  0  0  0  0
   -1.2875   -2.6383    1.4252 O   0  0  0  0  0  0  0  0  0  0  0  0
   -1.8575   -0.8123    0.2402 N   0  0  0  0  0  0  0  0  0  0  0  0
   -2.6005   -0.3333   -0.2478 H   0  0  0  0  0  0  0  0  0  0  0  0
   -0.5675   -0.1203    0.3102 C   0  0  1  0  0  0  0  0  0  0  0  0
    0.0191   -0.5718    1.1110 H   0  0  0  0  0  0  0  0  0  0  0  0
    0.1724   -0.3238   -1.0286 C   0  0  0  0  0  0  0  0  0  0  0  0
    0.5250   -1.3558   -1.0787 H   0  0  0  0  0  0  0  0  0  0  0  0
   -0.5479   -0.1809   -1.8372 H   0  0  0  0  0  0  0  0  0  0  0  0
    1.3686    0.6120   -1.2815 C   0  0  0  0  0  0  0  0  0  0  0  0
    1.9853    0.2120   -2.0864 H   0  0  0  0  0  0  0  0  0  0  0  0
    0.9262    2.0308   -1.6512 C   0  0  0  0  0  0  0  0  0  0  0  0
    0.2941    2.4393   -0.8616 H   0  0  0  0  0  0  0  0  0  0  0  0
    1.8021    2.6686   -1.7725 H   0  0  0  0  0  0  0  0  0  0  0  0
    0.3700    2.0284   -2.5861 H   0  0  0  0  0  0  0  0  0  0  0  0
    2.2313    0.6988   -0.0231 C   0  0  0  0  0  0  0  0  0  0  0  0
    2.5879   -0.2954    0.2463 H   0  0  0  0  0  0  0  0  0  0  0  0
    3.0939    1.3389   -0.2083 H   0  0  0  0  0  0  0  0  0  0  0  0
    1.6498    1.1087    0.8035 H   0  0  0  0  0  0  0  0  0  0  0  0
   -0.7793    1.3659    0.6455 C   0  0  0  0  0  0  0  0  0  0  0  0
   -1.6464    2.0125    0.0623 O   0  0  0  0  0  0  0  0  0  0  0  0
    0.0189    1.9059    1.5756 N   0  0  0  0  0  0  0  0  0  0  0  0
    0.7024    1.3094    2.0137 H   0  0  0  0  0  0  0  0  0  0  0  0
   -0.0451    3.3046    1.9929 C   0  0  0  0  0  0  0  0  0  0  0  0
   -1.0415    3.5286    2.3805 H   0  0  0  0  0  0  0  0  0  0  0  0
    0.6954    3.5023    2.7695 H   0  0  0  0  0  0  0  0  0  0  0  0
    0.1474    3.9536    1.1372 H   0  0  0  0  0  0  0  0  0  0  0  0
  5  6  2  0  0  0  0
  5  7  1  0  0  0  0
  2  3  1  0  0  0  0
  2  4  1  0  0  0  0
  2  5  1  0  0  0  0
  1  2  1  0  0  0  0
 24 25  2  0  0  0  0
 24 26  1  0  0  0  0
 20 21  1  0  0  0  0
 20 22  1  0  0  0  0
 20 23  1  0  0  0  0
 16 17  1  0  0  0  0
 16 18  1  0  0  0  0
 16 19  1  0  0  0  0
 14 15  1  0  0  0  0
 14 16  1  0  0  0  0
 14 20  1  0  0  0  0
 11 12  1  0  0  0  0
 11 13  1  0  0  0  0
 11 14  1  0  0  0  0
  9 10  1  0  0  0  0
  9 11  1  0  0  0  0
  9 24  1  0  0  0  0
  7  8  1  0  0  0  0
  7  9  1  0  0  0  0
 28 29  1  0  0  0  0
 28 30  1  0  0  0  0
 28 31  1  0  0  0  0
 26 27  1  0  0  0  0
 26 28  1  0  0  0  0
M  END
$$$$
default_name
  -OEChem-02102213163D

 31 30  0     1  0  0  0  0  0999 V2000
   -3.5895   -3.5013    1.1082 H   0  0  0  0  0  0  0  0  0  0  0  0
   -3.5145   -2.5363    0.6082 C   0  0  0  0  0  0  0  0  0  0  0  0
   -4.2285   -1.8413    1.0452 H   0  0  0  0  0  0  0  0  0  0  0  0
   -3.7155   -2.6583   -0.4538 H   0  0  0  0  0  0  0  0  0  0  0  0
   -2.1155   -1.9963    0.7922 C   0  0  0  0  0  0  0  0  0  0  0  0
   -1.2875   -2.6383    1.4252 O   0  0  0  0  0  0  0  0  0  0  0  0
   -1.8575   -0.8123    0.2402 N   0  0  0  0  0  0  0  0  0  0  0  0
   -2.6005   -0.3333   -0.2478 H   0  0  0  0  0  0  0  0  0  0  0  0
   -0.5675   -0.1203    0.3102 C   0  0  1  0  0  0  0  0  0  0  0  0
    0.0191   -0.5718    1.1110 H   0  0  0  0  0  0  0  0  0  0  0  0
    0.1724   -0.3238   -1.0286 C   0  0  0  0  0  0  0  0  0  0  0  0
    0.5250   -1.3558   -1.0787 H   0  0  0  0  0  0  0  0  0  0  0  0
   -0.5479   -0.1809   -1.8372 H   0  0  0  0  0  0  0  0  0  0  0  0
    1.3686    0.6120   -1.2815 C   0  0  0  0  0  0  0  0  0  0  0  0
    1.8304    0.3689   -2.2385 H   0  0  0  0  0  0  0  0  0  0  0  0
    0.9588    2.0876   -1.2870 C   0  0  0  0  0  0  0  0  0  0  0  0
    0.4799    2.3426   -0.3406 H   0  0  0  0  0  0  0  0  0  0  0  0
    1.8416    2.7133   -1.4198 H   0  0  0  0  0  0  0  0  0  0  0  0
    0.2670    2.2911   -2.1015 H   0  0  0  0  0  0  0  0  0  0  0  0
    2.4172    0.4168   -0.1871 C   0  0  0  0  0  0  0  0  0  0  0  0
    2.7520   -0.6205   -0.1808 H   0  0  0  0  0  0  0  0  0  0  0  0
    3.2773    1.0582   -0.3791 H   0  0  0  0  0  0  0  0  0  0  0  0
    1.9940    0.6643    0.7871 H   0  0  0  0  0  0  0  0  0  0  0  0
   -0.7793    1.3659    0.6455 C   0  0  0  0  0  0  0  0  0  0  0  0
   -1.6464    2.0125    0.0623 O   0  0  0  0  0  0  0  0  0  0  0  0
    0.0189    1.9059    1.5756 N   0  0  0  0  0  0  0  0  0  0  0  0
    0.7024    1.3094    2.0137 H   0  0  0  0  0  0  0  0  0  0  0  0
   -0.0451    3.3046    1.9929 C   0  0  0  0  0  0  0  0  0  0  0  0
   -1.0415    3.5286    2.3805 H   0  0  0  0  0  0  0  0  0  0  0  0
    0.6954    3.5023    2.7695 H   0  0  0  0  0  0  0  0  0  0  0  0
    0.1474    3.9536    1.1372 H   0  0  0  0  0  0  0  0  0  0  0  0
  5  6  2  0  0  0  0
  5  7  1  0  0  0  0
  2  3  1  0  0  0  0
  2  4  1  0  0  0  0
  2  5  1  0  0  0  0
  1  2  1  0  0  0  0
 24 25  2  0  0  0  0
 24 26  1  0  0  0  0
 20 21  1  0  0  0  0
 20 22  1  0  0  0  0
 20 23  1  0  0  0  0
 16 17  1  0  0  0  0
 16 18  1  0  0  0  0
 16 19  1  0  0  0  0
 14 15  1  0  0  0  0
 14 16  1  0  0  0  0
 14 20  1  0  0  0  0
 11 12  1  0  0  0  0
 11 13  1  0  0  0  0
 11 14  1  0  0  0  0
  9 10  1  0  0  0  0
  9 11  1  0  0  0  0
  9 24  1  0  0  0  0
  7  8  1  0  0  0  0
  7  9  1  0  0  0  0
 28 29  1  0  0  0  0
 28 30  1  0  0  0  0
 28 31  1  0  0  0  0
 26 27  1  0  0  0  0
 26 28  1  0  0  0  0
M  END
$$$$
default_name
  -OEChem-02102213163D

 31 30  0     1  0  0  0  0  0999 V2000
   -3.5895   -3.5013    1.1082 H   0  0  0  0  0  0  0  0  0  0  0  0
   -3.5145   -2.5363    0.6082 C   0  0  0  0  0  0  0  0  0  0  0  0
   -4.2285   -1.8413    1.0452 H   0  0  0  0  0  0  0  0  0  0  0  0
   -3.7155   -2.6583   -0.4538 H   0  0  0  0  0  0  0  0  0  0  0  0
   -2.1155   -1.9963    0.7922 C   0  0  0  0  0  0  0  0  0  0  0  0
   -1.2875   -2.6383    1.4252 O   0  0  0  0  0  0  0  0  0  0  0  0
   -1.8575   -0.8123    0.2402 N   0  0  0  0  0  0  0  0  0  0  0  0
   -2.6005   -0.3333   -0.2478 H   0  0  0  0  0  0  0  0  0  0  0  0
   -0.5675   -0.1203    0.3102 C   0  0  1  0  0  0  0  0  0  0  0  0
    0.0191   -0.5718    1.1110 H   0  0  0  0  0  0  0  0  0  0  0  0
    0.1724   -0.3238   -1.0286 C   0  0  0  0  0  0  0  0  0  0  0  0
    0.5250   -1.3558   -1.0787 H   0  0  0  0  0  0  0  0  0  0  0  0
   -0.5479   -0.1809   -1.8372 H   0  0  0  0  0  0  0  0  0  0  0  0
    1.3686    0.6120   -1.2815 C   0  0  0  0  0  0  0  0  0  0  0  0
    1.6635    0.5576   -2.3295 H   0  0  0  0  0  0  0  0  0  0  0  0
    1.0499    2.0678   -0.9288 C   0  0  0  0  0  0  0  0  0  0  0  0
    0.7372    2.1365    0.1140 H   0  0  0  0  0  0  0  0  0  0  0  0
    1.9372    2.6840   -1.0763 H   0  0  0  0  0  0  0  0  0  0  0  0
    0.2548    2.4518   -1.5643 H   0  0  0  0  0  0  0  0  0  0  0  0
    2.5590    0.1695   -0.4315 C   0  0  0  0  0  0  0  0  0  0  0  0
    2.8294   -0.8556   -0.6846 H   0  0  0  0  0  0  0  0  0  0  0  0
    3.4157    0.8137   -0.6294 H   0  0  0  0  0  0  0  0  0  0  0  0
    2.3051    0.2237    0.6277 H   0  0  0  0  0  0  0  0  0  0  0  0
   -0.7793    1.3659    0.6455 C   0  0  0  0  0  0  0  0  0  0  0  0
   -1.6464    2.0125    0.0623 O   0  0  0  0  0  0  0  0  0  0  0  0
    0.0189    1.9059    1.5756 N   0  0  0  0  0  0  0  0  0  0  0  0
    0.7024    1.3094    2.0137 H   0  0  0  0  0  0  0  0  0  0  0  0
   -0.0451    3.3046    1.9929 C   0  0  0  0  0  0  0  0  0  0  0  0
   -1.0415    3.5286    2.3805 H   0  0  0  0  0  0  0  0  0  0  0  0
    0.6954    3.5023    2.7695 H   0  0  0  0  0  0  0  0  0  0  0  0
    0.1474    3.9536    1.1372 H   0  0  0  0  0  0  0  0  0  0  0  0
  5  6  2  0  0  0  0
  5  7  1  0  0  0  0
  2  3  1  0  0  0  0
  2  4  1  0  0  0  0
  2  5  1  0  0  0  0
  1  2  1  0  0  0  0
 24 25  2  0  0  0  0
 24 26  1  0  0  0  0
 20 21  1  0  0  0  0
 20 22  1  0  0  0  0
 20 23  1  0  0  0  0
 16 17  1  0  0  0  0
 16 18  1  0  0  0  0
 16 19  1  0  0  0  0
 14 15  1  0  0  0  0
 14 16  1  0  0  0  0
 14 20  1  0  0  0  0
 11 12  1  0  0  0  0
 11 13  1  0  0  0  0
 11 14  1  0  0  0  0
  9 10  1  0  0  0  0
  9 11  1  0  0  0  0
  9 24  1  0  0  0  0
  7  8  1  0  0  0  0
  7  9  1  0  0  0  0
 28 29  1  0  0  0  0
 28 30  1  0  0  0  0
 28 31  1  0  0  0  0
 26 27  1  0  0  0  0
 26 28  1  0  0  0  0
M  END
$$$$
default_name
  -OEChem-02102213163D

 31 30  0     1  0  0  0  0  0999 V2000
   -3.5895   -3.5013    1.1082 H   0  0  0  0  0  0  0  0  0  0  0  0
   -3.5145   -2.5363    0.6082 C   0  0  0  0  0  0  0  0  0  0  0  0
   -4.2285   -1.8413    1.0452 H   0  0  0  0  0  0  0  0  0  0  0  0
   -3.7155   -2.6583   -0.4538 H   0  0  0  0  0  0  0  0  0  0  0  0
   -2.1155   -1.9963    0.7922 C   0  0  0  0  0  0  0  0  0  0  0  0
   -1.2875   -2.6383    1.4252 O   0  0  0  0  0  0  0  0  0  0  0  0
   -1.8575   -0.8123    0.2402 N   0  0  0  0  0  0  0  0  0  0  0  0
   -2.6005   -0.3333   -0.2478 H   0  0  0  0  0  0  0  0  0  0  0  0
   -0.5675   -0.1203    0.3102 C   0  0  1  0  0  0  0  0  0  0  0  0
    0.0191   -0.5718    1.1110 H   0  0  0  0  0  0  0  0  0  0  0  0
    0.1724   -0.3238   -1.0286 C   0  0  0  0  0  0  0  0  0  0  0  0
    0.5250   -1.3558   -1.0787 H   0  0  0  0  0  0  0  0  0  0  0  0
   -0.5479   -0.1809   -1.8372 H   0  0  0  0  0  0  0  0  0  0  0  0
    1.3686    0.6120   -1.2815 C   0  0  0  0  0  0  0  0  0  0  0  0
    1.4960    0.7652   -2.3532 H   0  0  0  0  0  0  0  0  0  0  0  0
    1.1935    1.9728   -0.6012 C   0  0  0  0  0  0  0  0  0  0  0  0
    1.0485    1.8350    0.4711 H   0  0  0  0  0  0  0  0  0  0  0  0
    2.0823    2.5825   -0.7654 H   0  0  0  0  0  0  0  0  0  0  0  0
    0.3344    2.4995   -1.0111 H   0  0  0  0  0  0  0  0  0  0  0  0
    2.6470   -0.0263   -0.7396 C   0  0  0  0  0  0  0  0  0  0  0  0
    2.8150   -0.9847   -1.2307 H   0  0  0  0  0  0  0  0  0  0  0  0
    3.4997    0.6219   -0.9421 H   0  0  0  0  0  0  0  0  0  0  0  0
    2.5617   -0.1831    0.3363 H   0  0  0  0  0  0  0  0  0  0  0  0
   -0.7793    1.3659    0.6455 C   0  0  0  0  0  0  0  0  0  0  0  0
   -1.6464    2.0125    0.0623 O   0  0  0  0  0  0  0  0  0  0  0  0
    0.0189    1.9059    1.5756 N   0  0  0  0  0  0  0  0  0  0  0  0
    0.7024    1.3094    2.0137 H   0  0  0  0  0  0  0  0  0  0  0  0
   -0.0451    3.3046    1.9929 C   0  0  0  0  0  0  0  0  0  0  0  0
   -1.0415    3.5286    2.3805 H   0  0  0  0  0  0  0  0  0  0  0  0
    0.6954    3.5023    2.7695 H   0  0  0  0  0  0  0  0  0  0  0  0
    0.1474    3.9536    1.1372 H   0  0  0  0  0  0  0  0  0  0  0  0
  5  6  2  0  0  0  0
  5  7  1  0  0  0  0
  2  3  1  0  0  0  0
  2  4  1  0  0  0  0
  2  5  1  0  0  0  0
  1  2  1  0  0  0  0
 24 25  2  0  0  0  0
 24 26  1  0  0  0  0
 20 21  1  0  0  0  0
 20 22  1  0  0  0  0
 20 23  1  0  0  0  0
 16 17  1  0  0  0  0
 16 18  1  0  0  0  0
 16 19  1  0  0  0  0
 14 15  1  0  0  0  0
 14 16  1  0  0  0  0
 14 20  1  0  0  0  0
 11 12  1  0  0  0  0
 11 13  1  0  0  0  0
 11 14  1  0  0  0  0
  9 10  1  0  0  0  0
  9 11  1  0  0  0  0
  9 24  1  0  0  0  0
  7  8  1  0  0  0  0
  7  9  1  0  0  0  0
 28 29  1  0  0  0  0
 28 30  1  0  0  0  0
 28 31  1  0  0  0  0
 26 27  1  0  0  0  0
 26 28  1  0  0  0  0
M  END
$$$$
default_name
  -OEChem-02102213163D

 31 30  0     1  0  0  0  0  0999 V2000
   -3.5895   -3.5013    1.1082 H   0  0  0  0  0  0  0  0  0  0  0  0
   -3.5145   -2.5363    0.6082 C   0  0  0  0  0  0  0  0  0  0  0  0
   -4.2285   -1.8413    1.0452 H   0  0  0  0  0  0  0  0  0  0  0  0
   -3.7155   -2.6583   -0.4538 H   0  0  0  0  0  0  0  0  0  0  0  0
   -2.1155   -1.9963    0.7922 C   0  0  0  0  0  0  0  0  0  0  0  0
   -1.2875   -2.6383    1.4252 O   0  0  0  0  0  0  0  0  0  0  0  0
   -1.8575   -0.8123    0.2402 N   0  0  0  0  0  0  0  0  0  0  0  0
   -2.6005   -0.3333   -0.2478 H   0  0  0  0  0  0  0  0  0  0  0  0
   -0.5675   -0.1203    0.3102 C   0  0  1  0  0  0  0  0  0  0  0  0
    0.0191   -0.5718    1.1110 H   0  0  0  0  0  0  0  0  0  0  0  0
    0.1724   -0.3238   -1.0286 C   0  0  0  0  0  0  0  0  0  0  0  0
    0.5250   -1.3558   -1.0787 H   0  0  0  0  0  0  0  0  0  0  0  0
   -0.5479   -0.1809   -1.8372 H   0  0  0  0  0  0  0  0  0  0  0  0
    1.3686    0.6120   -1.2815 C   0  0  0  0  0  0  0  0  0  0  0  0
    1.3394    0.9777   -2.3079 H   0  0  0  0  0  0  0  0  0  0  0  0
    1.3797    1.8091   -0.3265 C   0  0  0  0  0  0  0  0  0  0  0  0
    1.3926    1.4588    0.7065 H   0  0  0  0  0  0  0  0  0  0  0  0
    2.2671    2.4157   -0.5084 H   0  0  0  0  0  0  0  0  0  0  0  0
    0.5004    2.4310   -0.4798 H   0  0  0  0  0  0  0  0  0  0  0  0
    2.6753   -0.1571   -1.0904 C   0  0  0  0  0  0  0  0  0  0  0  0
    2.7097   -0.9990   -1.7818 H   0  0  0  0  0  0  0  0  0  0  0  0
    3.5234    0.4960   -1.2959 H   0  0  0  0  0  0  0  0  0  0  0  0
    2.7464   -0.5284   -0.0674 H   0  0  0  0  0  0  0  0  0  0  0  0
   -0.7793    1.3659    0.6455 C   0  0  0  0  0  0  0  0  0  0  0  0
   -1.6464    2.0125    0.0623 O   0  0  0  0  0  0  0  0  0  0  0  0
    0.0189    1.9059    1.5756 N   0  0  0  0  0  0  0  0  0  0  0  0
    0.7024    1.3094    2.0137 H   0  0  0  0  0  0  0  0  0  0  0  0
   -0.0451    3.3046    1.9929 C   0  0  0  0  0  0  0  0  0  0  0  0
   -1.0415    3.5286    2.3805 H   0  0  0  0  0  0  0  0  0  0  0  0
    0.6954    3.5023    2.7695 H   0  0  0  0  0  0  0  0  0  0  0  0
    0.1474    3.9536    1.1372 H   0  0  0  0  0  0  0  0  0  0  0  0
  5  6  2  0  0  0  0
  5  7  1  0  0  0  0
  2  3  1  0  0  0  0
  2  4  1  0  0  0  0
  2  5  1  0  0  0  0
  1  2  1  0  0  0  0
 24 25  2  0  0  0  0
 24 26  1  0  0  0  0
 20 21  1  0  0  0  0
 20 22  1  0  0  0  0
 20 23  1  0  0  0  0
 16 17  1  0  0  0  0
 16 18  1  0  0  0  0
 16 19  1  0  0  0  0
 14 15  1  0  0  0  0
 14 16  1  0  0  0  0
 14 20  1  0  0  0  0
 11 12  1  0  0  0  0
 11 13  1  0  0  0  0
 11 14  1  0  0  0  0
  9 10  1  0  0  0  0
  9 11  1  0  0  0  0
  9 24  1  0  0  0  0
  7  8  1  0  0  0  0
  7  9  1  0  0  0  0
 28 29  1  0  0  0  0
 28 30  1  0  0  0  0
 28 31  1  0  0  0  0
 26 27  1  0  0  0  0
 26 28  1  0  0  0  0
M  END
$$$$
default_name
  -OEChem-02102213163D

 31 30  0     1  0  0  0  0  0999 V2000
   -3.5895   -3.5013    1.1082 H   0  0  0  0  0  0  0  0  0  0  0  0
   -3.5145   -2.5363    0.6082 C   0  0  0  0  0  0  0  0  0  0  0  0
   -4.2285   -1.8413    1.0452 H   0  0  0  0  0  0  0  0  0  0  0  0
   -3.7155   -2.6583   -0.4538 H   0  0  0  0  0  0  0  0  0  0  0  0
   -2.1155   -1.9963    0.7922 C   0  0  0  0  0  0  0  0  0  0  0  0
   -1.2875   -2.6383    1.4252 O   0  0  0  0  0  0  0  0  0  0  0  0
   -1.8575   -0.8123    0.2402 N   0  0  0  0  0  0  0  0  0  0  0  0
   -2.6005   -0.3333   -0.2478 H   0  0  0  0  0  0  0  0  0  0  0  0
   -0.5675   -0.1203    0.3102 C   0  0  1  0  0  0  0  0  0  0  0  0
    0.0191   -0.5718    1.1110 H   0  0  0  0  0  0  0  0  0  0  0  0
    0.1724   -0.3238   -1.0286 C   0  0  0  0  0  0  0  0  0  0  0  0
    0.5250   -1.3558   -1.0787 H   0  0  0  0  0  0  0  0  0  0  0  0
   -0.5479   -0.1809   -1.8372 H   0  0  0  0  0  0  0  0  0  0  0  0
    1.3686    0.6120   -1.2815 C   0  0  0  0  0  0  0  0  0  0  0  0
    1.2042    1.1805   -2.1969 H   0  0  0  0  0  0  0  0  0  0  0  0
    1.5957    1.5878   -0.1233 C   0  0  0  0  0  0  0  0  0  0  0  0
    1.7460    1.0335    0.8041 H   0  0  0  0  0  0  0  0  0  0  0  0
    2.4789    2.1951   -0.3227 H   0  0  0  0  0  0  0  0  0  0  0  0
    0.7413    2.2509   -0.0064 H   0  0  0  0  0  0  0  0  0  0  0  0
    2.6418   -0.2142   -1.4600 C   0  0  0  0  0  0  0  0  0  0  0  0
    2.5206   -0.8975   -2.3005 H   0  0  0  0  0  0  0  0  0  0  0  0
    3.4853    0.4445   -1.6666 H   0  0  0  0  0  0  0  0  0  0  0  0
    2.8467   -0.7885   -0.5559 H   0  0  0  0  0  0  0  0  0  0  0  0
   -0.7793    1.3659    0.6455 C   0  0  0  0  0  0  0  0  0  0  0  0
   -1.6464    2.0125    0.0623 O   0  0  0  0  0  0  0  0  0  0  0  0
    0.0189    1.9059    1.5756 N   0  0  0  0  0  0  0  0  0  0  0  0
    0.7024    1.3094    2.0137 H   0  0  0  0  0  0  0  0  0  0  0  0
   -0.0451    3.3046    1.9929 C   0  0  0  0  0  0  0  0  0  0  0  0
   -1.0415    3.5286    2.3805 H   0  0  0  0  0  0  0  0  0  0  0  0
    0.6954    3.5023    2.7695 H   0  0  0  0  0  0  0  0  0  0  0  0
    0.1474    3.9536    1.1372 H   0  0  0  0  0  0  0  0  0  0  0  0
  5  6  2  0  0  0  0
  5  7  1  0  0  0  0
  2  3  1  0  0  0  0
  2  4  1  0  0  0  0
  2  5  1  0  0  0  0
  1  2  1  0  0  0  0
 24 25  2  0  0  0  0
 24 26  1  0  0  0  0
 20 21  1  0  0  0  0
 20 22  1  0  0  0  0
 20 23  1  0  0  0  0
 16 17  1  0  0  0  0
 16 18  1  0  0  0  0
 16 19  1  0  0  0  0
 14 15  1  0  0  0  0
 14 16  1  0  0  0  0
 14 20  1  0  0  0  0
 11 12  1  0  0  0  0
 11 13  1  0  0  0  0
 11 14  1  0  0  0  0
  9 10  1  0  0  0  0
  9 11  1  0  0  0  0
  9 24  1  0  0  0  0
  7  8  1  0  0  0  0
  7  9  1  0  0  0  0
 28 29  1  0  0  0  0
 28 30  1  0  0  0  0
 28 31  1  0  0  0  0
 26 27  1  0  0  0  0
 26 28  1  0  0  0  0
M  END
$$$$
default_name
  -OEChem-02102213163D

 31 30  0     1  0  0  0  0  0999 V2000
   -3.5895   -3.5013    1.1082 H   0  0  0  0  0  0  0  0  0  0  0  0
   -3.5145   -2.5363    0.6082 C   0  0  0  0  0  0  0  0  0  0  0  0
   -4.2285   -1.8413    1.0452 H   0  0  0  0  0  0  0  0  0  0  0  0
   -3.7155   -2.6583   -0.4538 H   0  0  0  0  0  0  0  0  0  0  0  0
   -2.1155   -1.9963    0.7922 C   0  0  0  0  0  0  0  0  0  0  0  0
   -1.2875   -2.6383    1.4252 O   0  0  0  0  0  0  0  0  0  0  0  0
   -1.8575   -0.8123    0.2402 N   0  0  0  0  0  0  0  0  0  0  0  0
   -2.6005   -0.3333   -0.2478 H   0  0  0  0  0  0  0  0  0  0  0  0
   -0.5675   -0.1203    0.3102 C   0  0  1  0  0  0  0  0  0  0  0  0
    0.0191   -0.5718    1.1110 H   0  0  0  0  0  0  0  0  0  0  0  0
    0.1724   -0.3238   -1.0286 C   0  0  0  0  0  0  0  0  0  0  0  0
    0.5250   -1.3558   -1.0787 H   0  0  0  0  0  0  0  0  0  0  0  0
   -0.5479   -0.1809   -1.8372 H   0  0  0  0  0  0  0  0  0  0  0  0
    1.3686    0.6120   -1.2815 C   0  0  0  0  0  0  0  0  0  0  0  0
    1.0997    1.3598   -2.0276 H   0  0  0  0  0  0  0  0  0  0  0  0
    1.8270    1.3240   -0.0055 C   0  0  0  0  0  0  0  0  0  0  0  0
    2.0846    0.5880    0.7573 H   0  0  0  0  0  0  0  0  0  0  0  0
    2.7034    1.9357   -0.2210 H   0  0  0  0  0  0  0  0  0  0  0  0
    1.0409    1.9716    0.3767 H   0  0  0  0  0  0  0  0  0  0  0  0
    2.5489   -0.1936   -1.8232 C   0  0  0  0  0  0  0  0  0  0  0  0
    2.2607   -0.6872   -2.7513 H   0  0  0  0  0  0  0  0  0  0  0  0
    3.3880    0.4709   -2.0292 H   0  0  0  0  0  0  0  0  0  0  0  0
    2.8557   -0.9459   -1.0957 H   0  0  0  0  0  0  0  0  0  0  0  0
   -0.7793    1.3659    0.6455 C   0  0  0  0  0  0  0  0  0  0  0  0
   -1.6464    2.0125    0.0623 O   0  0  0  0  0  0  0  0  0  0  0  0
    0.0189    1.9059    1.5756 N   0  0  0  0  0  0  0  0  0  0  0  0
    0.7024    1.3094    2.0137 H   0  0  0  0  0  0  0  0  0  0  0  0
   -0.0451    3.3046    1.9929 C   0  0  0  0  0  0  0  0  0  0  0  0
   -1.0415    3.5286    2.3805 H   0  0  0  0  0  0  0  0  0  0  0  0
    0.6954    3.5023    2.7695 H   0  0  0  0  0  0  0  0  0  0  0  0
    0.1474    3.9536    1.1372 H   0  0  0  0  0  0  0  0  0  0  0  0
  5  6  2  0  0  0  0
  5  7  1  0  0  0  0
  2  3  1  0  0  0  0
  2  4  1  0  0  0  0
  2  5  1  0  0  0  0
  1  2  1  0  0  0  0
 24 25  2  0  0  0  0
 24 26  1  0  0  0  0
 20 21  1  0  0  0  0
 20 22  1  0  0  0  0
 20 23  1  0  0  0  0
 16 17  1  0  0  0  0
 16 18  1  0  0  0  0
 16 19  1  0  0  0  0
 14 15  1  0  0  0  0
 14 16  1  0  0  0  0
 14 20  1  0  0  0  0
 11 12  1  0  0  0  0
 11 13  1  0  0  0  0
 11 14  1  0  0  0  0
  9 10  1  0  0  0  0
  9 11  1  0  0  0  0
  9 24  1  0  0  0  0
  7  8  1  0  0  0  0
  7  9  1  0  0  0  0
 28 29  1  0  0  0  0
 28 30  1  0  0  0  0
 28 31  1  0  0  0  0
 26 27  1  0  0  0  0
 26 28  1  0  0  0  0
M  END
$$$$
default_name
  -OEChem-02102213163D

 31 30  0     1  0  0  0  0  0999 V2000
   -3.5895   -3.5013    1.1082 H   0  0  0  0  0  0  0  0  0  0  0  0
   -3.5145   -2.5363    0.6082 C   0  0  0  0  0  0  0  0  0  0  0  0
   -4.2285   -1.8413    1.0452 H   0  0  0  0  0  0  0  0  0  0  0  0
   -3.7155   -2.6583   -0.4538 H   0  0  0  0  0  0  0  0  0  0  0  0
   -2.1155   -1.9963    0.7922 C   0  0  0  0  0  0  0  0  0  0  0  0
   -1.2875   -2.6383    1.4252 O   0  0  0  0  0  0  0  0  0  0  0  0
   -1.8575   -0.8123    0.2402 N   0  0  0  0  0  0  0  0  0  0  0  0
   -2.6005   -0.3333   -0.2478 H   0  0  0  0  0  0  0  0  0  0  0  0
   -0.5675   -0.1203    0.3102 C   0  0  1  0  0  0  0  0  0  0  0  0
    0.0191   -0.5718    1.1110 H   0  0  0  0  0  0  0  0  0  0  0  0
    0.1724   -0.3238   -1.0286 C   0  0  0  0  0  0  0  0  0  0  0  0
    0.5250   -1.3558   -1.0787 H   0  0  0  0  0  0  0  0  0  0  0  0
   -0.5479   -0.1809   -1.8372 H   0  0  0  0  0  0  0  0  0  0  0  0
    1.3686    0.6120   -1.2815 C   0  0  0  0  0  0  0  0  0  0  0  0
    1.0331    1.5034   -1.8115 H   0  0  0  0  0  0  0  0  0  0  0  0
    2.0577    1.0357    0.0188 C   0  0  0  0  0  0  0  0  0  0  0  0
    2.3854    0.1527    0.5692 H   0  0  0  0  0  0  0  0  0  0  0  0
    2.9251    1.6552   -0.2103 H   0  0  0  0  0  0  0  0  0  0  0  0
    1.3786    1.6119    0.6434 H   0  0  0  0  0  0  0  0  0  0  0  0
    2.4028   -0.0967   -2.1553 C   0  0  0  0  0  0  0  0  0  0  0  0
    1.9477   -0.3823   -3.1036 H   0  0  0  0  0  0  0  0  0  0  0  0
    3.2381    0.5735   -2.3587 H   0  0  0  0  0  0  0  0  0  0  0  0
    2.7727   -0.9897   -1.6502 H   0  0  0  0  0  0  0  0  0  0  0  0
   -0.7793    1.3659    0.6455 C   0  0  0  0  0  0  0  0  0  0  0  0
   -1.6464    2.0125    0.0623 O   0  0  0  0  0  0  0  0  0  0  0  0
    0.0189    1.9059    1.5756 N   0  0  0  0  0  0  0  0  0  0  0  0
    0.7024    1.3094    2.0137 H   0  0  0  0  0  0  0  0  0  0  0  0
   -0.0451    3.3046    1.9929 C   0  0  0  0  0  0  0  0  0  0  0  0
   -1.0415    3.5286    2.3805 H   0  0  0  0  0  0  0  0  0  0  0  0
    0.6954    3.5023    2.7695 H   0  0  0  0  0  0  0  0  0  0  0  0
    0.1474    3.9536    1.1372 H   0  0  0  0  0  0  0  0  0  0  0  0
  5  6  2  0  0  0  0
  5  7  1  0  0  0  0
  2  3  1  0  0  0  0
  2  4  1  0  0  0  0
  2  5  1  0  0  0  0
  1  2  1  0  0  0  0
 24 25  2  0  0  0  0
 24 26  1  0  0  0  0
 20 21  1  0  0  0  0
 20 22  1  0  0  0  0
 20 23  1  0  0  0  0
 16 17  1  0  0  0  0
 16 18  1  0  0  0  0
 16 19  1  0  0  0  0
 14 15  1  0  0  0  0
 14 16  1  0  0  0  0
 14 20  1  0  0  0  0
 11 12  1  0  0  0  0
 11 13  1  0  0  0  0
 11 14  1  0  0  0  0
  9 10  1  0  0  0  0
  9 11  1  0  0  0  0
  9 24  1  0  0  0  0
  7  8  1  0  0  0  0
  7  9  1  0  0  0  0
 28 29  1  0  0  0  0
 28 30  1  0  0  0  0
 28 31  1  0  0  0  0
 26 27  1  0  0  0  0
 26 28  1  0  0  0  0
M  END
$$$$
default_name
  -OEChem-02102213163D

 31 30  0     1  0  0  0  0  0999 V2000
   -3.5895   -3.5013    1.1082 H   0  0  0  0  0  0  0  0  0  0  0  0
   -3.5145   -2.5363    0.6082 C   0  0  0  0  0  0  0  0  0  0  0  0
   -4.2285   -1.8413    1.0452 H   0  0  0  0  0  0  0  0  0  0  0  0
   -3.7155   -2.6583   -0.4538 H   0  0  0  0  0  0  0  0  0  0  0  0
   -2.1155   -1.9963    0.7922 C   0  0  0  0  0  0  0  0  0  0  0  0
   -1.2875   -2.6383    1.4252 O   0  0  0  0  0  0  0  0  0  0  0  0
   -1.8575   -0.8123    0.2402 N   0  0  0  0  0  0  0  0  0  0  0  0
   -2.6005   -0.3333   -0.2478 H   0  0  0  0  0  0  0  0  0  0  0  0
   -0.5675   -0.1203    0.3102 C   0  0  1  0  0  0  0  0  0  0  0  0
    0.0191   -0.5718    1.1110 H   0  0  0  0  0  0  0  0  0  0  0  0
    0.1724   -0.3238   -1.0286 C   0  0  0  0  0  0  0  0  0  0  0  0
    0.5250   -1.3558   -1.0787 H   0  0  0  0  0  0  0  0  0  0  0  0
   -0.5479   -0.1809   -1.8372 H   0  0  0  0  0  0  0  0  0  0  0  0
    1.3686    0.6120   -1.2815 C   0  0  0  0  0  0  0  0  0  0  0  0
    1.0088    1.6015   -1.5635 H   0  0  0  0  0  0  0  0  0  0  0  0
    2.2722    0.7425   -0.0519 C   0  0  0  0  0  0  0  0  0  0  0  0
    2.6279   -0.2428    0.2527 H   0  0  0  0  0  0  0  0  0  0  0  0
    3.1291    1.3726   -0.2912 H   0  0  0  0  0  0  0  0  0  0  0  0
    1.7315    1.1966    0.7757 H   0  0  0  0  0  0  0  0  0  0  0  0
    2.2137    0.0699   -2.4336 C   0  0  0  0  0  0  0  0  0  0  0  0
    1.6029   -0.0036   -3.3334 H   0  0  0  0  0  0  0  0  0  0  0  0
    3.0458    0.7452   -2.6328 H   0  0  0  0  0  0  0  0  0  0  0  0
    2.6035   -0.9170   -2.1816 H   0  0  0  0  0  0  0  0  0  0  0  0
   -0.7793    1.3659    0.6455 C   0  0  0  0  0  0  0  0  0  0  0  0
   -1.6464    2.0125    0.0623 O   0  0  0  0  0  0  0  0  0  0  0  0
    0.0189    1.9059    1.5756 N   0  0  0  0  0  0  0  0  0  0  0  0
    0.7024    1.3094    2.0137 H   0  0  0  0  0  0  0  0  0  0  0  0
   -0.0451    3.3046    1.9929 C   0  0  0  0  0  0  0  0  0  0  0  0
   -1.0415    3.5286    2.3805 H   0  0  0  0  0  0  0  0  0  0  0  0
    0.6954    3.5023    2.7695 H   0  0  0  0  0  0  0  0  0  0  0  0
    0.1474    3.9536    1.1372 H   0  0  0  0  0  0  0  0  0  0  0  0
  5  6  2  0  0  0  0
  5  7  1  0  0  0  0
  2  3  1  0  0  0  0
  2  4  1  0  0  0  0
  2  5  1  0  0  0  0
  1  2  1  0  0  0  0
 24 25  2  0  0  0  0
 24 26  1  0  0  0  0
 20 21  1  0  0  0  0
 20 22  1  0  0  0  0
 20 23  1  0  0  0  0
 16 17  1  0  0  0  0
 16 18  1  0  0  0  0
 16 19  1  0  0  0  0
 14 15  1  0  0  0  0
 14 16  1  0  0  0  0
 14 20  1  0  0  0  0
 11 12  1  0  0  0  0
 11 13  1  0  0  0  0
 11 14  1  0  0  0  0
  9 10  1  0  0  0  0
  9 11  1  0  0  0  0
  9 24  1  0  0  0  0
  7  8  1  0  0  0  0
  7  9  1  0  0  0  0
 28 29  1  0  0  0  0
 28 30  1  0  0  0  0
 28 31  1  0  0  0  0
 26 27  1  0  0  0  0
 26 28  1  0  0  0  0
M  END
$$$$
default_name
  -OEChem-02102213163D

 31 30  0     1  0  0  0  0  0999 V2000
   -3.5895   -3.5013    1.1082 H   0  0  0  0  0  0  0  0  0  0  0  0
   -3.5145   -2.5363    0.6082 C   0  0  0  0  0  0  0  0  0  0  0  0
   -4.2285   -1.8413    1.0452 H   0  0  0  0  0  0  0  0  0  0  0  0
   -3.7155   -2.6583   -0.4538 H   0  0  0  0  0  0  0  0  0  0  0  0
   -2.1155   -1.9963    0.7922 C   0  0  0  0  0  0  0  0  0  0  0  0
   -1.2875   -2.6383    1.4252 O   0  0  0  0  0  0  0  0  0  0  0  0
   -1.8575   -0.8123    0.2402 N   0  0  0  0  0  0  0  0  0  0  0  0
   -2.6005   -0.3333   -0.2478 H   0  0  0  0  0  0  0  0  0  0  0  0
   -0.5675   -0.1203    0.3102 C   0  0  1  0  0  0  0  0  0  0  0  0
    0.0191   -0.5718    1.1110 H   0  0  0  0  0  0  0  0  0  0  0  0
    0.1724   -0.3238   -1.0286 C   0  0  0  0  0  0  0  0  0  0  0  0
    0.5250   -1.3558   -1.0787 H   0  0  0  0  0  0  0  0  0  0  0  0
   -0.5479   -0.1809   -1.8372 H   0  0  0  0  0  0  0  0  0  0  0  0
    1.3686    0.6120   -1.2815 C   0  0  0  0  0  0  0  0  0  0  0  0
    1.0285    1.6474   -1.3004 H   0  0  0  0  0  0  0  0  0  0  0  0
    2.4557    0.4644   -0.2130 C   0  0  0  0  0  0  0  0  0  0  0  0
    2.7954   -0.5714   -0.1707 H   0  0  0  0  0  0  0  0  0  0  0  0
    3.3013    1.1072   -0.4583 H   0  0  0  0  0  0  0  0  0  0  0  0
    2.0755    0.7538    0.7644 H   0  0  0  0  0  0  0  0  0  0  0  0
    1.9943    0.2948   -2.6392 C   0  0  0  0  0  0  0  0  0  0  0  0
    1.2498    0.4230   -3.4249 H   0  0  0  0  0  0  0  0  0  0  0  0
    2.8242    0.9744   -2.8328 H   0  0  0  0  0  0  0  0  0  0  0  0
    2.3595   -0.7327   -2.6537 H   0  0  0  0  0  0  0  0  0  0  0  0
   -0.7793    1.3659    0.6455 C   0  0  0  0  0  0  0  0  0  0  0  0
   -1.6464    2.0125    0.0623 O   0  0  0  0  0  0  0  0  0  0  0  0
    0.0189    1.9059    1.5756 N   0  0  0  0  0  0  0  0  0  0  0  0
    0.7024    1.3094    2.0137 H   0  0  0  0  0  0  0  0  0  0  0  0
   -0.0451    3.3046    1.9929 C   0  0  0  0  0  0  0  0  0  0  0  0
   -1.0415    3.5286    2.3805 H   0  0  0  0  0  0  0  0  0  0  0  0
    0.6954    3.5023    2.7695 H   0  0  0  0  0  0  0  0  0  0  0  0
    0.1474    3.9536    1.1372 H   0  0  0  0  0  0  0  0  0  0  0  0
  5  6  2  0  0  0  0
  5  7  1  0  0  0  0
  2  3  1  0  0  0  0
  2  4  1  0  0  0  0
  2  5  1  0  0  0  0
  1  2  1  0  0  0  0
 24 25  2  0  0  0  0
 24 26  1  0  0  0  0
 20 21  1  0  0  0  0
 20 22  1  0  0  0  0
 20 23  1  0  0  0  0
 16 17  1  0  0  0  0
 16 18  1  0  0  0  0
 16 19  1  0  0  0  0
 14 15  1  0  0  0  0
 14 16  1  0  0  0  0
 14 20  1  0  0  0  0
 11 12  1  0  0  0  0
 11 13  1  0  0  0  0
 11 14  1  0  0  0  0
  9 10  1  0  0  0  0
  9 11  1  0  0  0  0
  9 24  1  0  0  0  0
  7  8  1  0  0  0  0
  7  9  1  0  0  0  0
 28 29  1  0  0  0  0
 28 30  1  0  0  0  0
 28 31  1  0  0  0  0
 26 27  1  0  0  0  0
 26 28  1  0  0  0  0
M  END
$$$$
default_name
  -OEChem-02102213163D

 31 30  0     1  0  0  0  0  0999 V2000
   -3.5895   -3.5013    1.1082 H   0  0  0  0  0  0  0  0  0  0  0  0
   -3.5145   -2.5363    0.6082 C   0  0  0  0  0  0  0  0  0  0  0  0
   -4.2285   -1.8413    1.0452 H   0  0  0  0  0  0  0  0  0  0  0  0
   -3.7155   -2.6583   -0.4538 H   0  0  0  0  0  0  0  0  0  0  0  0
   -2.1155   -1.9963    0.7922 C   0  0  0  0  0  0  0  0  0  0  0  0
   -1.2875   -2.6383    1.4252 O   0  0  0  0  0  0  0  0  0  0  0  0
   -1.8575   -0.8123    0.2402 N   0  0  0  0  0  0  0  0  0  0  0  0
   -2.6005   -0.3333   -0.2478 H   0  0  0  0  0  0  0  0  0  0  0  0
   -0.5675   -0.1203    0.3102 C   0  0  1  0  0  0  0  0  0  0  0  0
    0.0191   -0.5718    1.1110 H   0  0  0  0  0  0  0  0  0  0  0  0
    0.1724   -0.3238   -1.0286 C   0  0  0  0  0  0  0  0  0  0  0  0
    0.5250   -1.3558   -1.0787 H   0  0  0  0  0  0  0  0  0  0  0  0
   -0.5479   -0.1809   -1.8372 H   0  0  0  0  0  0  0  0  0  0  0  0
    1.3686    0.6120   -1.2815 C   0  0  0  0  0  0  0  0  0  0  0  0
    1.0908    1.6380   -1.0401 H   0  0  0  0  0  0  0  0  0  0  0  0
    2.5958    0.2203   -0.4533 C   0  0  0  0  0  0  0  0  0  0  0  0
    2.8767   -0.8108   -0.6722 H   0  0  0  0  0  0  0  0  0  0  0  0
    3.4302    0.8772   -0.7001 H   0  0  0  0  0  0  0  0  0  0  0  0
    2.3872    0.3137    0.6103 H   0  0  0  0  0  0  0  0  0  0  0  0
    1.7596    0.5627   -2.7580 C   0  0  0  0  0  0  0  0  0  0  0  0
    0.9125    0.8685   -3.3720 H   0  0  0  0  0  0  0  0  0  0  0  0
    2.5885    1.2453   -2.9451 H   0  0  0  0  0  0  0  0  0  0  0  0
    2.0575   -0.4494   -3.0342 H   0  0  0  0  0  0  0  0  0  0  0  0
   -0.7793    1.3659    0.6455 C   0  0  0  0  0  0  0  0  0  0  0  0
   -1.6464    2.0125    0.0623 O   0  0  0  0  0  0  0  0  0  0  0  0
    0.0189    1.9059    1.5756 N   0  0  0  0  0  0  0  0  0  0  0  0
    0.7024    1.3094    2.0137 H   0  0  0  0  0  0  0  0  0  0  0  0
   -0.0451    3.3046    1.9929 C   0  0  0  0  0  0  0  0  0  0  0  0
   -1.0415    3.5286    2.3805 H   0  0  0  0  0  0  0  0  0  0  0  0
    0.6954    3.5023    2.7695 H   0  0  0  0  0  0  0  0  0  0  0  0
    0.1474    3.9536    1.1372 H   0  0  0  0  0  0  0  0  0  0  0  0
  5  6  2  0  0  0  0
  5  7  1  0  0  0  0
  2  3  1  0  0  0  0
  2  4  1  0  0  0  0
  2  5  1  0  0  0  0
  1  2  1  0  0  0  0
 24 25  2  0  0  0  0
 24 26  1  0  0  0  0
 20 21  1  0  0  0  0
 20 22  1  0  0  0  0
 20 23  1  0  0  0  0
 16 17  1  0  0  0  0
 16 18  1  0  0  0  0
 16 19  1  0  0  0  0
 14 15  1  0  0  0  0
 14 16  1  0  0  0  0
 14 20  1  0  0  0  0
 11 12  1  0  0  0  0
 11 13  1  0  0  0  0
 11 14  1  0  0  0  0
  9 10  1  0  0  0  0
  9 11  1  0  0  0  0
  9 24  1  0  0  0  0
  7  8  1  0  0  0  0
  7  9  1  0  0  0  0
 28 29  1  0  0  0  0
 28 30  1  0  0  0  0
 28 31  1  0  0  0  0
 26 27  1  0  0  0  0
 26 28  1  0  0  0  0
M  END
$$$$
default_name
  -OEChem-02102213163D

 31 30  0     1  0  0  0  0  0999 V2000
   -3.5895   -3.5013    1.1082 H   0  0  0  0  0  0  0  0  0  0  0  0
   -3.5145   -2.5363    0.6082 C   0  0  0  0  0  0  0  0  0  0  0  0
   -4.2285   -1.8413    1.0452 H   0  0  0  0  0  0  0  0  0  0  0  0
   -3.7155   -2.6583   -0.4538 H   0  0  0  0  0  0  0  0  0  0  0  0
   -2.1155   -1.9963    0.7922 C   0  0  0  0  0  0  0  0  0  0  0  0
   -1.2875   -2.6383    1.4252 O   0  0  0  0  0  0  0  0  0  0  0  0
   -1.8575   -0.8123    0.2402 N   0  0  0  0  0  0  0  0  0  0  0  0
   -2.6005   -0.3333   -0.2478 H   0  0  0  0  0  0  0  0  0  0  0  0
   -0.5675   -0.1203    0.3102 C   0  0  1  0  0  0  0  0  0  0  0  0
    0.0191   -0.5718    1.1110 H   0  0  0  0  0  0  0  0  0  0  0  0
    0.1724   -0.3238   -1.0286 C   0  0  0  0  0  0  0  0  0  0  0  0
    0.5250   -1.3558   -1.0787 H   0  0  0  0  0  0  0  0  0  0  0  0
   -0.5479   -0.1809   -1.8372 H   0  0  0  0  0  0  0  0  0  0  0  0
    1.3686    0.6120   -1.2815 C   0  0  0  0  0  0  0  0  0  0  0  0
    1.1917    1.5739   -0.8004 H   0  0  0  0  0  0  0  0  0  0  0  0
    2.6829    0.0270   -0.7566 C   0  0  0  0  0  0  0  0  0  0  0  0
    2.8662   -0.9446   -1.2174 H   0  0  0  0  0  0  0  0  0  0  0  0
    3.5068    0.6982   -1.0002 H   0  0  0  0  0  0  0  0  0  0  0  0
    2.6453   -0.0937    0.3239 H   0  0  0  0  0  0  0  0  0  0  0  0
    1.5255    0.8554   -2.7820 C   0  0  0  0  0  0  0  0  0  0  0  0
    0.6139    1.3025   -3.1783 H   0  0  0  0  0  0  0  0  0  0  0  0
    2.3547    1.5397   -2.9619 H   0  0  0  0  0  0  0  0  0  0  0  0
    1.7179   -0.0864   -3.2972 H   0  0  0  0  0  0  0  0  0  0  0  0
   -0.7793    1.3659    0.6455 C   0  0  0  0  0  0  0  0  0  0  0  0
   -1.6464    2.0125    0.0623 O   0  0  0  0  0  0  0  0  0  0  0  0
    0.0189    1.9059    1.5756 N   0  0  0  0  0  0  0  0  0  0  0  0
    0.7024    1.3094    2.0137 H   0  0  0  0  0  0  0  0  0  0  0  0
   -0.0451    3.3046    1.9929 C   0  0  0  0  0  0  0  0  0  0  0  0
   -1.0415    3.5286    2.3805 H   0  0  0  0  0  0  0  0  0  0  0  0
    0.6954    3.5023    2.7695 H   0  0  0  0  0  0  0  0  0  0  0  0
    0.1474    3.9536    1.1372 H   0  0  0  0  0  0  0  0  0  0  0  0
  5  6  2  0  0  0  0
  5  7  1  0  0  0  0
  2  3  1  0  0  0  0
  2  4  1  0  0  0  0
  2  5  1  0  0  0  0
  1  2  1  0  0  0  0
 24 25  2  0  0  0  0
 24 26  1  0  0  0  0
 20 21  1  0  0  0  0
 20 22  1  0  0  0  0
 20 23  1  0  0  0  0
 16 17  1  0  0  0  0
 16 18  1  0  0  0  0
 16 19  1  0  0  0  0
 14 15  1  0  0  0  0
 14 16  1  0  0  0  0
 14 20  1  0  0  0  0
 11 12  1  0  0  0  0
 11 13  1  0  0  0  0
 11 14  1  0  0  0  0
  9 10  1  0  0  0  0
  9 11  1  0  0  0  0
  9 24  1  0  0  0  0
  7  8  1  0  0  0  0
  7  9  1  0  0  0  0
 28 29  1  0  0  0  0
 28 30  1  0  0  0  0
 28 31  1  0  0  0  0
 26 27  1  0  0  0  0
 26 28  1  0  0  0  0
M  END
$$$$
default_name
  -OEChem-02102213163D

 31 30  0     1  0  0  0  0  0999 V2000
   -3.5895   -3.5013    1.1082 H   0  0  0  0  0  0  0  0  0  0  0  0
   -3.5145   -2.5363    0.6082 C   0  0  0  0  0  0  0  0  0  0  0  0
   -4.2285   -1.8413    1.0452 H   0  0  0  0  0  0  0  0  0  0  0  0
   -3.7155   -2.6583   -0.4538 H   0  0  0  0  0  0  0  0  0  0  0  0
   -2.1155   -1.9963    0.7922 C   0  0  0  0  0  0  0  0  0  0  0  0
   -1.2875   -2.6383    1.4252 O   0  0  0  0  0  0  0  0  0  0  0  0
   -1.8575   -0.8123    0.2402 N   0  0  0  0  0  0  0  0  0  0  0  0
   -2.6005   -0.3333   -0.2478 H   0  0  0  0  0  0  0  0  0  0  0  0
   -0.5675   -0.1203    0.3102 C   0  0  1  0  0  0  0  0  0  0  0  0
    0.0191   -0.5718    1.1110 H   0  0  0  0  0  0  0  0  0  0  0  0
    0.1724   -0.3238   -1.0286 C   0  0  0  0  0  0  0  0  0  0  0  0
    0.5250   -1.3558   -1.0787 H   0  0  0  0  0  0  0  0  0  0  0  0
   -0.5479   -0.1809   -1.8372 H   0  0  0  0  0  0  0  0  0  0  0  0
    1.3686    0.6120   -1.2815 C   0  0  0  0  0  0  0  0  0  0  0  0
    1.3240    1.4596   -0.5975 H   0  0  0  0  0  0  0  0  0  0  0  0
    2.7112   -0.1025   -1.1021 C   0  0  0  0  0  0  0  0  0  0  0  0
    2.7645   -0.9639   -1.7694 H   0  0  0  0  0  0  0  0  0  0  0  0
    3.5260    0.5823   -1.3382 H   0  0  0  0  0  0  0  0  0  0  0  0
    2.8323   -0.4405   -0.0752 H   0  0  0  0  0  0  0  0  0  0  0  0
    1.3081    1.1528   -2.7095 C   0  0  0  0  0  0  0  0  0  0  0  0
    0.3744    1.6955   -2.8569 H   0  0  0  0  0  0  0  0  0  0  0  0
    2.1387    1.8373   -2.8822 H   0  0  0  0  0  0  0  0  0  0  0  0
    1.3639    0.3316   -3.4249 H   0  0  0  0  0  0  0  0  0  0  0  0
   -0.7793    1.3659    0.6455 C   0  0  0  0  0  0  0  0  0  0  0  0
   -1.6464    2.0125    0.0623 O   0  0  0  0  0  0  0  0  0  0  0  0
    0.0189    1.9059    1.5756 N   0  0  0  0  0  0  0  0  0  0  0  0
    0.7024    1.3094    2.0137 H   0  0  0  0  0  0  0  0  0  0  0  0
   -0.0451    3.3046    1.9929 C   0  0  0  0  0  0  0  0  0  0  0  0
   -1.0415    3.5286    2.3805 H   0  0  0  0  0  0  0  0  0  0  0  0
    0.6954    3.5023    2.7695 H   0  0  0  0  0  0  0  0  0  0  0  0
    0.1474    3.9536    1.1372 H   0  0  0  0  0  0  0  0  0  0  0  0
  5  6  2  0  0  0  0
  5  7  1  0  0  0  0
  2  3  1  0  0  0  0
  2  4  1  0  0  0  0
  2  5  1  0  0  0  0
  1  2  1  0  0  0  0
 24 25  2  0  0  0  0
 24 26  1  0  0  0  0
 20 21  1  0  0  0  0
 20 22  1  0  0  0  0
 20 23  1  0  0  0  0
 16 17  1  0  0  0  0
 16 18  1  0  0  0  0
 16 19  1  0  0  0  0
 14 15  1  0  0  0  0
 14 16  1  0  0  0  0
 14 20  1  0  0  0  0
 11 12  1  0  0  0  0
 11 13  1  0  0  0  0
 11 14  1  0  0  0  0
  9 10  1  0  0  0  0
  9 11  1  0  0  0  0
  9 24  1  0  0  0  0
  7  8  1  0  0  0  0
  7  9  1  0  0  0  0
 28 29  1  0  0  0  0
 28 30  1  0  0  0  0
 28 31  1  0  0  0  0
 26 27  1  0  0  0  0
 26 28  1  0  0  0  0
M  END
$$$$
default_name
  -OEChem-02102213163D

 31 30  0     1  0  0  0  0  0999 V2000
   -3.5895   -3.5013    1.1082 H   0  0  0  0  0  0  0  0  0  0  0  0
   -3.5145   -2.5363    0.6082 C   0  0  0  0  0  0  0  0  0  0  0  0
   -4.2285   -1.8413    1.0452 H   0  0  0  0  0  0  0  0  0  0  0  0
   -3.7155   -2.6583   -0.4538 H   0  0  0  0  0  0  0  0  0  0  0  0
   -2.1155   -1.9963    0.7922 C   0  0  0  0  0  0  0  0  0  0  0  0
   -1.2875   -2.6383    1.4252 O   0  0  0  0  0  0  0  0  0  0  0  0
   -1.8575   -0.8123    0.2402 N   0  0  0  0  0  0  0  0  0  0  0  0
   -2.6005   -0.3333   -0.2478 H   0  0  0  0  0  0  0  0  0  0  0  0
   -0.5675   -0.1203    0.3102 C   0  0  1  0  0  0  0  0  0  0  0  0
    0.0191   -0.5718    1.1110 H   0  0  0  0  0  0  0  0  0  0  0  0
    0.1724   -0.3238   -1.0286 C   0  0  0  0  0  0  0  0  0  0  0  0
    0.5250   -1.3558   -1.0787 H   0  0  0  0  0  0  0  0  0  0  0  0
   -0.5479   -0.1809   -1.8372 H   0  0  0  0  0  0  0  0  0  0  0  0
    1.3686    0.6120   -1.2815 C   0  0  0  0  0  0  0  0  0  0  0  0
    1.4789    1.3027   -0.4455 H   0  0  0  0  0  0  0  0  0  0  0  0
    2.6786   -0.1593   -1.4664 C   0  0  0  0  0  0  0  0  0  0  0  0
    2.5787   -0.8671   -2.2904 H   0  0  0  0  0  0  0  0  0  0  0  0
    3.4865    0.5375   -1.6909 H   0  0  0  0  0  0  0  0  0  0  0  0
    2.9354   -0.7032   -0.5599 H   0  0  0  0  0  0  0  0  0  0  0  0
    1.1222    1.4348   -2.5455 C   0  0  0  0  0  0  0  0  0  0  0  0
    0.2104    2.0206   -2.4298 H   0  0  0  0  0  0  0  0  0  0  0  0
    1.9552    2.1179   -2.7114 H   0  0  0  0  0  0  0  0  0  0  0  0
    1.0197    0.7760   -3.4085 H   0  0  0  0  0  0  0  0  0  0  0  0
   -0.7793    1.3659    0.6455 C   0  0  0  0  0  0  0  0  0  0  0  0
   -1.6464    2.0125    0.0623 O   0  0  0  0  0  0  0  0  0  0  0  0
    0.0189    1.9059    1.5756 N   0  0  0  0  0  0  0  0  0  0  0  0
    0.7024    1.3094    2.0137 H   0  0  0  0  0  0  0  0  0  0  0  0
   -0.0451    3.3046    1.9929 C   0  0  0  0  0  0  0  0  0  0  0  0
   -1.0415    3.5286    2.3805 H   0  0  0  0  0  0  0  0  0  0  0  0
    0.6954    3.5023    2.7695 H   0  0  0  0  0  0  0  0  0  0  0  0
    0.1474    3.9536    1.1372 H   0  0  0  0  0  0  0  0  0  0  0  0
  5  6  2  0  0  0  0
  5  7  1  0  0  0  0
  2  3  1  0  0  0  0
  2  4  1  0  0  0  0
  2  5  1  0  0  0  0
  1  2  1  0  0  0  0
 24 25  2  0  0  0  0
 24 26  1  0  0  0  0
 20 21  1  0  0  0  0
 20 22  1  0  0  0  0
 20 23  1  0  0  0  0
 16 17  1  0  0  0  0
 16 18  1  0  0  0  0
 16 19  1  0  0  0  0
 14 15  1  0  0  0  0
 14 16  1  0  0  0  0
 14 20  1  0  0  0  0
 11 12  1  0  0  0  0
 11 13  1  0  0  0  0
 11 14  1  0  0  0  0
  9 10  1  0  0  0  0
  9 11  1  0  0  0  0
  9 24  1  0  0  0  0
  7  8  1  0  0  0  0
  7  9  1  0  0  0  0
 28 29  1  0  0  0  0
 28 30  1  0  0  0  0
 28 31  1  0  0  0  0
 26 27  1  0  0  0  0
 26 28  1  0  0  0  0
M  END
$$$$
default_name
  -OEChem-02102213163D

 31 30  0     1  0  0  0  0  0999 V2000
   -3.5895   -3.5013    1.1082 H   0  0  0  0  0  0  0  0  0  0  0  0
   -3.5145   -2.5363    0.6082 C   0  0  0  0  0  0  0  0  0  0  0  0
   -4.2285   -1.8413    1.0452 H   0  0  0  0  0  0  0  0  0  0  0  0
   -3.7155   -2.6583   -0.4538 H   0  0  0  0  0  0  0  0  0  0  0  0
   -2.1155   -1.9963    0.7922 C   0  0  0  0  0  0  0  0  0  0  0  0
   -1.2875   -2.6383    1.4252 O   0  0  0  0  0  0  0  0  0  0  0  0
   -1.8575   -0.8123    0.2402 N   0  0  0  0  0  0  0  0  0  0  0  0
   -2.6005   -0.3333   -0.2478 H   0  0  0  0  0  0  0  0  0  0  0  0
   -0.5675   -0.1203    0.3102 C   0  0  1  0  0  0  0  0  0  0  0  0
    0.0191   -0.5718    1.1110 H   0  0  0  0  0  0  0  0  0  0  0  0
    0.1724   -0.3238   -1.0286 C   0  0  0  0  0  0  0  0  0  0  0  0
    0.5250   -1.3558   -1.0787 H   0  0  0  0  0  0  0  0  0  0  0  0
   -0.5479   -0.1809   -1.8372 H   0  0  0  0  0  0  0  0  0  0  0  0
    1.3686    0.6120   -1.2815 C   0  0  0  0  0  0  0  0  0  0  0  0
    1.6458    1.1140   -0.3545 H   0  0  0  0  0  0  0  0  0  0  0  0
    2.5875   -0.1396   -1.8245 C   0  0  0  0  0  0  0  0  0  0  0  0
    2.3214   -0.6610   -2.7449 H   0  0  0  0  0  0  0  0  0  0  0  0
    3.3909    0.5669   -2.0344 H   0  0  0  0  0  0  0  0  0  0  0  0
    2.9475   -0.8639   -1.0971 H   0  0  0  0  0  0  0  0  0  0  0  0
    0.9804    1.6821   -2.3011 C   0  0  0  0  0  0  0  0  0  0  0  0
    0.1329    2.2557   -1.9260 H   0  0  0  0  0  0  0  0  0  0  0  0
    1.8168    2.3625   -2.4612 H   0  0  0  0  0  0  0  0  0  0  0  0
    0.7086    1.2167   -3.2492 H   0  0  0  0  0  0  0  0  0  0  0  0
   -0.7793    1.3659    0.6455 C   0  0  0  0  0  0  0  0  0  0  0  0
   -1.6464    2.0125    0.0623 O   0  0  0  0  0  0  0  0  0  0  0  0
    0.0189    1.9059    1.5756 N   0  0  0  0  0  0  0  0  0  0  0  0
    0.7024    1.3094    2.0137 H   0  0  0  0  0  0  0  0  0  0  0  0
   -0.0451    3.3046    1.9929 C   0  0  0  0  0  0  0  0  0  0  0  0
   -1.0415    3.5286    2.3805 H   0  0  0  0  0  0  0  0  0  0  0  0
    0.6954    3.5023    2.7695 H   0  0  0  0  0  0  0  0  0  0  0  0
    0.1474    3.9536    1.1372 H   0  0  0  0  0  0  0  0  0  0  0  0
  5  6  2  0  0  0  0
  5  7  1  0  0  0  0
  2  3  1  0  0  0  0
  2  4  1  0  0  0  0
  2  5  1  0  0  0  0
  1  2  1  0  0  0  0
 24 25  2  0  0  0  0
 24 26  1  0  0  0  0
 20 21  1  0  0  0  0
 20 22  1  0  0  0  0
 20 23  1  0  0  0  0
 16 17  1  0  0  0  0
 16 18  1  0  0  0  0
 16 19  1  0  0  0  0
 14 15  1  0  0  0  0
 14 16  1  0  0  0  0
 14 20  1  0  0  0  0
 11 12  1  0  0  0  0
 11 13  1  0  0  0  0
 11 14  1  0  0  0  0
  9 10  1  0  0  0  0
  9 11  1  0  0  0  0
  9 24  1  0  0  0  0
  7  8  1  0  0  0  0
  7  9  1  0  0  0  0
 28 29  1  0  0  0  0
 28 30  1  0  0  0  0
 28 31  1  0  0  0  0
 26 27  1  0  0  0  0
 26 28  1  0  0  0  0
M  END
$$$$
default_name
  -OEChem-02102213163D

 31 30  0     1  0  0  0  0  0999 V2000
   -3.5895   -3.5013    1.1082 H   0  0  0  0  0  0  0  0  0  0  0  0
   -3.5145   -2.5363    0.6082 C   0  0  0  0  0  0  0  0  0  0  0  0
   -4.2285   -1.8413    1.0452 H   0  0  0  0  0  0  0  0  0  0  0  0
   -3.7155   -2.6583   -0.4538 H   0  0  0  0  0  0  0  0  0  0  0  0
   -2.1155   -1.9963    0.7922 C   0  0  0  0  0  0  0  0  0  0  0  0
   -1.2875   -2.6383    1.4252 O   0  0  0  0  0  0  0  0  0  0  0  0
   -1.8575   -0.8123    0.2402 N   0  0  0  0  0  0  0  0  0  0  0  0
   -2.6005   -0.3333   -0.2478 H   0  0  0  0  0  0  0  0  0  0  0  0
   -0.5675   -0.1203    0.3102 C   0  0  1  0  0  0  0  0  0  0  0  0
    0.0191   -0.5718    1.1110 H   0  0  0  0  0  0  0  0  0  0  0  0
    0.1724   -0.3238   -1.0286 C   0  0  0  0  0  0  0  0  0  0  0  0
    0.5250   -1.3558   -1.0787 H   0  0  0  0  0  0  0  0  0  0  0  0
   -0.5479   -0.1809   -1.8372 H   0  0  0  0  0  0  0  0  0  0  0  0
    1.3686    0.6120   -1.2815 C   0  0  0  0  0  0  0  0  0  0  0  0
    1.8132    0.9063   -0.3308 H   0  0  0  0  0  0  0  0  0  0  0  0
    2.4439   -0.0446   -2.1521 C   0  0  0  0  0  0  0  0  0  0  0  0
    2.0101   -0.3596   -3.1021 H   0  0  0  0  0  0  0  0  0  0  0  0
    3.2457    0.6684   -2.3453 H   0  0  0  0  0  0  0  0  0  0  0  0
    2.8679   -0.9116   -1.6502 H   0  0  0  0  0  0  0  0  0  0  0  0
    0.8924    1.8779   -1.9930 C   0  0  0  0  0  0  0  0  0  0  0  0
    0.1473    2.3848   -1.3799 H   0  0  0  0  0  0  0  0  0  0  0  0
    1.7329    2.5543   -2.1485 H   0  0  0  0  0  0  0  0  0  0  0  0
    0.4520    1.6235   -2.9577 H   0  0  0  0  0  0  0  0  0  0  0  0
   -0.7793    1.3659    0.6455 C   0  0  0  0  0  0  0  0  0  0  0  0
   -1.6464    2.0125    0.0623 O   0  0  0  0  0  0  0  0  0  0  0  0
    0.0189    1.9059    1.5756 N   0  0  0  0  0  0  0  0  0  0  0  0
    0.7024    1.3094    2.0137 H   0  0  0  0  0  0  0  0  0  0  0  0
   -0.0451    3.3046    1.9929 C   0  0  0  0  0  0  0  0  0  0  0  0
   -1.0415    3.5286    2.3805 H   0  0  0  0  0  0  0  0  0  0  0  0
    0.6954    3.5023    2.7695 H   0  0  0  0  0  0  0  0  0  0  0  0
    0.1474    3.9536    1.1372 H   0  0  0  0  0  0  0  0  0  0  0  0
  5  6  2  0  0  0  0
  5  7  1  0  0  0  0
  2  3  1  0  0  0  0
  2  4  1  0  0  0  0
  2  5  1  0  0  0  0
  1  2  1  0  0  0  0
 24 25  2  0  0  0  0
 24 26  1  0  0  0  0
 20 21  1  0  0  0  0
 20 22  1  0  0  0  0
 20 23  1  0  0  0  0
 16 17  1  0  0  0  0
 16 18  1  0  0  0  0
 16 19  1  0  0  0  0
 14 15  1  0  0  0  0
 14 16  1  0  0  0  0
 14 20  1  0  0  0  0
 11 12  1  0  0  0  0
 11 13  1  0  0  0  0
 11 14  1  0  0  0  0
  9 10  1  0  0  0  0
  9 11  1  0  0  0  0
  9 24  1  0  0  0  0
  7  8  1  0  0  0  0
  7  9  1  0  0  0  0
 28 29  1  0  0  0  0
 28 30  1  0  0  0  0
 28 31  1  0  0  0  0
 26 27  1  0  0  0  0
 26 28  1  0  0  0  0
M  END
$$$$
default_name
  -OEChem-02102213163D

 31 30  0     1  0  0  0  0  0999 V2000
   -3.5895   -3.5013    1.1082 H   0  0  0  0  0  0  0  0  0  0  0  0
   -3.5145   -2.5363    0.6082 C   0  0  0  0  0  0  0  0  0  0  0  0
   -4.2285   -1.8413    1.0452 H   0  0  0  0  0  0  0  0  0  0  0  0
   -3.7155   -2.6583   -0.4538 H   0  0  0  0  0  0  0  0  0  0  0  0
   -2.1155   -1.9963    0.7922 C   0  0  0  0  0  0  0  0  0  0  0  0
   -1.2875   -2.6383    1.4252 O   0  0  0  0  0  0  0  0  0  0  0  0
   -1.8575   -0.8123    0.2402 N   0  0  0  0  0  0  0  0  0  0  0  0
   -2.6005   -0.3333   -0.2478 H   0  0  0  0  0  0  0  0  0  0  0  0
   -0.5675   -0.1203    0.3102 C   0  0  1  0  0  0  0  0  0  0  0  0
    0.0191   -0.5718    1.1110 H   0  0  0  0  0  0  0  0  0  0  0  0
    0.1724   -0.3238   -1.0286 C   0  0  0  0  0  0  0  0  0  0  0  0
    0.5250   -1.3558   -1.0787 H   0  0  0  0  0  0  0  0  0  0  0  0
   -0.5479   -0.1809   -1.8372 H   0  0  0  0  0  0  0  0  0  0  0  0
    1.3686    0.6120   -1.2815 C   0  0  0  0  0  0  0  0  0  0  0  0
    1.9699    0.6938   -0.3760 H   0  0  0  0  0  0  0  0  0  0  0  0
    2.2577    0.1191   -2.4268 C   0  0  0  0  0  0  0  0  0  0  0  0
    1.6660    0.0166   -3.3375 H   0  0  0  0  0  0  0  0  0  0  0  0
    3.0610    0.8351   -2.6023 H   0  0  0  0  0  0  0  0  0  0  0  0
    2.7020   -0.8431   -2.1816 H   0  0  0  0  0  0  0  0  0  0  0  0
    0.8642    2.0088   -1.6422 C   0  0  0  0  0  0  0  0  0  0  0  0
    0.2527    2.3991   -0.8288 H   0  0  0  0  0  0  0  0  0  0  0  0
    1.7092    2.6802   -1.7947 H   0  0  0  0  0  0  0  0  0  0  0  0
    0.2673    1.9687   -2.5540 H   0  0  0  0  0  0  0  0  0  0  0  0
   -0.7793    1.3659    0.6455 C   0  0  0  0  0  0  0  0  0  0  0  0
   -1.6464    2.0125    0.0623 O   0  0  0  0  0  0  0  0  0  0  0  0
    0.0189    1.9059    1.5756 N   0  0  0  0  0  0  0  0  0  0  0  0
    0.7024    1.3094    2.0137 H   0  0  0  0  0  0  0  0  0  0  0  0
   -0.0451    3.3046    1.9929 C   0  0  0  0  0  0  0  0  0  0  0  0
   -1.0415    3.5286    2.3805 H   0  0  0  0  0  0  0  0  0  0  0  0
    0.6954    3.5023    2.7695 H   0  0  0  0  0  0  0  0  0  0  0  0
    0.1474    3.9536    1.1372 H   0  0  0  0  0  0  0  0  0  0  0  0
  5  6  2  0  0  0  0
  5  7  1  0  0  0  0
  2  3  1  0  0  0  0
  2  4  1  0  0  0  0
  2  5  1  0  0  0  0
  1  2  1  0  0  0  0
 24 25  2  0  0  0  0
 24 26  1  0  0  0  0
 20 21  1  0  0  0  0
 20 22  1  0  0  0  0
 20 23  1  0  0  0  0
 16 17  1  0  0  0  0
 16 18  1  0  0  0  0
 16 19  1  0  0  0  0
 14 15  1  0  0  0  0
 14 16  1  0  0  0  0
 14 20  1  0  0  0  0
 11 12  1  0  0  0  0
 11 13  1  0  0  0  0
 11 14  1  0  0  0  0
  9 10  1  0  0  0  0
  9 11  1  0  0  0  0
  9 24  1  0  0  0  0
  7  8  1  0  0  0  0
  7  9  1  0  0  0  0
 28 29  1  0  0  0  0
 28 30  1  0  0  0  0
 28 31  1  0  0  0  0
 26 27  1  0  0  0  0
 26 28  1  0  0  0  0
M  END
$$$$
