default_name
  -OEChem-02102213163D

 31 30  0     1  0  0  0  0  0999 V2000
   -3.5895   -3.5013    1.1082 H   0  0  0  0  0  0  0  0  0  0  0  0
   -3.5145   -2.5363    0.6082 C   0  0  0  0  0  0  0  0  0  0  0  0
   -4.2285   -1.8413    1.0452 H   0  0  0  0  0  0  0  0  0  0  0  0
   -3.7155   -2.6583   -0.4538 H   0  0  0  0  0  0  0  0  0  0  0  0
   -2.1155   -1.9963    0.7922 C   0  0  0  0  0  0  0  0  0  0  0  0
   -1.2875   -2.6383    1.4252 O   0  0  0  0  0  0  0  0  0  0  0  0
   -1.8575   -0.8123    0.2402 N   0  0  0  0  0  0  0  0  0  0  0  0
   -2.6005   -0.3333   -0.2478 H   0  0  0  0  0  0  0  0  0  0  0  0
   -0.5675   -0.1203    0.3102 C   0  0  1  0  0  0  0  0  0  0  0  0
    0.1932   -0.7715   -0.1219 H   0  0  0  0  0  0  0  0  0  0  0  0
   -0.6568    1.1713   -0.5294 C   0  0  0  0  0  0  0  0  0  0  0  0
   -0.9256    0.9037   -1.5532 H   0  0  0  0  0  0  0  0  0  0  0  0
   -1.4663    1.7820   -0.1238 H   0  0  0  0  0  0  0  0  0  0  0  0
    0.6189    2.0326   -0.5705 C   0  0  0  0  0  0  0  0  0  0  0  0
    1.4460    1.4467   -0.9714 H   0  0  0  0  0  0  0  0  0  0  0  0
    0.4406    3.2915   -1.4243 C   0  0  0  0  0  0  0  0  0  0  0  0
   -0.3950    3.8812   -1.0448 H   0  0  0  0  0  0  0  0  0  0  0  0
    1.3487    3.8934   -1.3849 H   0  0  0  0  0  0  0  0  0  0  0  0
    0.2473    3.0278   -2.4618 H   0  0  0  0  0  0  0  0  0  0  0  0
    0.9919    2.4706    0.8452 C   0  0  0  0  0  0  0  0  0  0  0  0
    1.1567    1.5924    1.4693 H   0  0  0  0  0  0  0  0  0  0  0  0
    1.9101    3.0575    0.8219 H   0  0  0  0  0  0  0  0  0  0  0  0
    0.1908    3.0727    1.2755 H   0  0  0  0  0  0  0  0  0  0  0  0
   -0.1913    0.1554    1.7759 C   0  0  0  0  0  0  0  0  0  0  0  0
    0.9476   -0.0766    2.1748 O   0  0  0  0  0  0  0  0  0  0  0  0
   -1.1502    0.6393    2.5760 N   0  0  0  0  0  0  0  0  0  0  0  0
   -2.0581    0.8092    2.1736 H   0  0  0  0  0  0  0  0  0  0  0  0
   -0.9568    0.9369    3.9933 C   0  0  0  0  0  0  0  0  0  0  0  0
   -0.1600    1.6750    4.1097 H   0  0  0  0  0  0  0  0  0  0  0  0
   -1.8775    1.3307    4.4266 H   0  0  0  0  0  0  0  0  0  0  0  0
   -0.6678    0.0287    4.5244 H   0  0  0  0  0  0  0  0  0  0  0  0
  5  6  2  0  0  0  0
  5  7  1  0  0  0  0
  2  3  1  0  0  0  0
  2  4  1  0  0  0  0
  2  5  1  0  0  0  0
  1  2  1  0  0  0  0
 24 25  2  0  0  0  0
 24 26  1  0  0  0  0
 20 21  1  0  0  0  0
 20 22  1  0  0  0  0
 20 23  1  0  0  0  0
 16 17  1  0  0  0  0
 16 18  1  0  0  0  0
 16 19  1  0  0  0  0
 14 15  1  0  0  0  0
 14 16  1  0  0  0  0
 14 20  1  0  0  0  0
 11 12  1  0  0  0  0
 11 13  1  0  0  0  0
 11 14  1  0  0  0  0
  9 10  1  0  0  0  0
  9 11  1  0  0  0  0
  9 24  1  0  0  0  0
  7  8  1  0  0  0  0
  7  9  1  0  0  0  0
 28 29  1  0  0  0  0
 28 30  1  0  0  0  0
 28 31  1  0  0  0  0
 26 27  1  0  0  0  0
 26 28  1  0  0  0  0
M  END
$$$$
default_name
  -OEChem-02102213163D

 31 30  0     1  0  0  0  0  0999 V2000
   -3.5895   -3.5013    1.1082 H   0  0  0  0  0  0  0  0  0  0  0  0
   -3.5145   -2.5363    0.6082 C   0  0  0  0  0  0  0  0  0  0  0  0
   -4.2285   -1.8413    1.0452 H   0  0  0  0  0  0  0  0  0  0  0  0
   -3.7155   -2.6583   -0.4538 H   0  0  0  0  0  0  0  0  0  0  0  0
   -2.1155   -1.9963    0.7922 C   0  0  0  0  0  0  0  0  0  0  0  0
   -1.2875   -2.6383    1.4252 O   0  0  0  0  0  0  0  0  0  0  0  0
   -1.8575   -0.8123    0.2402 N   0  0  0  0  0  0  0  0  0  0  0  0
   -2.6005   -0.3333   -0.2478 H   0  0  0  0  0  0  0  0  0  0  0  0
   -0.5675   -0.1203    0.3102 C   0  0  1  0  0  0  0  0  0  0  0  0
    0.1932   -0.7715   -0.1219 H   0  0  0  0  0  0  0  0  0  0  0  0
   -0.6568    1.1713   -0.5294 C   0  0  0  0  0  0  0  0  0  0  0  0
   -0.9256    0.9037   -1.5532 H   0  0  0  0  0  0  0  0  0  0  0  0
   -1.4663    1.7820   -0.1238 H   0  0  0  0  0  0  0  0  0  0  0  0
    0.6189    2.0326   -0.5705 C   0  0  0  0  0  0  0  0  0  0  0  0
    1.3661    1.5539   -1.2035 H   0  0  0  0  0  0  0  0  0  0  0  0
    0.3481    3.4439   -1.1000 C   0  0  0  0  0  0  0  0  0  0  0  0
   -0.4105    3.9309   -0.4857 H   0  0  0  0  0  0  0  0  0  0  0  0
    1.2659    4.0314   -1.0653 H   0  0  0  0  0  0  0  0  0  0  0  0
    0.0014    3.4077   -2.1305 H   0  0  0  0  0  0  0  0  0  0  0  0
    1.2018    2.1594    0.8364 C   0  0  0  0  0  0  0  0  0  0  0  0
    1.4348    1.1690    1.2274 H   0  0  0  0  0  0  0  0  0  0  0  0
    2.1202    2.7457    0.8058 H   0  0  0  0  0  0  0  0  0  0  0  0
    0.4849    2.6478    1.4974 H   0  0  0  0  0  0  0  0  0  0  0  0
   -0.1913    0.1554    1.7759 C   0  0  0  0  0  0  0  0  0  0  0  0
    0.9476   -0.0766    2.1748 O   0  0  0  0  0  0  0  0  0  0  0  0
   -1.1502    0.6393    2.5760 N   0  0  0  0  0  0  0  0  0  0  0  0
   -2.0581    0.8092    2.1736 H   0  0  0  0  0  0  0  0  0  0  0  0
   -0.9568    0.9369    3.9933 C   0  0  0  0  0  0  0  0  0  0  0  0
   -0.1600    1.6750    4.1097 H   0  0  0  0  0  0  0  0  0  0  0  0
   -1.8775    1.3307    4.4266 H   0  0  0  0  0  0  0  0  0  0  0  0
   -0.6678    0.0287    4.5244 H   0  0  0  0  0  0  0  0  0  0  0  0
  5  6  2  0  0  0  0
  5  7  1  0  0  0  0
  2  3  1  0  0  0  0
  2  4  1  0  0  0  0
  2  5  1  0  0  0  0
  1  2  1  0  0  0  0
 24 25  2  0  0  0  0
 24 26  1  0  0  0  0
 20 21  1  0  0  0  0
 20 22  1  0  0  0  0
 20 23  1  0  0  0  0
 16 17  1  0  0  0  0
 16 18  1  0  0  0  0
 16 19  1  0  0  0  0
 14 15  1  0  0  0  0
 14 16  1  0  0  0  0
 14 20  1  0  0  0  0
 11 12  1  0  0  0  0
 11 13  1  0  0  0  0
 11 14  1  0  0  0  0
  9 10  1  0  0  0  0
  9 11  1  0  0  0  0
  9 24  1  0  0  0  0
  7  8  1  0  0  0  0
  7  9  1  0  0  0  0
 28 29  1  0  0  0  0
 28 30  1  0  0  0  0
 28 31  1  0  0  0  0
 26 27  1  0  0  0  0
 26 28  1  0  0  0  0
M  END
$$$$
default_name
  -OEChem-02102213163D

 31 30  0     1  0  0  0  0  0999 V2000
   -3.5895   -3.5013    1.1082 H   0  0  0  0  0  0  0  0  0  0  0  0
   -3.5145   -2.5363    0.6082 C   0  0  0  0  0  0  0  0  0  0  0  0
   -4.2285   -1.8413    1.0452 H   0  0  0  0  0  0  0  0  0  0  0  0
   -3.7155   -2.6583   -0.4538 H   0  0  0  0  0  0  0  0  0  0  0  0
   -2.1155   -1.9963    0.7922 C   0  0  0  0  0  0  0  0  0  0  0  0
   -1.2875   -2.6383    1.4252 O   0  0  0  0  0  0  0  0  0  0  0  0
   -1.8575   -0.8123    0.2402 N   0  0  0  0  0  0  0  0  0  0  0  0
   -2.6005   -0.3333   -0.2478 H   0  0  0  0  0  0  0  0  0  0  0  0
   -0.5675   -0.1203    0.3102 C   0  0  1  0  0  0  0  0  0  0  0  0
    0.1932   -0.7715   -0.1219 H   0  0  0  0  0  0  0  0  0  0  0  0
   -0.6568    1.1713   -0.5294 C   0  0  0  0  0  0  0  0  0  0  0  0
   -0.9256    0.9037   -1.5532 H   0  0  0  0  0  0  0  0  0  0  0  0
   -1.4663    1.7820   -0.1238 H   0  0  0  0  0  0  0  0  0  0  0  0
    0.6189    2.0326   -0.5705 C   0  0  0  0  0  0  0  0  0  0  0  0
    1.2561    1.7078   -1.3931 H   0  0  0  0  0  0  0  0  0  0  0  0
    0.3068    3.5223   -0.7407 C   0  0  0  0  0  0  0  0  0  0  0  0
   -0.3442    3.8590    0.0673 H   0  0  0  0  0  0  0  0  0  0  0  0
    1.2331    4.0967   -0.7151 H   0  0  0  0  0  0  0  0  0  0  0  0
   -0.1854    3.7053   -1.6934 H   0  0  0  0  0  0  0  0  0  0  0  0
    1.4011    1.8592    0.7308 C   0  0  0  0  0  0  0  0  0  0  0  0
    1.6654    0.8101    0.8627 H   0  0  0  0  0  0  0  0  0  0  0  0
    2.3185    2.4465    0.6930 H   0  0  0  0  0  0  0  0  0  0  0  0
    0.7982    2.1877    1.5781 H   0  0  0  0  0  0  0  0  0  0  0  0
   -0.1913    0.1554    1.7759 C   0  0  0  0  0  0  0  0  0  0  0  0
    0.9476   -0.0766    2.1748 O   0  0  0  0  0  0  0  0  0  0  0  0
   -1.1502    0.6393    2.5760 N   0  0  0  0  0  0  0  0  0  0  0  0
   -2.0581    0.8092    2.1736 H   0  0  0  0  0  0  0  0  0  0  0  0
   -0.9568    0.9369    3.9933 C   0  0  0  0  0  0  0  0  0  0  0  0
   -0.1600    1.6750    4.1097 H   0  0  0  0  0  0  0  0  0  0  0  0
   -1.8775    1.3307    4.4266 H   0  0  0  0  0  0  0  0  0  0  0  0
   -0.6678    0.0287    4.5244 H   0  0  0  0  0  0  0  0  0  0  0  0
  5  6  2  0  0  0  0
  5  7  1  0  0  0  0
  2  3  1  0  0  0  0
  2  4  1  0  0  0  0
  2  5  1  0  0  0  0
  1  2  1  0  0  0  0
 24 25  2  0  0  0  0
 24 26  1  0  0  0  0
 20 21  1  0  0  0  0
 20 22  1  0  0  0  0
 20 23  1  0  0  0  0
 16 17  1  0  0  0  0
 16 18  1  0  0  0  0
 16 19  1  0  0  0  0
 14 15  1  0  0  0  0
 14 16  1  0  0  0  0
 14 20  1  0  0  0  0
 11 12  1  0  0  0  0
 11 13  1  0  0  0  0
 11 14  1  0  0  0  0
  9 10  1  0  0  0  0
  9 11  1  0  0  0  0
  9 24  1  0  0  0  0
  7  8  1  0  0  0  0
  7  9  1  0  0  0  0
 28 29  1  0  0  0  0
 28 30  1  0  0  0  0
 28 31  1  0  0  0  0
 26 27  1  0  0  0  0
 26 28  1  0  0  0  0
M  END
$$$$
default_name
  -OEChem-02102213163D

 31 30  0     1  0  0  0  0  0999 V2000
   -3.5895   -3.5013    1.1082 H   0  0  0  0  0  0  0  0  0  0  0  0
   -3.5145   -2.5363    0.6082 C   0  0  0  0  0  0  0  0  0  0  0  0
   -4.2285   -1.8413    1.0452 H   0  0  0  0  0  0  0  0  0  0  0  0
   -3.7155   -2.6583   -0.4538 H   0  0  0  0  0  0  0  0  0  0  0  0
   -2.1155   -1.9963    0.7922 C   0  0  0  0  0  0  0  0  0  0  0  0
   -1.2875   -2.6383    1.4252 O   0  0  0  0  0  0  0  0  0  0  0  0
   -1.8575   -0.8123    0.2402 N   0  0  0  0  0  0  0  0  0  0  0  0
   -2.6005   -0.3333   -0.2478 H   0  0  0  0  0  0  0  0  0  0  0  0
   -0.5675   -0.1203    0.3102 C   0  0  1  0  0  0  0  0  0  0  0  0
    0.1932   -0.7715   -0.1219 H   0  0  0  0  0  0  0  0  0  0  0  0
   -0.6568    1.1713   -0.5294 C   0  0  0  0  0  0  0  0  0  0  0  0
   -0.9256    0.9037   -1.5532 H   0  0  0  0  0  0  0  0  0  0  0  0
   -1.4663    1.7820   -0.1238 H   0  0  0  0  0  0  0  0  0  0  0  0
    0.6189    2.0326   -0.5705 C   0  0  0  0  0  0  0  0  0  0  0  0
    1.1234    1.8978   -1.5273 H   0  0  0  0  0  0  0  0  0  0  0  0
    0.3195    3.5212   -0.3708 C   0  0  0  0  0  0  0  0  0  0  0  0
   -0.2006    3.6706    0.5764 H   0  0  0  0  0  0  0  0  0  0  0  0
    1.2526    4.0849   -0.3581 H   0  0  0  0  0  0  0  0  0  0  0  0
   -0.3006    3.9003   -1.1803 H   0  0  0  0  0  0  0  0  0  0  0  0
    1.5762    1.5905    0.5355 C   0  0  0  0  0  0  0  0  0  0  0  0
    1.8329    0.5399    0.4000 H   0  0  0  0  0  0  0  0  0  0  0  0
    2.4917    2.1804    0.4911 H   0  0  0  0  0  0  0  0  0  0  0  0
    1.1092    1.7239    1.5120 H   0  0  0  0  0  0  0  0  0  0  0  0
   -0.1913    0.1554    1.7759 C   0  0  0  0  0  0  0  0  0  0  0  0
    0.9476   -0.0766    2.1748 O   0  0  0  0  0  0  0  0  0  0  0  0
   -1.1502    0.6393    2.5760 N   0  0  0  0  0  0  0  0  0  0  0  0
   -2.0581    0.8092    2.1736 H   0  0  0  0  0  0  0  0  0  0  0  0
   -0.9568    0.9369    3.9933 C   0  0  0  0  0  0  0  0  0  0  0  0
   -0.1600    1.6750    4.1097 H   0  0  0  0  0  0  0  0  0  0  0  0
   -1.8775    1.3307    4.4266 H   0  0  0  0  0  0  0  0  0  0  0  0
   -0.6678    0.0287    4.5244 H   0  0  0  0  0  0  0  0  0  0  0  0
  5  6  2  0  0  0  0
  5  7  1  0  0  0  0
  2  3  1  0  0  0  0
  2  4  1  0  0  0  0
  2  5  1  0  0  0  0
  1  2  1  0  0  0  0
 24 25  2  0  0  0  0
 24 26  1  0  0  0  0
 20 21  1  0  0  0  0
 20 22  1  0  0  0  0
 20 23  1  0  0  0  0
 16 17  1  0  0  0  0
 16 18  1  0  0  0  0
 16 19  1  0  0  0  0
 14 15  1  0  0  0  0
 14 16  1  0  0  0  0
 14 20  1  0  0  0  0
 11 12  1  0  0  0  0
 11 13  1  0  0  0  0
 11 14  1  0  0  0  0
  9 10  1  0  0  0  0
  9 11  1  0  0  0  0
  9 24  1  0  0  0  0
  7  8  1  0  0  0  0
  7  9  1  0  0  0  0
 28 29  1  0  0  0  0
 28 30  1  0  0  0  0
 28 31  1  0  0  0  0
 26 27  1  0  0  0  0
 26 28  1  0  0  0  0
M  END
$$$$
default_name
  -OEChem-02102213163D

 31 30  0     1  0  0  0  0  0999 V2000
   -3.5895   -3.5013    1.1082 H   0  0  0  0  0  0  0  0  0  0  0  0
   -3.5145   -2.5363    0.6082 C   0  0  0  0  0  0  0  0  0  0  0  0
   -4.2285   -1.8413    1.0452 H   0  0  0  0  0  0  0  0  0  0  0  0
   -3.7155   -2.6583   -0.4538 H   0  0  0  0  0  0  0  0  0  0  0  0
   -2.1155   -1.9963    0.7922 C   0  0  0  0  0  0  0  0  0  0  0  0
   -1.2875   -2.6383    1.4252 O   0  0  0  0  0  0  0  0  0  0  0  0
   -1.8575   -0.8123    0.2402 N   0  0  0  0  0  0  0  0  0  0  0  0
   -2.6005   -0.3333   -0.2478 H   0  0  0  0  0  0  0  0  0  0  0  0
   -0.5675   -0.1203    0.3102 C   0  0  1  0  0  0  0  0  0  0  0  0
    0.1932   -0.7715   -0.1219 H   0  0  0  0  0  0  0  0  0  0  0  0
   -0.6568    1.1713   -0.5294 C   0  0  0  0  0  0  0  0  0  0  0  0
   -0.9256    0.9037   -1.5532 H   0  0  0  0  0  0  0  0  0  0  0  0
   -1.4663    1.7820   -0.1238 H   0  0  0  0  0  0  0  0  0  0  0  0
    0.6189    2.0326   -0.5705 C   0  0  0  0  0  0  0  0  0  0  0  0
    0.9772    2.1111   -1.5970 H   0  0  0  0  0  0  0  0  0  0  0  0
    0.3852    3.4407   -0.0156 C   0  0  0  0  0  0  0  0  0  0  0  0
    0.0106    3.3785    1.0070 H   0  0  0  0  0  0  0  0  0  0  0  0
    1.3230    3.9968   -0.0185 H   0  0  0  0  0  0  0  0  0  0  0  0
   -0.3362    3.9795   -0.6262 H   0  0  0  0  0  0  0  0  0  0  0  0
    1.7153    1.3716    0.2640 C   0  0  0  0  0  0  0  0  0  0  0  0
    1.9258    0.3770   -0.1290 H   0  0  0  0  0  0  0  0  0  0  0  0
    2.6280    1.9654    0.2140 H   0  0  0  0  0  0  0  0  0  0  0  0
    1.3969    1.2878    1.3037 H   0  0  0  0  0  0  0  0  0  0  0  0
   -0.1913    0.1554    1.7759 C   0  0  0  0  0  0  0  0  0  0  0  0
    0.9476   -0.0766    2.1748 O   0  0  0  0  0  0  0  0  0  0  0  0
   -1.1502    0.6393    2.5760 N   0  0  0  0  0  0  0  0  0  0  0  0
   -2.0581    0.8092    2.1736 H   0  0  0  0  0  0  0  0  0  0  0  0
   -0.9568    0.9369    3.9933 C   0  0  0  0  0  0  0  0  0  0  0  0
   -0.1600    1.6750    4.1097 H   0  0  0  0  0  0  0  0  0  0  0  0
   -1.8775    1.3307    4.4266 H   0  0  0  0  0  0  0  0  0  0  0  0
   -0.6678    0.0287    4.5244 H   0  0  0  0  0  0  0  0  0  0  0  0
  5  6  2  0  0  0  0
  5  7  1  0  0  0  0
  2  3  1  0  0  0  0
  2  4  1  0  0  0  0
  2  5  1  0  0  0  0
  1  2  1  0  0  0  0
 24 25  2  0  0  0  0
 24 26  1  0  0  0  0
 20 21  1  0  0  0  0
 20 22  1  0  0  0  0
 20 23  1  0  0  0  0
 16 17  1  0  0  0  0
 16 18  1  0  0  0  0
 16 19  1  0  0  0  0
 14 15  1  0  0  0  0
 14 16  1  0  0  0  0
 14 20  1  0  0  0  0
 11 12  1  0  0  0  0
 11 13  1  0  0  0  0
 11 14  1  0  0  0  0
  9 10  1  0  0  0  0
  9 11  1  0  0  0  0
  9 24  1  0  0  0  0
  7  8  1  0  0  0  0
  7  9  1  0  0  0  0
 28 29  1  0  0  0  0
 28 30  1  0  0  0  0
 28 31  1  0  0  0  0
 26 27  1  0  0  0  0
 26 28  1  0  0  0  0
M  END
$$$$
default_name
  -OEChem-02102213163D

 31 30  0     1  0  0  0  0  0999 V2000
   -3.5895   -3.5013    1.1082 H   0  0  0  0  0  0  0  0  0  0  0  0
   -3.5145   -2.5363    0.6082 C   0  0  0  0  0  0  0  0  0  0  0  0
   -4.2285   -1.8413    1.0452 H   0  0  0  0  0  0  0  0  0  0  0  0
   -3.7155   -2.6583   -0.4538 H   0  0  0  0  0  0  0  0  0  0  0  0
   -2.1155   -1.9963    0.7922 C   0  0  0  0  0  0  0  0  0  0  0  0
   -1.2875   -2.6383    1.4252 O   0  0  0  0  0  0  0  0  0  0  0  0
   -1.8575   -0.8123    0.2402 N   0  0  0  0  0  0  0  0  0  0  0  0
   -2.6005   -0.3333   -0.2478 H   0  0  0  0  0  0  0  0  0  0  0  0
   -0.5675   -0.1203    0.3102 C   0  0  1  0  0  0  0  0  0  0  0  0
    0.1932   -0.7715   -0.1219 H   0  0  0  0  0  0  0  0  0  0  0  0
   -0.6568    1.1713   -0.5294 C   0  0  0  0  0  0  0  0  0  0  0  0
   -0.9256    0.9037   -1.5532 H   0  0  0  0  0  0  0  0  0  0  0  0
   -1.4663    1.7820   -0.1238 H   0  0  0  0  0  0  0  0  0  0  0  0
    0.6189    2.0326   -0.5705 C   0  0  0  0  0  0  0  0  0  0  0  0
    0.8273    2.3331   -1.5974 H   0  0  0  0  0  0  0  0  0  0  0  0
    0.4996    3.2864    0.3007 C   0  0  0  0  0  0  0  0  0  0  0  0
    0.2748    3.0025    1.3297 H   0  0  0  0  0  0  0  0  0  0  0  0
    1.4396    3.8384    0.2804 H   0  0  0  0  0  0  0  0  0  0  0  0
   -0.2898    3.9374   -0.0688 H   0  0  0  0  0  0  0  0  0  0  0  0
    1.8087    1.2175   -0.0654 C   0  0  0  0  0  0  0  0  0  0  0  0
    1.9379    0.3325   -0.6884 H   0  0  0  0  0  0  0  0  0  0  0  0
    2.7180    1.8162   -0.1195 H   0  0  0  0  0  0  0  0  0  0  0  0
    1.6417    0.9094    0.9673 H   0  0  0  0  0  0  0  0  0  0  0  0
   -0.1913    0.1554    1.7759 C   0  0  0  0  0  0  0  0  0  0  0  0
    0.9476   -0.0766    2.1748 O   0  0  0  0  0  0  0  0  0  0  0  0
   -1.1502    0.6393    2.5760 N   0  0  0  0  0  0  0  0  0  0  0  0
   -2.0581    0.8092    2.1736 H   0  0  0  0  0  0  0  0  0  0  0  0
   -0.9568    0.9369    3.9933 C   0  0  0  0  0  0  0  0  0  0  0  0
   -0.1600    1.6750    4.1097 H   0  0  0  0  0  0  0  0  0  0  0  0
   -1.8775    1.3307    4.4266 H   0  0  0  0  0  0  0  0  0  0  0  0
   -0.6678    0.0287    4.5244 H   0  0  0  0  0  0  0  0  0  0  0  0
  5  6  2  0  0  0  0
  5  7  1  0  0  0  0
  2  3  1  0  0  0  0
  2  4  1  0  0  0  0
  2  5  1  0  0  0  0
  1  2  1  0  0  0  0
 24 25  2  0  0  0  0
 24 26  1  0  0  0  0
 20 21  1  0  0  0  0
 20 22  1  0  0  0  0
 20 23  1  0  0  0  0
 16 17  1  0  0  0  0
 16 18  1  0  0  0  0
 16 19  1  0  0  0  0
 14 15  1  0  0  0  0
 14 16  1  0  0  0  0
 14 20  1  0  0  0  0
 11 12  1  0  0  0  0
 11 13  1  0  0  0  0
 11 14  1  0  0  0  0
  9 10  1  0  0  0  0
  9 11  1  0  0  0  0
  9 24  1  0  0  0  0
  7  8  1  0  0  0  0
  7  9  1  0  0  0  0
 28 29  1  0  0  0  0
 28 30  1  0  0  0  0
 28 31  1  0  0  0  0
 26 27  1  0  0  0  0
 26 28  1  0  0  0  0
M  END
$$$$
default_name
  -OEChem-02102213163D

 31 30  0     1  0  0  0  0  0999 V2000
   -3.5895   -3.5013    1.1082 H   0  0  0  0  0  0  0  0  0  0  0  0
   -3.5145   -2.5363    0.6082 C   0  0  0  0  0  0  0  0  0  0  0  0
   -4.2285   -1.8413    1.0452 H   0  0  0  0  0  0  0  0  0  0  0  0
   -3.7155   -2.6583   -0.4538 H   0  0  0  0  0  0  0  0  0  0  0  0
   -2.1155   -1.9963    0.7922 C   0  0  0  0  0  0  0  0  0  0  0  0
   -1.2875   -2.6383    1.4252 O   0  0  0  0  0  0  0  0  0  0  0  0
   -1.8575   -0.8123    0.2402 N   0  0  0  0  0  0  0  0  0  0  0  0
   -2.6005   -0.3333   -0.2478 H   0  0  0  0  0  0  0  0  0  0  0  0
   -0.5675   -0.1203    0.3102 C   0  0  1  0  0  0  0  0  0  0  0  0
    0.1932   -0.7715   -0.1219 H   0  0  0  0  0  0  0  0  0  0  0  0
   -0.6568    1.1713   -0.5294 C   0  0  0  0  0  0  0  0  0  0  0  0
   -0.9256    0.9037   -1.5532 H   0  0  0  0  0  0  0  0  0  0  0  0
   -1.4663    1.7820   -0.1238 H   0  0  0  0  0  0  0  0  0  0  0  0
    0.6189    2.0326   -0.5705 C   0  0  0  0  0  0  0  0  0  0  0  0
    0.6840    2.5486   -1.5285 H   0  0  0  0  0  0  0  0  0  0  0  0
    0.6548    3.0688    0.5566 C   0  0  0  0  0  0  0  0  0  0  0  0
    0.5742    2.5683    1.5225 H   0  0  0  0  0  0  0  0  0  0  0  0
    1.5944    3.6205    0.5182 H   0  0  0  0  0  0  0  0  0  0  0  0
   -0.1646    3.7769    0.4538 H   0  0  0  0  0  0  0  0  0  0  0  0
    1.8503    1.1386   -0.4302 C   0  0  0  0  0  0  0  0  0  0  0  0
    1.8682    0.4094   -1.2400 H   0  0  0  0  0  0  0  0  0  0  0  0
    2.7556    1.7429   -0.4867 H   0  0  0  0  0  0  0  0  0  0  0  0
    1.8267    0.6142    0.5258 H   0  0  0  0  0  0  0  0  0  0  0  0
   -0.1913    0.1554    1.7759 C   0  0  0  0  0  0  0  0  0  0  0  0
    0.9476   -0.0766    2.1748 O   0  0  0  0  0  0  0  0  0  0  0  0
   -1.1502    0.6393    2.5760 N   0  0  0  0  0  0  0  0  0  0  0  0
   -2.0581    0.8092    2.1736 H   0  0  0  0  0  0  0  0  0  0  0  0
   -0.9568    0.9369    3.9933 C   0  0  0  0  0  0  0  0  0  0  0  0
   -0.1600    1.6750    4.1097 H   0  0  0  0  0  0  0  0  0  0  0  0
   -1.8775    1.3307    4.4266 H   0  0  0  0  0  0  0  0  0  0  0  0
   -0.6678    0.0287    4.5244 H   0  0  0  0  0  0  0  0  0  0  0  0
  5  6  2  0  0  0  0
  5  7  1  0  0  0  0
  2  3  1  0  0  0  0
  2  4  1  0  0  0  0
  2  5  1  0  0  0  0
  1  2  1  0  0  0  0
 24 25  2  0  0  0  0
 24 26  1  0  0  0  0
 20 21  1  0  0  0  0
 20 22  1  0  0  0  0
 20 23  1  0  0  0  0
 16 17  1  0  0  0  0
 16 18  1  0  0  0  0
 16 19  1  0  0  0  0
 14 15  1  0  0  0  0
 14 16  1  0  0  0  0
 14 20  1  0  0  0  0
 11 12  1  0  0  0  0
 11 13  1  0  0  0  0
 11 14  1  0  0  0  0
  9 10  1  0  0  0  0
  9 11  1  0  0  0  0
  9 24  1  0  0  0  0
  7  8  1  0  0  0  0
  7  9  1  0  0  0  0
 28 29  1  0  0  0  0
 28 30  1  0  0  0  0
 28 31  1  0  0  0  0
 26 27  1  0  0  0  0
 26 28  1  0  0  0  0
M  END
$$$$
default_name
  -OEChem-02102213163D

 31 30  0     1  0  0  0  0  0999 V2000
   -3.5895   -3.5013    1.1082 H   0  0  0  0  0  0  0  0  0  0  0  0
   -3.5145   -2.5363    0.6082 C   0  0  0  0  0  0  0  0  0  0  0  0
   -4.2285   -1.8413    1.0452 H   0  0  0  0  0  0  0  0  0  0  0  0
   -3.7155   -2.6583   -0.4538 H   0  0  0  0  0  0  0  0  0  0  0  0
   -2.1155   -1.9963    0.7922 C   0  0  0  0  0  0  0  0  0  0  0  0
   -1.2875   -2.6383    1.4252 O   0  0  0  0  0  0  0  0  0  0  0  0
   -1.8575   -0.8123    0.2402 N   0  0  0  0  0  0  0  0  0  0  0  0
   -2.6005   -0.3333   -0.2478 H   0  0  0  0  0  0  0  0  0  0  0  0
   -0.5675   -0.1203    0.3102 C   0  0  1  0  0  0  0  0  0  0  0  0
    0.1932   -0.7715   -0.1219 H   0  0  0  0  0  0  0  0  0  0  0  0
   -0.6568    1.1713   -0.5294 C   0  0  0  0  0  0  0  0  0  0  0  0
   -0.9256    0.9037   -1.5532 H   0  0  0  0  0  0  0  0  0  0  0  0
   -1.4663    1.7820   -0.1238 H   0  0  0  0  0  0  0  0  0  0  0  0
    0.6189    2.0326   -0.5705 C   0  0  0  0  0  0  0  0  0  0  0  0
    0.5570    2.7430   -1.3950 H   0  0  0  0  0  0  0  0  0  0  0  0
    0.8403    2.8026    0.7346 C   0  0  0  0  0  0  0  0  0  0  0  0
    0.8883    2.1055    1.5724 H   0  0  0  0  0  0  0  0  0  0  0  0
    1.7768    3.3580    0.6788 H   0  0  0  0  0  0  0  0  0  0  0  0
    0.0309    3.5089    0.9060 H   0  0  0  0  0  0  0  0  0  0  0  0
    1.8370    1.1403   -0.8054 C   0  0  0  0  0  0  0  0  0  0  0  0
    1.7216    0.6024   -1.7463 H   0  0  0  0  0  0  0  0  0  0  0  0
    2.7383    1.7507   -0.8625 H   0  0  0  0  0  0  0  0  0  0  0  0
    1.9395    0.4225    0.0093 H   0  0  0  0  0  0  0  0  0  0  0  0
   -0.1913    0.1554    1.7759 C   0  0  0  0  0  0  0  0  0  0  0  0
    0.9476   -0.0766    2.1748 O   0  0  0  0  0  0  0  0  0  0  0  0
   -1.1502    0.6393    2.5760 N   0  0  0  0  0  0  0  0  0  0  0  0
   -2.0581    0.8092    2.1736 H   0  0  0  0  0  0  0  0  0  0  0  0
   -0.9568    0.9369    3.9933 C   0  0  0  0  0  0  0  0  0  0  0  0
   -0.1600    1.6750    4.1097 H   0  0  0  0  0  0  0  0  0  0  0  0
   -1.8775    1.3307    4.4266 H   0  0  0  0  0  0  0  0  0  0  0  0
   -0.6678    0.0287    4.5244 H   0  0  0  0  0  0  0  0  0  0  0  0
  5  6  2  0  0  0  0
  5  7  1  0  0  0  0
  2  3  1  0  0  0  0
  2  4  1  0  0  0  0
  2  5  1  0  0  0  0
  1  2  1  0  0  0  0
 24 25  2  0  0  0  0
 24 26  1  0  0  0  0
 20 21  1  0  0  0  0
 20 22  1  0  0  0  0
 20 23  1  0  0  0  0
 16 17  1  0  0  0  0
 16 18  1  0  0  0  0
 16 19  1  0  0  0  0
 14 15  1  0  0  0  0
 14 16  1  0  0  0  0
 14 20  1  0  0  0  0
 11 12  1  0  0  0  0
 11 13  1  0  0  0  0
 11 14  1  0  0  0  0
  9 10  1  0  0  0  0
  9 11  1  0  0  0  0
  9 24  1  0  0  0  0
  7  8  1  0  0  0  0
  7  9  1  0  0  0  0
 28 29  1  0  0  0  0
 28 30  1  0  0  0  0
 28 31  1  0  0  0  0
 26 27  1  0  0  0  0
 26 28  1  0  0  0  0
M  END
$$$$
default_name
  -OEChem-02102213163D

 31 30  0     1  0  0  0  0  0999 V2000
   -3.5895   -3.5013    1.1082 H   0  0  0  0  0  0  0  0  0  0  0  0
   -3.5145   -2.5363    0.6082 C   0  0  0  0  0  0  0  0  0  0  0  0
   -4.2285   -1.8413    1.0452 H   0  0  0  0  0  0  0  0  0  0  0  0
   -3.7155   -2.6583   -0.4538 H   0  0  0  0  0  0  0  0  0  0  0  0
   -2.1155   -1.9963    0.7922 C   0  0  0  0  0  0  0  0  0  0  0  0
   -1.2875   -2.6383    1.4252 O   0  0  0  0  0  0  0  0  0  0  0  0
   -1.8575   -0.8123    0.2402 N   0  0  0  0  0  0  0  0  0  0  0  0
   -2.6005   -0.3333   -0.2478 H   0  0  0  0  0  0  0  0  0  0  0  0
   -0.5675   -0.1203    0.3102 C   0  0  1  0  0  0  0  0  0  0  0  0
    0.1932   -0.7715   -0.1219 H   0  0  0  0  0  0  0  0  0  0  0  0
   -0.6568    1.1713   -0.5294 C   0  0  0  0  0  0  0  0  0  0  0  0
   -0.9256    0.9037   -1.5532 H   0  0  0  0  0  0  0  0  0  0  0  0
   -1.4663    1.7820   -0.1238 H   0  0  0  0  0  0  0  0  0  0  0  0
    0.6189    2.0326   -0.5705 C   0  0  0  0  0  0  0  0  0  0  0  0
    0.4550    2.9030   -1.2060 H   0  0  0  0  0  0  0  0  0  0  0  0
    1.0434    2.5060    0.8226 C   0  0  0  0  0  0  0  0  0  0  0  0
    1.1958    1.6456    1.4758 H   0  0  0  0  0  0  0  0  0  0  0  0
    1.9745    3.0687    0.7513 H   0  0  0  0  0  0  0  0  0  0  0  0
    0.2834    3.1518    1.2571 H   0  0  0  0  0  0  0  0  0  0  0  0
    1.7699    1.2224   -1.1656 C   0  0  0  0  0  0  0  0  0  0  0  0
    1.5080    0.8983   -2.1727 H   0  0  0  0  0  0  0  0  0  0  0  0
    2.6672    1.8388   -1.2213 H   0  0  0  0  0  0  0  0  0  0  0  0
    1.9724    0.3473   -0.5471 H   0  0  0  0  0  0  0  0  0  0  0  0
   -0.1913    0.1554    1.7759 C   0  0  0  0  0  0  0  0  0  0  0  0
    0.9476   -0.0766    2.1748 O   0  0  0  0  0  0  0  0  0  0  0  0
   -1.1502    0.6393    2.5760 N   0  0  0  0  0  0  0  0  0  0  0  0
   -2.0581    0.8092    2.1736 H   0  0  0  0  0  0  0  0  0  0  0  0
   -0.9568    0.9369    3.9933 C   0  0  0  0  0  0  0  0  0  0  0  0
   -0.1600    1.6750    4.1097 H   0  0  0  0  0  0  0  0  0  0  0  0
   -1.8775    1.3307    4.4266 H   0  0  0  0  0  0  0  0  0  0  0  0
   -0.6678    0.0287    4.5244 H   0  0  0  0  0  0  0  0  0  0  0  0
  5  6  2  0  0  0  0
  5  7  1  0  0  0  0
  2  3  1  0  0  0  0
  2  4  1  0  0  0  0
  2  5  1  0  0  0  0
  1  2  1  0  0  0  0
 24 25  2  0  0  0  0
 24 26  1  0  0  0  0
 20 21  1  0  0  0  0
 20 22  1  0  0  0  0
 20 23  1  0  0  0  0
 16 17  1  0  0  0  0
 16 18  1  0  0  0  0
 16 19  1  0  0  0  0
 14 15  1  0  0  0  0
 14 16  1  0  0  0  0
 14 20  1  0  0  0  0
 11 12  1  0  0  0  0
 11 13  1  0  0  0  0
 11 14  1  0  0  0  0
  9 10  1  0  0  0  0
  9 11  1  0  0  0  0
  9 24  1  0  0  0  0
  7  8  1  0  0  0  0
  7  9  1  0  0  0  0
 28 29  1  0  0  0  0
 28 30  1  0  0  0  0
 28 31  1  0  0  0  0
 26 27  1  0  0  0  0
 26 28  1  0  0  0  0
M  END
$$$$
default_name
  -OEChem-02102213163D

 31 30  0     1  0  0  0  0  0999 V2000
   -3.5895   -3.5013    1.1082 H   0  0  0  0  0  0  0  0  0  0  0  0
   -3.5145   -2.5363    0.6082 C   0  0  0  0  0  0  0  0  0  0  0  0
   -4.2285   -1.8413    1.0452 H   0  0  0  0  0  0  0  0  0  0  0  0
   -3.7155   -2.6583   -0.4538 H   0  0  0  0  0  0  0  0  0  0  0  0
   -2.1155   -1.9963    0.7922 C   0  0  0  0  0  0  0  0  0  0  0  0
   -1.2875   -2.6383    1.4252 O   0  0  0  0  0  0  0  0  0  0  0  0
   -1.8575   -0.8123    0.2402 N   0  0  0  0  0  0  0  0  0  0  0  0
   -2.6005   -0.3333   -0.2478 H   0  0  0  0  0  0  0  0  0  0  0  0
   -0.5675   -0.1203    0.3102 C   0  0  1  0  0  0  0  0  0  0  0  0
    0.1932   -0.7715   -0.1219 H   0  0  0  0  0  0  0  0  0  0  0  0
   -0.6568    1.1713   -0.5294 C   0  0  0  0  0  0  0  0  0  0  0  0
   -0.9256    0.9037   -1.5532 H   0  0  0  0  0  0  0  0  0  0  0  0
   -1.4663    1.7820   -0.1238 H   0  0  0  0  0  0  0  0  0  0  0  0
    0.6189    2.0326   -0.5705 C   0  0  0  0  0  0  0  0  0  0  0  0
    0.3850    3.0178   -0.9743 H   0  0  0  0  0  0  0  0  0  0  0  0
    1.2503    2.1992    0.8147 C   0  0  0  0  0  0  0  0  0  0  0  0
    1.4756    1.2200    1.2394 H   0  0  0  0  0  0  0  0  0  0  0  0
    2.1739    2.7724    0.7306 H   0  0  0  0  0  0  0  0  0  0  0  0
    0.5756    2.7298    1.4831 H   0  0  0  0  0  0  0  0  0  0  0  0
    1.6535    1.3795   -1.4862 C   0  0  0  0  0  0  0  0  0  0  0  0
    1.2420    1.2772   -2.4902 H   0  0  0  0  0  0  0  0  0  0  0  0
    2.5471    2.0014   -1.5387 H   0  0  0  0  0  0  0  0  0  0  0  0
    1.9230    0.3937   -1.1054 H   0  0  0  0  0  0  0  0  0  0  0  0
   -0.1913    0.1554    1.7759 C   0  0  0  0  0  0  0  0  0  0  0  0
    0.9476   -0.0766    2.1748 O   0  0  0  0  0  0  0  0  0  0  0  0
   -1.1502    0.6393    2.5760 N   0  0  0  0  0  0  0  0  0  0  0  0
   -2.0581    0.8092    2.1736 H   0  0  0  0  0  0  0  0  0  0  0  0
   -0.9568    0.9369    3.9933 C   0  0  0  0  0  0  0  0  0  0  0  0
   -0.1600    1.6750    4.1097 H   0  0  0  0  0  0  0  0  0  0  0  0
   -1.8775    1.3307    4.4266 H   0  0  0  0  0  0  0  0  0  0  0  0
   -0.6678    0.0287    4.5244 H   0  0  0  0  0  0  0  0  0  0  0  0
  5  6  2  0  0  0  0
  5  7  1  0  0  0  0
  2  3  1  0  0  0  0
  2  4  1  0  0  0  0
  2  5  1  0  0  0  0
  1  2  1  0  0  0  0
 24 25  2  0  0  0  0
 24 26  1  0  0  0  0
 20 21  1  0  0  0  0
 20 22  1  0  0  0  0
 20 23  1  0  0  0  0
 16 17  1  0  0  0  0
 16 18  1  0  0  0  0
 16 19  1  0  0  0  0
 14 15  1  0  0  0  0
 14 16  1  0  0  0  0
 14 20  1  0  0  0  0
 11 12  1  0  0  0  0
 11 13  1  0  0  0  0
 11 14  1  0  0  0  0
  9 10  1  0  0  0  0
  9 11  1  0  0  0  0
  9 24  1  0  0  0  0
  7  8  1  0  0  0  0
  7  9  1  0  0  0  0
 28 29  1  0  0  0  0
 28 30  1  0  0  0  0
 28 31  1  0  0  0  0
 26 27  1  0  0  0  0
 26 28  1  0  0  0  0
M  END
$$$$
default_name
  -OEChem-02102213163D

 31 30  0     1  0  0  0  0  0999 V2000
   -3.5895   -3.5013    1.1082 H   0  0  0  0  0  0  0  0  0  0  0  0
   -3.5145   -2.5363    0.6082 C   0  0  0  0  0  0  0  0  0  0  0  0
   -4.2285   -1.8413    1.0452 H   0  0  0  0  0  0  0  0  0  0  0  0
   -3.7155   -2.6583   -0.4538 H   0  0  0  0  0  0  0  0  0  0  0  0
   -2.1155   -1.9963    0.7922 C   0  0  0  0  0  0  0  0  0  0  0  0
   -1.2875   -2.6383    1.4252 O   0  0  0  0  0  0  0  0  0  0  0  0
   -1.8575   -0.8123    0.2402 N   0  0  0  0  0  0  0  0  0  0  0  0
   -2.6005   -0.3333   -0.2478 H   0  0  0  0  0  0  0  0  0  0  0  0
   -0.5675   -0.1203    0.3102 C   0  0  1  0  0  0  0  0  0  0  0  0
    0.1932   -0.7715   -0.1219 H   0  0  0  0  0  0  0  0  0  0  0  0
   -0.6568    1.1713   -0.5294 C   0  0  0  0  0  0  0  0  0  0  0  0
   -0.9256    0.9037   -1.5532 H   0  0  0  0  0  0  0  0  0  0  0  0
   -1.4663    1.7820   -0.1238 H   0  0  0  0  0  0  0  0  0  0  0  0
    0.6189    2.0326   -0.5705 C   0  0  0  0  0  0  0  0  0  0  0  0
    0.3517    3.0794   -0.7158 H   0  0  0  0  0  0  0  0  0  0  0  0
    1.4468    1.9032    0.7112 C   0  0  0  0  0  0  0  0  0  0  0  0
    1.7086    0.8576    0.8792 H   0  0  0  0  0  0  0  0  0  0  0  0
    2.3615    2.4892    0.6183 H   0  0  0  0  0  0  0  0  0  0  0  0
    0.8877    2.2717    1.5686 H   0  0  0  0  0  0  0  0  0  0  0  0
    1.4958    1.6008   -1.7453 C   0  0  0  0  0  0  0  0  0  0  0  0
    0.9417    1.7130   -2.6771 H   0  0  0  0  0  0  0  0  0  0  0  0
    2.3864    2.2274   -1.7931 H   0  0  0  0  0  0  0  0  0  0  0  0
    1.7948    0.5587   -1.6276 H   0  0  0  0  0  0  0  0  0  0  0  0
   -0.1913    0.1554    1.7759 C   0  0  0  0  0  0  0  0  0  0  0  0
    0.9476   -0.0766    2.1748 O   0  0  0  0  0  0  0  0  0  0  0  0
   -1.1502    0.6393    2.5760 N   0  0  0  0  0  0  0  0  0  0  0  0
   -2.0581    0.8092    2.1736 H   0  0  0  0  0  0  0  0  0  0  0  0
   -0.9568    0.9369    3.9933 C   0  0  0  0  0  0  0  0  0  0  0  0
   -0.1600    1.6750    4.1097 H   0  0  0  0  0  0  0  0  0  0  0  0
   -1.8775    1.3307    4.4266 H   0  0  0  0  0  0  0  0  0  0  0  0
   -0.6678    0.0287    4.5244 H   0  0  0  0  0  0  0  0  0  0  0  0
  5  6  2  0  0  0  0
  5  7  1  0  0  0  0
  2  3  1  0  0  0  0
  2  4  1  0  0  0  0
  2  5  1  0  0  0  0
  1  2  1  0  0  0  0
 24 25  2  0  0  0  0
 24 26  1  0  0  0  0
 20 21  1  0  0  0  0
 20 22  1  0  0  0  0
 20 23  1  0  0  0  0
 16 17  1  0  0  0  0
 16 18  1  0  0  0  0
 16 19  1  0  0  0  0
 14 15  1  0  0  0  0
 14 16  1  0  0  0  0
 14 20  1  0  0  0  0
 11 12  1  0  0  0  0
 11 13  1  0  0  0  0
 11 14  1  0  0  0  0
  9 10  1  0  0  0  0
  9 11  1  0  0  0  0
  9 24  1  0  0  0  0
  7  8  1  0  0  0  0
  7  9  1  0  0  0  0
 28 29  1  0  0  0  0
 28 30  1  0  0  0  0
 28 31  1  0  0  0  0
 26 27  1  0  0  0  0
 26 28  1  0  0  0  0
M  END
$$$$
default_name
  -OEChem-02102213163D

 31 30  0     1  0  0  0  0  0999 V2000
   -3.5895   -3.5013    1.1082 H   0  0  0  0  0  0  0  0  0  0  0  0
   -3.5145   -2.5363    0.6082 C   0  0  0  0  0  0  0  0  0  0  0  0
   -4.2285   -1.8413    1.0452 H   0  0  0  0  0  0  0  0  0  0  0  0
   -3.7155   -2.6583   -0.4538 H   0  0  0  0  0  0  0  0  0  0  0  0
   -2.1155   -1.9963    0.7922 C   0  0  0  0  0  0  0  0  0  0  0  0
   -1.2875   -2.6383    1.4252 O   0  0  0  0  0  0  0  0  0  0  0  0
   -1.8575   -0.8123    0.2402 N   0  0  0  0  0  0  0  0  0  0  0  0
   -2.6005   -0.3333   -0.2478 H   0  0  0  0  0  0  0  0  0  0  0  0
   -0.5675   -0.1203    0.3102 C   0  0  1  0  0  0  0  0  0  0  0  0
    0.1932   -0.7715   -0.1219 H   0  0  0  0  0  0  0  0  0  0  0  0
   -0.6568    1.1713   -0.5294 C   0  0  0  0  0  0  0  0  0  0  0  0
   -0.9256    0.9037   -1.5532 H   0  0  0  0  0  0  0  0  0  0  0  0
   -1.4663    1.7820   -0.1238 H   0  0  0  0  0  0  0  0  0  0  0  0
    0.6189    2.0326   -0.5705 C   0  0  0  0  0  0  0  0  0  0  0  0
    0.3574    3.0837   -0.4481 H   0  0  0  0  0  0  0  0  0  0  0  0
    1.6197    1.6381    0.5194 C   0  0  0  0  0  0  0  0  0  0  0  0
    1.8791    0.5832    0.4199 H   0  0  0  0  0  0  0  0  0  0  0  0
    2.5244    2.2385    0.4218 H   0  0  0  0  0  0  0  0  0  0  0  0
    1.1984    1.8087    1.5078 H   0  0  0  0  0  0  0  0  0  0  0  0
    1.3074    1.8712   -1.9253 C   0  0  0  0  0  0  0  0  0  0  0  0
    0.6275    2.1761   -2.7208 H   0  0  0  0  0  0  0  0  0  0  0  0
    2.1958    2.5013   -1.9670 H   0  0  0  0  0  0  0  0  0  0  0  0
    1.5965    0.8308   -2.0781 H   0  0  0  0  0  0  0  0  0  0  0  0
   -0.1913    0.1554    1.7759 C   0  0  0  0  0  0  0  0  0  0  0  0
    0.9476   -0.0766    2.1748 O   0  0  0  0  0  0  0  0  0  0  0  0
   -1.1502    0.6393    2.5760 N   0  0  0  0  0  0  0  0  0  0  0  0
   -2.0581    0.8092    2.1736 H   0  0  0  0  0  0  0  0  0  0  0  0
   -0.9568    0.9369    3.9933 C   0  0  0  0  0  0  0  0  0  0  0  0
   -0.1600    1.6750    4.1097 H   0  0  0  0  0  0  0  0  0  0  0  0
   -1.8775    1.3307    4.4266 H   0  0  0  0  0  0  0  0  0  0  0  0
   -0.6678    0.0287    4.5244 H   0  0  0  0  0  0  0  0  0  0  0  0
  5  6  2  0  0  0  0
  5  7  1  0  0  0  0
  2  3  1  0  0  0  0
  2  4  1  0  0  0  0
  2  5  1  0  0  0  0
  1  2  1  0  0  0  0
 24 25  2  0  0  0  0
 24 26  1  0  0  0  0
 20 21  1  0  0  0  0
 20 22  1  0  0  0  0
 20 23  1  0  0  0  0
 16 17  1  0  0  0  0
 16 18  1  0  0  0  0
 16 19  1  0  0  0  0
 14 15  1  0  0  0  0
 14 16  1  0  0  0  0
 14 20  1  0  0  0  0
 11 12  1  0  0  0  0
 11 13  1  0  0  0  0
 11 14  1  0  0  0  0
  9 10  1  0  0  0  0
  9 11  1  0  0  0  0
  9 24  1  0  0  0  0
  7  8  1  0  0  0  0
  7  9  1  0  0  0  0
 28 29  1  0  0  0  0
 28 30  1  0  0  0  0
 28 31  1  0  0  0  0
 26 27  1  0  0  0  0
 26 28  1  0  0  0  0
M  END
$$$$
default_name
  -OEChem-02102213163D

 31 30  0     1  0  0  0  0  0999 V2000
   -3.5895   -3.5013    1.1082 H   0  0  0  0  0  0  0  0  0  0  0  0
   -3.5145   -2.5363    0.6082 C   0  0  0  0  0  0  0  0  0  0  0  0
   -4.2285   -1.8413    1.0452 H   0  0  0  0  0  0  0  0  0  0  0  0
   -3.7155   -2.6583   -0.4538 H   0  0  0  0  0  0  0  0  0  0  0  0
   -2.1155   -1.9963    0.7922 C   0  0  0  0  0  0  0  0  0  0  0  0
   -1.2875   -2.6383    1.4252 O   0  0  0  0  0  0  0  0  0  0  0  0
   -1.8575   -0.8123    0.2402 N   0  0  0  0  0  0  0  0  0  0  0  0
   -2.6005   -0.3333   -0.2478 H   0  0  0  0  0  0  0  0  0  0  0  0
   -0.5675   -0.1203    0.3102 C   0  0  1  0  0  0  0  0  0  0  0  0
    0.1932   -0.7715   -0.1219 H   0  0  0  0  0  0  0  0  0  0  0  0
   -0.6568    1.1713   -0.5294 C   0  0  0  0  0  0  0  0  0  0  0  0
   -0.9256    0.9037   -1.5532 H   0  0  0  0  0  0  0  0  0  0  0  0
   -1.4663    1.7820   -0.1238 H   0  0  0  0  0  0  0  0  0  0  0  0
    0.6189    2.0326   -0.5705 C   0  0  0  0  0  0  0  0  0  0  0  0
    0.4017    3.0305   -0.1893 H   0  0  0  0  0  0  0  0  0  0  0  0
    1.7570    1.4220    0.2522 C   0  0  0  0  0  0  0  0  0  0  0  0
    1.9754    0.4155   -0.1073 H   0  0  0  0  0  0  0  0  0  0  0  0
    2.6517    2.0373    0.1547 H   0  0  0  0  0  0  0  0  0  0  0  0
    1.4864    1.3724    1.3048 H   0  0  0  0  0  0  0  0  0  0  0  0
    1.1012    2.1723   -2.0139 C   0  0  0  0  0  0  0  0  0  0  0  0
    0.3210    2.6350   -2.6181 H   0  0  0  0  0  0  0  0  0  0  0  0
    1.9885    2.8045   -2.0487 H   0  0  0  0  0  0  0  0  0  0  0  0
    1.3417    1.1916   -2.4261 H   0  0  0  0  0  0  0  0  0  0  0  0
   -0.1913    0.1554    1.7759 C   0  0  0  0  0  0  0  0  0  0  0  0
    0.9476   -0.0766    2.1748 O   0  0  0  0  0  0  0  0  0  0  0  0
   -1.1502    0.6393    2.5760 N   0  0  0  0  0  0  0  0  0  0  0  0
   -2.0581    0.8092    2.1736 H   0  0  0  0  0  0  0  0  0  0  0  0
   -0.9568    0.9369    3.9933 C   0  0  0  0  0  0  0  0  0  0  0  0
   -0.1600    1.6750    4.1097 H   0  0  0  0  0  0  0  0  0  0  0  0
   -1.8775    1.3307    4.4266 H   0  0  0  0  0  0  0  0  0  0  0  0
   -0.6678    0.0287    4.5244 H   0  0  0  0  0  0  0  0  0  0  0  0
  5  6  2  0  0  0  0
  5  7  1  0  0  0  0
  2  3  1  0  0  0  0
  2  4  1  0  0  0  0
  2  5  1  0  0  0  0
  1  2  1  0  0  0  0
 24 25  2  0  0  0  0
 24 26  1  0  0  0  0
 20 21  1  0  0  0  0
 20 22  1  0  0  0  0
 20 23  1  0  0  0  0
 16 17  1  0  0  0  0
 16 18  1  0  0  0  0
 16 19  1  0  0  0  0
 14 15  1  0  0  0  0
 14 16  1  0  0  0  0
 14 20  1  0  0  0  0
 11 12  1  0  0  0  0
 11 13  1  0  0  0  0
 11 14  1  0  0  0  0
  9 10  1  0  0  0  0
  9 11  1  0  0  0  0
  9 24  1  0  0  0  0
  7  8  1  0  0  0  0
  7  9  1  0  0  0  0
 28 29  1  0  0  0  0
 28 30  1  0  0  0  0
 28 31  1  0  0  0  0
 26 27  1  0  0  0  0
 26 28  1  0  0  0  0
M  END
$$$$
default_name
  -OEChem-02102213163D

 31 30  0     1  0  0  0  0  0999 V2000
   -3.5895   -3.5013    1.1082 H   0  0  0  0  0  0  0  0  0  0  0  0
   -3.5145   -2.5363    0.6082 C   0  0  0  0  0  0  0  0  0  0  0  0
   -4.2285   -1.8413    1.0452 H   0  0  0  0  0  0  0  0  0  0  0  0
   -3.7155   -2.6583   -0.4538 H   0  0  0  0  0  0  0  0  0  0  0  0
   -2.1155   -1.9963    0.7922 C   0  0  0  0  0  0  0  0  0  0  0  0
   -1.2875   -2.6383    1.4252 O   0  0  0  0  0  0  0  0  0  0  0  0
   -1.8575   -0.8123    0.2402 N   0  0  0  0  0  0  0  0  0  0  0  0
   -2.6005   -0.3333   -0.2478 H   0  0  0  0  0  0  0  0  0  0  0  0
   -0.5675   -0.1203    0.3102 C   0  0  1  0  0  0  0  0  0  0  0  0
    0.1932   -0.7715   -0.1219 H   0  0  0  0  0  0  0  0  0  0  0  0
   -0.6568    1.1713   -0.5294 C   0  0  0  0  0  0  0  0  0  0  0  0
   -0.9256    0.9037   -1.5532 H   0  0  0  0  0  0  0  0  0  0  0  0
   -1.4663    1.7820   -0.1238 H   0  0  0  0  0  0  0  0  0  0  0  0
    0.6189    2.0326   -0.5705 C   0  0  0  0  0  0  0  0  0  0  0  0
    0.4816    2.9233    0.0427 H   0  0  0  0  0  0  0  0  0  0  0  0
    1.8495    1.2695   -0.0720 C   0  0  0  0  0  0  0  0  0  0  0  0
    1.9909    0.3658   -0.6664 H   0  0  0  0  0  0  0  0  0  0  0  0
    2.7345    1.8994   -0.1648 H   0  0  0  0  0  0  0  0  0  0  0  0
    1.7323    0.9925    0.9734 H   0  0  0  0  0  0  0  0  0  0  0  0
    0.8914    2.4835   -2.0051 C   0  0  0  0  0  0  0  0  0  0  0  0
    0.0429    3.0583   -2.3762 H   0  0  0  0  0  0  0  0  0  0  0  0
    1.7784    3.1163   -2.0326 H   0  0  0  0  0  0  0  0  0  0  0  0
    1.0476    1.6166   -2.6480 H   0  0  0  0  0  0  0  0  0  0  0  0
   -0.1913    0.1554    1.7759 C   0  0  0  0  0  0  0  0  0  0  0  0
    0.9476   -0.0766    2.1748 O   0  0  0  0  0  0  0  0  0  0  0  0
   -1.1502    0.6393    2.5760 N   0  0  0  0  0  0  0  0  0  0  0  0
   -2.0581    0.8092    2.1736 H   0  0  0  0  0  0  0  0  0  0  0  0
   -0.9568    0.9369    3.9933 C   0  0  0  0  0  0  0  0  0  0  0  0
   -0.1600    1.6750    4.1097 H   0  0  0  0  0  0  0  0  0  0  0  0
   -1.8775    1.3307    4.4266 H   0  0  0  0  0  0  0  0  0  0  0  0
   -0.6678    0.0287    4.5244 H   0  0  0  0  0  0  0  0  0  0  0  0
  5  6  2  0  0  0  0
  5  7  1  0  0  0  0
  2  3  1  0  0  0  0
  2  4  1  0  0  0  0
  2  5  1  0  0  0  0
  1  2  1  0  0  0  0
 24 25  2  0  0  0  0
 24 26  1  0  0  0  0
 20 21  1  0  0  0  0
 20 22  1  0  0  0  0
 20 23  1  0  0  0  0
 16 17  1  0  0  0  0
 16 18  1  0  0  0  0
 16 19  1  0  0  0  0
 14 15  1  0  0  0  0
 14 16  1  0  0  0  0
 14 20  1  0  0  0  0
 11 12  1  0  0  0  0
 11 13  1  0  0  0  0
 11 14  1  0  0  0  0
  9 10  1  0  0  0  0
  9 11  1  0  0  0  0
  9 24  1  0  0  0  0
  7  8  1  0  0  0  0
  7  9  1  0  0  0  0
 28 29  1  0  0  0  0
 28 30  1  0  0  0  0
 28 31  1  0  0  0  0
 26 27  1  0  0  0  0
 26 28  1  0  0  0  0
M  END
$$$$
default_name
  -OEChem-02102213163D

 31 30  0     1  0  0  0  0  0999 V2000
   -3.5895   -3.5013    1.1082 H   0  0  0  0  0  0  0  0  0  0  0  0
   -3.5145   -2.5363    0.6082 C   0  0  0  0  0  0  0  0  0  0  0  0
   -4.2285   -1.8413    1.0452 H   0  0  0  0  0  0  0  0  0  0  0  0
   -3.7155   -2.6583   -0.4538 H   0  0  0  0  0  0  0  0  0  0  0  0
   -2.1155   -1.9963    0.7922 C   0  0  0  0  0  0  0  0  0  0  0  0
   -1.2875   -2.6383    1.4252 O   0  0  0  0  0  0  0  0  0  0  0  0
   -1.8575   -0.8123    0.2402 N   0  0  0  0  0  0  0  0  0  0  0  0
   -2.6005   -0.3333   -0.2478 H   0  0  0  0  0  0  0  0  0  0  0  0
   -0.5675   -0.1203    0.3102 C   0  0  1  0  0  0  0  0  0  0  0  0
    0.1932   -0.7715   -0.1219 H   0  0  0  0  0  0  0  0  0  0  0  0
   -0.6568    1.1713   -0.5294 C   0  0  0  0  0  0  0  0  0  0  0  0
   -0.9256    0.9037   -1.5532 H   0  0  0  0  0  0  0  0  0  0  0  0
   -1.4663    1.7820   -0.1238 H   0  0  0  0  0  0  0  0  0  0  0  0
    0.6189    2.0326   -0.5705 C   0  0  0  0  0  0  0  0  0  0  0  0
    0.5916    2.7694    0.2323 H   0  0  0  0  0  0  0  0  0  0  0  0
    1.8908    1.1912   -0.4314 C   0  0  0  0  0  0  0  0  0  0  0  0
    1.9246    0.4376   -1.2194 H   0  0  0  0  0  0  0  0  0  0  0  0
    2.7673    1.8341   -0.5150 H   0  0  0  0  0  0  0  0  0  0  0  0
    1.9191    0.6949    0.5363 H   0  0  0  0  0  0  0  0  0  0  0  0
    0.6921    2.7837   -1.8995 C   0  0  0  0  0  0  0  0  0  0  0  0
   -0.1877    3.4173   -2.0115 H   0  0  0  0  0  0  0  0  0  0  0  0
    1.5801    3.4155   -1.9198 H   0  0  0  0  0  0  0  0  0  0  0  0
    0.7344    2.0766   -2.7287 H   0  0  0  0  0  0  0  0  0  0  0  0
   -0.1913    0.1554    1.7759 C   0  0  0  0  0  0  0  0  0  0  0  0
    0.9476   -0.0766    2.1748 O   0  0  0  0  0  0  0  0  0  0  0  0
   -1.1502    0.6393    2.5760 N   0  0  0  0  0  0  0  0  0  0  0  0
   -2.0581    0.8092    2.1736 H   0  0  0  0  0  0  0  0  0  0  0  0
   -0.9568    0.9369    3.9933 C   0  0  0  0  0  0  0  0  0  0  0  0
   -0.1600    1.6750    4.1097 H   0  0  0  0  0  0  0  0  0  0  0  0
   -1.8775    1.3307    4.4266 H   0  0  0  0  0  0  0  0  0  0  0  0
   -0.6678    0.0287    4.5244 H   0  0  0  0  0  0  0  0  0  0  0  0
  5  6  2  0  0  0  0
  5  7  1  0  0  0  0
  2  3  1  0  0  0  0
  2  4  1  0  0  0  0
  2  5  1  0  0  0  0
  1  2  1  0  0  0  0
 24 25  2  0  0  0  0
 24 26  1  0  0  0  0
 20 21  1  0  0  0  0
 20 22  1  0  0  0  0
 20 23  1  0  0  0  0
 16 17  1  0  0  0  0
 16 18  1  0  0  0  0
 16 19  1  0  0  0  0
 14 15  1  0  0  0  0
 14 16  1  0  0  0  0
 14 20  1  0  0  0  0
 11 12  1  0  0  0  0
 11 13  1  0  0  0  0
 11 14  1  0  0  0  0
  9 10  1  0  0  0  0
  9 11  1  0  0  0  0
  9 24  1  0  0  0  0
  7  8  1  0  0  0  0
  7  9  1  0  0  0  0
 28 29  1  0  0  0  0
 28 30  1  0  0  0  0
 28 31  1  0  0  0  0
 26 27  1  0  0  0  0
 26 28  1  0  0  0  0
M  END
$$$$
default_name
  -OEChem-02102213163D

 31 30  0     1  0  0  0  0  0999 V2000
   -3.5895   -3.5013    1.1082 H   0  0  0  0  0  0  0  0  0  0  0  0
   -3.5145   -2.5363    0.6082 C   0  0  0  0  0  0  0  0  0  0  0  0
   -4.2285   -1.8413    1.0452 H   0  0  0  0  0  0  0  0  0  0  0  0
   -3.7155   -2.6583   -0.4538 H   0  0  0  0  0  0  0  0  0  0  0  0
   -2.1155   -1.9963    0.7922 C   0  0  0  0  0  0  0  0  0  0  0  0
   -1.2875   -2.6383    1.4252 O   0  0  0  0  0  0  0  0  0  0  0  0
   -1.8575   -0.8123    0.2402 N   0  0  0  0  0  0  0  0  0  0  0  0
   -2.6005   -0.3333   -0.2478 H   0  0  0  0  0  0  0  0  0  0  0  0
   -0.5675   -0.1203    0.3102 C   0  0  1  0  0  0  0  0  0  0  0  0
    0.1932   -0.7715   -0.1219 H   0  0  0  0  0  0  0  0  0  0  0  0
   -0.6568    1.1713   -0.5294 C   0  0  0  0  0  0  0  0  0  0  0  0
   -0.9256    0.9037   -1.5532 H   0  0  0  0  0  0  0  0  0  0  0  0
   -1.4663    1.7820   -0.1238 H   0  0  0  0  0  0  0  0  0  0  0  0
    0.6189    2.0326   -0.5705 C   0  0  0  0  0  0  0  0  0  0  0  0
    0.7243    2.5793    0.3666 H   0  0  0  0  0  0  0  0  0  0  0  0
    1.8781    1.1922   -0.8012 C   0  0  0  0  0  0  0  0  0  0  0  0
    1.7810    0.6260   -1.7285 H   0  0  0  0  0  0  0  0  0  0  0  0
    2.7478    1.8459   -0.8721 H   0  0  0  0  0  0  0  0  0  0  0  0
    2.0343    0.4999    0.0232 H   0  0  0  0  0  0  0  0  0  0  0  0
    0.5169    3.0524   -1.7042 C   0  0  0  0  0  0  0  0  0  0  0  0
   -0.3552    3.6874   -1.5489 H   0  0  0  0  0  0  0  0  0  0  0  0
    1.4069    3.6816   -1.7180 H   0  0  0  0  0  0  0  0  0  0  0  0
    0.4233    2.5405   -2.6626 H   0  0  0  0  0  0  0  0  0  0  0  0
   -0.1913    0.1554    1.7759 C   0  0  0  0  0  0  0  0  0  0  0  0
    0.9476   -0.0766    2.1748 O   0  0  0  0  0  0  0  0  0  0  0  0
   -1.1502    0.6393    2.5760 N   0  0  0  0  0  0  0  0  0  0  0  0
   -2.0581    0.8092    2.1736 H   0  0  0  0  0  0  0  0  0  0  0  0
   -0.9568    0.9369    3.9933 C   0  0  0  0  0  0  0  0  0  0  0  0
   -0.1600    1.6750    4.1097 H   0  0  0  0  0  0  0  0  0  0  0  0
   -1.8775    1.3307    4.4266 H   0  0  0  0  0  0  0  0  0  0  0  0
   -0.6678    0.0287    4.5244 H   0  0  0  0  0  0  0  0  0  0  0  0
  5  6  2  0  0  0  0
  5  7  1  0  0  0  0
  2  3  1  0  0  0  0
  2  4  1  0  0  0  0
  2  5  1  0  0  0  0
  1  2  1  0  0  0  0
 24 25  2  0  0  0  0
 24 26  1  0  0  0  0
 20 21  1  0  0  0  0
 20 22  1  0  0  0  0
 20 23  1  0  0  0  0
 16 17  1  0  0  0  0
 16 18  1  0  0  0  0
 16 19  1  0  0  0  0
 14 15  1  0  0  0  0
 14 16  1  0  0  0  0
 14 20  1  0  0  0  0
 11 12  1  0  0  0  0
 11 13  1  0  0  0  0
 11 14  1  0  0  0  0
  9 10  1  0  0  0  0
  9 11  1  0  0  0  0
  9 24  1  0  0  0  0
  7  8  1  0  0  0  0
  7  9  1  0  0  0  0
 28 29  1  0  0  0  0
 28 30  1  0  0  0  0
 28 31  1  0  0  0  0
 26 27  1  0  0  0  0
 26 28  1  0  0  0  0
M  END
$$$$
default_name
  -OEChem-02102213163D

 31 30  0     1  0  0  0  0  0999 V2000
   -3.5895   -3.5013    1.1082 H   0  0  0  0  0  0  0  0  0  0  0  0
   -3.5145   -2.5363    0.6082 C   0  0  0  0  0  0  0  0  0  0  0  0
   -4.2285   -1.8413    1.0452 H   0  0  0  0  0  0  0  0  0  0  0  0
   -3.7155   -2.6583   -0.4538 H   0  0  0  0  0  0  0  0  0  0  0  0
   -2.1155   -1.9963    0.7922 C   0  0  0  0  0  0  0  0  0  0  0  0
   -1.2875   -2.6383    1.4252 O   0  0  0  0  0  0  0  0  0  0  0  0
   -1.8575   -0.8123    0.2402 N   0  0  0  0  0  0  0  0  0  0  0  0
   -2.6005   -0.3333   -0.2478 H   0  0  0  0  0  0  0  0  0  0  0  0
   -0.5675   -0.1203    0.3102 C   0  0  1  0  0  0  0  0  0  0  0  0
    0.1932   -0.7715   -0.1219 H   0  0  0  0  0  0  0  0  0  0  0  0
   -0.6568    1.1713   -0.5294 C   0  0  0  0  0  0  0  0  0  0  0  0
   -0.9256    0.9037   -1.5532 H   0  0  0  0  0  0  0  0  0  0  0  0
   -1.4663    1.7820   -0.1238 H   0  0  0  0  0  0  0  0  0  0  0  0
    0.6189    2.0326   -0.5705 C   0  0  0  0  0  0  0  0  0  0  0  0
    0.8706    2.3660    0.4362 H   0  0  0  0  0  0  0  0  0  0  0  0
    1.8124    1.2727   -1.1564 C   0  0  0  0  0  0  0  0  0  0  0  0
    1.5698    0.9182   -2.1591 H   0  0  0  0  0  0  0  0  0  0  0  0
    2.6774    1.9340   -1.2116 H   0  0  0  0  0  0  0  0  0  0  0  0
    2.0699    0.4207   -0.5309 H   0  0  0  0  0  0  0  0  0  0  0  0
    0.3779    3.2712   -1.4326 C   0  0  0  0  0  0  0  0  0  0  0  0
   -0.4481    3.8503   -1.0198 H   0  0  0  0  0  0  0  0  0  0  0  0
    1.2706    3.8966   -1.4408 H   0  0  0  0  0  0  0  0  0  0  0  0
    0.1356    2.9765   -2.4543 H   0  0  0  0  0  0  0  0  0  0  0  0
   -0.1913    0.1554    1.7759 C   0  0  0  0  0  0  0  0  0  0  0  0
    0.9476   -0.0766    2.1748 O   0  0  0  0  0  0  0  0  0  0  0  0
   -1.1502    0.6393    2.5760 N   0  0  0  0  0  0  0  0  0  0  0  0
   -2.0581    0.8092    2.1736 H   0  0  0  0  0  0  0  0  0  0  0  0
   -0.9568    0.9369    3.9933 C   0  0  0  0  0  0  0  0  0  0  0  0
   -0.1600    1.6750    4.1097 H   0  0  0  0  0  0  0  0  0  0  0  0
   -1.8775    1.3307    4.4266 H   0  0  0  0  0  0  0  0  0  0  0  0
   -0.6678    0.0287    4.5244 H   0  0  0  0  0  0  0  0  0  0  0  0
  5  6  2  0  0  0  0
  5  7  1  0  0  0  0
  2  3  1  0  0  0  0
  2  4  1  0  0  0  0
  2  5  1  0  0  0  0
  1  2  1  0  0  0  0
 24 25  2  0  0  0  0
 24 26  1  0  0  0  0
 20 21  1  0  0  0  0
 20 22  1  0  0  0  0
 20 23  1  0  0  0  0
 16 17  1  0  0  0  0
 16 18  1  0  0  0  0
 16 19  1  0  0  0  0
 14 15  1  0  0  0  0
 14 16  1  0  0  0  0
 14 20  1  0  0  0  0
 11 12  1  0  0  0  0
 11 13  1  0  0  0  0
 11 14  1  0  0  0  0
  9 10  1  0  0  0  0
  9 11  1  0  0  0  0
  9 24  1  0  0  0  0
  7  8  1  0  0  0  0
  7  9  1  0  0  0  0
 28 29  1  0  0  0  0
 28 30  1  0  0  0  0
 28 31  1  0  0  0  0
 26 27  1  0  0  0  0
 26 28  1  0  0  0  0
M  END
$$$$
default_name
  -OEChem-02102213163D

 31 30  0     1  0  0  0  0  0999 V2000
   -3.5895   -3.5013    1.1082 H   0  0  0  0  0  0  0  0  0  0  0  0
   -3.5145   -2.5363    0.6082 C   0  0  0  0  0  0  0  0  0  0  0  0
   -4.2285   -1.8413    1.0452 H   0  0  0  0  0  0  0  0  0  0  0  0
   -3.7155   -2.6583   -0.4538 H   0  0  0  0  0  0  0  0  0  0  0  0
   -2.1155   -1.9963    0.7922 C   0  0  0  0  0  0  0  0  0  0  0  0
   -1.2875   -2.6383    1.4252 O   0  0  0  0  0  0  0  0  0  0  0  0
   -1.8575   -0.8123    0.2402 N   0  0  0  0  0  0  0  0  0  0  0  0
   -2.6005   -0.3333   -0.2478 H   0  0  0  0  0  0  0  0  0  0  0  0
   -0.5675   -0.1203    0.3102 C   0  0  1  0  0  0  0  0  0  0  0  0
    0.1932   -0.7715   -0.1219 H   0  0  0  0  0  0  0  0  0  0  0  0
   -0.6568    1.1713   -0.5294 C   0  0  0  0  0  0  0  0  0  0  0  0
   -0.9256    0.9037   -1.5532 H   0  0  0  0  0  0  0  0  0  0  0  0
   -1.4663    1.7820   -0.1238 H   0  0  0  0  0  0  0  0  0  0  0  0
    0.6189    2.0326   -0.5705 C   0  0  0  0  0  0  0  0  0  0  0  0
    1.0204    2.1441    0.4367 H   0  0  0  0  0  0  0  0  0  0  0  0
    1.6980    1.4270   -1.4727 C   0  0  0  0  0  0  0  0  0  0  0  0
    1.3056    1.2941   -2.4818 H   0  0  0  0  0  0  0  0  0  0  0  0
    2.5608    2.0923   -1.5105 H   0  0  0  0  0  0  0  0  0  0  0  0
    2.0235    0.4628   -1.0882 H   0  0  0  0  0  0  0  0  0  0  0  0
    0.2844    3.4254   -1.1033 C   0  0  0  0  0  0  0  0  0  0  0  0
   -0.4602    3.8948   -0.4604 H   0  0  0  0  0  0  0  0  0  0  0  0
    1.1806    4.0458   -1.1073 H   0  0  0  0  0  0  0  0  0  0  0  0
   -0.1091    3.3550   -2.1179 H   0  0  0  0  0  0  0  0  0  0  0  0
   -0.1913    0.1554    1.7759 C   0  0  0  0  0  0  0  0  0  0  0  0
    0.9476   -0.0766    2.1748 O   0  0  0  0  0  0  0  0  0  0  0  0
   -1.1502    0.6393    2.5760 N   0  0  0  0  0  0  0  0  0  0  0  0
   -2.0581    0.8092    2.1736 H   0  0  0  0  0  0  0  0  0  0  0  0
   -0.9568    0.9369    3.9933 C   0  0  0  0  0  0  0  0  0  0  0  0
   -0.1600    1.6750    4.1097 H   0  0  0  0  0  0  0  0  0  0  0  0
   -1.8775    1.3307    4.4266 H   0  0  0  0  0  0  0  0  0  0  0  0
   -0.6678    0.0287    4.5244 H   0  0  0  0  0  0  0  0  0  0  0  0
  5  6  2  0  0  0  0
  5  7  1  0  0  0  0
  2  3  1  0  0  0  0
  2  4  1  0  0  0  0
  2  5  1  0  0  0  0
  1  2  1  0  0  0  0
 24 25  2  0  0  0  0
 24 26  1  0  0  0  0
 20 21  1  0  0  0  0
 20 22  1  0  0  0  0
 20 23  1  0  0  0  0
 16 17  1  0  0  0  0
 16 18  1  0  0  0  0
 16 19  1  0  0  0  0
 14 15  1  0  0  0  0
 14 16  1  0  0  0  0
 14 20  1  0  0  0  0
 11 12  1  0  0  0  0
 11 13  1  0  0  0  0
 11 14  1  0  0  0  0
  9 10  1  0  0  0  0
  9 11  1  0  0  0  0
  9 24  1  0  0  0  0
  7  8  1  0  0  0  0
  7  9  1  0  0  0  0
 28 29  1  0  0  0  0
 28 30  1  0  0  0  0
 28 31  1  0  0  0  0
 26 27  1  0  0  0  0
 26 28  1  0  0  0  0
M  END
$$$$
default_name
  -OEChem-02102213163D

 31 30  0     1  0  0  0  0  0999 V2000
   -3.5895   -3.5013    1.1082 H   0  0  0  0  0  0  0  0  0  0  0  0
   -3.5145   -2.5363    0.6082 C   0  0  0  0  0  0  0  0  0  0  0  0
   -4.2285   -1.8413    1.0452 H   0  0  0  0  0  0  0  0  0  0  0  0
   -3.7155   -2.6583   -0.4538 H   0  0  0  0  0  0  0  0  0  0  0  0
   -2.1155   -1.9963    0.7922 C   0  0  0  0  0  0  0  0  0  0  0  0
   -1.2875   -2.6383    1.4252 O   0  0  0  0  0  0  0  0  0  0  0  0
   -1.8575   -0.8123    0.2402 N   0  0  0  0  0  0  0  0  0  0  0  0
   -2.6005   -0.3333   -0.2478 H   0  0  0  0  0  0  0  0  0  0  0  0
   -0.5675   -0.1203    0.3102 C   0  0  1  0  0  0  0  0  0  0  0  0
    0.1932   -0.7715   -0.1219 H   0  0  0  0  0  0  0  0  0  0  0  0
   -0.6568    1.1713   -0.5294 C   0  0  0  0  0  0  0  0  0  0  0  0
   -0.9256    0.9037   -1.5532 H   0  0  0  0  0  0  0  0  0  0  0  0
   -1.4663    1.7820   -0.1238 H   0  0  0  0  0  0  0  0  0  0  0  0
    0.6189    2.0326   -0.5705 C   0  0  0  0  0  0  0  0  0  0  0  0
    1.1637    1.9286    0.3678 H   0  0  0  0  0  0  0  0  0  0  0  0
    1.5428    1.6447   -1.7286 C   0  0  0  0  0  0  0  0  0  0  0  0
    1.0062    1.7283   -2.6747 H   0  0  0  0  0  0  0  0  0  0  0  0
    2.4061    2.3102   -1.7484 H   0  0  0  0  0  0  0  0  0  0  0  0
    1.8983    0.6233   -1.6109 H   0  0  0  0  0  0  0  0  0  0  0  0
    0.2429    3.5043   -0.7385 C   0  0  0  0  0  0  0  0  0  0  0  0
   -0.3905    3.8180    0.0912 H   0  0  0  0  0  0  0  0  0  0  0  0
    1.1430    4.1191   -0.7402 H   0  0  0  0  0  0  0  0  0  0  0  0
   -0.2942    3.6501   -1.6764 H   0  0  0  0  0  0  0  0  0  0  0  0
   -0.1913    0.1554    1.7759 C   0  0  0  0  0  0  0  0  0  0  0  0
    0.9476   -0.0766    2.1748 O   0  0  0  0  0  0  0  0  0  0  0  0
   -1.1502    0.6393    2.5760 N   0  0  0  0  0  0  0  0  0  0  0  0
   -2.0581    0.8092    2.1736 H   0  0  0  0  0  0  0  0  0  0  0  0
   -0.9568    0.9369    3.9933 C   0  0  0  0  0  0  0  0  0  0  0  0
   -0.1600    1.6750    4.1097 H   0  0  0  0  0  0  0  0  0  0  0  0
   -1.8775    1.3307    4.4266 H   0  0  0  0  0  0  0  0  0  0  0  0
   -0.6678    0.0287    4.5244 H   0  0  0  0  0  0  0  0  0  0  0  0
  5  6  2  0  0  0  0
  5  7  1  0  0  0  0
  2  3  1  0  0  0  0
  2  4  1  0  0  0  0
  2  5  1  0  0  0  0
  1  2  1  0  0  0  0
 24 25  2  0  0  0  0
 24 26  1  0  0  0  0
 20 21  1  0  0  0  0
 20 22  1  0  0  0  0
 20 23  1  0  0  0  0
 16 17  1  0  0  0  0
 16 18  1  0  0  0  0
 16 19  1  0  0  0  0
 14 15  1  0  0  0  0
 14 16  1  0  0  0  0
 14 20  1  0  0  0  0
 11 12  1  0  0  0  0
 11 13  1  0  0  0  0
 11 14  1  0  0  0  0
  9 10  1  0  0  0  0
  9 11  1  0  0  0  0
  9 24  1  0  0  0  0
  7  8  1  0  0  0  0
  7  9  1  0  0  0  0
 28 29  1  0  0  0  0
 28 30  1  0  0  0  0
 28 31  1  0  0  0  0
 26 27  1  0  0  0  0
 26 28  1  0  0  0  0
M  END
$$$$
default_name
  -OEChem-02102213163D

 31 30  0     1  0  0  0  0  0999 V2000
   -3.5895   -3.5013    1.1082 H   0  0  0  0  0  0  0  0  0  0  0  0
   -3.5145   -2.5363    0.6082 C   0  0  0  0  0  0  0  0  0  0  0  0
   -4.2285   -1.8413    1.0452 H   0  0  0  0  0  0  0  0  0  0  0  0
   -3.7155   -2.6583   -0.4538 H   0  0  0  0  0  0  0  0  0  0  0  0
   -2.1155   -1.9963    0.7922 C   0  0  0  0  0  0  0  0  0  0  0  0
   -1.2875   -2.6383    1.4252 O   0  0  0  0  0  0  0  0  0  0  0  0
   -1.8575   -0.8123    0.2402 N   0  0  0  0  0  0  0  0  0  0  0  0
   -2.6005   -0.3333   -0.2478 H   0  0  0  0  0  0  0  0  0  0  0  0
   -0.5675   -0.1203    0.3102 C   0  0  1  0  0  0  0  0  0  0  0  0
    0.1932   -0.7715   -0.1219 H   0  0  0  0  0  0  0  0  0  0  0  0
   -0.6568    1.1713   -0.5294 C   0  0  0  0  0  0  0  0  0  0  0  0
   -0.9256    0.9037   -1.5532 H   0  0  0  0  0  0  0  0  0  0  0  0
   -1.4663    1.7820   -0.1238 H   0  0  0  0  0  0  0  0  0  0  0  0
    0.6189    2.0326   -0.5705 C   0  0  0  0  0  0  0  0  0  0  0  0
    1.2907    1.7342    0.2342 H   0  0  0  0  0  0  0  0  0  0  0  0
    1.3573    1.9109   -1.9066 C   0  0  0  0  0  0  0  0  0  0  0  0
    0.6921    2.1911   -2.7245 H   0  0  0  0  0  0  0  0  0  0  0  0
    2.2236    2.5727   -1.9090 H   0  0  0  0  0  0  0  0  0  0  0  0
    1.7028    0.8912   -2.0631 H   0  0  0  0  0  0  0  0  0  0  0  0
    0.2561    3.5026   -0.3633 C   0  0  0  0  0  0  0  0  0  0  0  0
   -0.2438    3.6250    0.5975 H   0  0  0  0  0  0  0  0  0  0  0  0
    1.1603    4.1113   -0.3643 H   0  0  0  0  0  0  0  0  0  0  0  0
   -0.4070    3.8418   -1.1598 H   0  0  0  0  0  0  0  0  0  0  0  0
   -0.1913    0.1554    1.7759 C   0  0  0  0  0  0  0  0  0  0  0  0
    0.9476   -0.0766    2.1748 O   0  0  0  0  0  0  0  0  0  0  0  0
   -1.1502    0.6393    2.5760 N   0  0  0  0  0  0  0  0  0  0  0  0
   -2.0581    0.8092    2.1736 H   0  0  0  0  0  0  0  0  0  0  0  0
   -0.9568    0.9369    3.9933 C   0  0  0  0  0  0  0  0  0  0  0  0
   -0.1600    1.6750    4.1097 H   0  0  0  0  0  0  0  0  0  0  0  0
   -1.8775    1.3307    4.4266 H   0  0  0  0  0  0  0  0  0  0  0  0
   -0.6678    0.0287    4.5244 H   0  0  0  0  0  0  0  0  0  0  0  0
  5  6  2  0  0  0  0
  5  7  1  0  0  0  0
  2  3  1  0  0  0  0
  2  4  1  0  0  0  0
  2  5  1  0  0  0  0
  1  2  1  0  0  0  0
 24 25  2  0  0  0  0
 24 26  1  0  0  0  0
 20 21  1  0  0  0  0
 20 22  1  0  0  0  0
 20 23  1  0  0  0  0
 16 17  1  0  0  0  0
 16 18  1  0  0  0  0
 16 19  1  0  0  0  0
 14 15  1  0  0  0  0
 14 16  1  0  0  0  0
 14 20  1  0  0  0  0
 11 12  1  0  0  0  0
 11 13  1  0  0  0  0
 11 14  1  0  0  0  0
  9 10  1  0  0  0  0
  9 11  1  0  0  0  0
  9 24  1  0  0  0  0
  7  8  1  0  0  0  0
  7  9  1  0  0  0  0
 28 29  1  0  0  0  0
 28 30  1  0  0  0  0
 28 31  1  0  0  0  0
 26 27  1  0  0  0  0
 26 28  1  0  0  0  0
M  END
$$$$
default_name
  -OEChem-02102213163D

 31 30  0     1  0  0  0  0  0999 V2000
   -3.5895   -3.5013    1.1082 H   0  0  0  0  0  0  0  0  0  0  0  0
   -3.5145   -2.5363    0.6082 C   0  0  0  0  0  0  0  0  0  0  0  0
   -4.2285   -1.8413    1.0452 H   0  0  0  0  0  0  0  0  0  0  0  0
   -3.7155   -2.6583   -0.4538 H   0  0  0  0  0  0  0  0  0  0  0  0
   -2.1155   -1.9963    0.7922 C   0  0  0  0  0  0  0  0  0  0  0  0
   -1.2875   -2.6383    1.4252 O   0  0  0  0  0  0  0  0  0  0  0  0
   -1.8575   -0.8123    0.2402 N   0  0  0  0  0  0  0  0  0  0  0  0
   -2.6005   -0.3333   -0.2478 H   0  0  0  0  0  0  0  0  0  0  0  0
   -0.5675   -0.1203    0.3102 C   0  0  1  0  0  0  0  0  0  0  0  0
    0.1932   -0.7715   -0.1219 H   0  0  0  0  0  0  0  0  0  0  0  0
   -0.6568    1.1713   -0.5294 C   0  0  0  0  0  0  0  0  0  0  0  0
   -0.9256    0.9037   -1.5532 H   0  0  0  0  0  0  0  0  0  0  0  0
   -1.4663    1.7820   -0.1238 H   0  0  0  0  0  0  0  0  0  0  0  0
    0.6189    2.0326   -0.5705 C   0  0  0  0  0  0  0  0  0  0  0  0
    1.3927    1.5741    0.0452 H   0  0  0  0  0  0  0  0  0  0  0  0
    1.1542    2.2074   -1.9947 C   0  0  0  0  0  0  0  0  0  0  0  0
    0.3846    2.6510   -2.6279 H   0  0  0  0  0  0  0  0  0  0  0  0
    2.0260    2.8620   -1.9814 H   0  0  0  0  0  0  0  0  0  0  0  0
    1.4503    1.2484   -2.4142 H   0  0  0  0  0  0  0  0  0  0  0  0
    0.3232    3.4204   -0.0031 C   0  0  0  0  0  0  0  0  0  0  0  0
   -0.0302    3.3290    1.0239 H   0  0  0  0  0  0  0  0  0  0  0  0
    1.2314    4.0231   -0.0055 H   0  0  0  0  0  0  0  0  0  0  0  0
   -0.4398    3.9170   -0.6035 H   0  0  0  0  0  0  0  0  0  0  0  0
   -0.1913    0.1554    1.7759 C   0  0  0  0  0  0  0  0  0  0  0  0
    0.9476   -0.0766    2.1748 O   0  0  0  0  0  0  0  0  0  0  0  0
   -1.1502    0.6393    2.5760 N   0  0  0  0  0  0  0  0  0  0  0  0
   -2.0581    0.8092    2.1736 H   0  0  0  0  0  0  0  0  0  0  0  0
   -0.9568    0.9369    3.9933 C   0  0  0  0  0  0  0  0  0  0  0  0
   -0.1600    1.6750    4.1097 H   0  0  0  0  0  0  0  0  0  0  0  0
   -1.8775    1.3307    4.4266 H   0  0  0  0  0  0  0  0  0  0  0  0
   -0.6678    0.0287    4.5244 H   0  0  0  0  0  0  0  0  0  0  0  0
  5  6  2  0  0  0  0
  5  7  1  0  0  0  0
  2  3  1  0  0  0  0
  2  4  1  0  0  0  0
  2  5  1  0  0  0  0
  1  2  1  0  0  0  0
 24 25  2  0  0  0  0
 24 26  1  0  0  0  0
 20 21  1  0  0  0  0
 20 22  1  0  0  0  0
 20 23  1  0  0  0  0
 16 17  1  0  0  0  0
 16 18  1  0  0  0  0
 16 19  1  0  0  0  0
 14 15  1  0  0  0  0
 14 16  1  0  0  0  0
 14 20  1  0  0  0  0
 11 12  1  0  0  0  0
 11 13  1  0  0  0  0
 11 14  1  0  0  0  0
  9 10  1  0  0  0  0
  9 11  1  0  0  0  0
  9 24  1  0  0  0  0
  7  8  1  0  0  0  0
  7  9  1  0  0  0  0
 28 29  1  0  0  0  0
 28 30  1  0  0  0  0
 28 31  1  0  0  0  0
 26 27  1  0  0  0  0
 26 28  1  0  0  0  0
M  END
$$$$
default_name
  -OEChem-02102213163D

 31 30  0     1  0  0  0  0  0999 V2000
   -3.5895   -3.5013    1.1082 H   0  0  0  0  0  0  0  0  0  0  0  0
   -3.5145   -2.5363    0.6082 C   0  0  0  0  0  0  0  0  0  0  0  0
   -4.2285   -1.8413    1.0452 H   0  0  0  0  0  0  0  0  0  0  0  0
   -3.7155   -2.6583   -0.4538 H   0  0  0  0  0  0  0  0  0  0  0  0
   -2.1155   -1.9963    0.7922 C   0  0  0  0  0  0  0  0  0  0  0  0
   -1.2875   -2.6383    1.4252 O   0  0  0  0  0  0  0  0  0  0  0  0
   -1.8575   -0.8123    0.2402 N   0  0  0  0  0  0  0  0  0  0  0  0
   -2.6005   -0.3333   -0.2478 H   0  0  0  0  0  0  0  0  0  0  0  0
   -0.5675   -0.1203    0.3102 C   0  0  1  0  0  0  0  0  0  0  0  0
    0.1932   -0.7715   -0.1219 H   0  0  0  0  0  0  0  0  0  0  0  0
   -0.6568    1.1713   -0.5294 C   0  0  0  0  0  0  0  0  0  0  0  0
   -0.9256    0.9037   -1.5532 H   0  0  0  0  0  0  0  0  0  0  0  0
   -1.4663    1.7820   -0.1238 H   0  0  0  0  0  0  0  0  0  0  0  0
    0.6189    2.0326   -0.5705 C   0  0  0  0  0  0  0  0  0  0  0  0
    1.4627    1.4594   -0.1865 H   0  0  0  0  0  0  0  0  0  0  0  0
    0.9473    2.5142   -1.9867 C   0  0  0  0  0  0  0  0  0  0  0  0
    0.1049    3.0767   -2.3915 H   0  0  0  0  0  0  0  0  0  0  0  0
    1.8265    3.1583   -1.9608 H   0  0  0  0  0  0  0  0  0  0  0  0
    1.1581    1.6704   -2.6402 H   0  0  0  0  0  0  0  0  0  0  0  0
    0.4396    3.2634    0.3175 C   0  0  0  0  0  0  0  0  0  0  0  0
    0.2358    2.9502    1.3414 H   0  0  0  0  0  0  0  0  0  0  0  0
    1.3515    3.8605    0.3119 H   0  0  0  0  0  0  0  0  0  0  0  0
   -0.3905    3.8706   -0.0452 H   0  0  0  0  0  0  0  0  0  0  0  0
   -0.1913    0.1554    1.7759 C   0  0  0  0  0  0  0  0  0  0  0  0
    0.9476   -0.0766    2.1748 O   0  0  0  0  0  0  0  0  0  0  0  0
   -1.1502    0.6393    2.5760 N   0  0  0  0  0  0  0  0  0  0  0  0
   -2.0581    0.8092    2.1736 H   0  0  0  0  0  0  0  0  0  0  0  0
   -0.9568    0.9369    3.9933 C   0  0  0  0  0  0  0  0  0  0  0  0
   -0.1600    1.6750    4.1097 H   0  0  0  0  0  0  0  0  0  0  0  0
   -1.8775    1.3307    4.4266 H   0  0  0  0  0  0  0  0  0  0  0  0
   -0.6678    0.0287    4.5244 H   0  0  0  0  0  0  0  0  0  0  0  0
  5  6  2  0  0  0  0
  5  7  1  0  0  0  0
  2  3  1  0  0  0  0
  2  4  1  0  0  0  0
  2  5  1  0  0  0  0
  1  2  1  0  0  0  0
 24 25  2  0  0  0  0
 24 26  1  0  0  0  0
 20 21  1  0  0  0  0
 20 22  1  0  0  0  0
 20 23  1  0  0  0  0
 16 17  1  0  0  0  0
 16 18  1  0  0  0  0
 16 19  1  0  0  0  0
 14 15  1  0  0  0  0
 14 16  1  0  0  0  0
 14 20  1  0  0  0  0
 11 12  1  0  0  0  0
 11 13  1  0  0  0  0
 11 14  1  0  0  0  0
  9 10  1  0  0  0  0
  9 11  1  0  0  0  0
  9 24  1  0  0  0  0
  7  8  1  0  0  0  0
  7  9  1  0  0  0  0
 28 29  1  0  0  0  0
 28 30  1  0  0  0  0
 28 31  1  0  0  0  0
 26 27  1  0  0  0  0
 26 28  1  0  0  0  0
M  END
$$$$
default_name
  -OEChem-02102213163D

 31 30  0     1  0  0  0  0  0999 V2000
   -3.5895   -3.5013    1.1082 H   0  0  0  0  0  0  0  0  0  0  0  0
   -3.5145   -2.5363    0.6082 C   0  0  0  0  0  0  0  0  0  0  0  0
   -4.2285   -1.8413    1.0452 H   0  0  0  0  0  0  0  0  0  0  0  0
   -3.7155   -2.6583   -0.4538 H   0  0  0  0  0  0  0  0  0  0  0  0
   -2.1155   -1.9963    0.7922 C   0  0  0  0  0  0  0  0  0  0  0  0
   -1.2875   -2.6383    1.4252 O   0  0  0  0  0  0  0  0  0  0  0  0
   -1.8575   -0.8123    0.2402 N   0  0  0  0  0  0  0  0  0  0  0  0
   -2.6005   -0.3333   -0.2478 H   0  0  0  0  0  0  0  0  0  0  0  0
   -0.5675   -0.1203    0.3102 C   0  0  1  0  0  0  0  0  0  0  0  0
    0.1932   -0.7715   -0.1219 H   0  0  0  0  0  0  0  0  0  0  0  0
   -0.6568    1.1713   -0.5294 C   0  0  0  0  0  0  0  0  0  0  0  0
   -0.9256    0.9037   -1.5532 H   0  0  0  0  0  0  0  0  0  0  0  0
   -1.4663    1.7820   -0.1238 H   0  0  0  0  0  0  0  0  0  0  0  0
    0.6189    2.0326   -0.5705 C   0  0  0  0  0  0  0  0  0  0  0  0
    1.4960    1.3978   -0.4450 H   0  0  0  0  0  0  0  0  0  0  0  0
    0.7508    2.8102   -1.8833 C   0  0  0  0  0  0  0  0  0  0  0  0
   -0.1282    3.4390   -2.0313 H   0  0  0  0  0  0  0  0  0  0  0  0
    1.6390    3.4415   -1.8484 H   0  0  0  0  0  0  0  0  0  0  0  0
    0.8460    2.1285   -2.7257 H   0  0  0  0  0  0  0  0  0  0  0  0
    0.5974    3.0421    0.5766 C   0  0  0  0  0  0  0  0  0  0  0  0
    0.5361    2.5144    1.5283 H   0  0  0  0  0  0  0  0  0  0  0  0
    1.5122    3.6346    0.5662 H   0  0  0  0  0  0  0  0  0  0  0  0
   -0.2623    3.7057    0.4770 H   0  0  0  0  0  0  0  0  0  0  0  0
   -0.1913    0.1554    1.7759 C   0  0  0  0  0  0  0  0  0  0  0  0
    0.9476   -0.0766    2.1748 O   0  0  0  0  0  0  0  0  0  0  0  0
   -1.1502    0.6393    2.5760 N   0  0  0  0  0  0  0  0  0  0  0  0
   -2.0581    0.8092    2.1736 H   0  0  0  0  0  0  0  0  0  0  0  0
   -0.9568    0.9369    3.9933 C   0  0  0  0  0  0  0  0  0  0  0  0
   -0.1600    1.6750    4.1097 H   0  0  0  0  0  0  0  0  0  0  0  0
   -1.8775    1.3307    4.4266 H   0  0  0  0  0  0  0  0  0  0  0  0
   -0.6678    0.0287    4.5244 H   0  0  0  0  0  0  0  0  0  0  0  0
  5  6  2  0  0  0  0
  5  7  1  0  0  0  0
  2  3  1  0  0  0  0
  2  4  1  0  0  0  0
  2  5  1  0  0  0  0
  1  2  1  0  0  0  0
 24 25  2  0  0  0  0
 24 26  1  0  0  0  0
 20 21  1  0  0  0  0
 20 22  1  0  0  0  0
 20 23  1  0  0  0  0
 16 17  1  0  0  0  0
 16 18  1  0  0  0  0
 16 19  1  0  0  0  0
 14 15  1  0  0  0  0
 14 16  1  0  0  0  0
 14 20  1  0  0  0  0
 11 12  1  0  0  0  0
 11 13  1  0  0  0  0
 11 14  1  0  0  0  0
  9 10  1  0  0  0  0
  9 11  1  0  0  0  0
  9 24  1  0  0  0  0
  7  8  1  0  0  0  0
  7  9  1  0  0  0  0
 28 29  1  0  0  0  0
 28 30  1  0  0  0  0
 28 31  1  0  0  0  0
 26 27  1  0  0  0  0
 26 28  1  0  0  0  0
M  END
$$$$
default_name
  -OEChem-02102213163D

 31 30  0     1  0  0  0  0  0999 V2000
   -3.5895   -3.5013    1.1082 H   0  0  0  0  0  0  0  0  0  0  0  0
   -3.5145   -2.5363    0.6082 C   0  0  0  0  0  0  0  0  0  0  0  0
   -4.2285   -1.8413    1.0452 H   0  0  0  0  0  0  0  0  0  0  0  0
   -3.7155   -2.6583   -0.4538 H   0  0  0  0  0  0  0  0  0  0  0  0
   -2.1155   -1.9963    0.7922 C   0  0  0  0  0  0  0  0  0  0  0  0
   -1.2875   -2.6383    1.4252 O   0  0  0  0  0  0  0  0  0  0  0  0
   -1.8575   -0.8123    0.2402 N   0  0  0  0  0  0  0  0  0  0  0  0
   -2.6005   -0.3333   -0.2478 H   0  0  0  0  0  0  0  0  0  0  0  0
   -0.5675   -0.1203    0.3102 C   0  0  1  0  0  0  0  0  0  0  0  0
    0.1932   -0.7715   -0.1219 H   0  0  0  0  0  0  0  0  0  0  0  0
   -0.6568    1.1713   -0.5294 C   0  0  0  0  0  0  0  0  0  0  0  0
   -0.9256    0.9037   -1.5532 H   0  0  0  0  0  0  0  0  0  0  0  0
   -1.4663    1.7820   -0.1238 H   0  0  0  0  0  0  0  0  0  0  0  0
    0.6189    2.0326   -0.5705 C   0  0  0  0  0  0  0  0  0  0  0  0
    1.4903    1.3934   -0.7127 H   0  0  0  0  0  0  0  0  0  0  0  0
    0.5779    3.0753   -1.6914 C   0  0  0  0  0  0  0  0  0  0  0  0
   -0.2987    3.7134   -1.5720 H   0  0  0  0  0  0  0  0  0  0  0  0
    1.4760    3.6922   -1.6520 H   0  0  0  0  0  0  0  0  0  0  0  0
    0.5353    2.5915   -2.6649 H   0  0  0  0  0  0  0  0  0  0  0  0
    0.7858    2.7717    0.7566 C   0  0  0  0  0  0  0  0  0  0  0  0
    0.8502    2.0512    1.5719 H   0  0  0  0  0  0  0  0  0  0  0  0
    1.7028    3.3607    0.7402 H   0  0  0  0  0  0  0  0  0  0  0  0
   -0.0640    3.4335    0.9275 H   0  0  0  0  0  0  0  0  0  0  0  0
   -0.1913    0.1554    1.7759 C   0  0  0  0  0  0  0  0  0  0  0  0
    0.9476   -0.0766    2.1748 O   0  0  0  0  0  0  0  0  0  0  0  0
   -1.1502    0.6393    2.5760 N   0  0  0  0  0  0  0  0  0  0  0  0
   -2.0581    0.8092    2.1736 H   0  0  0  0  0  0  0  0  0  0  0  0
   -0.9568    0.9369    3.9933 C   0  0  0  0  0  0  0  0  0  0  0  0
   -0.1600    1.6750    4.1097 H   0  0  0  0  0  0  0  0  0  0  0  0
   -1.8775    1.3307    4.4266 H   0  0  0  0  0  0  0  0  0  0  0  0
   -0.6678    0.0287    4.5244 H   0  0  0  0  0  0  0  0  0  0  0  0
  5  6  2  0  0  0  0
  5  7  1  0  0  0  0
  2  3  1  0  0  0  0
  2  4  1  0  0  0  0
  2  5  1  0  0  0  0
  1  2  1  0  0  0  0
 24 25  2  0  0  0  0
 24 26  1  0  0  0  0
 20 21  1  0  0  0  0
 20 22  1  0  0  0  0
 20 23  1  0  0  0  0
 16 17  1  0  0  0  0
 16 18  1  0  0  0  0
 16 19  1  0  0  0  0
 14 15  1  0  0  0  0
 14 16  1  0  0  0  0
 14 20  1  0  0  0  0
 11 12  1  0  0  0  0
 11 13  1  0  0  0  0
 11 14  1  0  0  0  0
  9 10  1  0  0  0  0
  9 11  1  0  0  0  0
  9 24  1  0  0  0  0
  7  8  1  0  0  0  0
  7  9  1  0  0  0  0
 28 29  1  0  0  0  0
 28 30  1  0  0  0  0
 28 31  1  0  0  0  0
 26 27  1  0  0  0  0
 26 28  1  0  0  0  0
M  END
$$$$
default_name
  -OEChem-02102213163D

 31 30  0     1  0  0  0  0  0999 V2000
   -3.5895   -3.5013    1.1082 H   0  0  0  0  0  0  0  0  0  0  0  0
   -3.5145   -2.5363    0.6082 C   0  0  0  0  0  0  0  0  0  0  0  0
   -4.2285   -1.8413    1.0452 H   0  0  0  0  0  0  0  0  0  0  0  0
   -3.7155   -2.6583   -0.4538 H   0  0  0  0  0  0  0  0  0  0  0  0
   -2.1155   -1.9963    0.7922 C   0  0  0  0  0  0  0  0  0  0  0  0
   -1.2875   -2.6383    1.4252 O   0  0  0  0  0  0  0  0  0  0  0  0
   -1.8575   -0.8123    0.2402 N   0  0  0  0  0  0  0  0  0  0  0  0
   -2.6005   -0.3333   -0.2478 H   0  0  0  0  0  0  0  0  0  0  0  0
   -0.5675   -0.1203    0.3102 C   0  0  1  0  0  0  0  0  0  0  0  0
    0.1932   -0.7715   -0.1219 H   0  0  0  0  0  0  0  0  0  0  0  0
   -0.6568    1.1713   -0.5294 C   0  0  0  0  0  0  0  0  0  0  0  0
   -1.1766    0.9453   -1.4625 H   0  0  0  0  0  0  0  0  0  0  0  0
   -1.2655    1.8909    0.0224 H   0  0  0  0  0  0  0  0  0  0  0  0
    0.6865    1.8421   -0.8708 C   0  0  0  0  0  0  0  0  0  0  0  0
    1.3167    1.1445   -1.4225 H   0  0  0  0  0  0  0  0  0  0  0  0
    0.5036    3.1140   -1.7040 C   0  0  0  0  0  0  0  0  0  0  0  0
   -0.1389    3.8165   -1.1716 H   0  0  0  0  0  0  0  0  0  0  0  0
    1.4732    3.5804   -1.8797 H   0  0  0  0  0  0  0  0  0  0  0  0
    0.0542    2.8811   -2.6670 H   0  0  0  0  0  0  0  0  0  0  0  0
    1.4160    2.2217    0.4172 C   0  0  0  0  0  0  0  0  0  0  0  0
    1.5889    1.3286    1.0176 H   0  0  0  0  0  0  0  0  0  0  0  0
    2.3797    2.6718    0.1786 H   0  0  0  0  0  0  0  0  0  0  0  0
    0.8196    2.9316    0.9915 H   0  0  0  0  0  0  0  0  0  0  0  0
   -0.1913    0.1554    1.7759 C   0  0  0  0  0  0  0  0  0  0  0  0
    0.9476   -0.0766    2.1748 O   0  0  0  0  0  0  0  0  0  0  0  0
   -1.1502    0.6393    2.5760 N   0  0  0  0  0  0  0  0  0  0  0  0
   -2.0581    0.8092    2.1736 H   0  0  0  0  0  0  0  0  0  0  0  0
   -0.9568    0.9369    3.9933 C   0  0  0  0  0  0  0  0  0  0  0  0
   -0.1600    1.6750    4.1097 H   0  0  0  0  0  0  0  0  0  0  0  0
   -1.8775    1.3307    4.4266 H   0  0  0  0  0  0  0  0  0  0  0  0
   -0.6678    0.0287    4.5244 H   0  0  0  0  0  0  0  0  0  0  0  0
  5  6  2  0  0  0  0
  5  7  1  0  0  0  0
  2  3  1  0  0  0  0
  2  4  1  0  0  0  0
  2  5  1  0  0  0  0
  1  2  1  0  0  0  0
 24 25  2  0  0  0  0
 24 26  1  0  0  0  0
 20 21  1  0  0  0  0
 20 22  1  0  0  0  0
 20 23  1  0  0  0  0
 16 17  1  0  0  0  0
 16 18  1  0  0  0  0
 16 19  1  0  0  0  0
 14 15  1  0  0  0  0
 14 16  1  0  0  0  0
 14 20  1  0  0  0  0
 11 12  1  0  0  0  0
 11 13  1  0  0  0  0
 11 14  1  0  0  0  0
  9 10  1  0  0  0  0
  9 11  1  0  0  0  0
  9 24  1  0  0  0  0
  7  8  1  0  0  0  0
  7  9  1  0  0  0  0
 28 29  1  0  0  0  0
 28 30  1  0  0  0  0
 28 31  1  0  0  0  0
 26 27  1  0  0  0  0
 26 28  1  0  0  0  0
M  END
$$$$
default_name
  -OEChem-02102213163D

 31 30  0     1  0  0  0  0  0999 V2000
   -3.5895   -3.5013    1.1082 H   0  0  0  0  0  0  0  0  0  0  0  0
   -3.5145   -2.5363    0.6082 C   0  0  0  0  0  0  0  0  0  0  0  0
   -4.2285   -1.8413    1.0452 H   0  0  0  0  0  0  0  0  0  0  0  0
   -3.7155   -2.6583   -0.4538 H   0  0  0  0  0  0  0  0  0  0  0  0
   -2.1155   -1.9963    0.7922 C   0  0  0  0  0  0  0  0  0  0  0  0
   -1.2875   -2.6383    1.4252 O   0  0  0  0  0  0  0  0  0  0  0  0
   -1.8575   -0.8123    0.2402 N   0  0  0  0  0  0  0  0  0  0  0  0
   -2.6005   -0.3333   -0.2478 H   0  0  0  0  0  0  0  0  0  0  0  0
   -0.5675   -0.1203    0.3102 C   0  0  1  0  0  0  0  0  0  0  0  0
    0.1932   -0.7715   -0.1219 H   0  0  0  0  0  0  0  0  0  0  0  0
   -0.6568    1.1713   -0.5294 C   0  0  0  0  0  0  0  0  0  0  0  0
   -1.1766    0.9453   -1.4625 H   0  0  0  0  0  0  0  0  0  0  0  0
   -1.2655    1.8909    0.0224 H   0  0  0  0  0  0  0  0  0  0  0  0
    0.6865    1.8421   -0.8708 C   0  0  0  0  0  0  0  0  0  0  0  0
    1.2039    1.2622   -1.6350 H   0  0  0  0  0  0  0  0  0  0  0  0
    0.5061    3.2779   -1.3722 C   0  0  0  0  0  0  0  0  0  0  0  0
   -0.0253    3.8676   -0.6240 H   0  0  0  0  0  0  0  0  0  0  0  0
    1.4820    3.7285   -1.5542 H   0  0  0  0  0  0  0  0  0  0  0  0
   -0.0583    3.2920   -2.3022 H   0  0  0  0  0  0  0  0  0  0  0  0
    1.5735    1.8838    0.3729 C   0  0  0  0  0  0  0  0  0  0  0  0
    1.7459    0.8701    0.7345 H   0  0  0  0  0  0  0  0  0  0  0  0
    2.5357    2.3333    0.1271 H   0  0  0  0  0  0  0  0  0  0  0  0
    1.0929    2.4690    1.1577 H   0  0  0  0  0  0  0  0  0  0  0  0
   -0.1913    0.1554    1.7759 C   0  0  0  0  0  0  0  0  0  0  0  0
    0.9476   -0.0766    2.1748 O   0  0  0  0  0  0  0  0  0  0  0  0
   -1.1502    0.6393    2.5760 N   0  0  0  0  0  0  0  0  0  0  0  0
   -2.0581    0.8092    2.1736 H   0  0  0  0  0  0  0  0  0  0  0  0
   -0.9568    0.9369    3.9933 C   0  0  0  0  0  0  0  0  0  0  0  0
   -0.1600    1.6750    4.1097 H   0  0  0  0  0  0  0  0  0  0  0  0
   -1.8775    1.3307    4.4266 H   0  0  0  0  0  0  0  0  0  0  0  0
   -0.6678    0.0287    4.5244 H   0  0  0  0  0  0  0  0  0  0  0  0
  5  6  2  0  0  0  0
  5  7  1  0  0  0  0
  2  3  1  0  0  0  0
  2  4  1  0  0  0  0
  2  5  1  0  0  0  0
  1  2  1  0  0  0  0
 24 25  2  0  0  0  0
 24 26  1  0  0  0  0
 20 21  1  0  0  0  0
 20 22  1  0  0  0  0
 20 23  1  0  0  0  0
 16 17  1  0  0  0  0
 16 18  1  0  0  0  0
 16 19  1  0  0  0  0
 14 15  1  0  0  0  0
 14 16  1  0  0  0  0
 14 20  1  0  0  0  0
 11 12  1  0  0  0  0
 11 13  1  0  0  0  0
 11 14  1  0  0  0  0
  9 10  1  0  0  0  0
  9 11  1  0  0  0  0
  9 24  1  0  0  0  0
  7  8  1  0  0  0  0
  7  9  1  0  0  0  0
 28 29  1  0  0  0  0
 28 30  1  0  0  0  0
 28 31  1  0  0  0  0
 26 27  1  0  0  0  0
 26 28  1  0  0  0  0
M  END
$$$$
default_name
  -OEChem-02102213163D

 31 30  0     1  0  0  0  0  0999 V2000
   -3.5895   -3.5013    1.1082 H   0  0  0  0  0  0  0  0  0  0  0  0
   -3.5145   -2.5363    0.6082 C   0  0  0  0  0  0  0  0  0  0  0  0
   -4.2285   -1.8413    1.0452 H   0  0  0  0  0  0  0  0  0  0  0  0
   -3.7155   -2.6583   -0.4538 H   0  0  0  0  0  0  0  0  0  0  0  0
   -2.1155   -1.9963    0.7922 C   0  0  0  0  0  0  0  0  0  0  0  0
   -1.2875   -2.6383    1.4252 O   0  0  0  0  0  0  0  0  0  0  0  0
   -1.8575   -0.8123    0.2402 N   0  0  0  0  0  0  0  0  0  0  0  0
   -2.6005   -0.3333   -0.2478 H   0  0  0  0  0  0  0  0  0  0  0  0
   -0.5675   -0.1203    0.3102 C   0  0  1  0  0  0  0  0  0  0  0  0
    0.1932   -0.7715   -0.1219 H   0  0  0  0  0  0  0  0  0  0  0  0
   -0.6568    1.1713   -0.5294 C   0  0  0  0  0  0  0  0  0  0  0  0
   -1.1766    0.9453   -1.4625 H   0  0  0  0  0  0  0  0  0  0  0  0
   -1.2655    1.8909    0.0224 H   0  0  0  0  0  0  0  0  0  0  0  0
    0.6865    1.8421   -0.8708 C   0  0  0  0  0  0  0  0  0  0  0  0
    1.0777    1.4303   -1.8011 H   0  0  0  0  0  0  0  0  0  0  0  0
    0.5553    3.3611   -1.0150 C   0  0  0  0  0  0  0  0  0  0  0  0
    0.1492    3.7868   -0.0964 H   0  0  0  0  0  0  0  0  0  0  0  0
    1.5356    3.7977   -1.2072 H   0  0  0  0  0  0  0  0  0  0  0  0
   -0.1022    3.6129   -1.8443 H   0  0  0  0  0  0  0  0  0  0  0  0
    1.7013    1.5583    0.2360 C   0  0  0  0  0  0  0  0  0  0  0  0
    1.8394    0.4821    0.3397 H   0  0  0  0  0  0  0  0  0  0  0  0
    2.6611    2.0090   -0.0166 H   0  0  0  0  0  0  0  0  0  0  0  0
    1.3490    1.9689    1.1829 H   0  0  0  0  0  0  0  0  0  0  0  0
   -0.1913    0.1554    1.7759 C   0  0  0  0  0  0  0  0  0  0  0  0
    0.9476   -0.0766    2.1748 O   0  0  0  0  0  0  0  0  0  0  0  0
   -1.1502    0.6393    2.5760 N   0  0  0  0  0  0  0  0  0  0  0  0
   -2.0581    0.8092    2.1736 H   0  0  0  0  0  0  0  0  0  0  0  0
   -0.9568    0.9369    3.9933 C   0  0  0  0  0  0  0  0  0  0  0  0
   -0.1600    1.6750    4.1097 H   0  0  0  0  0  0  0  0  0  0  0  0
   -1.8775    1.3307    4.4266 H   0  0  0  0  0  0  0  0  0  0  0  0
   -0.6678    0.0287    4.5244 H   0  0  0  0  0  0  0  0  0  0  0  0
  5  6  2  0  0  0  0
  5  7  1  0  0  0  0
  2  3  1  0  0  0  0
  2  4  1  0  0  0  0
  2  5  1  0  0  0  0
  1  2  1  0  0  0  0
 24 25  2  0  0  0  0
 24 26  1  0  0  0  0
 20 21  1  0  0  0  0
 20 22  1  0  0  0  0
 20 23  1  0  0  0  0
 16 17  1  0  0  0  0
 16 18  1  0  0  0  0
 16 19  1  0  0  0  0
 14 15  1  0  0  0  0
 14 16  1  0  0  0  0
 14 20  1  0  0  0  0
 11 12  1  0  0  0  0
 11 13  1  0  0  0  0
 11 14  1  0  0  0  0
  9 10  1  0  0  0  0
  9 11  1  0  0  0  0
  9 24  1  0  0  0  0
  7  8  1  0  0  0  0
  7  9  1  0  0  0  0
 28 29  1  0  0  0  0
 28 30  1  0  0  0  0
 28 31  1  0  0  0  0
 26 27  1  0  0  0  0
 26 28  1  0  0  0  0
M  END
$$$$
default_name
  -OEChem-02102213163D

 31 30  0     1  0  0  0  0  0999 V2000
   -3.5895   -3.5013    1.1082 H   0  0  0  0  0  0  0  0  0  0  0  0
   -3.5145   -2.5363    0.6082 C   0  0  0  0  0  0  0  0  0  0  0  0
   -4.2285   -1.8413    1.0452 H   0  0  0  0  0  0  0  0  0  0  0  0
   -3.7155   -2.6583   -0.4538 H   0  0  0  0  0  0  0  0  0  0  0  0
   -2.1155   -1.9963    0.7922 C   0  0  0  0  0  0  0  0  0  0  0  0
   -1.2875   -2.6383    1.4252 O   0  0  0  0  0  0  0  0  0  0  0  0
   -1.8575   -0.8123    0.2402 N   0  0  0  0  0  0  0  0  0  0  0  0
   -2.6005   -0.3333   -0.2478 H   0  0  0  0  0  0  0  0  0  0  0  0
   -0.5675   -0.1203    0.3102 C   0  0  1  0  0  0  0  0  0  0  0  0
    0.1932   -0.7715   -0.1219 H   0  0  0  0  0  0  0  0  0  0  0  0
   -0.6568    1.1713   -0.5294 C   0  0  0  0  0  0  0  0  0  0  0  0
   -1.1766    0.9453   -1.4625 H   0  0  0  0  0  0  0  0  0  0  0  0
   -1.2655    1.8909    0.0224 H   0  0  0  0  0  0  0  0  0  0  0  0
    0.6865    1.8421   -0.8708 C   0  0  0  0  0  0  0  0  0  0  0  0
    0.9468    1.6373   -1.9093 H   0  0  0  0  0  0  0  0  0  0  0  0
    0.6479    3.3580   -0.6567 C   0  0  0  0  0  0  0  0  0  0  0  0
    0.3725    3.5796    0.3753 H   0  0  0  0  0  0  0  0  0  0  0  0
    1.6305    3.7830   -0.8626 H   0  0  0  0  0  0  0  0  0  0  0  0
   -0.0746    3.8221   -1.3247 H   0  0  0  0  0  0  0  0  0  0  0  0
    1.7906    1.2675    0.0159 C   0  0  0  0  0  0  0  0  0  0  0  0
    1.8629    0.1912   -0.1397 H   0  0  0  0  0  0  0  0  0  0  0  0
    2.7474    1.7209   -0.2429 H   0  0  0  0  0  0  0  0  0  0  0  0
    1.5706    1.4655    1.0655 H   0  0  0  0  0  0  0  0  0  0  0  0
   -0.1913    0.1554    1.7759 C   0  0  0  0  0  0  0  0  0  0  0  0
    0.9476   -0.0766    2.1748 O   0  0  0  0  0  0  0  0  0  0  0  0
   -1.1502    0.6393    2.5760 N   0  0  0  0  0  0  0  0  0  0  0  0
   -2.0581    0.8092    2.1736 H   0  0  0  0  0  0  0  0  0  0  0  0
   -0.9568    0.9369    3.9933 C   0  0  0  0  0  0  0  0  0  0  0  0
   -0.1600    1.6750    4.1097 H   0  0  0  0  0  0  0  0  0  0  0  0
   -1.8775    1.3307    4.4266 H   0  0  0  0  0  0  0  0  0  0  0  0
   -0.6678    0.0287    4.5244 H   0  0  0  0  0  0  0  0  0  0  0  0
  5  6  2  0  0  0  0
  5  7  1  0  0  0  0
  2  3  1  0  0  0  0
  2  4  1  0  0  0  0
  2  5  1  0  0  0  0
  1  2  1  0  0  0  0
 24 25  2  0  0  0  0
 24 26  1  0  0  0  0
 20 21  1  0  0  0  0
 20 22  1  0  0  0  0
 20 23  1  0  0  0  0
 16 17  1  0  0  0  0
 16 18  1  0  0  0  0
 16 19  1  0  0  0  0
 14 15  1  0  0  0  0
 14 16  1  0  0  0  0
 14 20  1  0  0  0  0
 11 12  1  0  0  0  0
 11 13  1  0  0  0  0
 11 14  1  0  0  0  0
  9 10  1  0  0  0  0
  9 11  1  0  0  0  0
  9 24  1  0  0  0  0
  7  8  1  0  0  0  0
  7  9  1  0  0  0  0
 28 29  1  0  0  0  0
 28 30  1  0  0  0  0
 28 31  1  0  0  0  0
 26 27  1  0  0  0  0
 26 28  1  0  0  0  0
M  END
$$$$
default_name
  -OEChem-02102213163D

 31 30  0     1  0  0  0  0  0999 V2000
   -3.5895   -3.5013    1.1082 H   0  0  0  0  0  0  0  0  0  0  0  0
   -3.5145   -2.5363    0.6082 C   0  0  0  0  0  0  0  0  0  0  0  0
   -4.2285   -1.8413    1.0452 H   0  0  0  0  0  0  0  0  0  0  0  0
   -3.7155   -2.6583   -0.4538 H   0  0  0  0  0  0  0  0  0  0  0  0
   -2.1155   -1.9963    0.7922 C   0  0  0  0  0  0  0  0  0  0  0  0
   -1.2875   -2.6383    1.4252 O   0  0  0  0  0  0  0  0  0  0  0  0
   -1.8575   -0.8123    0.2402 N   0  0  0  0  0  0  0  0  0  0  0  0
   -2.6005   -0.3333   -0.2478 H   0  0  0  0  0  0  0  0  0  0  0  0
   -0.5675   -0.1203    0.3102 C   0  0  1  0  0  0  0  0  0  0  0  0
    0.1932   -0.7715   -0.1219 H   0  0  0  0  0  0  0  0  0  0  0  0
   -0.6568    1.1713   -0.5294 C   0  0  0  0  0  0  0  0  0  0  0  0
   -1.1766    0.9453   -1.4625 H   0  0  0  0  0  0  0  0  0  0  0  0
   -1.2655    1.8909    0.0224 H   0  0  0  0  0  0  0  0  0  0  0  0
    0.6865    1.8421   -0.8708 C   0  0  0  0  0  0  0  0  0  0  0  0
    0.8200    1.8693   -1.9523 H   0  0  0  0  0  0  0  0  0  0  0  0
    0.7775    3.2689   -0.3218 C   0  0  0  0  0  0  0  0  0  0  0  0
    0.6296    3.2601    0.7590 H   0  0  0  0  0  0  0  0  0  0  0  0
    1.7602    3.6856   -0.5437 H   0  0  0  0  0  0  0  0  0  0  0  0
    0.0227    3.9052   -0.7786 H   0  0  0  0  0  0  0  0  0  0  0  0
    1.8353    1.0312   -0.2725 C   0  0  0  0  0  0  0  0  0  0  0  0
    1.8148    0.0170   -0.6711 H   0  0  0  0  0  0  0  0  0  0  0  0
    2.7888    1.4889   -0.5361 H   0  0  0  0  0  0  0  0  0  0  0  0
    1.7425    0.9931    0.8135 H   0  0  0  0  0  0  0  0  0  0  0  0
   -0.1913    0.1554    1.7759 C   0  0  0  0  0  0  0  0  0  0  0  0
    0.9476   -0.0766    2.1748 O   0  0  0  0  0  0  0  0  0  0  0  0
   -1.1502    0.6393    2.5760 N   0  0  0  0  0  0  0  0  0  0  0  0
   -2.0581    0.8092    2.1736 H   0  0  0  0  0  0  0  0  0  0  0  0
   -0.9568    0.9369    3.9933 C   0  0  0  0  0  0  0  0  0  0  0  0
   -0.1600    1.6750    4.1097 H   0  0  0  0  0  0  0  0  0  0  0  0
   -1.8775    1.3307    4.4266 H   0  0  0  0  0  0  0  0  0  0  0  0
   -0.6678    0.0287    4.5244 H   0  0  0  0  0  0  0  0  0  0  0  0
  5  6  2  0  0  0  0
  5  7  1  0  0  0  0
  2  3  1  0  0  0  0
  2  4  1  0  0  0  0
  2  5  1  0  0  0  0
  1  2  1  0  0  0  0
 24 25  2  0  0  0  0
 24 26  1  0  0  0  0
 20 21  1  0  0  0  0
 20 22  1  0  0  0  0
 20 23  1  0  0  0  0
 16 17  1  0  0  0  0
 16 18  1  0  0  0  0
 16 19  1  0  0  0  0
 14 15  1  0  0  0  0
 14 16  1  0  0  0  0
 14 20  1  0  0  0  0
 11 12  1  0  0  0  0
 11 13  1  0  0  0  0
 11 14  1  0  0  0  0
  9 10  1  0  0  0  0
  9 11  1  0  0  0  0
  9 24  1  0  0  0  0
  7  8  1  0  0  0  0
  7  9  1  0  0  0  0
 28 29  1  0  0  0  0
 28 30  1  0  0  0  0
 28 31  1  0  0  0  0
 26 27  1  0  0  0  0
 26 28  1  0  0  0  0
M  END
$$$$
default_name
  -OEChem-02102213163D

 31 30  0     1  0  0  0  0  0999 V2000
   -3.5895   -3.5013    1.1082 H   0  0  0  0  0  0  0  0  0  0  0  0
   -3.5145   -2.5363    0.6082 C   0  0  0  0  0  0  0  0  0  0  0  0
   -4.2285   -1.8413    1.0452 H   0  0  0  0  0  0  0  0  0  0  0  0
   -3.7155   -2.6583   -0.4538 H   0  0  0  0  0  0  0  0  0  0  0  0
   -2.1155   -1.9963    0.7922 C   0  0  0  0  0  0  0  0  0  0  0  0
   -1.2875   -2.6383    1.4252 O   0  0  0  0  0  0  0  0  0  0  0  0
   -1.8575   -0.8123    0.2402 N   0  0  0  0  0  0  0  0  0  0  0  0
   -2.6005   -0.3333   -0.2478 H   0  0  0  0  0  0  0  0  0  0  0  0
   -0.5675   -0.1203    0.3102 C   0  0  1  0  0  0  0  0  0  0  0  0
    0.1932   -0.7715   -0.1219 H   0  0  0  0  0  0  0  0  0  0  0  0
   -0.6568    1.1713   -0.5294 C   0  0  0  0  0  0  0  0  0  0  0  0
   -1.1766    0.9453   -1.4625 H   0  0  0  0  0  0  0  0  0  0  0  0
   -1.2655    1.8909    0.0224 H   0  0  0  0  0  0  0  0  0  0  0  0
    0.6865    1.8421   -0.8708 C   0  0  0  0  0  0  0  0  0  0  0  0
    0.7060    2.1104   -1.9271 H   0  0  0  0  0  0  0  0  0  0  0  0
    0.9354    3.0996   -0.0330 C   0  0  0  0  0  0  0  0  0  0  0  0
    0.9028    2.8501    1.0284 H   0  0  0  0  0  0  0  0  0  0  0  0
    1.9159    3.5121   -0.2723 H   0  0  0  0  0  0  0  0  0  0  0  0
    0.1830    3.8566   -0.2433 H   0  0  0  0  0  0  0  0  0  0  0  0
    1.8324    0.8655   -0.6094 C   0  0  0  0  0  0  0  0  0  0  0  0
    1.6984   -0.0285   -1.2183 H   0  0  0  0  0  0  0  0  0  0  0  0
    2.7824    1.3285   -0.8765 H   0  0  0  0  0  0  0  0  0  0  0  0
    1.8530    0.5838    0.4439 H   0  0  0  0  0  0  0  0  0  0  0  0
   -0.1913    0.1554    1.7759 C   0  0  0  0  0  0  0  0  0  0  0  0
    0.9476   -0.0766    2.1748 O   0  0  0  0  0  0  0  0  0  0  0  0
   -1.1502    0.6393    2.5760 N   0  0  0  0  0  0  0  0  0  0  0  0
   -2.0581    0.8092    2.1736 H   0  0  0  0  0  0  0  0  0  0  0  0
   -0.9568    0.9369    3.9933 C   0  0  0  0  0  0  0  0  0  0  0  0
   -0.1600    1.6750    4.1097 H   0  0  0  0  0  0  0  0  0  0  0  0
   -1.8775    1.3307    4.4266 H   0  0  0  0  0  0  0  0  0  0  0  0
   -0.6678    0.0287    4.5244 H   0  0  0  0  0  0  0  0  0  0  0  0
  5  6  2  0  0  0  0
  5  7  1  0  0  0  0
  2  3  1  0  0  0  0
  2  4  1  0  0  0  0
  2  5  1  0  0  0  0
  1  2  1  0  0  0  0
 24 25  2  0  0  0  0
 24 26  1  0  0  0  0
 20 21  1  0  0  0  0
 20 22  1  0  0  0  0
 20 23  1  0  0  0  0
 16 17  1  0  0  0  0
 16 18  1  0  0  0  0
 16 19  1  0  0  0  0
 14 15  1  0  0  0  0
 14 16  1  0  0  0  0
 14 20  1  0  0  0  0
 11 12  1  0  0  0  0
 11 13  1  0  0  0  0
 11 14  1  0  0  0  0
  9 10  1  0  0  0  0
  9 11  1  0  0  0  0
  9 24  1  0  0  0  0
  7  8  1  0  0  0  0
  7  9  1  0  0  0  0
 28 29  1  0  0  0  0
 28 30  1  0  0  0  0
 28 31  1  0  0  0  0
 26 27  1  0  0  0  0
 26 28  1  0  0  0  0
M  END
$$$$
default_name
  -OEChem-02102213163D

 31 30  0     1  0  0  0  0  0999 V2000
   -3.5895   -3.5013    1.1082 H   0  0  0  0  0  0  0  0  0  0  0  0
   -3.5145   -2.5363    0.6082 C   0  0  0  0  0  0  0  0  0  0  0  0
   -4.2285   -1.8413    1.0452 H   0  0  0  0  0  0  0  0  0  0  0  0
   -3.7155   -2.6583   -0.4538 H   0  0  0  0  0  0  0  0  0  0  0  0
   -2.1155   -1.9963    0.7922 C   0  0  0  0  0  0  0  0  0  0  0  0
   -1.2875   -2.6383    1.4252 O   0  0  0  0  0  0  0  0  0  0  0  0
   -1.8575   -0.8123    0.2402 N   0  0  0  0  0  0  0  0  0  0  0  0
   -2.6005   -0.3333   -0.2478 H   0  0  0  0  0  0  0  0  0  0  0  0
   -0.5675   -0.1203    0.3102 C   0  0  1  0  0  0  0  0  0  0  0  0
    0.1932   -0.7715   -0.1219 H   0  0  0  0  0  0  0  0  0  0  0  0
   -0.6568    1.1713   -0.5294 C   0  0  0  0  0  0  0  0  0  0  0  0
   -1.1766    0.9453   -1.4625 H   0  0  0  0  0  0  0  0  0  0  0  0
   -1.2655    1.8909    0.0224 H   0  0  0  0  0  0  0  0  0  0  0  0
    0.6865    1.8421   -0.8708 C   0  0  0  0  0  0  0  0  0  0  0  0
    0.6126    2.3441   -1.8356 H   0  0  0  0  0  0  0  0  0  0  0  0
    1.1108    2.8619    0.1899 C   0  0  0  0  0  0  0  0  0  0  0  0
    1.1736    2.3776    1.1654 H   0  0  0  0  0  0  0  0  0  0  0  0
    2.0869    3.2743   -0.0669 H   0  0  0  0  0  0  0  0  0  0  0  0
    0.3954    3.6796    0.2446 H   0  0  0  0  0  0  0  0  0  0  0  0
    1.7822    0.7817   -0.9720 C   0  0  0  0  0  0  0  0  0  0  0  0
    1.5217    0.0578   -1.7441 H   0  0  0  0  0  0  0  0  0  0  0  0
    2.7286    1.2509   -1.2407 H   0  0  0  0  0  0  0  0  0  0  0  0
    1.8946    0.2655   -0.0179 H   0  0  0  0  0  0  0  0  0  0  0  0
   -0.1913    0.1554    1.7759 C   0  0  0  0  0  0  0  0  0  0  0  0
    0.9476   -0.0766    2.1748 O   0  0  0  0  0  0  0  0  0  0  0  0
   -1.1502    0.6393    2.5760 N   0  0  0  0  0  0  0  0  0  0  0  0
   -2.0581    0.8092    2.1736 H   0  0  0  0  0  0  0  0  0  0  0  0
   -0.9568    0.9369    3.9933 C   0  0  0  0  0  0  0  0  0  0  0  0
   -0.1600    1.6750    4.1097 H   0  0  0  0  0  0  0  0  0  0  0  0
   -1.8775    1.3307    4.4266 H   0  0  0  0  0  0  0  0  0  0  0  0
   -0.6678    0.0287    4.5244 H   0  0  0  0  0  0  0  0  0  0  0  0
  5  6  2  0  0  0  0
  5  7  1  0  0  0  0
  2  3  1  0  0  0  0
  2  4  1  0  0  0  0
  2  5  1  0  0  0  0
  1  2  1  0  0  0  0
 24 25  2  0  0  0  0
 24 26  1  0  0  0  0
 20 21  1  0  0  0  0
 20 22  1  0  0  0  0
 20 23  1  0  0  0  0
 16 17  1  0  0  0  0
 16 18  1  0  0  0  0
 16 19  1  0  0  0  0
 14 15  1  0  0  0  0
 14 16  1  0  0  0  0
 14 20  1  0  0  0  0
 11 12  1  0  0  0  0
 11 13  1  0  0  0  0
 11 14  1  0  0  0  0
  9 10  1  0  0  0  0
  9 11  1  0  0  0  0
  9 24  1  0  0  0  0
  7  8  1  0  0  0  0
  7  9  1  0  0  0  0
 28 29  1  0  0  0  0
 28 30  1  0  0  0  0
 28 31  1  0  0  0  0
 26 27  1  0  0  0  0
 26 28  1  0  0  0  0
M  END
$$$$
default_name
  -OEChem-02102213163D

 31 30  0     1  0  0  0  0  0999 V2000
   -3.5895   -3.5013    1.1082 H   0  0  0  0  0  0  0  0  0  0  0  0
   -3.5145   -2.5363    0.6082 C   0  0  0  0  0  0  0  0  0  0  0  0
   -4.2285   -1.8413    1.0452 H   0  0  0  0  0  0  0  0  0  0  0  0
   -3.7155   -2.6583   -0.4538 H   0  0  0  0  0  0  0  0  0  0  0  0
   -2.1155   -1.9963    0.7922 C   0  0  0  0  0  0  0  0  0  0  0  0
   -1.2875   -2.6383    1.4252 O   0  0  0  0  0  0  0  0  0  0  0  0
   -1.8575   -0.8123    0.2402 N   0  0  0  0  0  0  0  0  0  0  0  0
   -2.6005   -0.3333   -0.2478 H   0  0  0  0  0  0  0  0  0  0  0  0
   -0.5675   -0.1203    0.3102 C   0  0  1  0  0  0  0  0  0  0  0  0
    0.1932   -0.7715   -0.1219 H   0  0  0  0  0  0  0  0  0  0  0  0
   -0.6568    1.1713   -0.5294 C   0  0  0  0  0  0  0  0  0  0  0  0
   -1.1766    0.9453   -1.4625 H   0  0  0  0  0  0  0  0  0  0  0  0
   -1.2655    1.8909    0.0224 H   0  0  0  0  0  0  0  0  0  0  0  0
    0.6865    1.8421   -0.8708 C   0  0  0  0  0  0  0  0  0  0  0  0
    0.5461    2.5545   -1.6838 H   0  0  0  0  0  0  0  0  0  0  0  0
    1.2917    2.5719    0.3318 C   0  0  0  0  0  0  0  0  0  0  0  0
    1.4235    1.8747    1.1604 H   0  0  0  0  0  0  0  0  0  0  0  0
    2.2615    2.9883    0.0586 H   0  0  0  0  0  0  0  0  0  0  0  0
    0.6454    3.3863    0.6521 H   0  0  0  0  0  0  0  0  0  0  0  0
    1.6879    0.7854   -1.3354 C   0  0  0  0  0  0  0  0  0  0  0  0
    1.2967    0.2700   -2.2125 H   0  0  0  0  0  0  0  0  0  0  0  0
    2.6311    1.2612   -1.6040 H   0  0  0  0  0  0  0  0  0  0  0  0
    1.8644    0.0599   -0.5405 H   0  0  0  0  0  0  0  0  0  0  0  0
   -0.1913    0.1554    1.7759 C   0  0  0  0  0  0  0  0  0  0  0  0
    0.9476   -0.0766    2.1748 O   0  0  0  0  0  0  0  0  0  0  0  0
   -1.1502    0.6393    2.5760 N   0  0  0  0  0  0  0  0  0  0  0  0
   -2.0581    0.8092    2.1736 H   0  0  0  0  0  0  0  0  0  0  0  0
   -0.9568    0.9369    3.9933 C   0  0  0  0  0  0  0  0  0  0  0  0
   -0.1600    1.6750    4.1097 H   0  0  0  0  0  0  0  0  0  0  0  0
   -1.8775    1.3307    4.4266 H   0  0  0  0  0  0  0  0  0  0  0  0
   -0.6678    0.0287    4.5244 H   0  0  0  0  0  0  0  0  0  0  0  0
  5  6  2  0  0  0  0
  5  7  1  0  0  0  0
  2  3  1  0  0  0  0
  2  4  1  0  0  0  0
  2  5  1  0  0  0  0
  1  2  1  0  0  0  0
 24 25  2  0  0  0  0
 24 26  1  0  0  0  0
 20 21  1  0  0  0  0
 20 22  1  0  0  0  0
 20 23  1  0  0  0  0
 16 17  1  0  0  0  0
 16 18  1  0  0  0  0
 16 19  1  0  0  0  0
 14 15  1  0  0  0  0
 14 16  1  0  0  0  0
 14 20  1  0  0  0  0
 11 12  1  0  0  0  0
 11 13  1  0  0  0  0
 11 14  1  0  0  0  0
  9 10  1  0  0  0  0
  9 11  1  0  0  0  0
  9 24  1  0  0  0  0
  7  8  1  0  0  0  0
  7  9  1  0  0  0  0
 28 29  1  0  0  0  0
 28 30  1  0  0  0  0
 28 31  1  0  0  0  0
 26 27  1  0  0  0  0
 26 28  1  0  0  0  0
M  END
$$$$
default_name
  -OEChem-02102213163D

 31 30  0     1  0  0  0  0  0999 V2000
   -3.5895   -3.5013    1.1082 H   0  0  0  0  0  0  0  0  0  0  0  0
   -3.5145   -2.5363    0.6082 C   0  0  0  0  0  0  0  0  0  0  0  0
   -4.2285   -1.8413    1.0452 H   0  0  0  0  0  0  0  0  0  0  0  0
   -3.7155   -2.6583   -0.4538 H   0  0  0  0  0  0  0  0  0  0  0  0
   -2.1155   -1.9963    0.7922 C   0  0  0  0  0  0  0  0  0  0  0  0
   -1.2875   -2.6383    1.4252 O   0  0  0  0  0  0  0  0  0  0  0  0
   -1.8575   -0.8123    0.2402 N   0  0  0  0  0  0  0  0  0  0  0  0
   -2.6005   -0.3333   -0.2478 H   0  0  0  0  0  0  0  0  0  0  0  0
   -0.5675   -0.1203    0.3102 C   0  0  1  0  0  0  0  0  0  0  0  0
    0.1932   -0.7715   -0.1219 H   0  0  0  0  0  0  0  0  0  0  0  0
   -0.6568    1.1713   -0.5294 C   0  0  0  0  0  0  0  0  0  0  0  0
   -1.1766    0.9453   -1.4625 H   0  0  0  0  0  0  0  0  0  0  0  0
   -1.2655    1.8909    0.0224 H   0  0  0  0  0  0  0  0  0  0  0  0
    0.6865    1.8421   -0.8708 C   0  0  0  0  0  0  0  0  0  0  0  0
    0.5110    2.7273   -1.4822 H   0  0  0  0  0  0  0  0  0  0  0  0
    1.4658    2.2494    0.3830 C   0  0  0  0  0  0  0  0  0  0  0  0
    1.6354    1.3758    1.0139 H   0  0  0  0  0  0  0  0  0  0  0  0
    2.4280    2.6738    0.0955 H   0  0  0  0  0  0  0  0  0  0  0  0
    0.9161    2.9967    0.9512 H   0  0  0  0  0  0  0  0  0  0  0  0
    1.5561    0.8765   -1.6750 C   0  0  0  0  0  0  0  0  0  0  0  0
    1.0387    0.5936   -2.5916 H   0  0  0  0  0  0  0  0  0  0  0  0
    2.4965    1.3588   -1.9416 H   0  0  0  0  0  0  0  0  0  0  0  0
    1.7646   -0.0189   -1.0883 H   0  0  0  0  0  0  0  0  0  0  0  0
   -0.1913    0.1554    1.7759 C   0  0  0  0  0  0  0  0  0  0  0  0
    0.9476   -0.0766    2.1748 O   0  0  0  0  0  0  0  0  0  0  0  0
   -1.1502    0.6393    2.5760 N   0  0  0  0  0  0  0  0  0  0  0  0
   -2.0581    0.8092    2.1736 H   0  0  0  0  0  0  0  0  0  0  0  0
   -0.9568    0.9369    3.9933 C   0  0  0  0  0  0  0  0  0  0  0  0
   -0.1600    1.6750    4.1097 H   0  0  0  0  0  0  0  0  0  0  0  0
   -1.8775    1.3307    4.4266 H   0  0  0  0  0  0  0  0  0  0  0  0
   -0.6678    0.0287    4.5244 H   0  0  0  0  0  0  0  0  0  0  0  0
  5  6  2  0  0  0  0
  5  7  1  0  0  0  0
  2  3  1  0  0  0  0
  2  4  1  0  0  0  0
  2  5  1  0  0  0  0
  1  2  1  0  0  0  0
 24 25  2  0  0  0  0
 24 26  1  0  0  0  0
 20 21  1  0  0  0  0
 20 22  1  0  0  0  0
 20 23  1  0  0  0  0
 16 17  1  0  0  0  0
 16 18  1  0  0  0  0
 16 19  1  0  0  0  0
 14 15  1  0  0  0  0
 14 16  1  0  0  0  0
 14 20  1  0  0  0  0
 11 12  1  0  0  0  0
 11 13  1  0  0  0  0
 11 14  1  0  0  0  0
  9 10  1  0  0  0  0
  9 11  1  0  0  0  0
  9 24  1  0  0  0  0
  7  8  1  0  0  0  0
  7  9  1  0  0  0  0
 28 29  1  0  0  0  0
 28 30  1  0  0  0  0
 28 31  1  0  0  0  0
 26 27  1  0  0  0  0
 26 28  1  0  0  0  0
M  END
$$$$
default_name
  -OEChem-02102213163D

 31 30  0     1  0  0  0  0  0999 V2000
   -3.5895   -3.5013    1.1082 H   0  0  0  0  0  0  0  0  0  0  0  0
   -3.5145   -2.5363    0.6082 C   0  0  0  0  0  0  0  0  0  0  0  0
   -4.2285   -1.8413    1.0452 H   0  0  0  0  0  0  0  0  0  0  0  0
   -3.7155   -2.6583   -0.4538 H   0  0  0  0  0  0  0  0  0  0  0  0
   -2.1155   -1.9963    0.7922 C   0  0  0  0  0  0  0  0  0  0  0  0
   -1.2875   -2.6383    1.4252 O   0  0  0  0  0  0  0  0  0  0  0  0
   -1.8575   -0.8123    0.2402 N   0  0  0  0  0  0  0  0  0  0  0  0
   -2.6005   -0.3333   -0.2478 H   0  0  0  0  0  0  0  0  0  0  0  0
   -0.5675   -0.1203    0.3102 C   0  0  1  0  0  0  0  0  0  0  0  0
    0.1932   -0.7715   -0.1219 H   0  0  0  0  0  0  0  0  0  0  0  0
   -0.6568    1.1713   -0.5294 C   0  0  0  0  0  0  0  0  0  0  0  0
   -1.1766    0.9453   -1.4625 H   0  0  0  0  0  0  0  0  0  0  0  0
   -1.2655    1.8909    0.0224 H   0  0  0  0  0  0  0  0  0  0  0  0
    0.6865    1.8421   -0.8708 C   0  0  0  0  0  0  0  0  0  0  0  0
    0.5098    2.8507   -1.2445 H   0  0  0  0  0  0  0  0  0  0  0  0
    1.6212    1.9163    0.3400 C   0  0  0  0  0  0  0  0  0  0  0  0
    1.7950    0.9148    0.7358 H   0  0  0  0  0  0  0  0  0  0  0  0
    2.5749    2.3521    0.0414 H   0  0  0  0  0  0  0  0  0  0  0  0
    1.1888    2.5372    1.1217 H   0  0  0  0  0  0  0  0  0  0  0  0
    1.3958    1.0488   -1.9676 C   0  0  0  0  0  0  0  0  0  0  0  0
    0.7653    1.0066   -2.8557 H   0  0  0  0  0  0  0  0  0  0  0  0
    2.3341    1.5370   -2.2305 H   0  0  0  0  0  0  0  0  0  0  0  0
    1.6018    0.0344   -1.6240 H   0  0  0  0  0  0  0  0  0  0  0  0
   -0.1913    0.1554    1.7759 C   0  0  0  0  0  0  0  0  0  0  0  0
    0.9476   -0.0766    2.1748 O   0  0  0  0  0  0  0  0  0  0  0  0
   -1.1502    0.6393    2.5760 N   0  0  0  0  0  0  0  0  0  0  0  0
   -2.0581    0.8092    2.1736 H   0  0  0  0  0  0  0  0  0  0  0  0
   -0.9568    0.9369    3.9933 C   0  0  0  0  0  0  0  0  0  0  0  0
   -0.1600    1.6750    4.1097 H   0  0  0  0  0  0  0  0  0  0  0  0
   -1.8775    1.3307    4.4266 H   0  0  0  0  0  0  0  0  0  0  0  0
   -0.6678    0.0287    4.5244 H   0  0  0  0  0  0  0  0  0  0  0  0
  5  6  2  0  0  0  0
  5  7  1  0  0  0  0
  2  3  1  0  0  0  0
  2  4  1  0  0  0  0
  2  5  1  0  0  0  0
  1  2  1  0  0  0  0
 24 25  2  0  0  0  0
 24 26  1  0  0  0  0
 20 21  1  0  0  0  0
 20 22  1  0  0  0  0
 20 23  1  0  0  0  0
 16 17  1  0  0  0  0
 16 18  1  0  0  0  0
 16 19  1  0  0  0  0
 14 15  1  0  0  0  0
 14 16  1  0  0  0  0
 14 20  1  0  0  0  0
 11 12  1  0  0  0  0
 11 13  1  0  0  0  0
 11 14  1  0  0  0  0
  9 10  1  0  0  0  0
  9 11  1  0  0  0  0
  9 24  1  0  0  0  0
  7  8  1  0  0  0  0
  7  9  1  0  0  0  0
 28 29  1  0  0  0  0
 28 30  1  0  0  0  0
 28 31  1  0  0  0  0
 26 27  1  0  0  0  0
 26 28  1  0  0  0  0
M  END
$$$$
default_name
  -OEChem-02102213163D

 31 30  0     1  0  0  0  0  0999 V2000
   -3.5895   -3.5013    1.1082 H   0  0  0  0  0  0  0  0  0  0  0  0
   -3.5145   -2.5363    0.6082 C   0  0  0  0  0  0  0  0  0  0  0  0
   -4.2285   -1.8413    1.0452 H   0  0  0  0  0  0  0  0  0  0  0  0
   -3.7155   -2.6583   -0.4538 H   0  0  0  0  0  0  0  0  0  0  0  0
   -2.1155   -1.9963    0.7922 C   0  0  0  0  0  0  0  0  0  0  0  0
   -1.2875   -2.6383    1.4252 O   0  0  0  0  0  0  0  0  0  0  0  0
   -1.8575   -0.8123    0.2402 N   0  0  0  0  0  0  0  0  0  0  0  0
   -2.6005   -0.3333   -0.2478 H   0  0  0  0  0  0  0  0  0  0  0  0
   -0.5675   -0.1203    0.3102 C   0  0  1  0  0  0  0  0  0  0  0  0
    0.1932   -0.7715   -0.1219 H   0  0  0  0  0  0  0  0  0  0  0  0
   -0.6568    1.1713   -0.5294 C   0  0  0  0  0  0  0  0  0  0  0  0
   -1.1766    0.9453   -1.4625 H   0  0  0  0  0  0  0  0  0  0  0  0
   -1.2655    1.8909    0.0224 H   0  0  0  0  0  0  0  0  0  0  0  0
    0.6865    1.8421   -0.8708 C   0  0  0  0  0  0  0  0  0  0  0  0
    0.5425    2.9163   -0.9869 H   0  0  0  0  0  0  0  0  0  0  0  0
    1.7474    1.5954    0.2057 C   0  0  0  0  0  0  0  0  0  0  0  0
    1.8913    0.5231    0.3451 H   0  0  0  0  0  0  0  0  0  0  0  0
    2.6922    2.0451   -0.1001 H   0  0  0  0  0  0  0  0  0  0  0  0
    1.4452    2.0393    1.1518 H   0  0  0  0  0  0  0  0  0  0  0  0
    1.2177    1.2904   -2.1932 C   0  0  0  0  0  0  0  0  0  0  0  0
    0.4952    1.4809   -2.9867 H   0  0  0  0  0  0  0  0  0  0  0  0
    2.1549    1.7837   -2.4510 H   0  0  0  0  0  0  0  0  0  0  0  0
    1.3872    0.2162   -2.1110 H   0  0  0  0  0  0  0  0  0  0  0  0
   -0.1913    0.1554    1.7759 C   0  0  0  0  0  0  0  0  0  0  0  0
    0.9476   -0.0766    2.1748 O   0  0  0  0  0  0  0  0  0  0  0  0
   -1.1502    0.6393    2.5760 N   0  0  0  0  0  0  0  0  0  0  0  0
   -2.0581    0.8092    2.1736 H   0  0  0  0  0  0  0  0  0  0  0  0
   -0.9568    0.9369    3.9933 C   0  0  0  0  0  0  0  0  0  0  0  0
   -0.1600    1.6750    4.1097 H   0  0  0  0  0  0  0  0  0  0  0  0
   -1.8775    1.3307    4.4266 H   0  0  0  0  0  0  0  0  0  0  0  0
   -0.6678    0.0287    4.5244 H   0  0  0  0  0  0  0  0  0  0  0  0
  5  6  2  0  0  0  0
  5  7  1  0  0  0  0
  2  3  1  0  0  0  0
  2  4  1  0  0  0  0
  2  5  1  0  0  0  0
  1  2  1  0  0  0  0
 24 25  2  0  0  0  0
 24 26  1  0  0  0  0
 20 21  1  0  0  0  0
 20 22  1  0  0  0  0
 20 23  1  0  0  0  0
 16 17  1  0  0  0  0
 16 18  1  0  0  0  0
 16 19  1  0  0  0  0
 14 15  1  0  0  0  0
 14 16  1  0  0  0  0
 14 20  1  0  0  0  0
 11 12  1  0  0  0  0
 11 13  1  0  0  0  0
 11 14  1  0  0  0  0
  9 10  1  0  0  0  0
  9 11  1  0  0  0  0
  9 24  1  0  0  0  0
  7  8  1  0  0  0  0
  7  9  1  0  0  0  0
 28 29  1  0  0  0  0
 28 30  1  0  0  0  0
 28 31  1  0  0  0  0
 26 27  1  0  0  0  0
 26 28  1  0  0  0  0
M  END
$$$$
default_name
  -OEChem-02102213163D

 31 30  0     1  0  0  0  0  0999 V2000
   -3.5895   -3.5013    1.1082 H   0  0  0  0  0  0  0  0  0  0  0  0
   -3.5145   -2.5363    0.6082 C   0  0  0  0  0  0  0  0  0  0  0  0
   -4.2285   -1.8413    1.0452 H   0  0  0  0  0  0  0  0  0  0  0  0
   -3.7155   -2.6583   -0.4538 H   0  0  0  0  0  0  0  0  0  0  0  0
   -2.1155   -1.9963    0.7922 C   0  0  0  0  0  0  0  0  0  0  0  0
   -1.2875   -2.6383    1.4252 O   0  0  0  0  0  0  0  0  0  0  0  0
   -1.8575   -0.8123    0.2402 N   0  0  0  0  0  0  0  0  0  0  0  0
   -2.6005   -0.3333   -0.2478 H   0  0  0  0  0  0  0  0  0  0  0  0
   -0.5675   -0.1203    0.3102 C   0  0  1  0  0  0  0  0  0  0  0  0
    0.1932   -0.7715   -0.1219 H   0  0  0  0  0  0  0  0  0  0  0  0
   -0.6568    1.1713   -0.5294 C   0  0  0  0  0  0  0  0  0  0  0  0
   -1.1766    0.9453   -1.4625 H   0  0  0  0  0  0  0  0  0  0  0  0
   -1.2655    1.8909    0.0224 H   0  0  0  0  0  0  0  0  0  0  0  0
    0.6865    1.8421   -0.8708 C   0  0  0  0  0  0  0  0  0  0  0  0
    0.6069    2.9197   -0.7270 H   0  0  0  0  0  0  0  0  0  0  0  0
    1.8357    1.3084   -0.0107 C   0  0  0  0  0  0  0  0  0  0  0  0
    1.9178    0.2274   -0.1316 H   0  0  0  0  0  0  0  0  0  0  0  0
    2.7720    1.7739   -0.3193 H   0  0  0  0  0  0  0  0  0  0  0  0
    1.6676    1.5368    1.0396 H   0  0  0  0  0  0  0  0  0  0  0  0
    1.0342    1.5850   -2.3365 C   0  0  0  0  0  0  0  0  0  0  0  0
    0.2467    1.9841   -2.9757 H   0  0  0  0  0  0  0  0  0  0  0  0
    1.9711    2.0821   -2.5880 H   0  0  0  0  0  0  0  0  0  0  0  0
    1.1355    0.5141   -2.5163 H   0  0  0  0  0  0  0  0  0  0  0  0
   -0.1913    0.1554    1.7759 C   0  0  0  0  0  0  0  0  0  0  0  0
    0.9476   -0.0766    2.1748 O   0  0  0  0  0  0  0  0  0  0  0  0
   -1.1502    0.6393    2.5760 N   0  0  0  0  0  0  0  0  0  0  0  0
   -2.0581    0.8092    2.1736 H   0  0  0  0  0  0  0  0  0  0  0  0
   -0.9568    0.9369    3.9933 C   0  0  0  0  0  0  0  0  0  0  0  0
   -0.1600    1.6750    4.1097 H   0  0  0  0  0  0  0  0  0  0  0  0
   -1.8775    1.3307    4.4266 H   0  0  0  0  0  0  0  0  0  0  0  0
   -0.6678    0.0287    4.5244 H   0  0  0  0  0  0  0  0  0  0  0  0
  5  6  2  0  0  0  0
  5  7  1  0  0  0  0
  2  3  1  0  0  0  0
  2  4  1  0  0  0  0
  2  5  1  0  0  0  0
  1  2  1  0  0  0  0
 24 25  2  0  0  0  0
 24 26  1  0  0  0  0
 20 21  1  0  0  0  0
 20 22  1  0  0  0  0
 20 23  1  0  0  0  0
 16 17  1  0  0  0  0
 16 18  1  0  0  0  0
 16 19  1  0  0  0  0
 14 15  1  0  0  0  0
 14 16  1  0  0  0  0
 14 20  1  0  0  0  0
 11 12  1  0  0  0  0
 11 13  1  0  0  0  0
 11 14  1  0  0  0  0
  9 10  1  0  0  0  0
  9 11  1  0  0  0  0
  9 24  1  0  0  0  0
  7  8  1  0  0  0  0
  7  9  1  0  0  0  0
 28 29  1  0  0  0  0
 28 30  1  0  0  0  0
 28 31  1  0  0  0  0
 26 27  1  0  0  0  0
 26 28  1  0  0  0  0
M  END
$$$$
default_name
  -OEChem-02102213163D

 31 30  0     1  0  0  0  0  0999 V2000
   -3.5895   -3.5013    1.1082 H   0  0  0  0  0  0  0  0  0  0  0  0
   -3.5145   -2.5363    0.6082 C   0  0  0  0  0  0  0  0  0  0  0  0
   -4.2285   -1.8413    1.0452 H   0  0  0  0  0  0  0  0  0  0  0  0
   -3.7155   -2.6583   -0.4538 H   0  0  0  0  0  0  0  0  0  0  0  0
   -2.1155   -1.9963    0.7922 C   0  0  0  0  0  0  0  0  0  0  0  0
   -1.2875   -2.6383    1.4252 O   0  0  0  0  0  0  0  0  0  0  0  0
   -1.8575   -0.8123    0.2402 N   0  0  0  0  0  0  0  0  0  0  0  0
   -2.6005   -0.3333   -0.2478 H   0  0  0  0  0  0  0  0  0  0  0  0
   -0.5675   -0.1203    0.3102 C   0  0  1  0  0  0  0  0  0  0  0  0
    0.1932   -0.7715   -0.1219 H   0  0  0  0  0  0  0  0  0  0  0  0
   -0.6568    1.1713   -0.5294 C   0  0  0  0  0  0  0  0  0  0  0  0
   -1.1766    0.9453   -1.4625 H   0  0  0  0  0  0  0  0  0  0  0  0
   -1.2655    1.8909    0.0224 H   0  0  0  0  0  0  0  0  0  0  0  0
    0.6865    1.8421   -0.8708 C   0  0  0  0  0  0  0  0  0  0  0  0
    0.6986    2.8605   -0.4824 H   0  0  0  0  0  0  0  0  0  0  0  0
    1.8801    1.0751   -0.2945 C   0  0  0  0  0  0  0  0  0  0  0  0
    1.8727    0.0479   -0.6618 H   0  0  0  0  0  0  0  0  0  0  0  0
    2.8088    1.5567   -0.6013 H   0  0  0  0  0  0  0  0  0  0  0  0
    1.8410    1.0640    0.7926 H   0  0  0  0  0  0  0  0  0  0  0  0
    0.8577    1.9124   -2.3878 C   0  0  0  0  0  0  0  0  0  0  0  0
    0.0368    2.4819   -2.8234 H   0  0  0  0  0  0  0  0  0  0  0  0
    1.7952    2.4118   -2.6323 H   0  0  0  0  0  0  0  0  0  0  0  0
    0.8637    0.9077   -2.8120 H   0  0  0  0  0  0  0  0  0  0  0  0
   -0.1913    0.1554    1.7759 C   0  0  0  0  0  0  0  0  0  0  0  0
    0.9476   -0.0766    2.1748 O   0  0  0  0  0  0  0  0  0  0  0  0
   -1.1502    0.6393    2.5760 N   0  0  0  0  0  0  0  0  0  0  0  0
   -2.0581    0.8092    2.1736 H   0  0  0  0  0  0  0  0  0  0  0  0
   -0.9568    0.9369    3.9933 C   0  0  0  0  0  0  0  0  0  0  0  0
   -0.1600    1.6750    4.1097 H   0  0  0  0  0  0  0  0  0  0  0  0
   -1.8775    1.3307    4.4266 H   0  0  0  0  0  0  0  0  0  0  0  0
   -0.6678    0.0287    4.5244 H   0  0  0  0  0  0  0  0  0  0  0  0
  5  6  2  0  0  0  0
  5  7  1  0  0  0  0
  2  3  1  0  0  0  0
  2  4  1  0  0  0  0
  2  5  1  0  0  0  0
  1  2  1  0  0  0  0
 24 25  2  0  0  0  0
 24 26  1  0  0  0  0
 20 21  1  0  0  0  0
 20 22  1  0  0  0  0
 20 23  1  0  0  0  0
 16 17  1  0  0  0  0
 16 18  1  0  0  0  0
 16 19  1  0  0  0  0
 14 15  1  0  0  0  0
 14 16  1  0  0  0  0
 14 20  1  0  0  0  0
 11 12  1  0  0  0  0
 11 13  1  0  0  0  0
 11 14  1  0  0  0  0
  9 10  1  0  0  0  0
  9 11  1  0  0  0  0
  9 24  1  0  0  0  0
  7  8  1  0  0  0  0
  7  9  1  0  0  0  0
 28 29  1  0  0  0  0
 28 30  1  0  0  0  0
 28 31  1  0  0  0  0
 26 27  1  0  0  0  0
 26 28  1  0  0  0  0
M  END
$$$$
default_name
  -OEChem-02102213163D

 31 30  0     1  0  0  0  0  0999 V2000
   -3.5895   -3.5013    1.1082 H   0  0  0  0  0  0  0  0  0  0  0  0
   -3.5145   -2.5363    0.6082 C   0  0  0  0  0  0  0  0  0  0  0  0
   -4.2285   -1.8413    1.0452 H   0  0  0  0  0  0  0  0  0  0  0  0
   -3.7155   -2.6583   -0.4538 H   0  0  0  0  0  0  0  0  0  0  0  0
   -2.1155   -1.9963    0.7922 C   0  0  0  0  0  0  0  0  0  0  0  0
   -1.2875   -2.6383    1.4252 O   0  0  0  0  0  0  0  0  0  0  0  0
   -1.8575   -0.8123    0.2402 N   0  0  0  0  0  0  0  0  0  0  0  0
   -2.6005   -0.3333   -0.2478 H   0  0  0  0  0  0  0  0  0  0  0  0
   -0.5675   -0.1203    0.3102 C   0  0  1  0  0  0  0  0  0  0  0  0
    0.1932   -0.7715   -0.1219 H   0  0  0  0  0  0  0  0  0  0  0  0
   -0.6568    1.1713   -0.5294 C   0  0  0  0  0  0  0  0  0  0  0  0
   -1.1766    0.9453   -1.4625 H   0  0  0  0  0  0  0  0  0  0  0  0
   -1.2655    1.8909    0.0224 H   0  0  0  0  0  0  0  0  0  0  0  0
    0.6865    1.8421   -0.8708 C   0  0  0  0  0  0  0  0  0  0  0  0
    0.8114    2.7429   -0.2698 H   0  0  0  0  0  0  0  0  0  0  0  0
    1.8776    0.9112   -0.6263 C   0  0  0  0  0  0  0  0  0  0  0  0
    1.7591   -0.0031   -1.2093 H   0  0  0  0  0  0  0  0  0  0  0  0
    2.8001    1.4086   -0.9268 H   0  0  0  0  0  0  0  0  0  0  0  0
    1.9534    0.6531    0.4278 H   0  0  0  0  0  0  0  0  0  0  0  0
    0.7001    2.2503   -2.3434 C   0  0  0  0  0  0  0  0  0  0  0  0
   -0.1203    2.9404   -2.5403 H   0  0  0  0  0  0  0  0  0  0  0  0
    1.6392    2.7503   -2.5808 H   0  0  0  0  0  0  0  0  0  0  0  0
    0.5905    1.3703   -2.9782 H   0  0  0  0  0  0  0  0  0  0  0  0
   -0.1913    0.1554    1.7759 C   0  0  0  0  0  0  0  0  0  0  0  0
    0.9476   -0.0766    2.1748 O   0  0  0  0  0  0  0  0  0  0  0  0
   -1.1502    0.6393    2.5760 N   0  0  0  0  0  0  0  0  0  0  0  0
   -2.0581    0.8092    2.1736 H   0  0  0  0  0  0  0  0  0  0  0  0
   -0.9568    0.9369    3.9933 C   0  0  0  0  0  0  0  0  0  0  0  0
   -0.1600    1.6750    4.1097 H   0  0  0  0  0  0  0  0  0  0  0  0
   -1.8775    1.3307    4.4266 H   0  0  0  0  0  0  0  0  0  0  0  0
   -0.6678    0.0287    4.5244 H   0  0  0  0  0  0  0  0  0  0  0  0
  5  6  2  0  0  0  0
  5  7  1  0  0  0  0
  2  3  1  0  0  0  0
  2  4  1  0  0  0  0
  2  5  1  0  0  0  0
  1  2  1  0  0  0  0
 24 25  2  0  0  0  0
 24 26  1  0  0  0  0
 20 21  1  0  0  0  0
 20 22  1  0  0  0  0
 20 23  1  0  0  0  0
 16 17  1  0  0  0  0
 16 18  1  0  0  0  0
 16 19  1  0  0  0  0
 14 15  1  0  0  0  0
 14 16  1  0  0  0  0
 14 20  1  0  0  0  0
 11 12  1  0  0  0  0
 11 13  1  0  0  0  0
 11 14  1  0  0  0  0
  9 10  1  0  0  0  0
  9 11  1  0  0  0  0
  9 24  1  0  0  0  0
  7  8  1  0  0  0  0
  7  9  1  0  0  0  0
 28 29  1  0  0  0  0
 28 30  1  0  0  0  0
 28 31  1  0  0  0  0
 26 27  1  0  0  0  0
 26 28  1  0  0  0  0
M  END
$$$$
default_name
  -OEChem-02102213163D

 31 30  0     1  0  0  0  0  0999 V2000
   -3.5895   -3.5013    1.1082 H   0  0  0  0  0  0  0  0  0  0  0  0
   -3.5145   -2.5363    0.6082 C   0  0  0  0  0  0  0  0  0  0  0  0
   -4.2285   -1.8413    1.0452 H   0  0  0  0  0  0  0  0  0  0  0  0
   -3.7155   -2.6583   -0.4538 H   0  0  0  0  0  0  0  0  0  0  0  0
   -2.1155   -1.9963    0.7922 C   0  0  0  0  0  0  0  0  0  0  0  0
   -1.2875   -2.6383    1.4252 O   0  0  0  0  0  0  0  0  0  0  0  0
   -1.8575   -0.8123    0.2402 N   0  0  0  0  0  0  0  0  0  0  0  0
   -2.6005   -0.3333   -0.2478 H   0  0  0  0  0  0  0  0  0  0  0  0
   -0.5675   -0.1203    0.3102 C   0  0  1  0  0  0  0  0  0  0  0  0
    0.1932   -0.7715   -0.1219 H   0  0  0  0  0  0  0  0  0  0  0  0
   -0.6568    1.1713   -0.5294 C   0  0  0  0  0  0  0  0  0  0  0  0
   -1.1766    0.9453   -1.4625 H   0  0  0  0  0  0  0  0  0  0  0  0
   -1.2655    1.8909    0.0224 H   0  0  0  0  0  0  0  0  0  0  0  0
    0.6865    1.8421   -0.8708 C   0  0  0  0  0  0  0  0  0  0  0  0
    0.9375    2.5748   -0.1038 H   0  0  0  0  0  0  0  0  0  0  0  0
    1.8284    0.8279   -0.9835 C   0  0  0  0  0  0  0  0  0  0  0  0
    1.5846    0.0777   -1.7369 H   0  0  0  0  0  0  0  0  0  0  0  0
    2.7464    1.3395   -1.2737 H   0  0  0  0  0  0  0  0  0  0  0  0
    1.9974    0.3322   -0.0300 H   0  0  0  0  0  0  0  0  0  0  0  0
    0.5724    2.5758   -2.2065 C   0  0  0  0  0  0  0  0  0  0  0  0
   -0.2137    3.3283   -2.1456 H   0  0  0  0  0  0  0  0  0  0  0  0
    1.5137    3.0746   -2.4371 H   0  0  0  0  0  0  0  0  0  0  0  0
    0.3343    1.8704   -3.0034 H   0  0  0  0  0  0  0  0  0  0  0  0
   -0.1913    0.1554    1.7759 C   0  0  0  0  0  0  0  0  0  0  0  0
    0.9476   -0.0766    2.1748 O   0  0  0  0  0  0  0  0  0  0  0  0
   -1.1502    0.6393    2.5760 N   0  0  0  0  0  0  0  0  0  0  0  0
   -2.0581    0.8092    2.1736 H   0  0  0  0  0  0  0  0  0  0  0  0
   -0.9568    0.9369    3.9933 C   0  0  0  0  0  0  0  0  0  0  0  0
   -0.1600    1.6750    4.1097 H   0  0  0  0  0  0  0  0  0  0  0  0
   -1.8775    1.3307    4.4266 H   0  0  0  0  0  0  0  0  0  0  0  0
   -0.6678    0.0287    4.5244 H   0  0  0  0  0  0  0  0  0  0  0  0
  5  6  2  0  0  0  0
  5  7  1  0  0  0  0
  2  3  1  0  0  0  0
  2  4  1  0  0  0  0
  2  5  1  0  0  0  0
  1  2  1  0  0  0  0
 24 25  2  0  0  0  0
 24 26  1  0  0  0  0
 20 21  1  0  0  0  0
 20 22  1  0  0  0  0
 20 23  1  0  0  0  0
 16 17  1  0  0  0  0
 16 18  1  0  0  0  0
 16 19  1  0  0  0  0
 14 15  1  0  0  0  0
 14 16  1  0  0  0  0
 14 20  1  0  0  0  0
 11 12  1  0  0  0  0
 11 13  1  0  0  0  0
 11 14  1  0  0  0  0
  9 10  1  0  0  0  0
  9 11  1  0  0  0  0
  9 24  1  0  0  0  0
  7  8  1  0  0  0  0
  7  9  1  0  0  0  0
 28 29  1  0  0  0  0
 28 30  1  0  0  0  0
 28 31  1  0  0  0  0
 26 27  1  0  0  0  0
 26 28  1  0  0  0  0
M  END
$$$$
default_name
  -OEChem-02102213163D

 31 30  0     1  0  0  0  0  0999 V2000
   -3.5895   -3.5013    1.1082 H   0  0  0  0  0  0  0  0  0  0  0  0
   -3.5145   -2.5363    0.6082 C   0  0  0  0  0  0  0  0  0  0  0  0
   -4.2285   -1.8413    1.0452 H   0  0  0  0  0  0  0  0  0  0  0  0
   -3.7155   -2.6583   -0.4538 H   0  0  0  0  0  0  0  0  0  0  0  0
   -2.1155   -1.9963    0.7922 C   0  0  0  0  0  0  0  0  0  0  0  0
   -1.2875   -2.6383    1.4252 O   0  0  0  0  0  0  0  0  0  0  0  0
   -1.8575   -0.8123    0.2402 N   0  0  0  0  0  0  0  0  0  0  0  0
   -2.6005   -0.3333   -0.2478 H   0  0  0  0  0  0  0  0  0  0  0  0
   -0.5675   -0.1203    0.3102 C   0  0  1  0  0  0  0  0  0  0  0  0
    0.1932   -0.7715   -0.1219 H   0  0  0  0  0  0  0  0  0  0  0  0
   -0.6568    1.1713   -0.5294 C   0  0  0  0  0  0  0  0  0  0  0  0
   -1.1766    0.9453   -1.4625 H   0  0  0  0  0  0  0  0  0  0  0  0
   -1.2655    1.8909    0.0224 H   0  0  0  0  0  0  0  0  0  0  0  0
    0.6865    1.8421   -0.8708 C   0  0  0  0  0  0  0  0  0  0  0  0
    1.0684    2.3677    0.0044 H   0  0  0  0  0  0  0  0  0  0  0  0
    1.7358    0.8310   -1.3418 C   0  0  0  0  0  0  0  0  0  0  0  0
    1.3612    0.2849   -2.2086 H   0  0  0  0  0  0  0  0  0  0  0  0
    2.6515    1.3541   -1.6183 H   0  0  0  0  0  0  0  0  0  0  0  0
    1.9698    0.1230   -0.5497 H   0  0  0  0  0  0  0  0  0  0  0  0
    0.4831    2.8666   -1.9864 C   0  0  0  0  0  0  0  0  0  0  0  0
   -0.2372    3.6193   -1.6662 H   0  0  0  0  0  0  0  0  0  0  0  0
    1.4274    3.3626   -2.2108 H   0  0  0  0  0  0  0  0  0  0  0  0
    0.1127    2.3738   -2.8860 H   0  0  0  0  0  0  0  0  0  0  0  0
   -0.1913    0.1554    1.7759 C   0  0  0  0  0  0  0  0  0  0  0  0
    0.9476   -0.0766    2.1748 O   0  0  0  0  0  0  0  0  0  0  0  0
   -1.1502    0.6393    2.5760 N   0  0  0  0  0  0  0  0  0  0  0  0
   -2.0581    0.8092    2.1736 H   0  0  0  0  0  0  0  0  0  0  0  0
   -0.9568    0.9369    3.9933 C   0  0  0  0  0  0  0  0  0  0  0  0
   -0.1600    1.6750    4.1097 H   0  0  0  0  0  0  0  0  0  0  0  0
   -1.8775    1.3307    4.4266 H   0  0  0  0  0  0  0  0  0  0  0  0
   -0.6678    0.0287    4.5244 H   0  0  0  0  0  0  0  0  0  0  0  0
  5  6  2  0  0  0  0
  5  7  1  0  0  0  0
  2  3  1  0  0  0  0
  2  4  1  0  0  0  0
  2  5  1  0  0  0  0
  1  2  1  0  0  0  0
 24 25  2  0  0  0  0
 24 26  1  0  0  0  0
 20 21  1  0  0  0  0
 20 22  1  0  0  0  0
 20 23  1  0  0  0  0
 16 17  1  0  0  0  0
 16 18  1  0  0  0  0
 16 19  1  0  0  0  0
 14 15  1  0  0  0  0
 14 16  1  0  0  0  0
 14 20  1  0  0  0  0
 11 12  1  0  0  0  0
 11 13  1  0  0  0  0
 11 14  1  0  0  0  0
  9 10  1  0  0  0  0
  9 11  1  0  0  0  0
  9 24  1  0  0  0  0
  7  8  1  0  0  0  0
  7  9  1  0  0  0  0
 28 29  1  0  0  0  0
 28 30  1  0  0  0  0
 28 31  1  0  0  0  0
 26 27  1  0  0  0  0
 26 28  1  0  0  0  0
M  END
$$$$
default_name
  -OEChem-02102213163D

 31 30  0     1  0  0  0  0  0999 V2000
   -3.5895   -3.5013    1.1082 H   0  0  0  0  0  0  0  0  0  0  0  0
   -3.5145   -2.5363    0.6082 C   0  0  0  0  0  0  0  0  0  0  0  0
   -4.2285   -1.8413    1.0452 H   0  0  0  0  0  0  0  0  0  0  0  0
   -3.7155   -2.6583   -0.4538 H   0  0  0  0  0  0  0  0  0  0  0  0
   -2.1155   -1.9963    0.7922 C   0  0  0  0  0  0  0  0  0  0  0  0
   -1.2875   -2.6383    1.4252 O   0  0  0  0  0  0  0  0  0  0  0  0
   -1.8575   -0.8123    0.2402 N   0  0  0  0  0  0  0  0  0  0  0  0
   -2.6005   -0.3333   -0.2478 H   0  0  0  0  0  0  0  0  0  0  0  0
   -0.5675   -0.1203    0.3102 C   0  0  1  0  0  0  0  0  0  0  0  0
    0.1932   -0.7715   -0.1219 H   0  0  0  0  0  0  0  0  0  0  0  0
   -0.6568    1.1713   -0.5294 C   0  0  0  0  0  0  0  0  0  0  0  0
   -1.1766    0.9453   -1.4625 H   0  0  0  0  0  0  0  0  0  0  0  0
   -1.2655    1.8909    0.0224 H   0  0  0  0  0  0  0  0  0  0  0  0
    0.6865    1.8421   -0.8708 C   0  0  0  0  0  0  0  0  0  0  0  0
    1.1952    2.1357    0.0474 H   0  0  0  0  0  0  0  0  0  0  0  0
    1.6061    0.9202   -1.6767 C   0  0  0  0  0  0  0  0  0  0  0  0
    1.1042    0.6044   -2.5923 H   0  0  0  0  0  0  0  0  0  0  0  0
    2.5218    1.4515   -1.9372 H   0  0  0  0  0  0  0  0  0  0  0  0
    1.8725    0.0399   -1.0957 H   0  0  0  0  0  0  0  0  0  0  0  0
    0.4384    3.1029   -1.6980 C   0  0  0  0  0  0  0  0  0  0  0  0
   -0.1891    3.7935   -1.1347 H   0  0  0  0  0  0  0  0  0  0  0  0
    1.3860    3.5947   -1.9176 H   0  0  0  0  0  0  0  0  0  0  0  0
   -0.0591    2.8462   -2.6340 H   0  0  0  0  0  0  0  0  0  0  0  0
   -0.1913    0.1554    1.7759 C   0  0  0  0  0  0  0  0  0  0  0  0
    0.9476   -0.0766    2.1748 O   0  0  0  0  0  0  0  0  0  0  0  0
   -1.1502    0.6393    2.5760 N   0  0  0  0  0  0  0  0  0  0  0  0
   -2.0581    0.8092    2.1736 H   0  0  0  0  0  0  0  0  0  0  0  0
   -0.9568    0.9369    3.9933 C   0  0  0  0  0  0  0  0  0  0  0  0
   -0.1600    1.6750    4.1097 H   0  0  0  0  0  0  0  0  0  0  0  0
   -1.8775    1.3307    4.4266 H   0  0  0  0  0  0  0  0  0  0  0  0
   -0.6678    0.0287    4.5244 H   0  0  0  0  0  0  0  0  0  0  0  0
  5  6  2  0  0  0  0
  5  7  1  0  0  0  0
  2  3  1  0  0  0  0
  2  4  1  0  0  0  0
  2  5  1  0  0  0  0
  1  2  1  0  0  0  0
 24 25  2  0  0  0  0
 24 26  1  0  0  0  0
 20 21  1  0  0  0  0
 20 22  1  0  0  0  0
 20 23  1  0  0  0  0
 16 17  1  0  0  0  0
 16 18  1  0  0  0  0
 16 19  1  0  0  0  0
 14 15  1  0  0  0  0
 14 16  1  0  0  0  0
 14 20  1  0  0  0  0
 11 12  1  0  0  0  0
 11 13  1  0  0  0  0
 11 14  1  0  0  0  0
  9 10  1  0  0  0  0
  9 11  1  0  0  0  0
  9 24  1  0  0  0  0
  7  8  1  0  0  0  0
  7  9  1  0  0  0  0
 28 29  1  0  0  0  0
 28 30  1  0  0  0  0
 28 31  1  0  0  0  0
 26 27  1  0  0  0  0
 26 28  1  0  0  0  0
M  END
$$$$
default_name
  -OEChem-02102213163D

 31 30  0     1  0  0  0  0  0999 V2000
   -3.5895   -3.5013    1.1082 H   0  0  0  0  0  0  0  0  0  0  0  0
   -3.5145   -2.5363    0.6082 C   0  0  0  0  0  0  0  0  0  0  0  0
   -4.2285   -1.8413    1.0452 H   0  0  0  0  0  0  0  0  0  0  0  0
   -3.7155   -2.6583   -0.4538 H   0  0  0  0  0  0  0  0  0  0  0  0
   -2.1155   -1.9963    0.7922 C   0  0  0  0  0  0  0  0  0  0  0  0
   -1.2875   -2.6383    1.4252 O   0  0  0  0  0  0  0  0  0  0  0  0
   -1.8575   -0.8123    0.2402 N   0  0  0  0  0  0  0  0  0  0  0  0
   -2.6005   -0.3333   -0.2478 H   0  0  0  0  0  0  0  0  0  0  0  0
   -0.5675   -0.1203    0.3102 C   0  0  1  0  0  0  0  0  0  0  0  0
    0.1932   -0.7715   -0.1219 H   0  0  0  0  0  0  0  0  0  0  0  0
   -0.6568    1.1713   -0.5294 C   0  0  0  0  0  0  0  0  0  0  0  0
   -1.1766    0.9453   -1.4625 H   0  0  0  0  0  0  0  0  0  0  0  0
   -1.2655    1.8909    0.0224 H   0  0  0  0  0  0  0  0  0  0  0  0
    0.6865    1.8421   -0.8708 C   0  0  0  0  0  0  0  0  0  0  0  0
    1.3092    1.8947    0.0223 H   0  0  0  0  0  0  0  0  0  0  0  0
    1.4482    1.0894   -1.9655 C   0  0  0  0  0  0  0  0  0  0  0  0
    0.8310    1.0144   -2.8618 H   0  0  0  0  0  0  0  0  0  0  0  0
    2.3662    1.6250   -2.2087 H   0  0  0  0  0  0  0  0  0  0  0  0
    1.7122    0.0885   -1.6310 H   0  0  0  0  0  0  0  0  0  0  0  0
    0.4412    3.2686   -1.3611 C   0  0  0  0  0  0  0  0  0  0  0  0
   -0.0728    3.8390   -0.5875 H   0  0  0  0  0  0  0  0  0  0  0  0
    1.3925    3.7550   -1.5772 H   0  0  0  0  0  0  0  0  0  0  0  0
   -0.1697    3.2555   -2.2644 H   0  0  0  0  0  0  0  0  0  0  0  0
   -0.1913    0.1554    1.7759 C   0  0  0  0  0  0  0  0  0  0  0  0
    0.9476   -0.0766    2.1748 O   0  0  0  0  0  0  0  0  0  0  0  0
   -1.1502    0.6393    2.5760 N   0  0  0  0  0  0  0  0  0  0  0  0
   -2.0581    0.8092    2.1736 H   0  0  0  0  0  0  0  0  0  0  0  0
   -0.9568    0.9369    3.9933 C   0  0  0  0  0  0  0  0  0  0  0  0
   -0.1600    1.6750    4.1097 H   0  0  0  0  0  0  0  0  0  0  0  0
   -1.8775    1.3307    4.4266 H   0  0  0  0  0  0  0  0  0  0  0  0
   -0.6678    0.0287    4.5244 H   0  0  0  0  0  0  0  0  0  0  0  0
  5  6  2  0  0  0  0
  5  7  1  0  0  0  0
  2  3  1  0  0  0  0
  2  4  1  0  0  0  0
  2  5  1  0  0  0  0
  1  2  1  0  0  0  0
 24 25  2  0  0  0  0
 24 26  1  0  0  0  0
 20 21  1  0  0  0  0
 20 22  1  0  0  0  0
 20 23  1  0  0  0  0
 16 17  1  0  0  0  0
 16 18  1  0  0  0  0
 16 19  1  0  0  0  0
 14 15  1  0  0  0  0
 14 16  1  0  0  0  0
 14 20  1  0  0  0  0
 11 12  1  0  0  0  0
 11 13  1  0  0  0  0
 11 14  1  0  0  0  0
  9 10  1  0  0  0  0
  9 11  1  0  0  0  0
  9 24  1  0  0  0  0
  7  8  1  0  0  0  0
  7  9  1  0  0  0  0
 28 29  1  0  0  0  0
 28 30  1  0  0  0  0
 28 31  1  0  0  0  0
 26 27  1  0  0  0  0
 26 28  1  0  0  0  0
M  END
$$$$
default_name
  -OEChem-02102213163D

 31 30  0     1  0  0  0  0  0999 V2000
   -3.5895   -3.5013    1.1082 H   0  0  0  0  0  0  0  0  0  0  0  0
   -3.5145   -2.5363    0.6082 C   0  0  0  0  0  0  0  0  0  0  0  0
   -4.2285   -1.8413    1.0452 H   0  0  0  0  0  0  0  0  0  0  0  0
   -3.7155   -2.6583   -0.4538 H   0  0  0  0  0  0  0  0  0  0  0  0
   -2.1155   -1.9963    0.7922 C   0  0  0  0  0  0  0  0  0  0  0  0
   -1.2875   -2.6383    1.4252 O   0  0  0  0  0  0  0  0  0  0  0  0
   -1.8575   -0.8123    0.2402 N   0  0  0  0  0  0  0  0  0  0  0  0
   -2.6005   -0.3333   -0.2478 H   0  0  0  0  0  0  0  0  0  0  0  0
   -0.5675   -0.1203    0.3102 C   0  0  1  0  0  0  0  0  0  0  0  0
    0.1932   -0.7715   -0.1219 H   0  0  0  0  0  0  0  0  0  0  0  0
   -0.6568    1.1713   -0.5294 C   0  0  0  0  0  0  0  0  0  0  0  0
   -1.1766    0.9453   -1.4625 H   0  0  0  0  0  0  0  0  0  0  0  0
   -1.2655    1.8909    0.0224 H   0  0  0  0  0  0  0  0  0  0  0  0
    0.6865    1.8421   -0.8708 C   0  0  0  0  0  0  0  0  0  0  0  0
    1.4026    1.6610   -0.0693 H   0  0  0  0  0  0  0  0  0  0  0  0
    1.2729    1.3271   -2.1884 C   0  0  0  0  0  0  0  0  0  0  0  0
    0.5602    1.4869   -2.9987 H   0  0  0  0  0  0  0  0  0  0  0  0
    2.1952    1.8629   -2.4141 H   0  0  0  0  0  0  0  0  0  0  0  0
    1.4998    0.2654   -2.1190 H   0  0  0  0  0  0  0  0  0  0  0  0
    0.4915    3.3525   -0.9986 C   0  0  0  0  0  0  0  0  0  0  0  0
    0.1039    3.7527   -0.0618 H   0  0  0  0  0  0  0  0  0  0  0  0
    1.4462    3.8327   -1.2130 H   0  0  0  0  0  0  0  0  0  0  0  0
   -0.2112    3.5738   -1.8026 H   0  0  0  0  0  0  0  0  0  0  0  0
   -0.1913    0.1554    1.7759 C   0  0  0  0  0  0  0  0  0  0  0  0
    0.9476   -0.0766    2.1748 O   0  0  0  0  0  0  0  0  0  0  0  0
   -1.1502    0.6393    2.5760 N   0  0  0  0  0  0  0  0  0  0  0  0
   -2.0581    0.8092    2.1736 H   0  0  0  0  0  0  0  0  0  0  0  0
   -0.9568    0.9369    3.9933 C   0  0  0  0  0  0  0  0  0  0  0  0
   -0.1600    1.6750    4.1097 H   0  0  0  0  0  0  0  0  0  0  0  0
   -1.8775    1.3307    4.4266 H   0  0  0  0  0  0  0  0  0  0  0  0
   -0.6678    0.0287    4.5244 H   0  0  0  0  0  0  0  0  0  0  0  0
  5  6  2  0  0  0  0
  5  7  1  0  0  0  0
  2  3  1  0  0  0  0
  2  4  1  0  0  0  0
  2  5  1  0  0  0  0
  1  2  1  0  0  0  0
 24 25  2  0  0  0  0
 24 26  1  0  0  0  0
 20 21  1  0  0  0  0
 20 22  1  0  0  0  0
 20 23  1  0  0  0  0
 16 17  1  0  0  0  0
 16 18  1  0  0  0  0
 16 19  1  0  0  0  0
 14 15  1  0  0  0  0
 14 16  1  0  0  0  0
 14 20  1  0  0  0  0
 11 12  1  0  0  0  0
 11 13  1  0  0  0  0
 11 14  1  0  0  0  0
  9 10  1  0  0  0  0
  9 11  1  0  0  0  0
  9 24  1  0  0  0  0
  7  8  1  0  0  0  0
  7  9  1  0  0  0  0
 28 29  1  0  0  0  0
 28 30  1  0  0  0  0
 28 31  1  0  0  0  0
 26 27  1  0  0  0  0
 26 28  1  0  0  0  0
M  END
$$$$
default_name
  -OEChem-02102213163D

 31 30  0     1  0  0  0  0  0999 V2000
   -3.5895   -3.5013    1.1082 H   0  0  0  0  0  0  0  0  0  0  0  0
   -3.5145   -2.5363    0.6082 C   0  0  0  0  0  0  0  0  0  0  0  0
   -4.2285   -1.8413    1.0452 H   0  0  0  0  0  0  0  0  0  0  0  0
   -3.7155   -2.6583   -0.4538 H   0  0  0  0  0  0  0  0  0  0  0  0
   -2.1155   -1.9963    0.7922 C   0  0  0  0  0  0  0  0  0  0  0  0
   -1.2875   -2.6383    1.4252 O   0  0  0  0  0  0  0  0  0  0  0  0
   -1.8575   -0.8123    0.2402 N   0  0  0  0  0  0  0  0  0  0  0  0
   -2.6005   -0.3333   -0.2478 H   0  0  0  0  0  0  0  0  0  0  0  0
   -0.5675   -0.1203    0.3102 C   0  0  1  0  0  0  0  0  0  0  0  0
    0.1932   -0.7715   -0.1219 H   0  0  0  0  0  0  0  0  0  0  0  0
   -0.6568    1.1713   -0.5294 C   0  0  0  0  0  0  0  0  0  0  0  0
   -1.1766    0.9453   -1.4625 H   0  0  0  0  0  0  0  0  0  0  0  0
   -1.2655    1.8909    0.0224 H   0  0  0  0  0  0  0  0  0  0  0  0
    0.6865    1.8421   -0.8708 C   0  0  0  0  0  0  0  0  0  0  0  0
    1.4692    1.4505   -0.2210 H   0  0  0  0  0  0  0  0  0  0  0  0
    1.0920    1.6171   -2.3303 C   0  0  0  0  0  0  0  0  0  0  0  0
    0.3103    1.9897   -2.9937 H   0  0  0  0  0  0  0  0  0  0  0  0
    2.0205    2.1488   -2.5395 H   0  0  0  0  0  0  0  0  0  0  0  0
    1.2498    0.5588   -2.5264 H   0  0  0  0  0  0  0  0  0  0  0  0
    0.5858    3.3487   -0.6351 C   0  0  0  0  0  0  0  0  0  0  0  0
    0.3290    3.5405    0.4066 H   0  0  0  0  0  0  0  0  0  0  0  0
    1.5437    3.8223   -0.8497 H   0  0  0  0  0  0  0  0  0  0  0  0
   -0.1811    3.7794   -1.2800 H   0  0  0  0  0  0  0  0  0  0  0  0
   -0.1913    0.1554    1.7759 C   0  0  0  0  0  0  0  0  0  0  0  0
    0.9476   -0.0766    2.1748 O   0  0  0  0  0  0  0  0  0  0  0  0
   -1.1502    0.6393    2.5760 N   0  0  0  0  0  0  0  0  0  0  0  0
   -2.0581    0.8092    2.1736 H   0  0  0  0  0  0  0  0  0  0  0  0
   -0.9568    0.9369    3.9933 C   0  0  0  0  0  0  0  0  0  0  0  0
   -0.1600    1.6750    4.1097 H   0  0  0  0  0  0  0  0  0  0  0  0
   -1.8775    1.3307    4.4266 H   0  0  0  0  0  0  0  0  0  0  0  0
   -0.6678    0.0287    4.5244 H   0  0  0  0  0  0  0  0  0  0  0  0
  5  6  2  0  0  0  0
  5  7  1  0  0  0  0
  2  3  1  0  0  0  0
  2  4  1  0  0  0  0
  2  5  1  0  0  0  0
  1  2  1  0  0  0  0
 24 25  2  0  0  0  0
 24 26  1  0  0  0  0
 20 21  1  0  0  0  0
 20 22  1  0  0  0  0
 20 23  1  0  0  0  0
 16 17  1  0  0  0  0
 16 18  1  0  0  0  0
 16 19  1  0  0  0  0
 14 15  1  0  0  0  0
 14 16  1  0  0  0  0
 14 20  1  0  0  0  0
 11 12  1  0  0  0  0
 11 13  1  0  0  0  0
 11 14  1  0  0  0  0
  9 10  1  0  0  0  0
  9 11  1  0  0  0  0
  9 24  1  0  0  0  0
  7  8  1  0  0  0  0
  7  9  1  0  0  0  0
 28 29  1  0  0  0  0
 28 30  1  0  0  0  0
 28 31  1  0  0  0  0
 26 27  1  0  0  0  0
 26 28  1  0  0  0  0
M  END
$$$$
default_name
  -OEChem-02102213163D

 31 30  0     1  0  0  0  0  0999 V2000
   -3.5895   -3.5013    1.1082 H   0  0  0  0  0  0  0  0  0  0  0  0
   -3.5145   -2.5363    0.6082 C   0  0  0  0  0  0  0  0  0  0  0  0
   -4.2285   -1.8413    1.0452 H   0  0  0  0  0  0  0  0  0  0  0  0
   -3.7155   -2.6583   -0.4538 H   0  0  0  0  0  0  0  0  0  0  0  0
   -2.1155   -1.9963    0.7922 C   0  0  0  0  0  0  0  0  0  0  0  0
   -1.2875   -2.6383    1.4252 O   0  0  0  0  0  0  0  0  0  0  0  0
   -1.8575   -0.8123    0.2402 N   0  0  0  0  0  0  0  0  0  0  0  0
   -2.6005   -0.3333   -0.2478 H   0  0  0  0  0  0  0  0  0  0  0  0
   -0.5675   -0.1203    0.3102 C   0  0  1  0  0  0  0  0  0  0  0  0
    0.1932   -0.7715   -0.1219 H   0  0  0  0  0  0  0  0  0  0  0  0
   -0.6568    1.1713   -0.5294 C   0  0  0  0  0  0  0  0  0  0  0  0
   -1.1766    0.9453   -1.4625 H   0  0  0  0  0  0  0  0  0  0  0  0
   -1.2655    1.8909    0.0224 H   0  0  0  0  0  0  0  0  0  0  0  0
    0.6865    1.8421   -0.8708 C   0  0  0  0  0  0  0  0  0  0  0  0
    1.5042    1.2777   -0.4226 H   0  0  0  0  0  0  0  0  0  0  0  0
    0.9179    1.9396   -2.3815 C   0  0  0  0  0  0  0  0  0  0  0  0
    0.0984    2.4887   -2.8472 H   0  0  0  0  0  0  0  0  0  0  0  0
    1.8540    2.4633   -2.5765 H   0  0  0  0  0  0  0  0  0  0  0  0
    0.9791    0.9484   -2.8255 H   0  0  0  0  0  0  0  0  0  0  0  0
    0.7176    3.2576   -0.2955 C   0  0  0  0  0  0  0  0  0  0  0  0
    0.5869    3.2169    0.7858 H   0  0  0  0  0  0  0  0  0  0  0  0
    1.6783    3.7247   -0.5121 H   0  0  0  0  0  0  0  0  0  0  0  0
   -0.0812    3.8582   -0.7322 H   0  0  0  0  0  0  0  0  0  0  0  0
   -0.1913    0.1554    1.7759 C   0  0  0  0  0  0  0  0  0  0  0  0
    0.9476   -0.0766    2.1748 O   0  0  0  0  0  0  0  0  0  0  0  0
   -1.1502    0.6393    2.5760 N   0  0  0  0  0  0  0  0  0  0  0  0
   -2.0581    0.8092    2.1736 H   0  0  0  0  0  0  0  0  0  0  0  0
   -0.9568    0.9369    3.9933 C   0  0  0  0  0  0  0  0  0  0  0  0
   -0.1600    1.6750    4.1097 H   0  0  0  0  0  0  0  0  0  0  0  0
   -1.8775    1.3307    4.4266 H   0  0  0  0  0  0  0  0  0  0  0  0
   -0.6678    0.0287    4.5244 H   0  0  0  0  0  0  0  0  0  0  0  0
  5  6  2  0  0  0  0
  5  7  1  0  0  0  0
  2  3  1  0  0  0  0
  2  4  1  0  0  0  0
  2  5  1  0  0  0  0
  1  2  1  0  0  0  0
 24 25  2  0  0  0  0
 24 26  1  0  0  0  0
 20 21  1  0  0  0  0
 20 22  1  0  0  0  0
 20 23  1  0  0  0  0
 16 17  1  0  0  0  0
 16 18  1  0  0  0  0
 16 19  1  0  0  0  0
 14 15  1  0  0  0  0
 14 16  1  0  0  0  0
 14 20  1  0  0  0  0
 11 12  1  0  0  0  0
 11 13  1  0  0  0  0
 11 14  1  0  0  0  0
  9 10  1  0  0  0  0
  9 11  1  0  0  0  0
  9 24  1  0  0  0  0
  7  8  1  0  0  0  0
  7  9  1  0  0  0  0
 28 29  1  0  0  0  0
 28 30  1  0  0  0  0
 28 31  1  0  0  0  0
 26 27  1  0  0  0  0
 26 28  1  0  0  0  0
M  END
$$$$
default_name
  -OEChem-02102213163D

 31 30  0     1  0  0  0  0  0999 V2000
   -3.5895   -3.5013    1.1082 H   0  0  0  0  0  0  0  0  0  0  0  0
   -3.5145   -2.5363    0.6082 C   0  0  0  0  0  0  0  0  0  0  0  0
   -4.2285   -1.8413    1.0452 H   0  0  0  0  0  0  0  0  0  0  0  0
   -3.7155   -2.6583   -0.4538 H   0  0  0  0  0  0  0  0  0  0  0  0
   -2.1155   -1.9963    0.7922 C   0  0  0  0  0  0  0  0  0  0  0  0
   -1.2875   -2.6383    1.4252 O   0  0  0  0  0  0  0  0  0  0  0  0
   -1.8575   -0.8123    0.2402 N   0  0  0  0  0  0  0  0  0  0  0  0
   -2.6005   -0.3333   -0.2478 H   0  0  0  0  0  0  0  0  0  0  0  0
   -0.5675   -0.1203    0.3102 C   0  0  1  0  0  0  0  0  0  0  0  0
    0.1932   -0.7715   -0.1219 H   0  0  0  0  0  0  0  0  0  0  0  0
   -0.6568    1.1713   -0.5294 C   0  0  0  0  0  0  0  0  0  0  0  0
   -1.1766    0.9453   -1.4625 H   0  0  0  0  0  0  0  0  0  0  0  0
   -1.2655    1.8909    0.0224 H   0  0  0  0  0  0  0  0  0  0  0  0
    0.6865    1.8421   -0.8708 C   0  0  0  0  0  0  0  0  0  0  0  0
    1.5055    1.1543   -0.6603 H   0  0  0  0  0  0  0  0  0  0  0  0
    0.7625    2.2727   -2.3385 C   0  0  0  0  0  0  0  0  0  0  0  0
   -0.0612    2.9497   -2.5691 H   0  0  0  0  0  0  0  0  0  0  0  0
    1.7071    2.7850   -2.5223 H   0  0  0  0  0  0  0  0  0  0  0  0
    0.7064    1.4079   -2.9960 H   0  0  0  0  0  0  0  0  0  0  0  0
    0.8779    3.0854   -0.0030 C   0  0  0  0  0  0  0  0  0  0  0  0
    0.8603    2.8039    1.0499 H   0  0  0  0  0  0  0  0  0  0  0  0
    1.8407    3.5465   -0.2232 H   0  0  0  0  0  0  0  0  0  0  0  0
    0.0816    3.8049   -0.1965 H   0  0  0  0  0  0  0  0  0  0  0  0
   -0.1913    0.1554    1.7759 C   0  0  0  0  0  0  0  0  0  0  0  0
    0.9476   -0.0766    2.1748 O   0  0  0  0  0  0  0  0  0  0  0  0
   -1.1502    0.6393    2.5760 N   0  0  0  0  0  0  0  0  0  0  0  0
   -2.0581    0.8092    2.1736 H   0  0  0  0  0  0  0  0  0  0  0  0
   -0.9568    0.9369    3.9933 C   0  0  0  0  0  0  0  0  0  0  0  0
   -0.1600    1.6750    4.1097 H   0  0  0  0  0  0  0  0  0  0  0  0
   -1.8775    1.3307    4.4266 H   0  0  0  0  0  0  0  0  0  0  0  0
   -0.6678    0.0287    4.5244 H   0  0  0  0  0  0  0  0  0  0  0  0
  5  6  2  0  0  0  0
  5  7  1  0  0  0  0
  2  3  1  0  0  0  0
  2  4  1  0  0  0  0
  2  5  1  0  0  0  0
  1  2  1  0  0  0  0
 24 25  2  0  0  0  0
 24 26  1  0  0  0  0
 20 21  1  0  0  0  0
 20 22  1  0  0  0  0
 20 23  1  0  0  0  0
 16 17  1  0  0  0  0
 16 18  1  0  0  0  0
 16 19  1  0  0  0  0
 14 15  1  0  0  0  0
 14 16  1  0  0  0  0
 14 20  1  0  0  0  0
 11 12  1  0  0  0  0
 11 13  1  0  0  0  0
 11 14  1  0  0  0  0
  9 10  1  0  0  0  0
  9 11  1  0  0  0  0
  9 24  1  0  0  0  0
  7  8  1  0  0  0  0
  7  9  1  0  0  0  0
 28 29  1  0  0  0  0
 28 30  1  0  0  0  0
 28 31  1  0  0  0  0
 26 27  1  0  0  0  0
 26 28  1  0  0  0  0
M  END
$$$$
default_name
  -OEChem-02102213163D

 31 30  0     1  0  0  0  0  0999 V2000
   -3.5895   -3.5013    1.1082 H   0  0  0  0  0  0  0  0  0  0  0  0
   -3.5145   -2.5363    0.6082 C   0  0  0  0  0  0  0  0  0  0  0  0
   -4.2285   -1.8413    1.0452 H   0  0  0  0  0  0  0  0  0  0  0  0
   -3.7155   -2.6583   -0.4538 H   0  0  0  0  0  0  0  0  0  0  0  0
   -2.1155   -1.9963    0.7922 C   0  0  0  0  0  0  0  0  0  0  0  0
   -1.2875   -2.6383    1.4252 O   0  0  0  0  0  0  0  0  0  0  0  0
   -1.8575   -0.8123    0.2402 N   0  0  0  0  0  0  0  0  0  0  0  0
   -2.6005   -0.3333   -0.2478 H   0  0  0  0  0  0  0  0  0  0  0  0
   -0.5675   -0.1203    0.3102 C   0  0  1  0  0  0  0  0  0  0  0  0
    0.1932   -0.7715   -0.1219 H   0  0  0  0  0  0  0  0  0  0  0  0
   -0.6568    1.1713   -0.5294 C   0  0  0  0  0  0  0  0  0  0  0  0
   -1.1766    0.9453   -1.4625 H   0  0  0  0  0  0  0  0  0  0  0  0
   -1.2655    1.8909    0.0224 H   0  0  0  0  0  0  0  0  0  0  0  0
    0.6865    1.8421   -0.8708 C   0  0  0  0  0  0  0  0  0  0  0  0
    1.4728    1.0887   -0.9179 H   0  0  0  0  0  0  0  0  0  0  0  0
    0.6363    2.5937   -2.2042 C   0  0  0  0  0  0  0  0  0  0  0  0
   -0.1575    3.3414   -2.1784 H   0  0  0  0  0  0  0  0  0  0  0  0
    1.5898    3.0920   -2.3809 H   0  0  0  0  0  0  0  0  0  0  0  0
    0.4500    1.9058   -3.0261 H   0  0  0  0  0  0  0  0  0  0  0  0
    1.0560    2.8437    0.2227 C   0  0  0  0  0  0  0  0  0  0  0  0
    1.1305    2.3296    1.1809 H   0  0  0  0  0  0  0  0  0  0  0  0
    2.0199    3.2998   -0.0027 H   0  0  0  0  0  0  0  0  0  0  0  0
    0.2961    3.6231    0.2905 H   0  0  0  0  0  0  0  0  0  0  0  0
   -0.1913    0.1554    1.7759 C   0  0  0  0  0  0  0  0  0  0  0  0
    0.9476   -0.0766    2.1748 O   0  0  0  0  0  0  0  0  0  0  0  0
   -1.1502    0.6393    2.5760 N   0  0  0  0  0  0  0  0  0  0  0  0
   -2.0581    0.8092    2.1736 H   0  0  0  0  0  0  0  0  0  0  0  0
   -0.9568    0.9369    3.9933 C   0  0  0  0  0  0  0  0  0  0  0  0
   -0.1600    1.6750    4.1097 H   0  0  0  0  0  0  0  0  0  0  0  0
   -1.8775    1.3307    4.4266 H   0  0  0  0  0  0  0  0  0  0  0  0
   -0.6678    0.0287    4.5244 H   0  0  0  0  0  0  0  0  0  0  0  0
  5  6  2  0  0  0  0
  5  7  1  0  0  0  0
  2  3  1  0  0  0  0
  2  4  1  0  0  0  0
  2  5  1  0  0  0  0
  1  2  1  0  0  0  0
 24 25  2  0  0  0  0
 24 26  1  0  0  0  0
 20 21  1  0  0  0  0
 20 22  1  0  0  0  0
 20 23  1  0  0  0  0
 16 17  1  0  0  0  0
 16 18  1  0  0  0  0
 16 19  1  0  0  0  0
 14 15  1  0  0  0  0
 14 16  1  0  0  0  0
 14 20  1  0  0  0  0
 11 12  1  0  0  0  0
 11 13  1  0  0  0  0
 11 14  1  0  0  0  0
  9 10  1  0  0  0  0
  9 11  1  0  0  0  0
  9 24  1  0  0  0  0
  7  8  1  0  0  0  0
  7  9  1  0  0  0  0
 28 29  1  0  0  0  0
 28 30  1  0  0  0  0
 28 31  1  0  0  0  0
 26 27  1  0  0  0  0
 26 28  1  0  0  0  0
M  END
$$$$
default_name
  -OEChem-02102213163D

 31 30  0     1  0  0  0  0  0999 V2000
   -3.5895   -3.5013    1.1082 H   0  0  0  0  0  0  0  0  0  0  0  0
   -3.5145   -2.5363    0.6082 C   0  0  0  0  0  0  0  0  0  0  0  0
   -4.2285   -1.8413    1.0452 H   0  0  0  0  0  0  0  0  0  0  0  0
   -3.7155   -2.6583   -0.4538 H   0  0  0  0  0  0  0  0  0  0  0  0
   -2.1155   -1.9963    0.7922 C   0  0  0  0  0  0  0  0  0  0  0  0
   -1.2875   -2.6383    1.4252 O   0  0  0  0  0  0  0  0  0  0  0  0
   -1.8575   -0.8123    0.2402 N   0  0  0  0  0  0  0  0  0  0  0  0
   -2.6005   -0.3333   -0.2478 H   0  0  0  0  0  0  0  0  0  0  0  0
   -0.5675   -0.1203    0.3102 C   0  0  1  0  0  0  0  0  0  0  0  0
    0.1932   -0.7715   -0.1219 H   0  0  0  0  0  0  0  0  0  0  0  0
   -0.6568    1.1713   -0.5294 C   0  0  0  0  0  0  0  0  0  0  0  0
   -1.1766    0.9453   -1.4625 H   0  0  0  0  0  0  0  0  0  0  0  0
   -1.2655    1.8909    0.0224 H   0  0  0  0  0  0  0  0  0  0  0  0
    0.6865    1.8421   -0.8708 C   0  0  0  0  0  0  0  0  0  0  0  0
    1.4084    1.0854   -1.1779 H   0  0  0  0  0  0  0  0  0  0  0  0
    0.5480    2.8806   -1.9878 C   0  0  0  0  0  0  0  0  0  0  0  0
   -0.1841    3.6371   -1.7017 H   0  0  0  0  0  0  0  0  0  0  0  0
    1.5100    3.3633   -2.1617 H   0  0  0  0  0  0  0  0  0  0  0  0
    0.2276    2.4083   -2.9139 H   0  0  0  0  0  0  0  0  0  0  0  0
    1.2395    2.5492    0.3660 C   0  0  0  0  0  0  0  0  0  0  0  0
    1.3790    1.8264    1.1699 H   0  0  0  0  0  0  0  0  0  0  0  0
    2.2038    3.0015    0.1343 H   0  0  0  0  0  0  0  0  0  0  0  0
    0.5479    3.3252    0.6958 H   0  0  0  0  0  0  0  0  0  0  0  0
   -0.1913    0.1554    1.7759 C   0  0  0  0  0  0  0  0  0  0  0  0
    0.9476   -0.0766    2.1748 O   0  0  0  0  0  0  0  0  0  0  0  0
   -1.1502    0.6393    2.5760 N   0  0  0  0  0  0  0  0  0  0  0  0
   -2.0581    0.8092    2.1736 H   0  0  0  0  0  0  0  0  0  0  0  0
   -0.9568    0.9369    3.9933 C   0  0  0  0  0  0  0  0  0  0  0  0
   -0.1600    1.6750    4.1097 H   0  0  0  0  0  0  0  0  0  0  0  0
   -1.8775    1.3307    4.4266 H   0  0  0  0  0  0  0  0  0  0  0  0
   -0.6678    0.0287    4.5244 H   0  0  0  0  0  0  0  0  0  0  0  0
  5  6  2  0  0  0  0
  5  7  1  0  0  0  0
  2  3  1  0  0  0  0
  2  4  1  0  0  0  0
  2  5  1  0  0  0  0
  1  2  1  0  0  0  0
 24 25  2  0  0  0  0
 24 26  1  0  0  0  0
 20 21  1  0  0  0  0
 20 22  1  0  0  0  0
 20 23  1  0  0  0  0
 16 17  1  0  0  0  0
 16 18  1  0  0  0  0
 16 19  1  0  0  0  0
 14 15  1  0  0  0  0
 14 16  1  0  0  0  0
 14 20  1  0  0  0  0
 11 12  1  0  0  0  0
 11 13  1  0  0  0  0
 11 14  1  0  0  0  0
  9 10  1  0  0  0  0
  9 11  1  0  0  0  0
  9 24  1  0  0  0  0
  7  8  1  0  0  0  0
  7  9  1  0  0  0  0
 28 29  1  0  0  0  0
 28 30  1  0  0  0  0
 28 31  1  0  0  0  0
 26 27  1  0  0  0  0
 26 28  1  0  0  0  0
M  END
$$$$
default_name
  -OEChem-02102213163D

 31 30  0     1  0  0  0  0  0999 V2000
   -3.5895   -3.5013    1.1082 H   0  0  0  0  0  0  0  0  0  0  0  0
   -3.5145   -2.5363    0.6082 C   0  0  0  0  0  0  0  0  0  0  0  0
   -4.2285   -1.8413    1.0452 H   0  0  0  0  0  0  0  0  0  0  0  0
   -3.7155   -2.6583   -0.4538 H   0  0  0  0  0  0  0  0  0  0  0  0
   -2.1155   -1.9963    0.7922 C   0  0  0  0  0  0  0  0  0  0  0  0
   -1.2875   -2.6383    1.4252 O   0  0  0  0  0  0  0  0  0  0  0  0
   -1.8575   -0.8123    0.2402 N   0  0  0  0  0  0  0  0  0  0  0  0
   -2.6005   -0.3333   -0.2478 H   0  0  0  0  0  0  0  0  0  0  0  0
   -0.5675   -0.1203    0.3102 C   0  0  1  0  0  0  0  0  0  0  0  0
    0.1932   -0.7715   -0.1219 H   0  0  0  0  0  0  0  0  0  0  0  0
   -0.6568    1.1713   -0.5294 C   0  0  0  0  0  0  0  0  0  0  0  0
   -1.3935    1.0222   -1.3212 H   0  0  0  0  0  0  0  0  0  0  0  0
   -1.0246    1.9700    0.1185 H   0  0  0  0  0  0  0  0  0  0  0  0
    0.6599    1.6441   -1.1726 C   0  0  0  0  0  0  0  0  0  0  0  0
    1.0515    0.8641   -1.8256 H   0  0  0  0  0  0  0  0  0  0  0  0
    0.4788    2.9295   -1.9852 C   0  0  0  0  0  0  0  0  0  0  0  0
    0.0718    3.7161   -1.3484 H   0  0  0  0  0  0  0  0  0  0  0  0
    1.4422    3.2531   -2.3799 H   0  0  0  0  0  0  0  0  0  0  0  0
   -0.1973    2.7635   -2.8211 H   0  0  0  0  0  0  0  0  0  0  0  0
    1.6979    1.9152   -0.0843 C   0  0  0  0  0  0  0  0  0  0  0  0
    1.8713    1.0062    0.4916 H   0  0  0  0  0  0  0  0  0  0  0  0
    2.6395    2.2235   -0.5387 H   0  0  0  0  0  0  0  0  0  0  0  0
    1.3456    2.7024    0.5831 H   0  0  0  0  0  0  0  0  0  0  0  0
   -0.1913    0.1554    1.7759 C   0  0  0  0  0  0  0  0  0  0  0  0
    0.9476   -0.0766    2.1748 O   0  0  0  0  0  0  0  0  0  0  0  0
   -1.1502    0.6393    2.5760 N   0  0  0  0  0  0  0  0  0  0  0  0
   -2.0581    0.8092    2.1736 H   0  0  0  0  0  0  0  0  0  0  0  0
   -0.9568    0.9369    3.9933 C   0  0  0  0  0  0  0  0  0  0  0  0
   -0.1600    1.6750    4.1097 H   0  0  0  0  0  0  0  0  0  0  0  0
   -1.8775    1.3307    4.4266 H   0  0  0  0  0  0  0  0  0  0  0  0
   -0.6678    0.0287    4.5244 H   0  0  0  0  0  0  0  0  0  0  0  0
  5  6  2  0  0  0  0
  5  7  1  0  0  0  0
  2  3  1  0  0  0  0
  2  4  1  0  0  0  0
  2  5  1  0  0  0  0
  1  2  1  0  0  0  0
 24 25  2  0  0  0  0
 24 26  1  0  0  0  0
 20 21  1  0  0  0  0
 20 22  1  0  0  0  0
 20 23  1  0  0  0  0
 16 17  1  0  0  0  0
 16 18  1  0  0  0  0
 16 19  1  0  0  0  0
 14 15  1  0  0  0  0
 14 16  1  0  0  0  0
 14 20  1  0  0  0  0
 11 12  1  0  0  0  0
 11 13  1  0  0  0  0
 11 14  1  0  0  0  0
  9 10  1  0  0  0  0
  9 11  1  0  0  0  0
  9 24  1  0  0  0  0
  7  8  1  0  0  0  0
  7  9  1  0  0  0  0
 28 29  1  0  0  0  0
 28 30  1  0  0  0  0
 28 31  1  0  0  0  0
 26 27  1  0  0  0  0
 26 28  1  0  0  0  0
M  END
$$$$
default_name
  -OEChem-02102213163D

 31 30  0     1  0  0  0  0  0999 V2000
   -3.5895   -3.5013    1.1082 H   0  0  0  0  0  0  0  0  0  0  0  0
   -3.5145   -2.5363    0.6082 C   0  0  0  0  0  0  0  0  0  0  0  0
   -4.2285   -1.8413    1.0452 H   0  0  0  0  0  0  0  0  0  0  0  0
   -3.7155   -2.6583   -0.4538 H   0  0  0  0  0  0  0  0  0  0  0  0
   -2.1155   -1.9963    0.7922 C   0  0  0  0  0  0  0  0  0  0  0  0
   -1.2875   -2.6383    1.4252 O   0  0  0  0  0  0  0  0  0  0  0  0
   -1.8575   -0.8123    0.2402 N   0  0  0  0  0  0  0  0  0  0  0  0
   -2.6005   -0.3333   -0.2478 H   0  0  0  0  0  0  0  0  0  0  0  0
   -0.5675   -0.1203    0.3102 C   0  0  1  0  0  0  0  0  0  0  0  0
    0.1932   -0.7715   -0.1219 H   0  0  0  0  0  0  0  0  0  0  0  0
   -0.6568    1.1713   -0.5294 C   0  0  0  0  0  0  0  0  0  0  0  0
   -1.3935    1.0222   -1.3212 H   0  0  0  0  0  0  0  0  0  0  0  0
   -1.0246    1.9700    0.1185 H   0  0  0  0  0  0  0  0  0  0  0  0
    0.6599    1.6441   -1.1726 C   0  0  0  0  0  0  0  0  0  0  0  0
    0.9126    0.9967   -2.0124 H   0  0  0  0  0  0  0  0  0  0  0  0
    0.5763    3.0912   -1.6669 C   0  0  0  0  0  0  0  0  0  0  0  0
    0.3079    3.7502   -0.8401 H   0  0  0  0  0  0  0  0  0  0  0  0
    1.5422    3.3983   -2.0686 H   0  0  0  0  0  0  0  0  0  0  0  0
   -0.1694    3.1860   -2.4533 H   0  0  0  0  0  0  0  0  0  0  0  0
    1.7934    1.5583   -0.1513 C   0  0  0  0  0  0  0  0  0  0  0  0
    1.8976    0.5302    0.1954 H   0  0  0  0  0  0  0  0  0  0  0  0
    2.7319    1.8662   -0.6122 H   0  0  0  0  0  0  0  0  0  0  0  0
    1.5814    2.2055    0.7005 H   0  0  0  0  0  0  0  0  0  0  0  0
   -0.1913    0.1554    1.7759 C   0  0  0  0  0  0  0  0  0  0  0  0
    0.9476   -0.0766    2.1748 O   0  0  0  0  0  0  0  0  0  0  0  0
   -1.1502    0.6393    2.5760 N   0  0  0  0  0  0  0  0  0  0  0  0
   -2.0581    0.8092    2.1736 H   0  0  0  0  0  0  0  0  0  0  0  0
   -0.9568    0.9369    3.9933 C   0  0  0  0  0  0  0  0  0  0  0  0
   -0.1600    1.6750    4.1097 H   0  0  0  0  0  0  0  0  0  0  0  0
   -1.8775    1.3307    4.4266 H   0  0  0  0  0  0  0  0  0  0  0  0
   -0.6678    0.0287    4.5244 H   0  0  0  0  0  0  0  0  0  0  0  0
  5  6  2  0  0  0  0
  5  7  1  0  0  0  0
  2  3  1  0  0  0  0
  2  4  1  0  0  0  0
  2  5  1  0  0  0  0
  1  2  1  0  0  0  0
 24 25  2  0  0  0  0
 24 26  1  0  0  0  0
 20 21  1  0  0  0  0
 20 22  1  0  0  0  0
 20 23  1  0  0  0  0
 16 17  1  0  0  0  0
 16 18  1  0  0  0  0
 16 19  1  0  0  0  0
 14 15  1  0  0  0  0
 14 16  1  0  0  0  0
 14 20  1  0  0  0  0
 11 12  1  0  0  0  0
 11 13  1  0  0  0  0
 11 14  1  0  0  0  0
  9 10  1  0  0  0  0
  9 11  1  0  0  0  0
  9 24  1  0  0  0  0
  7  8  1  0  0  0  0
  7  9  1  0  0  0  0
 28 29  1  0  0  0  0
 28 30  1  0  0  0  0
 28 31  1  0  0  0  0
 26 27  1  0  0  0  0
 26 28  1  0  0  0  0
M  END
$$$$
default_name
  -OEChem-02102213163D

 31 30  0     1  0  0  0  0  0999 V2000
   -3.5895   -3.5013    1.1082 H   0  0  0  0  0  0  0  0  0  0  0  0
   -3.5145   -2.5363    0.6082 C   0  0  0  0  0  0  0  0  0  0  0  0
   -4.2285   -1.8413    1.0452 H   0  0  0  0  0  0  0  0  0  0  0  0
   -3.7155   -2.6583   -0.4538 H   0  0  0  0  0  0  0  0  0  0  0  0
   -2.1155   -1.9963    0.7922 C   0  0  0  0  0  0  0  0  0  0  0  0
   -1.2875   -2.6383    1.4252 O   0  0  0  0  0  0  0  0  0  0  0  0
   -1.8575   -0.8123    0.2402 N   0  0  0  0  0  0  0  0  0  0  0  0
   -2.6005   -0.3333   -0.2478 H   0  0  0  0  0  0  0  0  0  0  0  0
   -0.5675   -0.1203    0.3102 C   0  0  1  0  0  0  0  0  0  0  0  0
    0.1932   -0.7715   -0.1219 H   0  0  0  0  0  0  0  0  0  0  0  0
   -0.6568    1.1713   -0.5294 C   0  0  0  0  0  0  0  0  0  0  0  0
   -1.3935    1.0222   -1.3212 H   0  0  0  0  0  0  0  0  0  0  0  0
   -1.0246    1.9700    0.1185 H   0  0  0  0  0  0  0  0  0  0  0  0
    0.6599    1.6441   -1.1726 C   0  0  0  0  0  0  0  0  0  0  0  0
    0.7780    1.1812   -2.1524 H   0  0  0  0  0  0  0  0  0  0  0  0
    0.7132    3.1663   -1.3314 C   0  0  0  0  0  0  0  0  0  0  0  0
    0.5801    3.6450   -0.3603 H   0  0  0  0  0  0  0  0  0  0  0  0
    1.6791    3.4589   -1.7437 H   0  0  0  0  0  0  0  0  0  0  0  0
   -0.0675    3.5097   -2.0068 H   0  0  0  0  0  0  0  0  0  0  0  0
    1.8417    1.2180   -0.3025 C   0  0  0  0  0  0  0  0  0  0  0  0
    1.8479    0.1331   -0.1982 H   0  0  0  0  0  0  0  0  0  0  0  0
    2.7766    1.5274   -0.7697 H   0  0  0  0  0  0  0  0  0  0  0  0
    1.7647    1.6741    0.6851 H   0  0  0  0  0  0  0  0  0  0  0  0
   -0.1913    0.1554    1.7759 C   0  0  0  0  0  0  0  0  0  0  0  0
    0.9476   -0.0766    2.1748 O   0  0  0  0  0  0  0  0  0  0  0  0
   -1.1502    0.6393    2.5760 N   0  0  0  0  0  0  0  0  0  0  0  0
   -2.0581    0.8092    2.1736 H   0  0  0  0  0  0  0  0  0  0  0  0
   -0.9568    0.9369    3.9933 C   0  0  0  0  0  0  0  0  0  0  0  0
   -0.1600    1.6750    4.1097 H   0  0  0  0  0  0  0  0  0  0  0  0
   -1.8775    1.3307    4.4266 H   0  0  0  0  0  0  0  0  0  0  0  0
   -0.6678    0.0287    4.5244 H   0  0  0  0  0  0  0  0  0  0  0  0
  5  6  2  0  0  0  0
  5  7  1  0  0  0  0
  2  3  1  0  0  0  0
  2  4  1  0  0  0  0
  2  5  1  0  0  0  0
  1  2  1  0  0  0  0
 24 25  2  0  0  0  0
 24 26  1  0  0  0  0
 20 21  1  0  0  0  0
 20 22  1  0  0  0  0
 20 23  1  0  0  0  0
 16 17  1  0  0  0  0
 16 18  1  0  0  0  0
 16 19  1  0  0  0  0
 14 15  1  0  0  0  0
 14 16  1  0  0  0  0
 14 20  1  0  0  0  0
 11 12  1  0  0  0  0
 11 13  1  0  0  0  0
 11 14  1  0  0  0  0
  9 10  1  0  0  0  0
  9 11  1  0  0  0  0
  9 24  1  0  0  0  0
  7  8  1  0  0  0  0
  7  9  1  0  0  0  0
 28 29  1  0  0  0  0
 28 30  1  0  0  0  0
 28 31  1  0  0  0  0
 26 27  1  0  0  0  0
 26 28  1  0  0  0  0
M  END
$$$$
default_name
  -OEChem-02102213163D

 31 30  0     1  0  0  0  0  0999 V2000
   -3.5895   -3.5013    1.1082 H   0  0  0  0  0  0  0  0  0  0  0  0
   -3.5145   -2.5363    0.6082 C   0  0  0  0  0  0  0  0  0  0  0  0
   -4.2285   -1.8413    1.0452 H   0  0  0  0  0  0  0  0  0  0  0  0
   -3.7155   -2.6583   -0.4538 H   0  0  0  0  0  0  0  0  0  0  0  0
   -2.1155   -1.9963    0.7922 C   0  0  0  0  0  0  0  0  0  0  0  0
   -1.2875   -2.6383    1.4252 O   0  0  0  0  0  0  0  0  0  0  0  0
   -1.8575   -0.8123    0.2402 N   0  0  0  0  0  0  0  0  0  0  0  0
   -2.6005   -0.3333   -0.2478 H   0  0  0  0  0  0  0  0  0  0  0  0
   -0.5675   -0.1203    0.3102 C   0  0  1  0  0  0  0  0  0  0  0  0
    0.1932   -0.7715   -0.1219 H   0  0  0  0  0  0  0  0  0  0  0  0
   -0.6568    1.1713   -0.5294 C   0  0  0  0  0  0  0  0  0  0  0  0
   -1.3935    1.0222   -1.3212 H   0  0  0  0  0  0  0  0  0  0  0  0
   -1.0246    1.9700    0.1185 H   0  0  0  0  0  0  0  0  0  0  0  0
    0.6599    1.6441   -1.1726 C   0  0  0  0  0  0  0  0  0  0  0  0
    0.6568    1.4049   -2.2361 H   0  0  0  0  0  0  0  0  0  0  0  0
    0.8802    3.1499   -1.0016 C   0  0  0  0  0  0  0  0  0  0  0  0
    0.8697    3.4079    0.0583 H   0  0  0  0  0  0  0  0  0  0  0  0
    1.8438    3.4307   -1.4273 H   0  0  0  0  0  0  0  0  0  0  0  0
    0.1014    3.7125   -1.5119 H   0  0  0  0  0  0  0  0  0  0  0  0
    1.8396    0.9176   -0.5277 C   0  0  0  0  0  0  0  0  0  0  0  0
    1.7257   -0.1580   -0.6623 H   0  0  0  0  0  0  0  0  0  0  0  0
    2.7707    1.2302   -1.0003 H   0  0  0  0  0  0  0  0  0  0  0  0
    1.8832    1.1443    0.5381 H   0  0  0  0  0  0  0  0  0  0  0  0
   -0.1913    0.1554    1.7759 C   0  0  0  0  0  0  0  0  0  0  0  0
    0.9476   -0.0766    2.1748 O   0  0  0  0  0  0  0  0  0  0  0  0
   -1.1502    0.6393    2.5760 N   0  0  0  0  0  0  0  0  0  0  0  0
   -2.0581    0.8092    2.1736 H   0  0  0  0  0  0  0  0  0  0  0  0
   -0.9568    0.9369    3.9933 C   0  0  0  0  0  0  0  0  0  0  0  0
   -0.1600    1.6750    4.1097 H   0  0  0  0  0  0  0  0  0  0  0  0
   -1.8775    1.3307    4.4266 H   0  0  0  0  0  0  0  0  0  0  0  0
   -0.6678    0.0287    4.5244 H   0  0  0  0  0  0  0  0  0  0  0  0
  5  6  2  0  0  0  0
  5  7  1  0  0  0  0
  2  3  1  0  0  0  0
  2  4  1  0  0  0  0
  2  5  1  0  0  0  0
  1  2  1  0  0  0  0
 24 25  2  0  0  0  0
 24 26  1  0  0  0  0
 20 21  1  0  0  0  0
 20 22  1  0  0  0  0
 20 23  1  0  0  0  0
 16 17  1  0  0  0  0
 16 18  1  0  0  0  0
 16 19  1  0  0  0  0
 14 15  1  0  0  0  0
 14 16  1  0  0  0  0
 14 20  1  0  0  0  0
 11 12  1  0  0  0  0
 11 13  1  0  0  0  0
 11 14  1  0  0  0  0
  9 10  1  0  0  0  0
  9 11  1  0  0  0  0
  9 24  1  0  0  0  0
  7  8  1  0  0  0  0
  7  9  1  0  0  0  0
 28 29  1  0  0  0  0
 28 30  1  0  0  0  0
 28 31  1  0  0  0  0
 26 27  1  0  0  0  0
 26 28  1  0  0  0  0
M  END
$$$$
default_name
  -OEChem-02102213163D

 31 30  0     1  0  0  0  0  0999 V2000
   -3.5895   -3.5013    1.1082 H   0  0  0  0  0  0  0  0  0  0  0  0
   -3.5145   -2.5363    0.6082 C   0  0  0  0  0  0  0  0  0  0  0  0
   -4.2285   -1.8413    1.0452 H   0  0  0  0  0  0  0  0  0  0  0  0
   -3.7155   -2.6583   -0.4538 H   0  0  0  0  0  0  0  0  0  0  0  0
   -2.1155   -1.9963    0.7922 C   0  0  0  0  0  0  0  0  0  0  0  0
   -1.2875   -2.6383    1.4252 O   0  0  0  0  0  0  0  0  0  0  0  0
   -1.8575   -0.8123    0.2402 N   0  0  0  0  0  0  0  0  0  0  0  0
   -2.6005   -0.3333   -0.2478 H   0  0  0  0  0  0  0  0  0  0  0  0
   -0.5675   -0.1203    0.3102 C   0  0  1  0  0  0  0  0  0  0  0  0
    0.1932   -0.7715   -0.1219 H   0  0  0  0  0  0  0  0  0  0  0  0
   -0.6568    1.1713   -0.5294 C   0  0  0  0  0  0  0  0  0  0  0  0
   -1.3935    1.0222   -1.3212 H   0  0  0  0  0  0  0  0  0  0  0  0
   -1.0246    1.9700    0.1185 H   0  0  0  0  0  0  0  0  0  0  0  0
    0.6599    1.6441   -1.1726 C   0  0  0  0  0  0  0  0  0  0  0  0
    0.5573    1.6526   -2.2578 H   0  0  0  0  0  0  0  0  0  0  0  0
    1.0660    3.0430   -0.6999 C   0  0  0  0  0  0  0  0  0  0  0  0
    1.1571    3.0548    0.3871 H   0  0  0  0  0  0  0  0  0  0  0  0
    2.0250    3.3156   -1.1411 H   0  0  0  0  0  0  0  0  0  0  0  0
    0.3258    3.7807   -1.0025 H   0  0  0  0  0  0  0  0  0  0  0  0
    1.7871    0.6775   -0.8116 C   0  0  0  0  0  0  0  0  0  0  0  0
    1.5393   -0.3233   -1.1653 H   0  0  0  0  0  0  0  0  0  0  0  0
    2.7145    0.9947   -1.2884 H   0  0  0  0  0  0  0  0  0  0  0  0
    1.9286    0.6523    0.2695 H   0  0  0  0  0  0  0  0  0  0  0  0
   -0.1913    0.1554    1.7759 C   0  0  0  0  0  0  0  0  0  0  0  0
    0.9476   -0.0766    2.1748 O   0  0  0  0  0  0  0  0  0  0  0  0
   -1.1502    0.6393    2.5760 N   0  0  0  0  0  0  0  0  0  0  0  0
   -2.0581    0.8092    2.1736 H   0  0  0  0  0  0  0  0  0  0  0  0
   -0.9568    0.9369    3.9933 C   0  0  0  0  0  0  0  0  0  0  0  0
   -0.1600    1.6750    4.1097 H   0  0  0  0  0  0  0  0  0  0  0  0
   -1.8775    1.3307    4.4266 H   0  0  0  0  0  0  0  0  0  0  0  0
   -0.6678    0.0287    4.5244 H   0  0  0  0  0  0  0  0  0  0  0  0
  5  6  2  0  0  0  0
  5  7  1  0  0  0  0
  2  3  1  0  0  0  0
  2  4  1  0  0  0  0
  2  5  1  0  0  0  0
  1  2  1  0  0  0  0
 24 25  2  0  0  0  0
 24 26  1  0  0  0  0
 20 21  1  0  0  0  0
 20 22  1  0  0  0  0
 20 23  1  0  0  0  0
 16 17  1  0  0  0  0
 16 18  1  0  0  0  0
 16 19  1  0  0  0  0
 14 15  1  0  0  0  0
 14 16  1  0  0  0  0
 14 20  1  0  0  0  0
 11 12  1  0  0  0  0
 11 13  1  0  0  0  0
 11 14  1  0  0  0  0
  9 10  1  0  0  0  0
  9 11  1  0  0  0  0
  9 24  1  0  0  0  0
  7  8  1  0  0  0  0
  7  9  1  0  0  0  0
 28 29  1  0  0  0  0
 28 30  1  0  0  0  0
 28 31  1  0  0  0  0
 26 27  1  0  0  0  0
 26 28  1  0  0  0  0
M  END
$$$$
default_name
  -OEChem-02102213163D

 31 30  0     1  0  0  0  0  0999 V2000
   -3.5895   -3.5013    1.1082 H   0  0  0  0  0  0  0  0  0  0  0  0
   -3.5145   -2.5363    0.6082 C   0  0  0  0  0  0  0  0  0  0  0  0
   -4.2285   -1.8413    1.0452 H   0  0  0  0  0  0  0  0  0  0  0  0
   -3.7155   -2.6583   -0.4538 H   0  0  0  0  0  0  0  0  0  0  0  0
   -2.1155   -1.9963    0.7922 C   0  0  0  0  0  0  0  0  0  0  0  0
   -1.2875   -2.6383    1.4252 O   0  0  0  0  0  0  0  0  0  0  0  0
   -1.8575   -0.8123    0.2402 N   0  0  0  0  0  0  0  0  0  0  0  0
   -2.6005   -0.3333   -0.2478 H   0  0  0  0  0  0  0  0  0  0  0  0
   -0.5675   -0.1203    0.3102 C   0  0  1  0  0  0  0  0  0  0  0  0
    0.1932   -0.7715   -0.1219 H   0  0  0  0  0  0  0  0  0  0  0  0
   -0.6568    1.1713   -0.5294 C   0  0  0  0  0  0  0  0  0  0  0  0
   -1.3935    1.0222   -1.3212 H   0  0  0  0  0  0  0  0  0  0  0  0
   -1.0246    1.9700    0.1185 H   0  0  0  0  0  0  0  0  0  0  0  0
    0.6599    1.6441   -1.1726 C   0  0  0  0  0  0  0  0  0  0  0  0
    0.4862    1.9074   -2.2160 H   0  0  0  0  0  0  0  0  0  0  0  0
    1.2578    2.8529   -0.4469 C   0  0  0  0  0  0  0  0  0  0  0  0
    1.4227    2.6100    0.6037 H   0  0  0  0  0  0  0  0  0  0  0  0
    2.2103    3.1215   -0.9044 H   0  0  0  0  0  0  0  0  0  0  0  0
    0.5905    3.7094   -0.5131 H   0  0  0  0  0  0  0  0  0  0  0  0
    1.6879    0.5140   -1.1348 C   0  0  0  0  0  0  0  0  0  0  0  0
    1.3015   -0.3515   -1.6729 H   0  0  0  0  0  0  0  0  0  0  0  0
    2.6119    0.8371   -1.6143 H   0  0  0  0  0  0  0  0  0  0  0  0
    1.8979    0.2316   -0.1025 H   0  0  0  0  0  0  0  0  0  0  0  0
   -0.1913    0.1554    1.7759 C   0  0  0  0  0  0  0  0  0  0  0  0
    0.9476   -0.0766    2.1748 O   0  0  0  0  0  0  0  0  0  0  0  0
   -1.1502    0.6393    2.5760 N   0  0  0  0  0  0  0  0  0  0  0  0
   -2.0581    0.8092    2.1736 H   0  0  0  0  0  0  0  0  0  0  0  0
   -0.9568    0.9369    3.9933 C   0  0  0  0  0  0  0  0  0  0  0  0
   -0.1600    1.6750    4.1097 H   0  0  0  0  0  0  0  0  0  0  0  0
   -1.8775    1.3307    4.4266 H   0  0  0  0  0  0  0  0  0  0  0  0
   -0.6678    0.0287    4.5244 H   0  0  0  0  0  0  0  0  0  0  0  0
  5  6  2  0  0  0  0
  5  7  1  0  0  0  0
  2  3  1  0  0  0  0
  2  4  1  0  0  0  0
  2  5  1  0  0  0  0
  1  2  1  0  0  0  0
 24 25  2  0  0  0  0
 24 26  1  0  0  0  0
 20 21  1  0  0  0  0
 20 22  1  0  0  0  0
 20 23  1  0  0  0  0
 16 17  1  0  0  0  0
 16 18  1  0  0  0  0
 16 19  1  0  0  0  0
 14 15  1  0  0  0  0
 14 16  1  0  0  0  0
 14 20  1  0  0  0  0
 11 12  1  0  0  0  0
 11 13  1  0  0  0  0
 11 14  1  0  0  0  0
  9 10  1  0  0  0  0
  9 11  1  0  0  0  0
  9 24  1  0  0  0  0
  7  8  1  0  0  0  0
  7  9  1  0  0  0  0
 28 29  1  0  0  0  0
 28 30  1  0  0  0  0
 28 31  1  0  0  0  0
 26 27  1  0  0  0  0
 26 28  1  0  0  0  0
M  END
$$$$
default_name
  -OEChem-02102213163D

 31 30  0     1  0  0  0  0  0999 V2000
   -3.5895   -3.5013    1.1082 H   0  0  0  0  0  0  0  0  0  0  0  0
   -3.5145   -2.5363    0.6082 C   0  0  0  0  0  0  0  0  0  0  0  0
   -4.2285   -1.8413    1.0452 H   0  0  0  0  0  0  0  0  0  0  0  0
   -3.7155   -2.6583   -0.4538 H   0  0  0  0  0  0  0  0  0  0  0  0
   -2.1155   -1.9963    0.7922 C   0  0  0  0  0  0  0  0  0  0  0  0
   -1.2875   -2.6383    1.4252 O   0  0  0  0  0  0  0  0  0  0  0  0
   -1.8575   -0.8123    0.2402 N   0  0  0  0  0  0  0  0  0  0  0  0
   -2.6005   -0.3333   -0.2478 H   0  0  0  0  0  0  0  0  0  0  0  0
   -0.5675   -0.1203    0.3102 C   0  0  1  0  0  0  0  0  0  0  0  0
    0.1932   -0.7715   -0.1219 H   0  0  0  0  0  0  0  0  0  0  0  0
   -0.6568    1.1713   -0.5294 C   0  0  0  0  0  0  0  0  0  0  0  0
   -1.3935    1.0222   -1.3212 H   0  0  0  0  0  0  0  0  0  0  0  0
   -1.0246    1.9700    0.1185 H   0  0  0  0  0  0  0  0  0  0  0  0
    0.6599    1.6441   -1.1726 C   0  0  0  0  0  0  0  0  0  0  0  0
    0.4484    2.1520   -2.1136 H   0  0  0  0  0  0  0  0  0  0  0  0
    1.4427    2.5925   -0.2599 C   0  0  0  0  0  0  0  0  0  0  0  0
    1.6483    2.1036    0.6934 H   0  0  0  0  0  0  0  0  0  0  0  0
    2.3871    2.8617   -0.7335 H   0  0  0  0  0  0  0  0  0  0  0  0
    0.8773    3.5037   -0.0772 H   0  0  0  0  0  0  0  0  0  0  0  0
    1.5488    0.4384   -1.4752 C   0  0  0  0  0  0  0  0  0  0  0  0
    1.0283   -0.2406   -2.1506 H   0  0  0  0  0  0  0  0  0  0  0  0
    2.4698    0.7682   -1.9559 H   0  0  0  0  0  0  0  0  0  0  0  0
    1.7933   -0.0890   -0.5525 H   0  0  0  0  0  0  0  0  0  0  0  0
   -0.1913    0.1554    1.7759 C   0  0  0  0  0  0  0  0  0  0  0  0
    0.9476   -0.0766    2.1748 O   0  0  0  0  0  0  0  0  0  0  0  0
   -1.1502    0.6393    2.5760 N   0  0  0  0  0  0  0  0  0  0  0  0
   -2.0581    0.8092    2.1736 H   0  0  0  0  0  0  0  0  0  0  0  0
   -0.9568    0.9369    3.9933 C   0  0  0  0  0  0  0  0  0  0  0  0
   -0.1600    1.6750    4.1097 H   0  0  0  0  0  0  0  0  0  0  0  0
   -1.8775    1.3307    4.4266 H   0  0  0  0  0  0  0  0  0  0  0  0
   -0.6678    0.0287    4.5244 H   0  0  0  0  0  0  0  0  0  0  0  0
  5  6  2  0  0  0  0
  5  7  1  0  0  0  0
  2  3  1  0  0  0  0
  2  4  1  0  0  0  0
  2  5  1  0  0  0  0
  1  2  1  0  0  0  0
 24 25  2  0  0  0  0
 24 26  1  0  0  0  0
 20 21  1  0  0  0  0
 20 22  1  0  0  0  0
 20 23  1  0  0  0  0
 16 17  1  0  0  0  0
 16 18  1  0  0  0  0
 16 19  1  0  0  0  0
 14 15  1  0  0  0  0
 14 16  1  0  0  0  0
 14 20  1  0  0  0  0
 11 12  1  0  0  0  0
 11 13  1  0  0  0  0
 11 14  1  0  0  0  0
  9 10  1  0  0  0  0
  9 11  1  0  0  0  0
  9 24  1  0  0  0  0
  7  8  1  0  0  0  0
  7  9  1  0  0  0  0
 28 29  1  0  0  0  0
 28 30  1  0  0  0  0
 28 31  1  0  0  0  0
 26 27  1  0  0  0  0
 26 28  1  0  0  0  0
M  END
$$$$
default_name
  -OEChem-02102213163D

 31 30  0     1  0  0  0  0  0999 V2000
   -3.5895   -3.5013    1.1082 H   0  0  0  0  0  0  0  0  0  0  0  0
   -3.5145   -2.5363    0.6082 C   0  0  0  0  0  0  0  0  0  0  0  0
   -4.2285   -1.8413    1.0452 H   0  0  0  0  0  0  0  0  0  0  0  0
   -3.7155   -2.6583   -0.4538 H   0  0  0  0  0  0  0  0  0  0  0  0
   -2.1155   -1.9963    0.7922 C   0  0  0  0  0  0  0  0  0  0  0  0
   -1.2875   -2.6383    1.4252 O   0  0  0  0  0  0  0  0  0  0  0  0
   -1.8575   -0.8123    0.2402 N   0  0  0  0  0  0  0  0  0  0  0  0
   -2.6005   -0.3333   -0.2478 H   0  0  0  0  0  0  0  0  0  0  0  0
   -0.5675   -0.1203    0.3102 C   0  0  1  0  0  0  0  0  0  0  0  0
    0.1932   -0.7715   -0.1219 H   0  0  0  0  0  0  0  0  0  0  0  0
   -0.6568    1.1713   -0.5294 C   0  0  0  0  0  0  0  0  0  0  0  0
   -1.3935    1.0222   -1.3212 H   0  0  0  0  0  0  0  0  0  0  0  0
   -1.0246    1.9700    0.1185 H   0  0  0  0  0  0  0  0  0  0  0  0
    0.6599    1.6441   -1.1726 C   0  0  0  0  0  0  0  0  0  0  0  0
    0.4464    2.3696   -1.9576 H   0  0  0  0  0  0  0  0  0  0  0  0
    1.6080    2.2796   -0.1516 C   0  0  0  0  0  0  0  0  0  0  0  0
    1.8186    1.5703    0.6500 H   0  0  0  0  0  0  0  0  0  0  0  0
    2.5433    2.5537   -0.6400 H   0  0  0  0  0  0  0  0  0  0  0  0
    1.1667    3.1776    0.2755 H   0  0  0  0  0  0  0  0  0  0  0  0
    1.3791    0.4557   -1.8097 C   0  0  0  0  0  0  0  0  0  0  0  0
    0.7385    0.0018   -2.5657 H   0  0  0  0  0  0  0  0  0  0  0  0
    2.2980    0.7925   -2.2897 H   0  0  0  0  0  0  0  0  0  0  0  0
    1.6217   -0.2879   -1.0498 H   0  0  0  0  0  0  0  0  0  0  0  0
   -0.1913    0.1554    1.7759 C   0  0  0  0  0  0  0  0  0  0  0  0
    0.9476   -0.0766    2.1748 O   0  0  0  0  0  0  0  0  0  0  0  0
   -1.1502    0.6393    2.5760 N   0  0  0  0  0  0  0  0  0  0  0  0
   -2.0581    0.8092    2.1736 H   0  0  0  0  0  0  0  0  0  0  0  0
   -0.9568    0.9369    3.9933 C   0  0  0  0  0  0  0  0  0  0  0  0
   -0.1600    1.6750    4.1097 H   0  0  0  0  0  0  0  0  0  0  0  0
   -1.8775    1.3307    4.4266 H   0  0  0  0  0  0  0  0  0  0  0  0
   -0.6678    0.0287    4.5244 H   0  0  0  0  0  0  0  0  0  0  0  0
  5  6  2  0  0  0  0
  5  7  1  0  0  0  0
  2  3  1  0  0  0  0
  2  4  1  0  0  0  0
  2  5  1  0  0  0  0
  1  2  1  0  0  0  0
 24 25  2  0  0  0  0
 24 26  1  0  0  0  0
 20 21  1  0  0  0  0
 20 22  1  0  0  0  0
 20 23  1  0  0  0  0
 16 17  1  0  0  0  0
 16 18  1  0  0  0  0
 16 19  1  0  0  0  0
 14 15  1  0  0  0  0
 14 16  1  0  0  0  0
 14 20  1  0  0  0  0
 11 12  1  0  0  0  0
 11 13  1  0  0  0  0
 11 14  1  0  0  0  0
  9 10  1  0  0  0  0
  9 11  1  0  0  0  0
  9 24  1  0  0  0  0
  7  8  1  0  0  0  0
  7  9  1  0  0  0  0
 28 29  1  0  0  0  0
 28 30  1  0  0  0  0
 28 31  1  0  0  0  0
 26 27  1  0  0  0  0
 26 28  1  0  0  0  0
M  END
$$$$
default_name
  -OEChem-02102213163D

 31 30  0     1  0  0  0  0  0999 V2000
   -3.5895   -3.5013    1.1082 H   0  0  0  0  0  0  0  0  0  0  0  0
   -3.5145   -2.5363    0.6082 C   0  0  0  0  0  0  0  0  0  0  0  0
   -4.2285   -1.8413    1.0452 H   0  0  0  0  0  0  0  0  0  0  0  0
   -3.7155   -2.6583   -0.4538 H   0  0  0  0  0  0  0  0  0  0  0  0
   -2.1155   -1.9963    0.7922 C   0  0  0  0  0  0  0  0  0  0  0  0
   -1.2875   -2.6383    1.4252 O   0  0  0  0  0  0  0  0  0  0  0  0
   -1.8575   -0.8123    0.2402 N   0  0  0  0  0  0  0  0  0  0  0  0
   -2.6005   -0.3333   -0.2478 H   0  0  0  0  0  0  0  0  0  0  0  0
   -0.5675   -0.1203    0.3102 C   0  0  1  0  0  0  0  0  0  0  0  0
    0.1932   -0.7715   -0.1219 H   0  0  0  0  0  0  0  0  0  0  0  0
   -0.6568    1.1713   -0.5294 C   0  0  0  0  0  0  0  0  0  0  0  0
   -1.3935    1.0222   -1.3212 H   0  0  0  0  0  0  0  0  0  0  0  0
   -1.0246    1.9700    0.1185 H   0  0  0  0  0  0  0  0  0  0  0  0
    0.6599    1.6441   -1.1726 C   0  0  0  0  0  0  0  0  0  0  0  0
    0.4805    2.5456   -1.7585 H   0  0  0  0  0  0  0  0  0  0  0  0
    1.7424    1.9355   -0.1293 C   0  0  0  0  0  0  0  0  0  0  0  0
    1.9220    1.0463    0.4765 H   0  0  0  0  0  0  0  0  0  0  0  0
    2.6684    2.2186   -0.6303 H   0  0  0  0  0  0  0  0  0  0  0  0
    1.4390    2.7532    0.5210 H   0  0  0  0  0  0  0  0  0  0  0  0
    1.1906    0.5649   -2.1155 C   0  0  0  0  0  0  0  0  0  0  0  0
    0.4518    0.3590   -2.8900 H   0  0  0  0  0  0  0  0  0  0  0  0
    2.1081    0.9084   -2.5932 H   0  0  0  0  0  0  0  0  0  0  0  0
    1.3950   -0.3514   -1.5606 H   0  0  0  0  0  0  0  0  0  0  0  0
   -0.1913    0.1554    1.7759 C   0  0  0  0  0  0  0  0  0  0  0  0
    0.9476   -0.0766    2.1748 O   0  0  0  0  0  0  0  0  0  0  0  0
   -1.1502    0.6393    2.5760 N   0  0  0  0  0  0  0  0  0  0  0  0
   -2.0581    0.8092    2.1736 H   0  0  0  0  0  0  0  0  0  0  0  0
   -0.9568    0.9369    3.9933 C   0  0  0  0  0  0  0  0  0  0  0  0
   -0.1600    1.6750    4.1097 H   0  0  0  0  0  0  0  0  0  0  0  0
   -1.8775    1.3307    4.4266 H   0  0  0  0  0  0  0  0  0  0  0  0
   -0.6678    0.0287    4.5244 H   0  0  0  0  0  0  0  0  0  0  0  0
  5  6  2  0  0  0  0
  5  7  1  0  0  0  0
  2  3  1  0  0  0  0
  2  4  1  0  0  0  0
  2  5  1  0  0  0  0
  1  2  1  0  0  0  0
 24 25  2  0  0  0  0
 24 26  1  0  0  0  0
 20 21  1  0  0  0  0
 20 22  1  0  0  0  0
 20 23  1  0  0  0  0
 16 17  1  0  0  0  0
 16 18  1  0  0  0  0
 16 19  1  0  0  0  0
 14 15  1  0  0  0  0
 14 16  1  0  0  0  0
 14 20  1  0  0  0  0
 11 12  1  0  0  0  0
 11 13  1  0  0  0  0
 11 14  1  0  0  0  0
  9 10  1  0  0  0  0
  9 11  1  0  0  0  0
  9 24  1  0  0  0  0
  7  8  1  0  0  0  0
  7  9  1  0  0  0  0
 28 29  1  0  0  0  0
 28 30  1  0  0  0  0
 28 31  1  0  0  0  0
 26 27  1  0  0  0  0
 26 28  1  0  0  0  0
M  END
$$$$
default_name
  -OEChem-02102213163D

 31 30  0     1  0  0  0  0  0999 V2000
   -3.5895   -3.5013    1.1082 H   0  0  0  0  0  0  0  0  0  0  0  0
   -3.5145   -2.5363    0.6082 C   0  0  0  0  0  0  0  0  0  0  0  0
   -4.2285   -1.8413    1.0452 H   0  0  0  0  0  0  0  0  0  0  0  0
   -3.7155   -2.6583   -0.4538 H   0  0  0  0  0  0  0  0  0  0  0  0
   -2.1155   -1.9963    0.7922 C   0  0  0  0  0  0  0  0  0  0  0  0
   -1.2875   -2.6383    1.4252 O   0  0  0  0  0  0  0  0  0  0  0  0
   -1.8575   -0.8123    0.2402 N   0  0  0  0  0  0  0  0  0  0  0  0
   -2.6005   -0.3333   -0.2478 H   0  0  0  0  0  0  0  0  0  0  0  0
   -0.5675   -0.1203    0.3102 C   0  0  1  0  0  0  0  0  0  0  0  0
    0.1932   -0.7715   -0.1219 H   0  0  0  0  0  0  0  0  0  0  0  0
   -0.6568    1.1713   -0.5294 C   0  0  0  0  0  0  0  0  0  0  0  0
   -1.3935    1.0222   -1.3212 H   0  0  0  0  0  0  0  0  0  0  0  0
   -1.0246    1.9700    0.1185 H   0  0  0  0  0  0  0  0  0  0  0  0
    0.6599    1.6441   -1.1726 C   0  0  0  0  0  0  0  0  0  0  0  0
    0.5482    2.6678   -1.5300 H   0  0  0  0  0  0  0  0  0  0  0  0
    1.8368    1.5837   -0.1946 C   0  0  0  0  0  0  0  0  0  0  0  0
    1.9515    0.5674    0.1848 H   0  0  0  0  0  0  0  0  0  0  0  0
    2.7538    1.8793   -0.7049 H   0  0  0  0  0  0  0  0  0  0  0  0
    1.6757    2.2594    0.6426 H   0  0  0  0  0  0  0  0  0  0  0  0
    0.9959    0.7584   -2.3718 C   0  0  0  0  0  0  0  0  0  0  0  0
    0.1877    0.8069   -3.1014 H   0  0  0  0  0  0  0  0  0  0  0  0
    1.9131    1.1081   -2.8456 H   0  0  0  0  0  0  0  0  0  0  0  0
    1.1286   -0.2752   -2.0499 H   0  0  0  0  0  0  0  0  0  0  0  0
   -0.1913    0.1554    1.7759 C   0  0  0  0  0  0  0  0  0  0  0  0
    0.9476   -0.0766    2.1748 O   0  0  0  0  0  0  0  0  0  0  0  0
   -1.1502    0.6393    2.5760 N   0  0  0  0  0  0  0  0  0  0  0  0
   -2.0581    0.8092    2.1736 H   0  0  0  0  0  0  0  0  0  0  0  0
   -0.9568    0.9369    3.9933 C   0  0  0  0  0  0  0  0  0  0  0  0
   -0.1600    1.6750    4.1097 H   0  0  0  0  0  0  0  0  0  0  0  0
   -1.8775    1.3307    4.4266 H   0  0  0  0  0  0  0  0  0  0  0  0
   -0.6678    0.0287    4.5244 H   0  0  0  0  0  0  0  0  0  0  0  0
  5  6  2  0  0  0  0
  5  7  1  0  0  0  0
  2  3  1  0  0  0  0
  2  4  1  0  0  0  0
  2  5  1  0  0  0  0
  1  2  1  0  0  0  0
 24 25  2  0  0  0  0
 24 26  1  0  0  0  0
 20 21  1  0  0  0  0
 20 22  1  0  0  0  0
 20 23  1  0  0  0  0
 16 17  1  0  0  0  0
 16 18  1  0  0  0  0
 16 19  1  0  0  0  0
 14 15  1  0  0  0  0
 14 16  1  0  0  0  0
 14 20  1  0  0  0  0
 11 12  1  0  0  0  0
 11 13  1  0  0  0  0
 11 14  1  0  0  0  0
  9 10  1  0  0  0  0
  9 11  1  0  0  0  0
  9 24  1  0  0  0  0
  7  8  1  0  0  0  0
  7  9  1  0  0  0  0
 28 29  1  0  0  0  0
 28 30  1  0  0  0  0
 28 31  1  0  0  0  0
 26 27  1  0  0  0  0
 26 28  1  0  0  0  0
M  END
$$$$
default_name
  -OEChem-02102213163D

 31 30  0     1  0  0  0  0  0999 V2000
   -3.5895   -3.5013    1.1082 H   0  0  0  0  0  0  0  0  0  0  0  0
   -3.5145   -2.5363    0.6082 C   0  0  0  0  0  0  0  0  0  0  0  0
   -4.2285   -1.8413    1.0452 H   0  0  0  0  0  0  0  0  0  0  0  0
   -3.7155   -2.6583   -0.4538 H   0  0  0  0  0  0  0  0  0  0  0  0
   -2.1155   -1.9963    0.7922 C   0  0  0  0  0  0  0  0  0  0  0  0
   -1.2875   -2.6383    1.4252 O   0  0  0  0  0  0  0  0  0  0  0  0
   -1.8575   -0.8123    0.2402 N   0  0  0  0  0  0  0  0  0  0  0  0
   -2.6005   -0.3333   -0.2478 H   0  0  0  0  0  0  0  0  0  0  0  0
   -0.5675   -0.1203    0.3102 C   0  0  1  0  0  0  0  0  0  0  0  0
    0.1932   -0.7715   -0.1219 H   0  0  0  0  0  0  0  0  0  0  0  0
   -0.6568    1.1713   -0.5294 C   0  0  0  0  0  0  0  0  0  0  0  0
   -1.3935    1.0222   -1.3212 H   0  0  0  0  0  0  0  0  0  0  0  0
   -1.0246    1.9700    0.1185 H   0  0  0  0  0  0  0  0  0  0  0  0
    0.6599    1.6441   -1.1726 C   0  0  0  0  0  0  0  0  0  0  0  0
    0.6450    2.7279   -1.2877 H   0  0  0  0  0  0  0  0  0  0  0  0
    1.8848    1.2481   -0.3431 C   0  0  0  0  0  0  0  0  0  0  0  0
    1.9050    0.1662   -0.2054 H   0  0  0  0  0  0  0  0  0  0  0  0
    2.7936    1.5589   -0.8590 H   0  0  0  0  0  0  0  0  0  0  0  0
    1.8606    1.7300    0.6319 H   0  0  0  0  0  0  0  0  0  0  0  0
    0.8084    1.0230   -2.5610 C   0  0  0  0  0  0  0  0  0  0  0  0
   -0.0358    1.3149   -3.1855 H   0  0  0  0  0  0  0  0  0  0  0  0
    1.7263    1.3779   -3.0296 H   0  0  0  0  0  0  0  0  0  0  0  0
    0.8406   -0.0644   -2.4846 H   0  0  0  0  0  0  0  0  0  0  0  0
   -0.1913    0.1554    1.7759 C   0  0  0  0  0  0  0  0  0  0  0  0
    0.9476   -0.0766    2.1748 O   0  0  0  0  0  0  0  0  0  0  0  0
   -1.1502    0.6393    2.5760 N   0  0  0  0  0  0  0  0  0  0  0  0
   -2.0581    0.8092    2.1736 H   0  0  0  0  0  0  0  0  0  0  0  0
   -0.9568    0.9369    3.9933 C   0  0  0  0  0  0  0  0  0  0  0  0
   -0.1600    1.6750    4.1097 H   0  0  0  0  0  0  0  0  0  0  0  0
   -1.8775    1.3307    4.4266 H   0  0  0  0  0  0  0  0  0  0  0  0
   -0.6678    0.0287    4.5244 H   0  0  0  0  0  0  0  0  0  0  0  0
  5  6  2  0  0  0  0
  5  7  1  0  0  0  0
  2  3  1  0  0  0  0
  2  4  1  0  0  0  0
  2  5  1  0  0  0  0
  1  2  1  0  0  0  0
 24 25  2  0  0  0  0
 24 26  1  0  0  0  0
 20 21  1  0  0  0  0
 20 22  1  0  0  0  0
 20 23  1  0  0  0  0
 16 17  1  0  0  0  0
 16 18  1  0  0  0  0
 16 19  1  0  0  0  0
 14 15  1  0  0  0  0
 14 16  1  0  0  0  0
 14 20  1  0  0  0  0
 11 12  1  0  0  0  0
 11 13  1  0  0  0  0
 11 14  1  0  0  0  0
  9 10  1  0  0  0  0
  9 11  1  0  0  0  0
  9 24  1  0  0  0  0
  7  8  1  0  0  0  0
  7  9  1  0  0  0  0
 28 29  1  0  0  0  0
 28 30  1  0  0  0  0
 28 31  1  0  0  0  0
 26 27  1  0  0  0  0
 26 28  1  0  0  0  0
M  END
$$$$
default_name
  -OEChem-02102213163D

 31 30  0     1  0  0  0  0  0999 V2000
   -3.5895   -3.5013    1.1082 H   0  0  0  0  0  0  0  0  0  0  0  0
   -3.5145   -2.5363    0.6082 C   0  0  0  0  0  0  0  0  0  0  0  0
   -4.2285   -1.8413    1.0452 H   0  0  0  0  0  0  0  0  0  0  0  0
   -3.7155   -2.6583   -0.4538 H   0  0  0  0  0  0  0  0  0  0  0  0
   -2.1155   -1.9963    0.7922 C   0  0  0  0  0  0  0  0  0  0  0  0
   -1.2875   -2.6383    1.4252 O   0  0  0  0  0  0  0  0  0  0  0  0
   -1.8575   -0.8123    0.2402 N   0  0  0  0  0  0  0  0  0  0  0  0
   -2.6005   -0.3333   -0.2478 H   0  0  0  0  0  0  0  0  0  0  0  0
   -0.5675   -0.1203    0.3102 C   0  0  1  0  0  0  0  0  0  0  0  0
    0.1932   -0.7715   -0.1219 H   0  0  0  0  0  0  0  0  0  0  0  0
   -0.6568    1.1713   -0.5294 C   0  0  0  0  0  0  0  0  0  0  0  0
   -1.3935    1.0222   -1.3212 H   0  0  0  0  0  0  0  0  0  0  0  0
   -1.0246    1.9700    0.1185 H   0  0  0  0  0  0  0  0  0  0  0  0
    0.6599    1.6441   -1.1726 C   0  0  0  0  0  0  0  0  0  0  0  0
    0.7643    2.7219   -1.0479 H   0  0  0  0  0  0  0  0  0  0  0  0
    1.8830    0.9517   -0.5646 C   0  0  0  0  0  0  0  0  0  0  0  0
    1.7857   -0.1300   -0.6673 H   0  0  0  0  0  0  0  0  0  0  0  0
    2.7852    1.2791   -1.0818 H   0  0  0  0  0  0  0  0  0  0  0  0
    1.9811    1.2011    0.4897 H   0  0  0  0  0  0  0  0  0  0  0  0
    0.6409    1.3408   -2.6703 C   0  0  0  0  0  0  0  0  0  0  0  0
   -0.2035    1.8484   -3.1366 H   0  0  0  0  0  0  0  0  0  0  0  0
    1.5604    1.6995   -3.1329 H   0  0  0  0  0  0  0  0  0  0  0  0
    0.5506    0.2665   -2.8349 H   0  0  0  0  0  0  0  0  0  0  0  0
   -0.1913    0.1554    1.7759 C   0  0  0  0  0  0  0  0  0  0  0  0
    0.9476   -0.0766    2.1748 O   0  0  0  0  0  0  0  0  0  0  0  0
   -1.1502    0.6393    2.5760 N   0  0  0  0  0  0  0  0  0  0  0  0
   -2.0581    0.8092    2.1736 H   0  0  0  0  0  0  0  0  0  0  0  0
   -0.9568    0.9369    3.9933 C   0  0  0  0  0  0  0  0  0  0  0  0
   -0.1600    1.6750    4.1097 H   0  0  0  0  0  0  0  0  0  0  0  0
   -1.8775    1.3307    4.4266 H   0  0  0  0  0  0  0  0  0  0  0  0
   -0.6678    0.0287    4.5244 H   0  0  0  0  0  0  0  0  0  0  0  0
  5  6  2  0  0  0  0
  5  7  1  0  0  0  0
  2  3  1  0  0  0  0
  2  4  1  0  0  0  0
  2  5  1  0  0  0  0
  1  2  1  0  0  0  0
 24 25  2  0  0  0  0
 24 26  1  0  0  0  0
 20 21  1  0  0  0  0
 20 22  1  0  0  0  0
 20 23  1  0  0  0  0
 16 17  1  0  0  0  0
 16 18  1  0  0  0  0
 16 19  1  0  0  0  0
 14 15  1  0  0  0  0
 14 16  1  0  0  0  0
 14 20  1  0  0  0  0
 11 12  1  0  0  0  0
 11 13  1  0  0  0  0
 11 14  1  0  0  0  0
  9 10  1  0  0  0  0
  9 11  1  0  0  0  0
  9 24  1  0  0  0  0
  7  8  1  0  0  0  0
  7  9  1  0  0  0  0
 28 29  1  0  0  0  0
 28 30  1  0  0  0  0
 28 31  1  0  0  0  0
 26 27  1  0  0  0  0
 26 28  1  0  0  0  0
M  END
$$$$
default_name
  -OEChem-02102213163D

 31 30  0     1  0  0  0  0  0999 V2000
   -3.5895   -3.5013    1.1082 H   0  0  0  0  0  0  0  0  0  0  0  0
   -3.5145   -2.5363    0.6082 C   0  0  0  0  0  0  0  0  0  0  0  0
   -4.2285   -1.8413    1.0452 H   0  0  0  0  0  0  0  0  0  0  0  0
   -3.7155   -2.6583   -0.4538 H   0  0  0  0  0  0  0  0  0  0  0  0
   -2.1155   -1.9963    0.7922 C   0  0  0  0  0  0  0  0  0  0  0  0
   -1.2875   -2.6383    1.4252 O   0  0  0  0  0  0  0  0  0  0  0  0
   -1.8575   -0.8123    0.2402 N   0  0  0  0  0  0  0  0  0  0  0  0
   -2.6005   -0.3333   -0.2478 H   0  0  0  0  0  0  0  0  0  0  0  0
   -0.5675   -0.1203    0.3102 C   0  0  1  0  0  0  0  0  0  0  0  0
    0.1932   -0.7715   -0.1219 H   0  0  0  0  0  0  0  0  0  0  0  0
   -0.6568    1.1713   -0.5294 C   0  0  0  0  0  0  0  0  0  0  0  0
   -1.3935    1.0222   -1.3212 H   0  0  0  0  0  0  0  0  0  0  0  0
   -1.0246    1.9700    0.1185 H   0  0  0  0  0  0  0  0  0  0  0  0
    0.6599    1.6441   -1.1726 C   0  0  0  0  0  0  0  0  0  0  0  0
    0.8979    2.6502   -0.8272 H   0  0  0  0  0  0  0  0  0  0  0  0
    1.8317    0.7145   -0.8440 C   0  0  0  0  0  0  0  0  0  0  0  0
    1.6017   -0.3009   -1.1696 H   0  0  0  0  0  0  0  0  0  0  0  0
    2.7291    1.0591   -1.3583 H   0  0  0  0  0  0  0  0  0  0  0  0
    2.0290    0.7085    0.2258 H   0  0  0  0  0  0  0  0  0  0  0  0
    0.5048    1.6901   -2.6922 C   0  0  0  0  0  0  0  0  0  0  0  0
   -0.3038    2.3709   -2.9579 H   0  0  0  0  0  0  0  0  0  0  0  0
    1.4267    2.0509   -3.1483 H   0  0  0  0  0  0  0  0  0  0  0  0
    0.2785    0.6950   -3.0770 H   0  0  0  0  0  0  0  0  0  0  0  0
   -0.1913    0.1554    1.7759 C   0  0  0  0  0  0  0  0  0  0  0  0
    0.9476   -0.0766    2.1748 O   0  0  0  0  0  0  0  0  0  0  0  0
   -1.1502    0.6393    2.5760 N   0  0  0  0  0  0  0  0  0  0  0  0
   -2.0581    0.8092    2.1736 H   0  0  0  0  0  0  0  0  0  0  0  0
   -0.9568    0.9369    3.9933 C   0  0  0  0  0  0  0  0  0  0  0  0
   -0.1600    1.6750    4.1097 H   0  0  0  0  0  0  0  0  0  0  0  0
   -1.8775    1.3307    4.4266 H   0  0  0  0  0  0  0  0  0  0  0  0
   -0.6678    0.0287    4.5244 H   0  0  0  0  0  0  0  0  0  0  0  0
  5  6  2  0  0  0  0
  5  7  1  0  0  0  0
  2  3  1  0  0  0  0
  2  4  1  0  0  0  0
  2  5  1  0  0  0  0
  1  2  1  0  0  0  0
 24 25  2  0  0  0  0
 24 26  1  0  0  0  0
 20 21  1  0  0  0  0
 20 22  1  0  0  0  0
 20 23  1  0  0  0  0
 16 17  1  0  0  0  0
 16 18  1  0  0  0  0
 16 19  1  0  0  0  0
 14 15  1  0  0  0  0
 14 16  1  0  0  0  0
 14 20  1  0  0  0  0
 11 12  1  0  0  0  0
 11 13  1  0  0  0  0
 11 14  1  0  0  0  0
  9 10  1  0  0  0  0
  9 11  1  0  0  0  0
  9 24  1  0  0  0  0
  7  8  1  0  0  0  0
  7  9  1  0  0  0  0
 28 29  1  0  0  0  0
 28 30  1  0  0  0  0
 28 31  1  0  0  0  0
 26 27  1  0  0  0  0
 26 28  1  0  0  0  0
M  END
$$$$
default_name
  -OEChem-02102213163D

 31 30  0     1  0  0  0  0  0999 V2000
   -3.5895   -3.5013    1.1082 H   0  0  0  0  0  0  0  0  0  0  0  0
   -3.5145   -2.5363    0.6082 C   0  0  0  0  0  0  0  0  0  0  0  0
   -4.2285   -1.8413    1.0452 H   0  0  0  0  0  0  0  0  0  0  0  0
   -3.7155   -2.6583   -0.4538 H   0  0  0  0  0  0  0  0  0  0  0  0
   -2.1155   -1.9963    0.7922 C   0  0  0  0  0  0  0  0  0  0  0  0
   -1.2875   -2.6383    1.4252 O   0  0  0  0  0  0  0  0  0  0  0  0
   -1.8575   -0.8123    0.2402 N   0  0  0  0  0  0  0  0  0  0  0  0
   -2.6005   -0.3333   -0.2478 H   0  0  0  0  0  0  0  0  0  0  0  0
   -0.5675   -0.1203    0.3102 C   0  0  1  0  0  0  0  0  0  0  0  0
    0.1932   -0.7715   -0.1219 H   0  0  0  0  0  0  0  0  0  0  0  0
   -0.6568    1.1713   -0.5294 C   0  0  0  0  0  0  0  0  0  0  0  0
   -1.3935    1.0222   -1.3212 H   0  0  0  0  0  0  0  0  0  0  0  0
   -1.0246    1.9700    0.1185 H   0  0  0  0  0  0  0  0  0  0  0  0
    0.6599    1.6441   -1.1726 C   0  0  0  0  0  0  0  0  0  0  0  0
    1.0367    2.5175   -0.6404 H   0  0  0  0  0  0  0  0  0  0  0  0
    1.7343    0.5528   -1.1623 C   0  0  0  0  0  0  0  0  0  0  0  0
    1.3656   -0.3350   -1.6780 H   0  0  0  0  0  0  0  0  0  0  0  0
    2.6292    0.9139   -1.6697 H   0  0  0  0  0  0  0  0  0  0  0  0
    2.0011    0.2860   -0.1420 H   0  0  0  0  0  0  0  0  0  0  0  0
    0.4093    2.0470   -2.6253 C   0  0  0  0  0  0  0  0  0  0  0  0
   -0.3301    2.8470   -2.6617 H   0  0  0  0  0  0  0  0  0  0  0  0
    1.3343    2.4082   -3.0747 H   0  0  0  0  0  0  0  0  0  0  0  0
    0.0427    1.1919   -3.1944 H   0  0  0  0  0  0  0  0  0  0  0  0
   -0.1913    0.1554    1.7759 C   0  0  0  0  0  0  0  0  0  0  0  0
    0.9476   -0.0766    2.1748 O   0  0  0  0  0  0  0  0  0  0  0  0
   -1.1502    0.6393    2.5760 N   0  0  0  0  0  0  0  0  0  0  0  0
   -2.0581    0.8092    2.1736 H   0  0  0  0  0  0  0  0  0  0  0  0
   -0.9568    0.9369    3.9933 C   0  0  0  0  0  0  0  0  0  0  0  0
   -0.1600    1.6750    4.1097 H   0  0  0  0  0  0  0  0  0  0  0  0
   -1.8775    1.3307    4.4266 H   0  0  0  0  0  0  0  0  0  0  0  0
   -0.6678    0.0287    4.5244 H   0  0  0  0  0  0  0  0  0  0  0  0
  5  6  2  0  0  0  0
  5  7  1  0  0  0  0
  2  3  1  0  0  0  0
  2  4  1  0  0  0  0
  2  5  1  0  0  0  0
  1  2  1  0  0  0  0
 24 25  2  0  0  0  0
 24 26  1  0  0  0  0
 20 21  1  0  0  0  0
 20 22  1  0  0  0  0
 20 23  1  0  0  0  0
 16 17  1  0  0  0  0
 16 18  1  0  0  0  0
 16 19  1  0  0  0  0
 14 15  1  0  0  0  0
 14 16  1  0  0  0  0
 14 20  1  0  0  0  0
 11 12  1  0  0  0  0
 11 13  1  0  0  0  0
 11 14  1  0  0  0  0
  9 10  1  0  0  0  0
  9 11  1  0  0  0  0
  9 24  1  0  0  0  0
  7  8  1  0  0  0  0
  7  9  1  0  0  0  0
 28 29  1  0  0  0  0
 28 30  1  0  0  0  0
 28 31  1  0  0  0  0
 26 27  1  0  0  0  0
 26 28  1  0  0  0  0
M  END
$$$$
default_name
  -OEChem-02102213163D

 31 30  0     1  0  0  0  0  0999 V2000
   -3.5895   -3.5013    1.1082 H   0  0  0  0  0  0  0  0  0  0  0  0
   -3.5145   -2.5363    0.6082 C   0  0  0  0  0  0  0  0  0  0  0  0
   -4.2285   -1.8413    1.0452 H   0  0  0  0  0  0  0  0  0  0  0  0
   -3.7155   -2.6583   -0.4538 H   0  0  0  0  0  0  0  0  0  0  0  0
   -2.1155   -1.9963    0.7922 C   0  0  0  0  0  0  0  0  0  0  0  0
   -1.2875   -2.6383    1.4252 O   0  0  0  0  0  0  0  0  0  0  0  0
   -1.8575   -0.8123    0.2402 N   0  0  0  0  0  0  0  0  0  0  0  0
   -2.6005   -0.3333   -0.2478 H   0  0  0  0  0  0  0  0  0  0  0  0
   -0.5675   -0.1203    0.3102 C   0  0  1  0  0  0  0  0  0  0  0  0
    0.1932   -0.7715   -0.1219 H   0  0  0  0  0  0  0  0  0  0  0  0
   -0.6568    1.1713   -0.5294 C   0  0  0  0  0  0  0  0  0  0  0  0
   -1.3935    1.0222   -1.3212 H   0  0  0  0  0  0  0  0  0  0  0  0
   -1.0246    1.9700    0.1185 H   0  0  0  0  0  0  0  0  0  0  0  0
    0.6599    1.6441   -1.1726 C   0  0  0  0  0  0  0  0  0  0  0  0
    1.1714    2.3331   -0.5005 H   0  0  0  0  0  0  0  0  0  0  0  0
    1.5974    0.4776   -1.4978 C   0  0  0  0  0  0  0  0  0  0  0  0
    1.0934   -0.2298   -2.1578 H   0  0  0  0  0  0  0  0  0  0  0  0
    2.4922    0.8533   -1.9946 H   0  0  0  0  0  0  0  0  0  0  0  0
    1.8992   -0.0377   -0.5885 H   0  0  0  0  0  0  0  0  0  0  0  0
    0.3610    2.3873   -2.4741 C   0  0  0  0  0  0  0  0  0  0  0  0
   -0.2804    3.2441   -2.2681 H   0  0  0  0  0  0  0  0  0  0  0  0
    1.2896    2.7470   -2.9172 H   0  0  0  0  0  0  0  0  0  0  0  0
   -0.1407    1.7234   -3.1790 H   0  0  0  0  0  0  0  0  0  0  0  0
   -0.1913    0.1554    1.7759 C   0  0  0  0  0  0  0  0  0  0  0  0
    0.9476   -0.0766    2.1748 O   0  0  0  0  0  0  0  0  0  0  0  0
   -1.1502    0.6393    2.5760 N   0  0  0  0  0  0  0  0  0  0  0  0
   -2.0581    0.8092    2.1736 H   0  0  0  0  0  0  0  0  0  0  0  0
   -0.9568    0.9369    3.9933 C   0  0  0  0  0  0  0  0  0  0  0  0
   -0.1600    1.6750    4.1097 H   0  0  0  0  0  0  0  0  0  0  0  0
   -1.8775    1.3307    4.4266 H   0  0  0  0  0  0  0  0  0  0  0  0
   -0.6678    0.0287    4.5244 H   0  0  0  0  0  0  0  0  0  0  0  0
  5  6  2  0  0  0  0
  5  7  1  0  0  0  0
  2  3  1  0  0  0  0
  2  4  1  0  0  0  0
  2  5  1  0  0  0  0
  1  2  1  0  0  0  0
 24 25  2  0  0  0  0
 24 26  1  0  0  0  0
 20 21  1  0  0  0  0
 20 22  1  0  0  0  0
 20 23  1  0  0  0  0
 16 17  1  0  0  0  0
 16 18  1  0  0  0  0
 16 19  1  0  0  0  0
 14 15  1  0  0  0  0
 14 16  1  0  0  0  0
 14 20  1  0  0  0  0
 11 12  1  0  0  0  0
 11 13  1  0  0  0  0
 11 14  1  0  0  0  0
  9 10  1  0  0  0  0
  9 11  1  0  0  0  0
  9 24  1  0  0  0  0
  7  8  1  0  0  0  0
  7  9  1  0  0  0  0
 28 29  1  0  0  0  0
 28 30  1  0  0  0  0
 28 31  1  0  0  0  0
 26 27  1  0  0  0  0
 26 28  1  0  0  0  0
M  END
$$$$
default_name
  -OEChem-02102213163D

 31 30  0     1  0  0  0  0  0999 V2000
   -3.5895   -3.5013    1.1082 H   0  0  0  0  0  0  0  0  0  0  0  0
   -3.5145   -2.5363    0.6082 C   0  0  0  0  0  0  0  0  0  0  0  0
   -4.2285   -1.8413    1.0452 H   0  0  0  0  0  0  0  0  0  0  0  0
   -3.7155   -2.6583   -0.4538 H   0  0  0  0  0  0  0  0  0  0  0  0
   -2.1155   -1.9963    0.7922 C   0  0  0  0  0  0  0  0  0  0  0  0
   -1.2875   -2.6383    1.4252 O   0  0  0  0  0  0  0  0  0  0  0  0
   -1.8575   -0.8123    0.2402 N   0  0  0  0  0  0  0  0  0  0  0  0
   -2.6005   -0.3333   -0.2478 H   0  0  0  0  0  0  0  0  0  0  0  0
   -0.5675   -0.1203    0.3102 C   0  0  1  0  0  0  0  0  0  0  0  0
    0.1932   -0.7715   -0.1219 H   0  0  0  0  0  0  0  0  0  0  0  0
   -0.6568    1.1713   -0.5294 C   0  0  0  0  0  0  0  0  0  0  0  0
   -1.3935    1.0222   -1.3212 H   0  0  0  0  0  0  0  0  0  0  0  0
   -1.0246    1.9700    0.1185 H   0  0  0  0  0  0  0  0  0  0  0  0
    0.6599    1.6441   -1.1726 C   0  0  0  0  0  0  0  0  0  0  0  0
    1.2926    2.1094   -0.4168 H   0  0  0  0  0  0  0  0  0  0  0  0
    1.4303    0.4941   -1.8277 C   0  0  0  0  0  0  0  0  0  0  0  0
    0.8038    0.0074   -2.5763 H   0  0  0  0  0  0  0  0  0  0  0  0
    2.3275    0.8815   -2.3109 H   0  0  0  0  0  0  0  0  0  0  0  0
    1.7303   -0.2405   -1.0834 H   0  0  0  0  0  0  0  0  0  0  0  0
    0.3631    2.6877   -2.2489 C   0  0  0  0  0  0  0  0  0  0  0  0
   -0.1582    3.5352   -1.8040 H   0  0  0  0  0  0  0  0  0  0  0  0
    1.2955    3.0443   -2.6866 H   0  0  0  0  0  0  0  0  0  0  0  0
   -0.2591    2.2532   -3.0320 H   0  0  0  0  0  0  0  0  0  0  0  0
   -0.1913    0.1554    1.7759 C   0  0  0  0  0  0  0  0  0  0  0  0
    0.9476   -0.0766    2.1748 O   0  0  0  0  0  0  0  0  0  0  0  0
   -1.1502    0.6393    2.5760 N   0  0  0  0  0  0  0  0  0  0  0  0
   -2.0581    0.8092    2.1736 H   0  0  0  0  0  0  0  0  0  0  0  0
   -0.9568    0.9369    3.9933 C   0  0  0  0  0  0  0  0  0  0  0  0
   -0.1600    1.6750    4.1097 H   0  0  0  0  0  0  0  0  0  0  0  0
   -1.8775    1.3307    4.4266 H   0  0  0  0  0  0  0  0  0  0  0  0
   -0.6678    0.0287    4.5244 H   0  0  0  0  0  0  0  0  0  0  0  0
  5  6  2  0  0  0  0
  5  7  1  0  0  0  0
  2  3  1  0  0  0  0
  2  4  1  0  0  0  0
  2  5  1  0  0  0  0
  1  2  1  0  0  0  0
 24 25  2  0  0  0  0
 24 26  1  0  0  0  0
 20 21  1  0  0  0  0
 20 22  1  0  0  0  0
 20 23  1  0  0  0  0
 16 17  1  0  0  0  0
 16 18  1  0  0  0  0
 16 19  1  0  0  0  0
 14 15  1  0  0  0  0
 14 16  1  0  0  0  0
 14 20  1  0  0  0  0
 11 12  1  0  0  0  0
 11 13  1  0  0  0  0
 11 14  1  0  0  0  0
  9 10  1  0  0  0  0
  9 11  1  0  0  0  0
  9 24  1  0  0  0  0
  7  8  1  0  0  0  0
  7  9  1  0  0  0  0
 28 29  1  0  0  0  0
 28 30  1  0  0  0  0
 28 31  1  0  0  0  0
 26 27  1  0  0  0  0
 26 28  1  0  0  0  0
M  END
$$$$
default_name
  -OEChem-02102213163D

 31 30  0     1  0  0  0  0  0999 V2000
   -3.5895   -3.5013    1.1082 H   0  0  0  0  0  0  0  0  0  0  0  0
   -3.5145   -2.5363    0.6082 C   0  0  0  0  0  0  0  0  0  0  0  0
   -4.2285   -1.8413    1.0452 H   0  0  0  0  0  0  0  0  0  0  0  0
   -3.7155   -2.6583   -0.4538 H   0  0  0  0  0  0  0  0  0  0  0  0
   -2.1155   -1.9963    0.7922 C   0  0  0  0  0  0  0  0  0  0  0  0
   -1.2875   -2.6383    1.4252 O   0  0  0  0  0  0  0  0  0  0  0  0
   -1.8575   -0.8123    0.2402 N   0  0  0  0  0  0  0  0  0  0  0  0
   -2.6005   -0.3333   -0.2478 H   0  0  0  0  0  0  0  0  0  0  0  0
   -0.5675   -0.1203    0.3102 C   0  0  1  0  0  0  0  0  0  0  0  0
    0.1932   -0.7715   -0.1219 H   0  0  0  0  0  0  0  0  0  0  0  0
   -0.6568    1.1713   -0.5294 C   0  0  0  0  0  0  0  0  0  0  0  0
   -1.3935    1.0222   -1.3212 H   0  0  0  0  0  0  0  0  0  0  0  0
   -1.0246    1.9700    0.1185 H   0  0  0  0  0  0  0  0  0  0  0  0
    0.6599    1.6441   -1.1726 C   0  0  0  0  0  0  0  0  0  0  0  0
    1.3921    1.8617   -0.3950 H   0  0  0  0  0  0  0  0  0  0  0  0
    1.2446    0.6010   -2.1293 C   0  0  0  0  0  0  0  0  0  0  0  0
    0.5164    0.3604   -2.9051 H   0  0  0  0  0  0  0  0  0  0  0  0
    2.1464    0.9965   -2.5972 H   0  0  0  0  0  0  0  0  0  0  0  0
    1.5059   -0.3086   -1.5929 H   0  0  0  0  0  0  0  0  0  0  0  0
    0.4156    2.9278   -1.9650 C   0  0  0  0  0  0  0  0  0  0  0  0
    0.0282    3.7005   -1.3010 H   0  0  0  0  0  0  0  0  0  0  0  0
    1.3517    3.2797   -2.3985 H   0  0  0  0  0  0  0  0  0  0  0  0
   -0.3045    2.7451   -2.7634 H   0  0  0  0  0  0  0  0  0  0  0  0
   -0.1913    0.1554    1.7759 C   0  0  0  0  0  0  0  0  0  0  0  0
    0.9476   -0.0766    2.1748 O   0  0  0  0  0  0  0  0  0  0  0  0
   -1.1502    0.6393    2.5760 N   0  0  0  0  0  0  0  0  0  0  0  0
   -2.0581    0.8092    2.1736 H   0  0  0  0  0  0  0  0  0  0  0  0
   -0.9568    0.9369    3.9933 C   0  0  0  0  0  0  0  0  0  0  0  0
   -0.1600    1.6750    4.1097 H   0  0  0  0  0  0  0  0  0  0  0  0
   -1.8775    1.3307    4.4266 H   0  0  0  0  0  0  0  0  0  0  0  0
   -0.6678    0.0287    4.5244 H   0  0  0  0  0  0  0  0  0  0  0  0
  5  6  2  0  0  0  0
  5  7  1  0  0  0  0
  2  3  1  0  0  0  0
  2  4  1  0  0  0  0
  2  5  1  0  0  0  0
  1  2  1  0  0  0  0
 24 25  2  0  0  0  0
 24 26  1  0  0  0  0
 20 21  1  0  0  0  0
 20 22  1  0  0  0  0
 20 23  1  0  0  0  0
 16 17  1  0  0  0  0
 16 18  1  0  0  0  0
 16 19  1  0  0  0  0
 14 15  1  0  0  0  0
 14 16  1  0  0  0  0
 14 20  1  0  0  0  0
 11 12  1  0  0  0  0
 11 13  1  0  0  0  0
 11 14  1  0  0  0  0
  9 10  1  0  0  0  0
  9 11  1  0  0  0  0
  9 24  1  0  0  0  0
  7  8  1  0  0  0  0
  7  9  1  0  0  0  0
 28 29  1  0  0  0  0
 28 30  1  0  0  0  0
 28 31  1  0  0  0  0
 26 27  1  0  0  0  0
 26 28  1  0  0  0  0
M  END
$$$$
default_name
  -OEChem-02102213163D

 31 30  0     1  0  0  0  0  0999 V2000
   -3.5895   -3.5013    1.1082 H   0  0  0  0  0  0  0  0  0  0  0  0
   -3.5145   -2.5363    0.6082 C   0  0  0  0  0  0  0  0  0  0  0  0
   -4.2285   -1.8413    1.0452 H   0  0  0  0  0  0  0  0  0  0  0  0
   -3.7155   -2.6583   -0.4538 H   0  0  0  0  0  0  0  0  0  0  0  0
   -2.1155   -1.9963    0.7922 C   0  0  0  0  0  0  0  0  0  0  0  0
   -1.2875   -2.6383    1.4252 O   0  0  0  0  0  0  0  0  0  0  0  0
   -1.8575   -0.8123    0.2402 N   0  0  0  0  0  0  0  0  0  0  0  0
   -2.6005   -0.3333   -0.2478 H   0  0  0  0  0  0  0  0  0  0  0  0
   -0.5675   -0.1203    0.3102 C   0  0  1  0  0  0  0  0  0  0  0  0
    0.1932   -0.7715   -0.1219 H   0  0  0  0  0  0  0  0  0  0  0  0
   -0.6568    1.1713   -0.5294 C   0  0  0  0  0  0  0  0  0  0  0  0
   -1.3935    1.0222   -1.3212 H   0  0  0  0  0  0  0  0  0  0  0  0
   -1.0246    1.9700    0.1185 H   0  0  0  0  0  0  0  0  0  0  0  0
    0.6599    1.6441   -1.1726 C   0  0  0  0  0  0  0  0  0  0  0  0
    1.4632    1.6069   -0.4368 H   0  0  0  0  0  0  0  0  0  0  0  0
    1.0527    0.7911   -2.3823 C   0  0  0  0  0  0  0  0  0  0  0  0
    0.2508    0.8053   -3.1217 H   0  0  0  0  0  0  0  0  0  0  0  0
    1.9611    1.1906   -2.8338 H   0  0  0  0  0  0  0  0  0  0  0  0
    1.2412   -0.2374   -2.0822 H   0  0  0  0  0  0  0  0  0  0  0  0
    0.5148    3.0912   -1.6418 C   0  0  0  0  0  0  0  0  0  0  0  0
    0.2660    3.7286   -0.7934 H   0  0  0  0  0  0  0  0  0  0  0  0
    1.4543    3.4373   -2.0726 H   0  0  0  0  0  0  0  0  0  0  0  0
   -0.2739    3.1658   -2.3914 H   0  0  0  0  0  0  0  0  0  0  0  0
   -0.1913    0.1554    1.7759 C   0  0  0  0  0  0  0  0  0  0  0  0
    0.9476   -0.0766    2.1748 O   0  0  0  0  0  0  0  0  0  0  0  0
   -1.1502    0.6393    2.5760 N   0  0  0  0  0  0  0  0  0  0  0  0
   -2.0581    0.8092    2.1736 H   0  0  0  0  0  0  0  0  0  0  0  0
   -0.9568    0.9369    3.9933 C   0  0  0  0  0  0  0  0  0  0  0  0
   -0.1600    1.6750    4.1097 H   0  0  0  0  0  0  0  0  0  0  0  0
   -1.8775    1.3307    4.4266 H   0  0  0  0  0  0  0  0  0  0  0  0
   -0.6678    0.0287    4.5244 H   0  0  0  0  0  0  0  0  0  0  0  0
  5  6  2  0  0  0  0
  5  7  1  0  0  0  0
  2  3  1  0  0  0  0
  2  4  1  0  0  0  0
  2  5  1  0  0  0  0
  1  2  1  0  0  0  0
 24 25  2  0  0  0  0
 24 26  1  0  0  0  0
 20 21  1  0  0  0  0
 20 22  1  0  0  0  0
 20 23  1  0  0  0  0
 16 17  1  0  0  0  0
 16 18  1  0  0  0  0
 16 19  1  0  0  0  0
 14 15  1  0  0  0  0
 14 16  1  0  0  0  0
 14 20  1  0  0  0  0
 11 12  1  0  0  0  0
 11 13  1  0  0  0  0
 11 14  1  0  0  0  0
  9 10  1  0  0  0  0
  9 11  1  0  0  0  0
  9 24  1  0  0  0  0
  7  8  1  0  0  0  0
  7  9  1  0  0  0  0
 28 29  1  0  0  0  0
 28 30  1  0  0  0  0
 28 31  1  0  0  0  0
 26 27  1  0  0  0  0
 26 28  1  0  0  0  0
M  END
$$$$
default_name
  -OEChem-02102213163D

 31 30  0     1  0  0  0  0  0999 V2000
   -3.5895   -3.5013    1.1082 H   0  0  0  0  0  0  0  0  0  0  0  0
   -3.5145   -2.5363    0.6082 C   0  0  0  0  0  0  0  0  0  0  0  0
   -4.2285   -1.8413    1.0452 H   0  0  0  0  0  0  0  0  0  0  0  0
   -3.7155   -2.6583   -0.4538 H   0  0  0  0  0  0  0  0  0  0  0  0
   -2.1155   -1.9963    0.7922 C   0  0  0  0  0  0  0  0  0  0  0  0
   -1.2875   -2.6383    1.4252 O   0  0  0  0  0  0  0  0  0  0  0  0
   -1.8575   -0.8123    0.2402 N   0  0  0  0  0  0  0  0  0  0  0  0
   -2.6005   -0.3333   -0.2478 H   0  0  0  0  0  0  0  0  0  0  0  0
   -0.5675   -0.1203    0.3102 C   0  0  1  0  0  0  0  0  0  0  0  0
    0.1932   -0.7715   -0.1219 H   0  0  0  0  0  0  0  0  0  0  0  0
   -0.6568    1.1713   -0.5294 C   0  0  0  0  0  0  0  0  0  0  0  0
   -1.3935    1.0222   -1.3212 H   0  0  0  0  0  0  0  0  0  0  0  0
   -1.0246    1.9700    0.1185 H   0  0  0  0  0  0  0  0  0  0  0  0
    0.6599    1.6441   -1.1726 C   0  0  0  0  0  0  0  0  0  0  0  0
    1.5010    1.3623   -0.5392 H   0  0  0  0  0  0  0  0  0  0  0  0
    0.8678    1.0515   -2.5693 C   0  0  0  0  0  0  0  0  0  0  0  0
    0.0252    1.3116   -3.2114 H   0  0  0  0  0  0  0  0  0  0  0  0
    1.7843    1.4505   -3.0047 H   0  0  0  0  0  0  0  0  0  0  0  0
    0.9544   -0.0317   -2.5181 H   0  0  0  0  0  0  0  0  0  0  0  0
    0.6539    3.1669   -1.3014 C   0  0  0  0  0  0  0  0  0  0  0  0
    0.5392    3.6177   -0.3157 H   0  0  0  0  0  0  0  0  0  0  0  0
    1.5964    3.5063   -1.7311 H   0  0  0  0  0  0  0  0  0  0  0  0
   -0.1692    3.4865   -1.9414 H   0  0  0  0  0  0  0  0  0  0  0  0
   -0.1913    0.1554    1.7759 C   0  0  0  0  0  0  0  0  0  0  0  0
    0.9476   -0.0766    2.1748 O   0  0  0  0  0  0  0  0  0  0  0  0
   -1.1502    0.6393    2.5760 N   0  0  0  0  0  0  0  0  0  0  0  0
   -2.0581    0.8092    2.1736 H   0  0  0  0  0  0  0  0  0  0  0  0
   -0.9568    0.9369    3.9933 C   0  0  0  0  0  0  0  0  0  0  0  0
   -0.1600    1.6750    4.1097 H   0  0  0  0  0  0  0  0  0  0  0  0
   -1.8775    1.3307    4.4266 H   0  0  0  0  0  0  0  0  0  0  0  0
   -0.6678    0.0287    4.5244 H   0  0  0  0  0  0  0  0  0  0  0  0
  5  6  2  0  0  0  0
  5  7  1  0  0  0  0
  2  3  1  0  0  0  0
  2  4  1  0  0  0  0
  2  5  1  0  0  0  0
  1  2  1  0  0  0  0
 24 25  2  0  0  0  0
 24 26  1  0  0  0  0
 20 21  1  0  0  0  0
 20 22  1  0  0  0  0
 20 23  1  0  0  0  0
 16 17  1  0  0  0  0
 16 18  1  0  0  0  0
 16 19  1  0  0  0  0
 14 15  1  0  0  0  0
 14 16  1  0  0  0  0
 14 20  1  0  0  0  0
 11 12  1  0  0  0  0
 11 13  1  0  0  0  0
 11 14  1  0  0  0  0
  9 10  1  0  0  0  0
  9 11  1  0  0  0  0
  9 24  1  0  0  0  0
  7  8  1  0  0  0  0
  7  9  1  0  0  0  0
 28 29  1  0  0  0  0
 28 30  1  0  0  0  0
 28 31  1  0  0  0  0
 26 27  1  0  0  0  0
 26 28  1  0  0  0  0
M  END
$$$$
default_name
  -OEChem-02102213163D

 31 30  0     1  0  0  0  0  0999 V2000
   -3.5895   -3.5013    1.1082 H   0  0  0  0  0  0  0  0  0  0  0  0
   -3.5145   -2.5363    0.6082 C   0  0  0  0  0  0  0  0  0  0  0  0
   -4.2285   -1.8413    1.0452 H   0  0  0  0  0  0  0  0  0  0  0  0
   -3.7155   -2.6583   -0.4538 H   0  0  0  0  0  0  0  0  0  0  0  0
   -2.1155   -1.9963    0.7922 C   0  0  0  0  0  0  0  0  0  0  0  0
   -1.2875   -2.6383    1.4252 O   0  0  0  0  0  0  0  0  0  0  0  0
   -1.8575   -0.8123    0.2402 N   0  0  0  0  0  0  0  0  0  0  0  0
   -2.6005   -0.3333   -0.2478 H   0  0  0  0  0  0  0  0  0  0  0  0
   -0.5675   -0.1203    0.3102 C   0  0  1  0  0  0  0  0  0  0  0  0
    0.1932   -0.7715   -0.1219 H   0  0  0  0  0  0  0  0  0  0  0  0
   -0.6568    1.1713   -0.5294 C   0  0  0  0  0  0  0  0  0  0  0  0
   -1.3935    1.0222   -1.3212 H   0  0  0  0  0  0  0  0  0  0  0  0
   -1.0246    1.9700    0.1185 H   0  0  0  0  0  0  0  0  0  0  0  0
    0.6599    1.6441   -1.1726 C   0  0  0  0  0  0  0  0  0  0  0  0
    1.5030    1.1446   -0.6952 H   0  0  0  0  0  0  0  0  0  0  0  0
    0.7026    1.3644   -2.6777 C   0  0  0  0  0  0  0  0  0  0  0  0
   -0.1451    1.8449   -3.1680 H   0  0  0  0  0  0  0  0  0  0  0  0
    1.6280    1.7585   -3.0983 H   0  0  0  0  0  0  0  0  0  0  0  0
    0.6650    0.2945   -2.8708 H   0  0  0  0  0  0  0  0  0  0  0  0
    0.8236    3.1495   -0.9668 C   0  0  0  0  0  0  0  0  0  0  0  0
    0.8290    3.3754    0.0994 H   0  0  0  0  0  0  0  0  0  0  0  0
    1.7682    3.4820   -1.3972 H   0  0  0  0  0  0  0  0  0  0  0  0
    0.0023    3.6854   -1.4441 H   0  0  0  0  0  0  0  0  0  0  0  0
   -0.1913    0.1554    1.7759 C   0  0  0  0  0  0  0  0  0  0  0  0
    0.9476   -0.0766    2.1748 O   0  0  0  0  0  0  0  0  0  0  0  0
   -1.1502    0.6393    2.5760 N   0  0  0  0  0  0  0  0  0  0  0  0
   -2.0581    0.8092    2.1736 H   0  0  0  0  0  0  0  0  0  0  0  0
   -0.9568    0.9369    3.9933 C   0  0  0  0  0  0  0  0  0  0  0  0
   -0.1600    1.6750    4.1097 H   0  0  0  0  0  0  0  0  0  0  0  0
   -1.8775    1.3307    4.4266 H   0  0  0  0  0  0  0  0  0  0  0  0
   -0.6678    0.0287    4.5244 H   0  0  0  0  0  0  0  0  0  0  0  0
  5  6  2  0  0  0  0
  5  7  1  0  0  0  0
  2  3  1  0  0  0  0
  2  4  1  0  0  0  0
  2  5  1  0  0  0  0
  1  2  1  0  0  0  0
 24 25  2  0  0  0  0
 24 26  1  0  0  0  0
 20 21  1  0  0  0  0
 20 22  1  0  0  0  0
 20 23  1  0  0  0  0
 16 17  1  0  0  0  0
 16 18  1  0  0  0  0
 16 19  1  0  0  0  0
 14 15  1  0  0  0  0
 14 16  1  0  0  0  0
 14 20  1  0  0  0  0
 11 12  1  0  0  0  0
 11 13  1  0  0  0  0
 11 14  1  0  0  0  0
  9 10  1  0  0  0  0
  9 11  1  0  0  0  0
  9 24  1  0  0  0  0
  7  8  1  0  0  0  0
  7  9  1  0  0  0  0
 28 29  1  0  0  0  0
 28 30  1  0  0  0  0
 28 31  1  0  0  0  0
 26 27  1  0  0  0  0
 26 28  1  0  0  0  0
M  END
$$$$
default_name
  -OEChem-02102213163D

 31 30  0     1  0  0  0  0  0999 V2000
   -3.5895   -3.5013    1.1082 H   0  0  0  0  0  0  0  0  0  0  0  0
   -3.5145   -2.5363    0.6082 C   0  0  0  0  0  0  0  0  0  0  0  0
   -4.2285   -1.8413    1.0452 H   0  0  0  0  0  0  0  0  0  0  0  0
   -3.7155   -2.6583   -0.4538 H   0  0  0  0  0  0  0  0  0  0  0  0
   -2.1155   -1.9963    0.7922 C   0  0  0  0  0  0  0  0  0  0  0  0
   -1.2875   -2.6383    1.4252 O   0  0  0  0  0  0  0  0  0  0  0  0
   -1.8575   -0.8123    0.2402 N   0  0  0  0  0  0  0  0  0  0  0  0
   -2.6005   -0.3333   -0.2478 H   0  0  0  0  0  0  0  0  0  0  0  0
   -0.5675   -0.1203    0.3102 C   0  0  1  0  0  0  0  0  0  0  0  0
    0.1932   -0.7715   -0.1219 H   0  0  0  0  0  0  0  0  0  0  0  0
   -0.6568    1.1713   -0.5294 C   0  0  0  0  0  0  0  0  0  0  0  0
   -1.3935    1.0222   -1.3212 H   0  0  0  0  0  0  0  0  0  0  0  0
   -1.0246    1.9700    0.1185 H   0  0  0  0  0  0  0  0  0  0  0  0
    0.6599    1.6441   -1.1726 C   0  0  0  0  0  0  0  0  0  0  0  0
    1.4689    0.9687   -0.8943 H   0  0  0  0  0  0  0  0  0  0  0  0
    0.5681    1.7085   -2.6999 C   0  0  0  0  0  0  0  0  0  0  0  0
   -0.2485    2.3689   -2.9945 H   0  0  0  0  0  0  0  0  0  0  0  0
    1.5029    2.0935   -3.1080 H   0  0  0  0  0  0  0  0  0  0  0  0
    0.3927    0.7189   -3.1163 H   0  0  0  0  0  0  0  0  0  0  0  0
    1.0122    3.0404   -0.6610 C   0  0  0  0  0  0  0  0  0  0  0  0
    1.1157    3.0181    0.4238 H   0  0  0  0  0  0  0  0  0  0  0  0
    1.9581    3.3660   -1.0937 H   0  0  0  0  0  0  0  0  0  0  0  0
    0.2291    3.7489   -0.9333 H   0  0  0  0  0  0  0  0  0  0  0  0
   -0.1913    0.1554    1.7759 C   0  0  0  0  0  0  0  0  0  0  0  0
    0.9476   -0.0766    2.1748 O   0  0  0  0  0  0  0  0  0  0  0  0
   -1.1502    0.6393    2.5760 N   0  0  0  0  0  0  0  0  0  0  0  0
   -2.0581    0.8092    2.1736 H   0  0  0  0  0  0  0  0  0  0  0  0
   -0.9568    0.9369    3.9933 C   0  0  0  0  0  0  0  0  0  0  0  0
   -0.1600    1.6750    4.1097 H   0  0  0  0  0  0  0  0  0  0  0  0
   -1.8775    1.3307    4.4266 H   0  0  0  0  0  0  0  0  0  0  0  0
   -0.6678    0.0287    4.5244 H   0  0  0  0  0  0  0  0  0  0  0  0
  5  6  2  0  0  0  0
  5  7  1  0  0  0  0
  2  3  1  0  0  0  0
  2  4  1  0  0  0  0
  2  5  1  0  0  0  0
  1  2  1  0  0  0  0
 24 25  2  0  0  0  0
 24 26  1  0  0  0  0
 20 21  1  0  0  0  0
 20 22  1  0  0  0  0
 20 23  1  0  0  0  0
 16 17  1  0  0  0  0
 16 18  1  0  0  0  0
 16 19  1  0  0  0  0
 14 15  1  0  0  0  0
 14 16  1  0  0  0  0
 14 20  1  0  0  0  0
 11 12  1  0  0  0  0
 11 13  1  0  0  0  0
 11 14  1  0  0  0  0
  9 10  1  0  0  0  0
  9 11  1  0  0  0  0
  9 24  1  0  0  0  0
  7  8  1  0  0  0  0
  7  9  1  0  0  0  0
 28 29  1  0  0  0  0
 28 30  1  0  0  0  0
 28 31  1  0  0  0  0
 26 27  1  0  0  0  0
 26 28  1  0  0  0  0
M  END
$$$$
default_name
  -OEChem-02102213163D

 31 30  0     1  0  0  0  0  0999 V2000
   -3.5895   -3.5013    1.1082 H   0  0  0  0  0  0  0  0  0  0  0  0
   -3.5145   -2.5363    0.6082 C   0  0  0  0  0  0  0  0  0  0  0  0
   -4.2285   -1.8413    1.0452 H   0  0  0  0  0  0  0  0  0  0  0  0
   -3.7155   -2.6583   -0.4538 H   0  0  0  0  0  0  0  0  0  0  0  0
   -2.1155   -1.9963    0.7922 C   0  0  0  0  0  0  0  0  0  0  0  0
   -1.2875   -2.6383    1.4252 O   0  0  0  0  0  0  0  0  0  0  0  0
   -1.8575   -0.8123    0.2402 N   0  0  0  0  0  0  0  0  0  0  0  0
   -2.6005   -0.3333   -0.2478 H   0  0  0  0  0  0  0  0  0  0  0  0
   -0.5675   -0.1203    0.3102 C   0  0  1  0  0  0  0  0  0  0  0  0
    0.1932   -0.7715   -0.1219 H   0  0  0  0  0  0  0  0  0  0  0  0
   -0.6568    1.1713   -0.5294 C   0  0  0  0  0  0  0  0  0  0  0  0
   -1.3935    1.0222   -1.3212 H   0  0  0  0  0  0  0  0  0  0  0  0
   -1.0246    1.9700    0.1185 H   0  0  0  0  0  0  0  0  0  0  0  0
    0.6599    1.6441   -1.1726 C   0  0  0  0  0  0  0  0  0  0  0  0
    1.4012    0.8465   -1.1228 H   0  0  0  0  0  0  0  0  0  0  0  0
    0.4737    2.0603   -2.6346 C   0  0  0  0  0  0  0  0  0  0  0  0
   -0.2780    2.8478   -2.7028 H   0  0  0  0  0  0  0  0  0  0  0  0
    1.4176    2.4329   -3.0333 H   0  0  0  0  0  0  0  0  0  0  0  0
    0.1560    1.2126   -3.2379 H   0  0  0  0  0  0  0  0  0  0  0  0
    1.2068    2.8469   -0.4048 C   0  0  0  0  0  0  0  0  0  0  0  0
    1.3799    2.5702    0.6352 H   0  0  0  0  0  0  0  0  0  0  0  0
    2.1531    3.1663   -0.8413 H   0  0  0  0  0  0  0  0  0  0  0  0
    0.4955    3.6726   -0.4440 H   0  0  0  0  0  0  0  0  0  0  0  0
   -0.1913    0.1554    1.7759 C   0  0  0  0  0  0  0  0  0  0  0  0
    0.9476   -0.0766    2.1748 O   0  0  0  0  0  0  0  0  0  0  0  0
   -1.1502    0.6393    2.5760 N   0  0  0  0  0  0  0  0  0  0  0  0
   -2.0581    0.8092    2.1736 H   0  0  0  0  0  0  0  0  0  0  0  0
   -0.9568    0.9369    3.9933 C   0  0  0  0  0  0  0  0  0  0  0  0
   -0.1600    1.6750    4.1097 H   0  0  0  0  0  0  0  0  0  0  0  0
   -1.8775    1.3307    4.4266 H   0  0  0  0  0  0  0  0  0  0  0  0
   -0.6678    0.0287    4.5244 H   0  0  0  0  0  0  0  0  0  0  0  0
  5  6  2  0  0  0  0
  5  7  1  0  0  0  0
  2  3  1  0  0  0  0
  2  4  1  0  0  0  0
  2  5  1  0  0  0  0
  1  2  1  0  0  0  0
 24 25  2  0  0  0  0
 24 26  1  0  0  0  0
 20 21  1  0  0  0  0
 20 22  1  0  0  0  0
 20 23  1  0  0  0  0
 16 17  1  0  0  0  0
 16 18  1  0  0  0  0
 16 19  1  0  0  0  0
 14 15  1  0  0  0  0
 14 16  1  0  0  0  0
 14 20  1  0  0  0  0
 11 12  1  0  0  0  0
 11 13  1  0  0  0  0
 11 14  1  0  0  0  0
  9 10  1  0  0  0  0
  9 11  1  0  0  0  0
  9 24  1  0  0  0  0
  7  8  1  0  0  0  0
  7  9  1  0  0  0  0
 28 29  1  0  0  0  0
 28 30  1  0  0  0  0
 28 31  1  0  0  0  0
 26 27  1  0  0  0  0
 26 28  1  0  0  0  0
M  END
$$$$
default_name
  -OEChem-02102213163D

 31 30  0     1  0  0  0  0  0999 V2000
   -3.5895   -3.5013    1.1082 H   0  0  0  0  0  0  0  0  0  0  0  0
   -3.5145   -2.5363    0.6082 C   0  0  0  0  0  0  0  0  0  0  0  0
   -4.2285   -1.8413    1.0452 H   0  0  0  0  0  0  0  0  0  0  0  0
   -3.7155   -2.6583   -0.4538 H   0  0  0  0  0  0  0  0  0  0  0  0
   -2.1155   -1.9963    0.7922 C   0  0  0  0  0  0  0  0  0  0  0  0
   -1.2875   -2.6383    1.4252 O   0  0  0  0  0  0  0  0  0  0  0  0
   -1.8575   -0.8123    0.2402 N   0  0  0  0  0  0  0  0  0  0  0  0
   -2.6005   -0.3333   -0.2478 H   0  0  0  0  0  0  0  0  0  0  0  0
   -0.5675   -0.1203    0.3102 C   0  0  1  0  0  0  0  0  0  0  0  0
    0.1932   -0.7715   -0.1219 H   0  0  0  0  0  0  0  0  0  0  0  0
   -0.6568    1.1713   -0.5294 C   0  0  0  0  0  0  0  0  0  0  0  0
   -1.3935    1.0222   -1.3212 H   0  0  0  0  0  0  0  0  0  0  0  0
   -1.0246    1.9700    0.1185 H   0  0  0  0  0  0  0  0  0  0  0  0
    0.6599    1.6441   -1.1726 C   0  0  0  0  0  0  0  0  0  0  0  0
    1.3044    0.7864   -1.3652 H   0  0  0  0  0  0  0  0  0  0  0  0
    0.4257    2.3958   -2.4861 C   0  0  0  0  0  0  0  0  0  0  0  0
   -0.2315    3.2490   -2.3126 H   0  0  0  0  0  0  0  0  0  0  0  0
    1.3777    2.7533   -2.8793 H   0  0  0  0  0  0  0  0  0  0  0  0
   -0.0289    1.7420   -3.2272 H   0  0  0  0  0  0  0  0  0  0  0  0
    1.3943    2.5822   -0.2156 C   0  0  0  0  0  0  0  0  0  0  0  0
    1.6033    2.0622    0.7193 H   0  0  0  0  0  0  0  0  0  0  0  0
    2.3399    2.8965   -0.6573 H   0  0  0  0  0  0  0  0  0  0  0  0
    0.7835    3.4619   -0.0093 H   0  0  0  0  0  0  0  0  0  0  0  0
   -0.1913    0.1554    1.7759 C   0  0  0  0  0  0  0  0  0  0  0  0
    0.9476   -0.0766    2.1748 O   0  0  0  0  0  0  0  0  0  0  0  0
   -1.1502    0.6393    2.5760 N   0  0  0  0  0  0  0  0  0  0  0  0
   -2.0581    0.8092    2.1736 H   0  0  0  0  0  0  0  0  0  0  0  0
   -0.9568    0.9369    3.9933 C   0  0  0  0  0  0  0  0  0  0  0  0
   -0.1600    1.6750    4.1097 H   0  0  0  0  0  0  0  0  0  0  0  0
   -1.8775    1.3307    4.4266 H   0  0  0  0  0  0  0  0  0  0  0  0
   -0.6678    0.0287    4.5244 H   0  0  0  0  0  0  0  0  0  0  0  0
  5  6  2  0  0  0  0
  5  7  1  0  0  0  0
  2  3  1  0  0  0  0
  2  4  1  0  0  0  0
  2  5  1  0  0  0  0
  1  2  1  0  0  0  0
 24 25  2  0  0  0  0
 24 26  1  0  0  0  0
 20 21  1  0  0  0  0
 20 22  1  0  0  0  0
 20 23  1  0  0  0  0
 16 17  1  0  0  0  0
 16 18  1  0  0  0  0
 16 19  1  0  0  0  0
 14 15  1  0  0  0  0
 14 16  1  0  0  0  0
 14 20  1  0  0  0  0
 11 12  1  0  0  0  0
 11 13  1  0  0  0  0
 11 14  1  0  0  0  0
  9 10  1  0  0  0  0
  9 11  1  0  0  0  0
  9 24  1  0  0  0  0
  7  8  1  0  0  0  0
  7  9  1  0  0  0  0
 28 29  1  0  0  0  0
 28 30  1  0  0  0  0
 28 31  1  0  0  0  0
 26 27  1  0  0  0  0
 26 28  1  0  0  0  0
M  END
$$$$
default_name
  -OEChem-02102213163D

 31 30  0     1  0  0  0  0  0999 V2000
   -3.5895   -3.5013    1.1082 H   0  0  0  0  0  0  0  0  0  0  0  0
   -3.5145   -2.5363    0.6082 C   0  0  0  0  0  0  0  0  0  0  0  0
   -4.2285   -1.8413    1.0452 H   0  0  0  0  0  0  0  0  0  0  0  0
   -3.7155   -2.6583   -0.4538 H   0  0  0  0  0  0  0  0  0  0  0  0
   -2.1155   -1.9963    0.7922 C   0  0  0  0  0  0  0  0  0  0  0  0
   -1.2875   -2.6383    1.4252 O   0  0  0  0  0  0  0  0  0  0  0  0
   -1.8575   -0.8123    0.2402 N   0  0  0  0  0  0  0  0  0  0  0  0
   -2.6005   -0.3333   -0.2478 H   0  0  0  0  0  0  0  0  0  0  0  0
   -0.5675   -0.1203    0.3102 C   0  0  1  0  0  0  0  0  0  0  0  0
    0.1932   -0.7715   -0.1219 H   0  0  0  0  0  0  0  0  0  0  0  0
   -0.6568    1.1713   -0.5294 C   0  0  0  0  0  0  0  0  0  0  0  0
   -1.3935    1.0222   -1.3212 H   0  0  0  0  0  0  0  0  0  0  0  0
   -1.0246    1.9700    0.1185 H   0  0  0  0  0  0  0  0  0  0  0  0
    0.6599    1.6441   -1.1726 C   0  0  0  0  0  0  0  0  0  0  0  0
    1.1851    0.7924   -1.6049 H   0  0  0  0  0  0  0  0  0  0  0  0
    0.4275    2.6923   -2.2646 C   0  0  0  0  0  0  0  0  0  0  0  0
   -0.1122    3.5452   -1.8507 H   0  0  0  0  0  0  0  0  0  0  0  0
    1.3861    3.0331   -2.6564 H   0  0  0  0  0  0  0  0  0  0  0  0
   -0.1494    2.2710   -3.0851 H   0  0  0  0  0  0  0  0  0  0  0  0
    1.5618    2.2645   -0.1063 C   0  0  0  0  0  0  0  0  0  0  0  0
    1.7710    1.5288    0.6703 H   0  0  0  0  0  0  0  0  0  0  0  0
    2.5058    2.5749   -0.5540 H   0  0  0  0  0  0  0  0  0  0  0  0
    1.0735    3.1310    0.3410 H   0  0  0  0  0  0  0  0  0  0  0  0
   -0.1913    0.1554    1.7759 C   0  0  0  0  0  0  0  0  0  0  0  0
    0.9476   -0.0766    2.1748 O   0  0  0  0  0  0  0  0  0  0  0  0
   -1.1502    0.6393    2.5760 N   0  0  0  0  0  0  0  0  0  0  0  0
   -2.0581    0.8092    2.1736 H   0  0  0  0  0  0  0  0  0  0  0  0
   -0.9568    0.9369    3.9933 C   0  0  0  0  0  0  0  0  0  0  0  0
   -0.1600    1.6750    4.1097 H   0  0  0  0  0  0  0  0  0  0  0  0
   -1.8775    1.3307    4.4266 H   0  0  0  0  0  0  0  0  0  0  0  0
   -0.6678    0.0287    4.5244 H   0  0  0  0  0  0  0  0  0  0  0  0
  5  6  2  0  0  0  0
  5  7  1  0  0  0  0
  2  3  1  0  0  0  0
  2  4  1  0  0  0  0
  2  5  1  0  0  0  0
  1  2  1  0  0  0  0
 24 25  2  0  0  0  0
 24 26  1  0  0  0  0
 20 21  1  0  0  0  0
 20 22  1  0  0  0  0
 20 23  1  0  0  0  0
 16 17  1  0  0  0  0
 16 18  1  0  0  0  0
 16 19  1  0  0  0  0
 14 15  1  0  0  0  0
 14 16  1  0  0  0  0
 14 20  1  0  0  0  0
 11 12  1  0  0  0  0
 11 13  1  0  0  0  0
 11 14  1  0  0  0  0
  9 10  1  0  0  0  0
  9 11  1  0  0  0  0
  9 24  1  0  0  0  0
  7  8  1  0  0  0  0
  7  9  1  0  0  0  0
 28 29  1  0  0  0  0
 28 30  1  0  0  0  0
 28 31  1  0  0  0  0
 26 27  1  0  0  0  0
 26 28  1  0  0  0  0
M  END
$$$$
default_name
  -OEChem-02102213163D

 31 30  0     1  0  0  0  0  0999 V2000
   -3.5895   -3.5013    1.1082 H   0  0  0  0  0  0  0  0  0  0  0  0
   -3.5145   -2.5363    0.6082 C   0  0  0  0  0  0  0  0  0  0  0  0
   -4.2285   -1.8413    1.0452 H   0  0  0  0  0  0  0  0  0  0  0  0
   -3.7155   -2.6583   -0.4538 H   0  0  0  0  0  0  0  0  0  0  0  0
   -2.1155   -1.9963    0.7922 C   0  0  0  0  0  0  0  0  0  0  0  0
   -1.2875   -2.6383    1.4252 O   0  0  0  0  0  0  0  0  0  0  0  0
   -1.8575   -0.8123    0.2402 N   0  0  0  0  0  0  0  0  0  0  0  0
   -2.6005   -0.3333   -0.2478 H   0  0  0  0  0  0  0  0  0  0  0  0
   -0.5675   -0.1203    0.3102 C   0  0  1  0  0  0  0  0  0  0  0  0
    0.1932   -0.7715   -0.1219 H   0  0  0  0  0  0  0  0  0  0  0  0
   -0.6568    1.1713   -0.5294 C   0  0  0  0  0  0  0  0  0  0  0  0
   -1.5616    1.1291   -1.1388 H   0  0  0  0  0  0  0  0  0  0  0  0
   -0.7599    2.0139    0.1579 H   0  0  0  0  0  0  0  0  0  0  0  0
    0.5410    1.4520   -1.4554 C   0  0  0  0  0  0  0  0  0  0  0  0
    0.6685    0.6246   -2.1534 H   0  0  0  0  0  0  0  0  0  0  0  0
    0.3680    2.7505   -2.2487 C   0  0  0  0  0  0  0  0  0  0  0  0
    0.2229    3.5868   -1.5635 H   0  0  0  0  0  0  0  0  0  0  0  0
    1.2578    2.9338   -2.8515 H   0  0  0  0  0  0  0  0  0  0  0  0
   -0.4903    2.6830   -2.9137 H   0  0  0  0  0  0  0  0  0  0  0  0
    1.8184    1.5719   -0.6253 C   0  0  0  0  0  0  0  0  0  0  0  0
    1.9848    0.6472   -0.0728 H   0  0  0  0  0  0  0  0  0  0  0  0
    2.6720    1.7432   -1.2811 H   0  0  0  0  0  0  0  0  0  0  0  0
    1.7329    2.4009    0.0781 H   0  0  0  0  0  0  0  0  0  0  0  0
   -0.1913    0.1554    1.7759 C   0  0  0  0  0  0  0  0  0  0  0  0
    0.9476   -0.0766    2.1748 O   0  0  0  0  0  0  0  0  0  0  0  0
   -1.1502    0.6393    2.5760 N   0  0  0  0  0  0  0  0  0  0  0  0
   -2.0581    0.8092    2.1736 H   0  0  0  0  0  0  0  0  0  0  0  0
   -0.9568    0.9369    3.9933 C   0  0  0  0  0  0  0  0  0  0  0  0
   -0.1600    1.6750    4.1097 H   0  0  0  0  0  0  0  0  0  0  0  0
   -1.8775    1.3307    4.4266 H   0  0  0  0  0  0  0  0  0  0  0  0
   -0.6678    0.0287    4.5244 H   0  0  0  0  0  0  0  0  0  0  0  0
  5  6  2  0  0  0  0
  5  7  1  0  0  0  0
  2  3  1  0  0  0  0
  2  4  1  0  0  0  0
  2  5  1  0  0  0  0
  1  2  1  0  0  0  0
 24 25  2  0  0  0  0
 24 26  1  0  0  0  0
 20 21  1  0  0  0  0
 20 22  1  0  0  0  0
 20 23  1  0  0  0  0
 16 17  1  0  0  0  0
 16 18  1  0  0  0  0
 16 19  1  0  0  0  0
 14 15  1  0  0  0  0
 14 16  1  0  0  0  0
 14 20  1  0  0  0  0
 11 12  1  0  0  0  0
 11 13  1  0  0  0  0
 11 14  1  0  0  0  0
  9 10  1  0  0  0  0
  9 11  1  0  0  0  0
  9 24  1  0  0  0  0
  7  8  1  0  0  0  0
  7  9  1  0  0  0  0
 28 29  1  0  0  0  0
 28 30  1  0  0  0  0
 28 31  1  0  0  0  0
 26 27  1  0  0  0  0
 26 28  1  0  0  0  0
M  END
$$$$
default_name
  -OEChem-02102213163D

 31 30  0     1  0  0  0  0  0999 V2000
   -3.5895   -3.5013    1.1082 H   0  0  0  0  0  0  0  0  0  0  0  0
   -3.5145   -2.5363    0.6082 C   0  0  0  0  0  0  0  0  0  0  0  0
   -4.2285   -1.8413    1.0452 H   0  0  0  0  0  0  0  0  0  0  0  0
   -3.7155   -2.6583   -0.4538 H   0  0  0  0  0  0  0  0  0  0  0  0
   -2.1155   -1.9963    0.7922 C   0  0  0  0  0  0  0  0  0  0  0  0
   -1.2875   -2.6383    1.4252 O   0  0  0  0  0  0  0  0  0  0  0  0
   -1.8575   -0.8123    0.2402 N   0  0  0  0  0  0  0  0  0  0  0  0
   -2.6005   -0.3333   -0.2478 H   0  0  0  0  0  0  0  0  0  0  0  0
   -0.5675   -0.1203    0.3102 C   0  0  1  0  0  0  0  0  0  0  0  0
    0.1932   -0.7715   -0.1219 H   0  0  0  0  0  0  0  0  0  0  0  0
   -0.6568    1.1713   -0.5294 C   0  0  0  0  0  0  0  0  0  0  0  0
   -1.5616    1.1291   -1.1388 H   0  0  0  0  0  0  0  0  0  0  0  0
   -0.7599    2.0139    0.1579 H   0  0  0  0  0  0  0  0  0  0  0  0
    0.5410    1.4520   -1.4554 C   0  0  0  0  0  0  0  0  0  0  0  0
    0.5122    0.7757   -2.3098 H   0  0  0  0  0  0  0  0  0  0  0  0
    0.5539    2.8965   -1.9640 C   0  0  0  0  0  0  0  0  0  0  0  0
    0.5664    3.5866   -1.1192 H   0  0  0  0  0  0  0  0  0  0  0  0
    1.4423    3.0631   -2.5736 H   0  0  0  0  0  0  0  0  0  0  0  0
   -0.3244    3.0971   -2.5737 H   0  0  0  0  0  0  0  0  0  0  0  0
    1.8464    1.2050   -0.7003 C   0  0  0  0  0  0  0  0  0  0  0  0
    1.8794    0.1724   -0.3531 H   0  0  0  0  0  0  0  0  0  0  0  0
    2.6955    1.3764   -1.3619 H   0  0  0  0  0  0  0  0  0  0  0  0
    1.9171    1.8754    0.1570 H   0  0  0  0  0  0  0  0  0  0  0  0
   -0.1913    0.1554    1.7759 C   0  0  0  0  0  0  0  0  0  0  0  0
    0.9476   -0.0766    2.1748 O   0  0  0  0  0  0  0  0  0  0  0  0
   -1.1502    0.6393    2.5760 N   0  0  0  0  0  0  0  0  0  0  0  0
   -2.0581    0.8092    2.1736 H   0  0  0  0  0  0  0  0  0  0  0  0
   -0.9568    0.9369    3.9933 C   0  0  0  0  0  0  0  0  0  0  0  0
   -0.1600    1.6750    4.1097 H   0  0  0  0  0  0  0  0  0  0  0  0
   -1.8775    1.3307    4.4266 H   0  0  0  0  0  0  0  0  0  0  0  0
   -0.6678    0.0287    4.5244 H   0  0  0  0  0  0  0  0  0  0  0  0
  5  6  2  0  0  0  0
  5  7  1  0  0  0  0
  2  3  1  0  0  0  0
  2  4  1  0  0  0  0
  2  5  1  0  0  0  0
  1  2  1  0  0  0  0
 24 25  2  0  0  0  0
 24 26  1  0  0  0  0
 20 21  1  0  0  0  0
 20 22  1  0  0  0  0
 20 23  1  0  0  0  0
 16 17  1  0  0  0  0
 16 18  1  0  0  0  0
 16 19  1  0  0  0  0
 14 15  1  0  0  0  0
 14 16  1  0  0  0  0
 14 20  1  0  0  0  0
 11 12  1  0  0  0  0
 11 13  1  0  0  0  0
 11 14  1  0  0  0  0
  9 10  1  0  0  0  0
  9 11  1  0  0  0  0
  9 24  1  0  0  0  0
  7  8  1  0  0  0  0
  7  9  1  0  0  0  0
 28 29  1  0  0  0  0
 28 30  1  0  0  0  0
 28 31  1  0  0  0  0
 26 27  1  0  0  0  0
 26 28  1  0  0  0  0
M  END
$$$$
default_name
  -OEChem-02102213163D

 31 30  0     1  0  0  0  0  0999 V2000
   -3.5895   -3.5013    1.1082 H   0  0  0  0  0  0  0  0  0  0  0  0
   -3.5145   -2.5363    0.6082 C   0  0  0  0  0  0  0  0  0  0  0  0
   -4.2285   -1.8413    1.0452 H   0  0  0  0  0  0  0  0  0  0  0  0
   -3.7155   -2.6583   -0.4538 H   0  0  0  0  0  0  0  0  0  0  0  0
   -2.1155   -1.9963    0.7922 C   0  0  0  0  0  0  0  0  0  0  0  0
   -1.2875   -2.6383    1.4252 O   0  0  0  0  0  0  0  0  0  0  0  0
   -1.8575   -0.8123    0.2402 N   0  0  0  0  0  0  0  0  0  0  0  0
   -2.6005   -0.3333   -0.2478 H   0  0  0  0  0  0  0  0  0  0  0  0
   -0.5675   -0.1203    0.3102 C   0  0  1  0  0  0  0  0  0  0  0  0
    0.1932   -0.7715   -0.1219 H   0  0  0  0  0  0  0  0  0  0  0  0
   -0.6568    1.1713   -0.5294 C   0  0  0  0  0  0  0  0  0  0  0  0
   -1.5616    1.1291   -1.1388 H   0  0  0  0  0  0  0  0  0  0  0  0
   -0.7599    2.0139    0.1579 H   0  0  0  0  0  0  0  0  0  0  0  0
    0.5410    1.4520   -1.4554 C   0  0  0  0  0  0  0  0  0  0  0  0
    0.3773    0.9775   -2.4230 H   0  0  0  0  0  0  0  0  0  0  0  0
    0.7697    2.9512   -1.6683 C   0  0  0  0  0  0  0  0  0  0  0  0
    0.9192    3.4435   -0.7064 H   0  0  0  0  0  0  0  0  0  0  0  0
    1.6538    3.1034   -2.2878 H   0  0  0  0  0  0  0  0  0  0  0  0
   -0.0837    3.4027   -2.1697 H   0  0  0  0  0  0  0  0  0  0  0  0
    1.8128    0.8614   -0.8479 C   0  0  0  0  0  0  0  0  0  0  0  0
    1.6905   -0.2134   -0.7144 H   0  0  0  0  0  0  0  0  0  0  0  0
    2.6573    1.0348   -1.5149 H   0  0  0  0  0  0  0  0  0  0  0  0
    2.0169    1.3233    0.1187 H   0  0  0  0  0  0  0  0  0  0  0  0
   -0.1913    0.1554    1.7759 C   0  0  0  0  0  0  0  0  0  0  0  0
    0.9476   -0.0766    2.1748 O   0  0  0  0  0  0  0  0  0  0  0  0
   -1.1502    0.6393    2.5760 N   0  0  0  0  0  0  0  0  0  0  0  0
   -2.0581    0.8092    2.1736 H   0  0  0  0  0  0  0  0  0  0  0  0
   -0.9568    0.9369    3.9933 C   0  0  0  0  0  0  0  0  0  0  0  0
   -0.1600    1.6750    4.1097 H   0  0  0  0  0  0  0  0  0  0  0  0
   -1.8775    1.3307    4.4266 H   0  0  0  0  0  0  0  0  0  0  0  0
   -0.6678    0.0287    4.5244 H   0  0  0  0  0  0  0  0  0  0  0  0
  5  6  2  0  0  0  0
  5  7  1  0  0  0  0
  2  3  1  0  0  0  0
  2  4  1  0  0  0  0
  2  5  1  0  0  0  0
  1  2  1  0  0  0  0
 24 25  2  0  0  0  0
 24 26  1  0  0  0  0
 20 21  1  0  0  0  0
 20 22  1  0  0  0  0
 20 23  1  0  0  0  0
 16 17  1  0  0  0  0
 16 18  1  0  0  0  0
 16 19  1  0  0  0  0
 14 15  1  0  0  0  0
 14 16  1  0  0  0  0
 14 20  1  0  0  0  0
 11 12  1  0  0  0  0
 11 13  1  0  0  0  0
 11 14  1  0  0  0  0
  9 10  1  0  0  0  0
  9 11  1  0  0  0  0
  9 24  1  0  0  0  0
  7  8  1  0  0  0  0
  7  9  1  0  0  0  0
 28 29  1  0  0  0  0
 28 30  1  0  0  0  0
 28 31  1  0  0  0  0
 26 27  1  0  0  0  0
 26 28  1  0  0  0  0
M  END
$$$$
default_name
  -OEChem-02102213163D

 31 30  0     1  0  0  0  0  0999 V2000
   -3.5895   -3.5013    1.1082 H   0  0  0  0  0  0  0  0  0  0  0  0
   -3.5145   -2.5363    0.6082 C   0  0  0  0  0  0  0  0  0  0  0  0
   -4.2285   -1.8413    1.0452 H   0  0  0  0  0  0  0  0  0  0  0  0
   -3.7155   -2.6583   -0.4538 H   0  0  0  0  0  0  0  0  0  0  0  0
   -2.1155   -1.9963    0.7922 C   0  0  0  0  0  0  0  0  0  0  0  0
   -1.2875   -2.6383    1.4252 O   0  0  0  0  0  0  0  0  0  0  0  0
   -1.8575   -0.8123    0.2402 N   0  0  0  0  0  0  0  0  0  0  0  0
   -2.6005   -0.3333   -0.2478 H   0  0  0  0  0  0  0  0  0  0  0  0
   -0.5675   -0.1203    0.3102 C   0  0  1  0  0  0  0  0  0  0  0  0
    0.1932   -0.7715   -0.1219 H   0  0  0  0  0  0  0  0  0  0  0  0
   -0.6568    1.1713   -0.5294 C   0  0  0  0  0  0  0  0  0  0  0  0
   -1.5616    1.1291   -1.1388 H   0  0  0  0  0  0  0  0  0  0  0  0
   -0.7599    2.0139    0.1579 H   0  0  0  0  0  0  0  0  0  0  0  0
    0.5410    1.4520   -1.4554 C   0  0  0  0  0  0  0  0  0  0  0  0
    0.2732    1.2163   -2.4854 H   0  0  0  0  0  0  0  0  0  0  0  0
    1.0006    2.9110   -1.3819 C   0  0  0  0  0  0  0  0  0  0  0  0
    1.2571    3.1672   -0.3531 H   0  0  0  0  0  0  0  0  0  0  0  0
    1.8778    3.0519   -2.0137 H   0  0  0  0  0  0  0  0  0  0  0  0
    0.2155    3.5791   -1.7293 H   0  0  0  0  0  0  0  0  0  0  0  0
    1.7199    0.5645   -1.0581 C   0  0  0  0  0  0  0  0  0  0  0  0
    1.4309   -0.4838   -1.1321 H   0  0  0  0  0  0  0  0  0  0  0  0
    2.5600    0.7415   -1.7296 H   0  0  0  0  0  0  0  0  0  0  0  0
    2.0256    0.7821   -0.0342 H   0  0  0  0  0  0  0  0  0  0  0  0
   -0.1913    0.1554    1.7759 C   0  0  0  0  0  0  0  0  0  0  0  0
    0.9476   -0.0766    2.1748 O   0  0  0  0  0  0  0  0  0  0  0  0
   -1.1502    0.6393    2.5760 N   0  0  0  0  0  0  0  0  0  0  0  0
   -2.0581    0.8092    2.1736 H   0  0  0  0  0  0  0  0  0  0  0  0
   -0.9568    0.9369    3.9933 C   0  0  0  0  0  0  0  0  0  0  0  0
   -0.1600    1.6750    4.1097 H   0  0  0  0  0  0  0  0  0  0  0  0
   -1.8775    1.3307    4.4266 H   0  0  0  0  0  0  0  0  0  0  0  0
   -0.6678    0.0287    4.5244 H   0  0  0  0  0  0  0  0  0  0  0  0
  5  6  2  0  0  0  0
  5  7  1  0  0  0  0
  2  3  1  0  0  0  0
  2  4  1  0  0  0  0
  2  5  1  0  0  0  0
  1  2  1  0  0  0  0
 24 25  2  0  0  0  0
 24 26  1  0  0  0  0
 20 21  1  0  0  0  0
 20 22  1  0  0  0  0
 20 23  1  0  0  0  0
 16 17  1  0  0  0  0
 16 18  1  0  0  0  0
 16 19  1  0  0  0  0
 14 15  1  0  0  0  0
 14 16  1  0  0  0  0
 14 20  1  0  0  0  0
 11 12  1  0  0  0  0
 11 13  1  0  0  0  0
 11 14  1  0  0  0  0
  9 10  1  0  0  0  0
  9 11  1  0  0  0  0
  9 24  1  0  0  0  0
  7  8  1  0  0  0  0
  7  9  1  0  0  0  0
 28 29  1  0  0  0  0
 28 30  1  0  0  0  0
 28 31  1  0  0  0  0
 26 27  1  0  0  0  0
 26 28  1  0  0  0  0
M  END
$$$$
default_name
  -OEChem-02102213163D

 31 30  0     1  0  0  0  0  0999 V2000
   -3.5895   -3.5013    1.1082 H   0  0  0  0  0  0  0  0  0  0  0  0
   -3.5145   -2.5363    0.6082 C   0  0  0  0  0  0  0  0  0  0  0  0
   -4.2285   -1.8413    1.0452 H   0  0  0  0  0  0  0  0  0  0  0  0
   -3.7155   -2.6583   -0.4538 H   0  0  0  0  0  0  0  0  0  0  0  0
   -2.1155   -1.9963    0.7922 C   0  0  0  0  0  0  0  0  0  0  0  0
   -1.2875   -2.6383    1.4252 O   0  0  0  0  0  0  0  0  0  0  0  0
   -1.8575   -0.8123    0.2402 N   0  0  0  0  0  0  0  0  0  0  0  0
   -2.6005   -0.3333   -0.2478 H   0  0  0  0  0  0  0  0  0  0  0  0
   -0.5675   -0.1203    0.3102 C   0  0  1  0  0  0  0  0  0  0  0  0
    0.1932   -0.7715   -0.1219 H   0  0  0  0  0  0  0  0  0  0  0  0
   -0.6568    1.1713   -0.5294 C   0  0  0  0  0  0  0  0  0  0  0  0
   -1.5616    1.1291   -1.1388 H   0  0  0  0  0  0  0  0  0  0  0  0
   -0.7599    2.0139    0.1579 H   0  0  0  0  0  0  0  0  0  0  0  0
    0.5410    1.4520   -1.4554 C   0  0  0  0  0  0  0  0  0  0  0  0
    0.2067    1.4756   -2.4927 H   0  0  0  0  0  0  0  0  0  0  0  0
    1.2308    2.7786   -1.1242 C   0  0  0  0  0  0  0  0  0  0  0  0
    1.5572    2.7767   -0.0833 H   0  0  0  0  0  0  0  0  0  0  0  0
    2.0992    2.9120   -1.7699 H   0  0  0  0  0  0  0  0  0  0  0  0
    0.5526    3.6143   -1.2825 H   0  0  0  0  0  0  0  0  0  0  0  0
    1.5740    0.3345   -1.3166 C   0  0  0  0  0  0  0  0  0  0  0  0
    1.1183   -0.6206   -1.5778 H   0  0  0  0  0  0  0  0  0  0  0  0
    2.4102    0.5166   -1.9915 H   0  0  0  0  0  0  0  0  0  0  0  0
    1.9425    0.2888   -0.2912 H   0  0  0  0  0  0  0  0  0  0  0  0
   -0.1913    0.1554    1.7759 C   0  0  0  0  0  0  0  0  0  0  0  0
    0.9476   -0.0766    2.1748 O   0  0  0  0  0  0  0  0  0  0  0  0
   -1.1502    0.6393    2.5760 N   0  0  0  0  0  0  0  0  0  0  0  0
   -2.0581    0.8092    2.1736 H   0  0  0  0  0  0  0  0  0  0  0  0
   -0.9568    0.9369    3.9933 C   0  0  0  0  0  0  0  0  0  0  0  0
   -0.1600    1.6750    4.1097 H   0  0  0  0  0  0  0  0  0  0  0  0
   -1.8775    1.3307    4.4266 H   0  0  0  0  0  0  0  0  0  0  0  0
   -0.6678    0.0287    4.5244 H   0  0  0  0  0  0  0  0  0  0  0  0
  5  6  2  0  0  0  0
  5  7  1  0  0  0  0
  2  3  1  0  0  0  0
  2  4  1  0  0  0  0
  2  5  1  0  0  0  0
  1  2  1  0  0  0  0
 24 25  2  0  0  0  0
 24 26  1  0  0  0  0
 20 21  1  0  0  0  0
 20 22  1  0  0  0  0
 20 23  1  0  0  0  0
 16 17  1  0  0  0  0
 16 18  1  0  0  0  0
 16 19  1  0  0  0  0
 14 15  1  0  0  0  0
 14 16  1  0  0  0  0
 14 20  1  0  0  0  0
 11 12  1  0  0  0  0
 11 13  1  0  0  0  0
 11 14  1  0  0  0  0
  9 10  1  0  0  0  0
  9 11  1  0  0  0  0
  9 24  1  0  0  0  0
  7  8  1  0  0  0  0
  7  9  1  0  0  0  0
 28 29  1  0  0  0  0
 28 30  1  0  0  0  0
 28 31  1  0  0  0  0
 26 27  1  0  0  0  0
 26 28  1  0  0  0  0
M  END
$$$$
default_name
  -OEChem-02102213163D

 31 30  0     1  0  0  0  0  0999 V2000
   -3.5895   -3.5013    1.1082 H   0  0  0  0  0  0  0  0  0  0  0  0
   -3.5145   -2.5363    0.6082 C   0  0  0  0  0  0  0  0  0  0  0  0
   -4.2285   -1.8413    1.0452 H   0  0  0  0  0  0  0  0  0  0  0  0
   -3.7155   -2.6583   -0.4538 H   0  0  0  0  0  0  0  0  0  0  0  0
   -2.1155   -1.9963    0.7922 C   0  0  0  0  0  0  0  0  0  0  0  0
   -1.2875   -2.6383    1.4252 O   0  0  0  0  0  0  0  0  0  0  0  0
   -1.8575   -0.8123    0.2402 N   0  0  0  0  0  0  0  0  0  0  0  0
   -2.6005   -0.3333   -0.2478 H   0  0  0  0  0  0  0  0  0  0  0  0
   -0.5675   -0.1203    0.3102 C   0  0  1  0  0  0  0  0  0  0  0  0
    0.1932   -0.7715   -0.1219 H   0  0  0  0  0  0  0  0  0  0  0  0
   -0.6568    1.1713   -0.5294 C   0  0  0  0  0  0  0  0  0  0  0  0
   -1.5616    1.1291   -1.1388 H   0  0  0  0  0  0  0  0  0  0  0  0
   -0.7599    2.0139    0.1579 H   0  0  0  0  0  0  0  0  0  0  0  0
    0.5410    1.4520   -1.4554 C   0  0  0  0  0  0  0  0  0  0  0  0
    0.1826    1.7379   -2.4444 H   0  0  0  0  0  0  0  0  0  0  0  0
    1.4448    2.5629   -0.9129 C   0  0  0  0  0  0  0  0  0  0  0  0
    1.7990    2.2984    0.0844 H   0  0  0  0  0  0  0  0  0  0  0  0
    2.3027    2.6934   -1.5729 H   0  0  0  0  0  0  0  0  0  0  0  0
    0.9049    3.5058   -0.8598 H   0  0  0  0  0  0  0  0  0  0  0  0
    1.3851    0.1870   -1.6056 C   0  0  0  0  0  0  0  0  0  0  0  0
    0.7741   -0.6143   -2.0212 H   0  0  0  0  0  0  0  0  0  0  0  0
    2.2182    0.3754   -2.2827 H   0  0  0  0  0  0  0  0  0  0  0  0
    1.7733   -0.1230   -0.6348 H   0  0  0  0  0  0  0  0  0  0  0  0
   -0.1913    0.1554    1.7759 C   0  0  0  0  0  0  0  0  0  0  0  0
    0.9476   -0.0766    2.1748 O   0  0  0  0  0  0  0  0  0  0  0  0
   -1.1502    0.6393    2.5760 N   0  0  0  0  0  0  0  0  0  0  0  0
   -2.0581    0.8092    2.1736 H   0  0  0  0  0  0  0  0  0  0  0  0
   -0.9568    0.9369    3.9933 C   0  0  0  0  0  0  0  0  0  0  0  0
   -0.1600    1.6750    4.1097 H   0  0  0  0  0  0  0  0  0  0  0  0
   -1.8775    1.3307    4.4266 H   0  0  0  0  0  0  0  0  0  0  0  0
   -0.6678    0.0287    4.5244 H   0  0  0  0  0  0  0  0  0  0  0  0
  5  6  2  0  0  0  0
  5  7  1  0  0  0  0
  2  3  1  0  0  0  0
  2  4  1  0  0  0  0
  2  5  1  0  0  0  0
  1  2  1  0  0  0  0
 24 25  2  0  0  0  0
 24 26  1  0  0  0  0
 20 21  1  0  0  0  0
 20 22  1  0  0  0  0
 20 23  1  0  0  0  0
 16 17  1  0  0  0  0
 16 18  1  0  0  0  0
 16 19  1  0  0  0  0
 14 15  1  0  0  0  0
 14 16  1  0  0  0  0
 14 20  1  0  0  0  0
 11 12  1  0  0  0  0
 11 13  1  0  0  0  0
 11 14  1  0  0  0  0
  9 10  1  0  0  0  0
  9 11  1  0  0  0  0
  9 24  1  0  0  0  0
  7  8  1  0  0  0  0
  7  9  1  0  0  0  0
 28 29  1  0  0  0  0
 28 30  1  0  0  0  0
 28 31  1  0  0  0  0
 26 27  1  0  0  0  0
 26 28  1  0  0  0  0
M  END
$$$$
default_name
  -OEChem-02102213163D

 31 30  0     1  0  0  0  0  0999 V2000
   -3.5895   -3.5013    1.1082 H   0  0  0  0  0  0  0  0  0  0  0  0
   -3.5145   -2.5363    0.6082 C   0  0  0  0  0  0  0  0  0  0  0  0
   -4.2285   -1.8413    1.0452 H   0  0  0  0  0  0  0  0  0  0  0  0
   -3.7155   -2.6583   -0.4538 H   0  0  0  0  0  0  0  0  0  0  0  0
   -2.1155   -1.9963    0.7922 C   0  0  0  0  0  0  0  0  0  0  0  0
   -1.2875   -2.6383    1.4252 O   0  0  0  0  0  0  0  0  0  0  0  0
   -1.8575   -0.8123    0.2402 N   0  0  0  0  0  0  0  0  0  0  0  0
   -2.6005   -0.3333   -0.2478 H   0  0  0  0  0  0  0  0  0  0  0  0
   -0.5675   -0.1203    0.3102 C   0  0  1  0  0  0  0  0  0  0  0  0
    0.1932   -0.7715   -0.1219 H   0  0  0  0  0  0  0  0  0  0  0  0
   -0.6568    1.1713   -0.5294 C   0  0  0  0  0  0  0  0  0  0  0  0
   -1.5616    1.1291   -1.1388 H   0  0  0  0  0  0  0  0  0  0  0  0
   -0.7599    2.0139    0.1579 H   0  0  0  0  0  0  0  0  0  0  0  0
    0.5410    1.4520   -1.4554 C   0  0  0  0  0  0  0  0  0  0  0  0
    0.2024    1.9854   -2.3437 H   0  0  0  0  0  0  0  0  0  0  0  0
    1.6279    2.2787   -0.7623 C   0  0  0  0  0  0  0  0  0  0  0  0
    1.9660    1.7650    0.1387 H   0  0  0  0  0  0  0  0  0  0  0  0
    2.4745    2.4109   -1.4363 H   0  0  0  0  0  0  0  0  0  0  0  0
    1.2482    3.2611   -0.4899 H   0  0  0  0  0  0  0  0  0  0  0  0
    1.1660    0.1322   -1.9056 C   0  0  0  0  0  0  0  0  0  0  0  0
    0.4217   -0.4654   -2.4319 H   0  0  0  0  0  0  0  0  0  0  0  0
    1.9970    0.3276   -2.5833 H   0  0  0  0  0  0  0  0  0  0  0  0
    1.5296   -0.4252   -1.0416 H   0  0  0  0  0  0  0  0  0  0  0  0
   -0.1913    0.1554    1.7759 C   0  0  0  0  0  0  0  0  0  0  0  0
    0.9476   -0.0766    2.1748 O   0  0  0  0  0  0  0  0  0  0  0  0
   -1.1502    0.6393    2.5760 N   0  0  0  0  0  0  0  0  0  0  0  0
   -2.0581    0.8092    2.1736 H   0  0  0  0  0  0  0  0  0  0  0  0
   -0.9568    0.9369    3.9933 C   0  0  0  0  0  0  0  0  0  0  0  0
   -0.1600    1.6750    4.1097 H   0  0  0  0  0  0  0  0  0  0  0  0
   -1.8775    1.3307    4.4266 H   0  0  0  0  0  0  0  0  0  0  0  0
   -0.6678    0.0287    4.5244 H   0  0  0  0  0  0  0  0  0  0  0  0
  5  6  2  0  0  0  0
  5  7  1  0  0  0  0
  2  3  1  0  0  0  0
  2  4  1  0  0  0  0
  2  5  1  0  0  0  0
  1  2  1  0  0  0  0
 24 25  2  0  0  0  0
 24 26  1  0  0  0  0
 20 21  1  0  0  0  0
 20 22  1  0  0  0  0
 20 23  1  0  0  0  0
 16 17  1  0  0  0  0
 16 18  1  0  0  0  0
 16 19  1  0  0  0  0
 14 15  1  0  0  0  0
 14 16  1  0  0  0  0
 14 20  1  0  0  0  0
 11 12  1  0  0  0  0
 11 13  1  0  0  0  0
 11 14  1  0  0  0  0
  9 10  1  0  0  0  0
  9 11  1  0  0  0  0
  9 24  1  0  0  0  0
  7  8  1  0  0  0  0
  7  9  1  0  0  0  0
 28 29  1  0  0  0  0
 28 30  1  0  0  0  0
 28 31  1  0  0  0  0
 26 27  1  0  0  0  0
 26 28  1  0  0  0  0
M  END
$$$$
default_name
  -OEChem-02102213163D

 31 30  0     1  0  0  0  0  0999 V2000
   -3.5895   -3.5013    1.1082 H   0  0  0  0  0  0  0  0  0  0  0  0
   -3.5145   -2.5363    0.6082 C   0  0  0  0  0  0  0  0  0  0  0  0
   -4.2285   -1.8413    1.0452 H   0  0  0  0  0  0  0  0  0  0  0  0
   -3.7155   -2.6583   -0.4538 H   0  0  0  0  0  0  0  0  0  0  0  0
   -2.1155   -1.9963    0.7922 C   0  0  0  0  0  0  0  0  0  0  0  0
   -1.2875   -2.6383    1.4252 O   0  0  0  0  0  0  0  0  0  0  0  0
   -1.8575   -0.8123    0.2402 N   0  0  0  0  0  0  0  0  0  0  0  0
   -2.6005   -0.3333   -0.2478 H   0  0  0  0  0  0  0  0  0  0  0  0
   -0.5675   -0.1203    0.3102 C   0  0  1  0  0  0  0  0  0  0  0  0
    0.1932   -0.7715   -0.1219 H   0  0  0  0  0  0  0  0  0  0  0  0
   -0.6568    1.1713   -0.5294 C   0  0  0  0  0  0  0  0  0  0  0  0
   -1.5616    1.1291   -1.1388 H   0  0  0  0  0  0  0  0  0  0  0  0
   -0.7599    2.0139    0.1579 H   0  0  0  0  0  0  0  0  0  0  0  0
    0.5410    1.4520   -1.4554 C   0  0  0  0  0  0  0  0  0  0  0  0
    0.2648    2.2010   -2.1977 H   0  0  0  0  0  0  0  0  0  0  0  0
    1.7676    1.9454   -0.6826 C   0  0  0  0  0  0  0  0  0  0  0  0
    2.0469    1.2129    0.0759 H   0  0  0  0  0  0  0  0  0  0  0  0
    2.6030    2.0837   -1.3693 H   0  0  0  0  0  0  0  0  0  0  0  0
    1.5592    2.8969   -0.1981 H   0  0  0  0  0  0  0  0  0  0  0  0
    0.9317    0.1737   -2.1961 C   0  0  0  0  0  0  0  0  0  0  0  0
    0.0850   -0.1840   -2.7820 H   0  0  0  0  0  0  0  0  0  0  0  0
    1.7617    0.3763   -2.8729 H   0  0  0  0  0  0  0  0  0  0  0  0
    1.2280   -0.5974   -1.4840 H   0  0  0  0  0  0  0  0  0  0  0  0
   -0.1913    0.1554    1.7759 C   0  0  0  0  0  0  0  0  0  0  0  0
    0.9476   -0.0766    2.1748 O   0  0  0  0  0  0  0  0  0  0  0  0
   -1.1502    0.6393    2.5760 N   0  0  0  0  0  0  0  0  0  0  0  0
   -2.0581    0.8092    2.1736 H   0  0  0  0  0  0  0  0  0  0  0  0
   -0.9568    0.9369    3.9933 C   0  0  0  0  0  0  0  0  0  0  0  0
   -0.1600    1.6750    4.1097 H   0  0  0  0  0  0  0  0  0  0  0  0
   -1.8775    1.3307    4.4266 H   0  0  0  0  0  0  0  0  0  0  0  0
   -0.6678    0.0287    4.5244 H   0  0  0  0  0  0  0  0  0  0  0  0
  5  6  2  0  0  0  0
  5  7  1  0  0  0  0
  2  3  1  0  0  0  0
  2  4  1  0  0  0  0
  2  5  1  0  0  0  0
  1  2  1  0  0  0  0
 24 25  2  0  0  0  0
 24 26  1  0  0  0  0
 20 21  1  0  0  0  0
 20 22  1  0  0  0  0
 20 23  1  0  0  0  0
 16 17  1  0  0  0  0
 16 18  1  0  0  0  0
 16 19  1  0  0  0  0
 14 15  1  0  0  0  0
 14 16  1  0  0  0  0
 14 20  1  0  0  0  0
 11 12  1  0  0  0  0
 11 13  1  0  0  0  0
 11 14  1  0  0  0  0
  9 10  1  0  0  0  0
  9 11  1  0  0  0  0
  9 24  1  0  0  0  0
  7  8  1  0  0  0  0
  7  9  1  0  0  0  0
 28 29  1  0  0  0  0
 28 30  1  0  0  0  0
 28 31  1  0  0  0  0
 26 27  1  0  0  0  0
 26 28  1  0  0  0  0
M  END
$$$$
default_name
  -OEChem-02102213163D

 31 30  0     1  0  0  0  0  0999 V2000
   -3.5895   -3.5013    1.1082 H   0  0  0  0  0  0  0  0  0  0  0  0
   -3.5145   -2.5363    0.6082 C   0  0  0  0  0  0  0  0  0  0  0  0
   -4.2285   -1.8413    1.0452 H   0  0  0  0  0  0  0  0  0  0  0  0
   -3.7155   -2.6583   -0.4538 H   0  0  0  0  0  0  0  0  0  0  0  0
   -2.1155   -1.9963    0.7922 C   0  0  0  0  0  0  0  0  0  0  0  0
   -1.2875   -2.6383    1.4252 O   0  0  0  0  0  0  0  0  0  0  0  0
   -1.8575   -0.8123    0.2402 N   0  0  0  0  0  0  0  0  0  0  0  0
   -2.6005   -0.3333   -0.2478 H   0  0  0  0  0  0  0  0  0  0  0  0
   -0.5675   -0.1203    0.3102 C   0  0  1  0  0  0  0  0  0  0  0  0
    0.1932   -0.7715   -0.1219 H   0  0  0  0  0  0  0  0  0  0  0  0
   -0.6568    1.1713   -0.5294 C   0  0  0  0  0  0  0  0  0  0  0  0
   -1.5616    1.1291   -1.1388 H   0  0  0  0  0  0  0  0  0  0  0  0
   -0.7599    2.0139    0.1579 H   0  0  0  0  0  0  0  0  0  0  0  0
    0.5410    1.4520   -1.4554 C   0  0  0  0  0  0  0  0  0  0  0  0
    0.3655    2.3702   -2.0161 H   0  0  0  0  0  0  0  0  0  0  0  0
    1.8544    1.5857   -0.6794 C   0  0  0  0  0  0  0  0  0  0  0  0
    2.0361    0.6796   -0.0997 H   0  0  0  0  0  0  0  0  0  0  0  0
    2.6793    1.7343   -1.3766 H   0  0  0  0  0  0  0  0  0  0  0  0
    1.8167    2.4379   -0.0042 H   0  0  0  0  0  0  0  0  0  0  0  0
    0.6981    0.3087   -2.4572 C   0  0  0  0  0  0  0  0  0  0  0  0
   -0.2128    0.2107   -3.0476 H   0  0  0  0  0  0  0  0  0  0  0  0
    1.5283    0.5183   -3.1317 H   0  0  0  0  0  0  0  0  0  0  0  0
    0.8889   -0.6276   -1.9317 H   0  0  0  0  0  0  0  0  0  0  0  0
   -0.1913    0.1554    1.7759 C   0  0  0  0  0  0  0  0  0  0  0  0
    0.9476   -0.0766    2.1748 O   0  0  0  0  0  0  0  0  0  0  0  0
   -1.1502    0.6393    2.5760 N   0  0  0  0  0  0  0  0  0  0  0  0
   -2.0581    0.8092    2.1736 H   0  0  0  0  0  0  0  0  0  0  0  0
   -0.9568    0.9369    3.9933 C   0  0  0  0  0  0  0  0  0  0  0  0
   -0.1600    1.6750    4.1097 H   0  0  0  0  0  0  0  0  0  0  0  0
   -1.8775    1.3307    4.4266 H   0  0  0  0  0  0  0  0  0  0  0  0
   -0.6678    0.0287    4.5244 H   0  0  0  0  0  0  0  0  0  0  0  0
  5  6  2  0  0  0  0
  5  7  1  0  0  0  0
  2  3  1  0  0  0  0
  2  4  1  0  0  0  0
  2  5  1  0  0  0  0
  1  2  1  0  0  0  0
 24 25  2  0  0  0  0
 24 26  1  0  0  0  0
 20 21  1  0  0  0  0
 20 22  1  0  0  0  0
 20 23  1  0  0  0  0
 16 17  1  0  0  0  0
 16 18  1  0  0  0  0
 16 19  1  0  0  0  0
 14 15  1  0  0  0  0
 14 16  1  0  0  0  0
 14 20  1  0  0  0  0
 11 12  1  0  0  0  0
 11 13  1  0  0  0  0
 11 14  1  0  0  0  0
  9 10  1  0  0  0  0
  9 11  1  0  0  0  0
  9 24  1  0  0  0  0
  7  8  1  0  0  0  0
  7  9  1  0  0  0  0
 28 29  1  0  0  0  0
 28 30  1  0  0  0  0
 28 31  1  0  0  0  0
 26 27  1  0  0  0  0
 26 28  1  0  0  0  0
M  END
$$$$
default_name
  -OEChem-02102213163D

 31 30  0     1  0  0  0  0  0999 V2000
   -3.5895   -3.5013    1.1082 H   0  0  0  0  0  0  0  0  0  0  0  0
   -3.5145   -2.5363    0.6082 C   0  0  0  0  0  0  0  0  0  0  0  0
   -4.2285   -1.8413    1.0452 H   0  0  0  0  0  0  0  0  0  0  0  0
   -3.7155   -2.6583   -0.4538 H   0  0  0  0  0  0  0  0  0  0  0  0
   -2.1155   -1.9963    0.7922 C   0  0  0  0  0  0  0  0  0  0  0  0
   -1.2875   -2.6383    1.4252 O   0  0  0  0  0  0  0  0  0  0  0  0
   -1.8575   -0.8123    0.2402 N   0  0  0  0  0  0  0  0  0  0  0  0
   -2.6005   -0.3333   -0.2478 H   0  0  0  0  0  0  0  0  0  0  0  0
   -0.5675   -0.1203    0.3102 C   0  0  1  0  0  0  0  0  0  0  0  0
    0.1932   -0.7715   -0.1219 H   0  0  0  0  0  0  0  0  0  0  0  0
   -0.6568    1.1713   -0.5294 C   0  0  0  0  0  0  0  0  0  0  0  0
   -1.5616    1.1291   -1.1388 H   0  0  0  0  0  0  0  0  0  0  0  0
   -0.7599    2.0139    0.1579 H   0  0  0  0  0  0  0  0  0  0  0  0
    0.5410    1.4520   -1.4554 C   0  0  0  0  0  0  0  0  0  0  0  0
    0.4977    2.4814   -1.8114 H   0  0  0  0  0  0  0  0  0  0  0  0
    1.8824    1.2240   -0.7528 C   0  0  0  0  0  0  0  0  0  0  0  0
    1.9343    0.2016   -0.3762 H   0  0  0  0  0  0  0  0  0  0  0  0
    2.6983    1.3863   -1.4575 H   0  0  0  0  0  0  0  0  0  0  0  0
    2.0031    1.9154    0.0785 H   0  0  0  0  0  0  0  0  0  0  0  0
    0.4812    0.5281   -2.6713 C   0  0  0  0  0  0  0  0  0  0  0  0
   -0.4517    0.6917   -3.2107 H   0  0  0  0  0  0  0  0  0  0  0  0
    1.3128    0.7439   -3.3421 H   0  0  0  0  0  0  0  0  0  0  0  0
    0.5356   -0.5139   -2.3542 H   0  0  0  0  0  0  0  0  0  0  0  0
   -0.1913    0.1554    1.7759 C   0  0  0  0  0  0  0  0  0  0  0  0
    0.9476   -0.0766    2.1748 O   0  0  0  0  0  0  0  0  0  0  0  0
   -1.1502    0.6393    2.5760 N   0  0  0  0  0  0  0  0  0  0  0  0
   -2.0581    0.8092    2.1736 H   0  0  0  0  0  0  0  0  0  0  0  0
   -0.9568    0.9369    3.9933 C   0  0  0  0  0  0  0  0  0  0  0  0
   -0.1600    1.6750    4.1097 H   0  0  0  0  0  0  0  0  0  0  0  0
   -1.8775    1.3307    4.4266 H   0  0  0  0  0  0  0  0  0  0  0  0
   -0.6678    0.0287    4.5244 H   0  0  0  0  0  0  0  0  0  0  0  0
  5  6  2  0  0  0  0
  5  7  1  0  0  0  0
  2  3  1  0  0  0  0
  2  4  1  0  0  0  0
  2  5  1  0  0  0  0
  1  2  1  0  0  0  0
 24 25  2  0  0  0  0
 24 26  1  0  0  0  0
 20 21  1  0  0  0  0
 20 22  1  0  0  0  0
 20 23  1  0  0  0  0
 16 17  1  0  0  0  0
 16 18  1  0  0  0  0
 16 19  1  0  0  0  0
 14 15  1  0  0  0  0
 14 16  1  0  0  0  0
 14 20  1  0  0  0  0
 11 12  1  0  0  0  0
 11 13  1  0  0  0  0
 11 14  1  0  0  0  0
  9 10  1  0  0  0  0
  9 11  1  0  0  0  0
  9 24  1  0  0  0  0
  7  8  1  0  0  0  0
  7  9  1  0  0  0  0
 28 29  1  0  0  0  0
 28 30  1  0  0  0  0
 28 31  1  0  0  0  0
 26 27  1  0  0  0  0
 26 28  1  0  0  0  0
M  END
$$$$
default_name
  -OEChem-02102213163D

 31 30  0     1  0  0  0  0  0999 V2000
   -3.5895   -3.5013    1.1082 H   0  0  0  0  0  0  0  0  0  0  0  0
   -3.5145   -2.5363    0.6082 C   0  0  0  0  0  0  0  0  0  0  0  0
   -4.2285   -1.8413    1.0452 H   0  0  0  0  0  0  0  0  0  0  0  0
   -3.7155   -2.6583   -0.4538 H   0  0  0  0  0  0  0  0  0  0  0  0
   -2.1155   -1.9963    0.7922 C   0  0  0  0  0  0  0  0  0  0  0  0
   -1.2875   -2.6383    1.4252 O   0  0  0  0  0  0  0  0  0  0  0  0
   -1.8575   -0.8123    0.2402 N   0  0  0  0  0  0  0  0  0  0  0  0
   -2.6005   -0.3333   -0.2478 H   0  0  0  0  0  0  0  0  0  0  0  0
   -0.5675   -0.1203    0.3102 C   0  0  1  0  0  0  0  0  0  0  0  0
    0.1932   -0.7715   -0.1219 H   0  0  0  0  0  0  0  0  0  0  0  0
   -0.6568    1.1713   -0.5294 C   0  0  0  0  0  0  0  0  0  0  0  0
   -1.5616    1.1291   -1.1388 H   0  0  0  0  0  0  0  0  0  0  0  0
   -0.7599    2.0139    0.1579 H   0  0  0  0  0  0  0  0  0  0  0  0
    0.5410    1.4520   -1.4554 C   0  0  0  0  0  0  0  0  0  0  0  0
    0.6524    2.5270   -1.5976 H   0  0  0  0  0  0  0  0  0  0  0  0
    1.8497    0.8851   -0.8978 C   0  0  0  0  0  0  0  0  0  0  0  0
    1.7486   -0.1887   -0.7347 H   0  0  0  0  0  0  0  0  0  0  0  0
    2.6586    1.0635   -1.6066 H   0  0  0  0  0  0  0  0  0  0  0  0
    2.1057    1.3651    0.0444 H   0  0  0  0  0  0  0  0  0  0  0  0
    0.2957    0.8169   -2.8236 C   0  0  0  0  0  0  0  0  0  0  0  0
   -0.6152    1.2264   -3.2600 H   0  0  0  0  0  0  0  0  0  0  0  0
    1.1298    1.0377   -3.4897 H   0  0  0  0  0  0  0  0  0  0  0  0
    0.1921   -0.2641   -2.7228 H   0  0  0  0  0  0  0  0  0  0  0  0
   -0.1913    0.1554    1.7759 C   0  0  0  0  0  0  0  0  0  0  0  0
    0.9476   -0.0766    2.1748 O   0  0  0  0  0  0  0  0  0  0  0  0
   -1.1502    0.6393    2.5760 N   0  0  0  0  0  0  0  0  0  0  0  0
   -2.0581    0.8092    2.1736 H   0  0  0  0  0  0  0  0  0  0  0  0
   -0.9568    0.9369    3.9933 C   0  0  0  0  0  0  0  0  0  0  0  0
   -0.1600    1.6750    4.1097 H   0  0  0  0  0  0  0  0  0  0  0  0
   -1.8775    1.3307    4.4266 H   0  0  0  0  0  0  0  0  0  0  0  0
   -0.6678    0.0287    4.5244 H   0  0  0  0  0  0  0  0  0  0  0  0
  5  6  2  0  0  0  0
  5  7  1  0  0  0  0
  2  3  1  0  0  0  0
  2  4  1  0  0  0  0
  2  5  1  0  0  0  0
  1  2  1  0  0  0  0
 24 25  2  0  0  0  0
 24 26  1  0  0  0  0
 20 21  1  0  0  0  0
 20 22  1  0  0  0  0
 20 23  1  0  0  0  0
 16 17  1  0  0  0  0
 16 18  1  0  0  0  0
 16 19  1  0  0  0  0
 14 15  1  0  0  0  0
 14 16  1  0  0  0  0
 14 20  1  0  0  0  0
 11 12  1  0  0  0  0
 11 13  1  0  0  0  0
 11 14  1  0  0  0  0
  9 10  1  0  0  0  0
  9 11  1  0  0  0  0
  9 24  1  0  0  0  0
  7  8  1  0  0  0  0
  7  9  1  0  0  0  0
 28 29  1  0  0  0  0
 28 30  1  0  0  0  0
 28 31  1  0  0  0  0
 26 27  1  0  0  0  0
 26 28  1  0  0  0  0
M  END
$$$$
default_name
  -OEChem-02102213163D

 31 30  0     1  0  0  0  0  0999 V2000
   -3.5895   -3.5013    1.1082 H   0  0  0  0  0  0  0  0  0  0  0  0
   -3.5145   -2.5363    0.6082 C   0  0  0  0  0  0  0  0  0  0  0  0
   -4.2285   -1.8413    1.0452 H   0  0  0  0  0  0  0  0  0  0  0  0
   -3.7155   -2.6583   -0.4538 H   0  0  0  0  0  0  0  0  0  0  0  0
   -2.1155   -1.9963    0.7922 C   0  0  0  0  0  0  0  0  0  0  0  0
   -1.2875   -2.6383    1.4252 O   0  0  0  0  0  0  0  0  0  0  0  0
   -1.8575   -0.8123    0.2402 N   0  0  0  0  0  0  0  0  0  0  0  0
   -2.6005   -0.3333   -0.2478 H   0  0  0  0  0  0  0  0  0  0  0  0
   -0.5675   -0.1203    0.3102 C   0  0  1  0  0  0  0  0  0  0  0  0
    0.1932   -0.7715   -0.1219 H   0  0  0  0  0  0  0  0  0  0  0  0
   -0.6568    1.1713   -0.5294 C   0  0  0  0  0  0  0  0  0  0  0  0
   -1.5616    1.1291   -1.1388 H   0  0  0  0  0  0  0  0  0  0  0  0
   -0.7599    2.0139    0.1579 H   0  0  0  0  0  0  0  0  0  0  0  0
    0.5410    1.4520   -1.4554 C   0  0  0  0  0  0  0  0  0  0  0  0
    0.8190    2.5039   -1.3891 H   0  0  0  0  0  0  0  0  0  0  0  0
    1.7586    0.5921   -1.1045 C   0  0  0  0  0  0  0  0  0  0  0  0
    1.4916   -0.4646   -1.1508 H   0  0  0  0  0  0  0  0  0  0  0  0
    2.5630    0.7879   -1.8138 H   0  0  0  0  0  0  0  0  0  0  0  0
    2.1176    0.8244   -0.1042 H   0  0  0  0  0  0  0  0  0  0  0  0
    0.1543    1.1553   -2.9039 C   0  0  0  0  0  0  0  0  0  0  0  0
   -0.6922    1.7783   -3.1924 H   0  0  0  0  0  0  0  0  0  0  0  0
    0.9918    1.3796   -3.5645 H   0  0  0  0  0  0  0  0  0  0  0  0
   -0.1182    0.1050   -3.0123 H   0  0  0  0  0  0  0  0  0  0  0  0
   -0.1913    0.1554    1.7759 C   0  0  0  0  0  0  0  0  0  0  0  0
    0.9476   -0.0766    2.1748 O   0  0  0  0  0  0  0  0  0  0  0  0
   -1.1502    0.6393    2.5760 N   0  0  0  0  0  0  0  0  0  0  0  0
   -2.0581    0.8092    2.1736 H   0  0  0  0  0  0  0  0  0  0  0  0
   -0.9568    0.9369    3.9933 C   0  0  0  0  0  0  0  0  0  0  0  0
   -0.1600    1.6750    4.1097 H   0  0  0  0  0  0  0  0  0  0  0  0
   -1.8775    1.3307    4.4266 H   0  0  0  0  0  0  0  0  0  0  0  0
   -0.6678    0.0287    4.5244 H   0  0  0  0  0  0  0  0  0  0  0  0
  5  6  2  0  0  0  0
  5  7  1  0  0  0  0
  2  3  1  0  0  0  0
  2  4  1  0  0  0  0
  2  5  1  0  0  0  0
  1  2  1  0  0  0  0
 24 25  2  0  0  0  0
 24 26  1  0  0  0  0
 20 21  1  0  0  0  0
 20 22  1  0  0  0  0
 20 23  1  0  0  0  0
 16 17  1  0  0  0  0
 16 18  1  0  0  0  0
 16 19  1  0  0  0  0
 14 15  1  0  0  0  0
 14 16  1  0  0  0  0
 14 20  1  0  0  0  0
 11 12  1  0  0  0  0
 11 13  1  0  0  0  0
 11 14  1  0  0  0  0
  9 10  1  0  0  0  0
  9 11  1  0  0  0  0
  9 24  1  0  0  0  0
  7  8  1  0  0  0  0
  7  9  1  0  0  0  0
 28 29  1  0  0  0  0
 28 30  1  0  0  0  0
 28 31  1  0  0  0  0
 26 27  1  0  0  0  0
 26 28  1  0  0  0  0
M  END
$$$$
default_name
  -OEChem-02102213163D

 31 30  0     1  0  0  0  0  0999 V2000
   -3.5895   -3.5013    1.1082 H   0  0  0  0  0  0  0  0  0  0  0  0
   -3.5145   -2.5363    0.6082 C   0  0  0  0  0  0  0  0  0  0  0  0
   -4.2285   -1.8413    1.0452 H   0  0  0  0  0  0  0  0  0  0  0  0
   -3.7155   -2.6583   -0.4538 H   0  0  0  0  0  0  0  0  0  0  0  0
   -2.1155   -1.9963    0.7922 C   0  0  0  0  0  0  0  0  0  0  0  0
   -1.2875   -2.6383    1.4252 O   0  0  0  0  0  0  0  0  0  0  0  0
   -1.8575   -0.8123    0.2402 N   0  0  0  0  0  0  0  0  0  0  0  0
   -2.6005   -0.3333   -0.2478 H   0  0  0  0  0  0  0  0  0  0  0  0
   -0.5675   -0.1203    0.3102 C   0  0  1  0  0  0  0  0  0  0  0  0
    0.1932   -0.7715   -0.1219 H   0  0  0  0  0  0  0  0  0  0  0  0
   -0.6568    1.1713   -0.5294 C   0  0  0  0  0  0  0  0  0  0  0  0
   -1.5616    1.1291   -1.1388 H   0  0  0  0  0  0  0  0  0  0  0  0
   -0.7599    2.0139    0.1579 H   0  0  0  0  0  0  0  0  0  0  0  0
    0.5410    1.4520   -1.4554 C   0  0  0  0  0  0  0  0  0  0  0  0
    0.9861    2.4137   -1.2003 H   0  0  0  0  0  0  0  0  0  0  0  0
    1.6151    0.3648   -1.3590 C   0  0  0  0  0  0  0  0  0  0  0  0
    1.1807   -0.6073   -1.5962 H   0  0  0  0  0  0  0  0  0  0  0  0
    2.4181    0.5783   -2.0649 H   0  0  0  0  0  0  0  0  0  0  0  0
    2.0378    0.3302   -0.3572 H   0  0  0  0  0  0  0  0  0  0  0  0
    0.0667    1.5204   -2.9066 C   0  0  0  0  0  0  0  0  0  0  0  0
   -0.6776    2.3097   -3.0123 H   0  0  0  0  0  0  0  0  0  0  0  0
    0.9082    1.7465   -3.5614 H   0  0  0  0  0  0  0  0  0  0  0  0
   -0.3742    0.5680   -3.2030 H   0  0  0  0  0  0  0  0  0  0  0  0
   -0.1913    0.1554    1.7759 C   0  0  0  0  0  0  0  0  0  0  0  0
    0.9476   -0.0766    2.1748 O   0  0  0  0  0  0  0  0  0  0  0  0
   -1.1502    0.6393    2.5760 N   0  0  0  0  0  0  0  0  0  0  0  0
   -2.0581    0.8092    2.1736 H   0  0  0  0  0  0  0  0  0  0  0  0
   -0.9568    0.9369    3.9933 C   0  0  0  0  0  0  0  0  0  0  0  0
   -0.1600    1.6750    4.1097 H   0  0  0  0  0  0  0  0  0  0  0  0
   -1.8775    1.3307    4.4266 H   0  0  0  0  0  0  0  0  0  0  0  0
   -0.6678    0.0287    4.5244 H   0  0  0  0  0  0  0  0  0  0  0  0
  5  6  2  0  0  0  0
  5  7  1  0  0  0  0
  2  3  1  0  0  0  0
  2  4  1  0  0  0  0
  2  5  1  0  0  0  0
  1  2  1  0  0  0  0
 24 25  2  0  0  0  0
 24 26  1  0  0  0  0
 20 21  1  0  0  0  0
 20 22  1  0  0  0  0
 20 23  1  0  0  0  0
 16 17  1  0  0  0  0
 16 18  1  0  0  0  0
 16 19  1  0  0  0  0
 14 15  1  0  0  0  0
 14 16  1  0  0  0  0
 14 20  1  0  0  0  0
 11 12  1  0  0  0  0
 11 13  1  0  0  0  0
 11 14  1  0  0  0  0
  9 10  1  0  0  0  0
  9 11  1  0  0  0  0
  9 24  1  0  0  0  0
  7  8  1  0  0  0  0
  7  9  1  0  0  0  0
 28 29  1  0  0  0  0
 28 30  1  0  0  0  0
 28 31  1  0  0  0  0
 26 27  1  0  0  0  0
 26 28  1  0  0  0  0
M  END
$$$$
default_name
  -OEChem-02102213163D

 31 30  0     1  0  0  0  0  0999 V2000
   -3.5895   -3.5013    1.1082 H   0  0  0  0  0  0  0  0  0  0  0  0
   -3.5145   -2.5363    0.6082 C   0  0  0  0  0  0  0  0  0  0  0  0
   -4.2285   -1.8413    1.0452 H   0  0  0  0  0  0  0  0  0  0  0  0
   -3.7155   -2.6583   -0.4538 H   0  0  0  0  0  0  0  0  0  0  0  0
   -2.1155   -1.9963    0.7922 C   0  0  0  0  0  0  0  0  0  0  0  0
   -1.2875   -2.6383    1.4252 O   0  0  0  0  0  0  0  0  0  0  0  0
   -1.8575   -0.8123    0.2402 N   0  0  0  0  0  0  0  0  0  0  0  0
   -2.6005   -0.3333   -0.2478 H   0  0  0  0  0  0  0  0  0  0  0  0
   -0.5675   -0.1203    0.3102 C   0  0  1  0  0  0  0  0  0  0  0  0
    0.1932   -0.7715   -0.1219 H   0  0  0  0  0  0  0  0  0  0  0  0
   -0.6568    1.1713   -0.5294 C   0  0  0  0  0  0  0  0  0  0  0  0
   -1.5616    1.1291   -1.1388 H   0  0  0  0  0  0  0  0  0  0  0  0
   -0.7599    2.0139    0.1579 H   0  0  0  0  0  0  0  0  0  0  0  0
    0.5410    1.4520   -1.4554 C   0  0  0  0  0  0  0  0  0  0  0  0
    1.1424    2.2626   -1.0439 H   0  0  0  0  0  0  0  0  0  0  0  0
    1.4292    0.2188   -1.6437 C   0  0  0  0  0  0  0  0  0  0  0  0
    0.8372   -0.6071   -2.0404 H   0  0  0  0  0  0  0  0  0  0  0  0
    2.2335    0.4490   -2.3428 H   0  0  0  0  0  0  0  0  0  0  0  0
    1.8720   -0.0838   -0.6972 H   0  0  0  0  0  0  0  0  0  0  0  0
    0.0387    1.8873   -2.8316 C   0  0  0  0  0  0  0  0  0  0  0  0
   -0.5722    2.7845   -2.7320 H   0  0  0  0  0  0  0  0  0  0  0  0
    0.8847    2.1133   -3.4806 H   0  0  0  0  0  0  0  0  0  0  0  0
   -0.5584    1.0935   -3.2818 H   0  0  0  0  0  0  0  0  0  0  0  0
   -0.1913    0.1554    1.7759 C   0  0  0  0  0  0  0  0  0  0  0  0
    0.9476   -0.0766    2.1748 O   0  0  0  0  0  0  0  0  0  0  0  0
   -1.1502    0.6393    2.5760 N   0  0  0  0  0  0  0  0  0  0  0  0
   -2.0581    0.8092    2.1736 H   0  0  0  0  0  0  0  0  0  0  0  0
   -0.9568    0.9369    3.9933 C   0  0  0  0  0  0  0  0  0  0  0  0
   -0.1600    1.6750    4.1097 H   0  0  0  0  0  0  0  0  0  0  0  0
   -1.8775    1.3307    4.4266 H   0  0  0  0  0  0  0  0  0  0  0  0
   -0.6678    0.0287    4.5244 H   0  0  0  0  0  0  0  0  0  0  0  0
  5  6  2  0  0  0  0
  5  7  1  0  0  0  0
  2  3  1  0  0  0  0
  2  4  1  0  0  0  0
  2  5  1  0  0  0  0
  1  2  1  0  0  0  0
 24 25  2  0  0  0  0
 24 26  1  0  0  0  0
 20 21  1  0  0  0  0
 20 22  1  0  0  0  0
 20 23  1  0  0  0  0
 16 17  1  0  0  0  0
 16 18  1  0  0  0  0
 16 19  1  0  0  0  0
 14 15  1  0  0  0  0
 14 16  1  0  0  0  0
 14 20  1  0  0  0  0
 11 12  1  0  0  0  0
 11 13  1  0  0  0  0
 11 14  1  0  0  0  0
  9 10  1  0  0  0  0
  9 11  1  0  0  0  0
  9 24  1  0  0  0  0
  7  8  1  0  0  0  0
  7  9  1  0  0  0  0
 28 29  1  0  0  0  0
 28 30  1  0  0  0  0
 28 31  1  0  0  0  0
 26 27  1  0  0  0  0
 26 28  1  0  0  0  0
M  END
$$$$
default_name
  -OEChem-02102213163D

 31 30  0     1  0  0  0  0  0999 V2000
   -3.5895   -3.5013    1.1082 H   0  0  0  0  0  0  0  0  0  0  0  0
   -3.5145   -2.5363    0.6082 C   0  0  0  0  0  0  0  0  0  0  0  0
   -4.2285   -1.8413    1.0452 H   0  0  0  0  0  0  0  0  0  0  0  0
   -3.7155   -2.6583   -0.4538 H   0  0  0  0  0  0  0  0  0  0  0  0
   -2.1155   -1.9963    0.7922 C   0  0  0  0  0  0  0  0  0  0  0  0
   -1.2875   -2.6383    1.4252 O   0  0  0  0  0  0  0  0  0  0  0  0
   -1.8575   -0.8123    0.2402 N   0  0  0  0  0  0  0  0  0  0  0  0
   -2.6005   -0.3333   -0.2478 H   0  0  0  0  0  0  0  0  0  0  0  0
   -0.5675   -0.1203    0.3102 C   0  0  1  0  0  0  0  0  0  0  0  0
    0.1932   -0.7715   -0.1219 H   0  0  0  0  0  0  0  0  0  0  0  0
   -0.6568    1.1713   -0.5294 C   0  0  0  0  0  0  0  0  0  0  0  0
   -1.5616    1.1291   -1.1388 H   0  0  0  0  0  0  0  0  0  0  0  0
   -0.7599    2.0139    0.1579 H   0  0  0  0  0  0  0  0  0  0  0  0
    0.5410    1.4520   -1.4554 C   0  0  0  0  0  0  0  0  0  0  0  0
    1.2773    2.0608   -0.9307 H   0  0  0  0  0  0  0  0  0  0  0  0
    1.2134    0.1641   -1.9393 C   0  0  0  0  0  0  0  0  0  0  0  0
    0.4845   -0.4640   -2.4532 H   0  0  0  0  0  0  0  0  0  0  0  0
    2.0220    0.4087   -2.6285 H   0  0  0  0  0  0  0  0  0  0  0  0
    1.6313   -0.3895   -1.1012 H   0  0  0  0  0  0  0  0  0  0  0  0
    0.0723    2.2309   -2.6839 C   0  0  0  0  0  0  0  0  0  0  0  0
   -0.3832    3.1703   -2.3707 H   0  0  0  0  0  0  0  0  0  0  0  0
    0.9229    2.4549   -3.3276 H   0  0  0  0  0  0  0  0  0  0  0  0
   -0.6582    1.6457   -3.2436 H   0  0  0  0  0  0  0  0  0  0  0  0
   -0.1913    0.1554    1.7759 C   0  0  0  0  0  0  0  0  0  0  0  0
    0.9476   -0.0766    2.1748 O   0  0  0  0  0  0  0  0  0  0  0  0
   -1.1502    0.6393    2.5760 N   0  0  0  0  0  0  0  0  0  0  0  0
   -2.0581    0.8092    2.1736 H   0  0  0  0  0  0  0  0  0  0  0  0
   -0.9568    0.9369    3.9933 C   0  0  0  0  0  0  0  0  0  0  0  0
   -0.1600    1.6750    4.1097 H   0  0  0  0  0  0  0  0  0  0  0  0
   -1.8775    1.3307    4.4266 H   0  0  0  0  0  0  0  0  0  0  0  0
   -0.6678    0.0287    4.5244 H   0  0  0  0  0  0  0  0  0  0  0  0
  5  6  2  0  0  0  0
  5  7  1  0  0  0  0
  2  3  1  0  0  0  0
  2  4  1  0  0  0  0
  2  5  1  0  0  0  0
  1  2  1  0  0  0  0
 24 25  2  0  0  0  0
 24 26  1  0  0  0  0
 20 21  1  0  0  0  0
 20 22  1  0  0  0  0
 20 23  1  0  0  0  0
 16 17  1  0  0  0  0
 16 18  1  0  0  0  0
 16 19  1  0  0  0  0
 14 15  1  0  0  0  0
 14 16  1  0  0  0  0
 14 20  1  0  0  0  0
 11 12  1  0  0  0  0
 11 13  1  0  0  0  0
 11 14  1  0  0  0  0
  9 10  1  0  0  0  0
  9 11  1  0  0  0  0
  9 24  1  0  0  0  0
  7  8  1  0  0  0  0
  7  9  1  0  0  0  0
 28 29  1  0  0  0  0
 28 30  1  0  0  0  0
 28 31  1  0  0  0  0
 26 27  1  0  0  0  0
 26 28  1  0  0  0  0
M  END
$$$$
default_name
  -OEChem-02102213163D

 31 30  0     1  0  0  0  0  0999 V2000
   -3.5895   -3.5013    1.1082 H   0  0  0  0  0  0  0  0  0  0  0  0
   -3.5145   -2.5363    0.6082 C   0  0  0  0  0  0  0  0  0  0  0  0
   -4.2285   -1.8413    1.0452 H   0  0  0  0  0  0  0  0  0  0  0  0
   -3.7155   -2.6583   -0.4538 H   0  0  0  0  0  0  0  0  0  0  0  0
   -2.1155   -1.9963    0.7922 C   0  0  0  0  0  0  0  0  0  0  0  0
   -1.2875   -2.6383    1.4252 O   0  0  0  0  0  0  0  0  0  0  0  0
   -1.8575   -0.8123    0.2402 N   0  0  0  0  0  0  0  0  0  0  0  0
   -2.6005   -0.3333   -0.2478 H   0  0  0  0  0  0  0  0  0  0  0  0
   -0.5675   -0.1203    0.3102 C   0  0  1  0  0  0  0  0  0  0  0  0
    0.1932   -0.7715   -0.1219 H   0  0  0  0  0  0  0  0  0  0  0  0
   -0.6568    1.1713   -0.5294 C   0  0  0  0  0  0  0  0  0  0  0  0
   -1.5616    1.1291   -1.1388 H   0  0  0  0  0  0  0  0  0  0  0  0
   -0.7599    2.0139    0.1579 H   0  0  0  0  0  0  0  0  0  0  0  0
    0.5410    1.4520   -1.4554 C   0  0  0  0  0  0  0  0  0  0  0  0
    1.3815    1.8221   -0.8683 H   0  0  0  0  0  0  0  0  0  0  0  0
    0.9826    0.2043   -2.2258 C   0  0  0  0  0  0  0  0  0  0  0  0
    0.1465   -0.1877   -2.8066 H   0  0  0  0  0  0  0  0  0  0  0  0
    1.7980    0.4602   -2.9027 H   0  0  0  0  0  0  0  0  0  0  0  0
    1.3321   -0.5659   -1.5416 H   0  0  0  0  0  0  0  0  0  0  0  0
    0.1652    2.5278   -2.4737 C   0  0  0  0  0  0  0  0  0  0  0  0
   -0.1236    3.4407   -1.9530 H   0  0  0  0  0  0  0  0  0  0  0  0
    1.0202    2.7482   -3.1128 H   0  0  0  0  0  0  0  0  0  0  0  0
   -0.6669    2.1868   -3.0907 H   0  0  0  0  0  0  0  0  0  0  0  0
   -0.1913    0.1554    1.7759 C   0  0  0  0  0  0  0  0  0  0  0  0
    0.9476   -0.0766    2.1748 O   0  0  0  0  0  0  0  0  0  0  0  0
   -1.1502    0.6393    2.5760 N   0  0  0  0  0  0  0  0  0  0  0  0
   -2.0581    0.8092    2.1736 H   0  0  0  0  0  0  0  0  0  0  0  0
   -0.9568    0.9369    3.9933 C   0  0  0  0  0  0  0  0  0  0  0  0
   -0.1600    1.6750    4.1097 H   0  0  0  0  0  0  0  0  0  0  0  0
   -1.8775    1.3307    4.4266 H   0  0  0  0  0  0  0  0  0  0  0  0
   -0.6678    0.0287    4.5244 H   0  0  0  0  0  0  0  0  0  0  0  0
  5  6  2  0  0  0  0
  5  7  1  0  0  0  0
  2  3  1  0  0  0  0
  2  4  1  0  0  0  0
  2  5  1  0  0  0  0
  1  2  1  0  0  0  0
 24 25  2  0  0  0  0
 24 26  1  0  0  0  0
 20 21  1  0  0  0  0
 20 22  1  0  0  0  0
 20 23  1  0  0  0  0
 16 17  1  0  0  0  0
 16 18  1  0  0  0  0
 16 19  1  0  0  0  0
 14 15  1  0  0  0  0
 14 16  1  0  0  0  0
 14 20  1  0  0  0  0
 11 12  1  0  0  0  0
 11 13  1  0  0  0  0
 11 14  1  0  0  0  0
  9 10  1  0  0  0  0
  9 11  1  0  0  0  0
  9 24  1  0  0  0  0
  7  8  1  0  0  0  0
  7  9  1  0  0  0  0
 28 29  1  0  0  0  0
 28 30  1  0  0  0  0
 28 31  1  0  0  0  0
 26 27  1  0  0  0  0
 26 28  1  0  0  0  0
M  END
$$$$
default_name
  -OEChem-02102213163D

 31 30  0     1  0  0  0  0  0999 V2000
   -3.5895   -3.5013    1.1082 H   0  0  0  0  0  0  0  0  0  0  0  0
   -3.5145   -2.5363    0.6082 C   0  0  0  0  0  0  0  0  0  0  0  0
   -4.2285   -1.8413    1.0452 H   0  0  0  0  0  0  0  0  0  0  0  0
   -3.7155   -2.6583   -0.4538 H   0  0  0  0  0  0  0  0  0  0  0  0
   -2.1155   -1.9963    0.7922 C   0  0  0  0  0  0  0  0  0  0  0  0
   -1.2875   -2.6383    1.4252 O   0  0  0  0  0  0  0  0  0  0  0  0
   -1.8575   -0.8123    0.2402 N   0  0  0  0  0  0  0  0  0  0  0  0
   -2.6005   -0.3333   -0.2478 H   0  0  0  0  0  0  0  0  0  0  0  0
   -0.5675   -0.1203    0.3102 C   0  0  1  0  0  0  0  0  0  0  0  0
    0.1932   -0.7715   -0.1219 H   0  0  0  0  0  0  0  0  0  0  0  0
   -0.6568    1.1713   -0.5294 C   0  0  0  0  0  0  0  0  0  0  0  0
   -1.5616    1.1291   -1.1388 H   0  0  0  0  0  0  0  0  0  0  0  0
   -0.7599    2.0139    0.1579 H   0  0  0  0  0  0  0  0  0  0  0  0
    0.5410    1.4520   -1.4554 C   0  0  0  0  0  0  0  0  0  0  0  0
    1.4479    1.5627   -0.8610 H   0  0  0  0  0  0  0  0  0  0  0  0
    0.7523    0.3368   -2.4834 C   0  0  0  0  0  0  0  0  0  0  0  0
   -0.1535    0.2028   -3.0763 H   0  0  0  0  0  0  0  0  0  0  0  0
    1.5767    0.6001   -3.1465 H   0  0  0  0  0  0  0  0  0  0  0  0
    0.9949   -0.6011   -1.9884 H   0  0  0  0  0  0  0  0  0  0  0  0
    0.3111    2.7579   -2.2153 C   0  0  0  0  0  0  0  0  0  0  0  0
    0.1889    3.5775   -1.5072 H   0  0  0  0  0  0  0  0  0  0  0  0
    1.1700    2.9731   -2.8509 H   0  0  0  0  0  0  0  0  0  0  0  0
   -0.5838    2.6801   -2.8337 H   0  0  0  0  0  0  0  0  0  0  0  0
   -0.1913    0.1554    1.7759 C   0  0  0  0  0  0  0  0  0  0  0  0
    0.9476   -0.0766    2.1748 O   0  0  0  0  0  0  0  0  0  0  0  0
   -1.1502    0.6393    2.5760 N   0  0  0  0  0  0  0  0  0  0  0  0
   -2.0581    0.8092    2.1736 H   0  0  0  0  0  0  0  0  0  0  0  0
   -0.9568    0.9369    3.9933 C   0  0  0  0  0  0  0  0  0  0  0  0
   -0.1600    1.6750    4.1097 H   0  0  0  0  0  0  0  0  0  0  0  0
   -1.8775    1.3307    4.4266 H   0  0  0  0  0  0  0  0  0  0  0  0
   -0.6678    0.0287    4.5244 H   0  0  0  0  0  0  0  0  0  0  0  0
  5  6  2  0  0  0  0
  5  7  1  0  0  0  0
  2  3  1  0  0  0  0
  2  4  1  0  0  0  0
  2  5  1  0  0  0  0
  1  2  1  0  0  0  0
 24 25  2  0  0  0  0
 24 26  1  0  0  0  0
 20 21  1  0  0  0  0
 20 22  1  0  0  0  0
 20 23  1  0  0  0  0
 16 17  1  0  0  0  0
 16 18  1  0  0  0  0
 16 19  1  0  0  0  0
 14 15  1  0  0  0  0
 14 16  1  0  0  0  0
 14 20  1  0  0  0  0
 11 12  1  0  0  0  0
 11 13  1  0  0  0  0
 11 14  1  0  0  0  0
  9 10  1  0  0  0  0
  9 11  1  0  0  0  0
  9 24  1  0  0  0  0
  7  8  1  0  0  0  0
  7  9  1  0  0  0  0
 28 29  1  0  0  0  0
 28 30  1  0  0  0  0
 28 31  1  0  0  0  0
 26 27  1  0  0  0  0
 26 28  1  0  0  0  0
M  END
$$$$
default_name
  -OEChem-02102213163D

 31 30  0     1  0  0  0  0  0999 V2000
   -3.5895   -3.5013    1.1082 H   0  0  0  0  0  0  0  0  0  0  0  0
   -3.5145   -2.5363    0.6082 C   0  0  0  0  0  0  0  0  0  0  0  0
   -4.2285   -1.8413    1.0452 H   0  0  0  0  0  0  0  0  0  0  0  0
   -3.7155   -2.6583   -0.4538 H   0  0  0  0  0  0  0  0  0  0  0  0
   -2.1155   -1.9963    0.7922 C   0  0  0  0  0  0  0  0  0  0  0  0
   -1.2875   -2.6383    1.4252 O   0  0  0  0  0  0  0  0  0  0  0  0
   -1.8575   -0.8123    0.2402 N   0  0  0  0  0  0  0  0  0  0  0  0
   -2.6005   -0.3333   -0.2478 H   0  0  0  0  0  0  0  0  0  0  0  0
   -0.5675   -0.1203    0.3102 C   0  0  1  0  0  0  0  0  0  0  0  0
    0.1932   -0.7715   -0.1219 H   0  0  0  0  0  0  0  0  0  0  0  0
   -0.6568    1.1713   -0.5294 C   0  0  0  0  0  0  0  0  0  0  0  0
   -1.5616    1.1291   -1.1388 H   0  0  0  0  0  0  0  0  0  0  0  0
   -0.7599    2.0139    0.1579 H   0  0  0  0  0  0  0  0  0  0  0  0
    0.5410    1.4520   -1.4554 C   0  0  0  0  0  0  0  0  0  0  0  0
    1.4720    1.3004   -0.9093 H   0  0  0  0  0  0  0  0  0  0  0  0
    0.5384    0.5524   -2.6948 C   0  0  0  0  0  0  0  0  0  0  0  0
   -0.3953    0.6811   -3.2440 H   0  0  0  0  0  0  0  0  0  0  0  0
    1.3732    0.8187   -3.3435 H   0  0  0  0  0  0  0  0  0  0  0  0
    0.6427   -0.4926   -2.4111 H   0  0  0  0  0  0  0  0  0  0  0  0
    0.5000    2.9053   -1.9262 C   0  0  0  0  0  0  0  0  0  0  0  0
    0.5331    3.5712   -1.0639 H   0  0  0  0  0  0  0  0  0  0  0  0
    1.3620    3.1142   -2.5598 H   0  0  0  0  0  0  0  0  0  0  0  0
   -0.4146    3.0919   -2.4901 H   0  0  0  0  0  0  0  0  0  0  0  0
   -0.1913    0.1554    1.7759 C   0  0  0  0  0  0  0  0  0  0  0  0
    0.9476   -0.0766    2.1748 O   0  0  0  0  0  0  0  0  0  0  0  0
   -1.1502    0.6393    2.5760 N   0  0  0  0  0  0  0  0  0  0  0  0
   -2.0581    0.8092    2.1736 H   0  0  0  0  0  0  0  0  0  0  0  0
   -0.9568    0.9369    3.9933 C   0  0  0  0  0  0  0  0  0  0  0  0
   -0.1600    1.6750    4.1097 H   0  0  0  0  0  0  0  0  0  0  0  0
   -1.8775    1.3307    4.4266 H   0  0  0  0  0  0  0  0  0  0  0  0
   -0.6678    0.0287    4.5244 H   0  0  0  0  0  0  0  0  0  0  0  0
  5  6  2  0  0  0  0
  5  7  1  0  0  0  0
  2  3  1  0  0  0  0
  2  4  1  0  0  0  0
  2  5  1  0  0  0  0
  1  2  1  0  0  0  0
 24 25  2  0  0  0  0
 24 26  1  0  0  0  0
 20 21  1  0  0  0  0
 20 22  1  0  0  0  0
 20 23  1  0  0  0  0
 16 17  1  0  0  0  0
 16 18  1  0  0  0  0
 16 19  1  0  0  0  0
 14 15  1  0  0  0  0
 14 16  1  0  0  0  0
 14 20  1  0  0  0  0
 11 12  1  0  0  0  0
 11 13  1  0  0  0  0
 11 14  1  0  0  0  0
  9 10  1  0  0  0  0
  9 11  1  0  0  0  0
  9 24  1  0  0  0  0
  7  8  1  0  0  0  0
  7  9  1  0  0  0  0
 28 29  1  0  0  0  0
 28 30  1  0  0  0  0
 28 31  1  0  0  0  0
 26 27  1  0  0  0  0
 26 28  1  0  0  0  0
M  END
$$$$
default_name
  -OEChem-02102213163D

 31 30  0     1  0  0  0  0  0999 V2000
   -3.5895   -3.5013    1.1082 H   0  0  0  0  0  0  0  0  0  0  0  0
   -3.5145   -2.5363    0.6082 C   0  0  0  0  0  0  0  0  0  0  0  0
   -4.2285   -1.8413    1.0452 H   0  0  0  0  0  0  0  0  0  0  0  0
   -3.7155   -2.6583   -0.4538 H   0  0  0  0  0  0  0  0  0  0  0  0
   -2.1155   -1.9963    0.7922 C   0  0  0  0  0  0  0  0  0  0  0  0
   -1.2875   -2.6383    1.4252 O   0  0  0  0  0  0  0  0  0  0  0  0
   -1.8575   -0.8123    0.2402 N   0  0  0  0  0  0  0  0  0  0  0  0
   -2.6005   -0.3333   -0.2478 H   0  0  0  0  0  0  0  0  0  0  0  0
   -0.5675   -0.1203    0.3102 C   0  0  1  0  0  0  0  0  0  0  0  0
    0.1932   -0.7715   -0.1219 H   0  0  0  0  0  0  0  0  0  0  0  0
   -0.6568    1.1713   -0.5294 C   0  0  0  0  0  0  0  0  0  0  0  0
   -1.5616    1.1291   -1.1388 H   0  0  0  0  0  0  0  0  0  0  0  0
   -0.7599    2.0139    0.1579 H   0  0  0  0  0  0  0  0  0  0  0  0
    0.5410    1.4520   -1.4554 C   0  0  0  0  0  0  0  0  0  0  0  0
    1.4522    1.0530   -1.0099 H   0  0  0  0  0  0  0  0  0  0  0  0
    0.3553    0.8366   -2.8454 C   0  0  0  0  0  0  0  0  0  0  0  0
   -0.5623    1.2145   -3.2983 H   0  0  0  0  0  0  0  0  0  0  0  0
    1.2013    1.1012   -3.4801 H   0  0  0  0  0  0  0  0  0  0  0  0
    0.2993   -0.2479   -2.7810 H   0  0  0  0  0  0  0  0  0  0  0  0
    0.7191    2.9602   -1.6262 C   0  0  0  0  0  0  0  0  0  0  0  0
    0.8856    3.4223   -0.6532 H   0  0  0  0  0  0  0  0  0  0  0  0
    1.5833    3.1621   -2.2591 H   0  0  0  0  0  0  0  0  0  0  0  0
   -0.1709    3.3942   -2.0832 H   0  0  0  0  0  0  0  0  0  0  0  0
   -0.1913    0.1554    1.7759 C   0  0  0  0  0  0  0  0  0  0  0  0
    0.9476   -0.0766    2.1748 O   0  0  0  0  0  0  0  0  0  0  0  0
   -1.1502    0.6393    2.5760 N   0  0  0  0  0  0  0  0  0  0  0  0
   -2.0581    0.8092    2.1736 H   0  0  0  0  0  0  0  0  0  0  0  0
   -0.9568    0.9369    3.9933 C   0  0  0  0  0  0  0  0  0  0  0  0
   -0.1600    1.6750    4.1097 H   0  0  0  0  0  0  0  0  0  0  0  0
   -1.8775    1.3307    4.4266 H   0  0  0  0  0  0  0  0  0  0  0  0
   -0.6678    0.0287    4.5244 H   0  0  0  0  0  0  0  0  0  0  0  0
  5  6  2  0  0  0  0
  5  7  1  0  0  0  0
  2  3  1  0  0  0  0
  2  4  1  0  0  0  0
  2  5  1  0  0  0  0
  1  2  1  0  0  0  0
 24 25  2  0  0  0  0
 24 26  1  0  0  0  0
 20 21  1  0  0  0  0
 20 22  1  0  0  0  0
 20 23  1  0  0  0  0
 16 17  1  0  0  0  0
 16 18  1  0  0  0  0
 16 19  1  0  0  0  0
 14 15  1  0  0  0  0
 14 16  1  0  0  0  0
 14 20  1  0  0  0  0
 11 12  1  0  0  0  0
 11 13  1  0  0  0  0
 11 14  1  0  0  0  0
  9 10  1  0  0  0  0
  9 11  1  0  0  0  0
  9 24  1  0  0  0  0
  7  8  1  0  0  0  0
  7  9  1  0  0  0  0
 28 29  1  0  0  0  0
 28 30  1  0  0  0  0
 28 31  1  0  0  0  0
 26 27  1  0  0  0  0
 26 28  1  0  0  0  0
M  END
$$$$
default_name
  -OEChem-02102213163D

 31 30  0     1  0  0  0  0  0999 V2000
   -3.5895   -3.5013    1.1082 H   0  0  0  0  0  0  0  0  0  0  0  0
   -3.5145   -2.5363    0.6082 C   0  0  0  0  0  0  0  0  0  0  0  0
   -4.2285   -1.8413    1.0452 H   0  0  0  0  0  0  0  0  0  0  0  0
   -3.7155   -2.6583   -0.4538 H   0  0  0  0  0  0  0  0  0  0  0  0
   -2.1155   -1.9963    0.7922 C   0  0  0  0  0  0  0  0  0  0  0  0
   -1.2875   -2.6383    1.4252 O   0  0  0  0  0  0  0  0  0  0  0  0
   -1.8575   -0.8123    0.2402 N   0  0  0  0  0  0  0  0  0  0  0  0
   -2.6005   -0.3333   -0.2478 H   0  0  0  0  0  0  0  0  0  0  0  0
   -0.5675   -0.1203    0.3102 C   0  0  1  0  0  0  0  0  0  0  0  0
    0.1932   -0.7715   -0.1219 H   0  0  0  0  0  0  0  0  0  0  0  0
   -0.6568    1.1713   -0.5294 C   0  0  0  0  0  0  0  0  0  0  0  0
   -1.5616    1.1291   -1.1388 H   0  0  0  0  0  0  0  0  0  0  0  0
   -0.7599    2.0139    0.1579 H   0  0  0  0  0  0  0  0  0  0  0  0
    0.5410    1.4520   -1.4554 C   0  0  0  0  0  0  0  0  0  0  0  0
    1.3898    0.8373   -1.1560 H   0  0  0  0  0  0  0  0  0  0  0  0
    0.2156    1.1699   -2.9251 C   0  0  0  0  0  0  0  0  0  0  0  0
   -0.6432    1.7666   -3.2356 H   0  0  0  0  0  0  0  0  0  0  0  0
    1.0729    1.4284   -3.5471 H   0  0  0  0  0  0  0  0  0  0  0  0
   -0.0117    0.1164   -3.0728 H   0  0  0  0  0  0  0  0  0  0  0  0
    0.9534    2.9187   -1.3358 C   0  0  0  0  0  0  0  0  0  0  0  0
    1.2222    3.1409   -0.3031 H   0  0  0  0  0  0  0  0  0  0  0  0
    1.8186    3.1134   -1.9696 H   0  0  0  0  0  0  0  0  0  0  0  0
    0.1307    3.5663   -1.6409 H   0  0  0  0  0  0  0  0  0  0  0  0
   -0.1913    0.1554    1.7759 C   0  0  0  0  0  0  0  0  0  0  0  0
    0.9476   -0.0766    2.1748 O   0  0  0  0  0  0  0  0  0  0  0  0
   -1.1502    0.6393    2.5760 N   0  0  0  0  0  0  0  0  0  0  0  0
   -2.0581    0.8092    2.1736 H   0  0  0  0  0  0  0  0  0  0  0  0
   -0.9568    0.9369    3.9933 C   0  0  0  0  0  0  0  0  0  0  0  0
   -0.1600    1.6750    4.1097 H   0  0  0  0  0  0  0  0  0  0  0  0
   -1.8775    1.3307    4.4266 H   0  0  0  0  0  0  0  0  0  0  0  0
   -0.6678    0.0287    4.5244 H   0  0  0  0  0  0  0  0  0  0  0  0
  5  6  2  0  0  0  0
  5  7  1  0  0  0  0
  2  3  1  0  0  0  0
  2  4  1  0  0  0  0
  2  5  1  0  0  0  0
  1  2  1  0  0  0  0
 24 25  2  0  0  0  0
 24 26  1  0  0  0  0
 20 21  1  0  0  0  0
 20 22  1  0  0  0  0
 20 23  1  0  0  0  0
 16 17  1  0  0  0  0
 16 18  1  0  0  0  0
 16 19  1  0  0  0  0
 14 15  1  0  0  0  0
 14 16  1  0  0  0  0
 14 20  1  0  0  0  0
 11 12  1  0  0  0  0
 11 13  1  0  0  0  0
 11 14  1  0  0  0  0
  9 10  1  0  0  0  0
  9 11  1  0  0  0  0
  9 24  1  0  0  0  0
  7  8  1  0  0  0  0
  7  9  1  0  0  0  0
 28 29  1  0  0  0  0
 28 30  1  0  0  0  0
 28 31  1  0  0  0  0
 26 27  1  0  0  0  0
 26 28  1  0  0  0  0
M  END
$$$$
default_name
  -OEChem-02102213163D

 31 30  0     1  0  0  0  0  0999 V2000
   -3.5895   -3.5013    1.1082 H   0  0  0  0  0  0  0  0  0  0  0  0
   -3.5145   -2.5363    0.6082 C   0  0  0  0  0  0  0  0  0  0  0  0
   -4.2285   -1.8413    1.0452 H   0  0  0  0  0  0  0  0  0  0  0  0
   -3.7155   -2.6583   -0.4538 H   0  0  0  0  0  0  0  0  0  0  0  0
   -2.1155   -1.9963    0.7922 C   0  0  0  0  0  0  0  0  0  0  0  0
   -1.2875   -2.6383    1.4252 O   0  0  0  0  0  0  0  0  0  0  0  0
   -1.8575   -0.8123    0.2402 N   0  0  0  0  0  0  0  0  0  0  0  0
   -2.6005   -0.3333   -0.2478 H   0  0  0  0  0  0  0  0  0  0  0  0
   -0.5675   -0.1203    0.3102 C   0  0  1  0  0  0  0  0  0  0  0  0
    0.1932   -0.7715   -0.1219 H   0  0  0  0  0  0  0  0  0  0  0  0
   -0.6568    1.1713   -0.5294 C   0  0  0  0  0  0  0  0  0  0  0  0
   -1.5616    1.1291   -1.1388 H   0  0  0  0  0  0  0  0  0  0  0  0
   -0.7599    2.0139    0.1579 H   0  0  0  0  0  0  0  0  0  0  0  0
    0.5410    1.4520   -1.4554 C   0  0  0  0  0  0  0  0  0  0  0  0
    1.2891    0.6681   -1.3376 H   0  0  0  0  0  0  0  0  0  0  0  0
    0.1288    1.5296   -2.9283 C   0  0  0  0  0  0  0  0  0  0  0  0
   -0.6324    2.2999   -3.0599 H   0  0  0  0  0  0  0  0  0  0  0  0
    0.9966    1.7778   -3.5398 H   0  0  0  0  0  0  0  0  0  0  0  0
   -0.2691    0.5754   -3.2667 H   0  0  0  0  0  0  0  0  0  0  0  0
    1.1870    2.7836   -1.0746 C   0  0  0  0  0  0  0  0  0  0  0  0
    1.5201    2.7462   -0.0375 H   0  0  0  0  0  0  0  0  0  0  0  0
    2.0519    2.9714   -1.7108 H   0  0  0  0  0  0  0  0  0  0  0  0
    0.4698    3.5966   -1.1932 H   0  0  0  0  0  0  0  0  0  0  0  0
   -0.1913    0.1554    1.7759 C   0  0  0  0  0  0  0  0  0  0  0  0
    0.9476   -0.0766    2.1748 O   0  0  0  0  0  0  0  0  0  0  0  0
   -1.1502    0.6393    2.5760 N   0  0  0  0  0  0  0  0  0  0  0  0
   -2.0581    0.8092    2.1736 H   0  0  0  0  0  0  0  0  0  0  0  0
   -0.9568    0.9369    3.9933 C   0  0  0  0  0  0  0  0  0  0  0  0
   -0.1600    1.6750    4.1097 H   0  0  0  0  0  0  0  0  0  0  0  0
   -1.8775    1.3307    4.4266 H   0  0  0  0  0  0  0  0  0  0  0  0
   -0.6678    0.0287    4.5244 H   0  0  0  0  0  0  0  0  0  0  0  0
  5  6  2  0  0  0  0
  5  7  1  0  0  0  0
  2  3  1  0  0  0  0
  2  4  1  0  0  0  0
  2  5  1  0  0  0  0
  1  2  1  0  0  0  0
 24 25  2  0  0  0  0
 24 26  1  0  0  0  0
 20 21  1  0  0  0  0
 20 22  1  0  0  0  0
 20 23  1  0  0  0  0
 16 17  1  0  0  0  0
 16 18  1  0  0  0  0
 16 19  1  0  0  0  0
 14 15  1  0  0  0  0
 14 16  1  0  0  0  0
 14 20  1  0  0  0  0
 11 12  1  0  0  0  0
 11 13  1  0  0  0  0
 11 14  1  0  0  0  0
  9 10  1  0  0  0  0
  9 11  1  0  0  0  0
  9 24  1  0  0  0  0
  7  8  1  0  0  0  0
  7  9  1  0  0  0  0
 28 29  1  0  0  0  0
 28 30  1  0  0  0  0
 28 31  1  0  0  0  0
 26 27  1  0  0  0  0
 26 28  1  0  0  0  0
M  END
$$$$
default_name
  -OEChem-02102213163D

 31 30  0     1  0  0  0  0  0999 V2000
   -3.5895   -3.5013    1.1082 H   0  0  0  0  0  0  0  0  0  0  0  0
   -3.5145   -2.5363    0.6082 C   0  0  0  0  0  0  0  0  0  0  0  0
   -4.2285   -1.8413    1.0452 H   0  0  0  0  0  0  0  0  0  0  0  0
   -3.7155   -2.6583   -0.4538 H   0  0  0  0  0  0  0  0  0  0  0  0
   -2.1155   -1.9963    0.7922 C   0  0  0  0  0  0  0  0  0  0  0  0
   -1.2875   -2.6383    1.4252 O   0  0  0  0  0  0  0  0  0  0  0  0
   -1.8575   -0.8123    0.2402 N   0  0  0  0  0  0  0  0  0  0  0  0
   -2.6005   -0.3333   -0.2478 H   0  0  0  0  0  0  0  0  0  0  0  0
   -0.5675   -0.1203    0.3102 C   0  0  1  0  0  0  0  0  0  0  0  0
    0.1932   -0.7715   -0.1219 H   0  0  0  0  0  0  0  0  0  0  0  0
   -0.6568    1.1713   -0.5294 C   0  0  0  0  0  0  0  0  0  0  0  0
   -1.5616    1.1291   -1.1388 H   0  0  0  0  0  0  0  0  0  0  0  0
   -0.7599    2.0139    0.1579 H   0  0  0  0  0  0  0  0  0  0  0  0
    0.5410    1.4520   -1.4554 C   0  0  0  0  0  0  0  0  0  0  0  0
    1.1569    0.5569   -1.5423 H   0  0  0  0  0  0  0  0  0  0  0  0
    0.1007    1.8913   -2.8549 C   0  0  0  0  0  0  0  0  0  0  0  0
   -0.5307    2.7779   -2.7834 H   0  0  0  0  0  0  0  0  0  0  0  0
    0.9776    2.1258   -3.4589 H   0  0  0  0  0  0  0  0  0  0  0  0
   -0.4555    1.0978   -3.3494 H   0  0  0  0  0  0  0  0  0  0  0  0
    1.4039    2.5642   -0.8606 C   0  0  0  0  0  0  0  0  0  0  0  0
    1.7589    2.2652    0.1256 H   0  0  0  0  0  0  0  0  0  0  0  0
    2.2674    2.7458   -1.5004 H   0  0  0  0  0  0  0  0  0  0  0  0
    0.8231    3.4829   -0.7707 H   0  0  0  0  0  0  0  0  0  0  0  0
   -0.1913    0.1554    1.7759 C   0  0  0  0  0  0  0  0  0  0  0  0
    0.9476   -0.0766    2.1748 O   0  0  0  0  0  0  0  0  0  0  0  0
   -1.1502    0.6393    2.5760 N   0  0  0  0  0  0  0  0  0  0  0  0
   -2.0581    0.8092    2.1736 H   0  0  0  0  0  0  0  0  0  0  0  0
   -0.9568    0.9369    3.9933 C   0  0  0  0  0  0  0  0  0  0  0  0
   -0.1600    1.6750    4.1097 H   0  0  0  0  0  0  0  0  0  0  0  0
   -1.8775    1.3307    4.4266 H   0  0  0  0  0  0  0  0  0  0  0  0
   -0.6678    0.0287    4.5244 H   0  0  0  0  0  0  0  0  0  0  0  0
  5  6  2  0  0  0  0
  5  7  1  0  0  0  0
  2  3  1  0  0  0  0
  2  4  1  0  0  0  0
  2  5  1  0  0  0  0
  1  2  1  0  0  0  0
 24 25  2  0  0  0  0
 24 26  1  0  0  0  0
 20 21  1  0  0  0  0
 20 22  1  0  0  0  0
 20 23  1  0  0  0  0
 16 17  1  0  0  0  0
 16 18  1  0  0  0  0
 16 19  1  0  0  0  0
 14 15  1  0  0  0  0
 14 16  1  0  0  0  0
 14 20  1  0  0  0  0
 11 12  1  0  0  0  0
 11 13  1  0  0  0  0
 11 14  1  0  0  0  0
  9 10  1  0  0  0  0
  9 11  1  0  0  0  0
  9 24  1  0  0  0  0
  7  8  1  0  0  0  0
  7  9  1  0  0  0  0
 28 29  1  0  0  0  0
 28 30  1  0  0  0  0
 28 31  1  0  0  0  0
 26 27  1  0  0  0  0
 26 28  1  0  0  0  0
M  END
$$$$
default_name
  -OEChem-02102213163D

 31 30  0     1  0  0  0  0  0999 V2000
   -3.5895   -3.5013    1.1082 H   0  0  0  0  0  0  0  0  0  0  0  0
   -3.5145   -2.5363    0.6082 C   0  0  0  0  0  0  0  0  0  0  0  0
   -4.2285   -1.8413    1.0452 H   0  0  0  0  0  0  0  0  0  0  0  0
   -3.7155   -2.6583   -0.4538 H   0  0  0  0  0  0  0  0  0  0  0  0
   -2.1155   -1.9963    0.7922 C   0  0  0  0  0  0  0  0  0  0  0  0
   -1.2875   -2.6383    1.4252 O   0  0  0  0  0  0  0  0  0  0  0  0
   -1.8575   -0.8123    0.2402 N   0  0  0  0  0  0  0  0  0  0  0  0
   -2.6005   -0.3333   -0.2478 H   0  0  0  0  0  0  0  0  0  0  0  0
   -0.5675   -0.1203    0.3102 C   0  0  1  0  0  0  0  0  0  0  0  0
    0.1932   -0.7715   -0.1219 H   0  0  0  0  0  0  0  0  0  0  0  0
   -0.6568    1.1713   -0.5294 C   0  0  0  0  0  0  0  0  0  0  0  0
   -1.5616    1.1291   -1.1388 H   0  0  0  0  0  0  0  0  0  0  0  0
   -0.7599    2.0139    0.1579 H   0  0  0  0  0  0  0  0  0  0  0  0
    0.5410    1.4520   -1.4554 C   0  0  0  0  0  0  0  0  0  0  0  0
    1.0022    0.5113   -1.7561 H   0  0  0  0  0  0  0  0  0  0  0  0
    0.1334    2.2302   -2.7099 C   0  0  0  0  0  0  0  0  0  0  0  0
   -0.3450    3.1682   -2.4249 H   0  0  0  0  0  0  0  0  0  0  0  0
    1.0172    2.4486   -3.3097 H   0  0  0  0  0  0  0  0  0  0  0  0
   -0.5581    1.6482   -3.3153 H   0  0  0  0  0  0  0  0  0  0  0  0
    1.5893    2.2755   -0.7083 C   0  0  0  0  0  0  0  0  0  0  0  0
    1.9224    1.7305    0.1749 H   0  0  0  0  0  0  0  0  0  0  0  0
    2.4504    2.4520   -1.3528 H   0  0  0  0  0  0  0  0  0  0  0  0
    1.1666    3.2330   -0.4021 H   0  0  0  0  0  0  0  0  0  0  0  0
   -0.1913    0.1554    1.7759 C   0  0  0  0  0  0  0  0  0  0  0  0
    0.9476   -0.0766    2.1748 O   0  0  0  0  0  0  0  0  0  0  0  0
   -1.1502    0.6393    2.5760 N   0  0  0  0  0  0  0  0  0  0  0  0
   -2.0581    0.8092    2.1736 H   0  0  0  0  0  0  0  0  0  0  0  0
   -0.9568    0.9369    3.9933 C   0  0  0  0  0  0  0  0  0  0  0  0
   -0.1600    1.6750    4.1097 H   0  0  0  0  0  0  0  0  0  0  0  0
   -1.8775    1.3307    4.4266 H   0  0  0  0  0  0  0  0  0  0  0  0
   -0.6678    0.0287    4.5244 H   0  0  0  0  0  0  0  0  0  0  0  0
  5  6  2  0  0  0  0
  5  7  1  0  0  0  0
  2  3  1  0  0  0  0
  2  4  1  0  0  0  0
  2  5  1  0  0  0  0
  1  2  1  0  0  0  0
 24 25  2  0  0  0  0
 24 26  1  0  0  0  0
 20 21  1  0  0  0  0
 20 22  1  0  0  0  0
 20 23  1  0  0  0  0
 16 17  1  0  0  0  0
 16 18  1  0  0  0  0
 16 19  1  0  0  0  0
 14 15  1  0  0  0  0
 14 16  1  0  0  0  0
 14 20  1  0  0  0  0
 11 12  1  0  0  0  0
 11 13  1  0  0  0  0
 11 14  1  0  0  0  0
  9 10  1  0  0  0  0
  9 11  1  0  0  0  0
  9 24  1  0  0  0  0
  7  8  1  0  0  0  0
  7  9  1  0  0  0  0
 28 29  1  0  0  0  0
 28 30  1  0  0  0  0
 28 31  1  0  0  0  0
 26 27  1  0  0  0  0
 26 28  1  0  0  0  0
M  END
$$$$
default_name
  -OEChem-02102213163D

 31 30  0     1  0  0  0  0  0999 V2000
   -3.5895   -3.5013    1.1082 H   0  0  0  0  0  0  0  0  0  0  0  0
   -3.5145   -2.5363    0.6082 C   0  0  0  0  0  0  0  0  0  0  0  0
   -4.2285   -1.8413    1.0452 H   0  0  0  0  0  0  0  0  0  0  0  0
   -3.7155   -2.6583   -0.4538 H   0  0  0  0  0  0  0  0  0  0  0  0
   -2.1155   -1.9963    0.7922 C   0  0  0  0  0  0  0  0  0  0  0  0
   -1.2875   -2.6383    1.4252 O   0  0  0  0  0  0  0  0  0  0  0  0
   -1.8575   -0.8123    0.2402 N   0  0  0  0  0  0  0  0  0  0  0  0
   -2.6005   -0.3333   -0.2478 H   0  0  0  0  0  0  0  0  0  0  0  0
   -0.5675   -0.1203    0.3102 C   0  0  1  0  0  0  0  0  0  0  0  0
    0.1932   -0.7715   -0.1219 H   0  0  0  0  0  0  0  0  0  0  0  0
   -0.6568    1.1713   -0.5294 C   0  0  0  0  0  0  0  0  0  0  0  0
   -1.5616    1.1291   -1.1388 H   0  0  0  0  0  0  0  0  0  0  0  0
   -0.7599    2.0139    0.1579 H   0  0  0  0  0  0  0  0  0  0  0  0
    0.5410    1.4520   -1.4554 C   0  0  0  0  0  0  0  0  0  0  0  0
    0.8357    0.5344   -1.9646 H   0  0  0  0  0  0  0  0  0  0  0  0
    0.2246    2.5233   -2.5031 C   0  0  0  0  0  0  0  0  0  0  0  0
   -0.0879    3.4441   -2.0088 H   0  0  0  0  0  0  0  0  0  0  0  0
    1.1128    2.7242   -3.1026 H   0  0  0  0  0  0  0  0  0  0  0  0
   -0.5700    2.1889   -3.1667 H   0  0  0  0  0  0  0  0  0  0  0  0
    1.7307    1.9370   -0.6280 C   0  0  0  0  0  0  0  0  0  0  0  0
    1.9995    1.1786    0.1073 H   0  0  0  0  0  0  0  0  0  0  0  0
    2.5884    2.1100   -1.2780 H   0  0  0  0  0  0  0  0  0  0  0  0
    1.4769    2.8640   -0.1126 H   0  0  0  0  0  0  0  0  0  0  0  0
   -0.1913    0.1554    1.7759 C   0  0  0  0  0  0  0  0  0  0  0  0
    0.9476   -0.0766    2.1748 O   0  0  0  0  0  0  0  0  0  0  0  0
   -1.1502    0.6393    2.5760 N   0  0  0  0  0  0  0  0  0  0  0  0
   -2.0581    0.8092    2.1736 H   0  0  0  0  0  0  0  0  0  0  0  0
   -0.9568    0.9369    3.9933 C   0  0  0  0  0  0  0  0  0  0  0  0
   -0.1600    1.6750    4.1097 H   0  0  0  0  0  0  0  0  0  0  0  0
   -1.8775    1.3307    4.4266 H   0  0  0  0  0  0  0  0  0  0  0  0
   -0.6678    0.0287    4.5244 H   0  0  0  0  0  0  0  0  0  0  0  0
  5  6  2  0  0  0  0
  5  7  1  0  0  0  0
  2  3  1  0  0  0  0
  2  4  1  0  0  0  0
  2  5  1  0  0  0  0
  1  2  1  0  0  0  0
 24 25  2  0  0  0  0
 24 26  1  0  0  0  0
 20 21  1  0  0  0  0
 20 22  1  0  0  0  0
 20 23  1  0  0  0  0
 16 17  1  0  0  0  0
 16 18  1  0  0  0  0
 16 19  1  0  0  0  0
 14 15  1  0  0  0  0
 14 16  1  0  0  0  0
 14 20  1  0  0  0  0
 11 12  1  0  0  0  0
 11 13  1  0  0  0  0
 11 14  1  0  0  0  0
  9 10  1  0  0  0  0
  9 11  1  0  0  0  0
  9 24  1  0  0  0  0
  7  8  1  0  0  0  0
  7  9  1  0  0  0  0
 28 29  1  0  0  0  0
 28 30  1  0  0  0  0
 28 31  1  0  0  0  0
 26 27  1  0  0  0  0
 26 28  1  0  0  0  0
M  END
$$$$
default_name
  -OEChem-02102213163D

 31 30  0     1  0  0  0  0  0999 V2000
   -3.5895   -3.5013    1.1082 H   0  0  0  0  0  0  0  0  0  0  0  0
   -3.5145   -2.5363    0.6082 C   0  0  0  0  0  0  0  0  0  0  0  0
   -4.2285   -1.8413    1.0452 H   0  0  0  0  0  0  0  0  0  0  0  0
   -3.7155   -2.6583   -0.4538 H   0  0  0  0  0  0  0  0  0  0  0  0
   -2.1155   -1.9963    0.7922 C   0  0  0  0  0  0  0  0  0  0  0  0
   -1.2875   -2.6383    1.4252 O   0  0  0  0  0  0  0  0  0  0  0  0
   -1.8575   -0.8123    0.2402 N   0  0  0  0  0  0  0  0  0  0  0  0
   -2.6005   -0.3333   -0.2478 H   0  0  0  0  0  0  0  0  0  0  0  0
   -0.5675   -0.1203    0.3102 C   0  0  1  0  0  0  0  0  0  0  0  0
    0.1932   -0.7715   -0.1219 H   0  0  0  0  0  0  0  0  0  0  0  0
   -0.6568    1.1713   -0.5294 C   0  0  0  0  0  0  0  0  0  0  0  0
   -1.6694    1.2588   -0.9278 H   0  0  0  0  0  0  0  0  0  0  0  0
   -0.4895    2.0196    0.1379 H   0  0  0  0  0  0  0  0  0  0  0  0
    0.3377    1.2790   -1.7000 C   0  0  0  0  0  0  0  0  0  0  0  0
    0.1939    0.4422   -2.3835 H   0  0  0  0  0  0  0  0  0  0  0  0
    0.1787    2.5893   -2.4765 C   0  0  0  0  0  0  0  0  0  0  0  0
    0.3041    3.4374   -1.8019 H   0  0  0  0  0  0  0  0  0  0  0  0
    0.9325    2.6443   -3.2622 H   0  0  0  0  0  0  0  0  0  0  0  0
   -0.8046    2.6452   -2.9385 H   0  0  0  0  0  0  0  0  0  0  0  0
    1.7692    1.2152   -1.1687 C   0  0  0  0  0  0  0  0  0  0  0  0
    1.9216    0.2759   -0.6372 H   0  0  0  0  0  0  0  0  0  0  0  0
    2.4749    1.2635   -1.9981 H   0  0  0  0  0  0  0  0  0  0  0  0
    1.9551    2.0476   -0.4891 H   0  0  0  0  0  0  0  0  0  0  0  0
   -0.1913    0.1554    1.7759 C   0  0  0  0  0  0  0  0  0  0  0  0
    0.9476   -0.0766    2.1748 O   0  0  0  0  0  0  0  0  0  0  0  0
   -1.1502    0.6393    2.5760 N   0  0  0  0  0  0  0  0  0  0  0  0
   -2.0581    0.8092    2.1736 H   0  0  0  0  0  0  0  0  0  0  0  0
   -0.9568    0.9369    3.9933 C   0  0  0  0  0  0  0  0  0  0  0  0
   -0.1600    1.6750    4.1097 H   0  0  0  0  0  0  0  0  0  0  0  0
   -1.8775    1.3307    4.4266 H   0  0  0  0  0  0  0  0  0  0  0  0
   -0.6678    0.0287    4.5244 H   0  0  0  0  0  0  0  0  0  0  0  0
  5  6  2  0  0  0  0
  5  7  1  0  0  0  0
  2  3  1  0  0  0  0
  2  4  1  0  0  0  0
  2  5  1  0  0  0  0
  1  2  1  0  0  0  0
 24 25  2  0  0  0  0
 24 26  1  0  0  0  0
 20 21  1  0  0  0  0
 20 22  1  0  0  0  0
 20 23  1  0  0  0  0
 16 17  1  0  0  0  0
 16 18  1  0  0  0  0
 16 19  1  0  0  0  0
 14 15  1  0  0  0  0
 14 16  1  0  0  0  0
 14 20  1  0  0  0  0
 11 12  1  0  0  0  0
 11 13  1  0  0  0  0
 11 14  1  0  0  0  0
  9 10  1  0  0  0  0
  9 11  1  0  0  0  0
  9 24  1  0  0  0  0
  7  8  1  0  0  0  0
  7  9  1  0  0  0  0
 28 29  1  0  0  0  0
 28 30  1  0  0  0  0
 28 31  1  0  0  0  0
 26 27  1  0  0  0  0
 26 28  1  0  0  0  0
M  END
$$$$
default_name
  -OEChem-02102213163D

 31 30  0     1  0  0  0  0  0999 V2000
   -3.5895   -3.5013    1.1082 H   0  0  0  0  0  0  0  0  0  0  0  0
   -3.5145   -2.5363    0.6082 C   0  0  0  0  0  0  0  0  0  0  0  0
   -4.2285   -1.8413    1.0452 H   0  0  0  0  0  0  0  0  0  0  0  0
   -3.7155   -2.6583   -0.4538 H   0  0  0  0  0  0  0  0  0  0  0  0
   -2.1155   -1.9963    0.7922 C   0  0  0  0  0  0  0  0  0  0  0  0
   -1.2875   -2.6383    1.4252 O   0  0  0  0  0  0  0  0  0  0  0  0
   -1.8575   -0.8123    0.2402 N   0  0  0  0  0  0  0  0  0  0  0  0
   -2.6005   -0.3333   -0.2478 H   0  0  0  0  0  0  0  0  0  0  0  0
   -0.5675   -0.1203    0.3102 C   0  0  1  0  0  0  0  0  0  0  0  0
    0.1932   -0.7715   -0.1219 H   0  0  0  0  0  0  0  0  0  0  0  0
   -0.6568    1.1713   -0.5294 C   0  0  0  0  0  0  0  0  0  0  0  0
   -1.6694    1.2588   -0.9278 H   0  0  0  0  0  0  0  0  0  0  0  0
   -0.4895    2.0196    0.1379 H   0  0  0  0  0  0  0  0  0  0  0  0
    0.3377    1.2790   -1.7000 C   0  0  0  0  0  0  0  0  0  0  0  0
    0.0298    0.6142   -2.5070 H   0  0  0  0  0  0  0  0  0  0  0  0
    0.4406    2.7072   -2.2432 C   0  0  0  0  0  0  0  0  0  0  0  0
    0.7326    3.3880   -1.4424 H   0  0  0  0  0  0  0  0  0  0  0  0
    1.1893    2.7459   -3.0347 H   0  0  0  0  0  0  0  0  0  0  0  0
   -0.5127    3.0312   -2.6550 H   0  0  0  0  0  0  0  0  0  0  0  0
    1.7289    0.8482   -1.2368 C   0  0  0  0  0  0  0  0  0  0  0  0
    1.6927   -0.1788   -0.8735 H   0  0  0  0  0  0  0  0  0  0  0  0
    2.4290    0.8972   -2.0708 H   0  0  0  0  0  0  0  0  0  0  0  0
    2.0771    1.5012   -0.4358 H   0  0  0  0  0  0  0  0  0  0  0  0
   -0.1913    0.1554    1.7759 C   0  0  0  0  0  0  0  0  0  0  0  0
    0.9476   -0.0766    2.1748 O   0  0  0  0  0  0  0  0  0  0  0  0
   -1.1502    0.6393    2.5760 N   0  0  0  0  0  0  0  0  0  0  0  0
   -2.0581    0.8092    2.1736 H   0  0  0  0  0  0  0  0  0  0  0  0
   -0.9568    0.9369    3.9933 C   0  0  0  0  0  0  0  0  0  0  0  0
   -0.1600    1.6750    4.1097 H   0  0  0  0  0  0  0  0  0  0  0  0
   -1.8775    1.3307    4.4266 H   0  0  0  0  0  0  0  0  0  0  0  0
   -0.6678    0.0287    4.5244 H   0  0  0  0  0  0  0  0  0  0  0  0
  5  6  2  0  0  0  0
  5  7  1  0  0  0  0
  2  3  1  0  0  0  0
  2  4  1  0  0  0  0
  2  5  1  0  0  0  0
  1  2  1  0  0  0  0
 24 25  2  0  0  0  0
 24 26  1  0  0  0  0
 20 21  1  0  0  0  0
 20 22  1  0  0  0  0
 20 23  1  0  0  0  0
 16 17  1  0  0  0  0
 16 18  1  0  0  0  0
 16 19  1  0  0  0  0
 14 15  1  0  0  0  0
 14 16  1  0  0  0  0
 14 20  1  0  0  0  0
 11 12  1  0  0  0  0
 11 13  1  0  0  0  0
 11 14  1  0  0  0  0
  9 10  1  0  0  0  0
  9 11  1  0  0  0  0
  9 24  1  0  0  0  0
  7  8  1  0  0  0  0
  7  9  1  0  0  0  0
 28 29  1  0  0  0  0
 28 30  1  0  0  0  0
 28 31  1  0  0  0  0
 26 27  1  0  0  0  0
 26 28  1  0  0  0  0
M  END
$$$$
default_name
  -OEChem-02102213163D

 31 30  0     1  0  0  0  0  0999 V2000
   -3.5895   -3.5013    1.1082 H   0  0  0  0  0  0  0  0  0  0  0  0
   -3.5145   -2.5363    0.6082 C   0  0  0  0  0  0  0  0  0  0  0  0
   -4.2285   -1.8413    1.0452 H   0  0  0  0  0  0  0  0  0  0  0  0
   -3.7155   -2.6583   -0.4538 H   0  0  0  0  0  0  0  0  0  0  0  0
   -2.1155   -1.9963    0.7922 C   0  0  0  0  0  0  0  0  0  0  0  0
   -1.2875   -2.6383    1.4252 O   0  0  0  0  0  0  0  0  0  0  0  0
   -1.8575   -0.8123    0.2402 N   0  0  0  0  0  0  0  0  0  0  0  0
   -2.6005   -0.3333   -0.2478 H   0  0  0  0  0  0  0  0  0  0  0  0
   -0.5675   -0.1203    0.3102 C   0  0  1  0  0  0  0  0  0  0  0  0
    0.1932   -0.7715   -0.1219 H   0  0  0  0  0  0  0  0  0  0  0  0
   -0.6568    1.1713   -0.5294 C   0  0  0  0  0  0  0  0  0  0  0  0
   -1.6694    1.2588   -0.9278 H   0  0  0  0  0  0  0  0  0  0  0  0
   -0.4895    2.0196    0.1379 H   0  0  0  0  0  0  0  0  0  0  0  0
    0.3377    1.2790   -1.7000 C   0  0  0  0  0  0  0  0  0  0  0  0
   -0.0970    0.8332   -2.5946 H   0  0  0  0  0  0  0  0  0  0  0  0
    0.7210    2.7305   -2.0028 C   0  0  0  0  0  0  0  0  0  0  0  0
    1.1434    3.1959   -1.1111 H   0  0  0  0  0  0  0  0  0  0  0  0
    1.4614    2.7554   -2.8027 H   0  0  0  0  0  0  0  0  0  0  0  0
   -0.1497    3.2992   -2.3219 H   0  0  0  0  0  0  0  0  0  0  0  0
    1.6164    0.5129   -1.3632 C   0  0  0  0  0  0  0  0  0  0  0  0
    1.3778   -0.5336   -1.1737 H   0  0  0  0  0  0  0  0  0  0  0  0
    2.3112    0.5645   -2.2015 H   0  0  0  0  0  0  0  0  0  0  0  0
    2.0884    0.9405   -0.4778 H   0  0  0  0  0  0  0  0  0  0  0  0
   -0.1913    0.1554    1.7759 C   0  0  0  0  0  0  0  0  0  0  0  0
    0.9476   -0.0766    2.1748 O   0  0  0  0  0  0  0  0  0  0  0  0
   -1.1502    0.6393    2.5760 N   0  0  0  0  0  0  0  0  0  0  0  0
   -2.0581    0.8092    2.1736 H   0  0  0  0  0  0  0  0  0  0  0  0
   -0.9568    0.9369    3.9933 C   0  0  0  0  0  0  0  0  0  0  0  0
   -0.1600    1.6750    4.1097 H   0  0  0  0  0  0  0  0  0  0  0  0
   -1.8775    1.3307    4.4266 H   0  0  0  0  0  0  0  0  0  0  0  0
   -0.6678    0.0287    4.5244 H   0  0  0  0  0  0  0  0  0  0  0  0
  5  6  2  0  0  0  0
  5  7  1  0  0  0  0
  2  3  1  0  0  0  0
  2  4  1  0  0  0  0
  2  5  1  0  0  0  0
  1  2  1  0  0  0  0
 24 25  2  0  0  0  0
 24 26  1  0  0  0  0
 20 21  1  0  0  0  0
 20 22  1  0  0  0  0
 20 23  1  0  0  0  0
 16 17  1  0  0  0  0
 16 18  1  0  0  0  0
 16 19  1  0  0  0  0
 14 15  1  0  0  0  0
 14 16  1  0  0  0  0
 14 20  1  0  0  0  0
 11 12  1  0  0  0  0
 11 13  1  0  0  0  0
 11 14  1  0  0  0  0
  9 10  1  0  0  0  0
  9 11  1  0  0  0  0
  9 24  1  0  0  0  0
  7  8  1  0  0  0  0
  7  9  1  0  0  0  0
 28 29  1  0  0  0  0
 28 30  1  0  0  0  0
 28 31  1  0  0  0  0
 26 27  1  0  0  0  0
 26 28  1  0  0  0  0
M  END
$$$$
default_name
  -OEChem-02102213163D

 31 30  0     1  0  0  0  0  0999 V2000
   -3.5895   -3.5013    1.1082 H   0  0  0  0  0  0  0  0  0  0  0  0
   -3.5145   -2.5363    0.6082 C   0  0  0  0  0  0  0  0  0  0  0  0
   -4.2285   -1.8413    1.0452 H   0  0  0  0  0  0  0  0  0  0  0  0
   -3.7155   -2.6583   -0.4538 H   0  0  0  0  0  0  0  0  0  0  0  0
   -2.1155   -1.9963    0.7922 C   0  0  0  0  0  0  0  0  0  0  0  0
   -1.2875   -2.6383    1.4252 O   0  0  0  0  0  0  0  0  0  0  0  0
   -1.8575   -0.8123    0.2402 N   0  0  0  0  0  0  0  0  0  0  0  0
   -2.6005   -0.3333   -0.2478 H   0  0  0  0  0  0  0  0  0  0  0  0
   -0.5675   -0.1203    0.3102 C   0  0  1  0  0  0  0  0  0  0  0  0
    0.1932   -0.7715   -0.1219 H   0  0  0  0  0  0  0  0  0  0  0  0
   -0.6568    1.1713   -0.5294 C   0  0  0  0  0  0  0  0  0  0  0  0
   -1.6694    1.2588   -0.9278 H   0  0  0  0  0  0  0  0  0  0  0  0
   -0.4895    2.0196    0.1379 H   0  0  0  0  0  0  0  0  0  0  0  0
    0.3377    1.2790   -1.7000 C   0  0  0  0  0  0  0  0  0  0  0  0
   -0.1780    1.0844   -2.6403 H   0  0  0  0  0  0  0  0  0  0  0  0
    1.0008    2.6576   -1.7718 C   0  0  0  0  0  0  0  0  0  0  0  0
    1.5083    2.8741   -0.8307 H   0  0  0  0  0  0  0  0  0  0  0  0
    1.7304    2.6724   -2.5818 H   0  0  0  0  0  0  0  0  0  0  0  0
    0.2597    3.4309   -1.9620 H   0  0  0  0  0  0  0  0  0  0  0  0
    1.4396    0.2324   -1.5393 C   0  0  0  0  0  0  0  0  0  0  0  0
    0.9984   -0.7641   -1.5172 H   0  0  0  0  0  0  0  0  0  0  0  0
    2.1296    0.2882   -2.3812 H   0  0  0  0  0  0  0  0  0  0  0  0
    1.9881    0.4037   -0.6124 H   0  0  0  0  0  0  0  0  0  0  0  0
   -0.1913    0.1554    1.7759 C   0  0  0  0  0  0  0  0  0  0  0  0
    0.9476   -0.0766    2.1748 O   0  0  0  0  0  0  0  0  0  0  0  0
   -1.1502    0.6393    2.5760 N   0  0  0  0  0  0  0  0  0  0  0  0
   -2.0581    0.8092    2.1736 H   0  0  0  0  0  0  0  0  0  0  0  0
   -0.9568    0.9369    3.9933 C   0  0  0  0  0  0  0  0  0  0  0  0
   -0.1600    1.6750    4.1097 H   0  0  0  0  0  0  0  0  0  0  0  0
   -1.8775    1.3307    4.4266 H   0  0  0  0  0  0  0  0  0  0  0  0
   -0.6678    0.0287    4.5244 H   0  0  0  0  0  0  0  0  0  0  0  0
  5  6  2  0  0  0  0
  5  7  1  0  0  0  0
  2  3  1  0  0  0  0
  2  4  1  0  0  0  0
  2  5  1  0  0  0  0
  1  2  1  0  0  0  0
 24 25  2  0  0  0  0
 24 26  1  0  0  0  0
 20 21  1  0  0  0  0
 20 22  1  0  0  0  0
 20 23  1  0  0  0  0
 16 17  1  0  0  0  0
 16 18  1  0  0  0  0
 16 19  1  0  0  0  0
 14 15  1  0  0  0  0
 14 16  1  0  0  0  0
 14 20  1  0  0  0  0
 11 12  1  0  0  0  0
 11 13  1  0  0  0  0
 11 14  1  0  0  0  0
  9 10  1  0  0  0  0
  9 11  1  0  0  0  0
  9 24  1  0  0  0  0
  7  8  1  0  0  0  0
  7  9  1  0  0  0  0
 28 29  1  0  0  0  0
 28 30  1  0  0  0  0
 28 31  1  0  0  0  0
 26 27  1  0  0  0  0
 26 28  1  0  0  0  0
M  END
$$$$
default_name
  -OEChem-02102213163D

 31 30  0     1  0  0  0  0  0999 V2000
   -3.5895   -3.5013    1.1082 H   0  0  0  0  0  0  0  0  0  0  0  0
   -3.5145   -2.5363    0.6082 C   0  0  0  0  0  0  0  0  0  0  0  0
   -4.2285   -1.8413    1.0452 H   0  0  0  0  0  0  0  0  0  0  0  0
   -3.7155   -2.6583   -0.4538 H   0  0  0  0  0  0  0  0  0  0  0  0
   -2.1155   -1.9963    0.7922 C   0  0  0  0  0  0  0  0  0  0  0  0
   -1.2875   -2.6383    1.4252 O   0  0  0  0  0  0  0  0  0  0  0  0
   -1.8575   -0.8123    0.2402 N   0  0  0  0  0  0  0  0  0  0  0  0
   -2.6005   -0.3333   -0.2478 H   0  0  0  0  0  0  0  0  0  0  0  0
   -0.5675   -0.1203    0.3102 C   0  0  1  0  0  0  0  0  0  0  0  0
    0.1932   -0.7715   -0.1219 H   0  0  0  0  0  0  0  0  0  0  0  0
   -0.6568    1.1713   -0.5294 C   0  0  0  0  0  0  0  0  0  0  0  0
   -1.6694    1.2588   -0.9278 H   0  0  0  0  0  0  0  0  0  0  0  0
   -0.4895    2.0196    0.1379 H   0  0  0  0  0  0  0  0  0  0  0  0
    0.3377    1.2790   -1.7000 C   0  0  0  0  0  0  0  0  0  0  0  0
   -0.2077    1.3506   -2.6410 H   0  0  0  0  0  0  0  0  0  0  0  0
    1.2609    2.4935   -1.5659 C   0  0  0  0  0  0  0  0  0  0  0  0
    1.8025    2.4446   -0.6202 H   0  0  0  0  0  0  0  0  0  0  0  0
    1.9778    2.5023   -2.3873 H   0  0  0  0  0  0  0  0  0  0  0  0
    0.6876    3.4175   -1.5996 H   0  0  0  0  0  0  0  0  0  0  0  0
    1.2104    0.0256   -1.7530 C   0  0  0  0  0  0  0  0  0  0  0  0
    0.5804   -0.8546   -1.8807 H   0  0  0  0  0  0  0  0  0  0  0  0
    1.8966    0.0871   -2.5976 H   0  0  0  0  0  0  0  0  0  0  0  0
    1.7833   -0.0726   -0.8303 H   0  0  0  0  0  0  0  0  0  0  0  0
   -0.1913    0.1554    1.7759 C   0  0  0  0  0  0  0  0  0  0  0  0
    0.9476   -0.0766    2.1748 O   0  0  0  0  0  0  0  0  0  0  0  0
   -1.1502    0.6393    2.5760 N   0  0  0  0  0  0  0  0  0  0  0  0
   -2.0581    0.8092    2.1736 H   0  0  0  0  0  0  0  0  0  0  0  0
   -0.9568    0.9369    3.9933 C   0  0  0  0  0  0  0  0  0  0  0  0
   -0.1600    1.6750    4.1097 H   0  0  0  0  0  0  0  0  0  0  0  0
   -1.8775    1.3307    4.4266 H   0  0  0  0  0  0  0  0  0  0  0  0
   -0.6678    0.0287    4.5244 H   0  0  0  0  0  0  0  0  0  0  0  0
  5  6  2  0  0  0  0
  5  7  1  0  0  0  0
  2  3  1  0  0  0  0
  2  4  1  0  0  0  0
  2  5  1  0  0  0  0
  1  2  1  0  0  0  0
 24 25  2  0  0  0  0
 24 26  1  0  0  0  0
 20 21  1  0  0  0  0
 20 22  1  0  0  0  0
 20 23  1  0  0  0  0
 16 17  1  0  0  0  0
 16 18  1  0  0  0  0
 16 19  1  0  0  0  0
 14 15  1  0  0  0  0
 14 16  1  0  0  0  0
 14 20  1  0  0  0  0
 11 12  1  0  0  0  0
 11 13  1  0  0  0  0
 11 14  1  0  0  0  0
  9 10  1  0  0  0  0
  9 11  1  0  0  0  0
  9 24  1  0  0  0  0
  7  8  1  0  0  0  0
  7  9  1  0  0  0  0
 28 29  1  0  0  0  0
 28 30  1  0  0  0  0
 28 31  1  0  0  0  0
 26 27  1  0  0  0  0
 26 28  1  0  0  0  0
M  END
$$$$
default_name
  -OEChem-02102213163D

 31 30  0     1  0  0  0  0  0999 V2000
   -3.5895   -3.5013    1.1082 H   0  0  0  0  0  0  0  0  0  0  0  0
   -3.5145   -2.5363    0.6082 C   0  0  0  0  0  0  0  0  0  0  0  0
   -4.2285   -1.8413    1.0452 H   0  0  0  0  0  0  0  0  0  0  0  0
   -3.7155   -2.6583   -0.4538 H   0  0  0  0  0  0  0  0  0  0  0  0
   -2.1155   -1.9963    0.7922 C   0  0  0  0  0  0  0  0  0  0  0  0
   -1.2875   -2.6383    1.4252 O   0  0  0  0  0  0  0  0  0  0  0  0
   -1.8575   -0.8123    0.2402 N   0  0  0  0  0  0  0  0  0  0  0  0
   -2.6005   -0.3333   -0.2478 H   0  0  0  0  0  0  0  0  0  0  0  0
   -0.5675   -0.1203    0.3102 C   0  0  1  0  0  0  0  0  0  0  0  0
    0.1932   -0.7715   -0.1219 H   0  0  0  0  0  0  0  0  0  0  0  0
   -0.6568    1.1713   -0.5294 C   0  0  0  0  0  0  0  0  0  0  0  0
   -1.6694    1.2588   -0.9278 H   0  0  0  0  0  0  0  0  0  0  0  0
   -0.4895    2.0196    0.1379 H   0  0  0  0  0  0  0  0  0  0  0  0
    0.3377    1.2790   -1.7000 C   0  0  0  0  0  0  0  0  0  0  0  0
   -0.1839    1.6136   -2.5966 H   0  0  0  0  0  0  0  0  0  0  0  0
    1.4836    2.2495   -1.3991 C   0  0  0  0  0  0  0  0  0  0  0  0
    2.0061    1.9367   -0.4941 H   0  0  0  0  0  0  0  0  0  0  0  0
    2.1868    2.2568   -2.2322 H   0  0  0  0  0  0  0  0  0  0  0  0
    1.1049    3.2597   -1.2597 H   0  0  0  0  0  0  0  0  0  0  0  0
    0.9444   -0.0933   -1.9899 C   0  0  0  0  0  0  0  0  0  0  0  0
    0.1522   -0.7991   -2.2394 H   0  0  0  0  0  0  0  0  0  0  0  0
    1.6281   -0.0251   -2.8361 H   0  0  0  0  0  0  0  0  0  0  0  0
    1.4877   -0.4559   -1.1166 H   0  0  0  0  0  0  0  0  0  0  0  0
   -0.1913    0.1554    1.7759 C   0  0  0  0  0  0  0  0  0  0  0  0
    0.9476   -0.0766    2.1748 O   0  0  0  0  0  0  0  0  0  0  0  0
   -1.1502    0.6393    2.5760 N   0  0  0  0  0  0  0  0  0  0  0  0
   -2.0581    0.8092    2.1736 H   0  0  0  0  0  0  0  0  0  0  0  0
   -0.9568    0.9369    3.9933 C   0  0  0  0  0  0  0  0  0  0  0  0
   -0.1600    1.6750    4.1097 H   0  0  0  0  0  0  0  0  0  0  0  0
   -1.8775    1.3307    4.4266 H   0  0  0  0  0  0  0  0  0  0  0  0
   -0.6678    0.0287    4.5244 H   0  0  0  0  0  0  0  0  0  0  0  0
  5  6  2  0  0  0  0
  5  7  1  0  0  0  0
  2  3  1  0  0  0  0
  2  4  1  0  0  0  0
  2  5  1  0  0  0  0
  1  2  1  0  0  0  0
 24 25  2  0  0  0  0
 24 26  1  0  0  0  0
 20 21  1  0  0  0  0
 20 22  1  0  0  0  0
 20 23  1  0  0  0  0
 16 17  1  0  0  0  0
 16 18  1  0  0  0  0
 16 19  1  0  0  0  0
 14 15  1  0  0  0  0
 14 16  1  0  0  0  0
 14 20  1  0  0  0  0
 11 12  1  0  0  0  0
 11 13  1  0  0  0  0
 11 14  1  0  0  0  0
  9 10  1  0  0  0  0
  9 11  1  0  0  0  0
  9 24  1  0  0  0  0
  7  8  1  0  0  0  0
  7  9  1  0  0  0  0
 28 29  1  0  0  0  0
 28 30  1  0  0  0  0
 28 31  1  0  0  0  0
 26 27  1  0  0  0  0
 26 28  1  0  0  0  0
M  END
$$$$
default_name
  -OEChem-02102213163D

 31 30  0     1  0  0  0  0  0999 V2000
   -3.5895   -3.5013    1.1082 H   0  0  0  0  0  0  0  0  0  0  0  0
   -3.5145   -2.5363    0.6082 C   0  0  0  0  0  0  0  0  0  0  0  0
   -4.2285   -1.8413    1.0452 H   0  0  0  0  0  0  0  0  0  0  0  0
   -3.7155   -2.6583   -0.4538 H   0  0  0  0  0  0  0  0  0  0  0  0
   -2.1155   -1.9963    0.7922 C   0  0  0  0  0  0  0  0  0  0  0  0
   -1.2875   -2.6383    1.4252 O   0  0  0  0  0  0  0  0  0  0  0  0
   -1.8575   -0.8123    0.2402 N   0  0  0  0  0  0  0  0  0  0  0  0
   -2.6005   -0.3333   -0.2478 H   0  0  0  0  0  0  0  0  0  0  0  0
   -0.5675   -0.1203    0.3102 C   0  0  1  0  0  0  0  0  0  0  0  0
    0.1932   -0.7715   -0.1219 H   0  0  0  0  0  0  0  0  0  0  0  0
   -0.6568    1.1713   -0.5294 C   0  0  0  0  0  0  0  0  0  0  0  0
   -1.6694    1.2588   -0.9278 H   0  0  0  0  0  0  0  0  0  0  0  0
   -0.4895    2.0196    0.1379 H   0  0  0  0  0  0  0  0  0  0  0  0
    0.3377    1.2790   -1.7000 C   0  0  0  0  0  0  0  0  0  0  0  0
   -0.1085    1.8556   -2.5103 H   0  0  0  0  0  0  0  0  0  0  0  0
    1.6537    1.9421   -1.2829 C   0  0  0  0  0  0  0  0  0  0  0  0
    2.1050    1.3849   -0.4608 H   0  0  0  0  0  0  0  0  0  0  0  0
    2.3433    1.9526   -2.1273 H   0  0  0  0  0  0  0  0  0  0  0  0
    1.4830    2.9684   -0.9652 H   0  0  0  0  0  0  0  0  0  0  0  0
    0.6598   -0.1162   -2.2338 C   0  0  0  0  0  0  0  0  0  0  0  0
   -0.2569   -0.6013   -2.5688 H   0  0  0  0  0  0  0  0  0  0  0  0
    1.3423   -0.0408   -3.0804 H   0  0  0  0  0  0  0  0  0  0  0  0
    1.1217   -0.7202   -1.4520 H   0  0  0  0  0  0  0  0  0  0  0  0
   -0.1913    0.1554    1.7759 C   0  0  0  0  0  0  0  0  0  0  0  0
    0.9476   -0.0766    2.1748 O   0  0  0  0  0  0  0  0  0  0  0  0
   -1.1502    0.6393    2.5760 N   0  0  0  0  0  0  0  0  0  0  0  0
   -2.0581    0.8092    2.1736 H   0  0  0  0  0  0  0  0  0  0  0  0
   -0.9568    0.9369    3.9933 C   0  0  0  0  0  0  0  0  0  0  0  0
   -0.1600    1.6750    4.1097 H   0  0  0  0  0  0  0  0  0  0  0  0
   -1.8775    1.3307    4.4266 H   0  0  0  0  0  0  0  0  0  0  0  0
   -0.6678    0.0287    4.5244 H   0  0  0  0  0  0  0  0  0  0  0  0
  5  6  2  0  0  0  0
  5  7  1  0  0  0  0
  2  3  1  0  0  0  0
  2  4  1  0  0  0  0
  2  5  1  0  0  0  0
  1  2  1  0  0  0  0
 24 25  2  0  0  0  0
 24 26  1  0  0  0  0
 20 21  1  0  0  0  0
 20 22  1  0  0  0  0
 20 23  1  0  0  0  0
 16 17  1  0  0  0  0
 16 18  1  0  0  0  0
 16 19  1  0  0  0  0
 14 15  1  0  0  0  0
 14 16  1  0  0  0  0
 14 20  1  0  0  0  0
 11 12  1  0  0  0  0
 11 13  1  0  0  0  0
 11 14  1  0  0  0  0
  9 10  1  0  0  0  0
  9 11  1  0  0  0  0
  9 24  1  0  0  0  0
  7  8  1  0  0  0  0
  7  9  1  0  0  0  0
 28 29  1  0  0  0  0
 28 30  1  0  0  0  0
 28 31  1  0  0  0  0
 26 27  1  0  0  0  0
 26 28  1  0  0  0  0
M  END
$$$$
default_name
  -OEChem-02102213163D

 31 30  0     1  0  0  0  0  0999 V2000
   -3.5895   -3.5013    1.1082 H   0  0  0  0  0  0  0  0  0  0  0  0
   -3.5145   -2.5363    0.6082 C   0  0  0  0  0  0  0  0  0  0  0  0
   -4.2285   -1.8413    1.0452 H   0  0  0  0  0  0  0  0  0  0  0  0
   -3.7155   -2.6583   -0.4538 H   0  0  0  0  0  0  0  0  0  0  0  0
   -2.1155   -1.9963    0.7922 C   0  0  0  0  0  0  0  0  0  0  0  0
   -1.2875   -2.6383    1.4252 O   0  0  0  0  0  0  0  0  0  0  0  0
   -1.8575   -0.8123    0.2402 N   0  0  0  0  0  0  0  0  0  0  0  0
   -2.6005   -0.3333   -0.2478 H   0  0  0  0  0  0  0  0  0  0  0  0
   -0.5675   -0.1203    0.3102 C   0  0  1  0  0  0  0  0  0  0  0  0
    0.1932   -0.7715   -0.1219 H   0  0  0  0  0  0  0  0  0  0  0  0
   -0.6568    1.1713   -0.5294 C   0  0  0  0  0  0  0  0  0  0  0  0
   -1.6694    1.2588   -0.9278 H   0  0  0  0  0  0  0  0  0  0  0  0
   -0.4895    2.0196    0.1379 H   0  0  0  0  0  0  0  0  0  0  0  0
    0.3377    1.2790   -1.7000 C   0  0  0  0  0  0  0  0  0  0  0  0
    0.0136    2.0601   -2.3877 H   0  0  0  0  0  0  0  0  0  0  0  0
    1.7596    1.5922   -1.2251 C   0  0  0  0  0  0  0  0  0  0  0  0
    2.0926    0.8269   -0.5227 H   0  0  0  0  0  0  0  0  0  0  0  0
    2.4364    1.6104   -2.0797 H   0  0  0  0  0  0  0  0  0  0  0  0
    1.7963    2.5634   -0.7363 H   0  0  0  0  0  0  0  0  0  0  0  0
    0.3760   -0.0416   -2.4681 C   0  0  0  0  0  0  0  0  0  0  0  0
   -0.6192   -0.2746   -2.8465 H   0  0  0  0  0  0  0  0  0  0  0  0
    1.0587    0.0411   -3.3138 H   0  0  0  0  0  0  0  0  0  0  0  0
    0.7100   -0.8473   -1.8134 H   0  0  0  0  0  0  0  0  0  0  0  0
   -0.1913    0.1554    1.7759 C   0  0  0  0  0  0  0  0  0  0  0  0
    0.9476   -0.0766    2.1748 O   0  0  0  0  0  0  0  0  0  0  0  0
   -1.1502    0.6393    2.5760 N   0  0  0  0  0  0  0  0  0  0  0  0
   -2.0581    0.8092    2.1736 H   0  0  0  0  0  0  0  0  0  0  0  0
   -0.9568    0.9369    3.9933 C   0  0  0  0  0  0  0  0  0  0  0  0
   -0.1600    1.6750    4.1097 H   0  0  0  0  0  0  0  0  0  0  0  0
   -1.8775    1.3307    4.4266 H   0  0  0  0  0  0  0  0  0  0  0  0
   -0.6678    0.0287    4.5244 H   0  0  0  0  0  0  0  0  0  0  0  0
  5  6  2  0  0  0  0
  5  7  1  0  0  0  0
  2  3  1  0  0  0  0
  2  4  1  0  0  0  0
  2  5  1  0  0  0  0
  1  2  1  0  0  0  0
 24 25  2  0  0  0  0
 24 26  1  0  0  0  0
 20 21  1  0  0  0  0
 20 22  1  0  0  0  0
 20 23  1  0  0  0  0
 16 17  1  0  0  0  0
 16 18  1  0  0  0  0
 16 19  1  0  0  0  0
 14 15  1  0  0  0  0
 14 16  1  0  0  0  0
 14 20  1  0  0  0  0
 11 12  1  0  0  0  0
 11 13  1  0  0  0  0
 11 14  1  0  0  0  0
  9 10  1  0  0  0  0
  9 11  1  0  0  0  0
  9 24  1  0  0  0  0
  7  8  1  0  0  0  0
  7  9  1  0  0  0  0
 28 29  1  0  0  0  0
 28 30  1  0  0  0  0
 28 31  1  0  0  0  0
 26 27  1  0  0  0  0
 26 28  1  0  0  0  0
M  END
$$$$
default_name
  -OEChem-02102213163D

 31 30  0     1  0  0  0  0  0999 V2000
   -3.5895   -3.5013    1.1082 H   0  0  0  0  0  0  0  0  0  0  0  0
   -3.5145   -2.5363    0.6082 C   0  0  0  0  0  0  0  0  0  0  0  0
   -4.2285   -1.8413    1.0452 H   0  0  0  0  0  0  0  0  0  0  0  0
   -3.7155   -2.6583   -0.4538 H   0  0  0  0  0  0  0  0  0  0  0  0
   -2.1155   -1.9963    0.7922 C   0  0  0  0  0  0  0  0  0  0  0  0
   -1.2875   -2.6383    1.4252 O   0  0  0  0  0  0  0  0  0  0  0  0
   -1.8575   -0.8123    0.2402 N   0  0  0  0  0  0  0  0  0  0  0  0
   -2.6005   -0.3333   -0.2478 H   0  0  0  0  0  0  0  0  0  0  0  0
   -0.5675   -0.1203    0.3102 C   0  0  1  0  0  0  0  0  0  0  0  0
    0.1932   -0.7715   -0.1219 H   0  0  0  0  0  0  0  0  0  0  0  0
   -0.6568    1.1713   -0.5294 C   0  0  0  0  0  0  0  0  0  0  0  0
   -1.6694    1.2588   -0.9278 H   0  0  0  0  0  0  0  0  0  0  0  0
   -0.4895    2.0196    0.1379 H   0  0  0  0  0  0  0  0  0  0  0  0
    0.3377    1.2790   -1.7000 C   0  0  0  0  0  0  0  0  0  0  0  0
    0.1740    2.2131   -2.2374 H   0  0  0  0  0  0  0  0  0  0  0  0
    1.7941    1.2238   -1.2297 C   0  0  0  0  0  0  0  0  0  0  0  0
    1.9697    0.3007   -0.6755 H   0  0  0  0  0  0  0  0  0  0  0  0
    2.4599    1.2537   -2.0925 H   0  0  0  0  0  0  0  0  0  0  0  0
    2.0233    2.0723   -0.5886 H   0  0  0  0  0  0  0  0  0  0  0  0
    0.1124    0.1255   -2.6767 C   0  0  0  0  0  0  0  0  0  0  0  0
   -0.9098    0.1586   -3.0536 H   0  0  0  0  0  0  0  0  0  0  0  0
    0.7967    0.2150   -3.5204 H   0  0  0  0  0  0  0  0  0  0  0  0
    0.2808   -0.8287   -2.1764 H   0  0  0  0  0  0  0  0  0  0  0  0
   -0.1913    0.1554    1.7759 C   0  0  0  0  0  0  0  0  0  0  0  0
    0.9476   -0.0766    2.1748 O   0  0  0  0  0  0  0  0  0  0  0  0
   -1.1502    0.6393    2.5760 N   0  0  0  0  0  0  0  0  0  0  0  0
   -2.0581    0.8092    2.1736 H   0  0  0  0  0  0  0  0  0  0  0  0
   -0.9568    0.9369    3.9933 C   0  0  0  0  0  0  0  0  0  0  0  0
   -0.1600    1.6750    4.1097 H   0  0  0  0  0  0  0  0  0  0  0  0
   -1.8775    1.3307    4.4266 H   0  0  0  0  0  0  0  0  0  0  0  0
   -0.6678    0.0287    4.5244 H   0  0  0  0  0  0  0  0  0  0  0  0
  5  6  2  0  0  0  0
  5  7  1  0  0  0  0
  2  3  1  0  0  0  0
  2  4  1  0  0  0  0
  2  5  1  0  0  0  0
  1  2  1  0  0  0  0
 24 25  2  0  0  0  0
 24 26  1  0  0  0  0
 20 21  1  0  0  0  0
 20 22  1  0  0  0  0
 20 23  1  0  0  0  0
 16 17  1  0  0  0  0
 16 18  1  0  0  0  0
 16 19  1  0  0  0  0
 14 15  1  0  0  0  0
 14 16  1  0  0  0  0
 14 20  1  0  0  0  0
 11 12  1  0  0  0  0
 11 13  1  0  0  0  0
 11 14  1  0  0  0  0
  9 10  1  0  0  0  0
  9 11  1  0  0  0  0
  9 24  1  0  0  0  0
  7  8  1  0  0  0  0
  7  9  1  0  0  0  0
 28 29  1  0  0  0  0
 28 30  1  0  0  0  0
 28 31  1  0  0  0  0
 26 27  1  0  0  0  0
 26 28  1  0  0  0  0
M  END
$$$$
default_name
  -OEChem-02102213163D

 31 30  0     1  0  0  0  0  0999 V2000
   -3.5895   -3.5013    1.1082 H   0  0  0  0  0  0  0  0  0  0  0  0
   -3.5145   -2.5363    0.6082 C   0  0  0  0  0  0  0  0  0  0  0  0
   -4.2285   -1.8413    1.0452 H   0  0  0  0  0  0  0  0  0  0  0  0
   -3.7155   -2.6583   -0.4538 H   0  0  0  0  0  0  0  0  0  0  0  0
   -2.1155   -1.9963    0.7922 C   0  0  0  0  0  0  0  0  0  0  0  0
   -1.2875   -2.6383    1.4252 O   0  0  0  0  0  0  0  0  0  0  0  0
   -1.8575   -0.8123    0.2402 N   0  0  0  0  0  0  0  0  0  0  0  0
   -2.6005   -0.3333   -0.2478 H   0  0  0  0  0  0  0  0  0  0  0  0
   -0.5675   -0.1203    0.3102 C   0  0  1  0  0  0  0  0  0  0  0  0
    0.1932   -0.7715   -0.1219 H   0  0  0  0  0  0  0  0  0  0  0  0
   -0.6568    1.1713   -0.5294 C   0  0  0  0  0  0  0  0  0  0  0  0
   -1.6694    1.2588   -0.9278 H   0  0  0  0  0  0  0  0  0  0  0  0
   -0.4895    2.0196    0.1379 H   0  0  0  0  0  0  0  0  0  0  0  0
    0.3377    1.2790   -1.7000 C   0  0  0  0  0  0  0  0  0  0  0  0
    0.3617    2.3042   -2.0695 H   0  0  0  0  0  0  0  0  0  0  0  0
    1.7549    0.8619   -1.2964 C   0  0  0  0  0  0  0  0  0  0  0  0
    1.7447   -0.1578   -0.9089 H   0  0  0  0  0  0  0  0  0  0  0  0
    2.4122    0.9066   -2.1650 H   0  0  0  0  0  0  0  0  0  0  0  0
    2.1487    1.5285   -0.5322 H   0  0  0  0  0  0  0  0  0  0  0  0
   -0.1133    0.3737   -2.8456 C   0  0  0  0  0  0  0  0  0  0  0  0
   -1.1091    0.6689   -3.1759 H   0  0  0  0  0  0  0  0  0  0  0  0
    0.5741    0.4691   -3.6861 H   0  0  0  0  0  0  0  0  0  0  0  0
   -0.1367   -0.6656   -2.5161 H   0  0  0  0  0  0  0  0  0  0  0  0
   -0.1913    0.1554    1.7759 C   0  0  0  0  0  0  0  0  0  0  0  0
    0.9476   -0.0766    2.1748 O   0  0  0  0  0  0  0  0  0  0  0  0
   -1.1502    0.6393    2.5760 N   0  0  0  0  0  0  0  0  0  0  0  0
   -2.0581    0.8092    2.1736 H   0  0  0  0  0  0  0  0  0  0  0  0
   -0.9568    0.9369    3.9933 C   0  0  0  0  0  0  0  0  0  0  0  0
   -0.1600    1.6750    4.1097 H   0  0  0  0  0  0  0  0  0  0  0  0
   -1.8775    1.3307    4.4266 H   0  0  0  0  0  0  0  0  0  0  0  0
   -0.6678    0.0287    4.5244 H   0  0  0  0  0  0  0  0  0  0  0  0
  5  6  2  0  0  0  0
  5  7  1  0  0  0  0
  2  3  1  0  0  0  0
  2  4  1  0  0  0  0
  2  5  1  0  0  0  0
  1  2  1  0  0  0  0
 24 25  2  0  0  0  0
 24 26  1  0  0  0  0
 20 21  1  0  0  0  0
 20 22  1  0  0  0  0
 20 23  1  0  0  0  0
 16 17  1  0  0  0  0
 16 18  1  0  0  0  0
 16 19  1  0  0  0  0
 14 15  1  0  0  0  0
 14 16  1  0  0  0  0
 14 20  1  0  0  0  0
 11 12  1  0  0  0  0
 11 13  1  0  0  0  0
 11 14  1  0  0  0  0
  9 10  1  0  0  0  0
  9 11  1  0  0  0  0
  9 24  1  0  0  0  0
  7  8  1  0  0  0  0
  7  9  1  0  0  0  0
 28 29  1  0  0  0  0
 28 30  1  0  0  0  0
 28 31  1  0  0  0  0
 26 27  1  0  0  0  0
 26 28  1  0  0  0  0
M  END
$$$$
default_name
  -OEChem-02102213163D

 31 30  0     1  0  0  0  0  0999 V2000
   -3.5895   -3.5013    1.1082 H   0  0  0  0  0  0  0  0  0  0  0  0
   -3.5145   -2.5363    0.6082 C   0  0  0  0  0  0  0  0  0  0  0  0
   -4.2285   -1.8413    1.0452 H   0  0  0  0  0  0  0  0  0  0  0  0
   -3.7155   -2.6583   -0.4538 H   0  0  0  0  0  0  0  0  0  0  0  0
   -2.1155   -1.9963    0.7922 C   0  0  0  0  0  0  0  0  0  0  0  0
   -1.2875   -2.6383    1.4252 O   0  0  0  0  0  0  0  0  0  0  0  0
   -1.8575   -0.8123    0.2402 N   0  0  0  0  0  0  0  0  0  0  0  0
   -2.6005   -0.3333   -0.2478 H   0  0  0  0  0  0  0  0  0  0  0  0
   -0.5675   -0.1203    0.3102 C   0  0  1  0  0  0  0  0  0  0  0  0
    0.1932   -0.7715   -0.1219 H   0  0  0  0  0  0  0  0  0  0  0  0
   -0.6568    1.1713   -0.5294 C   0  0  0  0  0  0  0  0  0  0  0  0
   -1.6694    1.2588   -0.9278 H   0  0  0  0  0  0  0  0  0  0  0  0
   -0.4895    2.0196    0.1379 H   0  0  0  0  0  0  0  0  0  0  0  0
    0.3377    1.2790   -1.7000 C   0  0  0  0  0  0  0  0  0  0  0  0
    0.5640    2.3272   -1.8955 H   0  0  0  0  0  0  0  0  0  0  0  0
    1.6446    0.5311   -1.4205 C   0  0  0  0  0  0  0  0  0  0  0  0
    1.4330   -0.5174   -1.2068 H   0  0  0  0  0  0  0  0  0  0  0  0
    2.2965    0.5928   -2.2922 H   0  0  0  0  0  0  0  0  0  0  0  0
    2.1638    0.9692   -0.5708 H   0  0  0  0  0  0  0  0  0  0  0  0
   -0.2854    0.6860   -2.9631 C   0  0  0  0  0  0  0  0  0  0  0  0
   -1.2034    1.2214   -3.2052 H   0  0  0  0  0  0  0  0  0  0  0  0
    0.4061    0.7861   -3.7997 H   0  0  0  0  0  0  0  0  0  0  0  0
   -0.5140   -0.3692   -2.8094 H   0  0  0  0  0  0  0  0  0  0  0  0
   -0.1913    0.1554    1.7759 C   0  0  0  0  0  0  0  0  0  0  0  0
    0.9476   -0.0766    2.1748 O   0  0  0  0  0  0  0  0  0  0  0  0
   -1.1502    0.6393    2.5760 N   0  0  0  0  0  0  0  0  0  0  0  0
   -2.0581    0.8092    2.1736 H   0  0  0  0  0  0  0  0  0  0  0  0
   -0.9568    0.9369    3.9933 C   0  0  0  0  0  0  0  0  0  0  0  0
   -0.1600    1.6750    4.1097 H   0  0  0  0  0  0  0  0  0  0  0  0
   -1.8775    1.3307    4.4266 H   0  0  0  0  0  0  0  0  0  0  0  0
   -0.6678    0.0287    4.5244 H   0  0  0  0  0  0  0  0  0  0  0  0
  5  6  2  0  0  0  0
  5  7  1  0  0  0  0
  2  3  1  0  0  0  0
  2  4  1  0  0  0  0
  2  5  1  0  0  0  0
  1  2  1  0  0  0  0
 24 25  2  0  0  0  0
 24 26  1  0  0  0  0
 20 21  1  0  0  0  0
 20 22  1  0  0  0  0
 20 23  1  0  0  0  0
 16 17  1  0  0  0  0
 16 18  1  0  0  0  0
 16 19  1  0  0  0  0
 14 15  1  0  0  0  0
 14 16  1  0  0  0  0
 14 20  1  0  0  0  0
 11 12  1  0  0  0  0
 11 13  1  0  0  0  0
 11 14  1  0  0  0  0
  9 10  1  0  0  0  0
  9 11  1  0  0  0  0
  9 24  1  0  0  0  0
  7  8  1  0  0  0  0
  7  9  1  0  0  0  0
 28 29  1  0  0  0  0
 28 30  1  0  0  0  0
 28 31  1  0  0  0  0
 26 27  1  0  0  0  0
 26 28  1  0  0  0  0
M  END
$$$$
default_name
  -OEChem-02102213163D

 31 30  0     1  0  0  0  0  0999 V2000
   -3.5895   -3.5013    1.1082 H   0  0  0  0  0  0  0  0  0  0  0  0
   -3.5145   -2.5363    0.6082 C   0  0  0  0  0  0  0  0  0  0  0  0
   -4.2285   -1.8413    1.0452 H   0  0  0  0  0  0  0  0  0  0  0  0
   -3.7155   -2.6583   -0.4538 H   0  0  0  0  0  0  0  0  0  0  0  0
   -2.1155   -1.9963    0.7922 C   0  0  0  0  0  0  0  0  0  0  0  0
   -1.2875   -2.6383    1.4252 O   0  0  0  0  0  0  0  0  0  0  0  0
   -1.8575   -0.8123    0.2402 N   0  0  0  0  0  0  0  0  0  0  0  0
   -2.6005   -0.3333   -0.2478 H   0  0  0  0  0  0  0  0  0  0  0  0
   -0.5675   -0.1203    0.3102 C   0  0  1  0  0  0  0  0  0  0  0  0
    0.1932   -0.7715   -0.1219 H   0  0  0  0  0  0  0  0  0  0  0  0
   -0.6568    1.1713   -0.5294 C   0  0  0  0  0  0  0  0  0  0  0  0
   -1.6694    1.2588   -0.9278 H   0  0  0  0  0  0  0  0  0  0  0  0
   -0.4895    2.0196    0.1379 H   0  0  0  0  0  0  0  0  0  0  0  0
    0.3377    1.2790   -1.7000 C   0  0  0  0  0  0  0  0  0  0  0  0
    0.7671    2.2805   -1.7272 H   0  0  0  0  0  0  0  0  0  0  0  0
    1.4707    0.2542   -1.5937 C   0  0  0  0  0  0  0  0  0  0  0  0
    1.0557   -0.7537   -1.5491 H   0  0  0  0  0  0  0  0  0  0  0  0
    2.1207    0.3338   -2.4654 H   0  0  0  0  0  0  0  0  0  0  0  0
    2.0676    0.4324   -0.7019 H   0  0  0  0  0  0  0  0  0  0  0  0
   -0.3924    1.0412   -3.0213 C   0  0  0  0  0  0  0  0  0  0  0  0
   -1.1863    1.7786   -3.1394 H   0  0  0  0  0  0  0  0  0  0  0  0
    0.3041    1.1443   -3.8534 H   0  0  0  0  0  0  0  0  0  0  0  0
   -0.8255    0.0405   -3.0363 H   0  0  0  0  0  0  0  0  0  0  0  0
   -0.1913    0.1554    1.7759 C   0  0  0  0  0  0  0  0  0  0  0  0
    0.9476   -0.0766    2.1748 O   0  0  0  0  0  0  0  0  0  0  0  0
   -1.1502    0.6393    2.5760 N   0  0  0  0  0  0  0  0  0  0  0  0
   -2.0581    0.8092    2.1736 H   0  0  0  0  0  0  0  0  0  0  0  0
   -0.9568    0.9369    3.9933 C   0  0  0  0  0  0  0  0  0  0  0  0
   -0.1600    1.6750    4.1097 H   0  0  0  0  0  0  0  0  0  0  0  0
   -1.8775    1.3307    4.4266 H   0  0  0  0  0  0  0  0  0  0  0  0
   -0.6678    0.0287    4.5244 H   0  0  0  0  0  0  0  0  0  0  0  0
  5  6  2  0  0  0  0
  5  7  1  0  0  0  0
  2  3  1  0  0  0  0
  2  4  1  0  0  0  0
  2  5  1  0  0  0  0
  1  2  1  0  0  0  0
 24 25  2  0  0  0  0
 24 26  1  0  0  0  0
 20 21  1  0  0  0  0
 20 22  1  0  0  0  0
 20 23  1  0  0  0  0
 16 17  1  0  0  0  0
 16 18  1  0  0  0  0
 16 19  1  0  0  0  0
 14 15  1  0  0  0  0
 14 16  1  0  0  0  0
 14 20  1  0  0  0  0
 11 12  1  0  0  0  0
 11 13  1  0  0  0  0
 11 14  1  0  0  0  0
  9 10  1  0  0  0  0
  9 11  1  0  0  0  0
  9 24  1  0  0  0  0
  7  8  1  0  0  0  0
  7  9  1  0  0  0  0
 28 29  1  0  0  0  0
 28 30  1  0  0  0  0
 28 31  1  0  0  0  0
 26 27  1  0  0  0  0
 26 28  1  0  0  0  0
M  END
$$$$
default_name
  -OEChem-02102213163D

 31 30  0     1  0  0  0  0  0999 V2000
   -3.5895   -3.5013    1.1082 H   0  0  0  0  0  0  0  0  0  0  0  0
   -3.5145   -2.5363    0.6082 C   0  0  0  0  0  0  0  0  0  0  0  0
   -4.2285   -1.8413    1.0452 H   0  0  0  0  0  0  0  0  0  0  0  0
   -3.7155   -2.6583   -0.4538 H   0  0  0  0  0  0  0  0  0  0  0  0
   -2.1155   -1.9963    0.7922 C   0  0  0  0  0  0  0  0  0  0  0  0
   -1.2875   -2.6383    1.4252 O   0  0  0  0  0  0  0  0  0  0  0  0
   -1.8575   -0.8123    0.2402 N   0  0  0  0  0  0  0  0  0  0  0  0
   -2.6005   -0.3333   -0.2478 H   0  0  0  0  0  0  0  0  0  0  0  0
   -0.5675   -0.1203    0.3102 C   0  0  1  0  0  0  0  0  0  0  0  0
    0.1932   -0.7715   -0.1219 H   0  0  0  0  0  0  0  0  0  0  0  0
   -0.6568    1.1713   -0.5294 C   0  0  0  0  0  0  0  0  0  0  0  0
   -1.6694    1.2588   -0.9278 H   0  0  0  0  0  0  0  0  0  0  0  0
   -0.4895    2.0196    0.1379 H   0  0  0  0  0  0  0  0  0  0  0  0
    0.3377    1.2790   -1.7000 C   0  0  0  0  0  0  0  0  0  0  0  0
    0.9572    2.1674   -1.5762 H   0  0  0  0  0  0  0  0  0  0  0  0
    1.2451    0.0498   -1.8042 C   0  0  0  0  0  0  0  0  0  0  0  0
    0.6385   -0.8504   -1.9124 H   0  0  0  0  0  0  0  0  0  0  0  0
    1.8968    0.1471   -2.6728 H   0  0  0  0  0  0  0  0  0  0  0  0
    1.8668   -0.0452   -0.9165 H   0  0  0  0  0  0  0  0  0  0  0  0
   -0.4268    1.4151   -3.0161 C   0  0  0  0  0  0  0  0  0  0  0  0
   -1.0590    2.3024   -2.9830 H   0  0  0  0  0  0  0  0  0  0  0  0
    0.2750    1.5193   -3.8435 H   0  0  0  0  0  0  0  0  0  0  0  0
   -1.0498    0.5354   -3.1813 H   0  0  0  0  0  0  0  0  0  0  0  0
   -0.1913    0.1554    1.7759 C   0  0  0  0  0  0  0  0  0  0  0  0
    0.9476   -0.0766    2.1748 O   0  0  0  0  0  0  0  0  0  0  0  0
   -1.1502    0.6393    2.5760 N   0  0  0  0  0  0  0  0  0  0  0  0
   -2.0581    0.8092    2.1736 H   0  0  0  0  0  0  0  0  0  0  0  0
   -0.9568    0.9369    3.9933 C   0  0  0  0  0  0  0  0  0  0  0  0
   -0.1600    1.6750    4.1097 H   0  0  0  0  0  0  0  0  0  0  0  0
   -1.8775    1.3307    4.4266 H   0  0  0  0  0  0  0  0  0  0  0  0
   -0.6678    0.0287    4.5244 H   0  0  0  0  0  0  0  0  0  0  0  0
  5  6  2  0  0  0  0
  5  7  1  0  0  0  0
  2  3  1  0  0  0  0
  2  4  1  0  0  0  0
  2  5  1  0  0  0  0
  1  2  1  0  0  0  0
 24 25  2  0  0  0  0
 24 26  1  0  0  0  0
 20 21  1  0  0  0  0
 20 22  1  0  0  0  0
 20 23  1  0  0  0  0
 16 17  1  0  0  0  0
 16 18  1  0  0  0  0
 16 19  1  0  0  0  0
 14 15  1  0  0  0  0
 14 16  1  0  0  0  0
 14 20  1  0  0  0  0
 11 12  1  0  0  0  0
 11 13  1  0  0  0  0
 11 14  1  0  0  0  0
  9 10  1  0  0  0  0
  9 11  1  0  0  0  0
  9 24  1  0  0  0  0
  7  8  1  0  0  0  0
  7  9  1  0  0  0  0
 28 29  1  0  0  0  0
 28 30  1  0  0  0  0
 28 31  1  0  0  0  0
 26 27  1  0  0  0  0
 26 28  1  0  0  0  0
M  END
$$$$
default_name
  -OEChem-02102213163D

 31 30  0     1  0  0  0  0  0999 V2000
   -3.5895   -3.5013    1.1082 H   0  0  0  0  0  0  0  0  0  0  0  0
   -3.5145   -2.5363    0.6082 C   0  0  0  0  0  0  0  0  0  0  0  0
   -4.2285   -1.8413    1.0452 H   0  0  0  0  0  0  0  0  0  0  0  0
   -3.7155   -2.6583   -0.4538 H   0  0  0  0  0  0  0  0  0  0  0  0
   -2.1155   -1.9963    0.7922 C   0  0  0  0  0  0  0  0  0  0  0  0
   -1.2875   -2.6383    1.4252 O   0  0  0  0  0  0  0  0  0  0  0  0
   -1.8575   -0.8123    0.2402 N   0  0  0  0  0  0  0  0  0  0  0  0
   -2.6005   -0.3333   -0.2478 H   0  0  0  0  0  0  0  0  0  0  0  0
   -0.5675   -0.1203    0.3102 C   0  0  1  0  0  0  0  0  0  0  0  0
    0.1932   -0.7715   -0.1219 H   0  0  0  0  0  0  0  0  0  0  0  0
   -0.6568    1.1713   -0.5294 C   0  0  0  0  0  0  0  0  0  0  0  0
   -1.6694    1.2588   -0.9278 H   0  0  0  0  0  0  0  0  0  0  0  0
   -0.4895    2.0196    0.1379 H   0  0  0  0  0  0  0  0  0  0  0  0
    0.3377    1.2790   -1.7000 C   0  0  0  0  0  0  0  0  0  0  0  0
    1.1212    1.9954   -1.4527 H   0  0  0  0  0  0  0  0  0  0  0  0
    0.9832   -0.0681   -2.0376 C   0  0  0  0  0  0  0  0  0  0  0  0
    0.2100   -0.8010   -2.2720 H   0  0  0  0  0  0  0  0  0  0  0  0
    1.6400    0.0455   -2.9003 H   0  0  0  0  0  0  0  0  0  0  0  0
    1.5749   -0.4312   -1.2000 H   0  0  0  0  0  0  0  0  0  0  0  0
   -0.3865    1.7822   -2.9481 C   0  0  0  0  0  0  0  0  0  0  0  0
   -0.8301    2.7572   -2.7466 H   0  0  0  0  0  0  0  0  0  0  0  0
    0.3210    1.8856   -3.7708 H   0  0  0  0  0  0  0  0  0  0  0  0
   -1.1718    1.0818   -3.2347 H   0  0  0  0  0  0  0  0  0  0  0  0
   -0.1913    0.1554    1.7759 C   0  0  0  0  0  0  0  0  0  0  0  0
    0.9476   -0.0766    2.1748 O   0  0  0  0  0  0  0  0  0  0  0  0
   -1.1502    0.6393    2.5760 N   0  0  0  0  0  0  0  0  0  0  0  0
   -2.0581    0.8092    2.1736 H   0  0  0  0  0  0  0  0  0  0  0  0
   -0.9568    0.9369    3.9933 C   0  0  0  0  0  0  0  0  0  0  0  0
   -0.1600    1.6750    4.1097 H   0  0  0  0  0  0  0  0  0  0  0  0
   -1.8775    1.3307    4.4266 H   0  0  0  0  0  0  0  0  0  0  0  0
   -0.6678    0.0287    4.5244 H   0  0  0  0  0  0  0  0  0  0  0  0
  5  6  2  0  0  0  0
  5  7  1  0  0  0  0
  2  3  1  0  0  0  0
  2  4  1  0  0  0  0
  2  5  1  0  0  0  0
  1  2  1  0  0  0  0
 24 25  2  0  0  0  0
 24 26  1  0  0  0  0
 20 21  1  0  0  0  0
 20 22  1  0  0  0  0
 20 23  1  0  0  0  0
 16 17  1  0  0  0  0
 16 18  1  0  0  0  0
 16 19  1  0  0  0  0
 14 15  1  0  0  0  0
 14 16  1  0  0  0  0
 14 20  1  0  0  0  0
 11 12  1  0  0  0  0
 11 13  1  0  0  0  0
 11 14  1  0  0  0  0
  9 10  1  0  0  0  0
  9 11  1  0  0  0  0
  9 24  1  0  0  0  0
  7  8  1  0  0  0  0
  7  9  1  0  0  0  0
 28 29  1  0  0  0  0
 28 30  1  0  0  0  0
 28 31  1  0  0  0  0
 26 27  1  0  0  0  0
 26 28  1  0  0  0  0
M  END
$$$$
default_name
  -OEChem-02102213163D

 31 30  0     1  0  0  0  0  0999 V2000
   -3.5895   -3.5013    1.1082 H   0  0  0  0  0  0  0  0  0  0  0  0
   -3.5145   -2.5363    0.6082 C   0  0  0  0  0  0  0  0  0  0  0  0
   -4.2285   -1.8413    1.0452 H   0  0  0  0  0  0  0  0  0  0  0  0
   -3.7155   -2.6583   -0.4538 H   0  0  0  0  0  0  0  0  0  0  0  0
   -2.1155   -1.9963    0.7922 C   0  0  0  0  0  0  0  0  0  0  0  0
   -1.2875   -2.6383    1.4252 O   0  0  0  0  0  0  0  0  0  0  0  0
   -1.8575   -0.8123    0.2402 N   0  0  0  0  0  0  0  0  0  0  0  0
   -2.6005   -0.3333   -0.2478 H   0  0  0  0  0  0  0  0  0  0  0  0
   -0.5675   -0.1203    0.3102 C   0  0  1  0  0  0  0  0  0  0  0  0
    0.1932   -0.7715   -0.1219 H   0  0  0  0  0  0  0  0  0  0  0  0
   -0.6568    1.1713   -0.5294 C   0  0  0  0  0  0  0  0  0  0  0  0
   -1.6694    1.2588   -0.9278 H   0  0  0  0  0  0  0  0  0  0  0  0
   -0.4895    2.0196    0.1379 H   0  0  0  0  0  0  0  0  0  0  0  0
    0.3377    1.2790   -1.7000 C   0  0  0  0  0  0  0  0  0  0  0  0
    1.2480    1.7764   -1.3651 H   0  0  0  0  0  0  0  0  0  0  0  0
    0.7028   -0.0913   -2.2780 C   0  0  0  0  0  0  0  0  0  0  0  0
   -0.2007   -0.6089   -2.6032 H   0  0  0  0  0  0  0  0  0  0  0  0
    1.3679    0.0359   -3.1324 H   0  0  0  0  0  0  0  0  0  0  0  0
    1.2119   -0.6992   -1.5331 H   0  0  0  0  0  0  0  0  0  0  0  0
   -0.2741    2.1174   -2.8217 C   0  0  0  0  0  0  0  0  0  0  0  0
   -0.5152    3.1119   -2.4465 H   0  0  0  0  0  0  0  0  0  0  0  0
    0.4388    2.2183   -3.6401 H   0  0  0  0  0  0  0  0  0  0  0  0
   -1.1830    1.6425   -3.1926 H   0  0  0  0  0  0  0  0  0  0  0  0
   -0.1913    0.1554    1.7759 C   0  0  0  0  0  0  0  0  0  0  0  0
    0.9476   -0.0766    2.1748 O   0  0  0  0  0  0  0  0  0  0  0  0
   -1.1502    0.6393    2.5760 N   0  0  0  0  0  0  0  0  0  0  0  0
   -2.0581    0.8092    2.1736 H   0  0  0  0  0  0  0  0  0  0  0  0
   -0.9568    0.9369    3.9933 C   0  0  0  0  0  0  0  0  0  0  0  0
   -0.1600    1.6750    4.1097 H   0  0  0  0  0  0  0  0  0  0  0  0
   -1.8775    1.3307    4.4266 H   0  0  0  0  0  0  0  0  0  0  0  0
   -0.6678    0.0287    4.5244 H   0  0  0  0  0  0  0  0  0  0  0  0
  5  6  2  0  0  0  0
  5  7  1  0  0  0  0
  2  3  1  0  0  0  0
  2  4  1  0  0  0  0
  2  5  1  0  0  0  0
  1  2  1  0  0  0  0
 24 25  2  0  0  0  0
 24 26  1  0  0  0  0
 20 21  1  0  0  0  0
 20 22  1  0  0  0  0
 20 23  1  0  0  0  0
 16 17  1  0  0  0  0
 16 18  1  0  0  0  0
 16 19  1  0  0  0  0
 14 15  1  0  0  0  0
 14 16  1  0  0  0  0
 14 20  1  0  0  0  0
 11 12  1  0  0  0  0
 11 13  1  0  0  0  0
 11 14  1  0  0  0  0
  9 10  1  0  0  0  0
  9 11  1  0  0  0  0
  9 24  1  0  0  0  0
  7  8  1  0  0  0  0
  7  9  1  0  0  0  0
 28 29  1  0  0  0  0
 28 30  1  0  0  0  0
 28 31  1  0  0  0  0
 26 27  1  0  0  0  0
 26 28  1  0  0  0  0
M  END
$$$$
default_name
  -OEChem-02102213163D

 31 30  0     1  0  0  0  0  0999 V2000
   -3.5895   -3.5013    1.1082 H   0  0  0  0  0  0  0  0  0  0  0  0
   -3.5145   -2.5363    0.6082 C   0  0  0  0  0  0  0  0  0  0  0  0
   -4.2285   -1.8413    1.0452 H   0  0  0  0  0  0  0  0  0  0  0  0
   -3.7155   -2.6583   -0.4538 H   0  0  0  0  0  0  0  0  0  0  0  0
   -2.1155   -1.9963    0.7922 C   0  0  0  0  0  0  0  0  0  0  0  0
   -1.2875   -2.6383    1.4252 O   0  0  0  0  0  0  0  0  0  0  0  0
   -1.8575   -0.8123    0.2402 N   0  0  0  0  0  0  0  0  0  0  0  0
   -2.6005   -0.3333   -0.2478 H   0  0  0  0  0  0  0  0  0  0  0  0
   -0.5675   -0.1203    0.3102 C   0  0  1  0  0  0  0  0  0  0  0  0
    0.1932   -0.7715   -0.1219 H   0  0  0  0  0  0  0  0  0  0  0  0
   -0.6568    1.1713   -0.5294 C   0  0  0  0  0  0  0  0  0  0  0  0
   -1.6694    1.2588   -0.9278 H   0  0  0  0  0  0  0  0  0  0  0  0
   -0.4895    2.0196    0.1379 H   0  0  0  0  0  0  0  0  0  0  0  0
    0.3377    1.2790   -1.7000 C   0  0  0  0  0  0  0  0  0  0  0  0
    1.3290    1.5252   -1.3194 H   0  0  0  0  0  0  0  0  0  0  0  0
    0.4230   -0.0185   -2.5090 C   0  0  0  0  0  0  0  0  0  0  0  0
   -0.5656   -0.2871   -2.8837 H   0  0  0  0  0  0  0  0  0  0  0  0
    1.0990    0.1190   -3.3532 H   0  0  0  0  0  0  0  0  0  0  0  0
    0.8024   -0.8310   -1.8931 H   0  0  0  0  0  0  0  0  0  0  0  0
   -0.0972    2.3979   -2.6456 C   0  0  0  0  0  0  0  0  0  0  0  0
   -0.1358    3.3424   -2.1030 H   0  0  0  0  0  0  0  0  0  0  0  0
    0.6203    2.4946   -3.4604 H   0  0  0  0  0  0  0  0  0  0  0  0
   -1.0828    2.1793   -3.0581 H   0  0  0  0  0  0  0  0  0  0  0  0
   -0.1913    0.1554    1.7759 C   0  0  0  0  0  0  0  0  0  0  0  0
    0.9476   -0.0766    2.1748 O   0  0  0  0  0  0  0  0  0  0  0  0
   -1.1502    0.6393    2.5760 N   0  0  0  0  0  0  0  0  0  0  0  0
   -2.0581    0.8092    2.1736 H   0  0  0  0  0  0  0  0  0  0  0  0
   -0.9568    0.9369    3.9933 C   0  0  0  0  0  0  0  0  0  0  0  0
   -0.1600    1.6750    4.1097 H   0  0  0  0  0  0  0  0  0  0  0  0
   -1.8775    1.3307    4.4266 H   0  0  0  0  0  0  0  0  0  0  0  0
   -0.6678    0.0287    4.5244 H   0  0  0  0  0  0  0  0  0  0  0  0
  5  6  2  0  0  0  0
  5  7  1  0  0  0  0
  2  3  1  0  0  0  0
  2  4  1  0  0  0  0
  2  5  1  0  0  0  0
  1  2  1  0  0  0  0
 24 25  2  0  0  0  0
 24 26  1  0  0  0  0
 20 21  1  0  0  0  0
 20 22  1  0  0  0  0
 20 23  1  0  0  0  0
 16 17  1  0  0  0  0
 16 18  1  0  0  0  0
 16 19  1  0  0  0  0
 14 15  1  0  0  0  0
 14 16  1  0  0  0  0
 14 20  1  0  0  0  0
 11 12  1  0  0  0  0
 11 13  1  0  0  0  0
 11 14  1  0  0  0  0
  9 10  1  0  0  0  0
  9 11  1  0  0  0  0
  9 24  1  0  0  0  0
  7  8  1  0  0  0  0
  7  9  1  0  0  0  0
 28 29  1  0  0  0  0
 28 30  1  0  0  0  0
 28 31  1  0  0  0  0
 26 27  1  0  0  0  0
 26 28  1  0  0  0  0
M  END
$$$$
default_name
  -OEChem-02102213163D

 31 30  0     1  0  0  0  0  0999 V2000
   -3.5895   -3.5013    1.1082 H   0  0  0  0  0  0  0  0  0  0  0  0
   -3.5145   -2.5363    0.6082 C   0  0  0  0  0  0  0  0  0  0  0  0
   -4.2285   -1.8413    1.0452 H   0  0  0  0  0  0  0  0  0  0  0  0
   -3.7155   -2.6583   -0.4538 H   0  0  0  0  0  0  0  0  0  0  0  0
   -2.1155   -1.9963    0.7922 C   0  0  0  0  0  0  0  0  0  0  0  0
   -1.2875   -2.6383    1.4252 O   0  0  0  0  0  0  0  0  0  0  0  0
   -1.8575   -0.8123    0.2402 N   0  0  0  0  0  0  0  0  0  0  0  0
   -2.6005   -0.3333   -0.2478 H   0  0  0  0  0  0  0  0  0  0  0  0
   -0.5675   -0.1203    0.3102 C   0  0  1  0  0  0  0  0  0  0  0  0
    0.1932   -0.7715   -0.1219 H   0  0  0  0  0  0  0  0  0  0  0  0
   -0.6568    1.1713   -0.5294 C   0  0  0  0  0  0  0  0  0  0  0  0
   -1.6694    1.2588   -0.9278 H   0  0  0  0  0  0  0  0  0  0  0  0
   -0.4895    2.0196    0.1379 H   0  0  0  0  0  0  0  0  0  0  0  0
    0.3377    1.2790   -1.7000 C   0  0  0  0  0  0  0  0  0  0  0  0
    1.3587    1.2590   -1.3187 H   0  0  0  0  0  0  0  0  0  0  0  0
    0.1629    0.1456   -2.7149 C   0  0  0  0  0  0  0  0  0  0  0  0
   -0.8599    0.1424   -3.0941 H   0  0  0  0  0  0  0  0  0  0  0  0
    0.8516    0.2891   -3.5478 H   0  0  0  0  0  0  0  0  0  0  0  0
    0.3745   -0.8175   -2.2554 H   0  0  0  0  0  0  0  0  0  0  0  0
    0.1320    2.6047   -2.4319 C   0  0  0  0  0  0  0  0  0  0  0  0
    0.2822    3.4330   -1.7395 H   0  0  0  0  0  0  0  0  0  0  0  0
    0.8533    2.6957   -3.2440 H   0  0  0  0  0  0  0  0  0  0  0  0
   -0.8780    2.6556   -2.8402 H   0  0  0  0  0  0  0  0  0  0  0  0
   -0.1913    0.1554    1.7759 C   0  0  0  0  0  0  0  0  0  0  0  0
    0.9476   -0.0766    2.1748 O   0  0  0  0  0  0  0  0  0  0  0  0
   -1.1502    0.6393    2.5760 N   0  0  0  0  0  0  0  0  0  0  0  0
   -2.0581    0.8092    2.1736 H   0  0  0  0  0  0  0  0  0  0  0  0
   -0.9568    0.9369    3.9933 C   0  0  0  0  0  0  0  0  0  0  0  0
   -0.1600    1.6750    4.1097 H   0  0  0  0  0  0  0  0  0  0  0  0
   -1.8775    1.3307    4.4266 H   0  0  0  0  0  0  0  0  0  0  0  0
   -0.6678    0.0287    4.5244 H   0  0  0  0  0  0  0  0  0  0  0  0
  5  6  2  0  0  0  0
  5  7  1  0  0  0  0
  2  3  1  0  0  0  0
  2  4  1  0  0  0  0
  2  5  1  0  0  0  0
  1  2  1  0  0  0  0
 24 25  2  0  0  0  0
 24 26  1  0  0  0  0
 20 21  1  0  0  0  0
 20 22  1  0  0  0  0
 20 23  1  0  0  0  0
 16 17  1  0  0  0  0
 16 18  1  0  0  0  0
 16 19  1  0  0  0  0
 14 15  1  0  0  0  0
 14 16  1  0  0  0  0
 14 20  1  0  0  0  0
 11 12  1  0  0  0  0
 11 13  1  0  0  0  0
 11 14  1  0  0  0  0
  9 10  1  0  0  0  0
  9 11  1  0  0  0  0
  9 24  1  0  0  0  0
  7  8  1  0  0  0  0
  7  9  1  0  0  0  0
 28 29  1  0  0  0  0
 28 30  1  0  0  0  0
 28 31  1  0  0  0  0
 26 27  1  0  0  0  0
 26 28  1  0  0  0  0
M  END
$$$$
default_name
  -OEChem-02102213163D

 31 30  0     1  0  0  0  0  0999 V2000
   -3.5895   -3.5013    1.1082 H   0  0  0  0  0  0  0  0  0  0  0  0
   -3.5145   -2.5363    0.6082 C   0  0  0  0  0  0  0  0  0  0  0  0
   -4.2285   -1.8413    1.0452 H   0  0  0  0  0  0  0  0  0  0  0  0
   -3.7155   -2.6583   -0.4538 H   0  0  0  0  0  0  0  0  0  0  0  0
   -2.1155   -1.9963    0.7922 C   0  0  0  0  0  0  0  0  0  0  0  0
   -1.2875   -2.6383    1.4252 O   0  0  0  0  0  0  0  0  0  0  0  0
   -1.8575   -0.8123    0.2402 N   0  0  0  0  0  0  0  0  0  0  0  0
   -2.6005   -0.3333   -0.2478 H   0  0  0  0  0  0  0  0  0  0  0  0
   -0.5675   -0.1203    0.3102 C   0  0  1  0  0  0  0  0  0  0  0  0
    0.1932   -0.7715   -0.1219 H   0  0  0  0  0  0  0  0  0  0  0  0
   -0.6568    1.1713   -0.5294 C   0  0  0  0  0  0  0  0  0  0  0  0
   -1.6694    1.2588   -0.9278 H   0  0  0  0  0  0  0  0  0  0  0  0
   -0.4895    2.0196    0.1379 H   0  0  0  0  0  0  0  0  0  0  0  0
    0.3377    1.2790   -1.7000 C   0  0  0  0  0  0  0  0  0  0  0  0
    1.3350    0.9960   -1.3630 H   0  0  0  0  0  0  0  0  0  0  0  0
   -0.0598    0.3896   -2.8816 C   0  0  0  0  0  0  0  0  0  0  0  0
   -1.0634    0.6503   -3.2203 H   0  0  0  0  0  0  0  0  0  0  0  0
    0.6425    0.5346   -3.7028 H   0  0  0  0  0  0  0  0  0  0  0  0
   -0.0427   -0.6598   -2.5954 H   0  0  0  0  0  0  0  0  0  0  0  0
    0.3980    2.7236   -2.1950 C   0  0  0  0  0  0  0  0  0  0  0  0
    0.7104    3.3775   -1.3808 H   0  0  0  0  0  0  0  0  0  0  0  0
    1.1219    2.8079   -3.0055 H   0  0  0  0  0  0  0  0  0  0  0  0
   -0.5824    3.0389   -2.5538 H   0  0  0  0  0  0  0  0  0  0  0  0
   -0.1913    0.1554    1.7759 C   0  0  0  0  0  0  0  0  0  0  0  0
    0.9476   -0.0766    2.1748 O   0  0  0  0  0  0  0  0  0  0  0  0
   -1.1502    0.6393    2.5760 N   0  0  0  0  0  0  0  0  0  0  0  0
   -2.0581    0.8092    2.1736 H   0  0  0  0  0  0  0  0  0  0  0  0
   -0.9568    0.9369    3.9933 C   0  0  0  0  0  0  0  0  0  0  0  0
   -0.1600    1.6750    4.1097 H   0  0  0  0  0  0  0  0  0  0  0  0
   -1.8775    1.3307    4.4266 H   0  0  0  0  0  0  0  0  0  0  0  0
   -0.6678    0.0287    4.5244 H   0  0  0  0  0  0  0  0  0  0  0  0
  5  6  2  0  0  0  0
  5  7  1  0  0  0  0
  2  3  1  0  0  0  0
  2  4  1  0  0  0  0
  2  5  1  0  0  0  0
  1  2  1  0  0  0  0
 24 25  2  0  0  0  0
 24 26  1  0  0  0  0
 20 21  1  0  0  0  0
 20 22  1  0  0  0  0
 20 23  1  0  0  0  0
 16 17  1  0  0  0  0
 16 18  1  0  0  0  0
 16 19  1  0  0  0  0
 14 15  1  0  0  0  0
 14 16  1  0  0  0  0
 14 20  1  0  0  0  0
 11 12  1  0  0  0  0
 11 13  1  0  0  0  0
 11 14  1  0  0  0  0
  9 10  1  0  0  0  0
  9 11  1  0  0  0  0
  9 24  1  0  0  0  0
  7  8  1  0  0  0  0
  7  9  1  0  0  0  0
 28 29  1  0  0  0  0
 28 30  1  0  0  0  0
 28 31  1  0  0  0  0
 26 27  1  0  0  0  0
 26 28  1  0  0  0  0
M  END
$$$$
default_name
  -OEChem-02102213163D

 31 30  0     1  0  0  0  0  0999 V2000
   -3.5895   -3.5013    1.1082 H   0  0  0  0  0  0  0  0  0  0  0  0
   -3.5145   -2.5363    0.6082 C   0  0  0  0  0  0  0  0  0  0  0  0
   -4.2285   -1.8413    1.0452 H   0  0  0  0  0  0  0  0  0  0  0  0
   -3.7155   -2.6583   -0.4538 H   0  0  0  0  0  0  0  0  0  0  0  0
   -2.1155   -1.9963    0.7922 C   0  0  0  0  0  0  0  0  0  0  0  0
   -1.2875   -2.6383    1.4252 O   0  0  0  0  0  0  0  0  0  0  0  0
   -1.8575   -0.8123    0.2402 N   0  0  0  0  0  0  0  0  0  0  0  0
   -2.6005   -0.3333   -0.2478 H   0  0  0  0  0  0  0  0  0  0  0  0
   -0.5675   -0.1203    0.3102 C   0  0  1  0  0  0  0  0  0  0  0  0
    0.1932   -0.7715   -0.1219 H   0  0  0  0  0  0  0  0  0  0  0  0
   -0.6568    1.1713   -0.5294 C   0  0  0  0  0  0  0  0  0  0  0  0
   -1.6694    1.2588   -0.9278 H   0  0  0  0  0  0  0  0  0  0  0  0
   -0.4895    2.0196    0.1379 H   0  0  0  0  0  0  0  0  0  0  0  0
    0.3377    1.2790   -1.7000 C   0  0  0  0  0  0  0  0  0  0  0  0
    1.2595    0.7539   -1.4494 H   0  0  0  0  0  0  0  0  0  0  0  0
   -0.2299    0.6971   -2.9978 C   0  0  0  0  0  0  0  0  0  0  0  0
   -1.1624    1.2021   -3.2536 H   0  0  0  0  0  0  0  0  0  0  0  0
    0.4861    0.8388   -3.8077 H   0  0  0  0  0  0  0  0  0  0  0  0
   -0.4208   -0.3684   -2.8898 H   0  0  0  0  0  0  0  0  0  0  0  0
    0.6825    2.7465   -1.9511 C   0  0  0  0  0  0  0  0  0  0  0  0
    1.1195    3.1796   -1.0514 H   0  0  0  0  0  0  0  0  0  0  0  0
    1.4077    2.8236   -2.7612 H   0  0  0  0  0  0  0  0  0  0  0  0
   -0.2163    3.3031   -2.2185 H   0  0  0  0  0  0  0  0  0  0  0  0
   -0.1913    0.1554    1.7759 C   0  0  0  0  0  0  0  0  0  0  0  0
    0.9476   -0.0766    2.1748 O   0  0  0  0  0  0  0  0  0  0  0  0
   -1.1502    0.6393    2.5760 N   0  0  0  0  0  0  0  0  0  0  0  0
   -2.0581    0.8092    2.1736 H   0  0  0  0  0  0  0  0  0  0  0  0
   -0.9568    0.9369    3.9933 C   0  0  0  0  0  0  0  0  0  0  0  0
   -0.1600    1.6750    4.1097 H   0  0  0  0  0  0  0  0  0  0  0  0
   -1.8775    1.3307    4.4266 H   0  0  0  0  0  0  0  0  0  0  0  0
   -0.6678    0.0287    4.5244 H   0  0  0  0  0  0  0  0  0  0  0  0
  5  6  2  0  0  0  0
  5  7  1  0  0  0  0
  2  3  1  0  0  0  0
  2  4  1  0  0  0  0
  2  5  1  0  0  0  0
  1  2  1  0  0  0  0
 24 25  2  0  0  0  0
 24 26  1  0  0  0  0
 20 21  1  0  0  0  0
 20 22  1  0  0  0  0
 20 23  1  0  0  0  0
 16 17  1  0  0  0  0
 16 18  1  0  0  0  0
 16 19  1  0  0  0  0
 14 15  1  0  0  0  0
 14 16  1  0  0  0  0
 14 20  1  0  0  0  0
 11 12  1  0  0  0  0
 11 13  1  0  0  0  0
 11 14  1  0  0  0  0
  9 10  1  0  0  0  0
  9 11  1  0  0  0  0
  9 24  1  0  0  0  0
  7  8  1  0  0  0  0
  7  9  1  0  0  0  0
 28 29  1  0  0  0  0
 28 30  1  0  0  0  0
 28 31  1  0  0  0  0
 26 27  1  0  0  0  0
 26 28  1  0  0  0  0
M  END
$$$$
default_name
  -OEChem-02102213163D

 31 30  0     1  0  0  0  0  0999 V2000
   -3.5895   -3.5013    1.1082 H   0  0  0  0  0  0  0  0  0  0  0  0
   -3.5145   -2.5363    0.6082 C   0  0  0  0  0  0  0  0  0  0  0  0
   -4.2285   -1.8413    1.0452 H   0  0  0  0  0  0  0  0  0  0  0  0
   -3.7155   -2.6583   -0.4538 H   0  0  0  0  0  0  0  0  0  0  0  0
   -2.1155   -1.9963    0.7922 C   0  0  0  0  0  0  0  0  0  0  0  0
   -1.2875   -2.6383    1.4252 O   0  0  0  0  0  0  0  0  0  0  0  0
   -1.8575   -0.8123    0.2402 N   0  0  0  0  0  0  0  0  0  0  0  0
   -2.6005   -0.3333   -0.2478 H   0  0  0  0  0  0  0  0  0  0  0  0
   -0.5675   -0.1203    0.3102 C   0  0  1  0  0  0  0  0  0  0  0  0
    0.1932   -0.7715   -0.1219 H   0  0  0  0  0  0  0  0  0  0  0  0
   -0.6568    1.1713   -0.5294 C   0  0  0  0  0  0  0  0  0  0  0  0
   -1.6694    1.2588   -0.9278 H   0  0  0  0  0  0  0  0  0  0  0  0
   -0.4895    2.0196    0.1379 H   0  0  0  0  0  0  0  0  0  0  0  0
    0.3377    1.2790   -1.7000 C   0  0  0  0  0  0  0  0  0  0  0  0
    1.1374    0.5495   -1.5720 H   0  0  0  0  0  0  0  0  0  0  0  0
   -0.3358    1.0469   -3.0556 C   0  0  0  0  0  0  0  0  0  0  0  0
   -1.1500    1.7601   -3.1917 H   0  0  0  0  0  0  0  0  0  0  0  0
    0.3929    1.1809   -3.8554 H   0  0  0  0  0  0  0  0  0  0  0  0
   -0.7341    0.0366   -3.1187 H   0  0  0  0  0  0  0  0  0  0  0  0
    0.9664    2.6719   -1.7168 C   0  0  0  0  0  0  0  0  0  0  0  0
    1.4818    2.8530   -0.7737 H   0  0  0  0  0  0  0  0  0  0  0  0
    1.6912    2.7417   -2.5278 H   0  0  0  0  0  0  0  0  0  0  0  0
    0.1953    3.4303   -1.8570 H   0  0  0  0  0  0  0  0  0  0  0  0
   -0.1913    0.1554    1.7759 C   0  0  0  0  0  0  0  0  0  0  0  0
    0.9476   -0.0766    2.1748 O   0  0  0  0  0  0  0  0  0  0  0  0
   -1.1502    0.6393    2.5760 N   0  0  0  0  0  0  0  0  0  0  0  0
   -2.0581    0.8092    2.1736 H   0  0  0  0  0  0  0  0  0  0  0  0
   -0.9568    0.9369    3.9933 C   0  0  0  0  0  0  0  0  0  0  0  0
   -0.1600    1.6750    4.1097 H   0  0  0  0  0  0  0  0  0  0  0  0
   -1.8775    1.3307    4.4266 H   0  0  0  0  0  0  0  0  0  0  0  0
   -0.6678    0.0287    4.5244 H   0  0  0  0  0  0  0  0  0  0  0  0
  5  6  2  0  0  0  0
  5  7  1  0  0  0  0
  2  3  1  0  0  0  0
  2  4  1  0  0  0  0
  2  5  1  0  0  0  0
  1  2  1  0  0  0  0
 24 25  2  0  0  0  0
 24 26  1  0  0  0  0
 20 21  1  0  0  0  0
 20 22  1  0  0  0  0
 20 23  1  0  0  0  0
 16 17  1  0  0  0  0
 16 18  1  0  0  0  0
 16 19  1  0  0  0  0
 14 15  1  0  0  0  0
 14 16  1  0  0  0  0
 14 20  1  0  0  0  0
 11 12  1  0  0  0  0
 11 13  1  0  0  0  0
 11 14  1  0  0  0  0
  9 10  1  0  0  0  0
  9 11  1  0  0  0  0
  9 24  1  0  0  0  0
  7  8  1  0  0  0  0
  7  9  1  0  0  0  0
 28 29  1  0  0  0  0
 28 30  1  0  0  0  0
 28 31  1  0  0  0  0
 26 27  1  0  0  0  0
 26 28  1  0  0  0  0
M  END
$$$$
default_name
  -OEChem-02102213163D

 31 30  0     1  0  0  0  0  0999 V2000
   -3.5895   -3.5013    1.1082 H   0  0  0  0  0  0  0  0  0  0  0  0
   -3.5145   -2.5363    0.6082 C   0  0  0  0  0  0  0  0  0  0  0  0
   -4.2285   -1.8413    1.0452 H   0  0  0  0  0  0  0  0  0  0  0  0
   -3.7155   -2.6583   -0.4538 H   0  0  0  0  0  0  0  0  0  0  0  0
   -2.1155   -1.9963    0.7922 C   0  0  0  0  0  0  0  0  0  0  0  0
   -1.2875   -2.6383    1.4252 O   0  0  0  0  0  0  0  0  0  0  0  0
   -1.8575   -0.8123    0.2402 N   0  0  0  0  0  0  0  0  0  0  0  0
   -2.6005   -0.3333   -0.2478 H   0  0  0  0  0  0  0  0  0  0  0  0
   -0.5675   -0.1203    0.3102 C   0  0  1  0  0  0  0  0  0  0  0  0
    0.1932   -0.7715   -0.1219 H   0  0  0  0  0  0  0  0  0  0  0  0
   -0.6568    1.1713   -0.5294 C   0  0  0  0  0  0  0  0  0  0  0  0
   -1.6694    1.2588   -0.9278 H   0  0  0  0  0  0  0  0  0  0  0  0
   -0.4895    2.0196    0.1379 H   0  0  0  0  0  0  0  0  0  0  0  0
    0.3377    1.2790   -1.7000 C   0  0  0  0  0  0  0  0  0  0  0  0
    0.9770    0.3965   -1.7223 H   0  0  0  0  0  0  0  0  0  0  0  0
   -0.3703    1.4154   -3.0510 C   0  0  0  0  0  0  0  0  0  0  0  0
   -1.0271    2.2863   -3.0389 H   0  0  0  0  0  0  0  0  0  0  0  0
    0.3694    1.5377   -3.8425 H   0  0  0  0  0  0  0  0  0  0  0  0
   -0.9612    0.5277   -3.2664 H   0  0  0  0  0  0  0  0  0  0  0  0
    1.2300    2.5048   -1.5082 C   0  0  0  0  0  0  0  0  0  0  0  0
    1.7724    2.4197   -0.5666 H   0  0  0  0  0  0  0  0  0  0  0  0
    1.9533    2.5677   -2.3212 H   0  0  0  0  0  0  0  0  0  0  0  0
    0.6245    3.4117   -1.4941 H   0  0  0  0  0  0  0  0  0  0  0  0
   -0.1913    0.1554    1.7759 C   0  0  0  0  0  0  0  0  0  0  0  0
    0.9476   -0.0766    2.1748 O   0  0  0  0  0  0  0  0  0  0  0  0
   -1.1502    0.6393    2.5760 N   0  0  0  0  0  0  0  0  0  0  0  0
   -2.0581    0.8092    2.1736 H   0  0  0  0  0  0  0  0  0  0  0  0
   -0.9568    0.9369    3.9933 C   0  0  0  0  0  0  0  0  0  0  0  0
   -0.1600    1.6750    4.1097 H   0  0  0  0  0  0  0  0  0  0  0  0
   -1.8775    1.3307    4.4266 H   0  0  0  0  0  0  0  0  0  0  0  0
   -0.6678    0.0287    4.5244 H   0  0  0  0  0  0  0  0  0  0  0  0
  5  6  2  0  0  0  0
  5  7  1  0  0  0  0
  2  3  1  0  0  0  0
  2  4  1  0  0  0  0
  2  5  1  0  0  0  0
  1  2  1  0  0  0  0
 24 25  2  0  0  0  0
 24 26  1  0  0  0  0
 20 21  1  0  0  0  0
 20 22  1  0  0  0  0
 20 23  1  0  0  0  0
 16 17  1  0  0  0  0
 16 18  1  0  0  0  0
 16 19  1  0  0  0  0
 14 15  1  0  0  0  0
 14 16  1  0  0  0  0
 14 20  1  0  0  0  0
 11 12  1  0  0  0  0
 11 13  1  0  0  0  0
 11 14  1  0  0  0  0
  9 10  1  0  0  0  0
  9 11  1  0  0  0  0
  9 24  1  0  0  0  0
  7  8  1  0  0  0  0
  7  9  1  0  0  0  0
 28 29  1  0  0  0  0
 28 30  1  0  0  0  0
 28 31  1  0  0  0  0
 26 27  1  0  0  0  0
 26 28  1  0  0  0  0
M  END
$$$$
default_name
  -OEChem-02102213163D

 31 30  0     1  0  0  0  0  0999 V2000
   -3.5895   -3.5013    1.1082 H   0  0  0  0  0  0  0  0  0  0  0  0
   -3.5145   -2.5363    0.6082 C   0  0  0  0  0  0  0  0  0  0  0  0
   -4.2285   -1.8413    1.0452 H   0  0  0  0  0  0  0  0  0  0  0  0
   -3.7155   -2.6583   -0.4538 H   0  0  0  0  0  0  0  0  0  0  0  0
   -2.1155   -1.9963    0.7922 C   0  0  0  0  0  0  0  0  0  0  0  0
   -1.2875   -2.6383    1.4252 O   0  0  0  0  0  0  0  0  0  0  0  0
   -1.8575   -0.8123    0.2402 N   0  0  0  0  0  0  0  0  0  0  0  0
   -2.6005   -0.3333   -0.2478 H   0  0  0  0  0  0  0  0  0  0  0  0
   -0.5675   -0.1203    0.3102 C   0  0  1  0  0  0  0  0  0  0  0  0
    0.1932   -0.7715   -0.1219 H   0  0  0  0  0  0  0  0  0  0  0  0
   -0.6568    1.1713   -0.5294 C   0  0  0  0  0  0  0  0  0  0  0  0
   -1.6694    1.2588   -0.9278 H   0  0  0  0  0  0  0  0  0  0  0  0
   -0.4895    2.0196    0.1379 H   0  0  0  0  0  0  0  0  0  0  0  0
    0.3377    1.2790   -1.7000 C   0  0  0  0  0  0  0  0  0  0  0  0
    0.7893    0.3054   -1.8902 H   0  0  0  0  0  0  0  0  0  0  0  0
   -0.3311    1.7773   -2.9844 C   0  0  0  0  0  0  0  0  0  0  0  0
   -0.8021    2.7448   -2.8055 H   0  0  0  0  0  0  0  0  0  0  0  0
    0.4171    1.8848   -3.7700 H   0  0  0  0  0  0  0  0  0  0  0  0
   -1.0865    1.0714   -3.3229 H   0  0  0  0  0  0  0  0  0  0  0  0
    1.4556    2.2566   -1.3393 C   0  0  0  0  0  0  0  0  0  0  0  0
    1.9717    1.9095   -0.4442 H   0  0  0  0  0  0  0  0  0  0  0  0
    2.1759    2.3136   -2.1555 H   0  0  0  0  0  0  0  0  0  0  0  0
    1.0420    3.2486   -1.1544 H   0  0  0  0  0  0  0  0  0  0  0  0
   -0.1913    0.1554    1.7759 C   0  0  0  0  0  0  0  0  0  0  0  0
    0.9476   -0.0766    2.1748 O   0  0  0  0  0  0  0  0  0  0  0  0
   -1.1502    0.6393    2.5760 N   0  0  0  0  0  0  0  0  0  0  0  0
   -2.0581    0.8092    2.1736 H   0  0  0  0  0  0  0  0  0  0  0  0
   -0.9568    0.9369    3.9933 C   0  0  0  0  0  0  0  0  0  0  0  0
   -0.1600    1.6750    4.1097 H   0  0  0  0  0  0  0  0  0  0  0  0
   -1.8775    1.3307    4.4266 H   0  0  0  0  0  0  0  0  0  0  0  0
   -0.6678    0.0287    4.5244 H   0  0  0  0  0  0  0  0  0  0  0  0
  5  6  2  0  0  0  0
  5  7  1  0  0  0  0
  2  3  1  0  0  0  0
  2  4  1  0  0  0  0
  2  5  1  0  0  0  0
  1  2  1  0  0  0  0
 24 25  2  0  0  0  0
 24 26  1  0  0  0  0
 20 21  1  0  0  0  0
 20 22  1  0  0  0  0
 20 23  1  0  0  0  0
 16 17  1  0  0  0  0
 16 18  1  0  0  0  0
 16 19  1  0  0  0  0
 14 15  1  0  0  0  0
 14 16  1  0  0  0  0
 14 20  1  0  0  0  0
 11 12  1  0  0  0  0
 11 13  1  0  0  0  0
 11 14  1  0  0  0  0
  9 10  1  0  0  0  0
  9 11  1  0  0  0  0
  9 24  1  0  0  0  0
  7  8  1  0  0  0  0
  7  9  1  0  0  0  0
 28 29  1  0  0  0  0
 28 30  1  0  0  0  0
 28 31  1  0  0  0  0
 26 27  1  0  0  0  0
 26 28  1  0  0  0  0
M  END
$$$$
default_name
  -OEChem-02102213163D

 31 30  0     1  0  0  0  0  0999 V2000
   -3.5895   -3.5013    1.1082 H   0  0  0  0  0  0  0  0  0  0  0  0
   -3.5145   -2.5363    0.6082 C   0  0  0  0  0  0  0  0  0  0  0  0
   -4.2285   -1.8413    1.0452 H   0  0  0  0  0  0  0  0  0  0  0  0
   -3.7155   -2.6583   -0.4538 H   0  0  0  0  0  0  0  0  0  0  0  0
   -2.1155   -1.9963    0.7922 C   0  0  0  0  0  0  0  0  0  0  0  0
   -1.2875   -2.6383    1.4252 O   0  0  0  0  0  0  0  0  0  0  0  0
   -1.8575   -0.8123    0.2402 N   0  0  0  0  0  0  0  0  0  0  0  0
   -2.6005   -0.3333   -0.2478 H   0  0  0  0  0  0  0  0  0  0  0  0
   -0.5675   -0.1203    0.3102 C   0  0  1  0  0  0  0  0  0  0  0  0
    0.1932   -0.7715   -0.1219 H   0  0  0  0  0  0  0  0  0  0  0  0
   -0.6568    1.1713   -0.5294 C   0  0  0  0  0  0  0  0  0  0  0  0
   -1.6694    1.2588   -0.9278 H   0  0  0  0  0  0  0  0  0  0  0  0
   -0.4895    2.0196    0.1379 H   0  0  0  0  0  0  0  0  0  0  0  0
    0.3377    1.2790   -1.7000 C   0  0  0  0  0  0  0  0  0  0  0  0
    0.5870    0.2824   -2.0642 H   0  0  0  0  0  0  0  0  0  0  0  0
   -0.2208    2.1080   -2.8602 C   0  0  0  0  0  0  0  0  0  0  0  0
   -0.4903    3.1044   -2.5075 H   0  0  0  0  0  0  0  0  0  0  0  0
    0.5328    2.1986   -3.6428 H   0  0  0  0  0  0  0  0  0  0  0  0
   -1.1016    1.6308   -3.2842 H   0  0  0  0  0  0  0  0  0  0  0  0
    1.6278    1.9443   -1.2218 C   0  0  0  0  0  0  0  0  0  0  0  0
    2.0660    1.3569   -0.4150 H   0  0  0  0  0  0  0  0  0  0  0  0
    2.3439    1.9967   -2.0419 H   0  0  0  0  0  0  0  0  0  0  0  0
    1.4193    2.9521   -0.8611 H   0  0  0  0  0  0  0  0  0  0  0  0
   -0.1913    0.1554    1.7759 C   0  0  0  0  0  0  0  0  0  0  0  0
    0.9476   -0.0766    2.1748 O   0  0  0  0  0  0  0  0  0  0  0  0
   -1.1502    0.6393    2.5760 N   0  0  0  0  0  0  0  0  0  0  0  0
   -2.0581    0.8092    2.1736 H   0  0  0  0  0  0  0  0  0  0  0  0
   -0.9568    0.9369    3.9933 C   0  0  0  0  0  0  0  0  0  0  0  0
   -0.1600    1.6750    4.1097 H   0  0  0  0  0  0  0  0  0  0  0  0
   -1.8775    1.3307    4.4266 H   0  0  0  0  0  0  0  0  0  0  0  0
   -0.6678    0.0287    4.5244 H   0  0  0  0  0  0  0  0  0  0  0  0
  5  6  2  0  0  0  0
  5  7  1  0  0  0  0
  2  3  1  0  0  0  0
  2  4  1  0  0  0  0
  2  5  1  0  0  0  0
  1  2  1  0  0  0  0
 24 25  2  0  0  0  0
 24 26  1  0  0  0  0
 20 21  1  0  0  0  0
 20 22  1  0  0  0  0
 20 23  1  0  0  0  0
 16 17  1  0  0  0  0
 16 18  1  0  0  0  0
 16 19  1  0  0  0  0
 14 15  1  0  0  0  0
 14 16  1  0  0  0  0
 14 20  1  0  0  0  0
 11 12  1  0  0  0  0
 11 13  1  0  0  0  0
 11 14  1  0  0  0  0
  9 10  1  0  0  0  0
  9 11  1  0  0  0  0
  9 24  1  0  0  0  0
  7  8  1  0  0  0  0
  7  9  1  0  0  0  0
 28 29  1  0  0  0  0
 28 30  1  0  0  0  0
 28 31  1  0  0  0  0
 26 27  1  0  0  0  0
 26 28  1  0  0  0  0
M  END
$$$$
default_name
  -OEChem-02102213163D

 31 30  0     1  0  0  0  0  0999 V2000
   -3.5895   -3.5013    1.1082 H   0  0  0  0  0  0  0  0  0  0  0  0
   -3.5145   -2.5363    0.6082 C   0  0  0  0  0  0  0  0  0  0  0  0
   -4.2285   -1.8413    1.0452 H   0  0  0  0  0  0  0  0  0  0  0  0
   -3.7155   -2.6583   -0.4538 H   0  0  0  0  0  0  0  0  0  0  0  0
   -2.1155   -1.9963    0.7922 C   0  0  0  0  0  0  0  0  0  0  0  0
   -1.2875   -2.6383    1.4252 O   0  0  0  0  0  0  0  0  0  0  0  0
   -1.8575   -0.8123    0.2402 N   0  0  0  0  0  0  0  0  0  0  0  0
   -2.6005   -0.3333   -0.2478 H   0  0  0  0  0  0  0  0  0  0  0  0
   -0.5675   -0.1203    0.3102 C   0  0  1  0  0  0  0  0  0  0  0  0
    0.1932   -0.7715   -0.1219 H   0  0  0  0  0  0  0  0  0  0  0  0
   -0.6568    1.1713   -0.5294 C   0  0  0  0  0  0  0  0  0  0  0  0
   -1.6694    1.2588   -0.9278 H   0  0  0  0  0  0  0  0  0  0  0  0
   -0.4895    2.0196    0.1379 H   0  0  0  0  0  0  0  0  0  0  0  0
    0.3377    1.2790   -1.7000 C   0  0  0  0  0  0  0  0  0  0  0  0
    0.3839    0.3290   -2.2324 H   0  0  0  0  0  0  0  0  0  0  0  0
   -0.0469    2.3850   -2.6870 C   0  0  0  0  0  0  0  0  0  0  0  0
   -0.1130    3.3407   -2.1652 H   0  0  0  0  0  0  0  0  0  0  0  0
    0.7086    2.4576   -3.4697 H   0  0  0  0  0  0  0  0  0  0  0  0
   -1.0055    2.1675   -3.1531 H   0  0  0  0  0  0  0  0  0  0  0  0
    1.7348    1.5891   -1.1636 C   0  0  0  0  0  0  0  0  0  0  0  0
    2.0489    0.7997   -0.4808 H   0  0  0  0  0  0  0  0  0  0  0  0
    2.4459    1.6385   -1.9882 H   0  0  0  0  0  0  0  0  0  0  0  0
    1.7308    2.5425   -0.6342 H   0  0  0  0  0  0  0  0  0  0  0  0
   -0.1913    0.1554    1.7759 C   0  0  0  0  0  0  0  0  0  0  0  0
    0.9476   -0.0766    2.1748 O   0  0  0  0  0  0  0  0  0  0  0  0
   -1.1502    0.6393    2.5760 N   0  0  0  0  0  0  0  0  0  0  0  0
   -2.0581    0.8092    2.1736 H   0  0  0  0  0  0  0  0  0  0  0  0
   -0.9568    0.9369    3.9933 C   0  0  0  0  0  0  0  0  0  0  0  0
   -0.1600    1.6750    4.1097 H   0  0  0  0  0  0  0  0  0  0  0  0
   -1.8775    1.3307    4.4266 H   0  0  0  0  0  0  0  0  0  0  0  0
   -0.6678    0.0287    4.5244 H   0  0  0  0  0  0  0  0  0  0  0  0
  5  6  2  0  0  0  0
  5  7  1  0  0  0  0
  2  3  1  0  0  0  0
  2  4  1  0  0  0  0
  2  5  1  0  0  0  0
  1  2  1  0  0  0  0
 24 25  2  0  0  0  0
 24 26  1  0  0  0  0
 20 21  1  0  0  0  0
 20 22  1  0  0  0  0
 20 23  1  0  0  0  0
 16 17  1  0  0  0  0
 16 18  1  0  0  0  0
 16 19  1  0  0  0  0
 14 15  1  0  0  0  0
 14 16  1  0  0  0  0
 14 20  1  0  0  0  0
 11 12  1  0  0  0  0
 11 13  1  0  0  0  0
 11 14  1  0  0  0  0
  9 10  1  0  0  0  0
  9 11  1  0  0  0  0
  9 24  1  0  0  0  0
  7  8  1  0  0  0  0
  7  9  1  0  0  0  0
 28 29  1  0  0  0  0
 28 30  1  0  0  0  0
 28 31  1  0  0  0  0
 26 27  1  0  0  0  0
 26 28  1  0  0  0  0
M  END
$$$$
default_name
  -OEChem-02102213163D

 31 30  0     1  0  0  0  0  0999 V2000
   -3.5895   -3.5013    1.1082 H   0  0  0  0  0  0  0  0  0  0  0  0
   -3.5145   -2.5363    0.6082 C   0  0  0  0  0  0  0  0  0  0  0  0
   -4.2285   -1.8413    1.0452 H   0  0  0  0  0  0  0  0  0  0  0  0
   -3.7155   -2.6583   -0.4538 H   0  0  0  0  0  0  0  0  0  0  0  0
   -2.1155   -1.9963    0.7922 C   0  0  0  0  0  0  0  0  0  0  0  0
   -1.2875   -2.6383    1.4252 O   0  0  0  0  0  0  0  0  0  0  0  0
   -1.8575   -0.8123    0.2402 N   0  0  0  0  0  0  0  0  0  0  0  0
   -2.6005   -0.3333   -0.2478 H   0  0  0  0  0  0  0  0  0  0  0  0
   -0.5675   -0.1203    0.3102 C   0  0  1  0  0  0  0  0  0  0  0  0
    0.1932   -0.7715   -0.1219 H   0  0  0  0  0  0  0  0  0  0  0  0
   -0.6568    1.1713   -0.5294 C   0  0  0  0  0  0  0  0  0  0  0  0
   -1.7096    1.4024   -0.7026 H   0  0  0  0  0  0  0  0  0  0  0  0
   -0.2318    1.9868    0.0600 H   0  0  0  0  0  0  0  0  0  0  0  0
    0.0641    1.1369   -1.8896 C   0  0  0  0  0  0  0  0  0  0  0  0
   -0.3401    0.3295   -2.5001 H   0  0  0  0  0  0  0  0  0  0  0  0
   -0.0762    2.4569   -2.6532 C   0  0  0  0  0  0  0  0  0  0  0  0
    0.3098    3.2781   -2.0477 H   0  0  0  0  0  0  0  0  0  0  0  0
    0.4886    2.4043   -3.5842 H   0  0  0  0  0  0  0  0  0  0  0  0
   -1.1189    2.6525   -2.8938 H   0  0  0  0  0  0  0  0  0  0  0  0
    1.5538    0.8695   -1.6777 C   0  0  0  0  0  0  0  0  0  0  0  0
    1.6859   -0.0822   -1.1631 H   0  0  0  0  0  0  0  0  0  0  0  0
    2.0617    0.8171   -2.6407 H   0  0  0  0  0  0  0  0  0  0  0  0
    1.9972    1.6665   -1.0798 H   0  0  0  0  0  0  0  0  0  0  0  0
   -0.1913    0.1554    1.7759 C   0  0  0  0  0  0  0  0  0  0  0  0
    0.9476   -0.0766    2.1748 O   0  0  0  0  0  0  0  0  0  0  0  0
   -1.1502    0.6393    2.5760 N   0  0  0  0  0  0  0  0  0  0  0  0
   -2.0581    0.8092    2.1736 H   0  0  0  0  0  0  0  0  0  0  0  0
   -0.9568    0.9369    3.9933 C   0  0  0  0  0  0  0  0  0  0  0  0
   -0.1600    1.6750    4.1097 H   0  0  0  0  0  0  0  0  0  0  0  0
   -1.8775    1.3307    4.4266 H   0  0  0  0  0  0  0  0  0  0  0  0
   -0.6678    0.0287    4.5244 H   0  0  0  0  0  0  0  0  0  0  0  0
  5  6  2  0  0  0  0
  5  7  1  0  0  0  0
  2  3  1  0  0  0  0
  2  4  1  0  0  0  0
  2  5  1  0  0  0  0
  1  2  1  0  0  0  0
 24 25  2  0  0  0  0
 24 26  1  0  0  0  0
 20 21  1  0  0  0  0
 20 22  1  0  0  0  0
 20 23  1  0  0  0  0
 16 17  1  0  0  0  0
 16 18  1  0  0  0  0
 16 19  1  0  0  0  0
 14 15  1  0  0  0  0
 14 16  1  0  0  0  0
 14 20  1  0  0  0  0
 11 12  1  0  0  0  0
 11 13  1  0  0  0  0
 11 14  1  0  0  0  0
  9 10  1  0  0  0  0
  9 11  1  0  0  0  0
  9 24  1  0  0  0  0
  7  8  1  0  0  0  0
  7  9  1  0  0  0  0
 28 29  1  0  0  0  0
 28 30  1  0  0  0  0
 28 31  1  0  0  0  0
 26 27  1  0  0  0  0
 26 28  1  0  0  0  0
M  END
$$$$
default_name
  -OEChem-02102213163D

 31 30  0     1  0  0  0  0  0999 V2000
   -3.5895   -3.5013    1.1082 H   0  0  0  0  0  0  0  0  0  0  0  0
   -3.5145   -2.5363    0.6082 C   0  0  0  0  0  0  0  0  0  0  0  0
   -4.2285   -1.8413    1.0452 H   0  0  0  0  0  0  0  0  0  0  0  0
   -3.7155   -2.6583   -0.4538 H   0  0  0  0  0  0  0  0  0  0  0  0
   -2.1155   -1.9963    0.7922 C   0  0  0  0  0  0  0  0  0  0  0  0
   -1.2875   -2.6383    1.4252 O   0  0  0  0  0  0  0  0  0  0  0  0
   -1.8575   -0.8123    0.2402 N   0  0  0  0  0  0  0  0  0  0  0  0
   -2.6005   -0.3333   -0.2478 H   0  0  0  0  0  0  0  0  0  0  0  0
   -0.5675   -0.1203    0.3102 C   0  0  1  0  0  0  0  0  0  0  0  0
    0.1932   -0.7715   -0.1219 H   0  0  0  0  0  0  0  0  0  0  0  0
   -0.6568    1.1713   -0.5294 C   0  0  0  0  0  0  0  0  0  0  0  0
   -1.7096    1.4024   -0.7026 H   0  0  0  0  0  0  0  0  0  0  0  0
   -0.2318    1.9868    0.0600 H   0  0  0  0  0  0  0  0  0  0  0  0
    0.0641    1.1369   -1.8896 C   0  0  0  0  0  0  0  0  0  0  0  0
   -0.5015    0.5231   -2.5906 H   0  0  0  0  0  0  0  0  0  0  0  0
    0.2440    2.5361   -2.4854 C   0  0  0  0  0  0  0  0  0  0  0  0
    0.7952    3.1679   -1.7876 H   0  0  0  0  0  0  0  0  0  0  0  0
    0.8003    2.4681   -3.4206 H   0  0  0  0  0  0  0  0  0  0  0  0
   -0.7215    2.9928   -2.6918 H   0  0  0  0  0  0  0  0  0  0  0  0
    1.4489    0.5119   -1.7242 C   0  0  0  0  0  0  0  0  0  0  0  0
    1.3501   -0.4996   -1.3306 H   0  0  0  0  0  0  0  0  0  0  0  0
    1.9505    0.4611   -2.6906 H   0  0  0  0  0  0  0  0  0  0  0  0
    2.0506    1.1083   -1.0374 H   0  0  0  0  0  0  0  0  0  0  0  0
   -0.1913    0.1554    1.7759 C   0  0  0  0  0  0  0  0  0  0  0  0
    0.9476   -0.0766    2.1748 O   0  0  0  0  0  0  0  0  0  0  0  0
   -1.1502    0.6393    2.5760 N   0  0  0  0  0  0  0  0  0  0  0  0
   -2.0581    0.8092    2.1736 H   0  0  0  0  0  0  0  0  0  0  0  0
   -0.9568    0.9369    3.9933 C   0  0  0  0  0  0  0  0  0  0  0  0
   -0.1600    1.6750    4.1097 H   0  0  0  0  0  0  0  0  0  0  0  0
   -1.8775    1.3307    4.4266 H   0  0  0  0  0  0  0  0  0  0  0  0
   -0.6678    0.0287    4.5244 H   0  0  0  0  0  0  0  0  0  0  0  0
  5  6  2  0  0  0  0
  5  7  1  0  0  0  0
  2  3  1  0  0  0  0
  2  4  1  0  0  0  0
  2  5  1  0  0  0  0
  1  2  1  0  0  0  0
 24 25  2  0  0  0  0
 24 26  1  0  0  0  0
 20 21  1  0  0  0  0
 20 22  1  0  0  0  0
 20 23  1  0  0  0  0
 16 17  1  0  0  0  0
 16 18  1  0  0  0  0
 16 19  1  0  0  0  0
 14 15  1  0  0  0  0
 14 16  1  0  0  0  0
 14 20  1  0  0  0  0
 11 12  1  0  0  0  0
 11 13  1  0  0  0  0
 11 14  1  0  0  0  0
  9 10  1  0  0  0  0
  9 11  1  0  0  0  0
  9 24  1  0  0  0  0
  7  8  1  0  0  0  0
  7  9  1  0  0  0  0
 28 29  1  0  0  0  0
 28 30  1  0  0  0  0
 28 31  1  0  0  0  0
 26 27  1  0  0  0  0
 26 28  1  0  0  0  0
M  END
$$$$
default_name
  -OEChem-02102213163D

 31 30  0     1  0  0  0  0  0999 V2000
   -3.5895   -3.5013    1.1082 H   0  0  0  0  0  0  0  0  0  0  0  0
   -3.5145   -2.5363    0.6082 C   0  0  0  0  0  0  0  0  0  0  0  0
   -4.2285   -1.8413    1.0452 H   0  0  0  0  0  0  0  0  0  0  0  0
   -3.7155   -2.6583   -0.4538 H   0  0  0  0  0  0  0  0  0  0  0  0
   -2.1155   -1.9963    0.7922 C   0  0  0  0  0  0  0  0  0  0  0  0
   -1.2875   -2.6383    1.4252 O   0  0  0  0  0  0  0  0  0  0  0  0
   -1.8575   -0.8123    0.2402 N   0  0  0  0  0  0  0  0  0  0  0  0
   -2.6005   -0.3333   -0.2478 H   0  0  0  0  0  0  0  0  0  0  0  0
   -0.5675   -0.1203    0.3102 C   0  0  1  0  0  0  0  0  0  0  0  0
    0.1932   -0.7715   -0.1219 H   0  0  0  0  0  0  0  0  0  0  0  0
   -0.6568    1.1713   -0.5294 C   0  0  0  0  0  0  0  0  0  0  0  0
   -1.7096    1.4024   -0.7026 H   0  0  0  0  0  0  0  0  0  0  0  0
   -0.2318    1.9868    0.0600 H   0  0  0  0  0  0  0  0  0  0  0  0
    0.0641    1.1369   -1.8896 C   0  0  0  0  0  0  0  0  0  0  0  0
   -0.6127    0.7580   -2.6554 H   0  0  0  0  0  0  0  0  0  0  0  0
    0.5705    2.5191   -2.3120 C   0  0  0  0  0  0  0  0  0  0  0  0
    1.2374    2.9191   -1.5470 H   0  0  0  0  0  0  0  0  0  0  0  0
    1.1150    2.4387   -3.2530 H   0  0  0  0  0  0  0  0  0  0  0  0
   -0.2610    3.2062   -2.4531 H   0  0  0  0  0  0  0  0  0  0  0  0
    1.2661    0.1962   -1.8131 C   0  0  0  0  0  0  0  0  0  0  0  0
    0.9312   -0.8057   -1.5448 H   0  0  0  0  0  0  0  0  0  0  0  0
    1.7619    0.1488   -2.7827 H   0  0  0  0  0  0  0  0  0  0  0  0
    1.9742    0.5517   -1.0638 H   0  0  0  0  0  0  0  0  0  0  0  0
   -0.1913    0.1554    1.7759 C   0  0  0  0  0  0  0  0  0  0  0  0
    0.9476   -0.0766    2.1748 O   0  0  0  0  0  0  0  0  0  0  0  0
   -1.1502    0.6393    2.5760 N   0  0  0  0  0  0  0  0  0  0  0  0
   -2.0581    0.8092    2.1736 H   0  0  0  0  0  0  0  0  0  0  0  0
   -0.9568    0.9369    3.9933 C   0  0  0  0  0  0  0  0  0  0  0  0
   -0.1600    1.6750    4.1097 H   0  0  0  0  0  0  0  0  0  0  0  0
   -1.8775    1.3307    4.4266 H   0  0  0  0  0  0  0  0  0  0  0  0
   -0.6678    0.0287    4.5244 H   0  0  0  0  0  0  0  0  0  0  0  0
  5  6  2  0  0  0  0
  5  7  1  0  0  0  0
  2  3  1  0  0  0  0
  2  4  1  0  0  0  0
  2  5  1  0  0  0  0
  1  2  1  0  0  0  0
 24 25  2  0  0  0  0
 24 26  1  0  0  0  0
 20 21  1  0  0  0  0
 20 22  1  0  0  0  0
 20 23  1  0  0  0  0
 16 17  1  0  0  0  0
 16 18  1  0  0  0  0
 16 19  1  0  0  0  0
 14 15  1  0  0  0  0
 14 16  1  0  0  0  0
 14 20  1  0  0  0  0
 11 12  1  0  0  0  0
 11 13  1  0  0  0  0
 11 14  1  0  0  0  0
  9 10  1  0  0  0  0
  9 11  1  0  0  0  0
  9 24  1  0  0  0  0
  7  8  1  0  0  0  0
  7  9  1  0  0  0  0
 28 29  1  0  0  0  0
 28 30  1  0  0  0  0
 28 31  1  0  0  0  0
 26 27  1  0  0  0  0
 26 28  1  0  0  0  0
M  END
$$$$
default_name
  -OEChem-02102213163D

 31 30  0     1  0  0  0  0  0999 V2000
   -3.5895   -3.5013    1.1082 H   0  0  0  0  0  0  0  0  0  0  0  0
   -3.5145   -2.5363    0.6082 C   0  0  0  0  0  0  0  0  0  0  0  0
   -4.2285   -1.8413    1.0452 H   0  0  0  0  0  0  0  0  0  0  0  0
   -3.7155   -2.6583   -0.4538 H   0  0  0  0  0  0  0  0  0  0  0  0
   -2.1155   -1.9963    0.7922 C   0  0  0  0  0  0  0  0  0  0  0  0
   -1.2875   -2.6383    1.4252 O   0  0  0  0  0  0  0  0  0  0  0  0
   -1.8575   -0.8123    0.2402 N   0  0  0  0  0  0  0  0  0  0  0  0
   -2.6005   -0.3333   -0.2478 H   0  0  0  0  0  0  0  0  0  0  0  0
   -0.5675   -0.1203    0.3102 C   0  0  1  0  0  0  0  0  0  0  0  0
    0.1932   -0.7715   -0.1219 H   0  0  0  0  0  0  0  0  0  0  0  0
   -0.6568    1.1713   -0.5294 C   0  0  0  0  0  0  0  0  0  0  0  0
   -1.7096    1.4024   -0.7026 H   0  0  0  0  0  0  0  0  0  0  0  0
   -0.2318    1.9868    0.0600 H   0  0  0  0  0  0  0  0  0  0  0  0
    0.0641    1.1369   -1.8896 C   0  0  0  0  0  0  0  0  0  0  0  0
   -0.6659    1.0182   -2.6902 H   0  0  0  0  0  0  0  0  0  0  0  0
    0.8809    2.4069   -2.1446 C   0  0  0  0  0  0  0  0  0  0  0  0
    1.6061    2.5484   -1.3421 H   0  0  0  0  0  0  0  0  0  0  0  0
    1.4114    2.3181   -3.0929 H   0  0  0  0  0  0  0  0  0  0  0  0
    0.2312    3.2781   -2.1941 H   0  0  0  0  0  0  0  0  0  0  0  0
    1.0179   -0.0562   -1.9383 C   0  0  0  0  0  0  0  0  0  0  0  0
    0.4578   -0.9796   -1.7913 H   0  0  0  0  0  0  0  0  0  0  0  0
    1.5090   -0.0987   -2.9105 H   0  0  0  0  0  0  0  0  0  0  0  0
    1.7734    0.0347   -1.1571 H   0  0  0  0  0  0  0  0  0  0  0  0
   -0.1913    0.1554    1.7759 C   0  0  0  0  0  0  0  0  0  0  0  0
    0.9476   -0.0766    2.1748 O   0  0  0  0  0  0  0  0  0  0  0  0
   -1.1502    0.6393    2.5760 N   0  0  0  0  0  0  0  0  0  0  0  0
   -2.0581    0.8092    2.1736 H   0  0  0  0  0  0  0  0  0  0  0  0
   -0.9568    0.9369    3.9933 C   0  0  0  0  0  0  0  0  0  0  0  0
   -0.1600    1.6750    4.1097 H   0  0  0  0  0  0  0  0  0  0  0  0
   -1.8775    1.3307    4.4266 H   0  0  0  0  0  0  0  0  0  0  0  0
   -0.6678    0.0287    4.5244 H   0  0  0  0  0  0  0  0  0  0  0  0
  5  6  2  0  0  0  0
  5  7  1  0  0  0  0
  2  3  1  0  0  0  0
  2  4  1  0  0  0  0
  2  5  1  0  0  0  0
  1  2  1  0  0  0  0
 24 25  2  0  0  0  0
 24 26  1  0  0  0  0
 20 21  1  0  0  0  0
 20 22  1  0  0  0  0
 20 23  1  0  0  0  0
 16 17  1  0  0  0  0
 16 18  1  0  0  0  0
 16 19  1  0  0  0  0
 14 15  1  0  0  0  0
 14 16  1  0  0  0  0
 14 20  1  0  0  0  0
 11 12  1  0  0  0  0
 11 13  1  0  0  0  0
 11 14  1  0  0  0  0
  9 10  1  0  0  0  0
  9 11  1  0  0  0  0
  9 24  1  0  0  0  0
  7  8  1  0  0  0  0
  7  9  1  0  0  0  0
 28 29  1  0  0  0  0
 28 30  1  0  0  0  0
 28 31  1  0  0  0  0
 26 27  1  0  0  0  0
 26 28  1  0  0  0  0
M  END
$$$$
default_name
  -OEChem-02102213163D

 31 30  0     1  0  0  0  0  0999 V2000
   -3.5895   -3.5013    1.1082 H   0  0  0  0  0  0  0  0  0  0  0  0
   -3.5145   -2.5363    0.6082 C   0  0  0  0  0  0  0  0  0  0  0  0
   -4.2285   -1.8413    1.0452 H   0  0  0  0  0  0  0  0  0  0  0  0
   -3.7155   -2.6583   -0.4538 H   0  0  0  0  0  0  0  0  0  0  0  0
   -2.1155   -1.9963    0.7922 C   0  0  0  0  0  0  0  0  0  0  0  0
   -1.2875   -2.6383    1.4252 O   0  0  0  0  0  0  0  0  0  0  0  0
   -1.8575   -0.8123    0.2402 N   0  0  0  0  0  0  0  0  0  0  0  0
   -2.6005   -0.3333   -0.2478 H   0  0  0  0  0  0  0  0  0  0  0  0
   -0.5675   -0.1203    0.3102 C   0  0  1  0  0  0  0  0  0  0  0  0
    0.1932   -0.7715   -0.1219 H   0  0  0  0  0  0  0  0  0  0  0  0
   -0.6568    1.1713   -0.5294 C   0  0  0  0  0  0  0  0  0  0  0  0
   -1.7096    1.4024   -0.7026 H   0  0  0  0  0  0  0  0  0  0  0  0
   -0.2318    1.9868    0.0600 H   0  0  0  0  0  0  0  0  0  0  0  0
    0.0641    1.1369   -1.8896 C   0  0  0  0  0  0  0  0  0  0  0  0
   -0.6577    1.2859   -2.6926 H   0  0  0  0  0  0  0  0  0  0  0  0
    1.1542    2.2074   -1.9947 C   0  0  0  0  0  0  0  0  0  0  0  0
    1.8765    2.0813   -1.1870 H   0  0  0  0  0  0  0  0  0  0  0  0
    1.6691    2.1143   -2.9512 H   0  0  0  0  0  0  0  0  0  0  0  0
    0.7216    3.2036   -1.9323 H   0  0  0  0  0  0  0  0  0  0  0  0
    0.7211   -0.2281   -2.0912 C   0  0  0  0  0  0  0  0  0  0  0  0
   -0.0377   -1.0095   -2.0532 H   0  0  0  0  0  0  0  0  0  0  0  0
    1.2088   -0.2645   -3.0654 H   0  0  0  0  0  0  0  0  0  0  0  0
    1.4618   -0.4074   -1.3111 H   0  0  0  0  0  0  0  0  0  0  0  0
   -0.1913    0.1554    1.7759 C   0  0  0  0  0  0  0  0  0  0  0  0
    0.9476   -0.0766    2.1748 O   0  0  0  0  0  0  0  0  0  0  0  0
   -1.1502    0.6393    2.5760 N   0  0  0  0  0  0  0  0  0  0  0  0
   -2.0581    0.8092    2.1736 H   0  0  0  0  0  0  0  0  0  0  0  0
   -0.9568    0.9369    3.9933 C   0  0  0  0  0  0  0  0  0  0  0  0
   -0.1600    1.6750    4.1097 H   0  0  0  0  0  0  0  0  0  0  0  0
   -1.8775    1.3307    4.4266 H   0  0  0  0  0  0  0  0  0  0  0  0
   -0.6678    0.0287    4.5244 H   0  0  0  0  0  0  0  0  0  0  0  0
  5  6  2  0  0  0  0
  5  7  1  0  0  0  0
  2  3  1  0  0  0  0
  2  4  1  0  0  0  0
  2  5  1  0  0  0  0
  1  2  1  0  0  0  0
 24 25  2  0  0  0  0
 24 26  1  0  0  0  0
 20 21  1  0  0  0  0
 20 22  1  0  0  0  0
 20 23  1  0  0  0  0
 16 17  1  0  0  0  0
 16 18  1  0  0  0  0
 16 19  1  0  0  0  0
 14 15  1  0  0  0  0
 14 16  1  0  0  0  0
 14 20  1  0  0  0  0
 11 12  1  0  0  0  0
 11 13  1  0  0  0  0
 11 14  1  0  0  0  0
  9 10  1  0  0  0  0
  9 11  1  0  0  0  0
  9 24  1  0  0  0  0
  7  8  1  0  0  0  0
  7  9  1  0  0  0  0
 28 29  1  0  0  0  0
 28 30  1  0  0  0  0
 28 31  1  0  0  0  0
 26 27  1  0  0  0  0
 26 28  1  0  0  0  0
M  END
$$$$
default_name
  -OEChem-02102213163D

 31 30  0     1  0  0  0  0  0999 V2000
   -3.5895   -3.5013    1.1082 H   0  0  0  0  0  0  0  0  0  0  0  0
   -3.5145   -2.5363    0.6082 C   0  0  0  0  0  0  0  0  0  0  0  0
   -4.2285   -1.8413    1.0452 H   0  0  0  0  0  0  0  0  0  0  0  0
   -3.7155   -2.6583   -0.4538 H   0  0  0  0  0  0  0  0  0  0  0  0
   -2.1155   -1.9963    0.7922 C   0  0  0  0  0  0  0  0  0  0  0  0
   -1.2875   -2.6383    1.4252 O   0  0  0  0  0  0  0  0  0  0  0  0
   -1.8575   -0.8123    0.2402 N   0  0  0  0  0  0  0  0  0  0  0  0
   -2.6005   -0.3333   -0.2478 H   0  0  0  0  0  0  0  0  0  0  0  0
   -0.5675   -0.1203    0.3102 C   0  0  1  0  0  0  0  0  0  0  0  0
    0.1932   -0.7715   -0.1219 H   0  0  0  0  0  0  0  0  0  0  0  0
   -0.6568    1.1713   -0.5294 C   0  0  0  0  0  0  0  0  0  0  0  0
   -1.7096    1.4024   -0.7026 H   0  0  0  0  0  0  0  0  0  0  0  0
   -0.2318    1.9868    0.0600 H   0  0  0  0  0  0  0  0  0  0  0  0
    0.0641    1.1369   -1.8896 C   0  0  0  0  0  0  0  0  0  0  0  0
   -0.5885    1.5429   -2.6625 H   0  0  0  0  0  0  0  0  0  0  0  0
    1.3716    1.9340   -1.8726 C   0  0  0  0  0  0  0  0  0  0  0  0
    2.0299    1.5495   -1.0923 H   0  0  0  0  0  0  0  0  0  0  0  0
    1.8706    1.8415   -2.8375 H   0  0  0  0  0  0  0  0  0  0  0  0
    1.1767    2.9878   -1.6856 H   0  0  0  0  0  0  0  0  0  0  0  0
    0.3961   -0.3077   -2.2615 C   0  0  0  0  0  0  0  0  0  0  0  0
   -0.5217   -0.8934   -2.3127 H   0  0  0  0  0  0  0  0  0  0  0  0
    0.8818   -0.3372   -3.2368 H   0  0  0  0  0  0  0  0  0  0  0  0
    1.0606   -0.7445   -1.5152 H   0  0  0  0  0  0  0  0  0  0  0  0
   -0.1913    0.1554    1.7759 C   0  0  0  0  0  0  0  0  0  0  0  0
    0.9476   -0.0766    2.1748 O   0  0  0  0  0  0  0  0  0  0  0  0
   -1.1502    0.6393    2.5760 N   0  0  0  0  0  0  0  0  0  0  0  0
   -2.0581    0.8092    2.1736 H   0  0  0  0  0  0  0  0  0  0  0  0
   -0.9568    0.9369    3.9933 C   0  0  0  0  0  0  0  0  0  0  0  0
   -0.1600    1.6750    4.1097 H   0  0  0  0  0  0  0  0  0  0  0  0
   -1.8775    1.3307    4.4266 H   0  0  0  0  0  0  0  0  0  0  0  0
   -0.6678    0.0287    4.5244 H   0  0  0  0  0  0  0  0  0  0  0  0
  5  6  2  0  0  0  0
  5  7  1  0  0  0  0
  2  3  1  0  0  0  0
  2  4  1  0  0  0  0
  2  5  1  0  0  0  0
  1  2  1  0  0  0  0
 24 25  2  0  0  0  0
 24 26  1  0  0  0  0
 20 21  1  0  0  0  0
 20 22  1  0  0  0  0
 20 23  1  0  0  0  0
 16 17  1  0  0  0  0
 16 18  1  0  0  0  0
 16 19  1  0  0  0  0
 14 15  1  0  0  0  0
 14 16  1  0  0  0  0
 14 20  1  0  0  0  0
 11 12  1  0  0  0  0
 11 13  1  0  0  0  0
 11 14  1  0  0  0  0
  9 10  1  0  0  0  0
  9 11  1  0  0  0  0
  9 24  1  0  0  0  0
  7  8  1  0  0  0  0
  7  9  1  0  0  0  0
 28 29  1  0  0  0  0
 28 30  1  0  0  0  0
 28 31  1  0  0  0  0
 26 27  1  0  0  0  0
 26 28  1  0  0  0  0
M  END
$$$$
default_name
  -OEChem-02102213163D

 31 30  0     1  0  0  0  0  0999 V2000
   -3.5895   -3.5013    1.1082 H   0  0  0  0  0  0  0  0  0  0  0  0
   -3.5145   -2.5363    0.6082 C   0  0  0  0  0  0  0  0  0  0  0  0
   -4.2285   -1.8413    1.0452 H   0  0  0  0  0  0  0  0  0  0  0  0
   -3.7155   -2.6583   -0.4538 H   0  0  0  0  0  0  0  0  0  0  0  0
   -2.1155   -1.9963    0.7922 C   0  0  0  0  0  0  0  0  0  0  0  0
   -1.2875   -2.6383    1.4252 O   0  0  0  0  0  0  0  0  0  0  0  0
   -1.8575   -0.8123    0.2402 N   0  0  0  0  0  0  0  0  0  0  0  0
   -2.6005   -0.3333   -0.2478 H   0  0  0  0  0  0  0  0  0  0  0  0
   -0.5675   -0.1203    0.3102 C   0  0  1  0  0  0  0  0  0  0  0  0
    0.1932   -0.7715   -0.1219 H   0  0  0  0  0  0  0  0  0  0  0  0
   -0.6568    1.1713   -0.5294 C   0  0  0  0  0  0  0  0  0  0  0  0
   -1.7096    1.4024   -0.7026 H   0  0  0  0  0  0  0  0  0  0  0  0
   -0.2318    1.9868    0.0600 H   0  0  0  0  0  0  0  0  0  0  0  0
    0.0641    1.1369   -1.8896 C   0  0  0  0  0  0  0  0  0  0  0  0
   -0.4631    1.7716   -2.6018 H   0  0  0  0  0  0  0  0  0  0  0  0
    1.5185    1.6054   -1.7864 C   0  0  0  0  0  0  0  0  0  0  0  0
    2.0559    0.9892   -1.0643 H   0  0  0  0  0  0  0  0  0  0  0  0
    2.0022    1.5181   -2.7595 H   0  0  0  0  0  0  0  0  0  0  0  0
    1.5656    2.6454   -1.4708 H   0  0  0  0  0  0  0  0  0  0  0  0
    0.0649   -0.2897   -2.4375 C   0  0  0  0  0  0  0  0  0  0  0  0
   -0.9612   -0.6391   -2.5520 H   0  0  0  0  0  0  0  0  0  0  0  0
    0.5503   -0.3119   -3.4132 H   0  0  0  0  0  0  0  0  0  0  0  0
    0.5972   -0.9538   -1.7555 H   0  0  0  0  0  0  0  0  0  0  0  0
   -0.1913    0.1554    1.7759 C   0  0  0  0  0  0  0  0  0  0  0  0
    0.9476   -0.0766    2.1748 O   0  0  0  0  0  0  0  0  0  0  0  0
   -1.1502    0.6393    2.5760 N   0  0  0  0  0  0  0  0  0  0  0  0
   -2.0581    0.8092    2.1736 H   0  0  0  0  0  0  0  0  0  0  0  0
   -0.9568    0.9369    3.9933 C   0  0  0  0  0  0  0  0  0  0  0  0
   -0.1600    1.6750    4.1097 H   0  0  0  0  0  0  0  0  0  0  0  0
   -1.8775    1.3307    4.4266 H   0  0  0  0  0  0  0  0  0  0  0  0
   -0.6678    0.0287    4.5244 H   0  0  0  0  0  0  0  0  0  0  0  0
  5  6  2  0  0  0  0
  5  7  1  0  0  0  0
  2  3  1  0  0  0  0
  2  4  1  0  0  0  0
  2  5  1  0  0  0  0
  1  2  1  0  0  0  0
 24 25  2  0  0  0  0
 24 26  1  0  0  0  0
 20 21  1  0  0  0  0
 20 22  1  0  0  0  0
 20 23  1  0  0  0  0
 16 17  1  0  0  0  0
 16 18  1  0  0  0  0
 16 19  1  0  0  0  0
 14 15  1  0  0  0  0
 14 16  1  0  0  0  0
 14 20  1  0  0  0  0
 11 12  1  0  0  0  0
 11 13  1  0  0  0  0
 11 14  1  0  0  0  0
  9 10  1  0  0  0  0
  9 11  1  0  0  0  0
  9 24  1  0  0  0  0
  7  8  1  0  0  0  0
  7  9  1  0  0  0  0
 28 29  1  0  0  0  0
 28 30  1  0  0  0  0
 28 31  1  0  0  0  0
 26 27  1  0  0  0  0
 26 28  1  0  0  0  0
M  END
$$$$
default_name
  -OEChem-02102213163D

 31 30  0     1  0  0  0  0  0999 V2000
   -3.5895   -3.5013    1.1082 H   0  0  0  0  0  0  0  0  0  0  0  0
   -3.5145   -2.5363    0.6082 C   0  0  0  0  0  0  0  0  0  0  0  0
   -4.2285   -1.8413    1.0452 H   0  0  0  0  0  0  0  0  0  0  0  0
   -3.7155   -2.6583   -0.4538 H   0  0  0  0  0  0  0  0  0  0  0  0
   -2.1155   -1.9963    0.7922 C   0  0  0  0  0  0  0  0  0  0  0  0
   -1.2875   -2.6383    1.4252 O   0  0  0  0  0  0  0  0  0  0  0  0
   -1.8575   -0.8123    0.2402 N   0  0  0  0  0  0  0  0  0  0  0  0
   -2.6005   -0.3333   -0.2478 H   0  0  0  0  0  0  0  0  0  0  0  0
   -0.5675   -0.1203    0.3102 C   0  0  1  0  0  0  0  0  0  0  0  0
    0.1932   -0.7715   -0.1219 H   0  0  0  0  0  0  0  0  0  0  0  0
   -0.6568    1.1713   -0.5294 C   0  0  0  0  0  0  0  0  0  0  0  0
   -1.7096    1.4024   -0.7026 H   0  0  0  0  0  0  0  0  0  0  0  0
   -0.2318    1.9868    0.0600 H   0  0  0  0  0  0  0  0  0  0  0  0
    0.0641    1.1369   -1.8896 C   0  0  0  0  0  0  0  0  0  0  0  0
   -0.2900    1.9565   -2.5147 H   0  0  0  0  0  0  0  0  0  0  0  0
    1.5847    1.2440   -1.7422 C   0  0  0  0  0  0  0  0  0  0  0  0
    1.9528    0.4387   -1.1050 H   0  0  0  0  0  0  0  0  0  0  0  0
    2.0550    1.1661   -2.7227 H   0  0  0  0  0  0  0  0  0  0  0  0
    1.8617    2.1998   -1.3026 H   0  0  0  0  0  0  0  0  0  0  0  0
   -0.2499   -0.1753   -2.6072 C   0  0  0  0  0  0  0  0  0  0  0  0
   -1.3261   -0.2640   -2.7549 H   0  0  0  0  0  0  0  0  0  0  0  0
    0.2370   -0.1903   -3.5823 H   0  0  0  0  0  0  0  0  0  0  0  0
    0.1031   -1.0208   -2.0157 H   0  0  0  0  0  0  0  0  0  0  0  0
   -0.1913    0.1554    1.7759 C   0  0  0  0  0  0  0  0  0  0  0  0
    0.9476   -0.0766    2.1748 O   0  0  0  0  0  0  0  0  0  0  0  0
   -1.1502    0.6393    2.5760 N   0  0  0  0  0  0  0  0  0  0  0  0
   -2.0581    0.8092    2.1736 H   0  0  0  0  0  0  0  0  0  0  0  0
   -0.9568    0.9369    3.9933 C   0  0  0  0  0  0  0  0  0  0  0  0
   -0.1600    1.6750    4.1097 H   0  0  0  0  0  0  0  0  0  0  0  0
   -1.8775    1.3307    4.4266 H   0  0  0  0  0  0  0  0  0  0  0  0
   -0.6678    0.0287    4.5244 H   0  0  0  0  0  0  0  0  0  0  0  0
  5  6  2  0  0  0  0
  5  7  1  0  0  0  0
  2  3  1  0  0  0  0
  2  4  1  0  0  0  0
  2  5  1  0  0  0  0
  1  2  1  0  0  0  0
 24 25  2  0  0  0  0
 24 26  1  0  0  0  0
 20 21  1  0  0  0  0
 20 22  1  0  0  0  0
 20 23  1  0  0  0  0
 16 17  1  0  0  0  0
 16 18  1  0  0  0  0
 16 19  1  0  0  0  0
 14 15  1  0  0  0  0
 14 16  1  0  0  0  0
 14 20  1  0  0  0  0
 11 12  1  0  0  0  0
 11 13  1  0  0  0  0
 11 14  1  0  0  0  0
  9 10  1  0  0  0  0
  9 11  1  0  0  0  0
  9 24  1  0  0  0  0
  7  8  1  0  0  0  0
  7  9  1  0  0  0  0
 28 29  1  0  0  0  0
 28 30  1  0  0  0  0
 28 31  1  0  0  0  0
 26 27  1  0  0  0  0
 26 28  1  0  0  0  0
M  END
$$$$
default_name
  -OEChem-02102213163D

 31 30  0     1  0  0  0  0  0999 V2000
   -3.5895   -3.5013    1.1082 H   0  0  0  0  0  0  0  0  0  0  0  0
   -3.5145   -2.5363    0.6082 C   0  0  0  0  0  0  0  0  0  0  0  0
   -4.2285   -1.8413    1.0452 H   0  0  0  0  0  0  0  0  0  0  0  0
   -3.7155   -2.6583   -0.4538 H   0  0  0  0  0  0  0  0  0  0  0  0
   -2.1155   -1.9963    0.7922 C   0  0  0  0  0  0  0  0  0  0  0  0
   -1.2875   -2.6383    1.4252 O   0  0  0  0  0  0  0  0  0  0  0  0
   -1.8575   -0.8123    0.2402 N   0  0  0  0  0  0  0  0  0  0  0  0
   -2.6005   -0.3333   -0.2478 H   0  0  0  0  0  0  0  0  0  0  0  0
   -0.5675   -0.1203    0.3102 C   0  0  1  0  0  0  0  0  0  0  0  0
    0.1932   -0.7715   -0.1219 H   0  0  0  0  0  0  0  0  0  0  0  0
   -0.6568    1.1713   -0.5294 C   0  0  0  0  0  0  0  0  0  0  0  0
   -1.7096    1.4024   -0.7026 H   0  0  0  0  0  0  0  0  0  0  0  0
   -0.2318    1.9868    0.0600 H   0  0  0  0  0  0  0  0  0  0  0  0
    0.0641    1.1369   -1.8896 C   0  0  0  0  0  0  0  0  0  0  0  0
   -0.0811    2.0851   -2.4073 H   0  0  0  0  0  0  0  0  0  0  0  0
    1.5657    0.8744   -1.7428 C   0  0  0  0  0  0  0  0  0  0  0  0
    1.7276   -0.0645   -1.2116 H   0  0  0  0  0  0  0  0  0  0  0  0
    2.0252    0.8096   -2.7294 H   0  0  0  0  0  0  0  0  0  0  0  0
    2.0448    1.6813   -1.1924 H   0  0  0  0  0  0  0  0  0  0  0  0
   -0.5268    0.0278   -2.7591 C   0  0  0  0  0  0  0  0  0  0  0  0
   -1.5917    0.2063   -2.9076 H   0  0  0  0  0  0  0  0  0  0  0  0
   -0.0369    0.0193   -3.7328 H   0  0  0  0  0  0  0  0  0  0  0  0
   -0.3880   -0.9410   -2.2780 H   0  0  0  0  0  0  0  0  0  0  0  0
   -0.1913    0.1554    1.7759 C   0  0  0  0  0  0  0  0  0  0  0  0
    0.9476   -0.0766    2.1748 O   0  0  0  0  0  0  0  0  0  0  0  0
   -1.1502    0.6393    2.5760 N   0  0  0  0  0  0  0  0  0  0  0  0
   -2.0581    0.8092    2.1736 H   0  0  0  0  0  0  0  0  0  0  0  0
   -0.9568    0.9369    3.9933 C   0  0  0  0  0  0  0  0  0  0  0  0
   -0.1600    1.6750    4.1097 H   0  0  0  0  0  0  0  0  0  0  0  0
   -1.8775    1.3307    4.4266 H   0  0  0  0  0  0  0  0  0  0  0  0
   -0.6678    0.0287    4.5244 H   0  0  0  0  0  0  0  0  0  0  0  0
  5  6  2  0  0  0  0
  5  7  1  0  0  0  0
  2  3  1  0  0  0  0
  2  4  1  0  0  0  0
  2  5  1  0  0  0  0
  1  2  1  0  0  0  0
 24 25  2  0  0  0  0
 24 26  1  0  0  0  0
 20 21  1  0  0  0  0
 20 22  1  0  0  0  0
 20 23  1  0  0  0  0
 16 17  1  0  0  0  0
 16 18  1  0  0  0  0
 16 19  1  0  0  0  0
 14 15  1  0  0  0  0
 14 16  1  0  0  0  0
 14 20  1  0  0  0  0
 11 12  1  0  0  0  0
 11 13  1  0  0  0  0
 11 14  1  0  0  0  0
  9 10  1  0  0  0  0
  9 11  1  0  0  0  0
  9 24  1  0  0  0  0
  7  8  1  0  0  0  0
  7  9  1  0  0  0  0
 28 29  1  0  0  0  0
 28 30  1  0  0  0  0
 28 31  1  0  0  0  0
 26 27  1  0  0  0  0
 26 28  1  0  0  0  0
M  END
$$$$
default_name
  -OEChem-02102213163D

 31 30  0     1  0  0  0  0  0999 V2000
   -3.5895   -3.5013    1.1082 H   0  0  0  0  0  0  0  0  0  0  0  0
   -3.5145   -2.5363    0.6082 C   0  0  0  0  0  0  0  0  0  0  0  0
   -4.2285   -1.8413    1.0452 H   0  0  0  0  0  0  0  0  0  0  0  0
   -3.7155   -2.6583   -0.4538 H   0  0  0  0  0  0  0  0  0  0  0  0
   -2.1155   -1.9963    0.7922 C   0  0  0  0  0  0  0  0  0  0  0  0
   -1.2875   -2.6383    1.4252 O   0  0  0  0  0  0  0  0  0  0  0  0
   -1.8575   -0.8123    0.2402 N   0  0  0  0  0  0  0  0  0  0  0  0
   -2.6005   -0.3333   -0.2478 H   0  0  0  0  0  0  0  0  0  0  0  0
   -0.5675   -0.1203    0.3102 C   0  0  1  0  0  0  0  0  0  0  0  0
    0.1932   -0.7715   -0.1219 H   0  0  0  0  0  0  0  0  0  0  0  0
   -0.6568    1.1713   -0.5294 C   0  0  0  0  0  0  0  0  0  0  0  0
   -1.7096    1.4024   -0.7026 H   0  0  0  0  0  0  0  0  0  0  0  0
   -0.2318    1.9868    0.0600 H   0  0  0  0  0  0  0  0  0  0  0  0
    0.0641    1.1369   -1.8896 C   0  0  0  0  0  0  0  0  0  0  0  0
    0.1495    2.1484   -2.2866 H   0  0  0  0  0  0  0  0  0  0  0  0
    1.4630    0.5218   -1.7884 C   0  0  0  0  0  0  0  0  0  0  0  0
    1.3956   -0.4862   -1.3769 H   0  0  0  0  0  0  0  0  0  0  0  0
    1.9151    0.4729   -2.7793 H   0  0  0  0  0  0  0  0  0  0  0  0
    2.1025    1.1252   -1.1477 H   0  0  0  0  0  0  0  0  0  0  0  0
   -0.7470    0.3057   -2.8828 C   0  0  0  0  0  0  0  0  0  0  0  0
   -1.7398    0.7399   -2.9996 H   0  0  0  0  0  0  0  0  0  0  0  0
   -0.2527    0.3026   -3.8543 H   0  0  0  0  0  0  0  0  0  0  0  0
   -0.8425   -0.7199   -2.5245 H   0  0  0  0  0  0  0  0  0  0  0  0
   -0.1913    0.1554    1.7759 C   0  0  0  0  0  0  0  0  0  0  0  0
    0.9476   -0.0766    2.1748 O   0  0  0  0  0  0  0  0  0  0  0  0
   -1.1502    0.6393    2.5760 N   0  0  0  0  0  0  0  0  0  0  0  0
   -2.0581    0.8092    2.1736 H   0  0  0  0  0  0  0  0  0  0  0  0
   -0.9568    0.9369    3.9933 C   0  0  0  0  0  0  0  0  0  0  0  0
   -0.1600    1.6750    4.1097 H   0  0  0  0  0  0  0  0  0  0  0  0
   -1.8775    1.3307    4.4266 H   0  0  0  0  0  0  0  0  0  0  0  0
   -0.6678    0.0287    4.5244 H   0  0  0  0  0  0  0  0  0  0  0  0
  5  6  2  0  0  0  0
  5  7  1  0  0  0  0
  2  3  1  0  0  0  0
  2  4  1  0  0  0  0
  2  5  1  0  0  0  0
  1  2  1  0  0  0  0
 24 25  2  0  0  0  0
 24 26  1  0  0  0  0
 20 21  1  0  0  0  0
 20 22  1  0  0  0  0
 20 23  1  0  0  0  0
 16 17  1  0  0  0  0
 16 18  1  0  0  0  0
 16 19  1  0  0  0  0
 14 15  1  0  0  0  0
 14 16  1  0  0  0  0
 14 20  1  0  0  0  0
 11 12  1  0  0  0  0
 11 13  1  0  0  0  0
 11 14  1  0  0  0  0
  9 10  1  0  0  0  0
  9 11  1  0  0  0  0
  9 24  1  0  0  0  0
  7  8  1  0  0  0  0
  7  9  1  0  0  0  0
 28 29  1  0  0  0  0
 28 30  1  0  0  0  0
 28 31  1  0  0  0  0
 26 27  1  0  0  0  0
 26 28  1  0  0  0  0
M  END
$$$$
default_name
  -OEChem-02102213163D

 31 30  0     1  0  0  0  0  0999 V2000
   -3.5895   -3.5013    1.1082 H   0  0  0  0  0  0  0  0  0  0  0  0
   -3.5145   -2.5363    0.6082 C   0  0  0  0  0  0  0  0  0  0  0  0
   -4.2285   -1.8413    1.0452 H   0  0  0  0  0  0  0  0  0  0  0  0
   -3.7155   -2.6583   -0.4538 H   0  0  0  0  0  0  0  0  0  0  0  0
   -2.1155   -1.9963    0.7922 C   0  0  0  0  0  0  0  0  0  0  0  0
   -1.2875   -2.6383    1.4252 O   0  0  0  0  0  0  0  0  0  0  0  0
   -1.8575   -0.8123    0.2402 N   0  0  0  0  0  0  0  0  0  0  0  0
   -2.6005   -0.3333   -0.2478 H   0  0  0  0  0  0  0  0  0  0  0  0
   -0.5675   -0.1203    0.3102 C   0  0  1  0  0  0  0  0  0  0  0  0
    0.1932   -0.7715   -0.1219 H   0  0  0  0  0  0  0  0  0  0  0  0
   -0.6568    1.1713   -0.5294 C   0  0  0  0  0  0  0  0  0  0  0  0
   -1.7096    1.4024   -0.7026 H   0  0  0  0  0  0  0  0  0  0  0  0
   -0.2318    1.9868    0.0600 H   0  0  0  0  0  0  0  0  0  0  0  0
    0.0641    1.1369   -1.8896 C   0  0  0  0  0  0  0  0  0  0  0  0
    0.3861    2.1422   -2.1611 H   0  0  0  0  0  0  0  0  0  0  0  0
    1.2833    0.2103   -1.8757 C   0  0  0  0  0  0  0  0  0  0  0  0
    0.9795   -0.7976   -1.5896 H   0  0  0  0  0  0  0  0  0  0  0  0
    1.7319    0.1789   -2.8689 H   0  0  0  0  0  0  0  0  0  0  0  0
    2.0309    0.5694   -1.1717 H   0  0  0  0  0  0  0  0  0  0  0  0
   -0.8954    0.6394   -2.9700 C   0  0  0  0  0  0  0  0  0  0  0  0
   -1.7604    1.3002   -3.0247 H   0  0  0  0  0  0  0  0  0  0  0  0
   -0.3956    0.6404   -3.9386 H   0  0  0  0  0  0  0  0  0  0  0  0
   -1.2296   -0.3726   -2.7385 H   0  0  0  0  0  0  0  0  0  0  0  0
   -0.1913    0.1554    1.7759 C   0  0  0  0  0  0  0  0  0  0  0  0
    0.9476   -0.0766    2.1748 O   0  0  0  0  0  0  0  0  0  0  0  0
   -1.1502    0.6393    2.5760 N   0  0  0  0  0  0  0  0  0  0  0  0
   -2.0581    0.8092    2.1736 H   0  0  0  0  0  0  0  0  0  0  0  0
   -0.9568    0.9369    3.9933 C   0  0  0  0  0  0  0  0  0  0  0  0
   -0.1600    1.6750    4.1097 H   0  0  0  0  0  0  0  0  0  0  0  0
   -1.8775    1.3307    4.4266 H   0  0  0  0  0  0  0  0  0  0  0  0
   -0.6678    0.0287    4.5244 H   0  0  0  0  0  0  0  0  0  0  0  0
  5  6  2  0  0  0  0
  5  7  1  0  0  0  0
  2  3  1  0  0  0  0
  2  4  1  0  0  0  0
  2  5  1  0  0  0  0
  1  2  1  0  0  0  0
 24 25  2  0  0  0  0
 24 26  1  0  0  0  0
 20 21  1  0  0  0  0
 20 22  1  0  0  0  0
 20 23  1  0  0  0  0
 16 17  1  0  0  0  0
 16 18  1  0  0  0  0
 16 19  1  0  0  0  0
 14 15  1  0  0  0  0
 14 16  1  0  0  0  0
 14 20  1  0  0  0  0
 11 12  1  0  0  0  0
 11 13  1  0  0  0  0
 11 14  1  0  0  0  0
  9 10  1  0  0  0  0
  9 11  1  0  0  0  0
  9 24  1  0  0  0  0
  7  8  1  0  0  0  0
  7  9  1  0  0  0  0
 28 29  1  0  0  0  0
 28 30  1  0  0  0  0
 28 31  1  0  0  0  0
 26 27  1  0  0  0  0
 26 28  1  0  0  0  0
M  END
$$$$
default_name
  -OEChem-02102213163D

 31 30  0     1  0  0  0  0  0999 V2000
   -3.5895   -3.5013    1.1082 H   0  0  0  0  0  0  0  0  0  0  0  0
   -3.5145   -2.5363    0.6082 C   0  0  0  0  0  0  0  0  0  0  0  0
   -4.2285   -1.8413    1.0452 H   0  0  0  0  0  0  0  0  0  0  0  0
   -3.7155   -2.6583   -0.4538 H   0  0  0  0  0  0  0  0  0  0  0  0
   -2.1155   -1.9963    0.7922 C   0  0  0  0  0  0  0  0  0  0  0  0
   -1.2875   -2.6383    1.4252 O   0  0  0  0  0  0  0  0  0  0  0  0
   -1.8575   -0.8123    0.2402 N   0  0  0  0  0  0  0  0  0  0  0  0
   -2.6005   -0.3333   -0.2478 H   0  0  0  0  0  0  0  0  0  0  0  0
   -0.5675   -0.1203    0.3102 C   0  0  1  0  0  0  0  0  0  0  0  0
    0.1932   -0.7715   -0.1219 H   0  0  0  0  0  0  0  0  0  0  0  0
   -0.6568    1.1713   -0.5294 C   0  0  0  0  0  0  0  0  0  0  0  0
   -1.7096    1.4024   -0.7026 H   0  0  0  0  0  0  0  0  0  0  0  0
   -0.2318    1.9868    0.0600 H   0  0  0  0  0  0  0  0  0  0  0  0
    0.0641    1.1369   -1.8896 C   0  0  0  0  0  0  0  0  0  0  0  0
    0.6124    2.0670   -2.0393 H   0  0  0  0  0  0  0  0  0  0  0  0
    1.0391   -0.0390   -1.9988 C   0  0  0  0  0  0  0  0  0  0  0  0
    0.5076   -0.9774   -1.8351 H   0  0  0  0  0  0  0  0  0  0  0  0
    1.4884   -0.0523   -2.9921 H   0  0  0  0  0  0  0  0  0  0  0  0
    1.8347    0.0519   -1.2625 H   0  0  0  0  0  0  0  0  0  0  0  0
   -0.9619    1.0062   -3.0145 C   0  0  0  0  0  0  0  0  0  0  0  0
   -1.6520    1.8492   -2.9811 H   0  0  0  0  0  0  0  0  0  0  0  0
   -0.4560    1.0095   -3.9800 H   0  0  0  0  0  0  0  0  0  0  0  0
   -1.5229    0.0774   -2.9053 H   0  0  0  0  0  0  0  0  0  0  0  0
   -0.1913    0.1554    1.7759 C   0  0  0  0  0  0  0  0  0  0  0  0
    0.9476   -0.0766    2.1748 O   0  0  0  0  0  0  0  0  0  0  0  0
   -1.1502    0.6393    2.5760 N   0  0  0  0  0  0  0  0  0  0  0  0
   -2.0581    0.8092    2.1736 H   0  0  0  0  0  0  0  0  0  0  0  0
   -0.9568    0.9369    3.9933 C   0  0  0  0  0  0  0  0  0  0  0  0
   -0.1600    1.6750    4.1097 H   0  0  0  0  0  0  0  0  0  0  0  0
   -1.8775    1.3307    4.4266 H   0  0  0  0  0  0  0  0  0  0  0  0
   -0.6678    0.0287    4.5244 H   0  0  0  0  0  0  0  0  0  0  0  0
  5  6  2  0  0  0  0
  5  7  1  0  0  0  0
  2  3  1  0  0  0  0
  2  4  1  0  0  0  0
  2  5  1  0  0  0  0
  1  2  1  0  0  0  0
 24 25  2  0  0  0  0
 24 26  1  0  0  0  0
 20 21  1  0  0  0  0
 20 22  1  0  0  0  0
 20 23  1  0  0  0  0
 16 17  1  0  0  0  0
 16 18  1  0  0  0  0
 16 19  1  0  0  0  0
 14 15  1  0  0  0  0
 14 16  1  0  0  0  0
 14 20  1  0  0  0  0
 11 12  1  0  0  0  0
 11 13  1  0  0  0  0
 11 14  1  0  0  0  0
  9 10  1  0  0  0  0
  9 11  1  0  0  0  0
  9 24  1  0  0  0  0
  7  8  1  0  0  0  0
  7  9  1  0  0  0  0
 28 29  1  0  0  0  0
 28 30  1  0  0  0  0
 28 31  1  0  0  0  0
 26 27  1  0  0  0  0
 26 28  1  0  0  0  0
M  END
$$$$
default_name
  -OEChem-02102213163D

 31 30  0     1  0  0  0  0  0999 V2000
   -3.5895   -3.5013    1.1082 H   0  0  0  0  0  0  0  0  0  0  0  0
   -3.5145   -2.5363    0.6082 C   0  0  0  0  0  0  0  0  0  0  0  0
   -4.2285   -1.8413    1.0452 H   0  0  0  0  0  0  0  0  0  0  0  0
   -3.7155   -2.6583   -0.4538 H   0  0  0  0  0  0  0  0  0  0  0  0
   -2.1155   -1.9963    0.7922 C   0  0  0  0  0  0  0  0  0  0  0  0
   -1.2875   -2.6383    1.4252 O   0  0  0  0  0  0  0  0  0  0  0  0
   -1.8575   -0.8123    0.2402 N   0  0  0  0  0  0  0  0  0  0  0  0
   -2.6005   -0.3333   -0.2478 H   0  0  0  0  0  0  0  0  0  0  0  0
   -0.5675   -0.1203    0.3102 C   0  0  1  0  0  0  0  0  0  0  0  0
    0.1932   -0.7715   -0.1219 H   0  0  0  0  0  0  0  0  0  0  0  0
   -0.6568    1.1713   -0.5294 C   0  0  0  0  0  0  0  0  0  0  0  0
   -1.7096    1.4024   -0.7026 H   0  0  0  0  0  0  0  0  0  0  0  0
   -0.2318    1.9868    0.0600 H   0  0  0  0  0  0  0  0  0  0  0  0
    0.0641    1.1369   -1.8896 C   0  0  0  0  0  0  0  0  0  0  0  0
    0.8131    1.9278   -1.9294 H   0  0  0  0  0  0  0  0  0  0  0  0
    0.7469   -0.2091   -2.1494 C   0  0  0  0  0  0  0  0  0  0  0  0
    0.0121   -1.0135   -2.0968 H   0  0  0  0  0  0  0  0  0  0  0  0
    1.2009   -0.2051   -3.1406 H   0  0  0  0  0  0  0  0  0  0  0  0
    1.5275   -0.3922   -1.4141 H   0  0  0  0  0  0  0  0  0  0  0  0
   -0.9421    1.3812   -3.0135 C   0  0  0  0  0  0  0  0  0  0  0  0
   -1.4220    2.3495   -2.8719 H   0  0  0  0  0  0  0  0  0  0  0  0
   -0.4297    1.3848   -3.9755 H   0  0  0  0  0  0  0  0  0  0  0  0
   -1.7023    0.5993   -3.0136 H   0  0  0  0  0  0  0  0  0  0  0  0
   -0.1913    0.1554    1.7759 C   0  0  0  0  0  0  0  0  0  0  0  0
    0.9476   -0.0766    2.1748 O   0  0  0  0  0  0  0  0  0  0  0  0
   -1.1502    0.6393    2.5760 N   0  0  0  0  0  0  0  0  0  0  0  0
   -2.0581    0.8092    2.1736 H   0  0  0  0  0  0  0  0  0  0  0  0
   -0.9568    0.9369    3.9933 C   0  0  0  0  0  0  0  0  0  0  0  0
   -0.1600    1.6750    4.1097 H   0  0  0  0  0  0  0  0  0  0  0  0
   -1.8775    1.3307    4.4266 H   0  0  0  0  0  0  0  0  0  0  0  0
   -0.6678    0.0287    4.5244 H   0  0  0  0  0  0  0  0  0  0  0  0
  5  6  2  0  0  0  0
  5  7  1  0  0  0  0
  2  3  1  0  0  0  0
  2  4  1  0  0  0  0
  2  5  1  0  0  0  0
  1  2  1  0  0  0  0
 24 25  2  0  0  0  0
 24 26  1  0  0  0  0
 20 21  1  0  0  0  0
 20 22  1  0  0  0  0
 20 23  1  0  0  0  0
 16 17  1  0  0  0  0
 16 18  1  0  0  0  0
 16 19  1  0  0  0  0
 14 15  1  0  0  0  0
 14 16  1  0  0  0  0
 14 20  1  0  0  0  0
 11 12  1  0  0  0  0
 11 13  1  0  0  0  0
 11 14  1  0  0  0  0
  9 10  1  0  0  0  0
  9 11  1  0  0  0  0
  9 24  1  0  0  0  0
  7  8  1  0  0  0  0
  7  9  1  0  0  0  0
 28 29  1  0  0  0  0
 28 30  1  0  0  0  0
 28 31  1  0  0  0  0
 26 27  1  0  0  0  0
 26 28  1  0  0  0  0
M  END
$$$$
default_name
  -OEChem-02102213163D

 31 30  0     1  0  0  0  0  0999 V2000
   -3.5895   -3.5013    1.1082 H   0  0  0  0  0  0  0  0  0  0  0  0
   -3.5145   -2.5363    0.6082 C   0  0  0  0  0  0  0  0  0  0  0  0
   -4.2285   -1.8413    1.0452 H   0  0  0  0  0  0  0  0  0  0  0  0
   -3.7155   -2.6583   -0.4538 H   0  0  0  0  0  0  0  0  0  0  0  0
   -2.1155   -1.9963    0.7922 C   0  0  0  0  0  0  0  0  0  0  0  0
   -1.2875   -2.6383    1.4252 O   0  0  0  0  0  0  0  0  0  0  0  0
   -1.8575   -0.8123    0.2402 N   0  0  0  0  0  0  0  0  0  0  0  0
   -2.6005   -0.3333   -0.2478 H   0  0  0  0  0  0  0  0  0  0  0  0
   -0.5675   -0.1203    0.3102 C   0  0  1  0  0  0  0  0  0  0  0  0
    0.1932   -0.7715   -0.1219 H   0  0  0  0  0  0  0  0  0  0  0  0
   -0.6568    1.1713   -0.5294 C   0  0  0  0  0  0  0  0  0  0  0  0
   -1.7096    1.4024   -0.7026 H   0  0  0  0  0  0  0  0  0  0  0  0
   -0.2318    1.9868    0.0600 H   0  0  0  0  0  0  0  0  0  0  0  0
    0.0641    1.1369   -1.8896 C   0  0  0  0  0  0  0  0  0  0  0  0
    0.9745    1.7342   -1.8389 H   0  0  0  0  0  0  0  0  0  0  0  0
    0.4267   -0.2883   -2.3171 C   0  0  0  0  0  0  0  0  0  0  0  0
   -0.4733   -0.9034   -2.3569 H   0  0  0  0  0  0  0  0  0  0  0  0
    0.8892   -0.2690   -3.3042 H   0  0  0  0  0  0  0  0  0  0  0  0
    1.1301   -0.7325   -1.6161 H   0  0  0  0  0  0  0  0  0  0  0  0
   -0.8372    1.7387   -2.9670 C   0  0  0  0  0  0  0  0  0  0  0  0
   -1.0862    2.7669   -2.7045 H   0  0  0  0  0  0  0  0  0  0  0  0
   -0.3185    1.7408   -3.9256 H   0  0  0  0  0  0  0  0  0  0  0  0
   -1.7557    1.1575   -3.0560 H   0  0  0  0  0  0  0  0  0  0  0  0
   -0.1913    0.1554    1.7759 C   0  0  0  0  0  0  0  0  0  0  0  0
    0.9476   -0.0766    2.1748 O   0  0  0  0  0  0  0  0  0  0  0  0
   -1.1502    0.6393    2.5760 N   0  0  0  0  0  0  0  0  0  0  0  0
   -2.0581    0.8092    2.1736 H   0  0  0  0  0  0  0  0  0  0  0  0
   -0.9568    0.9369    3.9933 C   0  0  0  0  0  0  0  0  0  0  0  0
   -0.1600    1.6750    4.1097 H   0  0  0  0  0  0  0  0  0  0  0  0
   -1.8775    1.3307    4.4266 H   0  0  0  0  0  0  0  0  0  0  0  0
   -0.6678    0.0287    4.5244 H   0  0  0  0  0  0  0  0  0  0  0  0
  5  6  2  0  0  0  0
  5  7  1  0  0  0  0
  2  3  1  0  0  0  0
  2  4  1  0  0  0  0
  2  5  1  0  0  0  0
  1  2  1  0  0  0  0
 24 25  2  0  0  0  0
 24 26  1  0  0  0  0
 20 21  1  0  0  0  0
 20 22  1  0  0  0  0
 20 23  1  0  0  0  0
 16 17  1  0  0  0  0
 16 18  1  0  0  0  0
 16 19  1  0  0  0  0
 14 15  1  0  0  0  0
 14 16  1  0  0  0  0
 14 20  1  0  0  0  0
 11 12  1  0  0  0  0
 11 13  1  0  0  0  0
 11 14  1  0  0  0  0
  9 10  1  0  0  0  0
  9 11  1  0  0  0  0
  9 24  1  0  0  0  0
  7  8  1  0  0  0  0
  7  9  1  0  0  0  0
 28 29  1  0  0  0  0
 28 30  1  0  0  0  0
 28 31  1  0  0  0  0
 26 27  1  0  0  0  0
 26 28  1  0  0  0  0
M  END
$$$$
default_name
  -OEChem-02102213163D

 31 30  0     1  0  0  0  0  0999 V2000
   -3.5895   -3.5013    1.1082 H   0  0  0  0  0  0  0  0  0  0  0  0
   -3.5145   -2.5363    0.6082 C   0  0  0  0  0  0  0  0  0  0  0  0
   -4.2285   -1.8413    1.0452 H   0  0  0  0  0  0  0  0  0  0  0  0
   -3.7155   -2.6583   -0.4538 H   0  0  0  0  0  0  0  0  0  0  0  0
   -2.1155   -1.9963    0.7922 C   0  0  0  0  0  0  0  0  0  0  0  0
   -1.2875   -2.6383    1.4252 O   0  0  0  0  0  0  0  0  0  0  0  0
   -1.8575   -0.8123    0.2402 N   0  0  0  0  0  0  0  0  0  0  0  0
   -2.6005   -0.3333   -0.2478 H   0  0  0  0  0  0  0  0  0  0  0  0
   -0.5675   -0.1203    0.3102 C   0  0  1  0  0  0  0  0  0  0  0  0
    0.1932   -0.7715   -0.1219 H   0  0  0  0  0  0  0  0  0  0  0  0
   -0.6568    1.1713   -0.5294 C   0  0  0  0  0  0  0  0  0  0  0  0
   -1.7096    1.4024   -0.7026 H   0  0  0  0  0  0  0  0  0  0  0  0
   -0.2318    1.9868    0.0600 H   0  0  0  0  0  0  0  0  0  0  0  0
    0.0641    1.1369   -1.8896 C   0  0  0  0  0  0  0  0  0  0  0  0
    1.0856    1.4993   -1.7741 H   0  0  0  0  0  0  0  0  0  0  0  0
    0.1002   -0.2712   -2.4906 C   0  0  0  0  0  0  0  0  0  0  0  0
   -0.9154   -0.6546   -2.5975 H   0  0  0  0  0  0  0  0  0  0  0  0
    0.5745   -0.2395   -3.4718 H   0  0  0  0  0  0  0  0  0  0  0  0
    0.6696   -0.9458   -1.8548 H   0  0  0  0  0  0  0  0  0  0  0  0
   -0.6544    2.0544   -2.8781 C   0  0  0  0  0  0  0  0  0  0  0  0
   -0.6673    3.0730   -2.4902 H   0  0  0  0  0  0  0  0  0  0  0  0
   -0.1300    2.0532   -3.8336 H   0  0  0  0  0  0  0  0  0  0  0  0
   -1.6794    1.7141   -3.0297 H   0  0  0  0  0  0  0  0  0  0  0  0
   -0.1913    0.1554    1.7759 C   0  0  0  0  0  0  0  0  0  0  0  0
    0.9476   -0.0766    2.1748 O   0  0  0  0  0  0  0  0  0  0  0  0
   -1.1502    0.6393    2.5760 N   0  0  0  0  0  0  0  0  0  0  0  0
   -2.0581    0.8092    2.1736 H   0  0  0  0  0  0  0  0  0  0  0  0
   -0.9568    0.9369    3.9933 C   0  0  0  0  0  0  0  0  0  0  0  0
   -0.1600    1.6750    4.1097 H   0  0  0  0  0  0  0  0  0  0  0  0
   -1.8775    1.3307    4.4266 H   0  0  0  0  0  0  0  0  0  0  0  0
   -0.6678    0.0287    4.5244 H   0  0  0  0  0  0  0  0  0  0  0  0
  5  6  2  0  0  0  0
  5  7  1  0  0  0  0
  2  3  1  0  0  0  0
  2  4  1  0  0  0  0
  2  5  1  0  0  0  0
  1  2  1  0  0  0  0
 24 25  2  0  0  0  0
 24 26  1  0  0  0  0
 20 21  1  0  0  0  0
 20 22  1  0  0  0  0
 20 23  1  0  0  0  0
 16 17  1  0  0  0  0
 16 18  1  0  0  0  0
 16 19  1  0  0  0  0
 14 15  1  0  0  0  0
 14 16  1  0  0  0  0
 14 20  1  0  0  0  0
 11 12  1  0  0  0  0
 11 13  1  0  0  0  0
 11 14  1  0  0  0  0
  9 10  1  0  0  0  0
  9 11  1  0  0  0  0
  9 24  1  0  0  0  0
  7  8  1  0  0  0  0
  7  9  1  0  0  0  0
 28 29  1  0  0  0  0
 28 30  1  0  0  0  0
 28 31  1  0  0  0  0
 26 27  1  0  0  0  0
 26 28  1  0  0  0  0
M  END
$$$$
default_name
  -OEChem-02102213163D

 31 30  0     1  0  0  0  0  0999 V2000
   -3.5895   -3.5013    1.1082 H   0  0  0  0  0  0  0  0  0  0  0  0
   -3.5145   -2.5363    0.6082 C   0  0  0  0  0  0  0  0  0  0  0  0
   -4.2285   -1.8413    1.0452 H   0  0  0  0  0  0  0  0  0  0  0  0
   -3.7155   -2.6583   -0.4538 H   0  0  0  0  0  0  0  0  0  0  0  0
   -2.1155   -1.9963    0.7922 C   0  0  0  0  0  0  0  0  0  0  0  0
   -1.2875   -2.6383    1.4252 O   0  0  0  0  0  0  0  0  0  0  0  0
   -1.8575   -0.8123    0.2402 N   0  0  0  0  0  0  0  0  0  0  0  0
   -2.6005   -0.3333   -0.2478 H   0  0  0  0  0  0  0  0  0  0  0  0
   -0.5675   -0.1203    0.3102 C   0  0  1  0  0  0  0  0  0  0  0  0
    0.1932   -0.7715   -0.1219 H   0  0  0  0  0  0  0  0  0  0  0  0
   -0.6568    1.1713   -0.5294 C   0  0  0  0  0  0  0  0  0  0  0  0
   -1.7096    1.4024   -0.7026 H   0  0  0  0  0  0  0  0  0  0  0  0
   -0.2318    1.9868    0.0600 H   0  0  0  0  0  0  0  0  0  0  0  0
    0.0641    1.1369   -1.8896 C   0  0  0  0  0  0  0  0  0  0  0  0
    1.1389    1.2391   -1.7393 H   0  0  0  0  0  0  0  0  0  0  0  0
   -0.2102   -0.1591   -2.6580 C   0  0  0  0  0  0  0  0  0  0  0  0
   -1.2842   -0.2839   -2.8024 H   0  0  0  0  0  0  0  0  0  0  0  0
    0.2781   -0.1189   -3.6319 H   0  0  0  0  0  0  0  0  0  0  0  0
    0.1773   -1.0177   -2.1139 H   0  0  0  0  0  0  0  0  0  0  0  0
   -0.4062    2.3068   -2.7529 C   0  0  0  0  0  0  0  0  0  0  0  0
   -0.1939    3.2469   -2.2437 H   0  0  0  0  0  0  0  0  0  0  0  0
    0.1230    2.3007   -3.7058 H   0  0  0  0  0  0  0  0  0  0  0  0
   -1.4786    2.2311   -2.9363 H   0  0  0  0  0  0  0  0  0  0  0  0
   -0.1913    0.1554    1.7759 C   0  0  0  0  0  0  0  0  0  0  0  0
    0.9476   -0.0766    2.1748 O   0  0  0  0  0  0  0  0  0  0  0  0
   -1.1502    0.6393    2.5760 N   0  0  0  0  0  0  0  0  0  0  0  0
   -2.0581    0.8092    2.1736 H   0  0  0  0  0  0  0  0  0  0  0  0
   -0.9568    0.9369    3.9933 C   0  0  0  0  0  0  0  0  0  0  0  0
   -0.1600    1.6750    4.1097 H   0  0  0  0  0  0  0  0  0  0  0  0
   -1.8775    1.3307    4.4266 H   0  0  0  0  0  0  0  0  0  0  0  0
   -0.6678    0.0287    4.5244 H   0  0  0  0  0  0  0  0  0  0  0  0
  5  6  2  0  0  0  0
  5  7  1  0  0  0  0
  2  3  1  0  0  0  0
  2  4  1  0  0  0  0
  2  5  1  0  0  0  0
  1  2  1  0  0  0  0
 24 25  2  0  0  0  0
 24 26  1  0  0  0  0
 20 21  1  0  0  0  0
 20 22  1  0  0  0  0
 20 23  1  0  0  0  0
 16 17  1  0  0  0  0
 16 18  1  0  0  0  0
 16 19  1  0  0  0  0
 14 15  1  0  0  0  0
 14 16  1  0  0  0  0
 14 20  1  0  0  0  0
 11 12  1  0  0  0  0
 11 13  1  0  0  0  0
 11 14  1  0  0  0  0
  9 10  1  0  0  0  0
  9 11  1  0  0  0  0
  9 24  1  0  0  0  0
  7  8  1  0  0  0  0
  7  9  1  0  0  0  0
 28 29  1  0  0  0  0
 28 30  1  0  0  0  0
 28 31  1  0  0  0  0
 26 27  1  0  0  0  0
 26 28  1  0  0  0  0
M  END
$$$$
default_name
  -OEChem-02102213163D

 31 30  0     1  0  0  0  0  0999 V2000
   -3.5895   -3.5013    1.1082 H   0  0  0  0  0  0  0  0  0  0  0  0
   -3.5145   -2.5363    0.6082 C   0  0  0  0  0  0  0  0  0  0  0  0
   -4.2285   -1.8413    1.0452 H   0  0  0  0  0  0  0  0  0  0  0  0
   -3.7155   -2.6583   -0.4538 H   0  0  0  0  0  0  0  0  0  0  0  0
   -2.1155   -1.9963    0.7922 C   0  0  0  0  0  0  0  0  0  0  0  0
   -1.2875   -2.6383    1.4252 O   0  0  0  0  0  0  0  0  0  0  0  0
   -1.8575   -0.8123    0.2402 N   0  0  0  0  0  0  0  0  0  0  0  0
   -2.6005   -0.3333   -0.2478 H   0  0  0  0  0  0  0  0  0  0  0  0
   -0.5675   -0.1203    0.3102 C   0  0  1  0  0  0  0  0  0  0  0  0
    0.1932   -0.7715   -0.1219 H   0  0  0  0  0  0  0  0  0  0  0  0
   -0.6568    1.1713   -0.5294 C   0  0  0  0  0  0  0  0  0  0  0  0
   -1.7096    1.4024   -0.7026 H   0  0  0  0  0  0  0  0  0  0  0  0
   -0.2318    1.9868    0.0600 H   0  0  0  0  0  0  0  0  0  0  0  0
    0.0641    1.1369   -1.8896 C   0  0  0  0  0  0  0  0  0  0  0  0
    1.1306    0.9714   -1.7369 H   0  0  0  0  0  0  0  0  0  0  0  0
   -0.4835    0.0405   -2.8078 C   0  0  0  0  0  0  0  0  0  0  0  0
   -1.5545    0.1832   -2.9575 H   0  0  0  0  0  0  0  0  0  0  0  0
    0.0204    0.0848   -3.7736 H   0  0  0  0  0  0  0  0  0  0  0  0
   -0.3130   -0.9432   -2.3757 H   0  0  0  0  0  0  0  0  0  0  0  0
   -0.1095    2.4787   -2.6000 C   0  0  0  0  0  0  0  0  0  0  0  0
    0.3016    3.2768   -1.9818 H   0  0  0  0  0  0  0  0  0  0  0  0
    0.4232    2.4664   -3.5509 H   0  0  0  0  0  0  0  0  0  0  0  0
   -1.1670    2.6732   -2.7823 H   0  0  0  0  0  0  0  0  0  0  0  0
   -0.1913    0.1554    1.7759 C   0  0  0  0  0  0  0  0  0  0  0  0
    0.9476   -0.0766    2.1748 O   0  0  0  0  0  0  0  0  0  0  0  0
   -1.1502    0.6393    2.5760 N   0  0  0  0  0  0  0  0  0  0  0  0
   -2.0581    0.8092    2.1736 H   0  0  0  0  0  0  0  0  0  0  0  0
   -0.9568    0.9369    3.9933 C   0  0  0  0  0  0  0  0  0  0  0  0
   -0.1600    1.6750    4.1097 H   0  0  0  0  0  0  0  0  0  0  0  0
   -1.8775    1.3307    4.4266 H   0  0  0  0  0  0  0  0  0  0  0  0
   -0.6678    0.0287    4.5244 H   0  0  0  0  0  0  0  0  0  0  0  0
  5  6  2  0  0  0  0
  5  7  1  0  0  0  0
  2  3  1  0  0  0  0
  2  4  1  0  0  0  0
  2  5  1  0  0  0  0
  1  2  1  0  0  0  0
 24 25  2  0  0  0  0
 24 26  1  0  0  0  0
 20 21  1  0  0  0  0
 20 22  1  0  0  0  0
 20 23  1  0  0  0  0
 16 17  1  0  0  0  0
 16 18  1  0  0  0  0
 16 19  1  0  0  0  0
 14 15  1  0  0  0  0
 14 16  1  0  0  0  0
 14 20  1  0  0  0  0
 11 12  1  0  0  0  0
 11 13  1  0  0  0  0
 11 14  1  0  0  0  0
  9 10  1  0  0  0  0
  9 11  1  0  0  0  0
  9 24  1  0  0  0  0
  7  8  1  0  0  0  0
  7  9  1  0  0  0  0
 28 29  1  0  0  0  0
 28 30  1  0  0  0  0
 28 31  1  0  0  0  0
 26 27  1  0  0  0  0
 26 28  1  0  0  0  0
M  END
$$$$
default_name
  -OEChem-02102213163D

 31 30  0     1  0  0  0  0  0999 V2000
   -3.5895   -3.5013    1.1082 H   0  0  0  0  0  0  0  0  0  0  0  0
   -3.5145   -2.5363    0.6082 C   0  0  0  0  0  0  0  0  0  0  0  0
   -4.2285   -1.8413    1.0452 H   0  0  0  0  0  0  0  0  0  0  0  0
   -3.7155   -2.6583   -0.4538 H   0  0  0  0  0  0  0  0  0  0  0  0
   -2.1155   -1.9963    0.7922 C   0  0  0  0  0  0  0  0  0  0  0  0
   -1.2875   -2.6383    1.4252 O   0  0  0  0  0  0  0  0  0  0  0  0
   -1.8575   -0.8123    0.2402 N   0  0  0  0  0  0  0  0  0  0  0  0
   -2.6005   -0.3333   -0.2478 H   0  0  0  0  0  0  0  0  0  0  0  0
   -0.5675   -0.1203    0.3102 C   0  0  1  0  0  0  0  0  0  0  0  0
    0.1932   -0.7715   -0.1219 H   0  0  0  0  0  0  0  0  0  0  0  0
   -0.6568    1.1713   -0.5294 C   0  0  0  0  0  0  0  0  0  0  0  0
   -1.7096    1.4024   -0.7026 H   0  0  0  0  0  0  0  0  0  0  0  0
   -0.2318    1.9868    0.0600 H   0  0  0  0  0  0  0  0  0  0  0  0
    0.0641    1.1369   -1.8896 C   0  0  0  0  0  0  0  0  0  0  0  0
    1.0615    0.7144   -1.7670 H   0  0  0  0  0  0  0  0  0  0  0  0
   -0.7009    0.3138   -2.9300 C   0  0  0  0  0  0  0  0  0  0  0  0
   -1.7079    0.7150   -3.0522 H   0  0  0  0  0  0  0  0  0  0  0  0
   -0.1811    0.3577   -3.8873 H   0  0  0  0  0  0  0  0  0  0  0  0
   -0.7682   -0.7274   -2.6223 H   0  0  0  0  0  0  0  0  0  0  0  0
    0.2156    2.5584   -2.4297 C   0  0  0  0  0  0  0  0  0  0  0  0
    0.7856    3.1606   -1.7224 H   0  0  0  0  0  0  0  0  0  0  0  0
    0.7502    2.5391   -3.3794 H   0  0  0  0  0  0  0  0  0  0  0  0
   -0.7658    3.0103   -2.5782 H   0  0  0  0  0  0  0  0  0  0  0  0
   -0.1913    0.1554    1.7759 C   0  0  0  0  0  0  0  0  0  0  0  0
    0.9476   -0.0766    2.1748 O   0  0  0  0  0  0  0  0  0  0  0  0
   -1.1502    0.6393    2.5760 N   0  0  0  0  0  0  0  0  0  0  0  0
   -2.0581    0.8092    2.1736 H   0  0  0  0  0  0  0  0  0  0  0  0
   -0.9568    0.9369    3.9933 C   0  0  0  0  0  0  0  0  0  0  0  0
   -0.1600    1.6750    4.1097 H   0  0  0  0  0  0  0  0  0  0  0  0
   -1.8775    1.3307    4.4266 H   0  0  0  0  0  0  0  0  0  0  0  0
   -0.6678    0.0287    4.5244 H   0  0  0  0  0  0  0  0  0  0  0  0
  5  6  2  0  0  0  0
  5  7  1  0  0  0  0
  2  3  1  0  0  0  0
  2  4  1  0  0  0  0
  2  5  1  0  0  0  0
  1  2  1  0  0  0  0
 24 25  2  0  0  0  0
 24 26  1  0  0  0  0
 20 21  1  0  0  0  0
 20 22  1  0  0  0  0
 20 23  1  0  0  0  0
 16 17  1  0  0  0  0
 16 18  1  0  0  0  0
 16 19  1  0  0  0  0
 14 15  1  0  0  0  0
 14 16  1  0  0  0  0
 14 20  1  0  0  0  0
 11 12  1  0  0  0  0
 11 13  1  0  0  0  0
 11 14  1  0  0  0  0
  9 10  1  0  0  0  0
  9 11  1  0  0  0  0
  9 24  1  0  0  0  0
  7  8  1  0  0  0  0
  7  9  1  0  0  0  0
 28 29  1  0  0  0  0
 28 30  1  0  0  0  0
 28 31  1  0  0  0  0
 26 27  1  0  0  0  0
 26 28  1  0  0  0  0
M  END
$$$$
default_name
  -OEChem-02102213163D

 31 30  0     1  0  0  0  0  0999 V2000
   -3.5895   -3.5013    1.1082 H   0  0  0  0  0  0  0  0  0  0  0  0
   -3.5145   -2.5363    0.6082 C   0  0  0  0  0  0  0  0  0  0  0  0
   -4.2285   -1.8413    1.0452 H   0  0  0  0  0  0  0  0  0  0  0  0
   -3.7155   -2.6583   -0.4538 H   0  0  0  0  0  0  0  0  0  0  0  0
   -2.1155   -1.9963    0.7922 C   0  0  0  0  0  0  0  0  0  0  0  0
   -1.2875   -2.6383    1.4252 O   0  0  0  0  0  0  0  0  0  0  0  0
   -1.8575   -0.8123    0.2402 N   0  0  0  0  0  0  0  0  0  0  0  0
   -2.6005   -0.3333   -0.2478 H   0  0  0  0  0  0  0  0  0  0  0  0
   -0.5675   -0.1203    0.3102 C   0  0  1  0  0  0  0  0  0  0  0  0
    0.1932   -0.7715   -0.1219 H   0  0  0  0  0  0  0  0  0  0  0  0
   -0.6568    1.1713   -0.5294 C   0  0  0  0  0  0  0  0  0  0  0  0
   -1.7096    1.4024   -0.7026 H   0  0  0  0  0  0  0  0  0  0  0  0
   -0.2318    1.9868    0.0600 H   0  0  0  0  0  0  0  0  0  0  0  0
    0.0641    1.1369   -1.8896 C   0  0  0  0  0  0  0  0  0  0  0  0
    0.9361    0.4857   -1.8277 H   0  0  0  0  0  0  0  0  0  0  0  0
   -0.8478    0.6424   -3.0162 C   0  0  0  0  0  0  0  0  0  0  0  0
   -1.7340    1.2753   -3.0802 H   0  0  0  0  0  0  0  0  0  0  0  0
   -0.3127    0.6811   -3.9653 H   0  0  0  0  0  0  0  0  0  0  0  0
   -1.1570   -0.3851   -2.8371 H   0  0  0  0  0  0  0  0  0  0  0  0
    0.5468    2.5404   -2.2537 C   0  0  0  0  0  0  0  0  0  0  0  0
    1.2251    2.9064   -1.4830 H   0  0  0  0  0  0  0  0  0  0  0  0
    1.0816    2.5138   -3.2031 H   0  0  0  0  0  0  0  0  0  0  0  0
   -0.3023    3.2196   -2.3379 H   0  0  0  0  0  0  0  0  0  0  0  0
   -0.1913    0.1554    1.7759 C   0  0  0  0  0  0  0  0  0  0  0  0
    0.9476   -0.0766    2.1748 O   0  0  0  0  0  0  0  0  0  0  0  0
   -1.1502    0.6393    2.5760 N   0  0  0  0  0  0  0  0  0  0  0  0
   -2.0581    0.8092    2.1736 H   0  0  0  0  0  0  0  0  0  0  0  0
   -0.9568    0.9369    3.9933 C   0  0  0  0  0  0  0  0  0  0  0  0
   -0.1600    1.6750    4.1097 H   0  0  0  0  0  0  0  0  0  0  0  0
   -1.8775    1.3307    4.4266 H   0  0  0  0  0  0  0  0  0  0  0  0
   -0.6678    0.0287    4.5244 H   0  0  0  0  0  0  0  0  0  0  0  0
  5  6  2  0  0  0  0
  5  7  1  0  0  0  0
  2  3  1  0  0  0  0
  2  4  1  0  0  0  0
  2  5  1  0  0  0  0
  1  2  1  0  0  0  0
 24 25  2  0  0  0  0
 24 26  1  0  0  0  0
 20 21  1  0  0  0  0
 20 22  1  0  0  0  0
 20 23  1  0  0  0  0
 16 17  1  0  0  0  0
 16 18  1  0  0  0  0
 16 19  1  0  0  0  0
 14 15  1  0  0  0  0
 14 16  1  0  0  0  0
 14 20  1  0  0  0  0
 11 12  1  0  0  0  0
 11 13  1  0  0  0  0
 11 14  1  0  0  0  0
  9 10  1  0  0  0  0
  9 11  1  0  0  0  0
  9 24  1  0  0  0  0
  7  8  1  0  0  0  0
  7  9  1  0  0  0  0
 28 29  1  0  0  0  0
 28 30  1  0  0  0  0
 28 31  1  0  0  0  0
 26 27  1  0  0  0  0
 26 28  1  0  0  0  0
M  END
$$$$
default_name
  -OEChem-02102213163D

 31 30  0     1  0  0  0  0  0999 V2000
   -3.5895   -3.5013    1.1082 H   0  0  0  0  0  0  0  0  0  0  0  0
   -3.5145   -2.5363    0.6082 C   0  0  0  0  0  0  0  0  0  0  0  0
   -4.2285   -1.8413    1.0452 H   0  0  0  0  0  0  0  0  0  0  0  0
   -3.7155   -2.6583   -0.4538 H   0  0  0  0  0  0  0  0  0  0  0  0
   -2.1155   -1.9963    0.7922 C   0  0  0  0  0  0  0  0  0  0  0  0
   -1.2875   -2.6383    1.4252 O   0  0  0  0  0  0  0  0  0  0  0  0
   -1.8575   -0.8123    0.2402 N   0  0  0  0  0  0  0  0  0  0  0  0
   -2.6005   -0.3333   -0.2478 H   0  0  0  0  0  0  0  0  0  0  0  0
   -0.5675   -0.1203    0.3102 C   0  0  1  0  0  0  0  0  0  0  0  0
    0.1932   -0.7715   -0.1219 H   0  0  0  0  0  0  0  0  0  0  0  0
   -0.6568    1.1713   -0.5294 C   0  0  0  0  0  0  0  0  0  0  0  0
   -1.7096    1.4024   -0.7026 H   0  0  0  0  0  0  0  0  0  0  0  0
   -0.2318    1.9868    0.0600 H   0  0  0  0  0  0  0  0  0  0  0  0
    0.0641    1.1369   -1.8896 C   0  0  0  0  0  0  0  0  0  0  0  0
    0.7630    0.3008   -1.9147 H   0  0  0  0  0  0  0  0  0  0  0  0
   -0.9140    1.0038   -3.0604 C   0  0  0  0  0  0  0  0  0  0  0  0
   -1.6309    1.8258   -3.0395 H   0  0  0  0  0  0  0  0  0  0  0  0
   -0.3655    1.0331   -4.0021 H   0  0  0  0  0  0  0  0  0  0  0  0
   -1.4531    0.0606   -3.0053 H   0  0  0  0  0  0  0  0  0  0  0  0
    0.8616    2.4260   -2.0840 C   0  0  0  0  0  0  0  0  0  0  0  0
    1.5900    2.5313   -1.2801 H   0  0  0  0  0  0  0  0  0  0  0  0
    1.3950    2.3922   -3.0339 H   0  0  0  0  0  0  0  0  0  0  0  0
    0.1917    3.2866   -2.0777 H   0  0  0  0  0  0  0  0  0  0  0  0
   -0.1913    0.1554    1.7759 C   0  0  0  0  0  0  0  0  0  0  0  0
    0.9476   -0.0766    2.1748 O   0  0  0  0  0  0  0  0  0  0  0  0
   -1.1502    0.6393    2.5760 N   0  0  0  0  0  0  0  0  0  0  0  0
   -2.0581    0.8092    2.1736 H   0  0  0  0  0  0  0  0  0  0  0  0
   -0.9568    0.9369    3.9933 C   0  0  0  0  0  0  0  0  0  0  0  0
   -0.1600    1.6750    4.1097 H   0  0  0  0  0  0  0  0  0  0  0  0
   -1.8775    1.3307    4.4266 H   0  0  0  0  0  0  0  0  0  0  0  0
   -0.6678    0.0287    4.5244 H   0  0  0  0  0  0  0  0  0  0  0  0
  5  6  2  0  0  0  0
  5  7  1  0  0  0  0
  2  3  1  0  0  0  0
  2  4  1  0  0  0  0
  2  5  1  0  0  0  0
  1  2  1  0  0  0  0
 24 25  2  0  0  0  0
 24 26  1  0  0  0  0
 20 21  1  0  0  0  0
 20 22  1  0  0  0  0
 20 23  1  0  0  0  0
 16 17  1  0  0  0  0
 16 18  1  0  0  0  0
 16 19  1  0  0  0  0
 14 15  1  0  0  0  0
 14 16  1  0  0  0  0
 14 20  1  0  0  0  0
 11 12  1  0  0  0  0
 11 13  1  0  0  0  0
 11 14  1  0  0  0  0
  9 10  1  0  0  0  0
  9 11  1  0  0  0  0
  9 24  1  0  0  0  0
  7  8  1  0  0  0  0
  7  9  1  0  0  0  0
 28 29  1  0  0  0  0
 28 30  1  0  0  0  0
 28 31  1  0  0  0  0
 26 27  1  0  0  0  0
 26 28  1  0  0  0  0
M  END
$$$$
default_name
  -OEChem-02102213163D

 31 30  0     1  0  0  0  0  0999 V2000
   -3.5895   -3.5013    1.1082 H   0  0  0  0  0  0  0  0  0  0  0  0
   -3.5145   -2.5363    0.6082 C   0  0  0  0  0  0  0  0  0  0  0  0
   -4.2285   -1.8413    1.0452 H   0  0  0  0  0  0  0  0  0  0  0  0
   -3.7155   -2.6583   -0.4538 H   0  0  0  0  0  0  0  0  0  0  0  0
   -2.1155   -1.9963    0.7922 C   0  0  0  0  0  0  0  0  0  0  0  0
   -1.2875   -2.6383    1.4252 O   0  0  0  0  0  0  0  0  0  0  0  0
   -1.8575   -0.8123    0.2402 N   0  0  0  0  0  0  0  0  0  0  0  0
   -2.6005   -0.3333   -0.2478 H   0  0  0  0  0  0  0  0  0  0  0  0
   -0.5675   -0.1203    0.3102 C   0  0  1  0  0  0  0  0  0  0  0  0
    0.1932   -0.7715   -0.1219 H   0  0  0  0  0  0  0  0  0  0  0  0
   -0.6568    1.1713   -0.5294 C   0  0  0  0  0  0  0  0  0  0  0  0
   -1.7096    1.4024   -0.7026 H   0  0  0  0  0  0  0  0  0  0  0  0
   -0.2318    1.9868    0.0600 H   0  0  0  0  0  0  0  0  0  0  0  0
    0.0641    1.1369   -1.8896 C   0  0  0  0  0  0  0  0  0  0  0  0
    0.5540    0.1722   -2.0222 H   0  0  0  0  0  0  0  0  0  0  0  0
   -0.8950    1.3734   -3.0597 C   0  0  0  0  0  0  0  0  0  0  0  0
   -1.4057    2.3290   -2.9329 H   0  0  0  0  0  0  0  0  0  0  0  0
   -0.3357    1.3896   -3.9954 H   0  0  0  0  0  0  0  0  0  0  0  0
   -1.6363    0.5791   -3.1155 H   0  0  0  0  0  0  0  0  0  0  0  0
    1.1385    2.2229   -1.9321 C   0  0  0  0  0  0  0  0  0  0  0  0
    1.8556    2.0609   -1.1274 H   0  0  0  0  0  0  0  0  0  0  0  0
    1.6689    2.1826   -2.8835 H   0  0  0  0  0  0  0  0  0  0  0  0
    0.6828    3.2068   -1.8155 H   0  0  0  0  0  0  0  0  0  0  0  0
   -0.1913    0.1554    1.7759 C   0  0  0  0  0  0  0  0  0  0  0  0
    0.9476   -0.0766    2.1748 O   0  0  0  0  0  0  0  0  0  0  0  0
   -1.1502    0.6393    2.5760 N   0  0  0  0  0  0  0  0  0  0  0  0
   -2.0581    0.8092    2.1736 H   0  0  0  0  0  0  0  0  0  0  0  0
   -0.9568    0.9369    3.9933 C   0  0  0  0  0  0  0  0  0  0  0  0
   -0.1600    1.6750    4.1097 H   0  0  0  0  0  0  0  0  0  0  0  0
   -1.8775    1.3307    4.4266 H   0  0  0  0  0  0  0  0  0  0  0  0
   -0.6678    0.0287    4.5244 H   0  0  0  0  0  0  0  0  0  0  0  0
  5  6  2  0  0  0  0
  5  7  1  0  0  0  0
  2  3  1  0  0  0  0
  2  4  1  0  0  0  0
  2  5  1  0  0  0  0
  1  2  1  0  0  0  0
 24 25  2  0  0  0  0
 24 26  1  0  0  0  0
 20 21  1  0  0  0  0
 20 22  1  0  0  0  0
 20 23  1  0  0  0  0
 16 17  1  0  0  0  0
 16 18  1  0  0  0  0
 16 19  1  0  0  0  0
 14 15  1  0  0  0  0
 14 16  1  0  0  0  0
 14 20  1  0  0  0  0
 11 12  1  0  0  0  0
 11 13  1  0  0  0  0
 11 14  1  0  0  0  0
  9 10  1  0  0  0  0
  9 11  1  0  0  0  0
  9 24  1  0  0  0  0
  7  8  1  0  0  0  0
  7  9  1  0  0  0  0
 28 29  1  0  0  0  0
 28 30  1  0  0  0  0
 28 31  1  0  0  0  0
 26 27  1  0  0  0  0
 26 28  1  0  0  0  0
M  END
$$$$
default_name
  -OEChem-02102213163D

 31 30  0     1  0  0  0  0  0999 V2000
   -3.5895   -3.5013    1.1082 H   0  0  0  0  0  0  0  0  0  0  0  0
   -3.5145   -2.5363    0.6082 C   0  0  0  0  0  0  0  0  0  0  0  0
   -4.2285   -1.8413    1.0452 H   0  0  0  0  0  0  0  0  0  0  0  0
   -3.7155   -2.6583   -0.4538 H   0  0  0  0  0  0  0  0  0  0  0  0
   -2.1155   -1.9963    0.7922 C   0  0  0  0  0  0  0  0  0  0  0  0
   -1.2875   -2.6383    1.4252 O   0  0  0  0  0  0  0  0  0  0  0  0
   -1.8575   -0.8123    0.2402 N   0  0  0  0  0  0  0  0  0  0  0  0
   -2.6005   -0.3333   -0.2478 H   0  0  0  0  0  0  0  0  0  0  0  0
   -0.5675   -0.1203    0.3102 C   0  0  1  0  0  0  0  0  0  0  0  0
    0.1932   -0.7715   -0.1219 H   0  0  0  0  0  0  0  0  0  0  0  0
   -0.6568    1.1713   -0.5294 C   0  0  0  0  0  0  0  0  0  0  0  0
   -1.7096    1.4024   -0.7026 H   0  0  0  0  0  0  0  0  0  0  0  0
   -0.2318    1.9868    0.0600 H   0  0  0  0  0  0  0  0  0  0  0  0
    0.0641    1.1369   -1.8896 C   0  0  0  0  0  0  0  0  0  0  0  0
    0.3234    0.1089   -2.1429 H   0  0  0  0  0  0  0  0  0  0  0  0
   -0.7923    1.7260   -3.0142 C   0  0  0  0  0  0  0  0  0  0  0  0
   -1.0737    2.7507   -2.7676 H   0  0  0  0  0  0  0  0  0  0  0  0
   -0.2255    1.7263   -3.9455 H   0  0  0  0  0  0  0  0  0  0  0  0
   -1.6940    1.1352   -3.1602 H   0  0  0  0  0  0  0  0  0  0  0  0
    1.3586    1.9450   -1.8084 C   0  0  0  0  0  0  0  0  0  0  0  0
    2.0037    1.5274   -1.0354 H   0  0  0  0  0  0  0  0  0  0  0  0
    1.8846    1.8993   -2.7619 H   0  0  0  0  0  0  0  0  0  0  0  0
    1.1374    2.9857   -1.5689 H   0  0  0  0  0  0  0  0  0  0  0  0
   -0.1913    0.1554    1.7759 C   0  0  0  0  0  0  0  0  0  0  0  0
    0.9476   -0.0766    2.1748 O   0  0  0  0  0  0  0  0  0  0  0  0
   -1.1502    0.6393    2.5760 N   0  0  0  0  0  0  0  0  0  0  0  0
   -2.0581    0.8092    2.1736 H   0  0  0  0  0  0  0  0  0  0  0  0
   -0.9568    0.9369    3.9933 C   0  0  0  0  0  0  0  0  0  0  0  0
   -0.1600    1.6750    4.1097 H   0  0  0  0  0  0  0  0  0  0  0  0
   -1.8775    1.3307    4.4266 H   0  0  0  0  0  0  0  0  0  0  0  0
   -0.6678    0.0287    4.5244 H   0  0  0  0  0  0  0  0  0  0  0  0
  5  6  2  0  0  0  0
  5  7  1  0  0  0  0
  2  3  1  0  0  0  0
  2  4  1  0  0  0  0
  2  5  1  0  0  0  0
  1  2  1  0  0  0  0
 24 25  2  0  0  0  0
 24 26  1  0  0  0  0
 20 21  1  0  0  0  0
 20 22  1  0  0  0  0
 20 23  1  0  0  0  0
 16 17  1  0  0  0  0
 16 18  1  0  0  0  0
 16 19  1  0  0  0  0
 14 15  1  0  0  0  0
 14 16  1  0  0  0  0
 14 20  1  0  0  0  0
 11 12  1  0  0  0  0
 11 13  1  0  0  0  0
 11 14  1  0  0  0  0
  9 10  1  0  0  0  0
  9 11  1  0  0  0  0
  9 24  1  0  0  0  0
  7  8  1  0  0  0  0
  7  9  1  0  0  0  0
 28 29  1  0  0  0  0
 28 30  1  0  0  0  0
 28 31  1  0  0  0  0
 26 27  1  0  0  0  0
 26 28  1  0  0  0  0
M  END
$$$$
default_name
  -OEChem-02102213163D

 31 30  0     1  0  0  0  0  0999 V2000
   -3.5895   -3.5013    1.1082 H   0  0  0  0  0  0  0  0  0  0  0  0
   -3.5145   -2.5363    0.6082 C   0  0  0  0  0  0  0  0  0  0  0  0
   -4.2285   -1.8413    1.0452 H   0  0  0  0  0  0  0  0  0  0  0  0
   -3.7155   -2.6583   -0.4538 H   0  0  0  0  0  0  0  0  0  0  0  0
   -2.1155   -1.9963    0.7922 C   0  0  0  0  0  0  0  0  0  0  0  0
   -1.2875   -2.6383    1.4252 O   0  0  0  0  0  0  0  0  0  0  0  0
   -1.8575   -0.8123    0.2402 N   0  0  0  0  0  0  0  0  0  0  0  0
   -2.6005   -0.3333   -0.2478 H   0  0  0  0  0  0  0  0  0  0  0  0
   -0.5675   -0.1203    0.3102 C   0  0  1  0  0  0  0  0  0  0  0  0
    0.1932   -0.7715   -0.1219 H   0  0  0  0  0  0  0  0  0  0  0  0
   -0.6568    1.1713   -0.5294 C   0  0  0  0  0  0  0  0  0  0  0  0
   -1.7096    1.4024   -0.7026 H   0  0  0  0  0  0  0  0  0  0  0  0
   -0.2318    1.9868    0.0600 H   0  0  0  0  0  0  0  0  0  0  0  0
    0.0641    1.1369   -1.8896 C   0  0  0  0  0  0  0  0  0  0  0  0
    0.0869    0.1151   -2.2684 H   0  0  0  0  0  0  0  0  0  0  0  0
   -0.6126    2.0376   -2.9269 C   0  0  0  0  0  0  0  0  0  0  0  0
   -0.6576    3.0621   -2.5549 H   0  0  0  0  0  0  0  0  0  0  0  0
   -0.0424    2.0203   -3.8559 H   0  0  0  0  0  0  0  0  0  0  0  0
   -1.6223    1.6909   -3.1363 H   0  0  0  0  0  0  0  0  0  0  0  0
    1.5071    1.6113   -1.7212 C   0  0  0  0  0  0  0  0  0  0  0  0
    2.0243    0.9670   -1.0103 H   0  0  0  0  0  0  0  0  0  0  0  0
    2.0276    1.5616   -2.6776 H   0  0  0  0  0  0  0  0  0  0  0  0
    1.5245    2.6384   -1.3550 H   0  0  0  0  0  0  0  0  0  0  0  0
   -0.1913    0.1554    1.7759 C   0  0  0  0  0  0  0  0  0  0  0  0
    0.9476   -0.0766    2.1748 O   0  0  0  0  0  0  0  0  0  0  0  0
   -1.1502    0.6393    2.5760 N   0  0  0  0  0  0  0  0  0  0  0  0
   -2.0581    0.8092    2.1736 H   0  0  0  0  0  0  0  0  0  0  0  0
   -0.9568    0.9369    3.9933 C   0  0  0  0  0  0  0  0  0  0  0  0
   -0.1600    1.6750    4.1097 H   0  0  0  0  0  0  0  0  0  0  0  0
   -1.8775    1.3307    4.4266 H   0  0  0  0  0  0  0  0  0  0  0  0
   -0.6678    0.0287    4.5244 H   0  0  0  0  0  0  0  0  0  0  0  0
  5  6  2  0  0  0  0
  5  7  1  0  0  0  0
  2  3  1  0  0  0  0
  2  4  1  0  0  0  0
  2  5  1  0  0  0  0
  1  2  1  0  0  0  0
 24 25  2  0  0  0  0
 24 26  1  0  0  0  0
 20 21  1  0  0  0  0
 20 22  1  0  0  0  0
 20 23  1  0  0  0  0
 16 17  1  0  0  0  0
 16 18  1  0  0  0  0
 16 19  1  0  0  0  0
 14 15  1  0  0  0  0
 14 16  1  0  0  0  0
 14 20  1  0  0  0  0
 11 12  1  0  0  0  0
 11 13  1  0  0  0  0
 11 14  1  0  0  0  0
  9 10  1  0  0  0  0
  9 11  1  0  0  0  0
  9 24  1  0  0  0  0
  7  8  1  0  0  0  0
  7  9  1  0  0  0  0
 28 29  1  0  0  0  0
 28 30  1  0  0  0  0
 28 31  1  0  0  0  0
 26 27  1  0  0  0  0
 26 28  1  0  0  0  0
M  END
$$$$
default_name
  -OEChem-02102213163D

 31 30  0     1  0  0  0  0  0999 V2000
   -3.5895   -3.5013    1.1082 H   0  0  0  0  0  0  0  0  0  0  0  0
   -3.5145   -2.5363    0.6082 C   0  0  0  0  0  0  0  0  0  0  0  0
   -4.2285   -1.8413    1.0452 H   0  0  0  0  0  0  0  0  0  0  0  0
   -3.7155   -2.6583   -0.4538 H   0  0  0  0  0  0  0  0  0  0  0  0
   -2.1155   -1.9963    0.7922 C   0  0  0  0  0  0  0  0  0  0  0  0
   -1.2875   -2.6383    1.4252 O   0  0  0  0  0  0  0  0  0  0  0  0
   -1.8575   -0.8123    0.2402 N   0  0  0  0  0  0  0  0  0  0  0  0
   -2.6005   -0.3333   -0.2478 H   0  0  0  0  0  0  0  0  0  0  0  0
   -0.5675   -0.1203    0.3102 C   0  0  1  0  0  0  0  0  0  0  0  0
    0.1932   -0.7715   -0.1219 H   0  0  0  0  0  0  0  0  0  0  0  0
   -0.6568    1.1713   -0.5294 C   0  0  0  0  0  0  0  0  0  0  0  0
   -1.7096    1.4024   -0.7026 H   0  0  0  0  0  0  0  0  0  0  0  0
   -0.2318    1.9868    0.0600 H   0  0  0  0  0  0  0  0  0  0  0  0
    0.0641    1.1369   -1.8896 C   0  0  0  0  0  0  0  0  0  0  0  0
   -0.1394    0.1903   -2.3902 H   0  0  0  0  0  0  0  0  0  0  0  0
   -0.3684    2.2869   -2.8037 C   0  0  0  0  0  0  0  0  0  0  0  0
   -0.1857    3.2420   -2.3094 H   0  0  0  0  0  0  0  0  0  0  0  0
    0.2012    2.2515   -3.7327 H   0  0  0  0  0  0  0  0  0  0  0  0
   -1.4262    2.2085   -3.0454 H   0  0  0  0  0  0  0  0  0  0  0  0
    1.5736    1.2444   -1.6767 C   0  0  0  0  0  0  0  0  0  0  0  0
    1.9159    0.4180   -1.0539 H   0  0  0  0  0  0  0  0  0  0  0  0
    2.0880    1.1925   -2.6363 H   0  0  0  0  0  0  0  0  0  0  0  0
    1.8177    2.1884   -1.1881 H   0  0  0  0  0  0  0  0  0  0  0  0
   -0.1913    0.1554    1.7759 C   0  0  0  0  0  0  0  0  0  0  0  0
    0.9476   -0.0766    2.1748 O   0  0  0  0  0  0  0  0  0  0  0  0
   -1.1502    0.6393    2.5760 N   0  0  0  0  0  0  0  0  0  0  0  0
   -2.0581    0.8092    2.1736 H   0  0  0  0  0  0  0  0  0  0  0  0
   -0.9568    0.9369    3.9933 C   0  0  0  0  0  0  0  0  0  0  0  0
   -0.1600    1.6750    4.1097 H   0  0  0  0  0  0  0  0  0  0  0  0
   -1.8775    1.3307    4.4266 H   0  0  0  0  0  0  0  0  0  0  0  0
   -0.6678    0.0287    4.5244 H   0  0  0  0  0  0  0  0  0  0  0  0
  5  6  2  0  0  0  0
  5  7  1  0  0  0  0
  2  3  1  0  0  0  0
  2  4  1  0  0  0  0
  2  5  1  0  0  0  0
  1  2  1  0  0  0  0
 24 25  2  0  0  0  0
 24 26  1  0  0  0  0
 20 21  1  0  0  0  0
 20 22  1  0  0  0  0
 20 23  1  0  0  0  0
 16 17  1  0  0  0  0
 16 18  1  0  0  0  0
 16 19  1  0  0  0  0
 14 15  1  0  0  0  0
 14 16  1  0  0  0  0
 14 20  1  0  0  0  0
 11 12  1  0  0  0  0
 11 13  1  0  0  0  0
 11 14  1  0  0  0  0
  9 10  1  0  0  0  0
  9 11  1  0  0  0  0
  9 24  1  0  0  0  0
  7  8  1  0  0  0  0
  7  9  1  0  0  0  0
 28 29  1  0  0  0  0
 28 30  1  0  0  0  0
 28 31  1  0  0  0  0
 26 27  1  0  0  0  0
 26 28  1  0  0  0  0
M  END
$$$$
default_name
  -OEChem-02102213163D

 31 30  0     1  0  0  0  0  0999 V2000
   -3.5895   -3.5013    1.1082 H   0  0  0  0  0  0  0  0  0  0  0  0
   -3.5145   -2.5363    0.6082 C   0  0  0  0  0  0  0  0  0  0  0  0
   -4.2285   -1.8413    1.0452 H   0  0  0  0  0  0  0  0  0  0  0  0
   -3.7155   -2.6583   -0.4538 H   0  0  0  0  0  0  0  0  0  0  0  0
   -2.1155   -1.9963    0.7922 C   0  0  0  0  0  0  0  0  0  0  0  0
   -1.2875   -2.6383    1.4252 O   0  0  0  0  0  0  0  0  0  0  0  0
   -1.8575   -0.8123    0.2402 N   0  0  0  0  0  0  0  0  0  0  0  0
   -2.6005   -0.3333   -0.2478 H   0  0  0  0  0  0  0  0  0  0  0  0
   -0.5675   -0.1203    0.3102 C   0  0  1  0  0  0  0  0  0  0  0  0
    0.1932   -0.7715   -0.1219 H   0  0  0  0  0  0  0  0  0  0  0  0
   -0.6568    1.1713   -0.5294 C   0  0  0  0  0  0  0  0  0  0  0  0
   -1.6794    1.5501   -0.4786 H   0  0  0  0  0  0  0  0  0  0  0  0
   -0.0044    1.9176   -0.0707 H   0  0  0  0  0  0  0  0  0  0  0  0
   -0.2613    1.0353   -2.0113 C   0  0  0  0  0  0  0  0  0  0  0  0
   -0.8971    0.2940   -2.4954 H   0  0  0  0  0  0  0  0  0  0  0  0
   -0.3794    2.3622   -2.7666 C   0  0  0  0  0  0  0  0  0  0  0  0
    0.2397    3.1197   -2.2838 H   0  0  0  0  0  0  0  0  0  0  0  0
   -0.0438    2.2302   -3.7954 H   0  0  0  0  0  0  0  0  0  0  0  0
   -1.4119    2.7045   -2.7826 H   0  0  0  0  0  0  0  0  0  0  0  0
    1.1867    0.5582   -2.1175 C   0  0  0  0  0  0  0  0  0  0  0  0
    1.2940   -0.4029   -1.6147 H   0  0  0  0  0  0  0  0  0  0  0  0
    1.4604    0.4346   -3.1653 H   0  0  0  0  0  0  0  0  0  0  0  0
    1.8561    1.2837   -1.6538 H   0  0  0  0  0  0  0  0  0  0  0  0
   -0.1913    0.1554    1.7759 C   0  0  0  0  0  0  0  0  0  0  0  0
    0.9476   -0.0766    2.1748 O   0  0  0  0  0  0  0  0  0  0  0  0
   -1.1502    0.6393    2.5760 N   0  0  0  0  0  0  0  0  0  0  0  0
   -2.0581    0.8092    2.1736 H   0  0  0  0  0  0  0  0  0  0  0  0
   -0.9568    0.9369    3.9933 C   0  0  0  0  0  0  0  0  0  0  0  0
   -0.1600    1.6750    4.1097 H   0  0  0  0  0  0  0  0  0  0  0  0
   -1.8775    1.3307    4.4266 H   0  0  0  0  0  0  0  0  0  0  0  0
   -0.6678    0.0287    4.5244 H   0  0  0  0  0  0  0  0  0  0  0  0
  5  6  2  0  0  0  0
  5  7  1  0  0  0  0
  2  3  1  0  0  0  0
  2  4  1  0  0  0  0
  2  5  1  0  0  0  0
  1  2  1  0  0  0  0
 24 25  2  0  0  0  0
 24 26  1  0  0  0  0
 20 21  1  0  0  0  0
 20 22  1  0  0  0  0
 20 23  1  0  0  0  0
 16 17  1  0  0  0  0
 16 18  1  0  0  0  0
 16 19  1  0  0  0  0
 14 15  1  0  0  0  0
 14 16  1  0  0  0  0
 14 20  1  0  0  0  0
 11 12  1  0  0  0  0
 11 13  1  0  0  0  0
 11 14  1  0  0  0  0
  9 10  1  0  0  0  0
  9 11  1  0  0  0  0
  9 24  1  0  0  0  0
  7  8  1  0  0  0  0
  7  9  1  0  0  0  0
 28 29  1  0  0  0  0
 28 30  1  0  0  0  0
 28 31  1  0  0  0  0
 26 27  1  0  0  0  0
 26 28  1  0  0  0  0
M  END
$$$$
default_name
  -OEChem-02102213163D

 31 30  0     1  0  0  0  0  0999 V2000
   -3.5895   -3.5013    1.1082 H   0  0  0  0  0  0  0  0  0  0  0  0
   -3.5145   -2.5363    0.6082 C   0  0  0  0  0  0  0  0  0  0  0  0
   -4.2285   -1.8413    1.0452 H   0  0  0  0  0  0  0  0  0  0  0  0
   -3.7155   -2.6583   -0.4538 H   0  0  0  0  0  0  0  0  0  0  0  0
   -2.1155   -1.9963    0.7922 C   0  0  0  0  0  0  0  0  0  0  0  0
   -1.2875   -2.6383    1.4252 O   0  0  0  0  0  0  0  0  0  0  0  0
   -1.8575   -0.8123    0.2402 N   0  0  0  0  0  0  0  0  0  0  0  0
   -2.6005   -0.3333   -0.2478 H   0  0  0  0  0  0  0  0  0  0  0  0
   -0.5675   -0.1203    0.3102 C   0  0  1  0  0  0  0  0  0  0  0  0
    0.1932   -0.7715   -0.1219 H   0  0  0  0  0  0  0  0  0  0  0  0
   -0.6568    1.1713   -0.5294 C   0  0  0  0  0  0  0  0  0  0  0  0
   -1.6794    1.5501   -0.4786 H   0  0  0  0  0  0  0  0  0  0  0  0
   -0.0044    1.9176   -0.0707 H   0  0  0  0  0  0  0  0  0  0  0  0
   -0.2613    1.0353   -2.0113 C   0  0  0  0  0  0  0  0  0  0  0  0
   -1.0458    0.5087   -2.5548 H   0  0  0  0  0  0  0  0  0  0  0  0
   -0.0225    2.3949   -2.6743 C   0  0  0  0  0  0  0  0  0  0  0  0
    0.7498    2.9414   -2.1313 H   0  0  0  0  0  0  0  0  0  0  0  0
    0.3019    2.2489   -3.7049 H   0  0  0  0  0  0  0  0  0  0  0  0
   -0.9366    2.9846   -2.6815 H   0  0  0  0  0  0  0  0  0  0  0  0
    1.0255    0.2193   -2.1294 C   0  0  0  0  0  0  0  0  0  0  0  0
    0.8749   -0.7680   -1.6930 H   0  0  0  0  0  0  0  0  0  0  0  0
    1.2926    0.0981   -3.1792 H   0  0  0  0  0  0  0  0  0  0  0  0
    1.8393    0.7235   -1.6069 H   0  0  0  0  0  0  0  0  0  0  0  0
   -0.1913    0.1554    1.7759 C   0  0  0  0  0  0  0  0  0  0  0  0
    0.9476   -0.0766    2.1748 O   0  0  0  0  0  0  0  0  0  0  0  0
   -1.1502    0.6393    2.5760 N   0  0  0  0  0  0  0  0  0  0  0  0
   -2.0581    0.8092    2.1736 H   0  0  0  0  0  0  0  0  0  0  0  0
   -0.9568    0.9369    3.9933 C   0  0  0  0  0  0  0  0  0  0  0  0
   -0.1600    1.6750    4.1097 H   0  0  0  0  0  0  0  0  0  0  0  0
   -1.8775    1.3307    4.4266 H   0  0  0  0  0  0  0  0  0  0  0  0
   -0.6678    0.0287    4.5244 H   0  0  0  0  0  0  0  0  0  0  0  0
  5  6  2  0  0  0  0
  5  7  1  0  0  0  0
  2  3  1  0  0  0  0
  2  4  1  0  0  0  0
  2  5  1  0  0  0  0
  1  2  1  0  0  0  0
 24 25  2  0  0  0  0
 24 26  1  0  0  0  0
 20 21  1  0  0  0  0
 20 22  1  0  0  0  0
 20 23  1  0  0  0  0
 16 17  1  0  0  0  0
 16 18  1  0  0  0  0
 16 19  1  0  0  0  0
 14 15  1  0  0  0  0
 14 16  1  0  0  0  0
 14 20  1  0  0  0  0
 11 12  1  0  0  0  0
 11 13  1  0  0  0  0
 11 14  1  0  0  0  0
  9 10  1  0  0  0  0
  9 11  1  0  0  0  0
  9 24  1  0  0  0  0
  7  8  1  0  0  0  0
  7  9  1  0  0  0  0
 28 29  1  0  0  0  0
 28 30  1  0  0  0  0
 28 31  1  0  0  0  0
 26 27  1  0  0  0  0
 26 28  1  0  0  0  0
M  END
$$$$
default_name
  -OEChem-02102213163D

 31 30  0     1  0  0  0  0  0999 V2000
   -3.5895   -3.5013    1.1082 H   0  0  0  0  0  0  0  0  0  0  0  0
   -3.5145   -2.5363    0.6082 C   0  0  0  0  0  0  0  0  0  0  0  0
   -4.2285   -1.8413    1.0452 H   0  0  0  0  0  0  0  0  0  0  0  0
   -3.7155   -2.6583   -0.4538 H   0  0  0  0  0  0  0  0  0  0  0  0
   -2.1155   -1.9963    0.7922 C   0  0  0  0  0  0  0  0  0  0  0  0
   -1.2875   -2.6383    1.4252 O   0  0  0  0  0  0  0  0  0  0  0  0
   -1.8575   -0.8123    0.2402 N   0  0  0  0  0  0  0  0  0  0  0  0
   -2.6005   -0.3333   -0.2478 H   0  0  0  0  0  0  0  0  0  0  0  0
   -0.5675   -0.1203    0.3102 C   0  0  1  0  0  0  0  0  0  0  0  0
    0.1932   -0.7715   -0.1219 H   0  0  0  0  0  0  0  0  0  0  0  0
   -0.6568    1.1713   -0.5294 C   0  0  0  0  0  0  0  0  0  0  0  0
   -1.6794    1.5501   -0.4786 H   0  0  0  0  0  0  0  0  0  0  0  0
   -0.0044    1.9176   -0.0707 H   0  0  0  0  0  0  0  0  0  0  0  0
   -0.2613    1.0353   -2.0113 C   0  0  0  0  0  0  0  0  0  0  0  0
   -1.1345    0.7571   -2.6013 H   0  0  0  0  0  0  0  0  0  0  0  0
    0.3283    2.3314   -2.5749 C   0  0  0  0  0  0  0  0  0  0  0  0
    1.1947    2.6319   -1.9842 H   0  0  0  0  0  0  0  0  0  0  0  0
    0.6383    2.1748   -3.6083 H   0  0  0  0  0  0  0  0  0  0  0  0
   -0.4101    3.1301   -2.5543 H   0  0  0  0  0  0  0  0  0  0  0  0
    0.7856   -0.0671   -2.1671 C   0  0  0  0  0  0  0  0  0  0  0  0
    0.3810   -1.0112   -1.8025 H   0  0  0  0  0  0  0  0  0  0  0  0
    1.0469   -0.1842   -3.2188 H   0  0  0  0  0  0  0  0  0  0  0  0
    1.6823    0.1835   -1.5992 H   0  0  0  0  0  0  0  0  0  0  0  0
   -0.1913    0.1554    1.7759 C   0  0  0  0  0  0  0  0  0  0  0  0
    0.9476   -0.0766    2.1748 O   0  0  0  0  0  0  0  0  0  0  0  0
   -1.1502    0.6393    2.5760 N   0  0  0  0  0  0  0  0  0  0  0  0
   -2.0581    0.8092    2.1736 H   0  0  0  0  0  0  0  0  0  0  0  0
   -0.9568    0.9369    3.9933 C   0  0  0  0  0  0  0  0  0  0  0  0
   -0.1600    1.6750    4.1097 H   0  0  0  0  0  0  0  0  0  0  0  0
   -1.8775    1.3307    4.4266 H   0  0  0  0  0  0  0  0  0  0  0  0
   -0.6678    0.0287    4.5244 H   0  0  0  0  0  0  0  0  0  0  0  0
  5  6  2  0  0  0  0
  5  7  1  0  0  0  0
  2  3  1  0  0  0  0
  2  4  1  0  0  0  0
  2  5  1  0  0  0  0
  1  2  1  0  0  0  0
 24 25  2  0  0  0  0
 24 26  1  0  0  0  0
 20 21  1  0  0  0  0
 20 22  1  0  0  0  0
 20 23  1  0  0  0  0
 16 17  1  0  0  0  0
 16 18  1  0  0  0  0
 16 19  1  0  0  0  0
 14 15  1  0  0  0  0
 14 16  1  0  0  0  0
 14 20  1  0  0  0  0
 11 12  1  0  0  0  0
 11 13  1  0  0  0  0
 11 14  1  0  0  0  0
  9 10  1  0  0  0  0
  9 11  1  0  0  0  0
  9 24  1  0  0  0  0
  7  8  1  0  0  0  0
  7  9  1  0  0  0  0
 28 29  1  0  0  0  0
 28 30  1  0  0  0  0
 28 31  1  0  0  0  0
 26 27  1  0  0  0  0
 26 28  1  0  0  0  0
M  END
$$$$
default_name
  -OEChem-02102213163D

 31 30  0     1  0  0  0  0  0999 V2000
   -3.5895   -3.5013    1.1082 H   0  0  0  0  0  0  0  0  0  0  0  0
   -3.5145   -2.5363    0.6082 C   0  0  0  0  0  0  0  0  0  0  0  0
   -4.2285   -1.8413    1.0452 H   0  0  0  0  0  0  0  0  0  0  0  0
   -3.7155   -2.6583   -0.4538 H   0  0  0  0  0  0  0  0  0  0  0  0
   -2.1155   -1.9963    0.7922 C   0  0  0  0  0  0  0  0  0  0  0  0
   -1.2875   -2.6383    1.4252 O   0  0  0  0  0  0  0  0  0  0  0  0
   -1.8575   -0.8123    0.2402 N   0  0  0  0  0  0  0  0  0  0  0  0
   -2.6005   -0.3333   -0.2478 H   0  0  0  0  0  0  0  0  0  0  0  0
   -0.5675   -0.1203    0.3102 C   0  0  1  0  0  0  0  0  0  0  0  0
    0.1932   -0.7715   -0.1219 H   0  0  0  0  0  0  0  0  0  0  0  0
   -0.6568    1.1713   -0.5294 C   0  0  0  0  0  0  0  0  0  0  0  0
   -1.6794    1.5501   -0.4786 H   0  0  0  0  0  0  0  0  0  0  0  0
   -0.0044    1.9176   -0.0707 H   0  0  0  0  0  0  0  0  0  0  0  0
   -0.2613    1.0353   -2.0113 C   0  0  0  0  0  0  0  0  0  0  0  0
   -1.1573    1.0222   -2.6318 H   0  0  0  0  0  0  0  0  0  0  0  0
    0.6490    2.1761   -2.4750 C   0  0  0  0  0  0  0  0  0  0  0  0
    1.5440    2.2124   -1.8524 H   0  0  0  0  0  0  0  0  0  0  0  0
    0.9426    2.0131   -3.5122 H   0  0  0  0  0  0  0  0  0  0  0  0
    0.1318    3.1310   -2.4098 H   0  0  0  0  0  0  0  0  0  0  0  0
    0.4835   -0.2815   -2.2281 C   0  0  0  0  0  0  0  0  0  0  0  0
   -0.1541   -1.1158   -1.9357 H   0  0  0  0  0  0  0  0  0  0  0  0
    0.7403   -0.3931   -3.2815 H   0  0  0  0  0  0  0  0  0  0  0  0
    1.3961   -0.2996   -1.6313 H   0  0  0  0  0  0  0  0  0  0  0  0
   -0.1913    0.1554    1.7759 C   0  0  0  0  0  0  0  0  0  0  0  0
    0.9476   -0.0766    2.1748 O   0  0  0  0  0  0  0  0  0  0  0  0
   -1.1502    0.6393    2.5760 N   0  0  0  0  0  0  0  0  0  0  0  0
   -2.0581    0.8092    2.1736 H   0  0  0  0  0  0  0  0  0  0  0  0
   -0.9568    0.9369    3.9933 C   0  0  0  0  0  0  0  0  0  0  0  0
   -0.1600    1.6750    4.1097 H   0  0  0  0  0  0  0  0  0  0  0  0
   -1.8775    1.3307    4.4266 H   0  0  0  0  0  0  0  0  0  0  0  0
   -0.6678    0.0287    4.5244 H   0  0  0  0  0  0  0  0  0  0  0  0
  5  6  2  0  0  0  0
  5  7  1  0  0  0  0
  2  3  1  0  0  0  0
  2  4  1  0  0  0  0
  2  5  1  0  0  0  0
  1  2  1  0  0  0  0
 24 25  2  0  0  0  0
 24 26  1  0  0  0  0
 20 21  1  0  0  0  0
 20 22  1  0  0  0  0
 20 23  1  0  0  0  0
 16 17  1  0  0  0  0
 16 18  1  0  0  0  0
 16 19  1  0  0  0  0
 14 15  1  0  0  0  0
 14 16  1  0  0  0  0
 14 20  1  0  0  0  0
 11 12  1  0  0  0  0
 11 13  1  0  0  0  0
 11 14  1  0  0  0  0
  9 10  1  0  0  0  0
  9 11  1  0  0  0  0
  9 24  1  0  0  0  0
  7  8  1  0  0  0  0
  7  9  1  0  0  0  0
 28 29  1  0  0  0  0
 28 30  1  0  0  0  0
 28 31  1  0  0  0  0
 26 27  1  0  0  0  0
 26 28  1  0  0  0  0
M  END
$$$$
default_name
  -OEChem-02102213163D

 31 30  0     1  0  0  0  0  0999 V2000
   -3.5895   -3.5013    1.1082 H   0  0  0  0  0  0  0  0  0  0  0  0
   -3.5145   -2.5363    0.6082 C   0  0  0  0  0  0  0  0  0  0  0  0
   -4.2285   -1.8413    1.0452 H   0  0  0  0  0  0  0  0  0  0  0  0
   -3.7155   -2.6583   -0.4538 H   0  0  0  0  0  0  0  0  0  0  0  0
   -2.1155   -1.9963    0.7922 C   0  0  0  0  0  0  0  0  0  0  0  0
   -1.2875   -2.6383    1.4252 O   0  0  0  0  0  0  0  0  0  0  0  0
   -1.8575   -0.8123    0.2402 N   0  0  0  0  0  0  0  0  0  0  0  0
   -2.6005   -0.3333   -0.2478 H   0  0  0  0  0  0  0  0  0  0  0  0
   -0.5675   -0.1203    0.3102 C   0  0  1  0  0  0  0  0  0  0  0  0
    0.1932   -0.7715   -0.1219 H   0  0  0  0  0  0  0  0  0  0  0  0
   -0.6568    1.1713   -0.5294 C   0  0  0  0  0  0  0  0  0  0  0  0
   -1.6794    1.5501   -0.4786 H   0  0  0  0  0  0  0  0  0  0  0  0
   -0.0044    1.9176   -0.0707 H   0  0  0  0  0  0  0  0  0  0  0  0
   -0.2613    1.0353   -2.0113 C   0  0  0  0  0  0  0  0  0  0  0  0
   -1.1126    1.2860   -2.6440 H   0  0  0  0  0  0  0  0  0  0  0  0
    0.9179    1.9396   -2.3815 C   0  0  0  0  0  0  0  0  0  0  0  0
    1.7739    1.7115   -1.7451 H   0  0  0  0  0  0  0  0  0  0  0  0
    1.1941    1.7747   -3.4232 H   0  0  0  0  0  0  0  0  0  0  0  0
    0.6522    2.9872   -2.2577 H   0  0  0  0  0  0  0  0  0  0  0  0
    0.1396   -0.4093   -2.3081 C   0  0  0  0  0  0  0  0  0  0  0  0
   -0.6940   -1.0746   -2.0836 H   0  0  0  0  0  0  0  0  0  0  0  0
    0.3935   -0.5143   -3.3629 H   0  0  0  0  0  0  0  0  0  0  0  0
    1.0000   -0.6927   -1.7009 H   0  0  0  0  0  0  0  0  0  0  0  0
   -0.1913    0.1554    1.7759 C   0  0  0  0  0  0  0  0  0  0  0  0
    0.9476   -0.0766    2.1748 O   0  0  0  0  0  0  0  0  0  0  0  0
   -1.1502    0.6393    2.5760 N   0  0  0  0  0  0  0  0  0  0  0  0
   -2.0581    0.8092    2.1736 H   0  0  0  0  0  0  0  0  0  0  0  0
   -0.9568    0.9369    3.9933 C   0  0  0  0  0  0  0  0  0  0  0  0
   -0.1600    1.6750    4.1097 H   0  0  0  0  0  0  0  0  0  0  0  0
   -1.8775    1.3307    4.4266 H   0  0  0  0  0  0  0  0  0  0  0  0
   -0.6678    0.0287    4.5244 H   0  0  0  0  0  0  0  0  0  0  0  0
  5  6  2  0  0  0  0
  5  7  1  0  0  0  0
  2  3  1  0  0  0  0
  2  4  1  0  0  0  0
  2  5  1  0  0  0  0
  1  2  1  0  0  0  0
 24 25  2  0  0  0  0
 24 26  1  0  0  0  0
 20 21  1  0  0  0  0
 20 22  1  0  0  0  0
 20 23  1  0  0  0  0
 16 17  1  0  0  0  0
 16 18  1  0  0  0  0
 16 19  1  0  0  0  0
 14 15  1  0  0  0  0
 14 16  1  0  0  0  0
 14 20  1  0  0  0  0
 11 12  1  0  0  0  0
 11 13  1  0  0  0  0
 11 14  1  0  0  0  0
  9 10  1  0  0  0  0
  9 11  1  0  0  0  0
  9 24  1  0  0  0  0
  7  8  1  0  0  0  0
  7  9  1  0  0  0  0
 28 29  1  0  0  0  0
 28 30  1  0  0  0  0
 28 31  1  0  0  0  0
 26 27  1  0  0  0  0
 26 28  1  0  0  0  0
M  END
$$$$
default_name
  -OEChem-02102213163D

 31 30  0     1  0  0  0  0  0999 V2000
   -3.5895   -3.5013    1.1082 H   0  0  0  0  0  0  0  0  0  0  0  0
   -3.5145   -2.5363    0.6082 C   0  0  0  0  0  0  0  0  0  0  0  0
   -4.2285   -1.8413    1.0452 H   0  0  0  0  0  0  0  0  0  0  0  0
   -3.7155   -2.6583   -0.4538 H   0  0  0  0  0  0  0  0  0  0  0  0
   -2.1155   -1.9963    0.7922 C   0  0  0  0  0  0  0  0  0  0  0  0
   -1.2875   -2.6383    1.4252 O   0  0  0  0  0  0  0  0  0  0  0  0
   -1.8575   -0.8123    0.2402 N   0  0  0  0  0  0  0  0  0  0  0  0
   -2.6005   -0.3333   -0.2478 H   0  0  0  0  0  0  0  0  0  0  0  0
   -0.5675   -0.1203    0.3102 C   0  0  1  0  0  0  0  0  0  0  0  0
    0.1932   -0.7715   -0.1219 H   0  0  0  0  0  0  0  0  0  0  0  0
   -0.6568    1.1713   -0.5294 C   0  0  0  0  0  0  0  0  0  0  0  0
   -1.6794    1.5501   -0.4786 H   0  0  0  0  0  0  0  0  0  0  0  0
   -0.0044    1.9176   -0.0707 H   0  0  0  0  0  0  0  0  0  0  0  0
   -0.2613    1.0353   -2.0113 C   0  0  0  0  0  0  0  0  0  0  0  0
   -1.0035    1.5305   -2.6374 H   0  0  0  0  0  0  0  0  0  0  0  0
    1.1165    1.6380   -2.3008 C   0  0  0  0  0  0  0  0  0  0  0  0
    1.8687    1.1632   -1.6694 H   0  0  0  0  0  0  0  0  0  0  0  0
    1.3756    1.4758   -3.3474 H   0  0  0  0  0  0  0  0  0  0  0  0
    1.1155    2.7087   -2.1085 H   0  0  0  0  0  0  0  0  0  0  0  0
   -0.2226   -0.4417   -2.4018 C   0  0  0  0  0  0  0  0  0  0  0  0
   -1.2019   -0.8906   -2.2360 H   0  0  0  0  0  0  0  0  0  0  0  0
    0.0302   -0.5395   -3.4576 H   0  0  0  0  0  0  0  0  0  0  0  0
    0.5210   -0.9691   -1.8033 H   0  0  0  0  0  0  0  0  0  0  0  0
   -0.1913    0.1554    1.7759 C   0  0  0  0  0  0  0  0  0  0  0  0
    0.9476   -0.0766    2.1748 O   0  0  0  0  0  0  0  0  0  0  0  0
   -1.1502    0.6393    2.5760 N   0  0  0  0  0  0  0  0  0  0  0  0
   -2.0581    0.8092    2.1736 H   0  0  0  0  0  0  0  0  0  0  0  0
   -0.9568    0.9369    3.9933 C   0  0  0  0  0  0  0  0  0  0  0  0
   -0.1600    1.6750    4.1097 H   0  0  0  0  0  0  0  0  0  0  0  0
   -1.8775    1.3307    4.4266 H   0  0  0  0  0  0  0  0  0  0  0  0
   -0.6678    0.0287    4.5244 H   0  0  0  0  0  0  0  0  0  0  0  0
  5  6  2  0  0  0  0
  5  7  1  0  0  0  0
  2  3  1  0  0  0  0
  2  4  1  0  0  0  0
  2  5  1  0  0  0  0
  1  2  1  0  0  0  0
 24 25  2  0  0  0  0
 24 26  1  0  0  0  0
 20 21  1  0  0  0  0
 20 22  1  0  0  0  0
 20 23  1  0  0  0  0
 16 17  1  0  0  0  0
 16 18  1  0  0  0  0
 16 19  1  0  0  0  0
 14 15  1  0  0  0  0
 14 16  1  0  0  0  0
 14 20  1  0  0  0  0
 11 12  1  0  0  0  0
 11 13  1  0  0  0  0
 11 14  1  0  0  0  0
  9 10  1  0  0  0  0
  9 11  1  0  0  0  0
  9 24  1  0  0  0  0
  7  8  1  0  0  0  0
  7  9  1  0  0  0  0
 28 29  1  0  0  0  0
 28 30  1  0  0  0  0
 28 31  1  0  0  0  0
 26 27  1  0  0  0  0
 26 28  1  0  0  0  0
M  END
$$$$
default_name
  -OEChem-02102213163D

 31 30  0     1  0  0  0  0  0999 V2000
   -3.5895   -3.5013    1.1082 H   0  0  0  0  0  0  0  0  0  0  0  0
   -3.5145   -2.5363    0.6082 C   0  0  0  0  0  0  0  0  0  0  0  0
   -4.2285   -1.8413    1.0452 H   0  0  0  0  0  0  0  0  0  0  0  0
   -3.7155   -2.6583   -0.4538 H   0  0  0  0  0  0  0  0  0  0  0  0
   -2.1155   -1.9963    0.7922 C   0  0  0  0  0  0  0  0  0  0  0  0
   -1.2875   -2.6383    1.4252 O   0  0  0  0  0  0  0  0  0  0  0  0
   -1.8575   -0.8123    0.2402 N   0  0  0  0  0  0  0  0  0  0  0  0
   -2.6005   -0.3333   -0.2478 H   0  0  0  0  0  0  0  0  0  0  0  0
   -0.5675   -0.1203    0.3102 C   0  0  1  0  0  0  0  0  0  0  0  0
    0.1932   -0.7715   -0.1219 H   0  0  0  0  0  0  0  0  0  0  0  0
   -0.6568    1.1713   -0.5294 C   0  0  0  0  0  0  0  0  0  0  0  0
   -1.6794    1.5501   -0.4786 H   0  0  0  0  0  0  0  0  0  0  0  0
   -0.0044    1.9176   -0.0707 H   0  0  0  0  0  0  0  0  0  0  0  0
   -0.2613    1.0353   -2.0113 C   0  0  0  0  0  0  0  0  0  0  0  0
   -0.8373    1.7390   -2.6121 H   0  0  0  0  0  0  0  0  0  0  0  0
    1.2314    1.2918   -2.2384 C   0  0  0  0  0  0  0  0  0  0  0  0
    1.8220    0.6049   -1.6307 H   0  0  0  0  0  0  0  0  0  0  0  0
    1.4747    1.1369   -3.2898 H   0  0  0  0  0  0  0  0  0  0  0  0
    1.4903    2.3143   -1.9722 H   0  0  0  0  0  0  0  0  0  0  0  0
   -0.5784   -0.3766   -2.5027 C   0  0  0  0  0  0  0  0  0  0  0  0
   -1.6431   -0.5761   -2.3827 H   0  0  0  0  0  0  0  0  0  0  0  0
   -0.3249   -0.4671   -3.5590 H   0  0  0  0  0  0  0  0  0  0  0  0
   -0.0081   -1.1101   -1.9316 H   0  0  0  0  0  0  0  0  0  0  0  0
   -0.1913    0.1554    1.7759 C   0  0  0  0  0  0  0  0  0  0  0  0
    0.9476   -0.0766    2.1748 O   0  0  0  0  0  0  0  0  0  0  0  0
   -1.1502    0.6393    2.5760 N   0  0  0  0  0  0  0  0  0  0  0  0
   -2.0581    0.8092    2.1736 H   0  0  0  0  0  0  0  0  0  0  0  0
   -0.9568    0.9369    3.9933 C   0  0  0  0  0  0  0  0  0  0  0  0
   -0.1600    1.6750    4.1097 H   0  0  0  0  0  0  0  0  0  0  0  0
   -1.8775    1.3307    4.4266 H   0  0  0  0  0  0  0  0  0  0  0  0
   -0.6678    0.0287    4.5244 H   0  0  0  0  0  0  0  0  0  0  0  0
  5  6  2  0  0  0  0
  5  7  1  0  0  0  0
  2  3  1  0  0  0  0
  2  4  1  0  0  0  0
  2  5  1  0  0  0  0
  1  2  1  0  0  0  0
 24 25  2  0  0  0  0
 24 26  1  0  0  0  0
 20 21  1  0  0  0  0
 20 22  1  0  0  0  0
 20 23  1  0  0  0  0
 16 17  1  0  0  0  0
 16 18  1  0  0  0  0
 16 19  1  0  0  0  0
 14 15  1  0  0  0  0
 14 16  1  0  0  0  0
 14 20  1  0  0  0  0
 11 12  1  0  0  0  0
 11 13  1  0  0  0  0
 11 14  1  0  0  0  0
  9 10  1  0  0  0  0
  9 11  1  0  0  0  0
  9 24  1  0  0  0  0
  7  8  1  0  0  0  0
  7  9  1  0  0  0  0
 28 29  1  0  0  0  0
 28 30  1  0  0  0  0
 28 31  1  0  0  0  0
 26 27  1  0  0  0  0
 26 28  1  0  0  0  0
M  END
$$$$
default_name
  -OEChem-02102213163D

 31 30  0     1  0  0  0  0  0999 V2000
   -3.5895   -3.5013    1.1082 H   0  0  0  0  0  0  0  0  0  0  0  0
   -3.5145   -2.5363    0.6082 C   0  0  0  0  0  0  0  0  0  0  0  0
   -4.2285   -1.8413    1.0452 H   0  0  0  0  0  0  0  0  0  0  0  0
   -3.7155   -2.6583   -0.4538 H   0  0  0  0  0  0  0  0  0  0  0  0
   -2.1155   -1.9963    0.7922 C   0  0  0  0  0  0  0  0  0  0  0  0
   -1.2875   -2.6383    1.4252 O   0  0  0  0  0  0  0  0  0  0  0  0
   -1.8575   -0.8123    0.2402 N   0  0  0  0  0  0  0  0  0  0  0  0
   -2.6005   -0.3333   -0.2478 H   0  0  0  0  0  0  0  0  0  0  0  0
   -0.5675   -0.1203    0.3102 C   0  0  1  0  0  0  0  0  0  0  0  0
    0.1932   -0.7715   -0.1219 H   0  0  0  0  0  0  0  0  0  0  0  0
   -0.6568    1.1713   -0.5294 C   0  0  0  0  0  0  0  0  0  0  0  0
   -1.6794    1.5501   -0.4786 H   0  0  0  0  0  0  0  0  0  0  0  0
   -0.0044    1.9176   -0.0707 H   0  0  0  0  0  0  0  0  0  0  0  0
   -0.2613    1.0353   -2.0113 C   0  0  0  0  0  0  0  0  0  0  0  0
   -0.6254    1.8974   -2.5701 H   0  0  0  0  0  0  0  0  0  0  0  0
    1.2546    0.9246   -2.1985 C   0  0  0  0  0  0  0  0  0  0  0  0
    1.6369    0.0747   -1.6314 H   0  0  0  0  0  0  0  0  0  0  0  0
    1.4847    0.7810   -3.2545 H   0  0  0  0  0  0  0  0  0  0  0  0
    1.7509    1.8309   -1.8583 H   0  0  0  0  0  0  0  0  0  0  0  0
   -0.9035   -0.2184   -2.6040 C   0  0  0  0  0  0  0  0  0  0  0  0
   -1.9877   -0.1528   -2.5135 H   0  0  0  0  0  0  0  0  0  0  0  0
   -0.6475   -0.3021   -3.6602 H   0  0  0  0  0  0  0  0  0  0  0  0
   -0.5514   -1.1059   -2.0770 H   0  0  0  0  0  0  0  0  0  0  0  0
   -0.1913    0.1554    1.7759 C   0  0  0  0  0  0  0  0  0  0  0  0
    0.9476   -0.0766    2.1748 O   0  0  0  0  0  0  0  0  0  0  0  0
   -1.1502    0.6393    2.5760 N   0  0  0  0  0  0  0  0  0  0  0  0
   -2.0581    0.8092    2.1736 H   0  0  0  0  0  0  0  0  0  0  0  0
   -0.9568    0.9369    3.9933 C   0  0  0  0  0  0  0  0  0  0  0  0
   -0.1600    1.6750    4.1097 H   0  0  0  0  0  0  0  0  0  0  0  0
   -1.8775    1.3307    4.4266 H   0  0  0  0  0  0  0  0  0  0  0  0
   -0.6678    0.0287    4.5244 H   0  0  0  0  0  0  0  0  0  0  0  0
  5  6  2  0  0  0  0
  5  7  1  0  0  0  0
  2  3  1  0  0  0  0
  2  4  1  0  0  0  0
  2  5  1  0  0  0  0
  1  2  1  0  0  0  0
 24 25  2  0  0  0  0
 24 26  1  0  0  0  0
 20 21  1  0  0  0  0
 20 22  1  0  0  0  0
 20 23  1  0  0  0  0
 16 17  1  0  0  0  0
 16 18  1  0  0  0  0
 16 19  1  0  0  0  0
 14 15  1  0  0  0  0
 14 16  1  0  0  0  0
 14 20  1  0  0  0  0
 11 12  1  0  0  0  0
 11 13  1  0  0  0  0
 11 14  1  0  0  0  0
  9 10  1  0  0  0  0
  9 11  1  0  0  0  0
  9 24  1  0  0  0  0
  7  8  1  0  0  0  0
  7  9  1  0  0  0  0
 28 29  1  0  0  0  0
 28 30  1  0  0  0  0
 28 31  1  0  0  0  0
 26 27  1  0  0  0  0
 26 28  1  0  0  0  0
M  END
$$$$
default_name
  -OEChem-02102213163D

 31 30  0     1  0  0  0  0  0999 V2000
   -3.5895   -3.5013    1.1082 H   0  0  0  0  0  0  0  0  0  0  0  0
   -3.5145   -2.5363    0.6082 C   0  0  0  0  0  0  0  0  0  0  0  0
   -4.2285   -1.8413    1.0452 H   0  0  0  0  0  0  0  0  0  0  0  0
   -3.7155   -2.6583   -0.4538 H   0  0  0  0  0  0  0  0  0  0  0  0
   -2.1155   -1.9963    0.7922 C   0  0  0  0  0  0  0  0  0  0  0  0
   -1.2875   -2.6383    1.4252 O   0  0  0  0  0  0  0  0  0  0  0  0
   -1.8575   -0.8123    0.2402 N   0  0  0  0  0  0  0  0  0  0  0  0
   -2.6005   -0.3333   -0.2478 H   0  0  0  0  0  0  0  0  0  0  0  0
   -0.5675   -0.1203    0.3102 C   0  0  1  0  0  0  0  0  0  0  0  0
    0.1932   -0.7715   -0.1219 H   0  0  0  0  0  0  0  0  0  0  0  0
   -0.6568    1.1713   -0.5294 C   0  0  0  0  0  0  0  0  0  0  0  0
   -1.6794    1.5501   -0.4786 H   0  0  0  0  0  0  0  0  0  0  0  0
   -0.0044    1.9176   -0.0707 H   0  0  0  0  0  0  0  0  0  0  0  0
   -0.2613    1.0353   -2.0113 C   0  0  0  0  0  0  0  0  0  0  0  0
   -0.3823    1.9947   -2.5142 H   0  0  0  0  0  0  0  0  0  0  0  0
    1.1848    0.5615   -2.1838 C   0  0  0  0  0  0  0  0  0  0  0  0
    1.3261   -0.3912   -1.6715 H   0  0  0  0  0  0  0  0  0  0  0  0
    1.4049    0.4324   -3.2437 H   0  0  0  0  0  0  0  0  0  0  0  0
    1.8797    1.2915   -1.7744 H   0  0  0  0  0  0  0  0  0  0  0  0
   -1.1758    0.0221   -2.6988 C   0  0  0  0  0  0  0  0  0  0  0  0
   -2.2120    0.3507   -2.6196 H   0  0  0  0  0  0  0  0  0  0  0  0
   -0.9157   -0.0555   -3.7544 H   0  0  0  0  0  0  0  0  0  0  0  0
   -1.0717   -0.9568   -2.2296 H   0  0  0  0  0  0  0  0  0  0  0  0
   -0.1913    0.1554    1.7759 C   0  0  0  0  0  0  0  0  0  0  0  0
    0.9476   -0.0766    2.1748 O   0  0  0  0  0  0  0  0  0  0  0  0
   -1.1502    0.6393    2.5760 N   0  0  0  0  0  0  0  0  0  0  0  0
   -2.0581    0.8092    2.1736 H   0  0  0  0  0  0  0  0  0  0  0  0
   -0.9568    0.9369    3.9933 C   0  0  0  0  0  0  0  0  0  0  0  0
   -0.1600    1.6750    4.1097 H   0  0  0  0  0  0  0  0  0  0  0  0
   -1.8775    1.3307    4.4266 H   0  0  0  0  0  0  0  0  0  0  0  0
   -0.6678    0.0287    4.5244 H   0  0  0  0  0  0  0  0  0  0  0  0
  5  6  2  0  0  0  0
  5  7  1  0  0  0  0
  2  3  1  0  0  0  0
  2  4  1  0  0  0  0
  2  5  1  0  0  0  0
  1  2  1  0  0  0  0
 24 25  2  0  0  0  0
 24 26  1  0  0  0  0
 20 21  1  0  0  0  0
 20 22  1  0  0  0  0
 20 23  1  0  0  0  0
 16 17  1  0  0  0  0
 16 18  1  0  0  0  0
 16 19  1  0  0  0  0
 14 15  1  0  0  0  0
 14 16  1  0  0  0  0
 14 20  1  0  0  0  0
 11 12  1  0  0  0  0
 11 13  1  0  0  0  0
 11 14  1  0  0  0  0
  9 10  1  0  0  0  0
  9 11  1  0  0  0  0
  9 24  1  0  0  0  0
  7  8  1  0  0  0  0
  7  9  1  0  0  0  0
 28 29  1  0  0  0  0
 28 30  1  0  0  0  0
 28 31  1  0  0  0  0
 26 27  1  0  0  0  0
 26 28  1  0  0  0  0
M  END
$$$$
default_name
  -OEChem-02102213163D

 31 30  0     1  0  0  0  0  0999 V2000
   -3.5895   -3.5013    1.1082 H   0  0  0  0  0  0  0  0  0  0  0  0
   -3.5145   -2.5363    0.6082 C   0  0  0  0  0  0  0  0  0  0  0  0
   -4.2285   -1.8413    1.0452 H   0  0  0  0  0  0  0  0  0  0  0  0
   -3.7155   -2.6583   -0.4538 H   0  0  0  0  0  0  0  0  0  0  0  0
   -2.1155   -1.9963    0.7922 C   0  0  0  0  0  0  0  0  0  0  0  0
   -1.2875   -2.6383    1.4252 O   0  0  0  0  0  0  0  0  0  0  0  0
   -1.8575   -0.8123    0.2402 N   0  0  0  0  0  0  0  0  0  0  0  0
   -2.6005   -0.3333   -0.2478 H   0  0  0  0  0  0  0  0  0  0  0  0
   -0.5675   -0.1203    0.3102 C   0  0  1  0  0  0  0  0  0  0  0  0
    0.1932   -0.7715   -0.1219 H   0  0  0  0  0  0  0  0  0  0  0  0
   -0.6568    1.1713   -0.5294 C   0  0  0  0  0  0  0  0  0  0  0  0
   -1.6794    1.5501   -0.4786 H   0  0  0  0  0  0  0  0  0  0  0  0
   -0.0044    1.9176   -0.0707 H   0  0  0  0  0  0  0  0  0  0  0  0
   -0.2613    1.0353   -2.0113 C   0  0  0  0  0  0  0  0  0  0  0  0
   -0.1244    2.0245   -2.4481 H   0  0  0  0  0  0  0  0  0  0  0  0
    1.0265    0.2271   -2.1953 C   0  0  0  0  0  0  0  0  0  0  0  0
    0.9107   -0.7612   -1.7484 H   0  0  0  0  0  0  0  0  0  0  0  0
    1.2407    0.1148   -3.2584 H   0  0  0  0  0  0  0  0  0  0  0  0
    1.8678    0.7329   -1.7263 H   0  0  0  0  0  0  0  0  0  0  0  0
   -1.3767    0.3286   -2.7805 C   0  0  0  0  0  0  0  0  0  0  0  0
   -2.3009    0.8999   -2.6937 H   0  0  0  0  0  0  0  0  0  0  0  0
   -1.1112    0.2557   -3.8352 H   0  0  0  0  0  0  0  0  0  0  0  0
   -1.5338   -0.6731   -2.3789 H   0  0  0  0  0  0  0  0  0  0  0  0
   -0.1913    0.1554    1.7759 C   0  0  0  0  0  0  0  0  0  0  0  0
    0.9476   -0.0766    2.1748 O   0  0  0  0  0  0  0  0  0  0  0  0
   -1.1502    0.6393    2.5760 N   0  0  0  0  0  0  0  0  0  0  0  0
   -2.0581    0.8092    2.1736 H   0  0  0  0  0  0  0  0  0  0  0  0
   -0.9568    0.9369    3.9933 C   0  0  0  0  0  0  0  0  0  0  0  0
   -0.1600    1.6750    4.1097 H   0  0  0  0  0  0  0  0  0  0  0  0
   -1.8775    1.3307    4.4266 H   0  0  0  0  0  0  0  0  0  0  0  0
   -0.6678    0.0287    4.5244 H   0  0  0  0  0  0  0  0  0  0  0  0
  5  6  2  0  0  0  0
  5  7  1  0  0  0  0
  2  3  1  0  0  0  0
  2  4  1  0  0  0  0
  2  5  1  0  0  0  0
  1  2  1  0  0  0  0
 24 25  2  0  0  0  0
 24 26  1  0  0  0  0
 20 21  1  0  0  0  0
 20 22  1  0  0  0  0
 20 23  1  0  0  0  0
 16 17  1  0  0  0  0
 16 18  1  0  0  0  0
 16 19  1  0  0  0  0
 14 15  1  0  0  0  0
 14 16  1  0  0  0  0
 14 20  1  0  0  0  0
 11 12  1  0  0  0  0
 11 13  1  0  0  0  0
 11 14  1  0  0  0  0
  9 10  1  0  0  0  0
  9 11  1  0  0  0  0
  9 24  1  0  0  0  0
  7  8  1  0  0  0  0
  7  9  1  0  0  0  0
 28 29  1  0  0  0  0
 28 30  1  0  0  0  0
 28 31  1  0  0  0  0
 26 27  1  0  0  0  0
 26 28  1  0  0  0  0
M  END
$$$$
default_name
  -OEChem-02102213163D

 31 30  0     1  0  0  0  0  0999 V2000
   -3.5895   -3.5013    1.1082 H   0  0  0  0  0  0  0  0  0  0  0  0
   -3.5145   -2.5363    0.6082 C   0  0  0  0  0  0  0  0  0  0  0  0
   -4.2285   -1.8413    1.0452 H   0  0  0  0  0  0  0  0  0  0  0  0
   -3.7155   -2.6583   -0.4538 H   0  0  0  0  0  0  0  0  0  0  0  0
   -2.1155   -1.9963    0.7922 C   0  0  0  0  0  0  0  0  0  0  0  0
   -1.2875   -2.6383    1.4252 O   0  0  0  0  0  0  0  0  0  0  0  0
   -1.8575   -0.8123    0.2402 N   0  0  0  0  0  0  0  0  0  0  0  0
   -2.6005   -0.3333   -0.2478 H   0  0  0  0  0  0  0  0  0  0  0  0
   -0.5675   -0.1203    0.3102 C   0  0  1  0  0  0  0  0  0  0  0  0
    0.1932   -0.7715   -0.1219 H   0  0  0  0  0  0  0  0  0  0  0  0
   -0.6568    1.1713   -0.5294 C   0  0  0  0  0  0  0  0  0  0  0  0
   -1.6794    1.5501   -0.4786 H   0  0  0  0  0  0  0  0  0  0  0  0
   -0.0044    1.9176   -0.0707 H   0  0  0  0  0  0  0  0  0  0  0  0
   -0.2613    1.0353   -2.0113 C   0  0  0  0  0  0  0  0  0  0  0  0
    0.1305    1.9846   -2.3764 H   0  0  0  0  0  0  0  0  0  0  0  0
    0.7906   -0.0556   -2.2323 C   0  0  0  0  0  0  0  0  0  0  0  0
    0.4191   -1.0100   -1.8568 H   0  0  0  0  0  0  0  0  0  0  0  0
    1.0034   -0.1500   -3.2974 H   0  0  0  0  0  0  0  0  0  0  0  0
    1.7160    0.1930   -1.7172 H   0  0  0  0  0  0  0  0  0  0  0  0
   -1.4926    0.6801   -2.8438 C   0  0  0  0  0  0  0  0  0  0  0  0
   -2.2482    1.4575   -2.7309 H   0  0  0  0  0  0  0  0  0  0  0  0
   -1.2206    0.6104   -3.8970 H   0  0  0  0  0  0  0  0  0  0  0  0
   -1.9060   -0.2740   -2.5149 H   0  0  0  0  0  0  0  0  0  0  0  0
   -0.1913    0.1554    1.7759 C   0  0  0  0  0  0  0  0  0  0  0  0
    0.9476   -0.0766    2.1748 O   0  0  0  0  0  0  0  0  0  0  0  0
   -1.1502    0.6393    2.5760 N   0  0  0  0  0  0  0  0  0  0  0  0
   -2.0581    0.8092    2.1736 H   0  0  0  0  0  0  0  0  0  0  0  0
   -0.9568    0.9369    3.9933 C   0  0  0  0  0  0  0  0  0  0  0  0
   -0.1600    1.6750    4.1097 H   0  0  0  0  0  0  0  0  0  0  0  0
   -1.8775    1.3307    4.4266 H   0  0  0  0  0  0  0  0  0  0  0  0
   -0.6678    0.0287    4.5244 H   0  0  0  0  0  0  0  0  0  0  0  0
  5  6  2  0  0  0  0
  5  7  1  0  0  0  0
  2  3  1  0  0  0  0
  2  4  1  0  0  0  0
  2  5  1  0  0  0  0
  1  2  1  0  0  0  0
 24 25  2  0  0  0  0
 24 26  1  0  0  0  0
 20 21  1  0  0  0  0
 20 22  1  0  0  0  0
 20 23  1  0  0  0  0
 16 17  1  0  0  0  0
 16 18  1  0  0  0  0
 16 19  1  0  0  0  0
 14 15  1  0  0  0  0
 14 16  1  0  0  0  0
 14 20  1  0  0  0  0
 11 12  1  0  0  0  0
 11 13  1  0  0  0  0
 11 14  1  0  0  0  0
  9 10  1  0  0  0  0
  9 11  1  0  0  0  0
  9 24  1  0  0  0  0
  7  8  1  0  0  0  0
  7  9  1  0  0  0  0
 28 29  1  0  0  0  0
 28 30  1  0  0  0  0
 28 31  1  0  0  0  0
 26 27  1  0  0  0  0
 26 28  1  0  0  0  0
M  END
$$$$
default_name
  -OEChem-02102213163D

 31 30  0     1  0  0  0  0  0999 V2000
   -3.5895   -3.5013    1.1082 H   0  0  0  0  0  0  0  0  0  0  0  0
   -3.5145   -2.5363    0.6082 C   0  0  0  0  0  0  0  0  0  0  0  0
   -4.2285   -1.8413    1.0452 H   0  0  0  0  0  0  0  0  0  0  0  0
   -3.7155   -2.6583   -0.4538 H   0  0  0  0  0  0  0  0  0  0  0  0
   -2.1155   -1.9963    0.7922 C   0  0  0  0  0  0  0  0  0  0  0  0
   -1.2875   -2.6383    1.4252 O   0  0  0  0  0  0  0  0  0  0  0  0
   -1.8575   -0.8123    0.2402 N   0  0  0  0  0  0  0  0  0  0  0  0
   -2.6005   -0.3333   -0.2478 H   0  0  0  0  0  0  0  0  0  0  0  0
   -0.5675   -0.1203    0.3102 C   0  0  1  0  0  0  0  0  0  0  0  0
    0.1932   -0.7715   -0.1219 H   0  0  0  0  0  0  0  0  0  0  0  0
   -0.6568    1.1713   -0.5294 C   0  0  0  0  0  0  0  0  0  0  0  0
   -1.6794    1.5501   -0.4786 H   0  0  0  0  0  0  0  0  0  0  0  0
   -0.0044    1.9176   -0.0707 H   0  0  0  0  0  0  0  0  0  0  0  0
   -0.2613    1.0353   -2.0113 C   0  0  0  0  0  0  0  0  0  0  0  0
    0.3652    1.8779   -2.3039 H   0  0  0  0  0  0  0  0  0  0  0  0
    0.4932   -0.2675   -2.2923 C   0  0  0  0  0  0  0  0  0  0  0  0
   -0.1152   -1.1207   -1.9893 H   0  0  0  0  0  0  0  0  0  0  0  0
    0.7091   -0.3442   -3.3582 H   0  0  0  0  0  0  0  0  0  0  0  0
    1.4347   -0.2913   -1.7479 H   0  0  0  0  0  0  0  0  0  0  0  0
   -1.5156    1.0527   -2.8841 C   0  0  0  0  0  0  0  0  0  0  0  0
   -2.0576    1.9855   -2.7285 H   0  0  0  0  0  0  0  0  0  0  0  0
   -1.2366    0.9844   -3.9355 H   0  0  0  0  0  0  0  0  0  0  0  0
   -2.1630    0.2132   -2.6282 H   0  0  0  0  0  0  0  0  0  0  0  0
   -0.1913    0.1554    1.7759 C   0  0  0  0  0  0  0  0  0  0  0  0
    0.9476   -0.0766    2.1748 O   0  0  0  0  0  0  0  0  0  0  0  0
   -1.1502    0.6393    2.5760 N   0  0  0  0  0  0  0  0  0  0  0  0
   -2.0581    0.8092    2.1736 H   0  0  0  0  0  0  0  0  0  0  0  0
   -0.9568    0.9369    3.9933 C   0  0  0  0  0  0  0  0  0  0  0  0
   -0.1600    1.6750    4.1097 H   0  0  0  0  0  0  0  0  0  0  0  0
   -1.8775    1.3307    4.4266 H   0  0  0  0  0  0  0  0  0  0  0  0
   -0.6678    0.0287    4.5244 H   0  0  0  0  0  0  0  0  0  0  0  0
  5  6  2  0  0  0  0
  5  7  1  0  0  0  0
  2  3  1  0  0  0  0
  2  4  1  0  0  0  0
  2  5  1  0  0  0  0
  1  2  1  0  0  0  0
 24 25  2  0  0  0  0
 24 26  1  0  0  0  0
 20 21  1  0  0  0  0
 20 22  1  0  0  0  0
 20 23  1  0  0  0  0
 16 17  1  0  0  0  0
 16 18  1  0  0  0  0
 16 19  1  0  0  0  0
 14 15  1  0  0  0  0
 14 16  1  0  0  0  0
 14 20  1  0  0  0  0
 11 12  1  0  0  0  0
 11 13  1  0  0  0  0
 11 14  1  0  0  0  0
  9 10  1  0  0  0  0
  9 11  1  0  0  0  0
  9 24  1  0  0  0  0
  7  8  1  0  0  0  0
  7  9  1  0  0  0  0
 28 29  1  0  0  0  0
 28 30  1  0  0  0  0
 28 31  1  0  0  0  0
 26 27  1  0  0  0  0
 26 28  1  0  0  0  0
M  END
$$$$
default_name
  -OEChem-02102213163D

 31 30  0     1  0  0  0  0  0999 V2000
   -3.5895   -3.5013    1.1082 H   0  0  0  0  0  0  0  0  0  0  0  0
   -3.5145   -2.5363    0.6082 C   0  0  0  0  0  0  0  0  0  0  0  0
   -4.2285   -1.8413    1.0452 H   0  0  0  0  0  0  0  0  0  0  0  0
   -3.7155   -2.6583   -0.4538 H   0  0  0  0  0  0  0  0  0  0  0  0
   -2.1155   -1.9963    0.7922 C   0  0  0  0  0  0  0  0  0  0  0  0
   -1.2875   -2.6383    1.4252 O   0  0  0  0  0  0  0  0  0  0  0  0
   -1.8575   -0.8123    0.2402 N   0  0  0  0  0  0  0  0  0  0  0  0
   -2.6005   -0.3333   -0.2478 H   0  0  0  0  0  0  0  0  0  0  0  0
   -0.5675   -0.1203    0.3102 C   0  0  1  0  0  0  0  0  0  0  0  0
    0.1932   -0.7715   -0.1219 H   0  0  0  0  0  0  0  0  0  0  0  0
   -0.6568    1.1713   -0.5294 C   0  0  0  0  0  0  0  0  0  0  0  0
   -1.6794    1.5501   -0.4786 H   0  0  0  0  0  0  0  0  0  0  0  0
   -0.0044    1.9176   -0.0707 H   0  0  0  0  0  0  0  0  0  0  0  0
   -0.2613    1.0353   -2.0113 C   0  0  0  0  0  0  0  0  0  0  0  0
    0.5637    1.7114   -2.2357 H   0  0  0  0  0  0  0  0  0  0  0  0
    0.1545   -0.3941   -2.3710 C   0  0  0  0  0  0  0  0  0  0  0  0
   -0.6559   -1.0857   -2.1368 H   0  0  0  0  0  0  0  0  0  0  0  0
    0.3778   -0.4543   -3.4365 H   0  0  0  0  0  0  0  0  0  0  0  0
    1.0431   -0.6869   -1.8161 H   0  0  0  0  0  0  0  0  0  0  0  0
   -1.4440    1.4210   -2.8988 C   0  0  0  0  0  0  0  0  0  0  0  0
   -1.7421    2.4478   -2.6867 H   0  0  0  0  0  0  0  0  0  0  0  0
   -1.1579    1.3521   -3.9483 H   0  0  0  0  0  0  0  0  0  0  0  0
   -2.2873    0.7554   -2.7112 H   0  0  0  0  0  0  0  0  0  0  0  0
   -0.1913    0.1554    1.7759 C   0  0  0  0  0  0  0  0  0  0  0  0
    0.9476   -0.0766    2.1748 O   0  0  0  0  0  0  0  0  0  0  0  0
   -1.1502    0.6393    2.5760 N   0  0  0  0  0  0  0  0  0  0  0  0
   -2.0581    0.8092    2.1736 H   0  0  0  0  0  0  0  0  0  0  0  0
   -0.9568    0.9369    3.9933 C   0  0  0  0  0  0  0  0  0  0  0  0
   -0.1600    1.6750    4.1097 H   0  0  0  0  0  0  0  0  0  0  0  0
   -1.8775    1.3307    4.4266 H   0  0  0  0  0  0  0  0  0  0  0  0
   -0.6678    0.0287    4.5244 H   0  0  0  0  0  0  0  0  0  0  0  0
  5  6  2  0  0  0  0
  5  7  1  0  0  0  0
  2  3  1  0  0  0  0
  2  4  1  0  0  0  0
  2  5  1  0  0  0  0
  1  2  1  0  0  0  0
 24 25  2  0  0  0  0
 24 26  1  0  0  0  0
 20 21  1  0  0  0  0
 20 22  1  0  0  0  0
 20 23  1  0  0  0  0
 16 17  1  0  0  0  0
 16 18  1  0  0  0  0
 16 19  1  0  0  0  0
 14 15  1  0  0  0  0
 14 16  1  0  0  0  0
 14 20  1  0  0  0  0
 11 12  1  0  0  0  0
 11 13  1  0  0  0  0
 11 14  1  0  0  0  0
  9 10  1  0  0  0  0
  9 11  1  0  0  0  0
  9 24  1  0  0  0  0
  7  8  1  0  0  0  0
  7  9  1  0  0  0  0
 28 29  1  0  0  0  0
 28 30  1  0  0  0  0
 28 31  1  0  0  0  0
 26 27  1  0  0  0  0
 26 28  1  0  0  0  0
M  END
$$$$
default_name
  -OEChem-02102213163D

 31 30  0     1  0  0  0  0  0999 V2000
   -3.5895   -3.5013    1.1082 H   0  0  0  0  0  0  0  0  0  0  0  0
   -3.5145   -2.5363    0.6082 C   0  0  0  0  0  0  0  0  0  0  0  0
   -4.2285   -1.8413    1.0452 H   0  0  0  0  0  0  0  0  0  0  0  0
   -3.7155   -2.6583   -0.4538 H   0  0  0  0  0  0  0  0  0  0  0  0
   -2.1155   -1.9963    0.7922 C   0  0  0  0  0  0  0  0  0  0  0  0
   -1.2875   -2.6383    1.4252 O   0  0  0  0  0  0  0  0  0  0  0  0
   -1.8575   -0.8123    0.2402 N   0  0  0  0  0  0  0  0  0  0  0  0
   -2.6005   -0.3333   -0.2478 H   0  0  0  0  0  0  0  0  0  0  0  0
   -0.5675   -0.1203    0.3102 C   0  0  1  0  0  0  0  0  0  0  0  0
    0.1932   -0.7715   -0.1219 H   0  0  0  0  0  0  0  0  0  0  0  0
   -0.6568    1.1713   -0.5294 C   0  0  0  0  0  0  0  0  0  0  0  0
   -1.6794    1.5501   -0.4786 H   0  0  0  0  0  0  0  0  0  0  0  0
   -0.0044    1.9176   -0.0707 H   0  0  0  0  0  0  0  0  0  0  0  0
   -0.2613    1.0353   -2.0113 C   0  0  0  0  0  0  0  0  0  0  0  0
    0.7124    1.4967   -2.1763 H   0  0  0  0  0  0  0  0  0  0  0  0
   -0.2024   -0.4268   -2.4633 C   0  0  0  0  0  0  0  0  0  0  0  0
   -1.1661   -0.9074   -2.2893 H   0  0  0  0  0  0  0  0  0  0  0  0
    0.0322   -0.4730   -3.5270 H   0  0  0  0  0  0  0  0  0  0  0  0
    0.5678   -0.9670   -1.9172 H   0  0  0  0  0  0  0  0  0  0  0  0
   -1.2828    1.7600   -2.8869 C   0  0  0  0  0  0  0  0  0  0  0  0
   -1.3230    2.8130   -2.6084 H   0  0  0  0  0  0  0  0  0  0  0  0
   -0.9901    1.6886   -3.9344 H   0  0  0  0  0  0  0  0  0  0  0  0
   -2.2704    1.3156   -2.7581 H   0  0  0  0  0  0  0  0  0  0  0  0
   -0.1913    0.1554    1.7759 C   0  0  0  0  0  0  0  0  0  0  0  0
    0.9476   -0.0766    2.1748 O   0  0  0  0  0  0  0  0  0  0  0  0
   -1.1502    0.6393    2.5760 N   0  0  0  0  0  0  0  0  0  0  0  0
   -2.0581    0.8092    2.1736 H   0  0  0  0  0  0  0  0  0  0  0  0
   -0.9568    0.9369    3.9933 C   0  0  0  0  0  0  0  0  0  0  0  0
   -0.1600    1.6750    4.1097 H   0  0  0  0  0  0  0  0  0  0  0  0
   -1.8775    1.3307    4.4266 H   0  0  0  0  0  0  0  0  0  0  0  0
   -0.6678    0.0287    4.5244 H   0  0  0  0  0  0  0  0  0  0  0  0
  5  6  2  0  0  0  0
  5  7  1  0  0  0  0
  2  3  1  0  0  0  0
  2  4  1  0  0  0  0
  2  5  1  0  0  0  0
  1  2  1  0  0  0  0
 24 25  2  0  0  0  0
 24 26  1  0  0  0  0
 20 21  1  0  0  0  0
 20 22  1  0  0  0  0
 20 23  1  0  0  0  0
 16 17  1  0  0  0  0
 16 18  1  0  0  0  0
 16 19  1  0  0  0  0
 14 15  1  0  0  0  0
 14 16  1  0  0  0  0
 14 20  1  0  0  0  0
 11 12  1  0  0  0  0
 11 13  1  0  0  0  0
 11 14  1  0  0  0  0
  9 10  1  0  0  0  0
  9 11  1  0  0  0  0
  9 24  1  0  0  0  0
  7  8  1  0  0  0  0
  7  9  1  0  0  0  0
 28 29  1  0  0  0  0
 28 30  1  0  0  0  0
 28 31  1  0  0  0  0
 26 27  1  0  0  0  0
 26 28  1  0  0  0  0
M  END
$$$$
default_name
  -OEChem-02102213163D

 31 30  0     1  0  0  0  0  0999 V2000
   -3.5895   -3.5013    1.1082 H   0  0  0  0  0  0  0  0  0  0  0  0
   -3.5145   -2.5363    0.6082 C   0  0  0  0  0  0  0  0  0  0  0  0
   -4.2285   -1.8413    1.0452 H   0  0  0  0  0  0  0  0  0  0  0  0
   -3.7155   -2.6583   -0.4538 H   0  0  0  0  0  0  0  0  0  0  0  0
   -2.1155   -1.9963    0.7922 C   0  0  0  0  0  0  0  0  0  0  0  0
   -1.2875   -2.6383    1.4252 O   0  0  0  0  0  0  0  0  0  0  0  0
   -1.8575   -0.8123    0.2402 N   0  0  0  0  0  0  0  0  0  0  0  0
   -2.6005   -0.3333   -0.2478 H   0  0  0  0  0  0  0  0  0  0  0  0
   -0.5675   -0.1203    0.3102 C   0  0  1  0  0  0  0  0  0  0  0  0
    0.1932   -0.7715   -0.1219 H   0  0  0  0  0  0  0  0  0  0  0  0
   -0.6568    1.1713   -0.5294 C   0  0  0  0  0  0  0  0  0  0  0  0
   -1.6794    1.5501   -0.4786 H   0  0  0  0  0  0  0  0  0  0  0  0
   -0.0044    1.9176   -0.0707 H   0  0  0  0  0  0  0  0  0  0  0  0
   -0.2613    1.0353   -2.0113 C   0  0  0  0  0  0  0  0  0  0  0  0
    0.8011    1.2484   -2.1298 H   0  0  0  0  0  0  0  0  0  0  0  0
   -0.5532   -0.3633   -2.5627 C   0  0  0  0  0  0  0  0  0  0  0  0
   -1.6110   -0.5980   -2.4365 H   0  0  0  0  0  0  0  0  0  0  0  0
   -0.3043   -0.3990   -3.6236 H   0  0  0  0  0  0  0  0  0  0  0  0
    0.0413   -1.1125   -2.0444 H   0  0  0  0  0  0  0  0  0  0  0  0
   -1.0429    2.0464   -2.8492 C   0  0  0  0  0  0  0  0  0  0  0  0
   -0.8291    3.0561   -2.4989 H   0  0  0  0  0  0  0  0  0  0  0  0
   -0.7445    1.9709   -3.8948 H   0  0  0  0  0  0  0  0  0  0  0  0
   -2.1134    1.8556   -2.7658 H   0  0  0  0  0  0  0  0  0  0  0  0
   -0.1913    0.1554    1.7759 C   0  0  0  0  0  0  0  0  0  0  0  0
    0.9476   -0.0766    2.1748 O   0  0  0  0  0  0  0  0  0  0  0  0
   -1.1502    0.6393    2.5760 N   0  0  0  0  0  0  0  0  0  0  0  0
   -2.0581    0.8092    2.1736 H   0  0  0  0  0  0  0  0  0  0  0  0
   -0.9568    0.9369    3.9933 C   0  0  0  0  0  0  0  0  0  0  0  0
   -0.1600    1.6750    4.1097 H   0  0  0  0  0  0  0  0  0  0  0  0
   -1.8775    1.3307    4.4266 H   0  0  0  0  0  0  0  0  0  0  0  0
   -0.6678    0.0287    4.5244 H   0  0  0  0  0  0  0  0  0  0  0  0
  5  6  2  0  0  0  0
  5  7  1  0  0  0  0
  2  3  1  0  0  0  0
  2  4  1  0  0  0  0
  2  5  1  0  0  0  0
  1  2  1  0  0  0  0
 24 25  2  0  0  0  0
 24 26  1  0  0  0  0
 20 21  1  0  0  0  0
 20 22  1  0  0  0  0
 20 23  1  0  0  0  0
 16 17  1  0  0  0  0
 16 18  1  0  0  0  0
 16 19  1  0  0  0  0
 14 15  1  0  0  0  0
 14 16  1  0  0  0  0
 14 20  1  0  0  0  0
 11 12  1  0  0  0  0
 11 13  1  0  0  0  0
 11 14  1  0  0  0  0
  9 10  1  0  0  0  0
  9 11  1  0  0  0  0
  9 24  1  0  0  0  0
  7  8  1  0  0  0  0
  7  9  1  0  0  0  0
 28 29  1  0  0  0  0
 28 30  1  0  0  0  0
 28 31  1  0  0  0  0
 26 27  1  0  0  0  0
 26 28  1  0  0  0  0
M  END
$$$$
default_name
  -OEChem-02102213163D

 31 30  0     1  0  0  0  0  0999 V2000
   -3.5895   -3.5013    1.1082 H   0  0  0  0  0  0  0  0  0  0  0  0
   -3.5145   -2.5363    0.6082 C   0  0  0  0  0  0  0  0  0  0  0  0
   -4.2285   -1.8413    1.0452 H   0  0  0  0  0  0  0  0  0  0  0  0
   -3.7155   -2.6583   -0.4538 H   0  0  0  0  0  0  0  0  0  0  0  0
   -2.1155   -1.9963    0.7922 C   0  0  0  0  0  0  0  0  0  0  0  0
   -1.2875   -2.6383    1.4252 O   0  0  0  0  0  0  0  0  0  0  0  0
   -1.8575   -0.8123    0.2402 N   0  0  0  0  0  0  0  0  0  0  0  0
   -2.6005   -0.3333   -0.2478 H   0  0  0  0  0  0  0  0  0  0  0  0
   -0.5675   -0.1203    0.3102 C   0  0  1  0  0  0  0  0  0  0  0  0
    0.1932   -0.7715   -0.1219 H   0  0  0  0  0  0  0  0  0  0  0  0
   -0.6568    1.1713   -0.5294 C   0  0  0  0  0  0  0  0  0  0  0  0
   -1.6794    1.5501   -0.4786 H   0  0  0  0  0  0  0  0  0  0  0  0
   -0.0044    1.9176   -0.0707 H   0  0  0  0  0  0  0  0  0  0  0  0
   -0.2613    1.0353   -2.0113 C   0  0  0  0  0  0  0  0  0  0  0  0
    0.8239    0.9832   -2.0994 H   0  0  0  0  0  0  0  0  0  0  0  0
   -0.8739   -0.2080   -2.6626 C   0  0  0  0  0  0  0  0  0  0  0  0
   -1.9603   -0.1785   -2.5682 H   0  0  0  0  0  0  0  0  0  0  0  0
   -0.6086   -0.2372   -3.7196 H   0  0  0  0  0  0  0  0  0  0  0  0
   -0.5006   -1.1134   -2.1889 H   0  0  0  0  0  0  0  0  0  0  0  0
   -0.7408    2.2608   -2.7882 C   0  0  0  0  0  0  0  0  0  0  0  0
   -0.2940    3.1607   -2.3657 H   0  0  0  0  0  0  0  0  0  0  0  0
   -0.4378    2.1798   -3.8321 H   0  0  0  0  0  0  0  0  0  0  0  0
   -1.8272    2.3386   -2.7337 H   0  0  0  0  0  0  0  0  0  0  0  0
   -0.1913    0.1554    1.7759 C   0  0  0  0  0  0  0  0  0  0  0  0
    0.9476   -0.0766    2.1748 O   0  0  0  0  0  0  0  0  0  0  0  0
   -1.1502    0.6393    2.5760 N   0  0  0  0  0  0  0  0  0  0  0  0
   -2.0581    0.8092    2.1736 H   0  0  0  0  0  0  0  0  0  0  0  0
   -0.9568    0.9369    3.9933 C   0  0  0  0  0  0  0  0  0  0  0  0
   -0.1600    1.6750    4.1097 H   0  0  0  0  0  0  0  0  0  0  0  0
   -1.8775    1.3307    4.4266 H   0  0  0  0  0  0  0  0  0  0  0  0
   -0.6678    0.0287    4.5244 H   0  0  0  0  0  0  0  0  0  0  0  0
  5  6  2  0  0  0  0
  5  7  1  0  0  0  0
  2  3  1  0  0  0  0
  2  4  1  0  0  0  0
  2  5  1  0  0  0  0
  1  2  1  0  0  0  0
 24 25  2  0  0  0  0
 24 26  1  0  0  0  0
 20 21  1  0  0  0  0
 20 22  1  0  0  0  0
 20 23  1  0  0  0  0
 16 17  1  0  0  0  0
 16 18  1  0  0  0  0
 16 19  1  0  0  0  0
 14 15  1  0  0  0  0
 14 16  1  0  0  0  0
 14 20  1  0  0  0  0
 11 12  1  0  0  0  0
 11 13  1  0  0  0  0
 11 14  1  0  0  0  0
  9 10  1  0  0  0  0
  9 11  1  0  0  0  0
  9 24  1  0  0  0  0
  7  8  1  0  0  0  0
  7  9  1  0  0  0  0
 28 29  1  0  0  0  0
 28 30  1  0  0  0  0
 28 31  1  0  0  0  0
 26 27  1  0  0  0  0
 26 28  1  0  0  0  0
M  END
$$$$
default_name
  -OEChem-02102213163D

 31 30  0     1  0  0  0  0  0999 V2000
   -3.5895   -3.5013    1.1082 H   0  0  0  0  0  0  0  0  0  0  0  0
   -3.5145   -2.5363    0.6082 C   0  0  0  0  0  0  0  0  0  0  0  0
   -4.2285   -1.8413    1.0452 H   0  0  0  0  0  0  0  0  0  0  0  0
   -3.7155   -2.6583   -0.4538 H   0  0  0  0  0  0  0  0  0  0  0  0
   -2.1155   -1.9963    0.7922 C   0  0  0  0  0  0  0  0  0  0  0  0
   -1.2875   -2.6383    1.4252 O   0  0  0  0  0  0  0  0  0  0  0  0
   -1.8575   -0.8123    0.2402 N   0  0  0  0  0  0  0  0  0  0  0  0
   -2.6005   -0.3333   -0.2478 H   0  0  0  0  0  0  0  0  0  0  0  0
   -0.5675   -0.1203    0.3102 C   0  0  1  0  0  0  0  0  0  0  0  0
    0.1932   -0.7715   -0.1219 H   0  0  0  0  0  0  0  0  0  0  0  0
   -0.6568    1.1713   -0.5294 C   0  0  0  0  0  0  0  0  0  0  0  0
   -1.6794    1.5501   -0.4786 H   0  0  0  0  0  0  0  0  0  0  0  0
   -0.0044    1.9176   -0.0707 H   0  0  0  0  0  0  0  0  0  0  0  0
   -0.2613    1.0353   -2.0113 C   0  0  0  0  0  0  0  0  0  0  0  0
    0.7792    0.7195   -2.0871 H   0  0  0  0  0  0  0  0  0  0  0  0
   -1.1428    0.0285   -2.7561 C   0  0  0  0  0  0  0  0  0  0  0  0
   -2.1902    0.3225   -2.6755 H   0  0  0  0  0  0  0  0  0  0  0  0
   -0.8601    0.0012   -3.8086 H   0  0  0  0  0  0  0  0  0  0  0  0
   -1.0209   -0.9696   -2.3410 H   0  0  0  0  0  0  0  0  0  0  0  0
   -0.3969    2.3885   -2.7082 C   0  0  0  0  0  0  0  0  0  0  0  0
    0.2459    3.1196   -2.2178 H   0  0  0  0  0  0  0  0  0  0  0  0
   -0.0910    2.3010   -3.7507 H   0  0  0  0  0  0  0  0  0  0  0  0
   -1.4311    2.7318   -2.6641 H   0  0  0  0  0  0  0  0  0  0  0  0
   -0.1913    0.1554    1.7759 C   0  0  0  0  0  0  0  0  0  0  0  0
    0.9476   -0.0766    2.1748 O   0  0  0  0  0  0  0  0  0  0  0  0
   -1.1502    0.6393    2.5760 N   0  0  0  0  0  0  0  0  0  0  0  0
   -2.0581    0.8092    2.1736 H   0  0  0  0  0  0  0  0  0  0  0  0
   -0.9568    0.9369    3.9933 C   0  0  0  0  0  0  0  0  0  0  0  0
   -0.1600    1.6750    4.1097 H   0  0  0  0  0  0  0  0  0  0  0  0
   -1.8775    1.3307    4.4266 H   0  0  0  0  0  0  0  0  0  0  0  0
   -0.6678    0.0287    4.5244 H   0  0  0  0  0  0  0  0  0  0  0  0
  5  6  2  0  0  0  0
  5  7  1  0  0  0  0
  2  3  1  0  0  0  0
  2  4  1  0  0  0  0
  2  5  1  0  0  0  0
  1  2  1  0  0  0  0
 24 25  2  0  0  0  0
 24 26  1  0  0  0  0
 20 21  1  0  0  0  0
 20 22  1  0  0  0  0
 20 23  1  0  0  0  0
 16 17  1  0  0  0  0
 16 18  1  0  0  0  0
 16 19  1  0  0  0  0
 14 15  1  0  0  0  0
 14 16  1  0  0  0  0
 14 20  1  0  0  0  0
 11 12  1  0  0  0  0
 11 13  1  0  0  0  0
 11 14  1  0  0  0  0
  9 10  1  0  0  0  0
  9 11  1  0  0  0  0
  9 24  1  0  0  0  0
  7  8  1  0  0  0  0
  7  9  1  0  0  0  0
 28 29  1  0  0  0  0
 28 30  1  0  0  0  0
 28 31  1  0  0  0  0
 26 27  1  0  0  0  0
 26 28  1  0  0  0  0
M  END
$$$$
default_name
  -OEChem-02102213163D

 31 30  0     1  0  0  0  0  0999 V2000
   -3.5895   -3.5013    1.1082 H   0  0  0  0  0  0  0  0  0  0  0  0
   -3.5145   -2.5363    0.6082 C   0  0  0  0  0  0  0  0  0  0  0  0
   -4.2285   -1.8413    1.0452 H   0  0  0  0  0  0  0  0  0  0  0  0
   -3.7155   -2.6583   -0.4538 H   0  0  0  0  0  0  0  0  0  0  0  0
   -2.1155   -1.9963    0.7922 C   0  0  0  0  0  0  0  0  0  0  0  0
   -1.2875   -2.6383    1.4252 O   0  0  0  0  0  0  0  0  0  0  0  0
   -1.8575   -0.8123    0.2402 N   0  0  0  0  0  0  0  0  0  0  0  0
   -2.6005   -0.3333   -0.2478 H   0  0  0  0  0  0  0  0  0  0  0  0
   -0.5675   -0.1203    0.3102 C   0  0  1  0  0  0  0  0  0  0  0  0
    0.1932   -0.7715   -0.1219 H   0  0  0  0  0  0  0  0  0  0  0  0
   -0.6568    1.1713   -0.5294 C   0  0  0  0  0  0  0  0  0  0  0  0
   -1.6794    1.5501   -0.4786 H   0  0  0  0  0  0  0  0  0  0  0  0
   -0.0044    1.9176   -0.0707 H   0  0  0  0  0  0  0  0  0  0  0  0
   -0.2613    1.0353   -2.0113 C   0  0  0  0  0  0  0  0  0  0  0  0
    0.6701    0.4750   -2.0938 H   0  0  0  0  0  0  0  0  0  0  0  0
   -1.3414    0.3302   -2.8368 C   0  0  0  0  0  0  0  0  0  0  0  0
   -2.2850    0.8708   -2.7512 H   0  0  0  0  0  0  0  0  0  0  0  0
   -1.0415    0.3001   -3.8845 H   0  0  0  0  0  0  0  0  0  0  0  0
   -1.4843   -0.6911   -2.4902 H   0  0  0  0  0  0  0  0  0  0  0  0
   -0.0347    2.4210   -2.6145 C   0  0  0  0  0  0  0  0  0  0  0  0
    0.7538    2.9355   -2.0653 H   0  0  0  0  0  0  0  0  0  0  0  0
    0.2723    2.3263   -3.6560 H   0  0  0  0  0  0  0  0  0  0  0  0
   -0.9522    3.0082   -2.5617 H   0  0  0  0  0  0  0  0  0  0  0  0
   -0.1913    0.1554    1.7759 C   0  0  0  0  0  0  0  0  0  0  0  0
    0.9476   -0.0766    2.1748 O   0  0  0  0  0  0  0  0  0  0  0  0
   -1.1502    0.6393    2.5760 N   0  0  0  0  0  0  0  0  0  0  0  0
   -2.0581    0.8092    2.1736 H   0  0  0  0  0  0  0  0  0  0  0  0
   -0.9568    0.9369    3.9933 C   0  0  0  0  0  0  0  0  0  0  0  0
   -0.1600    1.6750    4.1097 H   0  0  0  0  0  0  0  0  0  0  0  0
   -1.8775    1.3307    4.4266 H   0  0  0  0  0  0  0  0  0  0  0  0
   -0.6678    0.0287    4.5244 H   0  0  0  0  0  0  0  0  0  0  0  0
  5  6  2  0  0  0  0
  5  7  1  0  0  0  0
  2  3  1  0  0  0  0
  2  4  1  0  0  0  0
  2  5  1  0  0  0  0
  1  2  1  0  0  0  0
 24 25  2  0  0  0  0
 24 26  1  0  0  0  0
 20 21  1  0  0  0  0
 20 22  1  0  0  0  0
 20 23  1  0  0  0  0
 16 17  1  0  0  0  0
 16 18  1  0  0  0  0
 16 19  1  0  0  0  0
 14 15  1  0  0  0  0
 14 16  1  0  0  0  0
 14 20  1  0  0  0  0
 11 12  1  0  0  0  0
 11 13  1  0  0  0  0
 11 14  1  0  0  0  0
  9 10  1  0  0  0  0
  9 11  1  0  0  0  0
  9 24  1  0  0  0  0
  7  8  1  0  0  0  0
  7  9  1  0  0  0  0
 28 29  1  0  0  0  0
 28 30  1  0  0  0  0
 28 31  1  0  0  0  0
 26 27  1  0  0  0  0
 26 28  1  0  0  0  0
M  END
$$$$
default_name
  -OEChem-02102213163D

 31 30  0     1  0  0  0  0  0999 V2000
   -3.5895   -3.5013    1.1082 H   0  0  0  0  0  0  0  0  0  0  0  0
   -3.5145   -2.5363    0.6082 C   0  0  0  0  0  0  0  0  0  0  0  0
   -4.2285   -1.8413    1.0452 H   0  0  0  0  0  0  0  0  0  0  0  0
   -3.7155   -2.6583   -0.4538 H   0  0  0  0  0  0  0  0  0  0  0  0
   -2.1155   -1.9963    0.7922 C   0  0  0  0  0  0  0  0  0  0  0  0
   -1.2875   -2.6383    1.4252 O   0  0  0  0  0  0  0  0  0  0  0  0
   -1.8575   -0.8123    0.2402 N   0  0  0  0  0  0  0  0  0  0  0  0
   -2.6005   -0.3333   -0.2478 H   0  0  0  0  0  0  0  0  0  0  0  0
   -0.5675   -0.1203    0.3102 C   0  0  1  0  0  0  0  0  0  0  0  0
    0.1932   -0.7715   -0.1219 H   0  0  0  0  0  0  0  0  0  0  0  0
   -0.6568    1.1713   -0.5294 C   0  0  0  0  0  0  0  0  0  0  0  0
   -1.6794    1.5501   -0.4786 H   0  0  0  0  0  0  0  0  0  0  0  0
   -0.0044    1.9176   -0.0707 H   0  0  0  0  0  0  0  0  0  0  0  0
   -0.2613    1.0353   -2.0113 C   0  0  0  0  0  0  0  0  0  0  0  0
    0.5039    0.2664   -2.1190 H   0  0  0  0  0  0  0  0  0  0  0  0
   -1.4563    0.6764   -2.8992 C   0  0  0  0  0  0  0  0  0  0  0  0
   -2.2383    1.4291   -2.7900 H   0  0  0  0  0  0  0  0  0  0  0  0
   -1.1406    0.6390   -3.9421 H   0  0  0  0  0  0  0  0  0  0  0  0
   -1.8591   -0.2967   -2.6264 H   0  0  0  0  0  0  0  0  0  0  0  0
    0.3211    2.3559   -2.5135 C   0  0  0  0  0  0  0  0  0  0  0  0
    1.1950    2.6211   -1.9187 H   0  0  0  0  0  0  0  0  0  0  0  0
    0.6273    2.2539   -3.5546 H   0  0  0  0  0  0  0  0  0  0  0  0
   -0.4230    3.1491   -2.4334 H   0  0  0  0  0  0  0  0  0  0  0  0
   -0.1913    0.1554    1.7759 C   0  0  0  0  0  0  0  0  0  0  0  0
    0.9476   -0.0766    2.1748 O   0  0  0  0  0  0  0  0  0  0  0  0
   -1.1502    0.6393    2.5760 N   0  0  0  0  0  0  0  0  0  0  0  0
   -2.0581    0.8092    2.1736 H   0  0  0  0  0  0  0  0  0  0  0  0
   -0.9568    0.9369    3.9933 C   0  0  0  0  0  0  0  0  0  0  0  0
   -0.1600    1.6750    4.1097 H   0  0  0  0  0  0  0  0  0  0  0  0
   -1.8775    1.3307    4.4266 H   0  0  0  0  0  0  0  0  0  0  0  0
   -0.6678    0.0287    4.5244 H   0  0  0  0  0  0  0  0  0  0  0  0
  5  6  2  0  0  0  0
  5  7  1  0  0  0  0
  2  3  1  0  0  0  0
  2  4  1  0  0  0  0
  2  5  1  0  0  0  0
  1  2  1  0  0  0  0
 24 25  2  0  0  0  0
 24 26  1  0  0  0  0
 20 21  1  0  0  0  0
 20 22  1  0  0  0  0
 20 23  1  0  0  0  0
 16 17  1  0  0  0  0
 16 18  1  0  0  0  0
 16 19  1  0  0  0  0
 14 15  1  0  0  0  0
 14 16  1  0  0  0  0
 14 20  1  0  0  0  0
 11 12  1  0  0  0  0
 11 13  1  0  0  0  0
 11 14  1  0  0  0  0
  9 10  1  0  0  0  0
  9 11  1  0  0  0  0
  9 24  1  0  0  0  0
  7  8  1  0  0  0  0
  7  9  1  0  0  0  0
 28 29  1  0  0  0  0
 28 30  1  0  0  0  0
 28 31  1  0  0  0  0
 26 27  1  0  0  0  0
 26 28  1  0  0  0  0
M  END
$$$$
default_name
  -OEChem-02102213163D

 31 30  0     1  0  0  0  0  0999 V2000
   -3.5895   -3.5013    1.1082 H   0  0  0  0  0  0  0  0  0  0  0  0
   -3.5145   -2.5363    0.6082 C   0  0  0  0  0  0  0  0  0  0  0  0
   -4.2285   -1.8413    1.0452 H   0  0  0  0  0  0  0  0  0  0  0  0
   -3.7155   -2.6583   -0.4538 H   0  0  0  0  0  0  0  0  0  0  0  0
   -2.1155   -1.9963    0.7922 C   0  0  0  0  0  0  0  0  0  0  0  0
   -1.2875   -2.6383    1.4252 O   0  0  0  0  0  0  0  0  0  0  0  0
   -1.8575   -0.8123    0.2402 N   0  0  0  0  0  0  0  0  0  0  0  0
   -2.6005   -0.3333   -0.2478 H   0  0  0  0  0  0  0  0  0  0  0  0
   -0.5675   -0.1203    0.3102 C   0  0  1  0  0  0  0  0  0  0  0  0
    0.1932   -0.7715   -0.1219 H   0  0  0  0  0  0  0  0  0  0  0  0
   -0.6568    1.1713   -0.5294 C   0  0  0  0  0  0  0  0  0  0  0  0
   -1.6794    1.5501   -0.4786 H   0  0  0  0  0  0  0  0  0  0  0  0
   -0.0044    1.9176   -0.0707 H   0  0  0  0  0  0  0  0  0  0  0  0
   -0.2613    1.0353   -2.0113 C   0  0  0  0  0  0  0  0  0  0  0  0
    0.2920    0.1081   -2.1610 H   0  0  0  0  0  0  0  0  0  0  0  0
   -1.4796    1.0436   -2.9391 C   0  0  0  0  0  0  0  0  0  0  0  0
   -2.0532    1.9592   -2.7893 H   0  0  0  0  0  0  0  0  0  0  0  0
   -1.1506    0.9949   -3.9774 H   0  0  0  0  0  0  0  0  0  0  0  0
   -2.1197    0.1867   -2.7404 H   0  0  0  0  0  0  0  0  0  0  0  0
    0.6462    2.1977   -2.4122 C   0  0  0  0  0  0  0  0  0  0  0  0
    1.5396    2.1977   -1.7879 H   0  0  0  0  0  0  0  0  0  0  0  0
    0.9500    2.0888   -3.4534 H   0  0  0  0  0  0  0  0  0  0  0  0
    0.1202    3.1449   -2.2880 H   0  0  0  0  0  0  0  0  0  0  0  0
   -0.1913    0.1554    1.7759 C   0  0  0  0  0  0  0  0  0  0  0  0
    0.9476   -0.0766    2.1748 O   0  0  0  0  0  0  0  0  0  0  0  0
   -1.1502    0.6393    2.5760 N   0  0  0  0  0  0  0  0  0  0  0  0
   -2.0581    0.8092    2.1736 H   0  0  0  0  0  0  0  0  0  0  0  0
   -0.9568    0.9369    3.9933 C   0  0  0  0  0  0  0  0  0  0  0  0
   -0.1600    1.6750    4.1097 H   0  0  0  0  0  0  0  0  0  0  0  0
   -1.8775    1.3307    4.4266 H   0  0  0  0  0  0  0  0  0  0  0  0
   -0.6678    0.0287    4.5244 H   0  0  0  0  0  0  0  0  0  0  0  0
  5  6  2  0  0  0  0
  5  7  1  0  0  0  0
  2  3  1  0  0  0  0
  2  4  1  0  0  0  0
  2  5  1  0  0  0  0
  1  2  1  0  0  0  0
 24 25  2  0  0  0  0
 24 26  1  0  0  0  0
 20 21  1  0  0  0  0
 20 22  1  0  0  0  0
 20 23  1  0  0  0  0
 16 17  1  0  0  0  0
 16 18  1  0  0  0  0
 16 19  1  0  0  0  0
 14 15  1  0  0  0  0
 14 16  1  0  0  0  0
 14 20  1  0  0  0  0
 11 12  1  0  0  0  0
 11 13  1  0  0  0  0
 11 14  1  0  0  0  0
  9 10  1  0  0  0  0
  9 11  1  0  0  0  0
  9 24  1  0  0  0  0
  7  8  1  0  0  0  0
  7  9  1  0  0  0  0
 28 29  1  0  0  0  0
 28 30  1  0  0  0  0
 28 31  1  0  0  0  0
 26 27  1  0  0  0  0
 26 28  1  0  0  0  0
M  END
$$$$
default_name
  -OEChem-02102213163D

 31 30  0     1  0  0  0  0  0999 V2000
   -3.5895   -3.5013    1.1082 H   0  0  0  0  0  0  0  0  0  0  0  0
   -3.5145   -2.5363    0.6082 C   0  0  0  0  0  0  0  0  0  0  0  0
   -4.2285   -1.8413    1.0452 H   0  0  0  0  0  0  0  0  0  0  0  0
   -3.7155   -2.6583   -0.4538 H   0  0  0  0  0  0  0  0  0  0  0  0
   -2.1155   -1.9963    0.7922 C   0  0  0  0  0  0  0  0  0  0  0  0
   -1.2875   -2.6383    1.4252 O   0  0  0  0  0  0  0  0  0  0  0  0
   -1.8575   -0.8123    0.2402 N   0  0  0  0  0  0  0  0  0  0  0  0
   -2.6005   -0.3333   -0.2478 H   0  0  0  0  0  0  0  0  0  0  0  0
   -0.5675   -0.1203    0.3102 C   0  0  1  0  0  0  0  0  0  0  0  0
    0.1932   -0.7715   -0.1219 H   0  0  0  0  0  0  0  0  0  0  0  0
   -0.6568    1.1713   -0.5294 C   0  0  0  0  0  0  0  0  0  0  0  0
   -1.6794    1.5501   -0.4786 H   0  0  0  0  0  0  0  0  0  0  0  0
   -0.0044    1.9176   -0.0707 H   0  0  0  0  0  0  0  0  0  0  0  0
   -0.2613    1.0353   -2.0113 C   0  0  0  0  0  0  0  0  0  0  0  0
    0.0489    0.0107   -2.2170 H   0  0  0  0  0  0  0  0  0  0  0  0
   -1.4097    1.4067   -2.9538 C   0  0  0  0  0  0  0  0  0  0  0  0
   -1.7424    2.4252   -2.7491 H   0  0  0  0  0  0  0  0  0  0  0  0
   -1.0708    1.3435   -3.9881 H   0  0  0  0  0  0  0  0  0  0  0  0
   -2.2484    0.7261   -2.8243 H   0  0  0  0  0  0  0  0  0  0  0  0
    0.9185    1.9571   -2.3175 C   0  0  0  0  0  0  0  0  0  0  0  0
    1.7639    1.6942   -1.6818 H   0  0  0  0  0  0  0  0  0  0  0  0
    1.2181    1.8422   -3.3592 H   0  0  0  0  0  0  0  0  0  0  0  0
    0.6406    2.9959   -2.1354 H   0  0  0  0  0  0  0  0  0  0  0  0
   -0.1913    0.1554    1.7759 C   0  0  0  0  0  0  0  0  0  0  0  0
    0.9476   -0.0766    2.1748 O   0  0  0  0  0  0  0  0  0  0  0  0
   -1.1502    0.6393    2.5760 N   0  0  0  0  0  0  0  0  0  0  0  0
   -2.0581    0.8092    2.1736 H   0  0  0  0  0  0  0  0  0  0  0  0
   -0.9568    0.9369    3.9933 C   0  0  0  0  0  0  0  0  0  0  0  0
   -0.1600    1.6750    4.1097 H   0  0  0  0  0  0  0  0  0  0  0  0
   -1.8775    1.3307    4.4266 H   0  0  0  0  0  0  0  0  0  0  0  0
   -0.6678    0.0287    4.5244 H   0  0  0  0  0  0  0  0  0  0  0  0
  5  6  2  0  0  0  0
  5  7  1  0  0  0  0
  2  3  1  0  0  0  0
  2  4  1  0  0  0  0
  2  5  1  0  0  0  0
  1  2  1  0  0  0  0
 24 25  2  0  0  0  0
 24 26  1  0  0  0  0
 20 21  1  0  0  0  0
 20 22  1  0  0  0  0
 20 23  1  0  0  0  0
 16 17  1  0  0  0  0
 16 18  1  0  0  0  0
 16 19  1  0  0  0  0
 14 15  1  0  0  0  0
 14 16  1  0  0  0  0
 14 20  1  0  0  0  0
 11 12  1  0  0  0  0
 11 13  1  0  0  0  0
 11 14  1  0  0  0  0
  9 10  1  0  0  0  0
  9 11  1  0  0  0  0
  9 24  1  0  0  0  0
  7  8  1  0  0  0  0
  7  9  1  0  0  0  0
 28 29  1  0  0  0  0
 28 30  1  0  0  0  0
 28 31  1  0  0  0  0
 26 27  1  0  0  0  0
 26 28  1  0  0  0  0
M  END
$$$$
default_name
  -OEChem-02102213163D

 31 30  0     1  0  0  0  0  0999 V2000
   -3.5895   -3.5013    1.1082 H   0  0  0  0  0  0  0  0  0  0  0  0
   -3.5145   -2.5363    0.6082 C   0  0  0  0  0  0  0  0  0  0  0  0
   -4.2285   -1.8413    1.0452 H   0  0  0  0  0  0  0  0  0  0  0  0
   -3.7155   -2.6583   -0.4538 H   0  0  0  0  0  0  0  0  0  0  0  0
   -2.1155   -1.9963    0.7922 C   0  0  0  0  0  0  0  0  0  0  0  0
   -1.2875   -2.6383    1.4252 O   0  0  0  0  0  0  0  0  0  0  0  0
   -1.8575   -0.8123    0.2402 N   0  0  0  0  0  0  0  0  0  0  0  0
   -2.6005   -0.3333   -0.2478 H   0  0  0  0  0  0  0  0  0  0  0  0
   -0.5675   -0.1203    0.3102 C   0  0  1  0  0  0  0  0  0  0  0  0
    0.1932   -0.7715   -0.1219 H   0  0  0  0  0  0  0  0  0  0  0  0
   -0.6568    1.1713   -0.5294 C   0  0  0  0  0  0  0  0  0  0  0  0
   -1.6794    1.5501   -0.4786 H   0  0  0  0  0  0  0  0  0  0  0  0
   -0.0044    1.9176   -0.0707 H   0  0  0  0  0  0  0  0  0  0  0  0
   -0.2613    1.0353   -2.0113 C   0  0  0  0  0  0  0  0  0  0  0  0
   -0.2090   -0.0190   -2.2830 H   0  0  0  0  0  0  0  0  0  0  0  0
   -1.2514    1.7410   -2.9423 C   0  0  0  0  0  0  0  0  0  0  0  0
   -1.3270    2.7952   -2.6722 H   0  0  0  0  0  0  0  0  0  0  0  0
   -0.9067    1.6610   -3.9735 H   0  0  0  0  0  0  0  0  0  0  0  0
   -2.2365    1.2848   -2.8724 H   0  0  0  0  0  0  0  0  0  0  0  0
    1.1194    1.6507   -2.2357 C   0  0  0  0  0  0  0  0  0  0  0  0
    1.8528    1.1450   -1.6076 H   0  0  0  0  0  0  0  0  0  0  0  0
    1.4136    1.5310   -3.2784 H   0  0  0  0  0  0  0  0  0  0  0  0
    1.1027    2.7122   -1.9861 H   0  0  0  0  0  0  0  0  0  0  0  0
   -0.1913    0.1554    1.7759 C   0  0  0  0  0  0  0  0  0  0  0  0
    0.9476   -0.0766    2.1748 O   0  0  0  0  0  0  0  0  0  0  0  0
   -1.1502    0.6393    2.5760 N   0  0  0  0  0  0  0  0  0  0  0  0
   -2.0581    0.8092    2.1736 H   0  0  0  0  0  0  0  0  0  0  0  0
   -0.9568    0.9369    3.9933 C   0  0  0  0  0  0  0  0  0  0  0  0
   -0.1600    1.6750    4.1097 H   0  0  0  0  0  0  0  0  0  0  0  0
   -1.8775    1.3307    4.4266 H   0  0  0  0  0  0  0  0  0  0  0  0
   -0.6678    0.0287    4.5244 H   0  0  0  0  0  0  0  0  0  0  0  0
  5  6  2  0  0  0  0
  5  7  1  0  0  0  0
  2  3  1  0  0  0  0
  2  4  1  0  0  0  0
  2  5  1  0  0  0  0
  1  2  1  0  0  0  0
 24 25  2  0  0  0  0
 24 26  1  0  0  0  0
 20 21  1  0  0  0  0
 20 22  1  0  0  0  0
 20 23  1  0  0  0  0
 16 17  1  0  0  0  0
 16 18  1  0  0  0  0
 16 19  1  0  0  0  0
 14 15  1  0  0  0  0
 14 16  1  0  0  0  0
 14 20  1  0  0  0  0
 11 12  1  0  0  0  0
 11 13  1  0  0  0  0
 11 14  1  0  0  0  0
  9 10  1  0  0  0  0
  9 11  1  0  0  0  0
  9 24  1  0  0  0  0
  7  8  1  0  0  0  0
  7  9  1  0  0  0  0
 28 29  1  0  0  0  0
 28 30  1  0  0  0  0
 28 31  1  0  0  0  0
 26 27  1  0  0  0  0
 26 28  1  0  0  0  0
M  END
$$$$
default_name
  -OEChem-02102213163D

 31 30  0     1  0  0  0  0  0999 V2000
   -3.5895   -3.5013    1.1082 H   0  0  0  0  0  0  0  0  0  0  0  0
   -3.5145   -2.5363    0.6082 C   0  0  0  0  0  0  0  0  0  0  0  0
   -4.2285   -1.8413    1.0452 H   0  0  0  0  0  0  0  0  0  0  0  0
   -3.7155   -2.6583   -0.4538 H   0  0  0  0  0  0  0  0  0  0  0  0
   -2.1155   -1.9963    0.7922 C   0  0  0  0  0  0  0  0  0  0  0  0
   -1.2875   -2.6383    1.4252 O   0  0  0  0  0  0  0  0  0  0  0  0
   -1.8575   -0.8123    0.2402 N   0  0  0  0  0  0  0  0  0  0  0  0
   -2.6005   -0.3333   -0.2478 H   0  0  0  0  0  0  0  0  0  0  0  0
   -0.5675   -0.1203    0.3102 C   0  0  1  0  0  0  0  0  0  0  0  0
    0.1932   -0.7715   -0.1219 H   0  0  0  0  0  0  0  0  0  0  0  0
   -0.6568    1.1713   -0.5294 C   0  0  0  0  0  0  0  0  0  0  0  0
   -1.6794    1.5501   -0.4786 H   0  0  0  0  0  0  0  0  0  0  0  0
   -0.0044    1.9176   -0.0707 H   0  0  0  0  0  0  0  0  0  0  0  0
   -0.2613    1.0353   -2.0113 C   0  0  0  0  0  0  0  0  0  0  0  0
   -0.4639    0.0208   -2.3547 H   0  0  0  0  0  0  0  0  0  0  0  0
   -1.0155    2.0237   -2.9053 C   0  0  0  0  0  0  0  0  0  0  0  0
   -0.8354    3.0440   -2.5638 H   0  0  0  0  0  0  0  0  0  0  0  0
   -0.6693    1.9259   -3.9345 H   0  0  0  0  0  0  0  0  0  0  0  0
   -2.0847    1.8246   -2.8814 H   0  0  0  0  0  0  0  0  0  0  0  0
    1.2353    1.2992   -2.1725 C   0  0  0  0  0  0  0  0  0  0  0  0
    1.8001    0.5874   -1.5705 H   0  0  0  0  0  0  0  0  0  0  0  0
    1.5231    1.1763   -3.2166 H   0  0  0  0  0  0  0  0  0  0  0  0
    1.4749    2.3131   -1.8501 H   0  0  0  0  0  0  0  0  0  0  0  0
   -0.1913    0.1554    1.7759 C   0  0  0  0  0  0  0  0  0  0  0  0
    0.9476   -0.0766    2.1748 O   0  0  0  0  0  0  0  0  0  0  0  0
   -1.1502    0.6393    2.5760 N   0  0  0  0  0  0  0  0  0  0  0  0
   -2.0581    0.8092    2.1736 H   0  0  0  0  0  0  0  0  0  0  0  0
   -0.9568    0.9369    3.9933 C   0  0  0  0  0  0  0  0  0  0  0  0
   -0.1600    1.6750    4.1097 H   0  0  0  0  0  0  0  0  0  0  0  0
   -1.8775    1.3307    4.4266 H   0  0  0  0  0  0  0  0  0  0  0  0
   -0.6678    0.0287    4.5244 H   0  0  0  0  0  0  0  0  0  0  0  0
  5  6  2  0  0  0  0
  5  7  1  0  0  0  0
  2  3  1  0  0  0  0
  2  4  1  0  0  0  0
  2  5  1  0  0  0  0
  1  2  1  0  0  0  0
 24 25  2  0  0  0  0
 24 26  1  0  0  0  0
 20 21  1  0  0  0  0
 20 22  1  0  0  0  0
 20 23  1  0  0  0  0
 16 17  1  0  0  0  0
 16 18  1  0  0  0  0
 16 19  1  0  0  0  0
 14 15  1  0  0  0  0
 14 16  1  0  0  0  0
 14 20  1  0  0  0  0
 11 12  1  0  0  0  0
 11 13  1  0  0  0  0
 11 14  1  0  0  0  0
  9 10  1  0  0  0  0
  9 11  1  0  0  0  0
  9 24  1  0  0  0  0
  7  8  1  0  0  0  0
  7  9  1  0  0  0  0
 28 29  1  0  0  0  0
 28 30  1  0  0  0  0
 28 31  1  0  0  0  0
 26 27  1  0  0  0  0
 26 28  1  0  0  0  0
M  END
$$$$
default_name
  -OEChem-02102213163D

 31 30  0     1  0  0  0  0  0999 V2000
   -3.5895   -3.5013    1.1082 H   0  0  0  0  0  0  0  0  0  0  0  0
   -3.5145   -2.5363    0.6082 C   0  0  0  0  0  0  0  0  0  0  0  0
   -4.2285   -1.8413    1.0452 H   0  0  0  0  0  0  0  0  0  0  0  0
   -3.7155   -2.6583   -0.4538 H   0  0  0  0  0  0  0  0  0  0  0  0
   -2.1155   -1.9963    0.7922 C   0  0  0  0  0  0  0  0  0  0  0  0
   -1.2875   -2.6383    1.4252 O   0  0  0  0  0  0  0  0  0  0  0  0
   -1.8575   -0.8123    0.2402 N   0  0  0  0  0  0  0  0  0  0  0  0
   -2.6005   -0.3333   -0.2478 H   0  0  0  0  0  0  0  0  0  0  0  0
   -0.5675   -0.1203    0.3102 C   0  0  1  0  0  0  0  0  0  0  0  0
    0.1932   -0.7715   -0.1219 H   0  0  0  0  0  0  0  0  0  0  0  0
   -0.6568    1.1713   -0.5294 C   0  0  0  0  0  0  0  0  0  0  0  0
   -1.6794    1.5501   -0.4786 H   0  0  0  0  0  0  0  0  0  0  0  0
   -0.0044    1.9176   -0.0707 H   0  0  0  0  0  0  0  0  0  0  0  0
   -0.2613    1.0353   -2.0113 C   0  0  0  0  0  0  0  0  0  0  0  0
   -0.6986    0.1276   -2.4272 H   0  0  0  0  0  0  0  0  0  0  0  0
   -0.7181    2.2356   -2.8453 C   0  0  0  0  0  0  0  0  0  0  0  0
   -0.3010    3.1547   -2.4314 H   0  0  0  0  0  0  0  0  0  0  0  0
   -0.3750    2.1200   -3.8737 H   0  0  0  0  0  0  0  0  0  0  0  0
   -1.8035    2.3089   -2.8508 H   0  0  0  0  0  0  0  0  0  0  0  0
    1.2583    0.9265   -2.1322 C   0  0  0  0  0  0  0  0  0  0  0  0
    1.6095    0.0595   -1.5729 H   0  0  0  0  0  0  0  0  0  0  0  0
    1.5390    0.8024   -3.1781 H   0  0  0  0  0  0  0  0  0  0  0  0
    1.7319    1.8258   -1.7368 H   0  0  0  0  0  0  0  0  0  0  0  0
   -0.1913    0.1554    1.7759 C   0  0  0  0  0  0  0  0  0  0  0  0
    0.9476   -0.0766    2.1748 O   0  0  0  0  0  0  0  0  0  0  0  0
   -1.1502    0.6393    2.5760 N   0  0  0  0  0  0  0  0  0  0  0  0
   -2.0581    0.8092    2.1736 H   0  0  0  0  0  0  0  0  0  0  0  0
   -0.9568    0.9369    3.9933 C   0  0  0  0  0  0  0  0  0  0  0  0
   -0.1600    1.6750    4.1097 H   0  0  0  0  0  0  0  0  0  0  0  0
   -1.8775    1.3307    4.4266 H   0  0  0  0  0  0  0  0  0  0  0  0
   -0.6678    0.0287    4.5244 H   0  0  0  0  0  0  0  0  0  0  0  0
  5  6  2  0  0  0  0
  5  7  1  0  0  0  0
  2  3  1  0  0  0  0
  2  4  1  0  0  0  0
  2  5  1  0  0  0  0
  1  2  1  0  0  0  0
 24 25  2  0  0  0  0
 24 26  1  0  0  0  0
 20 21  1  0  0  0  0
 20 22  1  0  0  0  0
 20 23  1  0  0  0  0
 16 17  1  0  0  0  0
 16 18  1  0  0  0  0
 16 19  1  0  0  0  0
 14 15  1  0  0  0  0
 14 16  1  0  0  0  0
 14 20  1  0  0  0  0
 11 12  1  0  0  0  0
 11 13  1  0  0  0  0
 11 14  1  0  0  0  0
  9 10  1  0  0  0  0
  9 11  1  0  0  0  0
  9 24  1  0  0  0  0
  7  8  1  0  0  0  0
  7  9  1  0  0  0  0
 28 29  1  0  0  0  0
 28 30  1  0  0  0  0
 28 31  1  0  0  0  0
 26 27  1  0  0  0  0
 26 28  1  0  0  0  0
M  END
$$$$
default_name
  -OEChem-02102213163D

 31 30  0     1  0  0  0  0  0999 V2000
   -3.5895   -3.5013    1.1082 H   0  0  0  0  0  0  0  0  0  0  0  0
   -3.5145   -2.5363    0.6082 C   0  0  0  0  0  0  0  0  0  0  0  0
   -4.2285   -1.8413    1.0452 H   0  0  0  0  0  0  0  0  0  0  0  0
   -3.7155   -2.6583   -0.4538 H   0  0  0  0  0  0  0  0  0  0  0  0
   -2.1155   -1.9963    0.7922 C   0  0  0  0  0  0  0  0  0  0  0  0
   -1.2875   -2.6383    1.4252 O   0  0  0  0  0  0  0  0  0  0  0  0
   -1.8575   -0.8123    0.2402 N   0  0  0  0  0  0  0  0  0  0  0  0
   -2.6005   -0.3333   -0.2478 H   0  0  0  0  0  0  0  0  0  0  0  0
   -0.5675   -0.1203    0.3102 C   0  0  1  0  0  0  0  0  0  0  0  0
    0.1932   -0.7715   -0.1219 H   0  0  0  0  0  0  0  0  0  0  0  0
   -0.6568    1.1713   -0.5294 C   0  0  0  0  0  0  0  0  0  0  0  0
   -1.5809    1.6919   -0.2709 H   0  0  0  0  0  0  0  0  0  0  0  0
    0.1772    1.8168   -0.2450 H   0  0  0  0  0  0  0  0  0  0  0  0
   -0.6162    0.9811   -2.0568 C   0  0  0  0  0  0  0  0  0  0  0  0
   -1.4390    0.3383   -2.3697 H   0  0  0  0  0  0  0  0  0  0  0  0
   -0.7101    2.3118   -2.8090 C   0  0  0  0  0  0  0  0  0  0  0  0
    0.0984    2.9730   -2.4944 H   0  0  0  0  0  0  0  0  0  0  0  0
   -0.6282    2.1338   -3.8815 H   0  0  0  0  0  0  0  0  0  0  0  0
   -1.6634    2.7977   -2.6126 H   0  0  0  0  0  0  0  0  0  0  0  0
    0.6930    0.3027   -2.4581 C   0  0  0  0  0  0  0  0  0  0  0  0
    0.7724   -0.6641   -1.9611 H   0  0  0  0  0  0  0  0  0  0  0  0
    0.7121    0.1419   -3.5360 H   0  0  0  0  0  0  0  0  0  0  0  0
    1.5417    0.9251   -2.1720 H   0  0  0  0  0  0  0  0  0  0  0  0
   -0.1913    0.1554    1.7759 C   0  0  0  0  0  0  0  0  0  0  0  0
    0.9476   -0.0766    2.1748 O   0  0  0  0  0  0  0  0  0  0  0  0
   -1.1502    0.6393    2.5760 N   0  0  0  0  0  0  0  0  0  0  0  0
   -2.0581    0.8092    2.1736 H   0  0  0  0  0  0  0  0  0  0  0  0
   -0.9568    0.9369    3.9933 C   0  0  0  0  0  0  0  0  0  0  0  0
   -0.1600    1.6750    4.1097 H   0  0  0  0  0  0  0  0  0  0  0  0
   -1.8775    1.3307    4.4266 H   0  0  0  0  0  0  0  0  0  0  0  0
   -0.6678    0.0287    4.5244 H   0  0  0  0  0  0  0  0  0  0  0  0
  5  6  2  0  0  0  0
  5  7  1  0  0  0  0
  2  3  1  0  0  0  0
  2  4  1  0  0  0  0
  2  5  1  0  0  0  0
  1  2  1  0  0  0  0
 24 25  2  0  0  0  0
 24 26  1  0  0  0  0
 20 21  1  0  0  0  0
 20 22  1  0  0  0  0
 20 23  1  0  0  0  0
 16 17  1  0  0  0  0
 16 18  1  0  0  0  0
 16 19  1  0  0  0  0
 14 15  1  0  0  0  0
 14 16  1  0  0  0  0
 14 20  1  0  0  0  0
 11 12  1  0  0  0  0
 11 13  1  0  0  0  0
 11 14  1  0  0  0  0
  9 10  1  0  0  0  0
  9 11  1  0  0  0  0
  9 24  1  0  0  0  0
  7  8  1  0  0  0  0
  7  9  1  0  0  0  0
 28 29  1  0  0  0  0
 28 30  1  0  0  0  0
 28 31  1  0  0  0  0
 26 27  1  0  0  0  0
 26 28  1  0  0  0  0
M  END
$$$$
default_name
  -OEChem-02102213163D

 31 30  0     1  0  0  0  0  0999 V2000
   -3.5895   -3.5013    1.1082 H   0  0  0  0  0  0  0  0  0  0  0  0
   -3.5145   -2.5363    0.6082 C   0  0  0  0  0  0  0  0  0  0  0  0
   -4.2285   -1.8413    1.0452 H   0  0  0  0  0  0  0  0  0  0  0  0
   -3.7155   -2.6583   -0.4538 H   0  0  0  0  0  0  0  0  0  0  0  0
   -2.1155   -1.9963    0.7922 C   0  0  0  0  0  0  0  0  0  0  0  0
   -1.2875   -2.6383    1.4252 O   0  0  0  0  0  0  0  0  0  0  0  0
   -1.8575   -0.8123    0.2402 N   0  0  0  0  0  0  0  0  0  0  0  0
   -2.6005   -0.3333   -0.2478 H   0  0  0  0  0  0  0  0  0  0  0  0
   -0.5675   -0.1203    0.3102 C   0  0  1  0  0  0  0  0  0  0  0  0
    0.1932   -0.7715   -0.1219 H   0  0  0  0  0  0  0  0  0  0  0  0
   -0.6568    1.1713   -0.5294 C   0  0  0  0  0  0  0  0  0  0  0  0
   -1.5809    1.6919   -0.2709 H   0  0  0  0  0  0  0  0  0  0  0  0
    0.1772    1.8168   -0.2450 H   0  0  0  0  0  0  0  0  0  0  0  0
   -0.6162    0.9811   -2.0568 C   0  0  0  0  0  0  0  0  0  0  0  0
   -1.5657    0.5720   -2.4022 H   0  0  0  0  0  0  0  0  0  0  0  0
   -0.3407    2.2932   -2.7969 C   0  0  0  0  0  0  0  0  0  0  0  0
    0.5997    2.7238   -2.4501 H   0  0  0  0  0  0  0  0  0  0  0  0
   -0.2720    2.1030   -3.8682 H   0  0  0  0  0  0  0  0  0  0  0  0
   -1.1433    3.0072   -2.6249 H   0  0  0  0  0  0  0  0  0  0  0  0
    0.4875   -0.0098   -2.4246 C   0  0  0  0  0  0  0  0  0  0  0  0
    0.2997   -0.9659   -1.9361 H   0  0  0  0  0  0  0  0  0  0  0  0
    0.5001   -0.1672   -3.5031 H   0  0  0  0  0  0  0  0  0  0  0  0
    1.4576    0.3730   -2.1055 H   0  0  0  0  0  0  0  0  0  0  0  0
   -0.1913    0.1554    1.7759 C   0  0  0  0  0  0  0  0  0  0  0  0
    0.9476   -0.0766    2.1748 O   0  0  0  0  0  0  0  0  0  0  0  0
   -1.1502    0.6393    2.5760 N   0  0  0  0  0  0  0  0  0  0  0  0
   -2.0581    0.8092    2.1736 H   0  0  0  0  0  0  0  0  0  0  0  0
   -0.9568    0.9369    3.9933 C   0  0  0  0  0  0  0  0  0  0  0  0
   -0.1600    1.6750    4.1097 H   0  0  0  0  0  0  0  0  0  0  0  0
   -1.8775    1.3307    4.4266 H   0  0  0  0  0  0  0  0  0  0  0  0
   -0.6678    0.0287    4.5244 H   0  0  0  0  0  0  0  0  0  0  0  0
  5  6  2  0  0  0  0
  5  7  1  0  0  0  0
  2  3  1  0  0  0  0
  2  4  1  0  0  0  0
  2  5  1  0  0  0  0
  1  2  1  0  0  0  0
 24 25  2  0  0  0  0
 24 26  1  0  0  0  0
 20 21  1  0  0  0  0
 20 22  1  0  0  0  0
 20 23  1  0  0  0  0
 16 17  1  0  0  0  0
 16 18  1  0  0  0  0
 16 19  1  0  0  0  0
 14 15  1  0  0  0  0
 14 16  1  0  0  0  0
 14 20  1  0  0  0  0
 11 12  1  0  0  0  0
 11 13  1  0  0  0  0
 11 14  1  0  0  0  0
  9 10  1  0  0  0  0
  9 11  1  0  0  0  0
  9 24  1  0  0  0  0
  7  8  1  0  0  0  0
  7  9  1  0  0  0  0
 28 29  1  0  0  0  0
 28 30  1  0  0  0  0
 28 31  1  0  0  0  0
 26 27  1  0  0  0  0
 26 28  1  0  0  0  0
M  END
$$$$
default_name
  -OEChem-02102213163D

 31 30  0     1  0  0  0  0  0999 V2000
   -3.5895   -3.5013    1.1082 H   0  0  0  0  0  0  0  0  0  0  0  0
   -3.5145   -2.5363    0.6082 C   0  0  0  0  0  0  0  0  0  0  0  0
   -4.2285   -1.8413    1.0452 H   0  0  0  0  0  0  0  0  0  0  0  0
   -3.7155   -2.6583   -0.4538 H   0  0  0  0  0  0  0  0  0  0  0  0
   -2.1155   -1.9963    0.7922 C   0  0  0  0  0  0  0  0  0  0  0  0
   -1.2875   -2.6383    1.4252 O   0  0  0  0  0  0  0  0  0  0  0  0
   -1.8575   -0.8123    0.2402 N   0  0  0  0  0  0  0  0  0  0  0  0
   -2.6005   -0.3333   -0.2478 H   0  0  0  0  0  0  0  0  0  0  0  0
   -0.5675   -0.1203    0.3102 C   0  0  1  0  0  0  0  0  0  0  0  0
    0.1932   -0.7715   -0.1219 H   0  0  0  0  0  0  0  0  0  0  0  0
   -0.6568    1.1713   -0.5294 C   0  0  0  0  0  0  0  0  0  0  0  0
   -1.5809    1.6919   -0.2709 H   0  0  0  0  0  0  0  0  0  0  0  0
    0.1772    1.8168   -0.2450 H   0  0  0  0  0  0  0  0  0  0  0  0
   -0.6162    0.9811   -2.0568 C   0  0  0  0  0  0  0  0  0  0  0  0
   -1.6270    0.8305   -2.4360 H   0  0  0  0  0  0  0  0  0  0  0  0
    0.0110    2.1804   -2.7735 C   0  0  0  0  0  0  0  0  0  0  0  0
    1.0184    2.3540   -2.3929 H   0  0  0  0  0  0  0  0  0  0  0  0
    0.0637    1.9818   -3.8442 H   0  0  0  0  0  0  0  0  0  0  0  0
   -0.5867    3.0761   -2.6187 H   0  0  0  0  0  0  0  0  0  0  0  0
    0.2078   -0.2591   -2.4010 C   0  0  0  0  0  0  0  0  0  0  0  0
   -0.2351   -1.1361   -1.9291 H   0  0  0  0  0  0  0  0  0  0  0  0
    0.2149   -0.4116   -3.4802 H   0  0  0  0  0  0  0  0  0  0  0  0
    1.2325   -0.1391   -2.0476 H   0  0  0  0  0  0  0  0  0  0  0  0
   -0.1913    0.1554    1.7759 C   0  0  0  0  0  0  0  0  0  0  0  0
    0.9476   -0.0766    2.1748 O   0  0  0  0  0  0  0  0  0  0  0  0
   -1.1502    0.6393    2.5760 N   0  0  0  0  0  0  0  0  0  0  0  0
   -2.0581    0.8092    2.1736 H   0  0  0  0  0  0  0  0  0  0  0  0
   -0.9568    0.9369    3.9933 C   0  0  0  0  0  0  0  0  0  0  0  0
   -0.1600    1.6750    4.1097 H   0  0  0  0  0  0  0  0  0  0  0  0
   -1.8775    1.3307    4.4266 H   0  0  0  0  0  0  0  0  0  0  0  0
   -0.6678    0.0287    4.5244 H   0  0  0  0  0  0  0  0  0  0  0  0
  5  6  2  0  0  0  0
  5  7  1  0  0  0  0
  2  3  1  0  0  0  0
  2  4  1  0  0  0  0
  2  5  1  0  0  0  0
  1  2  1  0  0  0  0
 24 25  2  0  0  0  0
 24 26  1  0  0  0  0
 20 21  1  0  0  0  0
 20 22  1  0  0  0  0
 20 23  1  0  0  0  0
 16 17  1  0  0  0  0
 16 18  1  0  0  0  0
 16 19  1  0  0  0  0
 14 15  1  0  0  0  0
 14 16  1  0  0  0  0
 14 20  1  0  0  0  0
 11 12  1  0  0  0  0
 11 13  1  0  0  0  0
 11 14  1  0  0  0  0
  9 10  1  0  0  0  0
  9 11  1  0  0  0  0
  9 24  1  0  0  0  0
  7  8  1  0  0  0  0
  7  9  1  0  0  0  0
 28 29  1  0  0  0  0
 28 30  1  0  0  0  0
 28 31  1  0  0  0  0
 26 27  1  0  0  0  0
 26 28  1  0  0  0  0
M  END
$$$$
default_name
  -OEChem-02102213163D

 31 30  0     1  0  0  0  0  0999 V2000
   -3.5895   -3.5013    1.1082 H   0  0  0  0  0  0  0  0  0  0  0  0
   -3.5145   -2.5363    0.6082 C   0  0  0  0  0  0  0  0  0  0  0  0
   -4.2285   -1.8413    1.0452 H   0  0  0  0  0  0  0  0  0  0  0  0
   -3.7155   -2.6583   -0.4538 H   0  0  0  0  0  0  0  0  0  0  0  0
   -2.1155   -1.9963    0.7922 C   0  0  0  0  0  0  0  0  0  0  0  0
   -1.2875   -2.6383    1.4252 O   0  0  0  0  0  0  0  0  0  0  0  0
   -1.8575   -0.8123    0.2402 N   0  0  0  0  0  0  0  0  0  0  0  0
   -2.6005   -0.3333   -0.2478 H   0  0  0  0  0  0  0  0  0  0  0  0
   -0.5675   -0.1203    0.3102 C   0  0  1  0  0  0  0  0  0  0  0  0
    0.1932   -0.7715   -0.1219 H   0  0  0  0  0  0  0  0  0  0  0  0
   -0.6568    1.1713   -0.5294 C   0  0  0  0  0  0  0  0  0  0  0  0
   -1.5809    1.6919   -0.2709 H   0  0  0  0  0  0  0  0  0  0  0  0
    0.1772    1.8168   -0.2450 H   0  0  0  0  0  0  0  0  0  0  0  0
   -0.6162    0.9811   -2.0568 C   0  0  0  0  0  0  0  0  0  0  0  0
   -1.6188    1.0962   -2.4689 H   0  0  0  0  0  0  0  0  0  0  0  0
    0.3209    1.9809   -2.7405 C   0  0  0  0  0  0  0  0  0  0  0  0
    1.3262    1.8890   -2.3269 H   0  0  0  0  0  0  0  0  0  0  0  0
    0.3561    1.7782   -3.8111 H   0  0  0  0  0  0  0  0  0  0  0  0
   -0.0316    2.9997   -2.5944 H   0  0  0  0  0  0  0  0  0  0  0  0
   -0.1273   -0.4282   -2.3888 C   0  0  0  0  0  0  0  0  0  0  0  0
   -0.7956   -1.1633   -1.9406 H   0  0  0  0  0  0  0  0  0  0  0  0
   -0.1240   -0.5747   -3.4689 H   0  0  0  0  0  0  0  0  0  0  0  0
    0.8818   -0.5764   -2.0025 H   0  0  0  0  0  0  0  0  0  0  0  0
   -0.1913    0.1554    1.7759 C   0  0  0  0  0  0  0  0  0  0  0  0
    0.9476   -0.0766    2.1748 O   0  0  0  0  0  0  0  0  0  0  0  0
   -1.1502    0.6393    2.5760 N   0  0  0  0  0  0  0  0  0  0  0  0
   -2.0581    0.8092    2.1736 H   0  0  0  0  0  0  0  0  0  0  0  0
   -0.9568    0.9369    3.9933 C   0  0  0  0  0  0  0  0  0  0  0  0
   -0.1600    1.6750    4.1097 H   0  0  0  0  0  0  0  0  0  0  0  0
   -1.8775    1.3307    4.4266 H   0  0  0  0  0  0  0  0  0  0  0  0
   -0.6678    0.0287    4.5244 H   0  0  0  0  0  0  0  0  0  0  0  0
  5  6  2  0  0  0  0
  5  7  1  0  0  0  0
  2  3  1  0  0  0  0
  2  4  1  0  0  0  0
  2  5  1  0  0  0  0
  1  2  1  0  0  0  0
 24 25  2  0  0  0  0
 24 26  1  0  0  0  0
 20 21  1  0  0  0  0
 20 22  1  0  0  0  0
 20 23  1  0  0  0  0
 16 17  1  0  0  0  0
 16 18  1  0  0  0  0
 16 19  1  0  0  0  0
 14 15  1  0  0  0  0
 14 16  1  0  0  0  0
 14 20  1  0  0  0  0
 11 12  1  0  0  0  0
 11 13  1  0  0  0  0
 11 14  1  0  0  0  0
  9 10  1  0  0  0  0
  9 11  1  0  0  0  0
  9 24  1  0  0  0  0
  7  8  1  0  0  0  0
  7  9  1  0  0  0  0
 28 29  1  0  0  0  0
 28 30  1  0  0  0  0
 28 31  1  0  0  0  0
 26 27  1  0  0  0  0
 26 28  1  0  0  0  0
M  END
$$$$
default_name
  -OEChem-02102213163D

 31 30  0     1  0  0  0  0  0999 V2000
   -3.5895   -3.5013    1.1082 H   0  0  0  0  0  0  0  0  0  0  0  0
   -3.5145   -2.5363    0.6082 C   0  0  0  0  0  0  0  0  0  0  0  0
   -4.2285   -1.8413    1.0452 H   0  0  0  0  0  0  0  0  0  0  0  0
   -3.7155   -2.6583   -0.4538 H   0  0  0  0  0  0  0  0  0  0  0  0
   -2.1155   -1.9963    0.7922 C   0  0  0  0  0  0  0  0  0  0  0  0
   -1.2875   -2.6383    1.4252 O   0  0  0  0  0  0  0  0  0  0  0  0
   -1.8575   -0.8123    0.2402 N   0  0  0  0  0  0  0  0  0  0  0  0
   -2.6005   -0.3333   -0.2478 H   0  0  0  0  0  0  0  0  0  0  0  0
   -0.5675   -0.1203    0.3102 C   0  0  1  0  0  0  0  0  0  0  0  0
    0.1932   -0.7715   -0.1219 H   0  0  0  0  0  0  0  0  0  0  0  0
   -0.6568    1.1713   -0.5294 C   0  0  0  0  0  0  0  0  0  0  0  0
   -1.5809    1.6919   -0.2709 H   0  0  0  0  0  0  0  0  0  0  0  0
    0.1772    1.8168   -0.2450 H   0  0  0  0  0  0  0  0  0  0  0  0
   -0.6162    0.9811   -2.0568 C   0  0  0  0  0  0  0  0  0  0  0  0
   -1.5416    1.3509   -2.4985 H   0  0  0  0  0  0  0  0  0  0  0  0
    0.5681    1.7084   -2.7000 C   0  0  0  0  0  0  0  0  0  0  0  0
    1.5019    1.3603   -2.2564 H   0  0  0  0  0  0  0  0  0  0  0  0
    0.5852    1.5064   -3.7712 H   0  0  0  0  0  0  0  0  0  0  0  0
    0.4842    2.7832   -2.5538 H   0  0  0  0  0  0  0  0  0  0  0  0
   -0.4947   -0.5056   -2.3889 C   0  0  0  0  0  0  0  0  0  0  0  0
   -1.3437   -1.0456   -1.9698 H   0  0  0  0  0  0  0  0  0  0  0  0
   -0.4936   -0.6452   -3.4699 H   0  0  0  0  0  0  0  0  0  0  0  0
    0.4292   -0.9091   -1.9731 H   0  0  0  0  0  0  0  0  0  0  0  0
   -0.1913    0.1554    1.7759 C   0  0  0  0  0  0  0  0  0  0  0  0
    0.9476   -0.0766    2.1748 O   0  0  0  0  0  0  0  0  0  0  0  0
   -1.1502    0.6393    2.5760 N   0  0  0  0  0  0  0  0  0  0  0  0
   -2.0581    0.8092    2.1736 H   0  0  0  0  0  0  0  0  0  0  0  0
   -0.9568    0.9369    3.9933 C   0  0  0  0  0  0  0  0  0  0  0  0
   -0.1600    1.6750    4.1097 H   0  0  0  0  0  0  0  0  0  0  0  0
   -1.8775    1.3307    4.4266 H   0  0  0  0  0  0  0  0  0  0  0  0
   -0.6678    0.0287    4.5244 H   0  0  0  0  0  0  0  0  0  0  0  0
  5  6  2  0  0  0  0
  5  7  1  0  0  0  0
  2  3  1  0  0  0  0
  2  4  1  0  0  0  0
  2  5  1  0  0  0  0
  1  2  1  0  0  0  0
 24 25  2  0  0  0  0
 24 26  1  0  0  0  0
 20 21  1  0  0  0  0
 20 22  1  0  0  0  0
 20 23  1  0  0  0  0
 16 17  1  0  0  0  0
 16 18  1  0  0  0  0
 16 19  1  0  0  0  0
 14 15  1  0  0  0  0
 14 16  1  0  0  0  0
 14 20  1  0  0  0  0
 11 12  1  0  0  0  0
 11 13  1  0  0  0  0
 11 14  1  0  0  0  0
  9 10  1  0  0  0  0
  9 11  1  0  0  0  0
  9 24  1  0  0  0  0
  7  8  1  0  0  0  0
  7  9  1  0  0  0  0
 28 29  1  0  0  0  0
 28 30  1  0  0  0  0
 28 31  1  0  0  0  0
 26 27  1  0  0  0  0
 26 28  1  0  0  0  0
M  END
$$$$
default_name
  -OEChem-02102213163D

 31 30  0     1  0  0  0  0  0999 V2000
   -3.5895   -3.5013    1.1082 H   0  0  0  0  0  0  0  0  0  0  0  0
   -3.5145   -2.5363    0.6082 C   0  0  0  0  0  0  0  0  0  0  0  0
   -4.2285   -1.8413    1.0452 H   0  0  0  0  0  0  0  0  0  0  0  0
   -3.7155   -2.6583   -0.4538 H   0  0  0  0  0  0  0  0  0  0  0  0
   -2.1155   -1.9963    0.7922 C   0  0  0  0  0  0  0  0  0  0  0  0
   -1.2875   -2.6383    1.4252 O   0  0  0  0  0  0  0  0  0  0  0  0
   -1.8575   -0.8123    0.2402 N   0  0  0  0  0  0  0  0  0  0  0  0
   -2.6005   -0.3333   -0.2478 H   0  0  0  0  0  0  0  0  0  0  0  0
   -0.5675   -0.1203    0.3102 C   0  0  1  0  0  0  0  0  0  0  0  0
    0.1932   -0.7715   -0.1219 H   0  0  0  0  0  0  0  0  0  0  0  0
   -0.6568    1.1713   -0.5294 C   0  0  0  0  0  0  0  0  0  0  0  0
   -1.5809    1.6919   -0.2709 H   0  0  0  0  0  0  0  0  0  0  0  0
    0.1772    1.8168   -0.2450 H   0  0  0  0  0  0  0  0  0  0  0  0
   -0.6162    0.9811   -2.0568 C   0  0  0  0  0  0  0  0  0  0  0  0
   -1.4006    1.5774   -2.5230 H   0  0  0  0  0  0  0  0  0  0  0  0
    0.7356    1.3815   -2.6548 C   0  0  0  0  0  0  0  0  0  0  0  0
    1.5336    0.8040   -2.1862 H   0  0  0  0  0  0  0  0  0  0  0  0
    0.7354    1.1847   -3.7271 H   0  0  0  0  0  0  0  0  0  0  0  0
    0.9255    2.4413   -2.4995 H   0  0  0  0  0  0  0  0  0  0  0  0
   -0.8695   -0.4861   -2.4013 C   0  0  0  0  0  0  0  0  0  0  0  0
   -1.8419   -0.7910   -2.0147 H   0  0  0  0  0  0  0  0  0  0  0  0
   -0.8687   -0.6184   -3.4832 H   0  0  0  0  0  0  0  0  0  0  0  0
   -0.0942   -1.1144   -1.9614 H   0  0  0  0  0  0  0  0  0  0  0  0
   -0.1913    0.1554    1.7759 C   0  0  0  0  0  0  0  0  0  0  0  0
    0.9476   -0.0766    2.1748 O   0  0  0  0  0  0  0  0  0  0  0  0
   -1.1502    0.6393    2.5760 N   0  0  0  0  0  0  0  0  0  0  0  0
   -2.0581    0.8092    2.1736 H   0  0  0  0  0  0  0  0  0  0  0  0
   -0.9568    0.9369    3.9933 C   0  0  0  0  0  0  0  0  0  0  0  0
   -0.1600    1.6750    4.1097 H   0  0  0  0  0  0  0  0  0  0  0  0
   -1.8775    1.3307    4.4266 H   0  0  0  0  0  0  0  0  0  0  0  0
   -0.6678    0.0287    4.5244 H   0  0  0  0  0  0  0  0  0  0  0  0
  5  6  2  0  0  0  0
  5  7  1  0  0  0  0
  2  3  1  0  0  0  0
  2  4  1  0  0  0  0
  2  5  1  0  0  0  0
  1  2  1  0  0  0  0
 24 25  2  0  0  0  0
 24 26  1  0  0  0  0
 20 21  1  0  0  0  0
 20 22  1  0  0  0  0
 20 23  1  0  0  0  0
 16 17  1  0  0  0  0
 16 18  1  0  0  0  0
 16 19  1  0  0  0  0
 14 15  1  0  0  0  0
 14 16  1  0  0  0  0
 14 20  1  0  0  0  0
 11 12  1  0  0  0  0
 11 13  1  0  0  0  0
 11 14  1  0  0  0  0
  9 10  1  0  0  0  0
  9 11  1  0  0  0  0
  9 24  1  0  0  0  0
  7  8  1  0  0  0  0
  7  9  1  0  0  0  0
 28 29  1  0  0  0  0
 28 30  1  0  0  0  0
 28 31  1  0  0  0  0
 26 27  1  0  0  0  0
 26 28  1  0  0  0  0
M  END
$$$$
default_name
  -OEChem-02102213163D

 31 30  0     1  0  0  0  0  0999 V2000
   -3.5895   -3.5013    1.1082 H   0  0  0  0  0  0  0  0  0  0  0  0
   -3.5145   -2.5363    0.6082 C   0  0  0  0  0  0  0  0  0  0  0  0
   -4.2285   -1.8413    1.0452 H   0  0  0  0  0  0  0  0  0  0  0  0
   -3.7155   -2.6583   -0.4538 H   0  0  0  0  0  0  0  0  0  0  0  0
   -2.1155   -1.9963    0.7922 C   0  0  0  0  0  0  0  0  0  0  0  0
   -1.2875   -2.6383    1.4252 O   0  0  0  0  0  0  0  0  0  0  0  0
   -1.8575   -0.8123    0.2402 N   0  0  0  0  0  0  0  0  0  0  0  0
   -2.6005   -0.3333   -0.2478 H   0  0  0  0  0  0  0  0  0  0  0  0
   -0.5675   -0.1203    0.3102 C   0  0  1  0  0  0  0  0  0  0  0  0
    0.1932   -0.7715   -0.1219 H   0  0  0  0  0  0  0  0  0  0  0  0
   -0.6568    1.1713   -0.5294 C   0  0  0  0  0  0  0  0  0  0  0  0
   -1.5809    1.6919   -0.2709 H   0  0  0  0  0  0  0  0  0  0  0  0
    0.1772    1.8168   -0.2450 H   0  0  0  0  0  0  0  0  0  0  0  0
   -0.6162    0.9811   -2.0568 C   0  0  0  0  0  0  0  0  0  0  0  0
   -1.2056    1.7601   -2.5406 H   0  0  0  0  0  0  0  0  0  0  0  0
    0.8119    1.0224   -2.6081 C   0  0  0  0  0  0  0  0  0  0  0  0
    1.4192    0.2581   -2.1213 H   0  0  0  0  0  0  0  0  0  0  0  0
    0.7965    0.8351   -3.6820 H   0  0  0  0  0  0  0  0  0  0  0  0
    1.2623    1.9975   -2.4353 H   0  0  0  0  0  0  0  0  0  0  0  0
   -1.2261   -0.3709   -2.4251 C   0  0  0  0  0  0  0  0  0  0  0  0
   -2.2563   -0.4168   -2.0723 H   0  0  0  0  0  0  0  0  0  0  0  0
   -1.2237   -0.4961   -3.5079 H   0  0  0  0  0  0  0  0  0  0  0  0
   -0.6529   -1.1785   -1.9682 H   0  0  0  0  0  0  0  0  0  0  0  0
   -0.1913    0.1554    1.7759 C   0  0  0  0  0  0  0  0  0  0  0  0
    0.9476   -0.0766    2.1748 O   0  0  0  0  0  0  0  0  0  0  0  0
   -1.1502    0.6393    2.5760 N   0  0  0  0  0  0  0  0  0  0  0  0
   -2.0581    0.8092    2.1736 H   0  0  0  0  0  0  0  0  0  0  0  0
   -0.9568    0.9369    3.9933 C   0  0  0  0  0  0  0  0  0  0  0  0
   -0.1600    1.6750    4.1097 H   0  0  0  0  0  0  0  0  0  0  0  0
   -1.8775    1.3307    4.4266 H   0  0  0  0  0  0  0  0  0  0  0  0
   -0.6678    0.0287    4.5244 H   0  0  0  0  0  0  0  0  0  0  0  0
  5  6  2  0  0  0  0
  5  7  1  0  0  0  0
  2  3  1  0  0  0  0
  2  4  1  0  0  0  0
  2  5  1  0  0  0  0
  1  2  1  0  0  0  0
 24 25  2  0  0  0  0
 24 26  1  0  0  0  0
 20 21  1  0  0  0  0
 20 22  1  0  0  0  0
 20 23  1  0  0  0  0
 16 17  1  0  0  0  0
 16 18  1  0  0  0  0
 16 19  1  0  0  0  0
 14 15  1  0  0  0  0
 14 16  1  0  0  0  0
 14 20  1  0  0  0  0
 11 12  1  0  0  0  0
 11 13  1  0  0  0  0
 11 14  1  0  0  0  0
  9 10  1  0  0  0  0
  9 11  1  0  0  0  0
  9 24  1  0  0  0  0
  7  8  1  0  0  0  0
  7  9  1  0  0  0  0
 28 29  1  0  0  0  0
 28 30  1  0  0  0  0
 28 31  1  0  0  0  0
 26 27  1  0  0  0  0
 26 28  1  0  0  0  0
M  END
$$$$
default_name
  -OEChem-02102213163D

 31 30  0     1  0  0  0  0  0999 V2000
   -3.5895   -3.5013    1.1082 H   0  0  0  0  0  0  0  0  0  0  0  0
   -3.5145   -2.5363    0.6082 C   0  0  0  0  0  0  0  0  0  0  0  0
   -4.2285   -1.8413    1.0452 H   0  0  0  0  0  0  0  0  0  0  0  0
   -3.7155   -2.6583   -0.4538 H   0  0  0  0  0  0  0  0  0  0  0  0
   -2.1155   -1.9963    0.7922 C   0  0  0  0  0  0  0  0  0  0  0  0
   -1.2875   -2.6383    1.4252 O   0  0  0  0  0  0  0  0  0  0  0  0
   -1.8575   -0.8123    0.2402 N   0  0  0  0  0  0  0  0  0  0  0  0
   -2.6005   -0.3333   -0.2478 H   0  0  0  0  0  0  0  0  0  0  0  0
   -0.5675   -0.1203    0.3102 C   0  0  1  0  0  0  0  0  0  0  0  0
    0.1932   -0.7715   -0.1219 H   0  0  0  0  0  0  0  0  0  0  0  0
   -0.6568    1.1713   -0.5294 C   0  0  0  0  0  0  0  0  0  0  0  0
   -1.5809    1.6919   -0.2709 H   0  0  0  0  0  0  0  0  0  0  0  0
    0.1772    1.8168   -0.2450 H   0  0  0  0  0  0  0  0  0  0  0  0
   -0.6162    0.9811   -2.0568 C   0  0  0  0  0  0  0  0  0  0  0  0
   -0.9697    1.8866   -2.5501 H   0  0  0  0  0  0  0  0  0  0  0  0
    0.7920    0.6557   -2.5629 C   0  0  0  0  0  0  0  0  0  0  0  0
    1.1665   -0.2403   -2.0659 H   0  0  0  0  0  0  0  0  0  0  0  0
    0.7644    0.4814   -3.6388 H   0  0  0  0  0  0  0  0  0  0  0  0
    1.4717    1.4819   -2.3656 H   0  0  0  0  0  0  0  0  0  0  0  0
   -1.5402   -0.1679   -2.4587 C   0  0  0  0  0  0  0  0  0  0  0  0
   -2.5587    0.0514   -2.1386 H   0  0  0  0  0  0  0  0  0  0  0  0
   -1.5345   -0.2866   -3.5422 H   0  0  0  0  0  0  0  0  0  0  0  0
   -1.2088   -1.0968   -1.9931 H   0  0  0  0  0  0  0  0  0  0  0  0
   -0.1913    0.1554    1.7759 C   0  0  0  0  0  0  0  0  0  0  0  0
    0.9476   -0.0766    2.1748 O   0  0  0  0  0  0  0  0  0  0  0  0
   -1.1502    0.6393    2.5760 N   0  0  0  0  0  0  0  0  0  0  0  0
   -2.0581    0.8092    2.1736 H   0  0  0  0  0  0  0  0  0  0  0  0
   -0.9568    0.9369    3.9933 C   0  0  0  0  0  0  0  0  0  0  0  0
   -0.1600    1.6750    4.1097 H   0  0  0  0  0  0  0  0  0  0  0  0
   -1.8775    1.3307    4.4266 H   0  0  0  0  0  0  0  0  0  0  0  0
   -0.6678    0.0287    4.5244 H   0  0  0  0  0  0  0  0  0  0  0  0
  5  6  2  0  0  0  0
  5  7  1  0  0  0  0
  2  3  1  0  0  0  0
  2  4  1  0  0  0  0
  2  5  1  0  0  0  0
  1  2  1  0  0  0  0
 24 25  2  0  0  0  0
 24 26  1  0  0  0  0
 20 21  1  0  0  0  0
 20 22  1  0  0  0  0
 20 23  1  0  0  0  0
 16 17  1  0  0  0  0
 16 18  1  0  0  0  0
 16 19  1  0  0  0  0
 14 15  1  0  0  0  0
 14 16  1  0  0  0  0
 14 20  1  0  0  0  0
 11 12  1  0  0  0  0
 11 13  1  0  0  0  0
 11 14  1  0  0  0  0
  9 10  1  0  0  0  0
  9 11  1  0  0  0  0
  9 24  1  0  0  0  0
  7  8  1  0  0  0  0
  7  9  1  0  0  0  0
 28 29  1  0  0  0  0
 28 30  1  0  0  0  0
 28 31  1  0  0  0  0
 26 27  1  0  0  0  0
 26 28  1  0  0  0  0
M  END
$$$$
default_name
  -OEChem-02102213163D

 31 30  0     1  0  0  0  0  0999 V2000
   -3.5895   -3.5013    1.1082 H   0  0  0  0  0  0  0  0  0  0  0  0
   -3.5145   -2.5363    0.6082 C   0  0  0  0  0  0  0  0  0  0  0  0
   -4.2285   -1.8413    1.0452 H   0  0  0  0  0  0  0  0  0  0  0  0
   -3.7155   -2.6583   -0.4538 H   0  0  0  0  0  0  0  0  0  0  0  0
   -2.1155   -1.9963    0.7922 C   0  0  0  0  0  0  0  0  0  0  0  0
   -1.2875   -2.6383    1.4252 O   0  0  0  0  0  0  0  0  0  0  0  0
   -1.8575   -0.8123    0.2402 N   0  0  0  0  0  0  0  0  0  0  0  0
   -2.6005   -0.3333   -0.2478 H   0  0  0  0  0  0  0  0  0  0  0  0
   -0.5675   -0.1203    0.3102 C   0  0  1  0  0  0  0  0  0  0  0  0
    0.1932   -0.7715   -0.1219 H   0  0  0  0  0  0  0  0  0  0  0  0
   -0.6568    1.1713   -0.5294 C   0  0  0  0  0  0  0  0  0  0  0  0
   -1.5809    1.6919   -0.2709 H   0  0  0  0  0  0  0  0  0  0  0  0
    0.1772    1.8168   -0.2450 H   0  0  0  0  0  0  0  0  0  0  0  0
   -0.6162    0.9811   -2.0568 C   0  0  0  0  0  0  0  0  0  0  0  0
   -0.7091    1.9483   -2.5508 H   0  0  0  0  0  0  0  0  0  0  0  0
    0.6772    0.3062   -2.5225 C   0  0  0  0  0  0  0  0  0  0  0  0
    0.7927   -0.6572   -2.0239 H   0  0  0  0  0  0  0  0  0  0  0  0
    0.6411    0.1477   -3.6005 H   0  0  0  0  0  0  0  0  0  0  0  0
    1.5392    0.9296   -2.2950 H   0  0  0  0  0  0  0  0  0  0  0  0
   -1.7904    0.1090   -2.4998 C   0  0  0  0  0  0  0  0  0  0  0  0
   -2.7285    0.5818   -2.2092 H   0  0  0  0  0  0  0  0  0  0  0  0
   -1.7797   -0.0043   -3.5838 H   0  0  0  0  0  0  0  0  0  0  0  0
   -1.7240   -0.8751   -2.0344 H   0  0  0  0  0  0  0  0  0  0  0  0
   -0.1913    0.1554    1.7759 C   0  0  0  0  0  0  0  0  0  0  0  0
    0.9476   -0.0766    2.1748 O   0  0  0  0  0  0  0  0  0  0  0  0
   -1.1502    0.6393    2.5760 N   0  0  0  0  0  0  0  0  0  0  0  0
   -2.0581    0.8092    2.1736 H   0  0  0  0  0  0  0  0  0  0  0  0
   -0.9568    0.9369    3.9933 C   0  0  0  0  0  0  0  0  0  0  0  0
   -0.1600    1.6750    4.1097 H   0  0  0  0  0  0  0  0  0  0  0  0
   -1.8775    1.3307    4.4266 H   0  0  0  0  0  0  0  0  0  0  0  0
   -0.6678    0.0287    4.5244 H   0  0  0  0  0  0  0  0  0  0  0  0
  5  6  2  0  0  0  0
  5  7  1  0  0  0  0
  2  3  1  0  0  0  0
  2  4  1  0  0  0  0
  2  5  1  0  0  0  0
  1  2  1  0  0  0  0
 24 25  2  0  0  0  0
 24 26  1  0  0  0  0
 20 21  1  0  0  0  0
 20 22  1  0  0  0  0
 20 23  1  0  0  0  0
 16 17  1  0  0  0  0
 16 18  1  0  0  0  0
 16 19  1  0  0  0  0
 14 15  1  0  0  0  0
 14 16  1  0  0  0  0
 14 20  1  0  0  0  0
 11 12  1  0  0  0  0
 11 13  1  0  0  0  0
 11 14  1  0  0  0  0
  9 10  1  0  0  0  0
  9 11  1  0  0  0  0
  9 24  1  0  0  0  0
  7  8  1  0  0  0  0
  7  9  1  0  0  0  0
 28 29  1  0  0  0  0
 28 30  1  0  0  0  0
 28 31  1  0  0  0  0
 26 27  1  0  0  0  0
 26 28  1  0  0  0  0
M  END
$$$$
default_name
  -OEChem-02102213163D

 31 30  0     1  0  0  0  0  0999 V2000
   -3.5895   -3.5013    1.1082 H   0  0  0  0  0  0  0  0  0  0  0  0
   -3.5145   -2.5363    0.6082 C   0  0  0  0  0  0  0  0  0  0  0  0
   -4.2285   -1.8413    1.0452 H   0  0  0  0  0  0  0  0  0  0  0  0
   -3.7155   -2.6583   -0.4538 H   0  0  0  0  0  0  0  0  0  0  0  0
   -2.1155   -1.9963    0.7922 C   0  0  0  0  0  0  0  0  0  0  0  0
   -1.2875   -2.6383    1.4252 O   0  0  0  0  0  0  0  0  0  0  0  0
   -1.8575   -0.8123    0.2402 N   0  0  0  0  0  0  0  0  0  0  0  0
   -2.6005   -0.3333   -0.2478 H   0  0  0  0  0  0  0  0  0  0  0  0
   -0.5675   -0.1203    0.3102 C   0  0  1  0  0  0  0  0  0  0  0  0
    0.1932   -0.7715   -0.1219 H   0  0  0  0  0  0  0  0  0  0  0  0
   -0.6568    1.1713   -0.5294 C   0  0  0  0  0  0  0  0  0  0  0  0
   -1.5809    1.6919   -0.2709 H   0  0  0  0  0  0  0  0  0  0  0  0
    0.1772    1.8168   -0.2450 H   0  0  0  0  0  0  0  0  0  0  0  0
   -0.6162    0.9811   -2.0568 C   0  0  0  0  0  0  0  0  0  0  0  0
   -0.4415    1.9410   -2.5428 H   0  0  0  0  0  0  0  0  0  0  0  0
    0.4753   -0.0022   -2.4894 C   0  0  0  0  0  0  0  0  0  0  0  0
    0.3232   -0.9642   -1.9982 H   0  0  0  0  0  0  0  0  0  0  0  0
    0.4351   -0.1432   -3.5697 H   0  0  0  0  0  0  0  0  0  0  0  0
    1.4604    0.3783   -2.2284 H   0  0  0  0  0  0  0  0  0  0  0  0
   -1.9597    0.4410   -2.5456 C   0  0  0  0  0  0  0  0  0  0  0  0
   -2.7540    1.1381   -2.2791 H   0  0  0  0  0  0  0  0  0  0  0  0
   -1.9428    0.3316   -3.6300 H   0  0  0  0  0  0  0  0  0  0  0  0
   -2.1633   -0.5283   -2.0893 H   0  0  0  0  0  0  0  0  0  0  0  0
   -0.1913    0.1554    1.7759 C   0  0  0  0  0  0  0  0  0  0  0  0
    0.9476   -0.0766    2.1748 O   0  0  0  0  0  0  0  0  0  0  0  0
   -1.1502    0.6393    2.5760 N   0  0  0  0  0  0  0  0  0  0  0  0
   -2.0581    0.8092    2.1736 H   0  0  0  0  0  0  0  0  0  0  0  0
   -0.9568    0.9369    3.9933 C   0  0  0  0  0  0  0  0  0  0  0  0
   -0.1600    1.6750    4.1097 H   0  0  0  0  0  0  0  0  0  0  0  0
   -1.8775    1.3307    4.4266 H   0  0  0  0  0  0  0  0  0  0  0  0
   -0.6678    0.0287    4.5244 H   0  0  0  0  0  0  0  0  0  0  0  0
  5  6  2  0  0  0  0
  5  7  1  0  0  0  0
  2  3  1  0  0  0  0
  2  4  1  0  0  0  0
  2  5  1  0  0  0  0
  1  2  1  0  0  0  0
 24 25  2  0  0  0  0
 24 26  1  0  0  0  0
 20 21  1  0  0  0  0
 20 22  1  0  0  0  0
 20 23  1  0  0  0  0
 16 17  1  0  0  0  0
 16 18  1  0  0  0  0
 16 19  1  0  0  0  0
 14 15  1  0  0  0  0
 14 16  1  0  0  0  0
 14 20  1  0  0  0  0
 11 12  1  0  0  0  0
 11 13  1  0  0  0  0
 11 14  1  0  0  0  0
  9 10  1  0  0  0  0
  9 11  1  0  0  0  0
  9 24  1  0  0  0  0
  7  8  1  0  0  0  0
  7  9  1  0  0  0  0
 28 29  1  0  0  0  0
 28 30  1  0  0  0  0
 28 31  1  0  0  0  0
 26 27  1  0  0  0  0
 26 28  1  0  0  0  0
M  END
$$$$
default_name
  -OEChem-02102213163D

 31 30  0     1  0  0  0  0  0999 V2000
   -3.5895   -3.5013    1.1082 H   0  0  0  0  0  0  0  0  0  0  0  0
   -3.5145   -2.5363    0.6082 C   0  0  0  0  0  0  0  0  0  0  0  0
   -4.2285   -1.8413    1.0452 H   0  0  0  0  0  0  0  0  0  0  0  0
   -3.7155   -2.6583   -0.4538 H   0  0  0  0  0  0  0  0  0  0  0  0
   -2.1155   -1.9963    0.7922 C   0  0  0  0  0  0  0  0  0  0  0  0
   -1.2875   -2.6383    1.4252 O   0  0  0  0  0  0  0  0  0  0  0  0
   -1.8575   -0.8123    0.2402 N   0  0  0  0  0  0  0  0  0  0  0  0
   -2.6005   -0.3333   -0.2478 H   0  0  0  0  0  0  0  0  0  0  0  0
   -0.5675   -0.1203    0.3102 C   0  0  1  0  0  0  0  0  0  0  0  0
    0.1932   -0.7715   -0.1219 H   0  0  0  0  0  0  0  0  0  0  0  0
   -0.6568    1.1713   -0.5294 C   0  0  0  0  0  0  0  0  0  0  0  0
   -1.5809    1.6919   -0.2709 H   0  0  0  0  0  0  0  0  0  0  0  0
    0.1772    1.8168   -0.2450 H   0  0  0  0  0  0  0  0  0  0  0  0
   -0.6162    0.9811   -2.0568 C   0  0  0  0  0  0  0  0  0  0  0  0
   -0.1851    1.8652   -2.5266 H   0  0  0  0  0  0  0  0  0  0  0  0
    0.2000   -0.2484   -2.4661 C   0  0  0  0  0  0  0  0  0  0  0  0
   -0.2100   -1.1404   -1.9904 H   0  0  0  0  0  0  0  0  0  0  0  0
    0.1605   -0.3716   -3.5486 H   0  0  0  0  0  0  0  0  0  0  0  0
    1.2407   -0.1344   -2.1704 H   0  0  0  0  0  0  0  0  0  0  0  0
   -2.0365    0.8055   -2.5931 C   0  0  0  0  0  0  0  0  0  0  0  0
   -2.6336    1.6825   -2.3437 H   0  0  0  0  0  0  0  0  0  0  0  0
   -2.0127    0.6983   -3.6775 H   0  0  0  0  0  0  0  0  0  0  0  0
   -2.4970   -0.0802   -2.1539 H   0  0  0  0  0  0  0  0  0  0  0  0
   -0.1913    0.1554    1.7759 C   0  0  0  0  0  0  0  0  0  0  0  0
    0.9476   -0.0766    2.1748 O   0  0  0  0  0  0  0  0  0  0  0  0
   -1.1502    0.6393    2.5760 N   0  0  0  0  0  0  0  0  0  0  0  0
   -2.0581    0.8092    2.1736 H   0  0  0  0  0  0  0  0  0  0  0  0
   -0.9568    0.9369    3.9933 C   0  0  0  0  0  0  0  0  0  0  0  0
   -0.1600    1.6750    4.1097 H   0  0  0  0  0  0  0  0  0  0  0  0
   -1.8775    1.3307    4.4266 H   0  0  0  0  0  0  0  0  0  0  0  0
   -0.6678    0.0287    4.5244 H   0  0  0  0  0  0  0  0  0  0  0  0
  5  6  2  0  0  0  0
  5  7  1  0  0  0  0
  2  3  1  0  0  0  0
  2  4  1  0  0  0  0
  2  5  1  0  0  0  0
  1  2  1  0  0  0  0
 24 25  2  0  0  0  0
 24 26  1  0  0  0  0
 20 21  1  0  0  0  0
 20 22  1  0  0  0  0
 20 23  1  0  0  0  0
 16 17  1  0  0  0  0
 16 18  1  0  0  0  0
 16 19  1  0  0  0  0
 14 15  1  0  0  0  0
 14 16  1  0  0  0  0
 14 20  1  0  0  0  0
 11 12  1  0  0  0  0
 11 13  1  0  0  0  0
 11 14  1  0  0  0  0
  9 10  1  0  0  0  0
  9 11  1  0  0  0  0
  9 24  1  0  0  0  0
  7  8  1  0  0  0  0
  7  9  1  0  0  0  0
 28 29  1  0  0  0  0
 28 30  1  0  0  0  0
 28 31  1  0  0  0  0
 26 27  1  0  0  0  0
 26 28  1  0  0  0  0
M  END
$$$$
default_name
  -OEChem-02102213163D

 31 30  0     1  0  0  0  0  0999 V2000
   -3.5895   -3.5013    1.1082 H   0  0  0  0  0  0  0  0  0  0  0  0
   -3.5145   -2.5363    0.6082 C   0  0  0  0  0  0  0  0  0  0  0  0
   -4.2285   -1.8413    1.0452 H   0  0  0  0  0  0  0  0  0  0  0  0
   -3.7155   -2.6583   -0.4538 H   0  0  0  0  0  0  0  0  0  0  0  0
   -2.1155   -1.9963    0.7922 C   0  0  0  0  0  0  0  0  0  0  0  0
   -1.2875   -2.6383    1.4252 O   0  0  0  0  0  0  0  0  0  0  0  0
   -1.8575   -0.8123    0.2402 N   0  0  0  0  0  0  0  0  0  0  0  0
   -2.6005   -0.3333   -0.2478 H   0  0  0  0  0  0  0  0  0  0  0  0
   -0.5675   -0.1203    0.3102 C   0  0  1  0  0  0  0  0  0  0  0  0
    0.1932   -0.7715   -0.1219 H   0  0  0  0  0  0  0  0  0  0  0  0
   -0.6568    1.1713   -0.5294 C   0  0  0  0  0  0  0  0  0  0  0  0
   -1.5809    1.6919   -0.2709 H   0  0  0  0  0  0  0  0  0  0  0  0
    0.1772    1.8168   -0.2450 H   0  0  0  0  0  0  0  0  0  0  0  0
   -0.6162    0.9811   -2.0568 C   0  0  0  0  0  0  0  0  0  0  0  0
    0.0425    1.7260   -2.5032 H   0  0  0  0  0  0  0  0  0  0  0  0
   -0.1299   -0.4157   -2.4540 C   0  0  0  0  0  0  0  0  0  0  0  0
   -0.7704   -1.1737   -2.0011 H   0  0  0  0  0  0  0  0  0  0  0  0
   -0.1641   -0.5218   -3.5385 H   0  0  0  0  0  0  0  0  0  0  0  0
    0.8949   -0.5737   -2.1249 H   0  0  0  0  0  0  0  0  0  0  0  0
   -2.0155    1.1776   -2.6389 C   0  0  0  0  0  0  0  0  0  0  0  0
   -2.3755    2.1779   -2.3986 H   0  0  0  0  0  0  0  0  0  0  0  0
   -1.9844    1.0707   -3.7232 H   0  0  0  0  0  0  0  0  0  0  0  0
   -2.7021    0.4387   -2.2240 H   0  0  0  0  0  0  0  0  0  0  0  0
   -0.1913    0.1554    1.7759 C   0  0  0  0  0  0  0  0  0  0  0  0
    0.9476   -0.0766    2.1748 O   0  0  0  0  0  0  0  0  0  0  0  0
   -1.1502    0.6393    2.5760 N   0  0  0  0  0  0  0  0  0  0  0  0
   -2.0581    0.8092    2.1736 H   0  0  0  0  0  0  0  0  0  0  0  0
   -0.9568    0.9369    3.9933 C   0  0  0  0  0  0  0  0  0  0  0  0
   -0.1600    1.6750    4.1097 H   0  0  0  0  0  0  0  0  0  0  0  0
   -1.8775    1.3307    4.4266 H   0  0  0  0  0  0  0  0  0  0  0  0
   -0.6678    0.0287    4.5244 H   0  0  0  0  0  0  0  0  0  0  0  0
  5  6  2  0  0  0  0
  5  7  1  0  0  0  0
  2  3  1  0  0  0  0
  2  4  1  0  0  0  0
  2  5  1  0  0  0  0
  1  2  1  0  0  0  0
 24 25  2  0  0  0  0
 24 26  1  0  0  0  0
 20 21  1  0  0  0  0
 20 22  1  0  0  0  0
 20 23  1  0  0  0  0
 16 17  1  0  0  0  0
 16 18  1  0  0  0  0
 16 19  1  0  0  0  0
 14 15  1  0  0  0  0
 14 16  1  0  0  0  0
 14 20  1  0  0  0  0
 11 12  1  0  0  0  0
 11 13  1  0  0  0  0
 11 14  1  0  0  0  0
  9 10  1  0  0  0  0
  9 11  1  0  0  0  0
  9 24  1  0  0  0  0
  7  8  1  0  0  0  0
  7  9  1  0  0  0  0
 28 29  1  0  0  0  0
 28 30  1  0  0  0  0
 28 31  1  0  0  0  0
 26 27  1  0  0  0  0
 26 28  1  0  0  0  0
M  END
$$$$
default_name
  -OEChem-02102213163D

 31 30  0     1  0  0  0  0  0999 V2000
   -3.5895   -3.5013    1.1082 H   0  0  0  0  0  0  0  0  0  0  0  0
   -3.5145   -2.5363    0.6082 C   0  0  0  0  0  0  0  0  0  0  0  0
   -4.2285   -1.8413    1.0452 H   0  0  0  0  0  0  0  0  0  0  0  0
   -3.7155   -2.6583   -0.4538 H   0  0  0  0  0  0  0  0  0  0  0  0
   -2.1155   -1.9963    0.7922 C   0  0  0  0  0  0  0  0  0  0  0  0
   -1.2875   -2.6383    1.4252 O   0  0  0  0  0  0  0  0  0  0  0  0
   -1.8575   -0.8123    0.2402 N   0  0  0  0  0  0  0  0  0  0  0  0
   -2.6005   -0.3333   -0.2478 H   0  0  0  0  0  0  0  0  0  0  0  0
   -0.5675   -0.1203    0.3102 C   0  0  1  0  0  0  0  0  0  0  0  0
    0.1932   -0.7715   -0.1219 H   0  0  0  0  0  0  0  0  0  0  0  0
   -0.6568    1.1713   -0.5294 C   0  0  0  0  0  0  0  0  0  0  0  0
   -1.5809    1.6919   -0.2709 H   0  0  0  0  0  0  0  0  0  0  0  0
    0.1772    1.8168   -0.2450 H   0  0  0  0  0  0  0  0  0  0  0  0
   -0.6162    0.9811   -2.0568 C   0  0  0  0  0  0  0  0  0  0  0  0
    0.2259    1.5330   -2.4743 H   0  0  0  0  0  0  0  0  0  0  0  0
   -0.4919   -0.4927   -2.4540 C   0  0  0  0  0  0  0  0  0  0  0  0
   -1.3200   -1.0619   -2.0296 H   0  0  0  0  0  0  0  0  0  0  0  0
   -0.5165   -0.5836   -3.5402 H   0  0  0  0  0  0  0  0  0  0  0  0
    0.4467   -0.9095   -2.0950 H   0  0  0  0  0  0  0  0  0  0  0  0
   -1.8983    1.5319   -2.6799 C   0  0  0  0  0  0  0  0  0  0  0  0
   -1.9972    2.5905   -2.4399 H   0  0  0  0  0  0  0  0  0  0  0  0
   -1.8601    1.4235   -3.7638 H   0  0  0  0  0  0  0  0  0  0  0  0
   -2.7648    0.9932   -2.2947 H   0  0  0  0  0  0  0  0  0  0  0  0
   -0.1913    0.1554    1.7759 C   0  0  0  0  0  0  0  0  0  0  0  0
    0.9476   -0.0766    2.1748 O   0  0  0  0  0  0  0  0  0  0  0  0
   -1.1502    0.6393    2.5760 N   0  0  0  0  0  0  0  0  0  0  0  0
   -2.0581    0.8092    2.1736 H   0  0  0  0  0  0  0  0  0  0  0  0
   -0.9568    0.9369    3.9933 C   0  0  0  0  0  0  0  0  0  0  0  0
   -0.1600    1.6750    4.1097 H   0  0  0  0  0  0  0  0  0  0  0  0
   -1.8775    1.3307    4.4266 H   0  0  0  0  0  0  0  0  0  0  0  0
   -0.6678    0.0287    4.5244 H   0  0  0  0  0  0  0  0  0  0  0  0
  5  6  2  0  0  0  0
  5  7  1  0  0  0  0
  2  3  1  0  0  0  0
  2  4  1  0  0  0  0
  2  5  1  0  0  0  0
  1  2  1  0  0  0  0
 24 25  2  0  0  0  0
 24 26  1  0  0  0  0
 20 21  1  0  0  0  0
 20 22  1  0  0  0  0
 20 23  1  0  0  0  0
 16 17  1  0  0  0  0
 16 18  1  0  0  0  0
 16 19  1  0  0  0  0
 14 15  1  0  0  0  0
 14 16  1  0  0  0  0
 14 20  1  0  0  0  0
 11 12  1  0  0  0  0
 11 13  1  0  0  0  0
 11 14  1  0  0  0  0
  9 10  1  0  0  0  0
  9 11  1  0  0  0  0
  9 24  1  0  0  0  0
  7  8  1  0  0  0  0
  7  9  1  0  0  0  0
 28 29  1  0  0  0  0
 28 30  1  0  0  0  0
 28 31  1  0  0  0  0
 26 27  1  0  0  0  0
 26 28  1  0  0  0  0
M  END
$$$$
default_name
  -OEChem-02102213163D

 31 30  0     1  0  0  0  0  0999 V2000
   -3.5895   -3.5013    1.1082 H   0  0  0  0  0  0  0  0  0  0  0  0
   -3.5145   -2.5363    0.6082 C   0  0  0  0  0  0  0  0  0  0  0  0
   -4.2285   -1.8413    1.0452 H   0  0  0  0  0  0  0  0  0  0  0  0
   -3.7155   -2.6583   -0.4538 H   0  0  0  0  0  0  0  0  0  0  0  0
   -2.1155   -1.9963    0.7922 C   0  0  0  0  0  0  0  0  0  0  0  0
   -1.2875   -2.6383    1.4252 O   0  0  0  0  0  0  0  0  0  0  0  0
   -1.8575   -0.8123    0.2402 N   0  0  0  0  0  0  0  0  0  0  0  0
   -2.6005   -0.3333   -0.2478 H   0  0  0  0  0  0  0  0  0  0  0  0
   -0.5675   -0.1203    0.3102 C   0  0  1  0  0  0  0  0  0  0  0  0
    0.1932   -0.7715   -0.1219 H   0  0  0  0  0  0  0  0  0  0  0  0
   -0.6568    1.1713   -0.5294 C   0  0  0  0  0  0  0  0  0  0  0  0
   -1.5809    1.6919   -0.2709 H   0  0  0  0  0  0  0  0  0  0  0  0
    0.1772    1.8168   -0.2450 H   0  0  0  0  0  0  0  0  0  0  0  0
   -0.6162    0.9811   -2.0568 C   0  0  0  0  0  0  0  0  0  0  0  0
    0.3526    1.2992   -2.4419 H   0  0  0  0  0  0  0  0  0  0  0  0
   -0.8613   -0.4741   -2.4661 C   0  0  0  0  0  0  0  0  0  0  0  0
   -1.8213   -0.8127   -2.0739 H   0  0  0  0  0  0  0  0  0  0  0  0
   -0.8727   -0.5528   -3.5534 H   0  0  0  0  0  0  0  0  0  0  0  0
   -0.0735   -1.1189   -2.0827 H   0  0  0  0  0  0  0  0  0  0  0  0
   -1.6928    1.8444   -2.7133 C   0  0  0  0  0  0  0  0  0  0  0  0
   -1.5246    2.8923   -2.4649 H   0  0  0  0  0  0  0  0  0  0  0  0
   -1.6481    1.7327   -3.7967 H   0  0  0  0  0  0  0  0  0  0  0  0
   -2.6807    1.5452   -2.3612 H   0  0  0  0  0  0  0  0  0  0  0  0
   -0.1913    0.1554    1.7759 C   0  0  0  0  0  0  0  0  0  0  0  0
    0.9476   -0.0766    2.1748 O   0  0  0  0  0  0  0  0  0  0  0  0
   -1.1502    0.6393    2.5760 N   0  0  0  0  0  0  0  0  0  0  0  0
   -2.0581    0.8092    2.1736 H   0  0  0  0  0  0  0  0  0  0  0  0
   -0.9568    0.9369    3.9933 C   0  0  0  0  0  0  0  0  0  0  0  0
   -0.1600    1.6750    4.1097 H   0  0  0  0  0  0  0  0  0  0  0  0
   -1.8775    1.3307    4.4266 H   0  0  0  0  0  0  0  0  0  0  0  0
   -0.6678    0.0287    4.5244 H   0  0  0  0  0  0  0  0  0  0  0  0
  5  6  2  0  0  0  0
  5  7  1  0  0  0  0
  2  3  1  0  0  0  0
  2  4  1  0  0  0  0
  2  5  1  0  0  0  0
  1  2  1  0  0  0  0
 24 25  2  0  0  0  0
 24 26  1  0  0  0  0
 20 21  1  0  0  0  0
 20 22  1  0  0  0  0
 20 23  1  0  0  0  0
 16 17  1  0  0  0  0
 16 18  1  0  0  0  0
 16 19  1  0  0  0  0
 14 15  1  0  0  0  0
 14 16  1  0  0  0  0
 14 20  1  0  0  0  0
 11 12  1  0  0  0  0
 11 13  1  0  0  0  0
 11 14  1  0  0  0  0
  9 10  1  0  0  0  0
  9 11  1  0  0  0  0
  9 24  1  0  0  0  0
  7  8  1  0  0  0  0
  7  9  1  0  0  0  0
 28 29  1  0  0  0  0
 28 30  1  0  0  0  0
 28 31  1  0  0  0  0
 26 27  1  0  0  0  0
 26 28  1  0  0  0  0
M  END
$$$$
default_name
  -OEChem-02102213163D

 31 30  0     1  0  0  0  0  0999 V2000
   -3.5895   -3.5013    1.1082 H   0  0  0  0  0  0  0  0  0  0  0  0
   -3.5145   -2.5363    0.6082 C   0  0  0  0  0  0  0  0  0  0  0  0
   -4.2285   -1.8413    1.0452 H   0  0  0  0  0  0  0  0  0  0  0  0
   -3.7155   -2.6583   -0.4538 H   0  0  0  0  0  0  0  0  0  0  0  0
   -2.1155   -1.9963    0.7922 C   0  0  0  0  0  0  0  0  0  0  0  0
   -1.2875   -2.6383    1.4252 O   0  0  0  0  0  0  0  0  0  0  0  0
   -1.8575   -0.8123    0.2402 N   0  0  0  0  0  0  0  0  0  0  0  0
   -2.6005   -0.3333   -0.2478 H   0  0  0  0  0  0  0  0  0  0  0  0
   -0.5675   -0.1203    0.3102 C   0  0  1  0  0  0  0  0  0  0  0  0
    0.1932   -0.7715   -0.1219 H   0  0  0  0  0  0  0  0  0  0  0  0
   -0.6568    1.1713   -0.5294 C   0  0  0  0  0  0  0  0  0  0  0  0
   -1.5809    1.6919   -0.2709 H   0  0  0  0  0  0  0  0  0  0  0  0
    0.1772    1.8168   -0.2450 H   0  0  0  0  0  0  0  0  0  0  0  0
   -0.6162    0.9811   -2.0568 C   0  0  0  0  0  0  0  0  0  0  0  0
    0.4139    1.0407   -2.4080 H   0  0  0  0  0  0  0  0  0  0  0  0
   -1.2130   -0.3613   -2.4895 C   0  0  0  0  0  0  0  0  0  0  0  0
   -2.2400   -0.4429   -2.1311 H   0  0  0  0  0  0  0  0  0  0  0  0
   -1.2084   -0.4315   -3.5774 H   0  0  0  0  0  0  0  0  0  0  0  0
   -0.6300   -1.1878   -2.0888 H   0  0  0  0  0  0  0  0  0  0  0  0
   -1.4131    2.0937   -2.7370 C   0  0  0  0  0  0  0  0  0  0  0  0
   -0.9897    3.0625   -2.4720 H   0  0  0  0  0  0  0  0  0  0  0  0
   -1.3629    1.9771   -3.8195 H   0  0  0  0  0  0  0  0  0  0  0  0
   -2.4556    2.0574   -2.4190 H   0  0  0  0  0  0  0  0  0  0  0  0
   -0.1913    0.1554    1.7759 C   0  0  0  0  0  0  0  0  0  0  0  0
    0.9476   -0.0766    2.1748 O   0  0  0  0  0  0  0  0  0  0  0  0
   -1.1502    0.6393    2.5760 N   0  0  0  0  0  0  0  0  0  0  0  0
   -2.0581    0.8092    2.1736 H   0  0  0  0  0  0  0  0  0  0  0  0
   -0.9568    0.9369    3.9933 C   0  0  0  0  0  0  0  0  0  0  0  0
   -0.1600    1.6750    4.1097 H   0  0  0  0  0  0  0  0  0  0  0  0
   -1.8775    1.3307    4.4266 H   0  0  0  0  0  0  0  0  0  0  0  0
   -0.6678    0.0287    4.5244 H   0  0  0  0  0  0  0  0  0  0  0  0
  5  6  2  0  0  0  0
  5  7  1  0  0  0  0
  2  3  1  0  0  0  0
  2  4  1  0  0  0  0
  2  5  1  0  0  0  0
  1  2  1  0  0  0  0
 24 25  2  0  0  0  0
 24 26  1  0  0  0  0
 20 21  1  0  0  0  0
 20 22  1  0  0  0  0
 20 23  1  0  0  0  0
 16 17  1  0  0  0  0
 16 18  1  0  0  0  0
 16 19  1  0  0  0  0
 14 15  1  0  0  0  0
 14 16  1  0  0  0  0
 14 20  1  0  0  0  0
 11 12  1  0  0  0  0
 11 13  1  0  0  0  0
 11 14  1  0  0  0  0
  9 10  1  0  0  0  0
  9 11  1  0  0  0  0
  9 24  1  0  0  0  0
  7  8  1  0  0  0  0
  7  9  1  0  0  0  0
 28 29  1  0  0  0  0
 28 30  1  0  0  0  0
 28 31  1  0  0  0  0
 26 27  1  0  0  0  0
 26 28  1  0  0  0  0
M  END
$$$$
default_name
  -OEChem-02102213163D

 31 30  0     1  0  0  0  0  0999 V2000
   -3.5895   -3.5013    1.1082 H   0  0  0  0  0  0  0  0  0  0  0  0
   -3.5145   -2.5363    0.6082 C   0  0  0  0  0  0  0  0  0  0  0  0
   -4.2285   -1.8413    1.0452 H   0  0  0  0  0  0  0  0  0  0  0  0
   -3.7155   -2.6583   -0.4538 H   0  0  0  0  0  0  0  0  0  0  0  0
   -2.1155   -1.9963    0.7922 C   0  0  0  0  0  0  0  0  0  0  0  0
   -1.2875   -2.6383    1.4252 O   0  0  0  0  0  0  0  0  0  0  0  0
   -1.8575   -0.8123    0.2402 N   0  0  0  0  0  0  0  0  0  0  0  0
   -2.6005   -0.3333   -0.2478 H   0  0  0  0  0  0  0  0  0  0  0  0
   -0.5675   -0.1203    0.3102 C   0  0  1  0  0  0  0  0  0  0  0  0
    0.1932   -0.7715   -0.1219 H   0  0  0  0  0  0  0  0  0  0  0  0
   -0.6568    1.1713   -0.5294 C   0  0  0  0  0  0  0  0  0  0  0  0
   -1.5809    1.6919   -0.2709 H   0  0  0  0  0  0  0  0  0  0  0  0
    0.1772    1.8168   -0.2450 H   0  0  0  0  0  0  0  0  0  0  0  0
   -0.6162    0.9811   -2.0568 C   0  0  0  0  0  0  0  0  0  0  0  0
    0.4057    0.7750   -2.3752 H   0  0  0  0  0  0  0  0  0  0  0  0
   -1.5229   -0.1618   -2.5225 C   0  0  0  0  0  0  0  0  0  0  0  0
   -2.5477    0.0221   -2.1971 H   0  0  0  0  0  0  0  0  0  0  0  0
   -1.5008   -0.2280   -3.6105 H   0  0  0  0  0  0  0  0  0  0  0  0
   -1.1851   -1.1114   -2.1131 H   0  0  0  0  0  0  0  0  0  0  0  0
   -1.0780    2.2628   -2.7491 C   0  0  0  0  0  0  0  0  0  0  0  0
   -0.4292    3.0897   -2.4605 H   0  0  0  0  0  0  0  0  0  0  0  0
   -1.0239    2.1401   -3.8308 H   0  0  0  0  0  0  0  0  0  0  0  0
   -2.1049    2.4947   -2.4642 H   0  0  0  0  0  0  0  0  0  0  0  0
   -0.1913    0.1554    1.7759 C   0  0  0  0  0  0  0  0  0  0  0  0
    0.9476   -0.0766    2.1748 O   0  0  0  0  0  0  0  0  0  0  0  0
   -1.1502    0.6393    2.5760 N   0  0  0  0  0  0  0  0  0  0  0  0
   -2.0581    0.8092    2.1736 H   0  0  0  0  0  0  0  0  0  0  0  0
   -0.9568    0.9369    3.9933 C   0  0  0  0  0  0  0  0  0  0  0  0
   -0.1600    1.6750    4.1097 H   0  0  0  0  0  0  0  0  0  0  0  0
   -1.8775    1.3307    4.4266 H   0  0  0  0  0  0  0  0  0  0  0  0
   -0.6678    0.0287    4.5244 H   0  0  0  0  0  0  0  0  0  0  0  0
  5  6  2  0  0  0  0
  5  7  1  0  0  0  0
  2  3  1  0  0  0  0
  2  4  1  0  0  0  0
  2  5  1  0  0  0  0
  1  2  1  0  0  0  0
 24 25  2  0  0  0  0
 24 26  1  0  0  0  0
 20 21  1  0  0  0  0
 20 22  1  0  0  0  0
 20 23  1  0  0  0  0
 16 17  1  0  0  0  0
 16 18  1  0  0  0  0
 16 19  1  0  0  0  0
 14 15  1  0  0  0  0
 14 16  1  0  0  0  0
 14 20  1  0  0  0  0
 11 12  1  0  0  0  0
 11 13  1  0  0  0  0
 11 14  1  0  0  0  0
  9 10  1  0  0  0  0
  9 11  1  0  0  0  0
  9 24  1  0  0  0  0
  7  8  1  0  0  0  0
  7  9  1  0  0  0  0
 28 29  1  0  0  0  0
 28 30  1  0  0  0  0
 28 31  1  0  0  0  0
 26 27  1  0  0  0  0
 26 28  1  0  0  0  0
M  END
$$$$
default_name
  -OEChem-02102213163D

 31 30  0     1  0  0  0  0  0999 V2000
   -3.5895   -3.5013    1.1082 H   0  0  0  0  0  0  0  0  0  0  0  0
   -3.5145   -2.5363    0.6082 C   0  0  0  0  0  0  0  0  0  0  0  0
   -4.2285   -1.8413    1.0452 H   0  0  0  0  0  0  0  0  0  0  0  0
   -3.7155   -2.6583   -0.4538 H   0  0  0  0  0  0  0  0  0  0  0  0
   -2.1155   -1.9963    0.7922 C   0  0  0  0  0  0  0  0  0  0  0  0
   -1.2875   -2.6383    1.4252 O   0  0  0  0  0  0  0  0  0  0  0  0
   -1.8575   -0.8123    0.2402 N   0  0  0  0  0  0  0  0  0  0  0  0
   -2.6005   -0.3333   -0.2478 H   0  0  0  0  0  0  0  0  0  0  0  0
   -0.5675   -0.1203    0.3102 C   0  0  1  0  0  0  0  0  0  0  0  0
    0.1932   -0.7715   -0.1219 H   0  0  0  0  0  0  0  0  0  0  0  0
   -0.6568    1.1713   -0.5294 C   0  0  0  0  0  0  0  0  0  0  0  0
   -1.5809    1.6919   -0.2709 H   0  0  0  0  0  0  0  0  0  0  0  0
    0.1772    1.8168   -0.2450 H   0  0  0  0  0  0  0  0  0  0  0  0
   -0.6162    0.9811   -2.0568 C   0  0  0  0  0  0  0  0  0  0  0  0
    0.3285    0.5203   -2.3455 H   0  0  0  0  0  0  0  0  0  0  0  0
   -1.7701    0.1106   -2.5630 C   0  0  0  0  0  0  0  0  0  0  0  0
   -2.7235    0.5508   -2.2676 H   0  0  0  0  0  0  0  0  0  0  0  0
   -1.7299    0.0439   -3.6505 H   0  0  0  0  0  0  0  0  0  0  0  0
   -1.7009   -0.8949   -2.1537 H   0  0  0  0  0  0  0  0  0  0  0  0
   -0.7106    2.3403   -2.7490 C   0  0  0  0  0  0  0  0  0  0  0  0
    0.1188    2.9720   -2.4313 H   0  0  0  0  0  0  0  0  0  0  0  0
   -0.6543    2.2106   -3.8298 H   0  0  0  0  0  0  0  0  0  0  0  0
   -1.6524    2.8273   -2.4936 H   0  0  0  0  0  0  0  0  0  0  0  0
   -0.1913    0.1554    1.7759 C   0  0  0  0  0  0  0  0  0  0  0  0
    0.9476   -0.0766    2.1748 O   0  0  0  0  0  0  0  0  0  0  0  0
   -1.1502    0.6393    2.5760 N   0  0  0  0  0  0  0  0  0  0  0  0
   -2.0581    0.8092    2.1736 H   0  0  0  0  0  0  0  0  0  0  0  0
   -0.9568    0.9369    3.9933 C   0  0  0  0  0  0  0  0  0  0  0  0
   -0.1600    1.6750    4.1097 H   0  0  0  0  0  0  0  0  0  0  0  0
   -1.8775    1.3307    4.4266 H   0  0  0  0  0  0  0  0  0  0  0  0
   -0.6678    0.0287    4.5244 H   0  0  0  0  0  0  0  0  0  0  0  0
  5  6  2  0  0  0  0
  5  7  1  0  0  0  0
  2  3  1  0  0  0  0
  2  4  1  0  0  0  0
  2  5  1  0  0  0  0
  1  2  1  0  0  0  0
 24 25  2  0  0  0  0
 24 26  1  0  0  0  0
 20 21  1  0  0  0  0
 20 22  1  0  0  0  0
 20 23  1  0  0  0  0
 16 17  1  0  0  0  0
 16 18  1  0  0  0  0
 16 19  1  0  0  0  0
 14 15  1  0  0  0  0
 14 16  1  0  0  0  0
 14 20  1  0  0  0  0
 11 12  1  0  0  0  0
 11 13  1  0  0  0  0
 11 14  1  0  0  0  0
  9 10  1  0  0  0  0
  9 11  1  0  0  0  0
  9 24  1  0  0  0  0
  7  8  1  0  0  0  0
  7  9  1  0  0  0  0
 28 29  1  0  0  0  0
 28 30  1  0  0  0  0
 28 31  1  0  0  0  0
 26 27  1  0  0  0  0
 26 28  1  0  0  0  0
M  END
$$$$
default_name
  -OEChem-02102213163D

 31 30  0     1  0  0  0  0  0999 V2000
   -3.5895   -3.5013    1.1082 H   0  0  0  0  0  0  0  0  0  0  0  0
   -3.5145   -2.5363    0.6082 C   0  0  0  0  0  0  0  0  0  0  0  0
   -4.2285   -1.8413    1.0452 H   0  0  0  0  0  0  0  0  0  0  0  0
   -3.7155   -2.6583   -0.4538 H   0  0  0  0  0  0  0  0  0  0  0  0
   -2.1155   -1.9963    0.7922 C   0  0  0  0  0  0  0  0  0  0  0  0
   -1.2875   -2.6383    1.4252 O   0  0  0  0  0  0  0  0  0  0  0  0
   -1.8575   -0.8123    0.2402 N   0  0  0  0  0  0  0  0  0  0  0  0
   -2.6005   -0.3333   -0.2478 H   0  0  0  0  0  0  0  0  0  0  0  0
   -0.5675   -0.1203    0.3102 C   0  0  1  0  0  0  0  0  0  0  0  0
    0.1932   -0.7715   -0.1219 H   0  0  0  0  0  0  0  0  0  0  0  0
   -0.6568    1.1713   -0.5294 C   0  0  0  0  0  0  0  0  0  0  0  0
   -1.5809    1.6919   -0.2709 H   0  0  0  0  0  0  0  0  0  0  0  0
    0.1772    1.8168   -0.2450 H   0  0  0  0  0  0  0  0  0  0  0  0
   -0.6162    0.9811   -2.0568 C   0  0  0  0  0  0  0  0  0  0  0  0
    0.1875    0.2939   -2.3210 H   0  0  0  0  0  0  0  0  0  0  0  0
   -1.9375    0.4375   -2.6082 C   0  0  0  0  0  0  0  0  0  0  0  0
   -2.7552    1.1071   -2.3377 H   0  0  0  0  0  0  0  0  0  0  0  0
   -1.8801    0.3656   -3.6945 H   0  0  0  0  0  0  0  0  0  0  0  0
   -2.1423   -0.5531   -2.2080 H   0  0  0  0  0  0  0  0  0  0  0  0
   -0.3358    2.3207   -2.7367 C   0  0  0  0  0  0  0  0  0  0  0  0
    0.6170    2.7174   -2.3864 H   0  0  0  0  0  0  0  0  0  0  0  0
   -0.2792    2.1838   -3.8165 H   0  0  0  0  0  0  0  0  0  0  0  0
   -1.1289    3.0327   -2.5053 H   0  0  0  0  0  0  0  0  0  0  0  0
   -0.1913    0.1554    1.7759 C   0  0  0  0  0  0  0  0  0  0  0  0
    0.9476   -0.0766    2.1748 O   0  0  0  0  0  0  0  0  0  0  0  0
   -1.1502    0.6393    2.5760 N   0  0  0  0  0  0  0  0  0  0  0  0
   -2.0581    0.8092    2.1736 H   0  0  0  0  0  0  0  0  0  0  0  0
   -0.9568    0.9369    3.9933 C   0  0  0  0  0  0  0  0  0  0  0  0
   -0.1600    1.6750    4.1097 H   0  0  0  0  0  0  0  0  0  0  0  0
   -1.8775    1.3307    4.4266 H   0  0  0  0  0  0  0  0  0  0  0  0
   -0.6678    0.0287    4.5244 H   0  0  0  0  0  0  0  0  0  0  0  0
  5  6  2  0  0  0  0
  5  7  1  0  0  0  0
  2  3  1  0  0  0  0
  2  4  1  0  0  0  0
  2  5  1  0  0  0  0
  1  2  1  0  0  0  0
 24 25  2  0  0  0  0
 24 26  1  0  0  0  0
 20 21  1  0  0  0  0
 20 22  1  0  0  0  0
 20 23  1  0  0  0  0
 16 17  1  0  0  0  0
 16 18  1  0  0  0  0
 16 19  1  0  0  0  0
 14 15  1  0  0  0  0
 14 16  1  0  0  0  0
 14 20  1  0  0  0  0
 11 12  1  0  0  0  0
 11 13  1  0  0  0  0
 11 14  1  0  0  0  0
  9 10  1  0  0  0  0
  9 11  1  0  0  0  0
  9 24  1  0  0  0  0
  7  8  1  0  0  0  0
  7  9  1  0  0  0  0
 28 29  1  0  0  0  0
 28 30  1  0  0  0  0
 28 31  1  0  0  0  0
 26 27  1  0  0  0  0
 26 28  1  0  0  0  0
M  END
$$$$
default_name
  -OEChem-02102213163D

 31 30  0     1  0  0  0  0  0999 V2000
   -3.5895   -3.5013    1.1082 H   0  0  0  0  0  0  0  0  0  0  0  0
   -3.5145   -2.5363    0.6082 C   0  0  0  0  0  0  0  0  0  0  0  0
   -4.2285   -1.8413    1.0452 H   0  0  0  0  0  0  0  0  0  0  0  0
   -3.7155   -2.6583   -0.4538 H   0  0  0  0  0  0  0  0  0  0  0  0
   -2.1155   -1.9963    0.7922 C   0  0  0  0  0  0  0  0  0  0  0  0
   -1.2875   -2.6383    1.4252 O   0  0  0  0  0  0  0  0  0  0  0  0
   -1.8575   -0.8123    0.2402 N   0  0  0  0  0  0  0  0  0  0  0  0
   -2.6005   -0.3333   -0.2478 H   0  0  0  0  0  0  0  0  0  0  0  0
   -0.5675   -0.1203    0.3102 C   0  0  1  0  0  0  0  0  0  0  0  0
    0.1932   -0.7715   -0.1219 H   0  0  0  0  0  0  0  0  0  0  0  0
   -0.6568    1.1713   -0.5294 C   0  0  0  0  0  0  0  0  0  0  0  0
   -1.5809    1.6919   -0.2709 H   0  0  0  0  0  0  0  0  0  0  0  0
    0.1772    1.8168   -0.2450 H   0  0  0  0  0  0  0  0  0  0  0  0
   -0.6162    0.9811   -2.0568 C   0  0  0  0  0  0  0  0  0  0  0  0
   -0.0075    0.1112   -2.3035 H   0  0  0  0  0  0  0  0  0  0  0  0
   -2.0139    0.7966   -2.6549 C   0  0  0  0  0  0  0  0  0  0  0  0
   -2.6408    1.6530   -2.4027 H   0  0  0  0  0  0  0  0  0  0  0  0
   -1.9413    0.7152   -3.7397 H   0  0  0  0  0  0  0  0  0  0  0  0
   -2.4791   -0.1093   -2.2722 H   0  0  0  0  0  0  0  0  0  0  0  0
    0.0207    2.2056   -2.7129 C   0  0  0  0  0  0  0  0  0  0  0  0
    1.0315    2.3432   -2.3288 H   0  0  0  0  0  0  0  0  0  0  0  0
    0.0758    2.0615   -3.7919 H   0  0  0  0  0  0  0  0  0  0  0  0
   -0.5702    3.0967   -2.4984 H   0  0  0  0  0  0  0  0  0  0  0  0
   -0.1913    0.1554    1.7759 C   0  0  0  0  0  0  0  0  0  0  0  0
    0.9476   -0.0766    2.1748 O   0  0  0  0  0  0  0  0  0  0  0  0
   -1.1502    0.6393    2.5760 N   0  0  0  0  0  0  0  0  0  0  0  0
   -2.0581    0.8092    2.1736 H   0  0  0  0  0  0  0  0  0  0  0  0
   -0.9568    0.9369    3.9933 C   0  0  0  0  0  0  0  0  0  0  0  0
   -0.1600    1.6750    4.1097 H   0  0  0  0  0  0  0  0  0  0  0  0
   -1.8775    1.3307    4.4266 H   0  0  0  0  0  0  0  0  0  0  0  0
   -0.6678    0.0287    4.5244 H   0  0  0  0  0  0  0  0  0  0  0  0
  5  6  2  0  0  0  0
  5  7  1  0  0  0  0
  2  3  1  0  0  0  0
  2  4  1  0  0  0  0
  2  5  1  0  0  0  0
  1  2  1  0  0  0  0
 24 25  2  0  0  0  0
 24 26  1  0  0  0  0
 20 21  1  0  0  0  0
 20 22  1  0  0  0  0
 20 23  1  0  0  0  0
 16 17  1  0  0  0  0
 16 18  1  0  0  0  0
 16 19  1  0  0  0  0
 14 15  1  0  0  0  0
 14 16  1  0  0  0  0
 14 20  1  0  0  0  0
 11 12  1  0  0  0  0
 11 13  1  0  0  0  0
 11 14  1  0  0  0  0
  9 10  1  0  0  0  0
  9 11  1  0  0  0  0
  9 24  1  0  0  0  0
  7  8  1  0  0  0  0
  7  9  1  0  0  0  0
 28 29  1  0  0  0  0
 28 30  1  0  0  0  0
 28 31  1  0  0  0  0
 26 27  1  0  0  0  0
 26 28  1  0  0  0  0
M  END
$$$$
default_name
  -OEChem-02102213163D

 31 30  0     1  0  0  0  0  0999 V2000
   -3.5895   -3.5013    1.1082 H   0  0  0  0  0  0  0  0  0  0  0  0
   -3.5145   -2.5363    0.6082 C   0  0  0  0  0  0  0  0  0  0  0  0
   -4.2285   -1.8413    1.0452 H   0  0  0  0  0  0  0  0  0  0  0  0
   -3.7155   -2.6583   -0.4538 H   0  0  0  0  0  0  0  0  0  0  0  0
   -2.1155   -1.9963    0.7922 C   0  0  0  0  0  0  0  0  0  0  0  0
   -1.2875   -2.6383    1.4252 O   0  0  0  0  0  0  0  0  0  0  0  0
   -1.8575   -0.8123    0.2402 N   0  0  0  0  0  0  0  0  0  0  0  0
   -2.6005   -0.3333   -0.2478 H   0  0  0  0  0  0  0  0  0  0  0  0
   -0.5675   -0.1203    0.3102 C   0  0  1  0  0  0  0  0  0  0  0  0
    0.1932   -0.7715   -0.1219 H   0  0  0  0  0  0  0  0  0  0  0  0
   -0.6568    1.1713   -0.5294 C   0  0  0  0  0  0  0  0  0  0  0  0
   -1.5809    1.6919   -0.2709 H   0  0  0  0  0  0  0  0  0  0  0  0
    0.1772    1.8168   -0.2450 H   0  0  0  0  0  0  0  0  0  0  0  0
   -0.6162    0.9811   -2.0568 C   0  0  0  0  0  0  0  0  0  0  0  0
   -0.2434   -0.0153   -2.2940 H   0  0  0  0  0  0  0  0  0  0  0  0
   -1.9940    1.1634   -2.7001 C   0  0  0  0  0  0  0  0  0  0  0  0
   -2.3881    2.1514   -2.4581 H   0  0  0  0  0  0  0  0  0  0  0  0
   -1.9091    1.0689   -3.7829 H   0  0  0  0  0  0  0  0  0  0  0  0
   -2.6884    0.4064   -2.3420 H   0  0  0  0  0  0  0  0  0  0  0  0
    0.3349    2.0026   -2.6792 C   0  0  0  0  0  0  0  0  0  0  0  0
    1.3338    1.8750   -2.2624 H   0  0  0  0  0  0  0  0  0  0  0  0
    0.3865    1.8521   -3.7576 H   0  0  0  0  0  0  0  0  0  0  0  0
   -0.0143    3.0151   -2.4735 H   0  0  0  0  0  0  0  0  0  0  0  0
   -0.1913    0.1554    1.7759 C   0  0  0  0  0  0  0  0  0  0  0  0
    0.9476   -0.0766    2.1748 O   0  0  0  0  0  0  0  0  0  0  0  0
   -1.1502    0.6393    2.5760 N   0  0  0  0  0  0  0  0  0  0  0  0
   -2.0581    0.8092    2.1736 H   0  0  0  0  0  0  0  0  0  0  0  0
   -0.9568    0.9369    3.9933 C   0  0  0  0  0  0  0  0  0  0  0  0
   -0.1600    1.6750    4.1097 H   0  0  0  0  0  0  0  0  0  0  0  0
   -1.8775    1.3307    4.4266 H   0  0  0  0  0  0  0  0  0  0  0  0
   -0.6678    0.0287    4.5244 H   0  0  0  0  0  0  0  0  0  0  0  0
  5  6  2  0  0  0  0
  5  7  1  0  0  0  0
  2  3  1  0  0  0  0
  2  4  1  0  0  0  0
  2  5  1  0  0  0  0
  1  2  1  0  0  0  0
 24 25  2  0  0  0  0
 24 26  1  0  0  0  0
 20 21  1  0  0  0  0
 20 22  1  0  0  0  0
 20 23  1  0  0  0  0
 16 17  1  0  0  0  0
 16 18  1  0  0  0  0
 16 19  1  0  0  0  0
 14 15  1  0  0  0  0
 14 16  1  0  0  0  0
 14 20  1  0  0  0  0
 11 12  1  0  0  0  0
 11 13  1  0  0  0  0
 11 14  1  0  0  0  0
  9 10  1  0  0  0  0
  9 11  1  0  0  0  0
  9 24  1  0  0  0  0
  7  8  1  0  0  0  0
  7  9  1  0  0  0  0
 28 29  1  0  0  0  0
 28 30  1  0  0  0  0
 28 31  1  0  0  0  0
 26 27  1  0  0  0  0
 26 28  1  0  0  0  0
M  END
$$$$
default_name
  -OEChem-02102213163D

 31 30  0     1  0  0  0  0  0999 V2000
   -3.5895   -3.5013    1.1082 H   0  0  0  0  0  0  0  0  0  0  0  0
   -3.5145   -2.5363    0.6082 C   0  0  0  0  0  0  0  0  0  0  0  0
   -4.2285   -1.8413    1.0452 H   0  0  0  0  0  0  0  0  0  0  0  0
   -3.7155   -2.6583   -0.4538 H   0  0  0  0  0  0  0  0  0  0  0  0
   -2.1155   -1.9963    0.7922 C   0  0  0  0  0  0  0  0  0  0  0  0
   -1.2875   -2.6383    1.4252 O   0  0  0  0  0  0  0  0  0  0  0  0
   -1.8575   -0.8123    0.2402 N   0  0  0  0  0  0  0  0  0  0  0  0
   -2.6005   -0.3333   -0.2478 H   0  0  0  0  0  0  0  0  0  0  0  0
   -0.5675   -0.1203    0.3102 C   0  0  1  0  0  0  0  0  0  0  0  0
    0.1932   -0.7715   -0.1219 H   0  0  0  0  0  0  0  0  0  0  0  0
   -0.6568    1.1713   -0.5294 C   0  0  0  0  0  0  0  0  0  0  0  0
   -1.5809    1.6919   -0.2709 H   0  0  0  0  0  0  0  0  0  0  0  0
    0.1772    1.8168   -0.2450 H   0  0  0  0  0  0  0  0  0  0  0  0
   -0.6162    0.9811   -2.0568 C   0  0  0  0  0  0  0  0  0  0  0  0
   -0.5040   -0.0770   -2.2932 H   0  0  0  0  0  0  0  0  0  0  0  0
   -1.8792    1.5129   -2.7405 C   0  0  0  0  0  0  0  0  0  0  0  0
   -2.0142    2.5683   -2.5001 H   0  0  0  0  0  0  0  0  0  0  0  0
   -1.7858    1.4026   -3.8212 H   0  0  0  0  0  0  0  0  0  0  0  0
   -2.7559    0.9587   -2.4125 H   0  0  0  0  0  0  0  0  0  0  0  0
    0.5851    1.7257   -2.6381 C   0  0  0  0  0  0  0  0  0  0  0  0
    1.5036    1.3446   -2.1919 H   0  0  0  0  0  0  0  0  0  0  0  0
    0.6318    1.5698   -3.7159 H   0  0  0  0  0  0  0  0  0  0  0  0
    0.5008    2.7933   -2.4322 H   0  0  0  0  0  0  0  0  0  0  0  0
   -0.1913    0.1554    1.7759 C   0  0  0  0  0  0  0  0  0  0  0  0
    0.9476   -0.0766    2.1748 O   0  0  0  0  0  0  0  0  0  0  0  0
   -1.1502    0.6393    2.5760 N   0  0  0  0  0  0  0  0  0  0  0  0
   -2.0581    0.8092    2.1736 H   0  0  0  0  0  0  0  0  0  0  0  0
   -0.9568    0.9369    3.9933 C   0  0  0  0  0  0  0  0  0  0  0  0
   -0.1600    1.6750    4.1097 H   0  0  0  0  0  0  0  0  0  0  0  0
   -1.8775    1.3307    4.4266 H   0  0  0  0  0  0  0  0  0  0  0  0
   -0.6678    0.0287    4.5244 H   0  0  0  0  0  0  0  0  0  0  0  0
  5  6  2  0  0  0  0
  5  7  1  0  0  0  0
  2  3  1  0  0  0  0
  2  4  1  0  0  0  0
  2  5  1  0  0  0  0
  1  2  1  0  0  0  0
 24 25  2  0  0  0  0
 24 26  1  0  0  0  0
 20 21  1  0  0  0  0
 20 22  1  0  0  0  0
 20 23  1  0  0  0  0
 16 17  1  0  0  0  0
 16 18  1  0  0  0  0
 16 19  1  0  0  0  0
 14 15  1  0  0  0  0
 14 16  1  0  0  0  0
 14 20  1  0  0  0  0
 11 12  1  0  0  0  0
 11 13  1  0  0  0  0
 11 14  1  0  0  0  0
  9 10  1  0  0  0  0
  9 11  1  0  0  0  0
  9 24  1  0  0  0  0
  7  8  1  0  0  0  0
  7  9  1  0  0  0  0
 28 29  1  0  0  0  0
 28 30  1  0  0  0  0
 28 31  1  0  0  0  0
 26 27  1  0  0  0  0
 26 28  1  0  0  0  0
M  END
$$$$
default_name
  -OEChem-02102213163D

 31 30  0     1  0  0  0  0  0999 V2000
   -3.5895   -3.5013    1.1082 H   0  0  0  0  0  0  0  0  0  0  0  0
   -3.5145   -2.5363    0.6082 C   0  0  0  0  0  0  0  0  0  0  0  0
   -4.2285   -1.8413    1.0452 H   0  0  0  0  0  0  0  0  0  0  0  0
   -3.7155   -2.6583   -0.4538 H   0  0  0  0  0  0  0  0  0  0  0  0
   -2.1155   -1.9963    0.7922 C   0  0  0  0  0  0  0  0  0  0  0  0
   -1.2875   -2.6383    1.4252 O   0  0  0  0  0  0  0  0  0  0  0  0
   -1.8575   -0.8123    0.2402 N   0  0  0  0  0  0  0  0  0  0  0  0
   -2.6005   -0.3333   -0.2478 H   0  0  0  0  0  0  0  0  0  0  0  0
   -0.5675   -0.1203    0.3102 C   0  0  1  0  0  0  0  0  0  0  0  0
    0.1932   -0.7715   -0.1219 H   0  0  0  0  0  0  0  0  0  0  0  0
   -0.6568    1.1713   -0.5294 C   0  0  0  0  0  0  0  0  0  0  0  0
   -1.5809    1.6919   -0.2709 H   0  0  0  0  0  0  0  0  0  0  0  0
    0.1772    1.8168   -0.2450 H   0  0  0  0  0  0  0  0  0  0  0  0
   -0.6162    0.9811   -2.0568 C   0  0  0  0  0  0  0  0  0  0  0  0
   -0.7716   -0.0697   -2.3012 H   0  0  0  0  0  0  0  0  0  0  0  0
   -1.6772    1.8212   -2.7736 C   0  0  0  0  0  0  0  0  0  0  0  0
   -1.5447    2.8753   -2.5258 H   0  0  0  0  0  0  0  0  0  0  0  0
   -1.5798    1.6935   -3.8519 H   0  0  0  0  0  0  0  0  0  0  0  0
   -2.6772    1.5099   -2.4791 H   0  0  0  0  0  0  0  0  0  0  0  0
    0.7544    1.3936   -2.5923 C   0  0  0  0  0  0  0  0  0  0  0  0
    1.5292    0.7883   -2.1219 H   0  0  0  0  0  0  0  0  0  0  0  0
    0.7949    1.2338   -3.6697 H   0  0  0  0  0  0  0  0  0  0  0  0
    0.9402    2.4466   -2.3774 H   0  0  0  0  0  0  0  0  0  0  0  0
   -0.1913    0.1554    1.7759 C   0  0  0  0  0  0  0  0  0  0  0  0
    0.9476   -0.0766    2.1748 O   0  0  0  0  0  0  0  0  0  0  0  0
   -1.1502    0.6393    2.5760 N   0  0  0  0  0  0  0  0  0  0  0  0
   -2.0581    0.8092    2.1736 H   0  0  0  0  0  0  0  0  0  0  0  0
   -0.9568    0.9369    3.9933 C   0  0  0  0  0  0  0  0  0  0  0  0
   -0.1600    1.6750    4.1097 H   0  0  0  0  0  0  0  0  0  0  0  0
   -1.8775    1.3307    4.4266 H   0  0  0  0  0  0  0  0  0  0  0  0
   -0.6678    0.0287    4.5244 H   0  0  0  0  0  0  0  0  0  0  0  0
  5  6  2  0  0  0  0
  5  7  1  0  0  0  0
  2  3  1  0  0  0  0
  2  4  1  0  0  0  0
  2  5  1  0  0  0  0
  1  2  1  0  0  0  0
 24 25  2  0  0  0  0
 24 26  1  0  0  0  0
 20 21  1  0  0  0  0
 20 22  1  0  0  0  0
 20 23  1  0  0  0  0
 16 17  1  0  0  0  0
 16 18  1  0  0  0  0
 16 19  1  0  0  0  0
 14 15  1  0  0  0  0
 14 16  1  0  0  0  0
 14 20  1  0  0  0  0
 11 12  1  0  0  0  0
 11 13  1  0  0  0  0
 11 14  1  0  0  0  0
  9 10  1  0  0  0  0
  9 11  1  0  0  0  0
  9 24  1  0  0  0  0
  7  8  1  0  0  0  0
  7  9  1  0  0  0  0
 28 29  1  0  0  0  0
 28 30  1  0  0  0  0
 28 31  1  0  0  0  0
 26 27  1  0  0  0  0
 26 28  1  0  0  0  0
M  END
$$$$
default_name
  -OEChem-02102213163D

 31 30  0     1  0  0  0  0  0999 V2000
   -3.5895   -3.5013    1.1082 H   0  0  0  0  0  0  0  0  0  0  0  0
   -3.5145   -2.5363    0.6082 C   0  0  0  0  0  0  0  0  0  0  0  0
   -4.2285   -1.8413    1.0452 H   0  0  0  0  0  0  0  0  0  0  0  0
   -3.7155   -2.6583   -0.4538 H   0  0  0  0  0  0  0  0  0  0  0  0
   -2.1155   -1.9963    0.7922 C   0  0  0  0  0  0  0  0  0  0  0  0
   -1.2875   -2.6383    1.4252 O   0  0  0  0  0  0  0  0  0  0  0  0
   -1.8575   -0.8123    0.2402 N   0  0  0  0  0  0  0  0  0  0  0  0
   -2.6005   -0.3333   -0.2478 H   0  0  0  0  0  0  0  0  0  0  0  0
   -0.5675   -0.1203    0.3102 C   0  0  1  0  0  0  0  0  0  0  0  0
    0.1932   -0.7715   -0.1219 H   0  0  0  0  0  0  0  0  0  0  0  0
   -0.6568    1.1713   -0.5294 C   0  0  0  0  0  0  0  0  0  0  0  0
   -1.5809    1.6919   -0.2709 H   0  0  0  0  0  0  0  0  0  0  0  0
    0.1772    1.8168   -0.2450 H   0  0  0  0  0  0  0  0  0  0  0  0
   -0.6162    0.9811   -2.0568 C   0  0  0  0  0  0  0  0  0  0  0  0
   -1.0280    0.0061   -2.3174 H   0  0  0  0  0  0  0  0  0  0  0  0
   -1.4020    2.0674   -2.7969 C   0  0  0  0  0  0  0  0  0  0  0  0
   -1.0116    3.0514   -2.5336 H   0  0  0  0  0  0  0  0  0  0  0  0
   -1.3052    1.9218   -3.8731 H   0  0  0  0  0  0  0  0  0  0  0  0
   -2.4574    2.0227   -2.5371 H   0  0  0  0  0  0  0  0  0  0  0  0
    0.8312    1.0292   -2.5449 C   0  0  0  0  0  0  0  0  0  0  0  0
    1.4088    0.2439   -2.0573 H   0  0  0  0  0  0  0  0  0  0  0  0
    0.8647    0.8671   -3.6222 H   0  0  0  0  0  0  0  0  0  0  0  0
    1.2738    1.9984   -2.3127 H   0  0  0  0  0  0  0  0  0  0  0  0
   -0.1913    0.1554    1.7759 C   0  0  0  0  0  0  0  0  0  0  0  0
    0.9476   -0.0766    2.1748 O   0  0  0  0  0  0  0  0  0  0  0  0
   -1.1502    0.6393    2.5760 N   0  0  0  0  0  0  0  0  0  0  0  0
   -2.0581    0.8092    2.1736 H   0  0  0  0  0  0  0  0  0  0  0  0
   -0.9568    0.9369    3.9933 C   0  0  0  0  0  0  0  0  0  0  0  0
   -0.1600    1.6750    4.1097 H   0  0  0  0  0  0  0  0  0  0  0  0
   -1.8775    1.3307    4.4266 H   0  0  0  0  0  0  0  0  0  0  0  0
   -0.6678    0.0287    4.5244 H   0  0  0  0  0  0  0  0  0  0  0  0
  5  6  2  0  0  0  0
  5  7  1  0  0  0  0
  2  3  1  0  0  0  0
  2  4  1  0  0  0  0
  2  5  1  0  0  0  0
  1  2  1  0  0  0  0
 24 25  2  0  0  0  0
 24 26  1  0  0  0  0
 20 21  1  0  0  0  0
 20 22  1  0  0  0  0
 20 23  1  0  0  0  0
 16 17  1  0  0  0  0
 16 18  1  0  0  0  0
 16 19  1  0  0  0  0
 14 15  1  0  0  0  0
 14 16  1  0  0  0  0
 14 20  1  0  0  0  0
 11 12  1  0  0  0  0
 11 13  1  0  0  0  0
 11 14  1  0  0  0  0
  9 10  1  0  0  0  0
  9 11  1  0  0  0  0
  9 24  1  0  0  0  0
  7  8  1  0  0  0  0
  7  9  1  0  0  0  0
 28 29  1  0  0  0  0
 28 30  1  0  0  0  0
 28 31  1  0  0  0  0
 26 27  1  0  0  0  0
 26 28  1  0  0  0  0
M  END
$$$$
default_name
  -OEChem-02102213163D

 31 30  0     1  0  0  0  0  0999 V2000
   -3.5895   -3.5013    1.1082 H   0  0  0  0  0  0  0  0  0  0  0  0
   -3.5145   -2.5363    0.6082 C   0  0  0  0  0  0  0  0  0  0  0  0
   -4.2285   -1.8413    1.0452 H   0  0  0  0  0  0  0  0  0  0  0  0
   -3.7155   -2.6583   -0.4538 H   0  0  0  0  0  0  0  0  0  0  0  0
   -2.1155   -1.9963    0.7922 C   0  0  0  0  0  0  0  0  0  0  0  0
   -1.2875   -2.6383    1.4252 O   0  0  0  0  0  0  0  0  0  0  0  0
   -1.8575   -0.8123    0.2402 N   0  0  0  0  0  0  0  0  0  0  0  0
   -2.6005   -0.3333   -0.2478 H   0  0  0  0  0  0  0  0  0  0  0  0
   -0.5675   -0.1203    0.3102 C   0  0  1  0  0  0  0  0  0  0  0  0
    0.1932   -0.7715   -0.1219 H   0  0  0  0  0  0  0  0  0  0  0  0
   -0.6568    1.1713   -0.5294 C   0  0  0  0  0  0  0  0  0  0  0  0
   -1.5809    1.6919   -0.2709 H   0  0  0  0  0  0  0  0  0  0  0  0
    0.1772    1.8168   -0.2450 H   0  0  0  0  0  0  0  0  0  0  0  0
   -0.6162    0.9811   -2.0568 C   0  0  0  0  0  0  0  0  0  0  0  0
   -1.2556    0.1452   -2.3408 H   0  0  0  0  0  0  0  0  0  0  0  0
   -1.0721    2.2348   -2.8090 C   0  0  0  0  0  0  0  0  0  0  0  0
   -0.4511    3.0848   -2.5229 H   0  0  0  0  0  0  0  0  0  0  0  0
   -0.9806    2.0720   -3.8832 H   0  0  0  0  0  0  0  0  0  0  0  0
   -2.1116    2.4619   -2.5826 H   0  0  0  0  0  0  0  0  0  0  0  0
    0.8102    0.6571   -2.4991 C   0  0  0  0  0  0  0  0  0  0  0  0
    1.1506   -0.2515   -2.0025 H   0  0  0  0  0  0  0  0  0  0  0  0
    0.8365    0.4947   -3.5766 H   0  0  0  0  0  0  0  0  0  0  0  0
    1.4790    1.4795   -2.2427 H   0  0  0  0  0  0  0  0  0  0  0  0
   -0.1913    0.1554    1.7759 C   0  0  0  0  0  0  0  0  0  0  0  0
    0.9476   -0.0766    2.1748 O   0  0  0  0  0  0  0  0  0  0  0  0
   -1.1502    0.6393    2.5760 N   0  0  0  0  0  0  0  0  0  0  0  0
   -2.0581    0.8092    2.1736 H   0  0  0  0  0  0  0  0  0  0  0  0
   -0.9568    0.9369    3.9933 C   0  0  0  0  0  0  0  0  0  0  0  0
   -0.1600    1.6750    4.1097 H   0  0  0  0  0  0  0  0  0  0  0  0
   -1.8775    1.3307    4.4266 H   0  0  0  0  0  0  0  0  0  0  0  0
   -0.6678    0.0287    4.5244 H   0  0  0  0  0  0  0  0  0  0  0  0
  5  6  2  0  0  0  0
  5  7  1  0  0  0  0
  2  3  1  0  0  0  0
  2  4  1  0  0  0  0
  2  5  1  0  0  0  0
  1  2  1  0  0  0  0
 24 25  2  0  0  0  0
 24 26  1  0  0  0  0
 20 21  1  0  0  0  0
 20 22  1  0  0  0  0
 20 23  1  0  0  0  0
 16 17  1  0  0  0  0
 16 18  1  0  0  0  0
 16 19  1  0  0  0  0
 14 15  1  0  0  0  0
 14 16  1  0  0  0  0
 14 20  1  0  0  0  0
 11 12  1  0  0  0  0
 11 13  1  0  0  0  0
 11 14  1  0  0  0  0
  9 10  1  0  0  0  0
  9 11  1  0  0  0  0
  9 24  1  0  0  0  0
  7  8  1  0  0  0  0
  7  9  1  0  0  0  0
 28 29  1  0  0  0  0
 28 30  1  0  0  0  0
 28 31  1  0  0  0  0
 26 27  1  0  0  0  0
 26 28  1  0  0  0  0
M  END
$$$$
default_name
  -OEChem-02102213163D

 31 30  0     1  0  0  0  0  0999 V2000
   -3.5895   -3.5013    1.1082 H   0  0  0  0  0  0  0  0  0  0  0  0
   -3.5145   -2.5363    0.6082 C   0  0  0  0  0  0  0  0  0  0  0  0
   -4.2285   -1.8413    1.0452 H   0  0  0  0  0  0  0  0  0  0  0  0
   -3.7155   -2.6583   -0.4538 H   0  0  0  0  0  0  0  0  0  0  0  0
   -2.1155   -1.9963    0.7922 C   0  0  0  0  0  0  0  0  0  0  0  0
   -1.2875   -2.6383    1.4252 O   0  0  0  0  0  0  0  0  0  0  0  0
   -1.8575   -0.8123    0.2402 N   0  0  0  0  0  0  0  0  0  0  0  0
   -2.6005   -0.3333   -0.2478 H   0  0  0  0  0  0  0  0  0  0  0  0
   -0.5675   -0.1203    0.3102 C   0  0  1  0  0  0  0  0  0  0  0  0
    0.1932   -0.7715   -0.1219 H   0  0  0  0  0  0  0  0  0  0  0  0
   -0.6568    1.1713   -0.5294 C   0  0  0  0  0  0  0  0  0  0  0  0
   -1.4207    1.8181   -0.0938 H   0  0  0  0  0  0  0  0  0  0  0  0
    0.3006    1.6913   -0.4513 H   0  0  0  0  0  0  0  0  0  0  0  0
   -0.9766    0.9781   -2.0231 C   0  0  0  0  0  0  0  0  0  0  0  0
   -1.9291    0.4592   -2.1315 H   0  0  0  0  0  0  0  0  0  0  0  0
   -1.0459    2.3090   -2.7776 C   0  0  0  0  0  0  0  0  0  0  0  0
   -0.1043    2.8481   -2.6650 H   0  0  0  0  0  0  0  0  0  0  0  0
   -1.2250    2.1217   -3.8366 H   0  0  0  0  0  0  0  0  0  0  0  0
   -1.8564    2.9257   -2.3952 H   0  0  0  0  0  0  0  0  0  0  0  0
    0.1064    0.1203   -2.6763 C   0  0  0  0  0  0  0  0  0  0  0  0
    0.1567   -0.8482   -2.1789 H   0  0  0  0  0  0  0  0  0  0  0  0
   -0.1322   -0.0410   -3.7275 H   0  0  0  0  0  0  0  0  0  0  0  0
    1.0751    0.6153   -2.5990 H   0  0  0  0  0  0  0  0  0  0  0  0
   -0.1913    0.1554    1.7759 C   0  0  0  0  0  0  0  0  0  0  0  0
    0.9476   -0.0766    2.1748 O   0  0  0  0  0  0  0  0  0  0  0  0
   -1.1502    0.6393    2.5760 N   0  0  0  0  0  0  0  0  0  0  0  0
   -2.0581    0.8092    2.1736 H   0  0  0  0  0  0  0  0  0  0  0  0
   -0.9568    0.9369    3.9933 C   0  0  0  0  0  0  0  0  0  0  0  0
   -0.1600    1.6750    4.1097 H   0  0  0  0  0  0  0  0  0  0  0  0
   -1.8775    1.3307    4.4266 H   0  0  0  0  0  0  0  0  0  0  0  0
   -0.6678    0.0287    4.5244 H   0  0  0  0  0  0  0  0  0  0  0  0
  5  6  2  0  0  0  0
  5  7  1  0  0  0  0
  2  3  1  0  0  0  0
  2  4  1  0  0  0  0
  2  5  1  0  0  0  0
  1  2  1  0  0  0  0
 24 25  2  0  0  0  0
 24 26  1  0  0  0  0
 20 21  1  0  0  0  0
 20 22  1  0  0  0  0
 20 23  1  0  0  0  0
 16 17  1  0  0  0  0
 16 18  1  0  0  0  0
 16 19  1  0  0  0  0
 14 15  1  0  0  0  0
 14 16  1  0  0  0  0
 14 20  1  0  0  0  0
 11 12  1  0  0  0  0
 11 13  1  0  0  0  0
 11 14  1  0  0  0  0
  9 10  1  0  0  0  0
  9 11  1  0  0  0  0
  9 24  1  0  0  0  0
  7  8  1  0  0  0  0
  7  9  1  0  0  0  0
 28 29  1  0  0  0  0
 28 30  1  0  0  0  0
 28 31  1  0  0  0  0
 26 27  1  0  0  0  0
 26 28  1  0  0  0  0
M  END
$$$$
default_name
  -OEChem-02102213163D

 31 30  0     1  0  0  0  0  0999 V2000
   -3.5895   -3.5013    1.1082 H   0  0  0  0  0  0  0  0  0  0  0  0
   -3.5145   -2.5363    0.6082 C   0  0  0  0  0  0  0  0  0  0  0  0
   -4.2285   -1.8413    1.0452 H   0  0  0  0  0  0  0  0  0  0  0  0
   -3.7155   -2.6583   -0.4538 H   0  0  0  0  0  0  0  0  0  0  0  0
   -2.1155   -1.9963    0.7922 C   0  0  0  0  0  0  0  0  0  0  0  0
   -1.2875   -2.6383    1.4252 O   0  0  0  0  0  0  0  0  0  0  0  0
   -1.8575   -0.8123    0.2402 N   0  0  0  0  0  0  0  0  0  0  0  0
   -2.6005   -0.3333   -0.2478 H   0  0  0  0  0  0  0  0  0  0  0  0
   -0.5675   -0.1203    0.3102 C   0  0  1  0  0  0  0  0  0  0  0  0
    0.1932   -0.7715   -0.1219 H   0  0  0  0  0  0  0  0  0  0  0  0
   -0.6568    1.1713   -0.5294 C   0  0  0  0  0  0  0  0  0  0  0  0
   -1.4207    1.8181   -0.0938 H   0  0  0  0  0  0  0  0  0  0  0  0
    0.3006    1.6913   -0.4513 H   0  0  0  0  0  0  0  0  0  0  0  0
   -0.9766    0.9781   -2.0231 C   0  0  0  0  0  0  0  0  0  0  0  0
   -2.0260    0.7086   -2.1430 H   0  0  0  0  0  0  0  0  0  0  0  0
   -0.6889    2.2380   -2.8449 C   0  0  0  0  0  0  0  0  0  0  0  0
    0.3549    2.5300   -2.7222 H   0  0  0  0  0  0  0  0  0  0  0  0
   -0.8823    2.0405   -3.8995 H   0  0  0  0  0  0  0  0  0  0  0  0
   -1.3274    3.0589   -2.5257 H   0  0  0  0  0  0  0  0  0  0  0  0
   -0.1283   -0.1597   -2.5898 C   0  0  0  0  0  0  0  0  0  0  0  0
   -0.3365   -1.0796   -2.0434 H   0  0  0  0  0  0  0  0  0  0  0  0
   -0.3728   -0.3168   -3.6403 H   0  0  0  0  0  0  0  0  0  0  0  0
    0.9316    0.0808   -2.4991 H   0  0  0  0  0  0  0  0  0  0  0  0
   -0.1913    0.1554    1.7759 C   0  0  0  0  0  0  0  0  0  0  0  0
    0.9476   -0.0766    2.1748 O   0  0  0  0  0  0  0  0  0  0  0  0
   -1.1502    0.6393    2.5760 N   0  0  0  0  0  0  0  0  0  0  0  0
   -2.0581    0.8092    2.1736 H   0  0  0  0  0  0  0  0  0  0  0  0
   -0.9568    0.9369    3.9933 C   0  0  0  0  0  0  0  0  0  0  0  0
   -0.1600    1.6750    4.1097 H   0  0  0  0  0  0  0  0  0  0  0  0
   -1.8775    1.3307    4.4266 H   0  0  0  0  0  0  0  0  0  0  0  0
   -0.6678    0.0287    4.5244 H   0  0  0  0  0  0  0  0  0  0  0  0
  5  6  2  0  0  0  0
  5  7  1  0  0  0  0
  2  3  1  0  0  0  0
  2  4  1  0  0  0  0
  2  5  1  0  0  0  0
  1  2  1  0  0  0  0
 24 25  2  0  0  0  0
 24 26  1  0  0  0  0
 20 21  1  0  0  0  0
 20 22  1  0  0  0  0
 20 23  1  0  0  0  0
 16 17  1  0  0  0  0
 16 18  1  0  0  0  0
 16 19  1  0  0  0  0
 14 15  1  0  0  0  0
 14 16  1  0  0  0  0
 14 20  1  0  0  0  0
 11 12  1  0  0  0  0
 11 13  1  0  0  0  0
 11 14  1  0  0  0  0
  9 10  1  0  0  0  0
  9 11  1  0  0  0  0
  9 24  1  0  0  0  0
  7  8  1  0  0  0  0
  7  9  1  0  0  0  0
 28 29  1  0  0  0  0
 28 30  1  0  0  0  0
 28 31  1  0  0  0  0
 26 27  1  0  0  0  0
 26 28  1  0  0  0  0
M  END
$$$$
default_name
  -OEChem-02102213163D

 31 30  0     1  0  0  0  0  0999 V2000
   -3.5895   -3.5013    1.1082 H   0  0  0  0  0  0  0  0  0  0  0  0
   -3.5145   -2.5363    0.6082 C   0  0  0  0  0  0  0  0  0  0  0  0
   -4.2285   -1.8413    1.0452 H   0  0  0  0  0  0  0  0  0  0  0  0
   -3.7155   -2.6583   -0.4538 H   0  0  0  0  0  0  0  0  0  0  0  0
   -2.1155   -1.9963    0.7922 C   0  0  0  0  0  0  0  0  0  0  0  0
   -1.2875   -2.6383    1.4252 O   0  0  0  0  0  0  0  0  0  0  0  0
   -1.8575   -0.8123    0.2402 N   0  0  0  0  0  0  0  0  0  0  0  0
   -2.6005   -0.3333   -0.2478 H   0  0  0  0  0  0  0  0  0  0  0  0
   -0.5675   -0.1203    0.3102 C   0  0  1  0  0  0  0  0  0  0  0  0
    0.1932   -0.7715   -0.1219 H   0  0  0  0  0  0  0  0  0  0  0  0
   -0.6568    1.1713   -0.5294 C   0  0  0  0  0  0  0  0  0  0  0  0
   -1.4207    1.8181   -0.0938 H   0  0  0  0  0  0  0  0  0  0  0  0
    0.3006    1.6913   -0.4513 H   0  0  0  0  0  0  0  0  0  0  0  0
   -0.9766    0.9781   -2.0231 C   0  0  0  0  0  0  0  0  0  0  0  0
   -2.0566    0.9733   -2.1707 H   0  0  0  0  0  0  0  0  0  0  0  0
   -0.3598    2.0761   -2.8944 C   0  0  0  0  0  0  0  0  0  0  0  0
    0.7204    2.1043   -2.7454 H   0  0  0  0  0  0  0  0  0  0  0  0
   -0.5697    1.8726   -3.9447 H   0  0  0  0  0  0  0  0  0  0  0  0
   -0.7788    3.0478   -2.6418 H   0  0  0  0  0  0  0  0  0  0  0  0
   -0.4281   -0.3666   -2.4988 C   0  0  0  0  0  0  0  0  0  0  0  0
   -0.8753   -1.1719   -1.9160 H   0  0  0  0  0  0  0  0  0  0  0  0
   -0.6774   -0.5181   -3.5491 H   0  0  0  0  0  0  0  0  0  0  0  0
    0.6554   -0.3941   -2.3785 H   0  0  0  0  0  0  0  0  0  0  0  0
   -0.1913    0.1554    1.7759 C   0  0  0  0  0  0  0  0  0  0  0  0
    0.9476   -0.0766    2.1748 O   0  0  0  0  0  0  0  0  0  0  0  0
   -1.1502    0.6393    2.5760 N   0  0  0  0  0  0  0  0  0  0  0  0
   -2.0581    0.8092    2.1736 H   0  0  0  0  0  0  0  0  0  0  0  0
   -0.9568    0.9369    3.9933 C   0  0  0  0  0  0  0  0  0  0  0  0
   -0.1600    1.6750    4.1097 H   0  0  0  0  0  0  0  0  0  0  0  0
   -1.8775    1.3307    4.4266 H   0  0  0  0  0  0  0  0  0  0  0  0
   -0.6678    0.0287    4.5244 H   0  0  0  0  0  0  0  0  0  0  0  0
  5  6  2  0  0  0  0
  5  7  1  0  0  0  0
  2  3  1  0  0  0  0
  2  4  1  0  0  0  0
  2  5  1  0  0  0  0
  1  2  1  0  0  0  0
 24 25  2  0  0  0  0
 24 26  1  0  0  0  0
 20 21  1  0  0  0  0
 20 22  1  0  0  0  0
 20 23  1  0  0  0  0
 16 17  1  0  0  0  0
 16 18  1  0  0  0  0
 16 19  1  0  0  0  0
 14 15  1  0  0  0  0
 14 16  1  0  0  0  0
 14 20  1  0  0  0  0
 11 12  1  0  0  0  0
 11 13  1  0  0  0  0
 11 14  1  0  0  0  0
  9 10  1  0  0  0  0
  9 11  1  0  0  0  0
  9 24  1  0  0  0  0
  7  8  1  0  0  0  0
  7  9  1  0  0  0  0
 28 29  1  0  0  0  0
 28 30  1  0  0  0  0
 28 31  1  0  0  0  0
 26 27  1  0  0  0  0
 26 28  1  0  0  0  0
M  END
$$$$
default_name
  -OEChem-02102213163D

 31 30  0     1  0  0  0  0  0999 V2000
   -3.5895   -3.5013    1.1082 H   0  0  0  0  0  0  0  0  0  0  0  0
   -3.5145   -2.5363    0.6082 C   0  0  0  0  0  0  0  0  0  0  0  0
   -4.2285   -1.8413    1.0452 H   0  0  0  0  0  0  0  0  0  0  0  0
   -3.7155   -2.6583   -0.4538 H   0  0  0  0  0  0  0  0  0  0  0  0
   -2.1155   -1.9963    0.7922 C   0  0  0  0  0  0  0  0  0  0  0  0
   -1.2875   -2.6383    1.4252 O   0  0  0  0  0  0  0  0  0  0  0  0
   -1.8575   -0.8123    0.2402 N   0  0  0  0  0  0  0  0  0  0  0  0
   -2.6005   -0.3333   -0.2478 H   0  0  0  0  0  0  0  0  0  0  0  0
   -0.5675   -0.1203    0.3102 C   0  0  1  0  0  0  0  0  0  0  0  0
    0.1932   -0.7715   -0.1219 H   0  0  0  0  0  0  0  0  0  0  0  0
   -0.6568    1.1713   -0.5294 C   0  0  0  0  0  0  0  0  0  0  0  0
   -1.4207    1.8181   -0.0938 H   0  0  0  0  0  0  0  0  0  0  0  0
    0.3006    1.6913   -0.4513 H   0  0  0  0  0  0  0  0  0  0  0  0
   -0.9766    0.9781   -2.0231 C   0  0  0  0  0  0  0  0  0  0  0  0
   -2.0188    1.2351   -2.2127 H   0  0  0  0  0  0  0  0  0  0  0  0
   -0.0809    1.8345   -2.9229 C   0  0  0  0  0  0  0  0  0  0  0  0
    0.9674    1.6001   -2.7331 H   0  0  0  0  0  0  0  0  0  0  0  0
   -0.3083    1.6295   -3.9692 H   0  0  0  0  0  0  0  0  0  0  0  0
   -0.2479    2.8930   -2.7354 H   0  0  0  0  0  0  0  0  0  0  0  0
   -0.7727   -0.4863   -2.4096 C   0  0  0  0  0  0  0  0  0  0  0  0
   -1.4230   -1.1189   -1.8056 H   0  0  0  0  0  0  0  0  0  0  0  0
   -1.0251   -0.6312   -3.4600 H   0  0  0  0  0  0  0  0  0  0  0  0
    0.2656   -0.7770   -2.2455 H   0  0  0  0  0  0  0  0  0  0  0  0
   -0.1913    0.1554    1.7759 C   0  0  0  0  0  0  0  0  0  0  0  0
    0.9476   -0.0766    2.1748 O   0  0  0  0  0  0  0  0  0  0  0  0
   -1.1502    0.6393    2.5760 N   0  0  0  0  0  0  0  0  0  0  0  0
   -2.0581    0.8092    2.1736 H   0  0  0  0  0  0  0  0  0  0  0  0
   -0.9568    0.9369    3.9933 C   0  0  0  0  0  0  0  0  0  0  0  0
   -0.1600    1.6750    4.1097 H   0  0  0  0  0  0  0  0  0  0  0  0
   -1.8775    1.3307    4.4266 H   0  0  0  0  0  0  0  0  0  0  0  0
   -0.6678    0.0287    4.5244 H   0  0  0  0  0  0  0  0  0  0  0  0
  5  6  2  0  0  0  0
  5  7  1  0  0  0  0
  2  3  1  0  0  0  0
  2  4  1  0  0  0  0
  2  5  1  0  0  0  0
  1  2  1  0  0  0  0
 24 25  2  0  0  0  0
 24 26  1  0  0  0  0
 20 21  1  0  0  0  0
 20 22  1  0  0  0  0
 20 23  1  0  0  0  0
 16 17  1  0  0  0  0
 16 18  1  0  0  0  0
 16 19  1  0  0  0  0
 14 15  1  0  0  0  0
 14 16  1  0  0  0  0
 14 20  1  0  0  0  0
 11 12  1  0  0  0  0
 11 13  1  0  0  0  0
 11 14  1  0  0  0  0
  9 10  1  0  0  0  0
  9 11  1  0  0  0  0
  9 24  1  0  0  0  0
  7  8  1  0  0  0  0
  7  9  1  0  0  0  0
 28 29  1  0  0  0  0
 28 30  1  0  0  0  0
 28 31  1  0  0  0  0
 26 27  1  0  0  0  0
 26 28  1  0  0  0  0
M  END
$$$$
default_name
  -OEChem-02102213163D

 31 30  0     1  0  0  0  0  0999 V2000
   -3.5895   -3.5013    1.1082 H   0  0  0  0  0  0  0  0  0  0  0  0
   -3.5145   -2.5363    0.6082 C   0  0  0  0  0  0  0  0  0  0  0  0
   -4.2285   -1.8413    1.0452 H   0  0  0  0  0  0  0  0  0  0  0  0
   -3.7155   -2.6583   -0.4538 H   0  0  0  0  0  0  0  0  0  0  0  0
   -2.1155   -1.9963    0.7922 C   0  0  0  0  0  0  0  0  0  0  0  0
   -1.2875   -2.6383    1.4252 O   0  0  0  0  0  0  0  0  0  0  0  0
   -1.8575   -0.8123    0.2402 N   0  0  0  0  0  0  0  0  0  0  0  0
   -2.6005   -0.3333   -0.2478 H   0  0  0  0  0  0  0  0  0  0  0  0
   -0.5675   -0.1203    0.3102 C   0  0  1  0  0  0  0  0  0  0  0  0
    0.1932   -0.7715   -0.1219 H   0  0  0  0  0  0  0  0  0  0  0  0
   -0.6568    1.1713   -0.5294 C   0  0  0  0  0  0  0  0  0  0  0  0
   -1.4207    1.8181   -0.0938 H   0  0  0  0  0  0  0  0  0  0  0  0
    0.3006    1.6913   -0.4513 H   0  0  0  0  0  0  0  0  0  0  0  0
   -0.9766    0.9781   -2.0231 C   0  0  0  0  0  0  0  0  0  0  0  0
   -1.9152    1.4762   -2.2661 H   0  0  0  0  0  0  0  0  0  0  0  0
    0.1287    1.5296   -2.9283 C   0  0  0  0  0  0  0  0  0  0  0  0
    1.0789    1.0518   -2.6860 H   0  0  0  0  0  0  0  0  0  0  0  0
   -0.1161    1.3278   -3.9714 H   0  0  0  0  0  0  0  0  0  0  0  0
    0.2291    2.6053   -2.8003 H   0  0  0  0  0  0  0  0  0  0  0  0
   -1.1384   -0.5106   -2.3281 C   0  0  0  0  0  0  0  0  0  0  0  0
   -1.9425   -0.9243   -1.7195 H   0  0  0  0  0  0  0  0  0  0  0  0
   -1.3922   -0.6483   -3.3792 H   0  0  0  0  0  0  0  0  0  0  0  0
   -0.2115   -1.0418   -2.1091 H   0  0  0  0  0  0  0  0  0  0  0  0
   -0.1913    0.1554    1.7759 C   0  0  0  0  0  0  0  0  0  0  0  0
    0.9476   -0.0766    2.1748 O   0  0  0  0  0  0  0  0  0  0  0  0
   -1.1502    0.6393    2.5760 N   0  0  0  0  0  0  0  0  0  0  0  0
   -2.0581    0.8092    2.1736 H   0  0  0  0  0  0  0  0  0  0  0  0
   -0.9568    0.9369    3.9933 C   0  0  0  0  0  0  0  0  0  0  0  0
   -0.1600    1.6750    4.1097 H   0  0  0  0  0  0  0  0  0  0  0  0
   -1.8775    1.3307    4.4266 H   0  0  0  0  0  0  0  0  0  0  0  0
   -0.6678    0.0287    4.5244 H   0  0  0  0  0  0  0  0  0  0  0  0
  5  6  2  0  0  0  0
  5  7  1  0  0  0  0
  2  3  1  0  0  0  0
  2  4  1  0  0  0  0
  2  5  1  0  0  0  0
  1  2  1  0  0  0  0
 24 25  2  0  0  0  0
 24 26  1  0  0  0  0
 20 21  1  0  0  0  0
 20 22  1  0  0  0  0
 20 23  1  0  0  0  0
 16 17  1  0  0  0  0
 16 18  1  0  0  0  0
 16 19  1  0  0  0  0
 14 15  1  0  0  0  0
 14 16  1  0  0  0  0
 14 20  1  0  0  0  0
 11 12  1  0  0  0  0
 11 13  1  0  0  0  0
 11 14  1  0  0  0  0
  9 10  1  0  0  0  0
  9 11  1  0  0  0  0
  9 24  1  0  0  0  0
  7  8  1  0  0  0  0
  7  9  1  0  0  0  0
 28 29  1  0  0  0  0
 28 30  1  0  0  0  0
 28 31  1  0  0  0  0
 26 27  1  0  0  0  0
 26 28  1  0  0  0  0
M  END
$$$$
default_name
  -OEChem-02102213163D

 31 30  0     1  0  0  0  0  0999 V2000
   -3.5895   -3.5013    1.1082 H   0  0  0  0  0  0  0  0  0  0  0  0
   -3.5145   -2.5363    0.6082 C   0  0  0  0  0  0  0  0  0  0  0  0
   -4.2285   -1.8413    1.0452 H   0  0  0  0  0  0  0  0  0  0  0  0
   -3.7155   -2.6583   -0.4538 H   0  0  0  0  0  0  0  0  0  0  0  0
   -2.1155   -1.9963    0.7922 C   0  0  0  0  0  0  0  0  0  0  0  0
   -1.2875   -2.6383    1.4252 O   0  0  0  0  0  0  0  0  0  0  0  0
   -1.8575   -0.8123    0.2402 N   0  0  0  0  0  0  0  0  0  0  0  0
   -2.6005   -0.3333   -0.2478 H   0  0  0  0  0  0  0  0  0  0  0  0
   -0.5675   -0.1203    0.3102 C   0  0  1  0  0  0  0  0  0  0  0  0
    0.1932   -0.7715   -0.1219 H   0  0  0  0  0  0  0  0  0  0  0  0
   -0.6568    1.1713   -0.5294 C   0  0  0  0  0  0  0  0  0  0  0  0
   -1.4207    1.8181   -0.0938 H   0  0  0  0  0  0  0  0  0  0  0  0
    0.3006    1.6913   -0.4513 H   0  0  0  0  0  0  0  0  0  0  0  0
   -0.9766    0.9781   -2.0231 C   0  0  0  0  0  0  0  0  0  0  0  0
   -1.7529    1.6803   -2.3272 H   0  0  0  0  0  0  0  0  0  0  0  0
    0.2548    1.1822   -2.9104 C   0  0  0  0  0  0  0  0  0  0  0  0
    1.0474    0.4966   -2.6075 H   0  0  0  0  0  0  0  0  0  0  0  0
   -0.0062    0.9879   -3.9510 H   0  0  0  0  0  0  0  0  0  0  0  0
    0.6197    2.2040   -2.8321 H   0  0  0  0  0  0  0  0  0  0  0  0
   -1.5004   -0.4379   -2.2600 C   0  0  0  0  0  0  0  0  0  0  0  0
   -2.3981   -0.6013   -1.6638 H   0  0  0  0  0  0  0  0  0  0  0  0
   -1.7537   -0.5683   -3.3121 H   0  0  0  0  0  0  0  0  0  0  0  0
   -0.7432   -1.1705   -1.9786 H   0  0  0  0  0  0  0  0  0  0  0  0
   -0.1913    0.1554    1.7759 C   0  0  0  0  0  0  0  0  0  0  0  0
    0.9476   -0.0766    2.1748 O   0  0  0  0  0  0  0  0  0  0  0  0
   -1.1502    0.6393    2.5760 N   0  0  0  0  0  0  0  0  0  0  0  0
   -2.0581    0.8092    2.1736 H   0  0  0  0  0  0  0  0  0  0  0  0
   -0.9568    0.9369    3.9933 C   0  0  0  0  0  0  0  0  0  0  0  0
   -0.1600    1.6750    4.1097 H   0  0  0  0  0  0  0  0  0  0  0  0
   -1.8775    1.3307    4.4266 H   0  0  0  0  0  0  0  0  0  0  0  0
   -0.6678    0.0287    4.5244 H   0  0  0  0  0  0  0  0  0  0  0  0
  5  6  2  0  0  0  0
  5  7  1  0  0  0  0
  2  3  1  0  0  0  0
  2  4  1  0  0  0  0
  2  5  1  0  0  0  0
  1  2  1  0  0  0  0
 24 25  2  0  0  0  0
 24 26  1  0  0  0  0
 20 21  1  0  0  0  0
 20 22  1  0  0  0  0
 20 23  1  0  0  0  0
 16 17  1  0  0  0  0
 16 18  1  0  0  0  0
 16 19  1  0  0  0  0
 14 15  1  0  0  0  0
 14 16  1  0  0  0  0
 14 20  1  0  0  0  0
 11 12  1  0  0  0  0
 11 13  1  0  0  0  0
 11 14  1  0  0  0  0
  9 10  1  0  0  0  0
  9 11  1  0  0  0  0
  9 24  1  0  0  0  0
  7  8  1  0  0  0  0
  7  9  1  0  0  0  0
 28 29  1  0  0  0  0
 28 30  1  0  0  0  0
 28 31  1  0  0  0  0
 26 27  1  0  0  0  0
 26 28  1  0  0  0  0
M  END
$$$$
default_name
  -OEChem-02102213163D

 31 30  0     1  0  0  0  0  0999 V2000
   -3.5895   -3.5013    1.1082 H   0  0  0  0  0  0  0  0  0  0  0  0
   -3.5145   -2.5363    0.6082 C   0  0  0  0  0  0  0  0  0  0  0  0
   -4.2285   -1.8413    1.0452 H   0  0  0  0  0  0  0  0  0  0  0  0
   -3.7155   -2.6583   -0.4538 H   0  0  0  0  0  0  0  0  0  0  0  0
   -2.1155   -1.9963    0.7922 C   0  0  0  0  0  0  0  0  0  0  0  0
   -1.2875   -2.6383    1.4252 O   0  0  0  0  0  0  0  0  0  0  0  0
   -1.8575   -0.8123    0.2402 N   0  0  0  0  0  0  0  0  0  0  0  0
   -2.6005   -0.3333   -0.2478 H   0  0  0  0  0  0  0  0  0  0  0  0
   -0.5675   -0.1203    0.3102 C   0  0  1  0  0  0  0  0  0  0  0  0
    0.1932   -0.7715   -0.1219 H   0  0  0  0  0  0  0  0  0  0  0  0
   -0.6568    1.1713   -0.5294 C   0  0  0  0  0  0  0  0  0  0  0  0
   -1.4207    1.8181   -0.0938 H   0  0  0  0  0  0  0  0  0  0  0  0
    0.3006    1.6913   -0.4513 H   0  0  0  0  0  0  0  0  0  0  0  0
   -0.9766    0.9781   -2.0231 C   0  0  0  0  0  0  0  0  0  0  0  0
   -1.5429    1.8333   -2.3920 H   0  0  0  0  0  0  0  0  0  0  0  0
    0.2888    0.8158   -2.8703 C   0  0  0  0  0  0  0  0  0  0  0  0
    0.8751   -0.0275   -2.5028 H   0  0  0  0  0  0  0  0  0  0  0  0
    0.0140    0.6331   -3.9094 H   0  0  0  0  0  0  0  0  0  0  0  0
    0.8972    1.7167   -2.8285 H   0  0  0  0  0  0  0  0  0  0  0  0
   -1.8341   -0.2730   -2.2099 C   0  0  0  0  0  0  0  0  0  0  0  0
   -2.7589   -0.1719   -1.6420 H   0  0  0  0  0  0  0  0  0  0  0  0
   -2.0850   -0.3967   -3.2633 H   0  0  0  0  0  0  0  0  0  0  0  0
   -1.2933   -1.1543   -1.8629 H   0  0  0  0  0  0  0  0  0  0  0  0
   -0.1913    0.1554    1.7759 C   0  0  0  0  0  0  0  0  0  0  0  0
    0.9476   -0.0766    2.1748 O   0  0  0  0  0  0  0  0  0  0  0  0
   -1.1502    0.6393    2.5760 N   0  0  0  0  0  0  0  0  0  0  0  0
   -2.0581    0.8092    2.1736 H   0  0  0  0  0  0  0  0  0  0  0  0
   -0.9568    0.9369    3.9933 C   0  0  0  0  0  0  0  0  0  0  0  0
   -0.1600    1.6750    4.1097 H   0  0  0  0  0  0  0  0  0  0  0  0
   -1.8775    1.3307    4.4266 H   0  0  0  0  0  0  0  0  0  0  0  0
   -0.6678    0.0287    4.5244 H   0  0  0  0  0  0  0  0  0  0  0  0
  5  6  2  0  0  0  0
  5  7  1  0  0  0  0
  2  3  1  0  0  0  0
  2  4  1  0  0  0  0
  2  5  1  0  0  0  0
  1  2  1  0  0  0  0
 24 25  2  0  0  0  0
 24 26  1  0  0  0  0
 20 21  1  0  0  0  0
 20 22  1  0  0  0  0
 20 23  1  0  0  0  0
 16 17  1  0  0  0  0
 16 18  1  0  0  0  0
 16 19  1  0  0  0  0
 14 15  1  0  0  0  0
 14 16  1  0  0  0  0
 14 20  1  0  0  0  0
 11 12  1  0  0  0  0
 11 13  1  0  0  0  0
 11 14  1  0  0  0  0
  9 10  1  0  0  0  0
  9 11  1  0  0  0  0
  9 24  1  0  0  0  0
  7  8  1  0  0  0  0
  7  9  1  0  0  0  0
 28 29  1  0  0  0  0
 28 30  1  0  0  0  0
 28 31  1  0  0  0  0
 26 27  1  0  0  0  0
 26 28  1  0  0  0  0
M  END
$$$$
default_name
  -OEChem-02102213163D

 31 30  0     1  0  0  0  0  0999 V2000
   -3.5895   -3.5013    1.1082 H   0  0  0  0  0  0  0  0  0  0  0  0
   -3.5145   -2.5363    0.6082 C   0  0  0  0  0  0  0  0  0  0  0  0
   -4.2285   -1.8413    1.0452 H   0  0  0  0  0  0  0  0  0  0  0  0
   -3.7155   -2.6583   -0.4538 H   0  0  0  0  0  0  0  0  0  0  0  0
   -2.1155   -1.9963    0.7922 C   0  0  0  0  0  0  0  0  0  0  0  0
   -1.2875   -2.6383    1.4252 O   0  0  0  0  0  0  0  0  0  0  0  0
   -1.8575   -0.8123    0.2402 N   0  0  0  0  0  0  0  0  0  0  0  0
   -2.6005   -0.3333   -0.2478 H   0  0  0  0  0  0  0  0  0  0  0  0
   -0.5675   -0.1203    0.3102 C   0  0  1  0  0  0  0  0  0  0  0  0
    0.1932   -0.7715   -0.1219 H   0  0  0  0  0  0  0  0  0  0  0  0
   -0.6568    1.1713   -0.5294 C   0  0  0  0  0  0  0  0  0  0  0  0
   -1.4207    1.8181   -0.0938 H   0  0  0  0  0  0  0  0  0  0  0  0
    0.3006    1.6913   -0.4513 H   0  0  0  0  0  0  0  0  0  0  0  0
   -0.9766    0.9781   -2.0231 C   0  0  0  0  0  0  0  0  0  0  0  0
   -1.2994    1.9250   -2.4560 H   0  0  0  0  0  0  0  0  0  0  0  0
    0.2284    0.4556   -2.8107 C   0  0  0  0  0  0  0  0  0  0  0  0
    0.5736   -0.4848   -2.3791 H   0  0  0  0  0  0  0  0  0  0  0  0
   -0.0569    0.2876   -3.8495 H   0  0  0  0  0  0  0  0  0  0  0  0
    1.0429    1.1764   -2.7898 H   0  0  0  0  0  0  0  0  0  0  0  0
   -2.1166   -0.0274   -2.1811 C   0  0  0  0  0  0  0  0  0  0  0  0
   -3.0003    0.3347   -1.6559 H   0  0  0  0  0  0  0  0  0  0  0  0
   -2.3635   -0.1451   -3.2363 H   0  0  0  0  0  0  0  0  0  0  0  0
   -1.8244   -0.9942   -1.7699 H   0  0  0  0  0  0  0  0  0  0  0  0
   -0.1913    0.1554    1.7759 C   0  0  0  0  0  0  0  0  0  0  0  0
    0.9476   -0.0766    2.1748 O   0  0  0  0  0  0  0  0  0  0  0  0
   -1.1502    0.6393    2.5760 N   0  0  0  0  0  0  0  0  0  0  0  0
   -2.0581    0.8092    2.1736 H   0  0  0  0  0  0  0  0  0  0  0  0
   -0.9568    0.9369    3.9933 C   0  0  0  0  0  0  0  0  0  0  0  0
   -0.1600    1.6750    4.1097 H   0  0  0  0  0  0  0  0  0  0  0  0
   -1.8775    1.3307    4.4266 H   0  0  0  0  0  0  0  0  0  0  0  0
   -0.6678    0.0287    4.5244 H   0  0  0  0  0  0  0  0  0  0  0  0
  5  6  2  0  0  0  0
  5  7  1  0  0  0  0
  2  3  1  0  0  0  0
  2  4  1  0  0  0  0
  2  5  1  0  0  0  0
  1  2  1  0  0  0  0
 24 25  2  0  0  0  0
 24 26  1  0  0  0  0
 20 21  1  0  0  0  0
 20 22  1  0  0  0  0
 20 23  1  0  0  0  0
 16 17  1  0  0  0  0
 16 18  1  0  0  0  0
 16 19  1  0  0  0  0
 14 15  1  0  0  0  0
 14 16  1  0  0  0  0
 14 20  1  0  0  0  0
 11 12  1  0  0  0  0
 11 13  1  0  0  0  0
 11 14  1  0  0  0  0
  9 10  1  0  0  0  0
  9 11  1  0  0  0  0
  9 24  1  0  0  0  0
  7  8  1  0  0  0  0
  7  9  1  0  0  0  0
 28 29  1  0  0  0  0
 28 30  1  0  0  0  0
 28 31  1  0  0  0  0
 26 27  1  0  0  0  0
 26 28  1  0  0  0  0
M  END
$$$$
default_name
  -OEChem-02102213163D

 31 30  0     1  0  0  0  0  0999 V2000
   -3.5895   -3.5013    1.1082 H   0  0  0  0  0  0  0  0  0  0  0  0
   -3.5145   -2.5363    0.6082 C   0  0  0  0  0  0  0  0  0  0  0  0
   -4.2285   -1.8413    1.0452 H   0  0  0  0  0  0  0  0  0  0  0  0
   -3.7155   -2.6583   -0.4538 H   0  0  0  0  0  0  0  0  0  0  0  0
   -2.1155   -1.9963    0.7922 C   0  0  0  0  0  0  0  0  0  0  0  0
   -1.2875   -2.6383    1.4252 O   0  0  0  0  0  0  0  0  0  0  0  0
   -1.8575   -0.8123    0.2402 N   0  0  0  0  0  0  0  0  0  0  0  0
   -2.6005   -0.3333   -0.2478 H   0  0  0  0  0  0  0  0  0  0  0  0
   -0.5675   -0.1203    0.3102 C   0  0  1  0  0  0  0  0  0  0  0  0
    0.1932   -0.7715   -0.1219 H   0  0  0  0  0  0  0  0  0  0  0  0
   -0.6568    1.1713   -0.5294 C   0  0  0  0  0  0  0  0  0  0  0  0
   -1.4207    1.8181   -0.0938 H   0  0  0  0  0  0  0  0  0  0  0  0
    0.3006    1.6913   -0.4513 H   0  0  0  0  0  0  0  0  0  0  0  0
   -0.9766    0.9781   -2.0231 C   0  0  0  0  0  0  0  0  0  0  0  0
   -1.0393    1.9489   -2.5148 H   0  0  0  0  0  0  0  0  0  0  0  0
    0.0776    0.1261   -2.7358 C   0  0  0  0  0  0  0  0  0  0  0  0
    0.1636   -0.8442   -2.2448 H   0  0  0  0  0  0  0  0  0  0  0  0
   -0.2141   -0.0251   -3.7754 H   0  0  0  0  0  0  0  0  0  0  0  0
    1.0466    0.6201   -2.7186 H   0  0  0  0  0  0  0  0  0  0  0  0
   -2.3287    0.2824   -2.1758 C   0  0  0  0  0  0  0  0  0  0  0  0
   -3.1058    0.8839   -1.7043 H   0  0  0  0  0  0  0  0  0  0  0  0
   -2.5702    0.1693   -3.2327 H   0  0  0  0  0  0  0  0  0  0  0  0
   -2.3002   -0.7013   -1.7059 H   0  0  0  0  0  0  0  0  0  0  0  0
   -0.1913    0.1554    1.7759 C   0  0  0  0  0  0  0  0  0  0  0  0
    0.9476   -0.0766    2.1748 O   0  0  0  0  0  0  0  0  0  0  0  0
   -1.1502    0.6393    2.5760 N   0  0  0  0  0  0  0  0  0  0  0  0
   -2.0581    0.8092    2.1736 H   0  0  0  0  0  0  0  0  0  0  0  0
   -0.9568    0.9369    3.9933 C   0  0  0  0  0  0  0  0  0  0  0  0
   -0.1600    1.6750    4.1097 H   0  0  0  0  0  0  0  0  0  0  0  0
   -1.8775    1.3307    4.4266 H   0  0  0  0  0  0  0  0  0  0  0  0
   -0.6678    0.0287    4.5244 H   0  0  0  0  0  0  0  0  0  0  0  0
  5  6  2  0  0  0  0
  5  7  1  0  0  0  0
  2  3  1  0  0  0  0
  2  4  1  0  0  0  0
  2  5  1  0  0  0  0
  1  2  1  0  0  0  0
 24 25  2  0  0  0  0
 24 26  1  0  0  0  0
 20 21  1  0  0  0  0
 20 22  1  0  0  0  0
 20 23  1  0  0  0  0
 16 17  1  0  0  0  0
 16 18  1  0  0  0  0
 16 19  1  0  0  0  0
 14 15  1  0  0  0  0
 14 16  1  0  0  0  0
 14 20  1  0  0  0  0
 11 12  1  0  0  0  0
 11 13  1  0  0  0  0
 11 14  1  0  0  0  0
  9 10  1  0  0  0  0
  9 11  1  0  0  0  0
  9 24  1  0  0  0  0
  7  8  1  0  0  0  0
  7  9  1  0  0  0  0
 28 29  1  0  0  0  0
 28 30  1  0  0  0  0
 28 31  1  0  0  0  0
 26 27  1  0  0  0  0
 26 28  1  0  0  0  0
M  END
$$$$
default_name
  -OEChem-02102213163D

 31 30  0     1  0  0  0  0  0999 V2000
   -3.5895   -3.5013    1.1082 H   0  0  0  0  0  0  0  0  0  0  0  0
   -3.5145   -2.5363    0.6082 C   0  0  0  0  0  0  0  0  0  0  0  0
   -4.2285   -1.8413    1.0452 H   0  0  0  0  0  0  0  0  0  0  0  0
   -3.7155   -2.6583   -0.4538 H   0  0  0  0  0  0  0  0  0  0  0  0
   -2.1155   -1.9963    0.7922 C   0  0  0  0  0  0  0  0  0  0  0  0
   -1.2875   -2.6383    1.4252 O   0  0  0  0  0  0  0  0  0  0  0  0
   -1.8575   -0.8123    0.2402 N   0  0  0  0  0  0  0  0  0  0  0  0
   -2.6005   -0.3333   -0.2478 H   0  0  0  0  0  0  0  0  0  0  0  0
   -0.5675   -0.1203    0.3102 C   0  0  1  0  0  0  0  0  0  0  0  0
    0.1932   -0.7715   -0.1219 H   0  0  0  0  0  0  0  0  0  0  0  0
   -0.6568    1.1713   -0.5294 C   0  0  0  0  0  0  0  0  0  0  0  0
   -1.4207    1.8181   -0.0938 H   0  0  0  0  0  0  0  0  0  0  0  0
    0.3006    1.6913   -0.4513 H   0  0  0  0  0  0  0  0  0  0  0  0
   -0.9766    0.9781   -2.0231 C   0  0  0  0  0  0  0  0  0  0  0  0
   -0.7800    1.9036   -2.5644 H   0  0  0  0  0  0  0  0  0  0  0  0
   -0.1532   -0.1504   -2.6506 C   0  0  0  0  0  0  0  0  0  0  0  0
   -0.3271   -1.0812   -2.1090 H   0  0  0  0  0  0  0  0  0  0  0  0
   -0.4468   -0.2837   -3.6921 H   0  0  0  0  0  0  0  0  0  0  0  0
    0.9083    0.0857   -2.6199 H   0  0  0  0  0  0  0  0  0  0  0  0
   -2.4560    0.6352   -2.1942 C   0  0  0  0  0  0  0  0  0  0  0  0
   -3.0683    1.4382   -1.7840 H   0  0  0  0  0  0  0  0  0  0  0  0
   -2.6911    0.5251   -3.2528 H   0  0  0  0  0  0  0  0  0  0  0  0
   -2.6883   -0.2955   -1.6752 H   0  0  0  0  0  0  0  0  0  0  0  0
   -0.1913    0.1554    1.7759 C   0  0  0  0  0  0  0  0  0  0  0  0
    0.9476   -0.0766    2.1748 O   0  0  0  0  0  0  0  0  0  0  0  0
   -1.1502    0.6393    2.5760 N   0  0  0  0  0  0  0  0  0  0  0  0
   -2.0581    0.8092    2.1736 H   0  0  0  0  0  0  0  0  0  0  0  0
   -0.9568    0.9369    3.9933 C   0  0  0  0  0  0  0  0  0  0  0  0
   -0.1600    1.6750    4.1097 H   0  0  0  0  0  0  0  0  0  0  0  0
   -1.8775    1.3307    4.4266 H   0  0  0  0  0  0  0  0  0  0  0  0
   -0.6678    0.0287    4.5244 H   0  0  0  0  0  0  0  0  0  0  0  0
  5  6  2  0  0  0  0
  5  7  1  0  0  0  0
  2  3  1  0  0  0  0
  2  4  1  0  0  0  0
  2  5  1  0  0  0  0
  1  2  1  0  0  0  0
 24 25  2  0  0  0  0
 24 26  1  0  0  0  0
 20 21  1  0  0  0  0
 20 22  1  0  0  0  0
 20 23  1  0  0  0  0
 16 17  1  0  0  0  0
 16 18  1  0  0  0  0
 16 19  1  0  0  0  0
 14 15  1  0  0  0  0
 14 16  1  0  0  0  0
 14 20  1  0  0  0  0
 11 12  1  0  0  0  0
 11 13  1  0  0  0  0
 11 14  1  0  0  0  0
  9 10  1  0  0  0  0
  9 11  1  0  0  0  0
  9 24  1  0  0  0  0
  7  8  1  0  0  0  0
  7  9  1  0  0  0  0
 28 29  1  0  0  0  0
 28 30  1  0  0  0  0
 28 31  1  0  0  0  0
 26 27  1  0  0  0  0
 26 28  1  0  0  0  0
M  END
$$$$
default_name
  -OEChem-02102213163D

 31 30  0     1  0  0  0  0  0999 V2000
   -3.5895   -3.5013    1.1082 H   0  0  0  0  0  0  0  0  0  0  0  0
   -3.5145   -2.5363    0.6082 C   0  0  0  0  0  0  0  0  0  0  0  0
   -4.2285   -1.8413    1.0452 H   0  0  0  0  0  0  0  0  0  0  0  0
   -3.7155   -2.6583   -0.4538 H   0  0  0  0  0  0  0  0  0  0  0  0
   -2.1155   -1.9963    0.7922 C   0  0  0  0  0  0  0  0  0  0  0  0
   -1.2875   -2.6383    1.4252 O   0  0  0  0  0  0  0  0  0  0  0  0
   -1.8575   -0.8123    0.2402 N   0  0  0  0  0  0  0  0  0  0  0  0
   -2.6005   -0.3333   -0.2478 H   0  0  0  0  0  0  0  0  0  0  0  0
   -0.5675   -0.1203    0.3102 C   0  0  1  0  0  0  0  0  0  0  0  0
    0.1932   -0.7715   -0.1219 H   0  0  0  0  0  0  0  0  0  0  0  0
   -0.6568    1.1713   -0.5294 C   0  0  0  0  0  0  0  0  0  0  0  0
   -1.4207    1.8181   -0.0938 H   0  0  0  0  0  0  0  0  0  0  0  0
    0.3006    1.6913   -0.4513 H   0  0  0  0  0  0  0  0  0  0  0  0
   -0.9766    0.9781   -2.0231 C   0  0  0  0  0  0  0  0  0  0  0  0
   -0.5394    1.7920   -2.6015 H   0  0  0  0  0  0  0  0  0  0  0  0
   -0.4483   -0.3549   -2.5610 C   0  0  0  0  0  0  0  0  0  0  0  0
   -0.8649   -1.1796   -1.9811 H   0  0  0  0  0  0  0  0  0  0  0  0
   -0.7393   -0.4706   -3.6053 H   0  0  0  0  0  0  0  0  0  0  0  0
    0.6372   -0.3906   -2.5002 H   0  0  0  0  0  0  0  0  0  0  0  0
   -2.4898    1.0069   -2.2350 C   0  0  0  0  0  0  0  0  0  0  0  0
   -2.8903    1.9599   -1.8896 H   0  0  0  0  0  0  0  0  0  0  0  0
   -2.7178    0.8980   -3.2953 H   0  0  0  0  0  0  0  0  0  0  0  0
   -2.9623    0.1956   -1.6801 H   0  0  0  0  0  0  0  0  0  0  0  0
   -0.1913    0.1554    1.7759 C   0  0  0  0  0  0  0  0  0  0  0  0
    0.9476   -0.0766    2.1748 O   0  0  0  0  0  0  0  0  0  0  0  0
   -1.1502    0.6393    2.5760 N   0  0  0  0  0  0  0  0  0  0  0  0
   -2.0581    0.8092    2.1736 H   0  0  0  0  0  0  0  0  0  0  0  0
   -0.9568    0.9369    3.9933 C   0  0  0  0  0  0  0  0  0  0  0  0
   -0.1600    1.6750    4.1097 H   0  0  0  0  0  0  0  0  0  0  0  0
   -1.8775    1.3307    4.4266 H   0  0  0  0  0  0  0  0  0  0  0  0
   -0.6678    0.0287    4.5244 H   0  0  0  0  0  0  0  0  0  0  0  0
  5  6  2  0  0  0  0
  5  7  1  0  0  0  0
  2  3  1  0  0  0  0
  2  4  1  0  0  0  0
  2  5  1  0  0  0  0
  1  2  1  0  0  0  0
 24 25  2  0  0  0  0
 24 26  1  0  0  0  0
 20 21  1  0  0  0  0
 20 22  1  0  0  0  0
 20 23  1  0  0  0  0
 16 17  1  0  0  0  0
 16 18  1  0  0  0  0
 16 19  1  0  0  0  0
 14 15  1  0  0  0  0
 14 16  1  0  0  0  0
 14 20  1  0  0  0  0
 11 12  1  0  0  0  0
 11 13  1  0  0  0  0
 11 14  1  0  0  0  0
  9 10  1  0  0  0  0
  9 11  1  0  0  0  0
  9 24  1  0  0  0  0
  7  8  1  0  0  0  0
  7  9  1  0  0  0  0
 28 29  1  0  0  0  0
 28 30  1  0  0  0  0
 28 31  1  0  0  0  0
 26 27  1  0  0  0  0
 26 28  1  0  0  0  0
M  END
$$$$
default_name
  -OEChem-02102213163D

 31 30  0     1  0  0  0  0  0999 V2000
   -3.5895   -3.5013    1.1082 H   0  0  0  0  0  0  0  0  0  0  0  0
   -3.5145   -2.5363    0.6082 C   0  0  0  0  0  0  0  0  0  0  0  0
   -4.2285   -1.8413    1.0452 H   0  0  0  0  0  0  0  0  0  0  0  0
   -3.7155   -2.6583   -0.4538 H   0  0  0  0  0  0  0  0  0  0  0  0
   -2.1155   -1.9963    0.7922 C   0  0  0  0  0  0  0  0  0  0  0  0
   -1.2875   -2.6383    1.4252 O   0  0  0  0  0  0  0  0  0  0  0  0
   -1.8575   -0.8123    0.2402 N   0  0  0  0  0  0  0  0  0  0  0  0
   -2.6005   -0.3333   -0.2478 H   0  0  0  0  0  0  0  0  0  0  0  0
   -0.5675   -0.1203    0.3102 C   0  0  1  0  0  0  0  0  0  0  0  0
    0.1932   -0.7715   -0.1219 H   0  0  0  0  0  0  0  0  0  0  0  0
   -0.6568    1.1713   -0.5294 C   0  0  0  0  0  0  0  0  0  0  0  0
   -1.4207    1.8181   -0.0938 H   0  0  0  0  0  0  0  0  0  0  0  0
    0.3006    1.6913   -0.4513 H   0  0  0  0  0  0  0  0  0  0  0  0
   -0.9766    0.9781   -2.0231 C   0  0  0  0  0  0  0  0  0  0  0  0
   -0.3337    1.6218   -2.6235 H   0  0  0  0  0  0  0  0  0  0  0  0
   -0.7877   -0.4735   -2.4730 C   0  0  0  0  0  0  0  0  0  0  0  0
   -1.4133   -1.1328   -1.8698 H   0  0  0  0  0  0  0  0  0  0  0  0
   -1.0715   -0.5731   -3.5209 H   0  0  0  0  0  0  0  0  0  0  0  0
    0.2520   -0.7761   -2.3679 H   0  0  0  0  0  0  0  0  0  0  0  0
   -2.4278    1.3722   -2.2955 C   0  0  0  0  0  0  0  0  0  0  0  0
   -2.5840    2.4135   -2.0139 H   0  0  0  0  0  0  0  0  0  0  0  0
   -2.6486    1.2626   -3.3573 H   0  0  0  0  0  0  0  0  0  0  0  0
   -3.1035    0.7385   -1.7201 H   0  0  0  0  0  0  0  0  0  0  0  0
   -0.1913    0.1554    1.7759 C   0  0  0  0  0  0  0  0  0  0  0  0
    0.9476   -0.0766    2.1748 O   0  0  0  0  0  0  0  0  0  0  0  0
   -1.1502    0.6393    2.5760 N   0  0  0  0  0  0  0  0  0  0  0  0
   -2.0581    0.8092    2.1736 H   0  0  0  0  0  0  0  0  0  0  0  0
   -0.9568    0.9369    3.9933 C   0  0  0  0  0  0  0  0  0  0  0  0
   -0.1600    1.6750    4.1097 H   0  0  0  0  0  0  0  0  0  0  0  0
   -1.8775    1.3307    4.4266 H   0  0  0  0  0  0  0  0  0  0  0  0
   -0.6678    0.0287    4.5244 H   0  0  0  0  0  0  0  0  0  0  0  0
  5  6  2  0  0  0  0
  5  7  1  0  0  0  0
  2  3  1  0  0  0  0
  2  4  1  0  0  0  0
  2  5  1  0  0  0  0
  1  2  1  0  0  0  0
 24 25  2  0  0  0  0
 24 26  1  0  0  0  0
 20 21  1  0  0  0  0
 20 22  1  0  0  0  0
 20 23  1  0  0  0  0
 16 17  1  0  0  0  0
 16 18  1  0  0  0  0
 16 19  1  0  0  0  0
 14 15  1  0  0  0  0
 14 16  1  0  0  0  0
 14 20  1  0  0  0  0
 11 12  1  0  0  0  0
 11 13  1  0  0  0  0
 11 14  1  0  0  0  0
  9 10  1  0  0  0  0
  9 11  1  0  0  0  0
  9 24  1  0  0  0  0
  7  8  1  0  0  0  0
  7  9  1  0  0  0  0
 28 29  1  0  0  0  0
 28 30  1  0  0  0  0
 28 31  1  0  0  0  0
 26 27  1  0  0  0  0
 26 28  1  0  0  0  0
M  END
$$$$
default_name
  -OEChem-02102213163D

 31 30  0     1  0  0  0  0  0999 V2000
   -3.5895   -3.5013    1.1082 H   0  0  0  0  0  0  0  0  0  0  0  0
   -3.5145   -2.5363    0.6082 C   0  0  0  0  0  0  0  0  0  0  0  0
   -4.2285   -1.8413    1.0452 H   0  0  0  0  0  0  0  0  0  0  0  0
   -3.7155   -2.6583   -0.4538 H   0  0  0  0  0  0  0  0  0  0  0  0
   -2.1155   -1.9963    0.7922 C   0  0  0  0  0  0  0  0  0  0  0  0
   -1.2875   -2.6383    1.4252 O   0  0  0  0  0  0  0  0  0  0  0  0
   -1.8575   -0.8123    0.2402 N   0  0  0  0  0  0  0  0  0  0  0  0
   -2.6005   -0.3333   -0.2478 H   0  0  0  0  0  0  0  0  0  0  0  0
   -0.5675   -0.1203    0.3102 C   0  0  1  0  0  0  0  0  0  0  0  0
    0.1932   -0.7715   -0.1219 H   0  0  0  0  0  0  0  0  0  0  0  0
   -0.6568    1.1713   -0.5294 C   0  0  0  0  0  0  0  0  0  0  0  0
   -1.4207    1.8181   -0.0938 H   0  0  0  0  0  0  0  0  0  0  0  0
    0.3006    1.6913   -0.4513 H   0  0  0  0  0  0  0  0  0  0  0  0
   -0.9766    0.9781   -2.0231 C   0  0  0  0  0  0  0  0  0  0  0  0
   -0.1771    1.4046   -2.6290 H   0  0  0  0  0  0  0  0  0  0  0  0
   -1.1481   -0.4982   -2.3926 C   0  0  0  0  0  0  0  0  0  0  0  0
   -1.9349   -0.9438   -1.7825 H   0  0  0  0  0  0  0  0  0  0  0  0
   -1.4209   -0.5840   -3.4447 H   0  0  0  0  0  0  0  0  0  0  0  0
   -0.2212   -1.0446   -2.2318 H   0  0  0  0  0  0  0  0  0  0  0  0
   -2.2742    1.7063   -2.3716 C   0  0  0  0  0  0  0  0  0  0  0  0
   -2.1701    2.7681   -2.1484 H   0  0  0  0  0  0  0  0  0  0  0  0
   -2.4883    1.5942   -3.4345 H   0  0  0  0  0  0  0  0  0  0  0  0
   -3.1023    1.2963   -1.7925 H   0  0  0  0  0  0  0  0  0  0  0  0
   -0.1913    0.1554    1.7759 C   0  0  0  0  0  0  0  0  0  0  0  0
    0.9476   -0.0766    2.1748 O   0  0  0  0  0  0  0  0  0  0  0  0
   -1.1502    0.6393    2.5760 N   0  0  0  0  0  0  0  0  0  0  0  0
   -2.0581    0.8092    2.1736 H   0  0  0  0  0  0  0  0  0  0  0  0
   -0.9568    0.9369    3.9933 C   0  0  0  0  0  0  0  0  0  0  0  0
   -0.1600    1.6750    4.1097 H   0  0  0  0  0  0  0  0  0  0  0  0
   -1.8775    1.3307    4.4266 H   0  0  0  0  0  0  0  0  0  0  0  0
   -0.6678    0.0287    4.5244 H   0  0  0  0  0  0  0  0  0  0  0  0
  5  6  2  0  0  0  0
  5  7  1  0  0  0  0
  2  3  1  0  0  0  0
  2  4  1  0  0  0  0
  2  5  1  0  0  0  0
  1  2  1  0  0  0  0
 24 25  2  0  0  0  0
 24 26  1  0  0  0  0
 20 21  1  0  0  0  0
 20 22  1  0  0  0  0
 20 23  1  0  0  0  0
 16 17  1  0  0  0  0
 16 18  1  0  0  0  0
 16 19  1  0  0  0  0
 14 15  1  0  0  0  0
 14 16  1  0  0  0  0
 14 20  1  0  0  0  0
 11 12  1  0  0  0  0
 11 13  1  0  0  0  0
 11 14  1  0  0  0  0
  9 10  1  0  0  0  0
  9 11  1  0  0  0  0
  9 24  1  0  0  0  0
  7  8  1  0  0  0  0
  7  9  1  0  0  0  0
 28 29  1  0  0  0  0
 28 30  1  0  0  0  0
 28 31  1  0  0  0  0
 26 27  1  0  0  0  0
 26 28  1  0  0  0  0
M  END
$$$$
default_name
  -OEChem-02102213163D

 31 30  0     1  0  0  0  0  0999 V2000
   -3.5895   -3.5013    1.1082 H   0  0  0  0  0  0  0  0  0  0  0  0
   -3.5145   -2.5363    0.6082 C   0  0  0  0  0  0  0  0  0  0  0  0
   -4.2285   -1.8413    1.0452 H   0  0  0  0  0  0  0  0  0  0  0  0
   -3.7155   -2.6583   -0.4538 H   0  0  0  0  0  0  0  0  0  0  0  0
   -2.1155   -1.9963    0.7922 C   0  0  0  0  0  0  0  0  0  0  0  0
   -1.2875   -2.6383    1.4252 O   0  0  0  0  0  0  0  0  0  0  0  0
   -1.8575   -0.8123    0.2402 N   0  0  0  0  0  0  0  0  0  0  0  0
   -2.6005   -0.3333   -0.2478 H   0  0  0  0  0  0  0  0  0  0  0  0
   -0.5675   -0.1203    0.3102 C   0  0  1  0  0  0  0  0  0  0  0  0
    0.1932   -0.7715   -0.1219 H   0  0  0  0  0  0  0  0  0  0  0  0
   -0.6568    1.1713   -0.5294 C   0  0  0  0  0  0  0  0  0  0  0  0
   -1.4207    1.8181   -0.0938 H   0  0  0  0  0  0  0  0  0  0  0  0
    0.3006    1.6913   -0.4513 H   0  0  0  0  0  0  0  0  0  0  0  0
   -0.9766    0.9781   -2.0231 C   0  0  0  0  0  0  0  0  0  0  0  0
   -0.0802    1.1552   -2.6175 H   0  0  0  0  0  0  0  0  0  0  0  0
   -1.5050   -0.4272   -2.3254 C   0  0  0  0  0  0  0  0  0  0  0  0
   -2.3941   -0.6257   -1.7253 H   0  0  0  0  0  0  0  0  0  0  0  0
   -1.7636   -0.5028   -3.3818 H   0  0  0  0  0  0  0  0  0  0  0  0
   -0.7502   -1.1778   -2.1013 H   0  0  0  0  0  0  0  0  0  0  0  0
   -2.0394    1.9864   -2.4581 C   0  0  0  0  0  0  0  0  0  0  0  0
   -1.6770    2.9994   -2.2839 H   0  0  0  0  0  0  0  0  0  0  0  0
   -2.2476    1.8700   -3.5217 H   0  0  0  0  0  0  0  0  0  0  0  0
   -2.9587    1.8308   -1.8924 H   0  0  0  0  0  0  0  0  0  0  0  0
   -0.1913    0.1554    1.7759 C   0  0  0  0  0  0  0  0  0  0  0  0
    0.9476   -0.0766    2.1748 O   0  0  0  0  0  0  0  0  0  0  0  0
   -1.1502    0.6393    2.5760 N   0  0  0  0  0  0  0  0  0  0  0  0
   -2.0581    0.8092    2.1736 H   0  0  0  0  0  0  0  0  0  0  0  0
   -0.9568    0.9369    3.9933 C   0  0  0  0  0  0  0  0  0  0  0  0
   -0.1600    1.6750    4.1097 H   0  0  0  0  0  0  0  0  0  0  0  0
   -1.8775    1.3307    4.4266 H   0  0  0  0  0  0  0  0  0  0  0  0
   -0.6678    0.0287    4.5244 H   0  0  0  0  0  0  0  0  0  0  0  0
  5  6  2  0  0  0  0
  5  7  1  0  0  0  0
  2  3  1  0  0  0  0
  2  4  1  0  0  0  0
  2  5  1  0  0  0  0
  1  2  1  0  0  0  0
 24 25  2  0  0  0  0
 24 26  1  0  0  0  0
 20 21  1  0  0  0  0
 20 22  1  0  0  0  0
 20 23  1  0  0  0  0
 16 17  1  0  0  0  0
 16 18  1  0  0  0  0
 16 19  1  0  0  0  0
 14 15  1  0  0  0  0
 14 16  1  0  0  0  0
 14 20  1  0  0  0  0
 11 12  1  0  0  0  0
 11 13  1  0  0  0  0
 11 14  1  0  0  0  0
  9 10  1  0  0  0  0
  9 11  1  0  0  0  0
  9 24  1  0  0  0  0
  7  8  1  0  0  0  0
  7  9  1  0  0  0  0
 28 29  1  0  0  0  0
 28 30  1  0  0  0  0
 28 31  1  0  0  0  0
 26 27  1  0  0  0  0
 26 28  1  0  0  0  0
M  END
$$$$
default_name
  -OEChem-02102213163D

 31 30  0     1  0  0  0  0  0999 V2000
   -3.5895   -3.5013    1.1082 H   0  0  0  0  0  0  0  0  0  0  0  0
   -3.5145   -2.5363    0.6082 C   0  0  0  0  0  0  0  0  0  0  0  0
   -4.2285   -1.8413    1.0452 H   0  0  0  0  0  0  0  0  0  0  0  0
   -3.7155   -2.6583   -0.4538 H   0  0  0  0  0  0  0  0  0  0  0  0
   -2.1155   -1.9963    0.7922 C   0  0  0  0  0  0  0  0  0  0  0  0
   -1.2875   -2.6383    1.4252 O   0  0  0  0  0  0  0  0  0  0  0  0
   -1.8575   -0.8123    0.2402 N   0  0  0  0  0  0  0  0  0  0  0  0
   -2.6005   -0.3333   -0.2478 H   0  0  0  0  0  0  0  0  0  0  0  0
   -0.5675   -0.1203    0.3102 C   0  0  1  0  0  0  0  0  0  0  0  0
    0.1932   -0.7715   -0.1219 H   0  0  0  0  0  0  0  0  0  0  0  0
   -0.6568    1.1713   -0.5294 C   0  0  0  0  0  0  0  0  0  0  0  0
   -1.4207    1.8181   -0.0938 H   0  0  0  0  0  0  0  0  0  0  0  0
    0.3006    1.6913   -0.4513 H   0  0  0  0  0  0  0  0  0  0  0  0
   -0.9766    0.9781   -2.0231 C   0  0  0  0  0  0  0  0  0  0  0  0
   -0.0496    0.8905   -2.5898 H   0  0  0  0  0  0  0  0  0  0  0  0
   -1.8341   -0.2653   -2.2758 C   0  0  0  0  0  0  0  0  0  0  0  0
   -2.7596   -0.2000   -1.7021 H   0  0  0  0  0  0  0  0  0  0  0  0
   -2.0763   -0.3349   -3.3365 H   0  0  0  0  0  0  0  0  0  0  0  0
   -1.2988   -1.1667   -1.9853 H   0  0  0  0  0  0  0  0  0  0  0  0
   -1.7396    2.1933   -2.5491 C   0  0  0  0  0  0  0  0  0  0  0  0
   -1.1381    3.0917   -2.4113 H   0  0  0  0  0  0  0  0  0  0  0  0
   -1.9431    2.0712   -3.6130 H   0  0  0  0  0  0  0  0  0  0  0  0
   -2.6826    2.3057   -2.0129 H   0  0  0  0  0  0  0  0  0  0  0  0
   -0.1913    0.1554    1.7759 C   0  0  0  0  0  0  0  0  0  0  0  0
    0.9476   -0.0766    2.1748 O   0  0  0  0  0  0  0  0  0  0  0  0
   -1.1502    0.6393    2.5760 N   0  0  0  0  0  0  0  0  0  0  0  0
   -2.0581    0.8092    2.1736 H   0  0  0  0  0  0  0  0  0  0  0  0
   -0.9568    0.9369    3.9933 C   0  0  0  0  0  0  0  0  0  0  0  0
   -0.1600    1.6750    4.1097 H   0  0  0  0  0  0  0  0  0  0  0  0
   -1.8775    1.3307    4.4266 H   0  0  0  0  0  0  0  0  0  0  0  0
   -0.6678    0.0287    4.5244 H   0  0  0  0  0  0  0  0  0  0  0  0
  5  6  2  0  0  0  0
  5  7  1  0  0  0  0
  2  3  1  0  0  0  0
  2  4  1  0  0  0  0
  2  5  1  0  0  0  0
  1  2  1  0  0  0  0
 24 25  2  0  0  0  0
 24 26  1  0  0  0  0
 20 21  1  0  0  0  0
 20 22  1  0  0  0  0
 20 23  1  0  0  0  0
 16 17  1  0  0  0  0
 16 18  1  0  0  0  0
 16 19  1  0  0  0  0
 14 15  1  0  0  0  0
 14 16  1  0  0  0  0
 14 20  1  0  0  0  0
 11 12  1  0  0  0  0
 11 13  1  0  0  0  0
 11 14  1  0  0  0  0
  9 10  1  0  0  0  0
  9 11  1  0  0  0  0
  9 24  1  0  0  0  0
  7  8  1  0  0  0  0
  7  9  1  0  0  0  0
 28 29  1  0  0  0  0
 28 30  1  0  0  0  0
 28 31  1  0  0  0  0
 26 27  1  0  0  0  0
 26 28  1  0  0  0  0
M  END
$$$$
default_name
  -OEChem-02102213163D

 31 30  0     1  0  0  0  0  0999 V2000
   -3.5895   -3.5013    1.1082 H   0  0  0  0  0  0  0  0  0  0  0  0
   -3.5145   -2.5363    0.6082 C   0  0  0  0  0  0  0  0  0  0  0  0
   -4.2285   -1.8413    1.0452 H   0  0  0  0  0  0  0  0  0  0  0  0
   -3.7155   -2.6583   -0.4538 H   0  0  0  0  0  0  0  0  0  0  0  0
   -2.1155   -1.9963    0.7922 C   0  0  0  0  0  0  0  0  0  0  0  0
   -1.2875   -2.6383    1.4252 O   0  0  0  0  0  0  0  0  0  0  0  0
   -1.8575   -0.8123    0.2402 N   0  0  0  0  0  0  0  0  0  0  0  0
   -2.6005   -0.3333   -0.2478 H   0  0  0  0  0  0  0  0  0  0  0  0
   -0.5675   -0.1203    0.3102 C   0  0  1  0  0  0  0  0  0  0  0  0
    0.1932   -0.7715   -0.1219 H   0  0  0  0  0  0  0  0  0  0  0  0
   -0.6568    1.1713   -0.5294 C   0  0  0  0  0  0  0  0  0  0  0  0
   -1.4207    1.8181   -0.0938 H   0  0  0  0  0  0  0  0  0  0  0  0
    0.3006    1.6913   -0.4513 H   0  0  0  0  0  0  0  0  0  0  0  0
   -0.9766    0.9781   -2.0231 C   0  0  0  0  0  0  0  0  0  0  0  0
   -0.0874    0.6287   -2.5478 H   0  0  0  0  0  0  0  0  0  0  0  0
   -2.1130   -0.0237   -2.2474 C   0  0  0  0  0  0  0  0  0  0  0  0
   -3.0065    0.3042   -1.7145 H   0  0  0  0  0  0  0  0  0  0  0  0
   -2.3377   -0.0918   -3.3120 H   0  0  0  0  0  0  0  0  0  0  0  0
   -1.8297   -1.0120   -1.8916 H   0  0  0  0  0  0  0  0  0  0  0  0
   -1.3951    2.3129   -2.6384 C   0  0  0  0  0  0  0  0  0  0  0  0
   -0.5904    3.0388   -2.5217 H   0  0  0  0  0  0  0  0  0  0  0  0
   -1.5954    2.1843   -3.7020 H   0  0  0  0  0  0  0  0  0  0  0  0
   -2.2927    2.6885   -2.1459 H   0  0  0  0  0  0  0  0  0  0  0  0
   -0.1913    0.1554    1.7759 C   0  0  0  0  0  0  0  0  0  0  0  0
    0.9476   -0.0766    2.1748 O   0  0  0  0  0  0  0  0  0  0  0  0
   -1.1502    0.6393    2.5760 N   0  0  0  0  0  0  0  0  0  0  0  0
   -2.0581    0.8092    2.1736 H   0  0  0  0  0  0  0  0  0  0  0  0
   -0.9568    0.9369    3.9933 C   0  0  0  0  0  0  0  0  0  0  0  0
   -0.1600    1.6750    4.1097 H   0  0  0  0  0  0  0  0  0  0  0  0
   -1.8775    1.3307    4.4266 H   0  0  0  0  0  0  0  0  0  0  0  0
   -0.6678    0.0287    4.5244 H   0  0  0  0  0  0  0  0  0  0  0  0
  5  6  2  0  0  0  0
  5  7  1  0  0  0  0
  2  3  1  0  0  0  0
  2  4  1  0  0  0  0
  2  5  1  0  0  0  0
  1  2  1  0  0  0  0
 24 25  2  0  0  0  0
 24 26  1  0  0  0  0
 20 21  1  0  0  0  0
 20 22  1  0  0  0  0
 20 23  1  0  0  0  0
 16 17  1  0  0  0  0
 16 18  1  0  0  0  0
 16 19  1  0  0  0  0
 14 15  1  0  0  0  0
 14 16  1  0  0  0  0
 14 20  1  0  0  0  0
 11 12  1  0  0  0  0
 11 13  1  0  0  0  0
 11 14  1  0  0  0  0
  9 10  1  0  0  0  0
  9 11  1  0  0  0  0
  9 24  1  0  0  0  0
  7  8  1  0  0  0  0
  7  9  1  0  0  0  0
 28 29  1  0  0  0  0
 28 30  1  0  0  0  0
 28 31  1  0  0  0  0
 26 27  1  0  0  0  0
 26 28  1  0  0  0  0
M  END
$$$$
default_name
  -OEChem-02102213163D

 31 30  0     1  0  0  0  0  0999 V2000
   -3.5895   -3.5013    1.1082 H   0  0  0  0  0  0  0  0  0  0  0  0
   -3.5145   -2.5363    0.6082 C   0  0  0  0  0  0  0  0  0  0  0  0
   -4.2285   -1.8413    1.0452 H   0  0  0  0  0  0  0  0  0  0  0  0
   -3.7155   -2.6583   -0.4538 H   0  0  0  0  0  0  0  0  0  0  0  0
   -2.1155   -1.9963    0.7922 C   0  0  0  0  0  0  0  0  0  0  0  0
   -1.2875   -2.6383    1.4252 O   0  0  0  0  0  0  0  0  0  0  0  0
   -1.8575   -0.8123    0.2402 N   0  0  0  0  0  0  0  0  0  0  0  0
   -2.6005   -0.3333   -0.2478 H   0  0  0  0  0  0  0  0  0  0  0  0
   -0.5675   -0.1203    0.3102 C   0  0  1  0  0  0  0  0  0  0  0  0
    0.1932   -0.7715   -0.1219 H   0  0  0  0  0  0  0  0  0  0  0  0
   -0.6568    1.1713   -0.5294 C   0  0  0  0  0  0  0  0  0  0  0  0
   -1.4207    1.8181   -0.0938 H   0  0  0  0  0  0  0  0  0  0  0  0
    0.3006    1.6913   -0.4513 H   0  0  0  0  0  0  0  0  0  0  0  0
   -0.9766    0.9781   -2.0231 C   0  0  0  0  0  0  0  0  0  0  0  0
   -0.1910    0.3876   -2.4945 H   0  0  0  0  0  0  0  0  0  0  0  0
   -2.3226    0.2812   -2.2419 C   0  0  0  0  0  0  0  0  0  0  0  0
   -3.1181    0.8525   -1.7615 H   0  0  0  0  0  0  0  0  0  0  0  0
   -2.5299    0.2100   -3.3099 H   0  0  0  0  0  0  0  0  0  0  0  0
   -2.3067   -0.7242   -1.8267 H   0  0  0  0  0  0  0  0  0  0  0  0
   -1.0293    2.3372   -2.7198 C   0  0  0  0  0  0  0  0  0  0  0  0
   -0.0710    2.8441   -2.6078 H   0  0  0  0  0  0  0  0  0  0  0  0
   -1.2283    2.2014   -3.7829 H   0  0  0  0  0  0  0  0  0  0  0  0
   -1.8157    2.9533   -2.2824 H   0  0  0  0  0  0  0  0  0  0  0  0
   -0.1913    0.1554    1.7759 C   0  0  0  0  0  0  0  0  0  0  0  0
    0.9476   -0.0766    2.1748 O   0  0  0  0  0  0  0  0  0  0  0  0
   -1.1502    0.6393    2.5760 N   0  0  0  0  0  0  0  0  0  0  0  0
   -2.0581    0.8092    2.1736 H   0  0  0  0  0  0  0  0  0  0  0  0
   -0.9568    0.9369    3.9933 C   0  0  0  0  0  0  0  0  0  0  0  0
   -0.1600    1.6750    4.1097 H   0  0  0  0  0  0  0  0  0  0  0  0
   -1.8775    1.3307    4.4266 H   0  0  0  0  0  0  0  0  0  0  0  0
   -0.6678    0.0287    4.5244 H   0  0  0  0  0  0  0  0  0  0  0  0
  5  6  2  0  0  0  0
  5  7  1  0  0  0  0
  2  3  1  0  0  0  0
  2  4  1  0  0  0  0
  2  5  1  0  0  0  0
  1  2  1  0  0  0  0
 24 25  2  0  0  0  0
 24 26  1  0  0  0  0
 20 21  1  0  0  0  0
 20 22  1  0  0  0  0
 20 23  1  0  0  0  0
 16 17  1  0  0  0  0
 16 18  1  0  0  0  0
 16 19  1  0  0  0  0
 14 15  1  0  0  0  0
 14 16  1  0  0  0  0
 14 20  1  0  0  0  0
 11 12  1  0  0  0  0
 11 13  1  0  0  0  0
 11 14  1  0  0  0  0
  9 10  1  0  0  0  0
  9 11  1  0  0  0  0
  9 24  1  0  0  0  0
  7  8  1  0  0  0  0
  7  9  1  0  0  0  0
 28 29  1  0  0  0  0
 28 30  1  0  0  0  0
 28 31  1  0  0  0  0
 26 27  1  0  0  0  0
 26 28  1  0  0  0  0
M  END
$$$$
default_name
  -OEChem-02102213163D

 31 30  0     1  0  0  0  0  0999 V2000
   -3.5895   -3.5013    1.1082 H   0  0  0  0  0  0  0  0  0  0  0  0
   -3.5145   -2.5363    0.6082 C   0  0  0  0  0  0  0  0  0  0  0  0
   -4.2285   -1.8413    1.0452 H   0  0  0  0  0  0  0  0  0  0  0  0
   -3.7155   -2.6583   -0.4538 H   0  0  0  0  0  0  0  0  0  0  0  0
   -2.1155   -1.9963    0.7922 C   0  0  0  0  0  0  0  0  0  0  0  0
   -1.2875   -2.6383    1.4252 O   0  0  0  0  0  0  0  0  0  0  0  0
   -1.8575   -0.8123    0.2402 N   0  0  0  0  0  0  0  0  0  0  0  0
   -2.6005   -0.3333   -0.2478 H   0  0  0  0  0  0  0  0  0  0  0  0
   -0.5675   -0.1203    0.3102 C   0  0  1  0  0  0  0  0  0  0  0  0
    0.1932   -0.7715   -0.1219 H   0  0  0  0  0  0  0  0  0  0  0  0
   -0.6568    1.1713   -0.5294 C   0  0  0  0  0  0  0  0  0  0  0  0
   -1.4207    1.8181   -0.0938 H   0  0  0  0  0  0  0  0  0  0  0  0
    0.3006    1.6913   -0.4513 H   0  0  0  0  0  0  0  0  0  0  0  0
   -0.9766    0.9781   -2.0231 C   0  0  0  0  0  0  0  0  0  0  0  0
   -0.3533    0.1835   -2.4333 H   0  0  0  0  0  0  0  0  0  0  0  0
   -2.4487    0.6286   -2.2598 C   0  0  0  0  0  0  0  0  0  0  0  0
   -3.0866    1.4077   -1.8401 H   0  0  0  0  0  0  0  0  0  0  0  0
   -2.6398    0.5498   -3.3303 H   0  0  0  0  0  0  0  0  0  0  0  0
   -2.6972   -0.3230   -1.7949 H   0  0  0  0  0  0  0  0  0  0  0  0
   -0.6673    2.2645   -2.7879 C   0  0  0  0  0  0  0  0  0  0  0  0
    0.3847    2.5211   -2.6635 H   0  0  0  0  0  0  0  0  0  0  0  0
   -0.8668    2.1215   -3.8499 H   0  0  0  0  0  0  0  0  0  0  0  0
   -1.2840    3.0820   -2.4129 H   0  0  0  0  0  0  0  0  0  0  0  0
   -0.1913    0.1554    1.7759 C   0  0  0  0  0  0  0  0  0  0  0  0
    0.9476   -0.0766    2.1748 O   0  0  0  0  0  0  0  0  0  0  0  0
   -1.1502    0.6393    2.5760 N   0  0  0  0  0  0  0  0  0  0  0  0
   -2.0581    0.8092    2.1736 H   0  0  0  0  0  0  0  0  0  0  0  0
   -0.9568    0.9369    3.9933 C   0  0  0  0  0  0  0  0  0  0  0  0
   -0.1600    1.6750    4.1097 H   0  0  0  0  0  0  0  0  0  0  0  0
   -1.8775    1.3307    4.4266 H   0  0  0  0  0  0  0  0  0  0  0  0
   -0.6678    0.0287    4.5244 H   0  0  0  0  0  0  0  0  0  0  0  0
  5  6  2  0  0  0  0
  5  7  1  0  0  0  0
  2  3  1  0  0  0  0
  2  4  1  0  0  0  0
  2  5  1  0  0  0  0
  1  2  1  0  0  0  0
 24 25  2  0  0  0  0
 24 26  1  0  0  0  0
 20 21  1  0  0  0  0
 20 22  1  0  0  0  0
 20 23  1  0  0  0  0
 16 17  1  0  0  0  0
 16 18  1  0  0  0  0
 16 19  1  0  0  0  0
 14 15  1  0  0  0  0
 14 16  1  0  0  0  0
 14 20  1  0  0  0  0
 11 12  1  0  0  0  0
 11 13  1  0  0  0  0
 11 14  1  0  0  0  0
  9 10  1  0  0  0  0
  9 11  1  0  0  0  0
  9 24  1  0  0  0  0
  7  8  1  0  0  0  0
  7  9  1  0  0  0  0
 28 29  1  0  0  0  0
 28 30  1  0  0  0  0
 28 31  1  0  0  0  0
 26 27  1  0  0  0  0
 26 28  1  0  0  0  0
M  END
$$$$
default_name
  -OEChem-02102213163D

 31 30  0     1  0  0  0  0  0999 V2000
   -3.5895   -3.5013    1.1082 H   0  0  0  0  0  0  0  0  0  0  0  0
   -3.5145   -2.5363    0.6082 C   0  0  0  0  0  0  0  0  0  0  0  0
   -4.2285   -1.8413    1.0452 H   0  0  0  0  0  0  0  0  0  0  0  0
   -3.7155   -2.6583   -0.4538 H   0  0  0  0  0  0  0  0  0  0  0  0
   -2.1155   -1.9963    0.7922 C   0  0  0  0  0  0  0  0  0  0  0  0
   -1.2875   -2.6383    1.4252 O   0  0  0  0  0  0  0  0  0  0  0  0
   -1.8575   -0.8123    0.2402 N   0  0  0  0  0  0  0  0  0  0  0  0
   -2.6005   -0.3333   -0.2478 H   0  0  0  0  0  0  0  0  0  0  0  0
   -0.5675   -0.1203    0.3102 C   0  0  1  0  0  0  0  0  0  0  0  0
    0.1932   -0.7715   -0.1219 H   0  0  0  0  0  0  0  0  0  0  0  0
   -0.6568    1.1713   -0.5294 C   0  0  0  0  0  0  0  0  0  0  0  0
   -1.4207    1.8181   -0.0938 H   0  0  0  0  0  0  0  0  0  0  0  0
    0.3006    1.6913   -0.4513 H   0  0  0  0  0  0  0  0  0  0  0  0
   -0.9766    0.9781   -2.0231 C   0  0  0  0  0  0  0  0  0  0  0  0
   -0.5633    0.0305   -2.3685 H   0  0  0  0  0  0  0  0  0  0  0  0
   -2.4827    0.9950   -2.3000 C   0  0  0  0  0  0  0  0  0  0  0  0
   -2.9142    1.9318   -1.9448 H   0  0  0  0  0  0  0  0  0  0  0  0
   -2.6600    0.9046   -3.3719 H   0  0  0  0  0  0  0  0  0  0  0  0
   -2.9748    0.1644   -1.7985 H   0  0  0  0  0  0  0  0  0  0  0  0
   -0.3337    2.0997   -2.8381 C   0  0  0  0  0  0  0  0  0  0  0  0
    0.7455    2.0917   -2.6853 H   0  0  0  0  0  0  0  0  0  0  0  0
   -0.5355    1.9498   -3.8987 H   0  0  0  0  0  0  0  0  0  0  0  0
   -0.7339    3.0658   -2.5286 H   0  0  0  0  0  0  0  0  0  0  0  0
   -0.1913    0.1554    1.7759 C   0  0  0  0  0  0  0  0  0  0  0  0
    0.9476   -0.0766    2.1748 O   0  0  0  0  0  0  0  0  0  0  0  0
   -1.1502    0.6393    2.5760 N   0  0  0  0  0  0  0  0  0  0  0  0
   -2.0581    0.8092    2.1736 H   0  0  0  0  0  0  0  0  0  0  0  0
   -0.9568    0.9369    3.9933 C   0  0  0  0  0  0  0  0  0  0  0  0
   -0.1600    1.6750    4.1097 H   0  0  0  0  0  0  0  0  0  0  0  0
   -1.8775    1.3307    4.4266 H   0  0  0  0  0  0  0  0  0  0  0  0
   -0.6678    0.0287    4.5244 H   0  0  0  0  0  0  0  0  0  0  0  0
  5  6  2  0  0  0  0
  5  7  1  0  0  0  0
  2  3  1  0  0  0  0
  2  4  1  0  0  0  0
  2  5  1  0  0  0  0
  1  2  1  0  0  0  0
 24 25  2  0  0  0  0
 24 26  1  0  0  0  0
 20 21  1  0  0  0  0
 20 22  1  0  0  0  0
 20 23  1  0  0  0  0
 16 17  1  0  0  0  0
 16 18  1  0  0  0  0
 16 19  1  0  0  0  0
 14 15  1  0  0  0  0
 14 16  1  0  0  0  0
 14 20  1  0  0  0  0
 11 12  1  0  0  0  0
 11 13  1  0  0  0  0
 11 14  1  0  0  0  0
  9 10  1  0  0  0  0
  9 11  1  0  0  0  0
  9 24  1  0  0  0  0
  7  8  1  0  0  0  0
  7  9  1  0  0  0  0
 28 29  1  0  0  0  0
 28 30  1  0  0  0  0
 28 31  1  0  0  0  0
 26 27  1  0  0  0  0
 26 28  1  0  0  0  0
M  END
$$$$
default_name
  -OEChem-02102213163D

 31 30  0     1  0  0  0  0  0999 V2000
   -3.5895   -3.5013    1.1082 H   0  0  0  0  0  0  0  0  0  0  0  0
   -3.5145   -2.5363    0.6082 C   0  0  0  0  0  0  0  0  0  0  0  0
   -4.2285   -1.8413    1.0452 H   0  0  0  0  0  0  0  0  0  0  0  0
   -3.7155   -2.6583   -0.4538 H   0  0  0  0  0  0  0  0  0  0  0  0
   -2.1155   -1.9963    0.7922 C   0  0  0  0  0  0  0  0  0  0  0  0
   -1.2875   -2.6383    1.4252 O   0  0  0  0  0  0  0  0  0  0  0  0
   -1.8575   -0.8123    0.2402 N   0  0  0  0  0  0  0  0  0  0  0  0
   -2.6005   -0.3333   -0.2478 H   0  0  0  0  0  0  0  0  0  0  0  0
   -0.5675   -0.1203    0.3102 C   0  0  1  0  0  0  0  0  0  0  0  0
    0.1932   -0.7715   -0.1219 H   0  0  0  0  0  0  0  0  0  0  0  0
   -0.6568    1.1713   -0.5294 C   0  0  0  0  0  0  0  0  0  0  0  0
   -1.4207    1.8181   -0.0938 H   0  0  0  0  0  0  0  0  0  0  0  0
    0.3006    1.6913   -0.4513 H   0  0  0  0  0  0  0  0  0  0  0  0
   -0.9766    0.9781   -2.0231 C   0  0  0  0  0  0  0  0  0  0  0  0
   -0.8067   -0.0612   -2.3046 H   0  0  0  0  0  0  0  0  0  0  0  0
   -2.4223    1.3552   -2.3595 C   0  0  0  0  0  0  0  0  0  0  0  0
   -2.6128    2.3891   -2.0685 H   0  0  0  0  0  0  0  0  0  0  0  0
   -2.5891    1.2501   -3.4318 H   0  0  0  0  0  0  0  0  0  0  0  0
   -3.1205    0.7046   -1.8372 H   0  0  0  0  0  0  0  0  0  0  0  0
   -0.0512    1.8540   -2.8668 C   0  0  0  0  0  0  0  0  0  0  0  0
    0.9869    1.5851   -2.6714 H   0  0  0  0  0  0  0  0  0  0  0  0
   -0.2570    1.6982   -3.9258 H   0  0  0  0  0  0  0  0  0  0  0  0
   -0.2028    2.9058   -2.6216 H   0  0  0  0  0  0  0  0  0  0  0  0
   -0.1913    0.1554    1.7759 C   0  0  0  0  0  0  0  0  0  0  0  0
    0.9476   -0.0766    2.1748 O   0  0  0  0  0  0  0  0  0  0  0  0
   -1.1502    0.6393    2.5760 N   0  0  0  0  0  0  0  0  0  0  0  0
   -2.0581    0.8092    2.1736 H   0  0  0  0  0  0  0  0  0  0  0  0
   -0.9568    0.9369    3.9933 C   0  0  0  0  0  0  0  0  0  0  0  0
   -0.1600    1.6750    4.1097 H   0  0  0  0  0  0  0  0  0  0  0  0
   -1.8775    1.3307    4.4266 H   0  0  0  0  0  0  0  0  0  0  0  0
   -0.6678    0.0287    4.5244 H   0  0  0  0  0  0  0  0  0  0  0  0
  5  6  2  0  0  0  0
  5  7  1  0  0  0  0
  2  3  1  0  0  0  0
  2  4  1  0  0  0  0
  2  5  1  0  0  0  0
  1  2  1  0  0  0  0
 24 25  2  0  0  0  0
 24 26  1  0  0  0  0
 20 21  1  0  0  0  0
 20 22  1  0  0  0  0
 20 23  1  0  0  0  0
 16 17  1  0  0  0  0
 16 18  1  0  0  0  0
 16 19  1  0  0  0  0
 14 15  1  0  0  0  0
 14 16  1  0  0  0  0
 14 20  1  0  0  0  0
 11 12  1  0  0  0  0
 11 13  1  0  0  0  0
 11 14  1  0  0  0  0
  9 10  1  0  0  0  0
  9 11  1  0  0  0  0
  9 24  1  0  0  0  0
  7  8  1  0  0  0  0
  7  9  1  0  0  0  0
 28 29  1  0  0  0  0
 28 30  1  0  0  0  0
 28 31  1  0  0  0  0
 26 27  1  0  0  0  0
 26 28  1  0  0  0  0
M  END
$$$$
default_name
  -OEChem-02102213163D

 31 30  0     1  0  0  0  0  0999 V2000
   -3.5895   -3.5013    1.1082 H   0  0  0  0  0  0  0  0  0  0  0  0
   -3.5145   -2.5363    0.6082 C   0  0  0  0  0  0  0  0  0  0  0  0
   -4.2285   -1.8413    1.0452 H   0  0  0  0  0  0  0  0  0  0  0  0
   -3.7155   -2.6583   -0.4538 H   0  0  0  0  0  0  0  0  0  0  0  0
   -2.1155   -1.9963    0.7922 C   0  0  0  0  0  0  0  0  0  0  0  0
   -1.2875   -2.6383    1.4252 O   0  0  0  0  0  0  0  0  0  0  0  0
   -1.8575   -0.8123    0.2402 N   0  0  0  0  0  0  0  0  0  0  0  0
   -2.6005   -0.3333   -0.2478 H   0  0  0  0  0  0  0  0  0  0  0  0
   -0.5675   -0.1203    0.3102 C   0  0  1  0  0  0  0  0  0  0  0  0
    0.1932   -0.7715   -0.1219 H   0  0  0  0  0  0  0  0  0  0  0  0
   -0.6568    1.1713   -0.5294 C   0  0  0  0  0  0  0  0  0  0  0  0
   -1.4207    1.8181   -0.0938 H   0  0  0  0  0  0  0  0  0  0  0  0
    0.3006    1.6913   -0.4513 H   0  0  0  0  0  0  0  0  0  0  0  0
   -0.9766    0.9781   -2.0231 C   0  0  0  0  0  0  0  0  0  0  0  0
   -1.0669   -0.0851   -2.2457 H   0  0  0  0  0  0  0  0  0  0  0  0
   -2.2715    1.6847   -2.4344 C   0  0  0  0  0  0  0  0  0  0  0  0
   -2.2027    2.7485   -2.2028 H   0  0  0  0  0  0  0  0  0  0  0  0
   -2.4319    1.5628   -3.5059 H   0  0  0  0  0  0  0  0  0  0  0  0
   -3.1242    1.2609   -1.9084 H   0  0  0  0  0  0  0  0  0  0  0  0
    0.1610    1.5442   -2.8721 C   0  0  0  0  0  0  0  0  0  0  0  0
    1.0924    1.0360   -2.6230 H   0  0  0  0  0  0  0  0  0  0  0  0
   -0.0502    1.3839   -3.9294 H   0  0  0  0  0  0  0  0  0  0  0  0
    0.2730    2.6129   -2.6856 H   0  0  0  0  0  0  0  0  0  0  0  0
   -0.1913    0.1554    1.7759 C   0  0  0  0  0  0  0  0  0  0  0  0
    0.9476   -0.0766    2.1748 O   0  0  0  0  0  0  0  0  0  0  0  0
   -1.1502    0.6393    2.5760 N   0  0  0  0  0  0  0  0  0  0  0  0
   -2.0581    0.8092    2.1736 H   0  0  0  0  0  0  0  0  0  0  0  0
   -0.9568    0.9369    3.9933 C   0  0  0  0  0  0  0  0  0  0  0  0
   -0.1600    1.6750    4.1097 H   0  0  0  0  0  0  0  0  0  0  0  0
   -1.8775    1.3307    4.4266 H   0  0  0  0  0  0  0  0  0  0  0  0
   -0.6678    0.0287    4.5244 H   0  0  0  0  0  0  0  0  0  0  0  0
  5  6  2  0  0  0  0
  5  7  1  0  0  0  0
  2  3  1  0  0  0  0
  2  4  1  0  0  0  0
  2  5  1  0  0  0  0
  1  2  1  0  0  0  0
 24 25  2  0  0  0  0
 24 26  1  0  0  0  0
 20 21  1  0  0  0  0
 20 22  1  0  0  0  0
 20 23  1  0  0  0  0
 16 17  1  0  0  0  0
 16 18  1  0  0  0  0
 16 19  1  0  0  0  0
 14 15  1  0  0  0  0
 14 16  1  0  0  0  0
 14 20  1  0  0  0  0
 11 12  1  0  0  0  0
 11 13  1  0  0  0  0
 11 14  1  0  0  0  0
  9 10  1  0  0  0  0
  9 11  1  0  0  0  0
  9 24  1  0  0  0  0
  7  8  1  0  0  0  0
  7  9  1  0  0  0  0
 28 29  1  0  0  0  0
 28 30  1  0  0  0  0
 28 31  1  0  0  0  0
 26 27  1  0  0  0  0
 26 28  1  0  0  0  0
M  END
$$$$
default_name
  -OEChem-02102213163D

 31 30  0     1  0  0  0  0  0999 V2000
   -3.5895   -3.5013    1.1082 H   0  0  0  0  0  0  0  0  0  0  0  0
   -3.5145   -2.5363    0.6082 C   0  0  0  0  0  0  0  0  0  0  0  0
   -4.2285   -1.8413    1.0452 H   0  0  0  0  0  0  0  0  0  0  0  0
   -3.7155   -2.6583   -0.4538 H   0  0  0  0  0  0  0  0  0  0  0  0
   -2.1155   -1.9963    0.7922 C   0  0  0  0  0  0  0  0  0  0  0  0
   -1.2875   -2.6383    1.4252 O   0  0  0  0  0  0  0  0  0  0  0  0
   -1.8575   -0.8123    0.2402 N   0  0  0  0  0  0  0  0  0  0  0  0
   -2.6005   -0.3333   -0.2478 H   0  0  0  0  0  0  0  0  0  0  0  0
   -0.5675   -0.1203    0.3102 C   0  0  1  0  0  0  0  0  0  0  0  0
    0.1932   -0.7715   -0.1219 H   0  0  0  0  0  0  0  0  0  0  0  0
   -0.6568    1.1713   -0.5294 C   0  0  0  0  0  0  0  0  0  0  0  0
   -1.4207    1.8181   -0.0938 H   0  0  0  0  0  0  0  0  0  0  0  0
    0.3006    1.6913   -0.4513 H   0  0  0  0  0  0  0  0  0  0  0  0
   -0.9766    0.9781   -2.0231 C   0  0  0  0  0  0  0  0  0  0  0  0
   -1.3262   -0.0398   -2.1961 H   0  0  0  0  0  0  0  0  0  0  0  0
   -2.0407    1.9612   -2.5196 C   0  0  0  0  0  0  0  0  0  0  0  0
   -1.7121    2.9855   -2.3385 H   0  0  0  0  0  0  0  0  0  0  0  0
   -2.1992    1.8215   -3.5892 H   0  0  0  0  0  0  0  0  0  0  0  0
   -2.9859    1.7954   -2.0071 H   0  0  0  0  0  0  0  0  0  0  0  0
    0.2883    1.1914   -2.8538 C   0  0  0  0  0  0  0  0  0  0  0  0
    1.0549    0.4816   -2.5433 H   0  0  0  0  0  0  0  0  0  0  0  0
    0.0706    1.0281   -3.9092 H   0  0  0  0  0  0  0  0  0  0  0  0
    0.6611    2.2070   -2.7162 H   0  0  0  0  0  0  0  0  0  0  0  0
   -0.1913    0.1554    1.7759 C   0  0  0  0  0  0  0  0  0  0  0  0
    0.9476   -0.0766    2.1748 O   0  0  0  0  0  0  0  0  0  0  0  0
   -1.1502    0.6393    2.5760 N   0  0  0  0  0  0  0  0  0  0  0  0
   -2.0581    0.8092    2.1736 H   0  0  0  0  0  0  0  0  0  0  0  0
   -0.9568    0.9369    3.9933 C   0  0  0  0  0  0  0  0  0  0  0  0
   -0.1600    1.6750    4.1097 H   0  0  0  0  0  0  0  0  0  0  0  0
   -1.8775    1.3307    4.4266 H   0  0  0  0  0  0  0  0  0  0  0  0
   -0.6678    0.0287    4.5244 H   0  0  0  0  0  0  0  0  0  0  0  0
  5  6  2  0  0  0  0
  5  7  1  0  0  0  0
  2  3  1  0  0  0  0
  2  4  1  0  0  0  0
  2  5  1  0  0  0  0
  1  2  1  0  0  0  0
 24 25  2  0  0  0  0
 24 26  1  0  0  0  0
 20 21  1  0  0  0  0
 20 22  1  0  0  0  0
 20 23  1  0  0  0  0
 16 17  1  0  0  0  0
 16 18  1  0  0  0  0
 16 19  1  0  0  0  0
 14 15  1  0  0  0  0
 14 16  1  0  0  0  0
 14 20  1  0  0  0  0
 11 12  1  0  0  0  0
 11 13  1  0  0  0  0
 11 14  1  0  0  0  0
  9 10  1  0  0  0  0
  9 11  1  0  0  0  0
  9 24  1  0  0  0  0
  7  8  1  0  0  0  0
  7  9  1  0  0  0  0
 28 29  1  0  0  0  0
 28 30  1  0  0  0  0
 28 31  1  0  0  0  0
 26 27  1  0  0  0  0
 26 28  1  0  0  0  0
M  END
$$$$
default_name
  -OEChem-02102213163D

 31 30  0     1  0  0  0  0  0999 V2000
   -3.5895   -3.5013    1.1082 H   0  0  0  0  0  0  0  0  0  0  0  0
   -3.5145   -2.5363    0.6082 C   0  0  0  0  0  0  0  0  0  0  0  0
   -4.2285   -1.8413    1.0452 H   0  0  0  0  0  0  0  0  0  0  0  0
   -3.7155   -2.6583   -0.4538 H   0  0  0  0  0  0  0  0  0  0  0  0
   -2.1155   -1.9963    0.7922 C   0  0  0  0  0  0  0  0  0  0  0  0
   -1.2875   -2.6383    1.4252 O   0  0  0  0  0  0  0  0  0  0  0  0
   -1.8575   -0.8123    0.2402 N   0  0  0  0  0  0  0  0  0  0  0  0
   -2.6005   -0.3333   -0.2478 H   0  0  0  0  0  0  0  0  0  0  0  0
   -0.5675   -0.1203    0.3102 C   0  0  1  0  0  0  0  0  0  0  0  0
    0.1932   -0.7715   -0.1219 H   0  0  0  0  0  0  0  0  0  0  0  0
   -0.6568    1.1713   -0.5294 C   0  0  0  0  0  0  0  0  0  0  0  0
   -1.4207    1.8181   -0.0938 H   0  0  0  0  0  0  0  0  0  0  0  0
    0.3006    1.6913   -0.4513 H   0  0  0  0  0  0  0  0  0  0  0  0
   -0.9766    0.9781   -2.0231 C   0  0  0  0  0  0  0  0  0  0  0  0
   -1.5668    0.0718   -2.1590 H   0  0  0  0  0  0  0  0  0  0  0  0
   -1.7456    2.1657   -2.6092 C   0  0  0  0  0  0  0  0  0  0  0  0
   -1.1742    3.0839   -2.4664 H   0  0  0  0  0  0  0  0  0  0  0  0
   -1.9067    2.0084   -3.6760 H   0  0  0  0  0  0  0  0  0  0  0  0
   -2.7148    2.2716   -2.1268 H   0  0  0  0  0  0  0  0  0  0  0  0
    0.3221    0.8197   -2.8129 C   0  0  0  0  0  0  0  0  0  0  0  0
    0.8769   -0.0401   -2.4377 H   0  0  0  0  0  0  0  0  0  0  0  0
    0.0974    0.6552   -3.8667 H   0  0  0  0  0  0  0  0  0  0  0  0
    0.9352    1.7159   -2.7114 H   0  0  0  0  0  0  0  0  0  0  0  0
   -0.1913    0.1554    1.7759 C   0  0  0  0  0  0  0  0  0  0  0  0
    0.9476   -0.0766    2.1748 O   0  0  0  0  0  0  0  0  0  0  0  0
   -1.1502    0.6393    2.5760 N   0  0  0  0  0  0  0  0  0  0  0  0
   -2.0581    0.8092    2.1736 H   0  0  0  0  0  0  0  0  0  0  0  0
   -0.9568    0.9369    3.9933 C   0  0  0  0  0  0  0  0  0  0  0  0
   -0.1600    1.6750    4.1097 H   0  0  0  0  0  0  0  0  0  0  0  0
   -1.8775    1.3307    4.4266 H   0  0  0  0  0  0  0  0  0  0  0  0
   -0.6678    0.0287    4.5244 H   0  0  0  0  0  0  0  0  0  0  0  0
  5  6  2  0  0  0  0
  5  7  1  0  0  0  0
  2  3  1  0  0  0  0
  2  4  1  0  0  0  0
  2  5  1  0  0  0  0
  1  2  1  0  0  0  0
 24 25  2  0  0  0  0
 24 26  1  0  0  0  0
 20 21  1  0  0  0  0
 20 22  1  0  0  0  0
 20 23  1  0  0  0  0
 16 17  1  0  0  0  0
 16 18  1  0  0  0  0
 16 19  1  0  0  0  0
 14 15  1  0  0  0  0
 14 16  1  0  0  0  0
 14 20  1  0  0  0  0
 11 12  1  0  0  0  0
 11 13  1  0  0  0  0
 11 14  1  0  0  0  0
  9 10  1  0  0  0  0
  9 11  1  0  0  0  0
  9 24  1  0  0  0  0
  7  8  1  0  0  0  0
  7  9  1  0  0  0  0
 28 29  1  0  0  0  0
 28 30  1  0  0  0  0
 28 31  1  0  0  0  0
 26 27  1  0  0  0  0
 26 28  1  0  0  0  0
M  END
$$$$
default_name
  -OEChem-02102213163D

 31 30  0     1  0  0  0  0  0999 V2000
   -3.5895   -3.5013    1.1082 H   0  0  0  0  0  0  0  0  0  0  0  0
   -3.5145   -2.5363    0.6082 C   0  0  0  0  0  0  0  0  0  0  0  0
   -4.2285   -1.8413    1.0452 H   0  0  0  0  0  0  0  0  0  0  0  0
   -3.7155   -2.6583   -0.4538 H   0  0  0  0  0  0  0  0  0  0  0  0
   -2.1155   -1.9963    0.7922 C   0  0  0  0  0  0  0  0  0  0  0  0
   -1.2875   -2.6383    1.4252 O   0  0  0  0  0  0  0  0  0  0  0  0
   -1.8575   -0.8123    0.2402 N   0  0  0  0  0  0  0  0  0  0  0  0
   -2.6005   -0.3333   -0.2478 H   0  0  0  0  0  0  0  0  0  0  0  0
   -0.5675   -0.1203    0.3102 C   0  0  1  0  0  0  0  0  0  0  0  0
    0.1932   -0.7715   -0.1219 H   0  0  0  0  0  0  0  0  0  0  0  0
   -0.6568    1.1713   -0.5294 C   0  0  0  0  0  0  0  0  0  0  0  0
   -1.4207    1.8181   -0.0938 H   0  0  0  0  0  0  0  0  0  0  0  0
    0.3006    1.6913   -0.4513 H   0  0  0  0  0  0  0  0  0  0  0  0
   -0.9766    0.9781   -2.0231 C   0  0  0  0  0  0  0  0  0  0  0  0
   -1.7724    0.2420   -2.1370 H   0  0  0  0  0  0  0  0  0  0  0  0
   -1.4063    2.2843   -2.6972 C   0  0  0  0  0  0  0  0  0  0  0  0
   -0.6258    3.0371   -2.5778 H   0  0  0  0  0  0  0  0  0  0  0  0
   -1.5744    2.1108   -3.7604 H   0  0  0  0  0  0  0  0  0  0  0  0
   -2.3296    2.6571   -2.2591 H   0  0  0  0  0  0  0  0  0  0  0  0
    0.2600    0.4544   -2.7524 C   0  0  0  0  0  0  0  0  0  0  0  0
    0.5705   -0.4937   -2.3134 H   0  0  0  0  0  0  0  0  0  0  0  0
    0.0282    0.2905   -3.8048 H   0  0  0  0  0  0  0  0  0  0  0  0
    1.0764    1.1730   -2.6714 H   0  0  0  0  0  0  0  0  0  0  0  0
   -0.1913    0.1554    1.7759 C   0  0  0  0  0  0  0  0  0  0  0  0
    0.9476   -0.0766    2.1748 O   0  0  0  0  0  0  0  0  0  0  0  0
   -1.1502    0.6393    2.5760 N   0  0  0  0  0  0  0  0  0  0  0  0
   -2.0581    0.8092    2.1736 H   0  0  0  0  0  0  0  0  0  0  0  0
   -0.9568    0.9369    3.9933 C   0  0  0  0  0  0  0  0  0  0  0  0
   -0.1600    1.6750    4.1097 H   0  0  0  0  0  0  0  0  0  0  0  0
   -1.8775    1.3307    4.4266 H   0  0  0  0  0  0  0  0  0  0  0  0
   -0.6678    0.0287    4.5244 H   0  0  0  0  0  0  0  0  0  0  0  0
  5  6  2  0  0  0  0
  5  7  1  0  0  0  0
  2  3  1  0  0  0  0
  2  4  1  0  0  0  0
  2  5  1  0  0  0  0
  1  2  1  0  0  0  0
 24 25  2  0  0  0  0
 24 26  1  0  0  0  0
 20 21  1  0  0  0  0
 20 22  1  0  0  0  0
 20 23  1  0  0  0  0
 16 17  1  0  0  0  0
 16 18  1  0  0  0  0
 16 19  1  0  0  0  0
 14 15  1  0  0  0  0
 14 16  1  0  0  0  0
 14 20  1  0  0  0  0
 11 12  1  0  0  0  0
 11 13  1  0  0  0  0
 11 14  1  0  0  0  0
  9 10  1  0  0  0  0
  9 11  1  0  0  0  0
  9 24  1  0  0  0  0
  7  8  1  0  0  0  0
  7  9  1  0  0  0  0
 28 29  1  0  0  0  0
 28 30  1  0  0  0  0
 28 31  1  0  0  0  0
 26 27  1  0  0  0  0
 26 28  1  0  0  0  0
M  END
$$$$
default_name
  -OEChem-02102213163D

 31 30  0     1  0  0  0  0  0999 V2000
   -3.5895   -3.5013    1.1082 H   0  0  0  0  0  0  0  0  0  0  0  0
   -3.5145   -2.5363    0.6082 C   0  0  0  0  0  0  0  0  0  0  0  0
   -4.2285   -1.8413    1.0452 H   0  0  0  0  0  0  0  0  0  0  0  0
   -3.7155   -2.6583   -0.4538 H   0  0  0  0  0  0  0  0  0  0  0  0
   -2.1155   -1.9963    0.7922 C   0  0  0  0  0  0  0  0  0  0  0  0
   -1.2875   -2.6383    1.4252 O   0  0  0  0  0  0  0  0  0  0  0  0
   -1.8575   -0.8123    0.2402 N   0  0  0  0  0  0  0  0  0  0  0  0
   -2.6005   -0.3333   -0.2478 H   0  0  0  0  0  0  0  0  0  0  0  0
   -0.5675   -0.1203    0.3102 C   0  0  1  0  0  0  0  0  0  0  0  0
    0.1932   -0.7715   -0.1219 H   0  0  0  0  0  0  0  0  0  0  0  0
   -0.6568    1.1713   -0.5294 C   0  0  0  0  0  0  0  0  0  0  0  0
   -1.2099    1.9202    0.0407 H   0  0  0  0  0  0  0  0  0  0  0  0
    0.3575    1.5495   -0.6754 H   0  0  0  0  0  0  0  0  0  0  0  0
   -1.3178    1.0264   -1.9125 C   0  0  0  0  0  0  0  0  0  0  0  0
   -2.3337    0.6486   -1.7971 H   0  0  0  0  0  0  0  0  0  0  0  0
   -1.3638    2.3540   -2.6745 C   0  0  0  0  0  0  0  0  0  0  0  0
   -0.3546    2.7534   -2.7840 H   0  0  0  0  0  0  0  0  0  0  0  0
   -1.7935    2.1948   -3.6638 H   0  0  0  0  0  0  0  0  0  0  0  0
   -1.9777    3.0797   -2.1454 H   0  0  0  0  0  0  0  0  0  0  0  0
   -0.5331    0.0234   -2.7572 C   0  0  0  0  0  0  0  0  0  0  0  0
   -0.5111   -0.9426   -2.2531 H   0  0  0  0  0  0  0  0  0  0  0  0
   -1.0150   -0.1016   -3.7269 H   0  0  0  0  0  0  0  0  0  0  0  0
    0.4884    0.3753   -2.9057 H   0  0  0  0  0  0  0  0  0  0  0  0
   -0.1913    0.1554    1.7759 C   0  0  0  0  0  0  0  0  0  0  0  0
    0.9476   -0.0766    2.1748 O   0  0  0  0  0  0  0  0  0  0  0  0
   -1.1502    0.6393    2.5760 N   0  0  0  0  0  0  0  0  0  0  0  0
   -2.0581    0.8092    2.1736 H   0  0  0  0  0  0  0  0  0  0  0  0
   -0.9568    0.9369    3.9933 C   0  0  0  0  0  0  0  0  0  0  0  0
   -0.1600    1.6750    4.1097 H   0  0  0  0  0  0  0  0  0  0  0  0
   -1.8775    1.3307    4.4266 H   0  0  0  0  0  0  0  0  0  0  0  0
   -0.6678    0.0287    4.5244 H   0  0  0  0  0  0  0  0  0  0  0  0
  5  6  2  0  0  0  0
  5  7  1  0  0  0  0
  2  3  1  0  0  0  0
  2  4  1  0  0  0  0
  2  5  1  0  0  0  0
  1  2  1  0  0  0  0
 24 25  2  0  0  0  0
 24 26  1  0  0  0  0
 20 21  1  0  0  0  0
 20 22  1  0  0  0  0
 20 23  1  0  0  0  0
 16 17  1  0  0  0  0
 16 18  1  0  0  0  0
 16 19  1  0  0  0  0
 14 15  1  0  0  0  0
 14 16  1  0  0  0  0
 14 20  1  0  0  0  0
 11 12  1  0  0  0  0
 11 13  1  0  0  0  0
 11 14  1  0  0  0  0
  9 10  1  0  0  0  0
  9 11  1  0  0  0  0
  9 24  1  0  0  0  0
  7  8  1  0  0  0  0
  7  9  1  0  0  0  0
 28 29  1  0  0  0  0
 28 30  1  0  0  0  0
 28 31  1  0  0  0  0
 26 27  1  0  0  0  0
 26 28  1  0  0  0  0
M  END
$$$$
default_name
  -OEChem-02102213163D

 31 30  0     1  0  0  0  0  0999 V2000
   -3.5895   -3.5013    1.1082 H   0  0  0  0  0  0  0  0  0  0  0  0
   -3.5145   -2.5363    0.6082 C   0  0  0  0  0  0  0  0  0  0  0  0
   -4.2285   -1.8413    1.0452 H   0  0  0  0  0  0  0  0  0  0  0  0
   -3.7155   -2.6583   -0.4538 H   0  0  0  0  0  0  0  0  0  0  0  0
   -2.1155   -1.9963    0.7922 C   0  0  0  0  0  0  0  0  0  0  0  0
   -1.2875   -2.6383    1.4252 O   0  0  0  0  0  0  0  0  0  0  0  0
   -1.8575   -0.8123    0.2402 N   0  0  0  0  0  0  0  0  0  0  0  0
   -2.6005   -0.3333   -0.2478 H   0  0  0  0  0  0  0  0  0  0  0  0
   -0.5675   -0.1203    0.3102 C   0  0  1  0  0  0  0  0  0  0  0  0
    0.1932   -0.7715   -0.1219 H   0  0  0  0  0  0  0  0  0  0  0  0
   -0.6568    1.1713   -0.5294 C   0  0  0  0  0  0  0  0  0  0  0  0
   -1.2099    1.9202    0.0407 H   0  0  0  0  0  0  0  0  0  0  0  0
    0.3575    1.5495   -0.6754 H   0  0  0  0  0  0  0  0  0  0  0  0
   -1.3178    1.0264   -1.9125 C   0  0  0  0  0  0  0  0  0  0  0  0
   -2.3952    0.9093   -1.7951 H   0  0  0  0  0  0  0  0  0  0  0  0
   -1.0435    2.2329   -2.8149 C   0  0  0  0  0  0  0  0  0  0  0  0
    0.0323    2.3732   -2.9291 H   0  0  0  0  0  0  0  0  0  0  0  0
   -1.4874    2.0656   -3.7965 H   0  0  0  0  0  0  0  0  0  0  0  0
   -1.4766    3.1363   -2.3908 H   0  0  0  0  0  0  0  0  0  0  0  0
   -0.7800   -0.2203   -2.6137 C   0  0  0  0  0  0  0  0  0  0  0  0
   -0.9902   -1.1014   -2.0075 H   0  0  0  0  0  0  0  0  0  0  0  0
   -1.2669   -0.3404   -3.5815 H   0  0  0  0  0  0  0  0  0  0  0  0
    0.2970   -0.1333   -2.7610 H   0  0  0  0  0  0  0  0  0  0  0  0
   -0.1913    0.1554    1.7759 C   0  0  0  0  0  0  0  0  0  0  0  0
    0.9476   -0.0766    2.1748 O   0  0  0  0  0  0  0  0  0  0  0  0
   -1.1502    0.6393    2.5760 N   0  0  0  0  0  0  0  0  0  0  0  0
   -2.0581    0.8092    2.1736 H   0  0  0  0  0  0  0  0  0  0  0  0
   -0.9568    0.9369    3.9933 C   0  0  0  0  0  0  0  0  0  0  0  0
   -0.1600    1.6750    4.1097 H   0  0  0  0  0  0  0  0  0  0  0  0
   -1.8775    1.3307    4.4266 H   0  0  0  0  0  0  0  0  0  0  0  0
   -0.6678    0.0287    4.5244 H   0  0  0  0  0  0  0  0  0  0  0  0
  5  6  2  0  0  0  0
  5  7  1  0  0  0  0
  2  3  1  0  0  0  0
  2  4  1  0  0  0  0
  2  5  1  0  0  0  0
  1  2  1  0  0  0  0
 24 25  2  0  0  0  0
 24 26  1  0  0  0  0
 20 21  1  0  0  0  0
 20 22  1  0  0  0  0
 20 23  1  0  0  0  0
 16 17  1  0  0  0  0
 16 18  1  0  0  0  0
 16 19  1  0  0  0  0
 14 15  1  0  0  0  0
 14 16  1  0  0  0  0
 14 20  1  0  0  0  0
 11 12  1  0  0  0  0
 11 13  1  0  0  0  0
 11 14  1  0  0  0  0
  9 10  1  0  0  0  0
  9 11  1  0  0  0  0
  9 24  1  0  0  0  0
  7  8  1  0  0  0  0
  7  9  1  0  0  0  0
 28 29  1  0  0  0  0
 28 30  1  0  0  0  0
 28 31  1  0  0  0  0
 26 27  1  0  0  0  0
 26 28  1  0  0  0  0
M  END
$$$$
default_name
  -OEChem-02102213163D

 31 30  0     1  0  0  0  0  0999 V2000
   -3.5895   -3.5013    1.1082 H   0  0  0  0  0  0  0  0  0  0  0  0
   -3.5145   -2.5363    0.6082 C   0  0  0  0  0  0  0  0  0  0  0  0
   -4.2285   -1.8413    1.0452 H   0  0  0  0  0  0  0  0  0  0  0  0
   -3.7155   -2.6583   -0.4538 H   0  0  0  0  0  0  0  0  0  0  0  0
   -2.1155   -1.9963    0.7922 C   0  0  0  0  0  0  0  0  0  0  0  0
   -1.2875   -2.6383    1.4252 O   0  0  0  0  0  0  0  0  0  0  0  0
   -1.8575   -0.8123    0.2402 N   0  0  0  0  0  0  0  0  0  0  0  0
   -2.6005   -0.3333   -0.2478 H   0  0  0  0  0  0  0  0  0  0  0  0
   -0.5675   -0.1203    0.3102 C   0  0  1  0  0  0  0  0  0  0  0  0
    0.1932   -0.7715   -0.1219 H   0  0  0  0  0  0  0  0  0  0  0  0
   -0.6568    1.1713   -0.5294 C   0  0  0  0  0  0  0  0  0  0  0  0
   -1.2099    1.9202    0.0407 H   0  0  0  0  0  0  0  0  0  0  0  0
    0.3575    1.5495   -0.6754 H   0  0  0  0  0  0  0  0  0  0  0  0
   -1.3178    1.0264   -1.9125 C   0  0  0  0  0  0  0  0  0  0  0  0
   -2.3939    1.1756   -1.8236 H   0  0  0  0  0  0  0  0  0  0  0  0
   -0.7589    2.0259   -2.9293 C   0  0  0  0  0  0  0  0  0  0  0  0
    0.3211    1.8998   -3.0176 H   0  0  0  0  0  0  0  0  0  0  0  0
   -1.2186    1.8549   -3.9030 H   0  0  0  0  0  0  0  0  0  0  0  0
   -0.9734    3.0472   -2.6220 H   0  0  0  0  0  0  0  0  0  0  0  0
   -1.0787   -0.3825   -2.4540 C   0  0  0  0  0  0  0  0  0  0  0  0
   -1.4958   -1.1161   -1.7642 H   0  0  0  0  0  0  0  0  0  0  0  0
   -1.5692   -0.4963   -3.4207 H   0  0  0  0  0  0  0  0  0  0  0  0
   -0.0096   -0.5641   -2.5693 H   0  0  0  0  0  0  0  0  0  0  0  0
   -0.1913    0.1554    1.7759 C   0  0  0  0  0  0  0  0  0  0  0  0
    0.9476   -0.0766    2.1748 O   0  0  0  0  0  0  0  0  0  0  0  0
   -1.1502    0.6393    2.5760 N   0  0  0  0  0  0  0  0  0  0  0  0
   -2.0581    0.8092    2.1736 H   0  0  0  0  0  0  0  0  0  0  0  0
   -0.9568    0.9369    3.9933 C   0  0  0  0  0  0  0  0  0  0  0  0
   -0.1600    1.6750    4.1097 H   0  0  0  0  0  0  0  0  0  0  0  0
   -1.8775    1.3307    4.4266 H   0  0  0  0  0  0  0  0  0  0  0  0
   -0.6678    0.0287    4.5244 H   0  0  0  0  0  0  0  0  0  0  0  0
  5  6  2  0  0  0  0
  5  7  1  0  0  0  0
  2  3  1  0  0  0  0
  2  4  1  0  0  0  0
  2  5  1  0  0  0  0
  1  2  1  0  0  0  0
 24 25  2  0  0  0  0
 24 26  1  0  0  0  0
 20 21  1  0  0  0  0
 20 22  1  0  0  0  0
 20 23  1  0  0  0  0
 16 17  1  0  0  0  0
 16 18  1  0  0  0  0
 16 19  1  0  0  0  0
 14 15  1  0  0  0  0
 14 16  1  0  0  0  0
 14 20  1  0  0  0  0
 11 12  1  0  0  0  0
 11 13  1  0  0  0  0
 11 14  1  0  0  0  0
  9 10  1  0  0  0  0
  9 11  1  0  0  0  0
  9 24  1  0  0  0  0
  7  8  1  0  0  0  0
  7  9  1  0  0  0  0
 28 29  1  0  0  0  0
 28 30  1  0  0  0  0
 28 31  1  0  0  0  0
 26 27  1  0  0  0  0
 26 28  1  0  0  0  0
M  END
$$$$
default_name
  -OEChem-02102213163D

 31 30  0     1  0  0  0  0  0999 V2000
   -3.5895   -3.5013    1.1082 H   0  0  0  0  0  0  0  0  0  0  0  0
   -3.5145   -2.5363    0.6082 C   0  0  0  0  0  0  0  0  0  0  0  0
   -4.2285   -1.8413    1.0452 H   0  0  0  0  0  0  0  0  0  0  0  0
   -3.7155   -2.6583   -0.4538 H   0  0  0  0  0  0  0  0  0  0  0  0
   -2.1155   -1.9963    0.7922 C   0  0  0  0  0  0  0  0  0  0  0  0
   -1.2875   -2.6383    1.4252 O   0  0  0  0  0  0  0  0  0  0  0  0
   -1.8575   -0.8123    0.2402 N   0  0  0  0  0  0  0  0  0  0  0  0
   -2.6005   -0.3333   -0.2478 H   0  0  0  0  0  0  0  0  0  0  0  0
   -0.5675   -0.1203    0.3102 C   0  0  1  0  0  0  0  0  0  0  0  0
    0.1932   -0.7715   -0.1219 H   0  0  0  0  0  0  0  0  0  0  0  0
   -0.6568    1.1713   -0.5294 C   0  0  0  0  0  0  0  0  0  0  0  0
   -1.2099    1.9202    0.0407 H   0  0  0  0  0  0  0  0  0  0  0  0
    0.3575    1.5495   -0.6754 H   0  0  0  0  0  0  0  0  0  0  0  0
   -1.3178    1.0264   -1.9125 C   0  0  0  0  0  0  0  0  0  0  0  0
   -2.3301    1.4294   -1.8806 H   0  0  0  0  0  0  0  0  0  0  0  0
   -0.5293    1.7470   -3.0098 C   0  0  0  0  0  0  0  0  0  0  0  0
    0.4921    1.3655   -3.0434 H   0  0  0  0  0  0  0  0  0  0  0  0
   -1.0053    1.5771   -3.9758 H   0  0  0  0  0  0  0  0  0  0  0  0
   -0.5025    2.8184   -2.8231 H   0  0  0  0  0  0  0  0  0  0  0  0
   -1.4087   -0.4519   -2.2889 C   0  0  0  0  0  0  0  0  0  0  0  0
   -1.9936   -0.9857   -1.5399 H   0  0  0  0  0  0  0  0  0  0  0  0
   -1.9014   -0.5587   -3.2553 H   0  0  0  0  0  0  0  0  0  0  0  0
   -0.4105   -0.8876   -2.3437 H   0  0  0  0  0  0  0  0  0  0  0  0
   -0.1913    0.1554    1.7759 C   0  0  0  0  0  0  0  0  0  0  0  0
    0.9476   -0.0766    2.1748 O   0  0  0  0  0  0  0  0  0  0  0  0
   -1.1502    0.6393    2.5760 N   0  0  0  0  0  0  0  0  0  0  0  0
   -2.0581    0.8092    2.1736 H   0  0  0  0  0  0  0  0  0  0  0  0
   -0.9568    0.9369    3.9933 C   0  0  0  0  0  0  0  0  0  0  0  0
   -0.1600    1.6750    4.1097 H   0  0  0  0  0  0  0  0  0  0  0  0
   -1.8775    1.3307    4.4266 H   0  0  0  0  0  0  0  0  0  0  0  0
   -0.6678    0.0287    4.5244 H   0  0  0  0  0  0  0  0  0  0  0  0
  5  6  2  0  0  0  0
  5  7  1  0  0  0  0
  2  3  1  0  0  0  0
  2  4  1  0  0  0  0
  2  5  1  0  0  0  0
  1  2  1  0  0  0  0
 24 25  2  0  0  0  0
 24 26  1  0  0  0  0
 20 21  1  0  0  0  0
 20 22  1  0  0  0  0
 20 23  1  0  0  0  0
 16 17  1  0  0  0  0
 16 18  1  0  0  0  0
 16 19  1  0  0  0  0
 14 15  1  0  0  0  0
 14 16  1  0  0  0  0
 14 20  1  0  0  0  0
 11 12  1  0  0  0  0
 11 13  1  0  0  0  0
 11 14  1  0  0  0  0
  9 10  1  0  0  0  0
  9 11  1  0  0  0  0
  9 24  1  0  0  0  0
  7  8  1  0  0  0  0
  7  9  1  0  0  0  0
 28 29  1  0  0  0  0
 28 30  1  0  0  0  0
 28 31  1  0  0  0  0
 26 27  1  0  0  0  0
 26 28  1  0  0  0  0
M  END
$$$$
default_name
  -OEChem-02102213163D

 31 30  0     1  0  0  0  0  0999 V2000
   -3.5895   -3.5013    1.1082 H   0  0  0  0  0  0  0  0  0  0  0  0
   -3.5145   -2.5363    0.6082 C   0  0  0  0  0  0  0  0  0  0  0  0
   -4.2285   -1.8413    1.0452 H   0  0  0  0  0  0  0  0  0  0  0  0
   -3.7155   -2.6583   -0.4538 H   0  0  0  0  0  0  0  0  0  0  0  0
   -2.1155   -1.9963    0.7922 C   0  0  0  0  0  0  0  0  0  0  0  0
   -1.2875   -2.6383    1.4252 O   0  0  0  0  0  0  0  0  0  0  0  0
   -1.8575   -0.8123    0.2402 N   0  0  0  0  0  0  0  0  0  0  0  0
   -2.6005   -0.3333   -0.2478 H   0  0  0  0  0  0  0  0  0  0  0  0
   -0.5675   -0.1203    0.3102 C   0  0  1  0  0  0  0  0  0  0  0  0
    0.1932   -0.7715   -0.1219 H   0  0  0  0  0  0  0  0  0  0  0  0
   -0.6568    1.1713   -0.5294 C   0  0  0  0  0  0  0  0  0  0  0  0
   -1.2099    1.9202    0.0407 H   0  0  0  0  0  0  0  0  0  0  0  0
    0.3575    1.5495   -0.6754 H   0  0  0  0  0  0  0  0  0  0  0  0
   -1.3178    1.0264   -1.9125 C   0  0  0  0  0  0  0  0  0  0  0  0
   -2.2081    1.6534   -1.9624 H   0  0  0  0  0  0  0  0  0  0  0  0
   -0.3704    1.4154   -3.0510 C   0  0  0  0  0  0  0  0  0  0  0  0
    0.5338    0.8069   -3.0048 H   0  0  0  0  0  0  0  0  0  0  0  0
   -0.8620    1.2510   -4.0101 H   0  0  0  0  0  0  0  0  0  0  0  0
   -0.0959    2.4656   -2.9806 H   0  0  0  0  0  0  0  0  0  0  0  0
   -1.7477   -0.4239   -2.1298 C   0  0  0  0  0  0  0  0  0  0  0  0
   -2.4495   -0.7191   -1.3499 H   0  0  0  0  0  0  0  0  0  0  0  0
   -2.2408   -0.5234   -3.0968 H   0  0  0  0  0  0  0  0  0  0  0  0
   -0.8785   -1.0818   -2.0997 H   0  0  0  0  0  0  0  0  0  0  0  0
   -0.1913    0.1554    1.7759 C   0  0  0  0  0  0  0  0  0  0  0  0
    0.9476   -0.0766    2.1748 O   0  0  0  0  0  0  0  0  0  0  0  0
   -1.1502    0.6393    2.5760 N   0  0  0  0  0  0  0  0  0  0  0  0
   -2.0581    0.8092    2.1736 H   0  0  0  0  0  0  0  0  0  0  0  0
   -0.9568    0.9369    3.9933 C   0  0  0  0  0  0  0  0  0  0  0  0
   -0.1600    1.6750    4.1097 H   0  0  0  0  0  0  0  0  0  0  0  0
   -1.8775    1.3307    4.4266 H   0  0  0  0  0  0  0  0  0  0  0  0
   -0.6678    0.0287    4.5244 H   0  0  0  0  0  0  0  0  0  0  0  0
  5  6  2  0  0  0  0
  5  7  1  0  0  0  0
  2  3  1  0  0  0  0
  2  4  1  0  0  0  0
  2  5  1  0  0  0  0
  1  2  1  0  0  0  0
 24 25  2  0  0  0  0
 24 26  1  0  0  0  0
 20 21  1  0  0  0  0
 20 22  1  0  0  0  0
 20 23  1  0  0  0  0
 16 17  1  0  0  0  0
 16 18  1  0  0  0  0
 16 19  1  0  0  0  0
 14 15  1  0  0  0  0
 14 16  1  0  0  0  0
 14 20  1  0  0  0  0
 11 12  1  0  0  0  0
 11 13  1  0  0  0  0
 11 14  1  0  0  0  0
  9 10  1  0  0  0  0
  9 11  1  0  0  0  0
  9 24  1  0  0  0  0
  7  8  1  0  0  0  0
  7  9  1  0  0  0  0
 28 29  1  0  0  0  0
 28 30  1  0  0  0  0
 28 31  1  0  0  0  0
 26 27  1  0  0  0  0
 26 28  1  0  0  0  0
M  END
$$$$
default_name
  -OEChem-02102213163D

 31 30  0     1  0  0  0  0  0999 V2000
   -3.5895   -3.5013    1.1082 H   0  0  0  0  0  0  0  0  0  0  0  0
   -3.5145   -2.5363    0.6082 C   0  0  0  0  0  0  0  0  0  0  0  0
   -4.2285   -1.8413    1.0452 H   0  0  0  0  0  0  0  0  0  0  0  0
   -3.7155   -2.6583   -0.4538 H   0  0  0  0  0  0  0  0  0  0  0  0
   -2.1155   -1.9963    0.7922 C   0  0  0  0  0  0  0  0  0  0  0  0
   -1.2875   -2.6383    1.4252 O   0  0  0  0  0  0  0  0  0  0  0  0
   -1.8575   -0.8123    0.2402 N   0  0  0  0  0  0  0  0  0  0  0  0
   -2.6005   -0.3333   -0.2478 H   0  0  0  0  0  0  0  0  0  0  0  0
   -0.5675   -0.1203    0.3102 C   0  0  1  0  0  0  0  0  0  0  0  0
    0.1932   -0.7715   -0.1219 H   0  0  0  0  0  0  0  0  0  0  0  0
   -0.6568    1.1713   -0.5294 C   0  0  0  0  0  0  0  0  0  0  0  0
   -1.2099    1.9202    0.0407 H   0  0  0  0  0  0  0  0  0  0  0  0
    0.3575    1.5495   -0.6754 H   0  0  0  0  0  0  0  0  0  0  0  0
   -1.3178    1.0264   -1.9125 C   0  0  0  0  0  0  0  0  0  0  0  0
   -2.0362    1.8322   -2.0633 H   0  0  0  0  0  0  0  0  0  0  0  0
   -0.2930    1.0535   -3.0501 C   0  0  0  0  0  0  0  0  0  0  0  0
    0.4432    0.2618   -2.9044 H   0  0  0  0  0  0  0  0  0  0  0  0
   -0.7987    0.8989   -4.0035 H   0  0  0  0  0  0  0  0  0  0  0  0
    0.2187    2.0129   -3.0835 H   0  0  0  0  0  0  0  0  0  0  0  0
   -2.0725   -0.3003   -1.9875 C   0  0  0  0  0  0  0  0  0  0  0  0
   -2.8326   -0.3345   -1.2071 H   0  0  0  0  0  0  0  0  0  0  0  0
   -2.5643   -0.3928   -2.9558 H   0  0  0  0  0  0  0  0  0  0  0  0
   -1.3816   -1.1335   -1.8538 H   0  0  0  0  0  0  0  0  0  0  0  0
   -0.1913    0.1554    1.7759 C   0  0  0  0  0  0  0  0  0  0  0  0
    0.9476   -0.0766    2.1748 O   0  0  0  0  0  0  0  0  0  0  0  0
   -1.1502    0.6393    2.5760 N   0  0  0  0  0  0  0  0  0  0  0  0
   -2.0581    0.8092    2.1736 H   0  0  0  0  0  0  0  0  0  0  0  0
   -0.9568    0.9369    3.9933 C   0  0  0  0  0  0  0  0  0  0  0  0
   -0.1600    1.6750    4.1097 H   0  0  0  0  0  0  0  0  0  0  0  0
   -1.8775    1.3307    4.4266 H   0  0  0  0  0  0  0  0  0  0  0  0
   -0.6678    0.0287    4.5244 H   0  0  0  0  0  0  0  0  0  0  0  0
  5  6  2  0  0  0  0
  5  7  1  0  0  0  0
  2  3  1  0  0  0  0
  2  4  1  0  0  0  0
  2  5  1  0  0  0  0
  1  2  1  0  0  0  0
 24 25  2  0  0  0  0
 24 26  1  0  0  0  0
 20 21  1  0  0  0  0
 20 22  1  0  0  0  0
 20 23  1  0  0  0  0
 16 17  1  0  0  0  0
 16 18  1  0  0  0  0
 16 19  1  0  0  0  0
 14 15  1  0  0  0  0
 14 16  1  0  0  0  0
 14 20  1  0  0  0  0
 11 12  1  0  0  0  0
 11 13  1  0  0  0  0
 11 14  1  0  0  0  0
  9 10  1  0  0  0  0
  9 11  1  0  0  0  0
  9 24  1  0  0  0  0
  7  8  1  0  0  0  0
  7  9  1  0  0  0  0
 28 29  1  0  0  0  0
 28 30  1  0  0  0  0
 28 31  1  0  0  0  0
 26 27  1  0  0  0  0
 26 28  1  0  0  0  0
M  END
$$$$
default_name
  -OEChem-02102213163D

 31 30  0     1  0  0  0  0  0999 V2000
   -3.5895   -3.5013    1.1082 H   0  0  0  0  0  0  0  0  0  0  0  0
   -3.5145   -2.5363    0.6082 C   0  0  0  0  0  0  0  0  0  0  0  0
   -4.2285   -1.8413    1.0452 H   0  0  0  0  0  0  0  0  0  0  0  0
   -3.7155   -2.6583   -0.4538 H   0  0  0  0  0  0  0  0  0  0  0  0
   -2.1155   -1.9963    0.7922 C   0  0  0  0  0  0  0  0  0  0  0  0
   -1.2875   -2.6383    1.4252 O   0  0  0  0  0  0  0  0  0  0  0  0
   -1.8575   -0.8123    0.2402 N   0  0  0  0  0  0  0  0  0  0  0  0
   -2.6005   -0.3333   -0.2478 H   0  0  0  0  0  0  0  0  0  0  0  0
   -0.5675   -0.1203    0.3102 C   0  0  1  0  0  0  0  0  0  0  0  0
    0.1932   -0.7715   -0.1219 H   0  0  0  0  0  0  0  0  0  0  0  0
   -0.6568    1.1713   -0.5294 C   0  0  0  0  0  0  0  0  0  0  0  0
   -1.2099    1.9202    0.0407 H   0  0  0  0  0  0  0  0  0  0  0  0
    0.3575    1.5495   -0.6754 H   0  0  0  0  0  0  0  0  0  0  0  0
   -1.3178    1.0264   -1.9125 C   0  0  0  0  0  0  0  0  0  0  0  0
   -1.8261    1.9538   -2.1765 H   0  0  0  0  0  0  0  0  0  0  0  0
   -0.3024    0.6860   -3.0071 C   0  0  0  0  0  0  0  0  0  0  0  0
    0.2266   -0.2324   -2.7491 H   0  0  0  0  0  0  0  0  0  0  0  0
   -0.8195    0.5449   -3.9565 H   0  0  0  0  0  0  0  0  0  0  0  0
    0.4198    1.4910   -3.1250 H   0  0  0  0  0  0  0  0  0  0  0  0
   -2.3609   -0.0897   -1.8717 C   0  0  0  0  0  0  0  0  0  0  0  0
   -3.1167    0.1419   -1.1212 H   0  0  0  0  0  0  0  0  0  0  0  0
   -2.8499   -0.1757   -2.8421 H   0  0  0  0  0  0  0  0  0  0  0  0
   -1.8856   -1.0391   -1.6228 H   0  0  0  0  0  0  0  0  0  0  0  0
   -0.1913    0.1554    1.7759 C   0  0  0  0  0  0  0  0  0  0  0  0
    0.9476   -0.0766    2.1748 O   0  0  0  0  0  0  0  0  0  0  0  0
   -1.1502    0.6393    2.5760 N   0  0  0  0  0  0  0  0  0  0  0  0
   -2.0581    0.8092    2.1736 H   0  0  0  0  0  0  0  0  0  0  0  0
   -0.9568    0.9369    3.9933 C   0  0  0  0  0  0  0  0  0  0  0  0
   -0.1600    1.6750    4.1097 H   0  0  0  0  0  0  0  0  0  0  0  0
   -1.8775    1.3307    4.4266 H   0  0  0  0  0  0  0  0  0  0  0  0
   -0.6678    0.0287    4.5244 H   0  0  0  0  0  0  0  0  0  0  0  0
  5  6  2  0  0  0  0
  5  7  1  0  0  0  0
  2  3  1  0  0  0  0
  2  4  1  0  0  0  0
  2  5  1  0  0  0  0
  1  2  1  0  0  0  0
 24 25  2  0  0  0  0
 24 26  1  0  0  0  0
 20 21  1  0  0  0  0
 20 22  1  0  0  0  0
 20 23  1  0  0  0  0
 16 17  1  0  0  0  0
 16 18  1  0  0  0  0
 16 19  1  0  0  0  0
 14 15  1  0  0  0  0
 14 16  1  0  0  0  0
 14 20  1  0  0  0  0
 11 12  1  0  0  0  0
 11 13  1  0  0  0  0
 11 14  1  0  0  0  0
  9 10  1  0  0  0  0
  9 11  1  0  0  0  0
  9 24  1  0  0  0  0
  7  8  1  0  0  0  0
  7  9  1  0  0  0  0
 28 29  1  0  0  0  0
 28 30  1  0  0  0  0
 28 31  1  0  0  0  0
 26 27  1  0  0  0  0
 26 28  1  0  0  0  0
M  END
$$$$
default_name
  -OEChem-02102213163D

 31 30  0     1  0  0  0  0  0999 V2000
   -3.5895   -3.5013    1.1082 H   0  0  0  0  0  0  0  0  0  0  0  0
   -3.5145   -2.5363    0.6082 C   0  0  0  0  0  0  0  0  0  0  0  0
   -4.2285   -1.8413    1.0452 H   0  0  0  0  0  0  0  0  0  0  0  0
   -3.7155   -2.6583   -0.4538 H   0  0  0  0  0  0  0  0  0  0  0  0
   -2.1155   -1.9963    0.7922 C   0  0  0  0  0  0  0  0  0  0  0  0
   -1.2875   -2.6383    1.4252 O   0  0  0  0  0  0  0  0  0  0  0  0
   -1.8575   -0.8123    0.2402 N   0  0  0  0  0  0  0  0  0  0  0  0
   -2.6005   -0.3333   -0.2478 H   0  0  0  0  0  0  0  0  0  0  0  0
   -0.5675   -0.1203    0.3102 C   0  0  1  0  0  0  0  0  0  0  0  0
    0.1932   -0.7715   -0.1219 H   0  0  0  0  0  0  0  0  0  0  0  0
   -0.6568    1.1713   -0.5294 C   0  0  0  0  0  0  0  0  0  0  0  0
   -1.2099    1.9202    0.0407 H   0  0  0  0  0  0  0  0  0  0  0  0
    0.3575    1.5495   -0.6754 H   0  0  0  0  0  0  0  0  0  0  0  0
   -1.3178    1.0264   -1.9125 C   0  0  0  0  0  0  0  0  0  0  0  0
   -1.5922    2.0099   -2.2942 H   0  0  0  0  0  0  0  0  0  0  0  0
   -0.3980    0.3380   -2.9250 C   0  0  0  0  0  0  0  0  0  0  0  0
   -0.1013   -0.6422   -2.5494 H   0  0  0  0  0  0  0  0  0  0  0  0
   -0.9230    0.2129   -3.8722 H   0  0  0  0  0  0  0  0  0  0  0  0
    0.4938    0.9355   -3.1021 H   0  0  0  0  0  0  0  0  0  0  0  0
   -2.5934    0.1937   -1.7903 C   0  0  0  0  0  0  0  0  0  0  0  0
   -3.2824    0.6777   -1.0981 H   0  0  0  0  0  0  0  0  0  0  0  0
   -3.0780    0.1130   -2.7633 H   0  0  0  0  0  0  0  0  0  0  0  0
   -2.3561   -0.8051   -1.4224 H   0  0  0  0  0  0  0  0  0  0  0  0
   -0.1913    0.1554    1.7759 C   0  0  0  0  0  0  0  0  0  0  0  0
    0.9476   -0.0766    2.1748 O   0  0  0  0  0  0  0  0  0  0  0  0
   -1.1502    0.6393    2.5760 N   0  0  0  0  0  0  0  0  0  0  0  0
   -2.0581    0.8092    2.1736 H   0  0  0  0  0  0  0  0  0  0  0  0
   -0.9568    0.9369    3.9933 C   0  0  0  0  0  0  0  0  0  0  0  0
   -0.1600    1.6750    4.1097 H   0  0  0  0  0  0  0  0  0  0  0  0
   -1.8775    1.3307    4.4266 H   0  0  0  0  0  0  0  0  0  0  0  0
   -0.6678    0.0287    4.5244 H   0  0  0  0  0  0  0  0  0  0  0  0
  5  6  2  0  0  0  0
  5  7  1  0  0  0  0
  2  3  1  0  0  0  0
  2  4  1  0  0  0  0
  2  5  1  0  0  0  0
  1  2  1  0  0  0  0
 24 25  2  0  0  0  0
 24 26  1  0  0  0  0
 20 21  1  0  0  0  0
 20 22  1  0  0  0  0
 20 23  1  0  0  0  0
 16 17  1  0  0  0  0
 16 18  1  0  0  0  0
 16 19  1  0  0  0  0
 14 15  1  0  0  0  0
 14 16  1  0  0  0  0
 14 20  1  0  0  0  0
 11 12  1  0  0  0  0
 11 13  1  0  0  0  0
 11 14  1  0  0  0  0
  9 10  1  0  0  0  0
  9 11  1  0  0  0  0
  9 24  1  0  0  0  0
  7  8  1  0  0  0  0
  7  9  1  0  0  0  0
 28 29  1  0  0  0  0
 28 30  1  0  0  0  0
 28 31  1  0  0  0  0
 26 27  1  0  0  0  0
 26 28  1  0  0  0  0
M  END
$$$$
default_name
  -OEChem-02102213163D

 31 30  0     1  0  0  0  0  0999 V2000
   -3.5895   -3.5013    1.1082 H   0  0  0  0  0  0  0  0  0  0  0  0
   -3.5145   -2.5363    0.6082 C   0  0  0  0  0  0  0  0  0  0  0  0
   -4.2285   -1.8413    1.0452 H   0  0  0  0  0  0  0  0  0  0  0  0
   -3.7155   -2.6583   -0.4538 H   0  0  0  0  0  0  0  0  0  0  0  0
   -2.1155   -1.9963    0.7922 C   0  0  0  0  0  0  0  0  0  0  0  0
   -1.2875   -2.6383    1.4252 O   0  0  0  0  0  0  0  0  0  0  0  0
   -1.8575   -0.8123    0.2402 N   0  0  0  0  0  0  0  0  0  0  0  0
   -2.6005   -0.3333   -0.2478 H   0  0  0  0  0  0  0  0  0  0  0  0
   -0.5675   -0.1203    0.3102 C   0  0  1  0  0  0  0  0  0  0  0  0
    0.1932   -0.7715   -0.1219 H   0  0  0  0  0  0  0  0  0  0  0  0
   -0.6568    1.1713   -0.5294 C   0  0  0  0  0  0  0  0  0  0  0  0
   -1.2099    1.9202    0.0407 H   0  0  0  0  0  0  0  0  0  0  0  0
    0.3575    1.5495   -0.6754 H   0  0  0  0  0  0  0  0  0  0  0  0
   -1.3178    1.0264   -1.9125 C   0  0  0  0  0  0  0  0  0  0  0  0
   -1.3503    1.9965   -2.4084 H   0  0  0  0  0  0  0  0  0  0  0  0
   -0.5732    0.0333   -2.8093 C   0  0  0  0  0  0  0  0  0  0  0  0
   -0.5182   -0.9396   -2.3190 H   0  0  0  0  0  0  0  0  0  0  0  0
   -1.1023   -0.0742   -3.7565 H   0  0  0  0  0  0  0  0  0  0  0  0
    0.4355    0.3843   -3.0165 H   0  0  0  0  0  0  0  0  0  0  0  0
   -2.7541    0.5306   -1.7488 C   0  0  0  0  0  0  0  0  0  0  0  0
   -3.3185    1.2364   -1.1394 H   0  0  0  0  0  0  0  0  0  0  0  0
   -3.2332    0.4536   -2.7248 H   0  0  0  0  0  0  0  0  0  0  0  0
   -2.7611   -0.4474   -1.2663 H   0  0  0  0  0  0  0  0  0  0  0  0
   -0.1913    0.1554    1.7759 C   0  0  0  0  0  0  0  0  0  0  0  0
    0.9476   -0.0766    2.1748 O   0  0  0  0  0  0  0  0  0  0  0  0
   -1.1502    0.6393    2.5760 N   0  0  0  0  0  0  0  0  0  0  0  0
   -2.0581    0.8092    2.1736 H   0  0  0  0  0  0  0  0  0  0  0  0
   -0.9568    0.9369    3.9933 C   0  0  0  0  0  0  0  0  0  0  0  0
   -0.1600    1.6750    4.1097 H   0  0  0  0  0  0  0  0  0  0  0  0
   -1.8775    1.3307    4.4266 H   0  0  0  0  0  0  0  0  0  0  0  0
   -0.6678    0.0287    4.5244 H   0  0  0  0  0  0  0  0  0  0  0  0
  5  6  2  0  0  0  0
  5  7  1  0  0  0  0
  2  3  1  0  0  0  0
  2  4  1  0  0  0  0
  2  5  1  0  0  0  0
  1  2  1  0  0  0  0
 24 25  2  0  0  0  0
 24 26  1  0  0  0  0
 20 21  1  0  0  0  0
 20 22  1  0  0  0  0
 20 23  1  0  0  0  0
 16 17  1  0  0  0  0
 16 18  1  0  0  0  0
 16 19  1  0  0  0  0
 14 15  1  0  0  0  0
 14 16  1  0  0  0  0
 14 20  1  0  0  0  0
 11 12  1  0  0  0  0
 11 13  1  0  0  0  0
 11 14  1  0  0  0  0
  9 10  1  0  0  0  0
  9 11  1  0  0  0  0
  9 24  1  0  0  0  0
  7  8  1  0  0  0  0
  7  9  1  0  0  0  0
 28 29  1  0  0  0  0
 28 30  1  0  0  0  0
 28 31  1  0  0  0  0
 26 27  1  0  0  0  0
 26 28  1  0  0  0  0
M  END
$$$$
default_name
  -OEChem-02102213163D

 31 30  0     1  0  0  0  0  0999 V2000
   -3.5895   -3.5013    1.1082 H   0  0  0  0  0  0  0  0  0  0  0  0
   -3.5145   -2.5363    0.6082 C   0  0  0  0  0  0  0  0  0  0  0  0
   -4.2285   -1.8413    1.0452 H   0  0  0  0  0  0  0  0  0  0  0  0
   -3.7155   -2.6583   -0.4538 H   0  0  0  0  0  0  0  0  0  0  0  0
   -2.1155   -1.9963    0.7922 C   0  0  0  0  0  0  0  0  0  0  0  0
   -1.2875   -2.6383    1.4252 O   0  0  0  0  0  0  0  0  0  0  0  0
   -1.8575   -0.8123    0.2402 N   0  0  0  0  0  0  0  0  0  0  0  0
   -2.6005   -0.3333   -0.2478 H   0  0  0  0  0  0  0  0  0  0  0  0
   -0.5675   -0.1203    0.3102 C   0  0  1  0  0  0  0  0  0  0  0  0
    0.1932   -0.7715   -0.1219 H   0  0  0  0  0  0  0  0  0  0  0  0
   -0.6568    1.1713   -0.5294 C   0  0  0  0  0  0  0  0  0  0  0  0
   -1.2099    1.9202    0.0407 H   0  0  0  0  0  0  0  0  0  0  0  0
    0.3575    1.5495   -0.6754 H   0  0  0  0  0  0  0  0  0  0  0  0
   -1.3178    1.0264   -1.9125 C   0  0  0  0  0  0  0  0  0  0  0  0
   -1.1169    1.9147   -2.5114 H   0  0  0  0  0  0  0  0  0  0  0  0
   -0.8161   -0.2075   -2.6680 C   0  0  0  0  0  0  0  0  0  0  0  0
   -0.9957   -1.1043   -2.0735 H   0  0  0  0  0  0  0  0  0  0  0  0
   -1.3450   -0.2971   -3.6171 H   0  0  0  0  0  0  0  0  0  0  0  0
    0.2489   -0.1251   -2.8740 H   0  0  0  0  0  0  0  0  0  0  0  0
   -2.8319    0.8979   -1.7500 C   0  0  0  0  0  0  0  0  0  0  0  0
   -3.2224    1.7797   -1.2422 H   0  0  0  0  0  0  0  0  0  0  0  0
   -3.3048    0.8230   -2.7292 H   0  0  0  0  0  0  0  0  0  0  0  0
   -3.0729    0.0095   -1.1651 H   0  0  0  0  0  0  0  0  0  0  0  0
   -0.1913    0.1554    1.7759 C   0  0  0  0  0  0  0  0  0  0  0  0
    0.9476   -0.0766    2.1748 O   0  0  0  0  0  0  0  0  0  0  0  0
   -1.1502    0.6393    2.5760 N   0  0  0  0  0  0  0  0  0  0  0  0
   -2.0581    0.8092    2.1736 H   0  0  0  0  0  0  0  0  0  0  0  0
   -0.9568    0.9369    3.9933 C   0  0  0  0  0  0  0  0  0  0  0  0
   -0.1600    1.6750    4.1097 H   0  0  0  0  0  0  0  0  0  0  0  0
   -1.8775    1.3307    4.4266 H   0  0  0  0  0  0  0  0  0  0  0  0
   -0.6678    0.0287    4.5244 H   0  0  0  0  0  0  0  0  0  0  0  0
  5  6  2  0  0  0  0
  5  7  1  0  0  0  0
  2  3  1  0  0  0  0
  2  4  1  0  0  0  0
  2  5  1  0  0  0  0
  1  2  1  0  0  0  0
 24 25  2  0  0  0  0
 24 26  1  0  0  0  0
 20 21  1  0  0  0  0
 20 22  1  0  0  0  0
 20 23  1  0  0  0  0
 16 17  1  0  0  0  0
 16 18  1  0  0  0  0
 16 19  1  0  0  0  0
 14 15  1  0  0  0  0
 14 16  1  0  0  0  0
 14 20  1  0  0  0  0
 11 12  1  0  0  0  0
 11 13  1  0  0  0  0
 11 14  1  0  0  0  0
  9 10  1  0  0  0  0
  9 11  1  0  0  0  0
  9 24  1  0  0  0  0
  7  8  1  0  0  0  0
  7  9  1  0  0  0  0
 28 29  1  0  0  0  0
 28 30  1  0  0  0  0
 28 31  1  0  0  0  0
 26 27  1  0  0  0  0
 26 28  1  0  0  0  0
M  END
$$$$
default_name
  -OEChem-02102213163D

 31 30  0     1  0  0  0  0  0999 V2000
   -3.5895   -3.5013    1.1082 H   0  0  0  0  0  0  0  0  0  0  0  0
   -3.5145   -2.5363    0.6082 C   0  0  0  0  0  0  0  0  0  0  0  0
   -4.2285   -1.8413    1.0452 H   0  0  0  0  0  0  0  0  0  0  0  0
   -3.7155   -2.6583   -0.4538 H   0  0  0  0  0  0  0  0  0  0  0  0
   -2.1155   -1.9963    0.7922 C   0  0  0  0  0  0  0  0  0  0  0  0
   -1.2875   -2.6383    1.4252 O   0  0  0  0  0  0  0  0  0  0  0  0
   -1.8575   -0.8123    0.2402 N   0  0  0  0  0  0  0  0  0  0  0  0
   -2.6005   -0.3333   -0.2478 H   0  0  0  0  0  0  0  0  0  0  0  0
   -0.5675   -0.1203    0.3102 C   0  0  1  0  0  0  0  0  0  0  0  0
    0.1932   -0.7715   -0.1219 H   0  0  0  0  0  0  0  0  0  0  0  0
   -0.6568    1.1713   -0.5294 C   0  0  0  0  0  0  0  0  0  0  0  0
   -1.2099    1.9202    0.0407 H   0  0  0  0  0  0  0  0  0  0  0  0
    0.3575    1.5495   -0.6754 H   0  0  0  0  0  0  0  0  0  0  0  0
   -1.3178    1.0264   -1.9125 C   0  0  0  0  0  0  0  0  0  0  0  0
   -0.9081    1.7700   -2.5961 H   0  0  0  0  0  0  0  0  0  0  0  0
   -1.1101   -0.3679   -2.5106 C   0  0  0  0  0  0  0  0  0  0  0  0
   -1.5011   -1.1252   -1.8297 H   0  0  0  0  0  0  0  0  0  0  0  0
   -1.6347   -0.4405   -3.4636 H   0  0  0  0  0  0  0  0  0  0  0  0
   -0.0531   -0.5579   -2.6843 H   0  0  0  0  0  0  0  0  0  0  0  0
   -2.8217    1.2707   -1.7939 C   0  0  0  0  0  0  0  0  0  0  0  0
   -3.0008    2.2709   -1.3996 H   0  0  0  0  0  0  0  0  0  0  0  0
   -3.2880    1.1959   -2.7763 H   0  0  0  0  0  0  0  0  0  0  0  0
   -3.2703    0.5347   -1.1257 H   0  0  0  0  0  0  0  0  0  0  0  0
   -0.1913    0.1554    1.7759 C   0  0  0  0  0  0  0  0  0  0  0  0
    0.9476   -0.0766    2.1748 O   0  0  0  0  0  0  0  0  0  0  0  0
   -1.1502    0.6393    2.5760 N   0  0  0  0  0  0  0  0  0  0  0  0
   -2.0581    0.8092    2.1736 H   0  0  0  0  0  0  0  0  0  0  0  0
   -0.9568    0.9369    3.9933 C   0  0  0  0  0  0  0  0  0  0  0  0
   -0.1600    1.6750    4.1097 H   0  0  0  0  0  0  0  0  0  0  0  0
   -1.8775    1.3307    4.4266 H   0  0  0  0  0  0  0  0  0  0  0  0
   -0.6678    0.0287    4.5244 H   0  0  0  0  0  0  0  0  0  0  0  0
  5  6  2  0  0  0  0
  5  7  1  0  0  0  0
  2  3  1  0  0  0  0
  2  4  1  0  0  0  0
  2  5  1  0  0  0  0
  1  2  1  0  0  0  0
 24 25  2  0  0  0  0
 24 26  1  0  0  0  0
 20 21  1  0  0  0  0
 20 22  1  0  0  0  0
 20 23  1  0  0  0  0
 16 17  1  0  0  0  0
 16 18  1  0  0  0  0
 16 19  1  0  0  0  0
 14 15  1  0  0  0  0
 14 16  1  0  0  0  0
 14 20  1  0  0  0  0
 11 12  1  0  0  0  0
 11 13  1  0  0  0  0
 11 14  1  0  0  0  0
  9 10  1  0  0  0  0
  9 11  1  0  0  0  0
  9 24  1  0  0  0  0
  7  8  1  0  0  0  0
  7  9  1  0  0  0  0
 28 29  1  0  0  0  0
 28 30  1  0  0  0  0
 28 31  1  0  0  0  0
 26 27  1  0  0  0  0
 26 28  1  0  0  0  0
M  END
$$$$
default_name
  -OEChem-02102213163D

 31 30  0     1  0  0  0  0  0999 V2000
   -3.5895   -3.5013    1.1082 H   0  0  0  0  0  0  0  0  0  0  0  0
   -3.5145   -2.5363    0.6082 C   0  0  0  0  0  0  0  0  0  0  0  0
   -4.2285   -1.8413    1.0452 H   0  0  0  0  0  0  0  0  0  0  0  0
   -3.7155   -2.6583   -0.4538 H   0  0  0  0  0  0  0  0  0  0  0  0
   -2.1155   -1.9963    0.7922 C   0  0  0  0  0  0  0  0  0  0  0  0
   -1.2875   -2.6383    1.4252 O   0  0  0  0  0  0  0  0  0  0  0  0
   -1.8575   -0.8123    0.2402 N   0  0  0  0  0  0  0  0  0  0  0  0
   -2.6005   -0.3333   -0.2478 H   0  0  0  0  0  0  0  0  0  0  0  0
   -0.5675   -0.1203    0.3102 C   0  0  1  0  0  0  0  0  0  0  0  0
    0.1932   -0.7715   -0.1219 H   0  0  0  0  0  0  0  0  0  0  0  0
   -0.6568    1.1713   -0.5294 C   0  0  0  0  0  0  0  0  0  0  0  0
   -1.2099    1.9202    0.0407 H   0  0  0  0  0  0  0  0  0  0  0  0
    0.3575    1.5495   -0.6754 H   0  0  0  0  0  0  0  0  0  0  0  0
   -1.3178    1.0264   -1.9125 C   0  0  0  0  0  0  0  0  0  0  0  0
   -0.7379    1.5723   -2.6567 H   0  0  0  0  0  0  0  0  0  0  0  0
   -1.4353   -0.4370   -2.3480 C   0  0  0  0  0  0  0  0  0  0  0  0
   -2.0001   -1.0008   -1.6042 H   0  0  0  0  0  0  0  0  0  0  0  0
   -1.9515   -0.4945   -3.3065 H   0  0  0  0  0  0  0  0  0  0  0  0
   -0.4501   -0.8847   -2.4603 H   0  0  0  0  0  0  0  0  0  0  0  0
   -2.7242    1.6235   -1.8775 C   0  0  0  0  0  0  0  0  0  0  0  0
   -2.6688    2.6762   -1.6008 H   0  0  0  0  0  0  0  0  0  0  0  0
   -3.1839    1.5470   -2.8629 H   0  0  0  0  0  0  0  0  0  0  0  0
   -3.3399    1.0922   -1.1509 H   0  0  0  0  0  0  0  0  0  0  0  0
   -0.1913    0.1554    1.7759 C   0  0  0  0  0  0  0  0  0  0  0  0
    0.9476   -0.0766    2.1748 O   0  0  0  0  0  0  0  0  0  0  0  0
   -1.1502    0.6393    2.5760 N   0  0  0  0  0  0  0  0  0  0  0  0
   -2.0581    0.8092    2.1736 H   0  0  0  0  0  0  0  0  0  0  0  0
   -0.9568    0.9369    3.9933 C   0  0  0  0  0  0  0  0  0  0  0  0
   -0.1600    1.6750    4.1097 H   0  0  0  0  0  0  0  0  0  0  0  0
   -1.8775    1.3307    4.4266 H   0  0  0  0  0  0  0  0  0  0  0  0
   -0.6678    0.0287    4.5244 H   0  0  0  0  0  0  0  0  0  0  0  0
  5  6  2  0  0  0  0
  5  7  1  0  0  0  0
  2  3  1  0  0  0  0
  2  4  1  0  0  0  0
  2  5  1  0  0  0  0
  1  2  1  0  0  0  0
 24 25  2  0  0  0  0
 24 26  1  0  0  0  0
 20 21  1  0  0  0  0
 20 22  1  0  0  0  0
 20 23  1  0  0  0  0
 16 17  1  0  0  0  0
 16 18  1  0  0  0  0
 16 19  1  0  0  0  0
 14 15  1  0  0  0  0
 14 16  1  0  0  0  0
 14 20  1  0  0  0  0
 11 12  1  0  0  0  0
 11 13  1  0  0  0  0
 11 14  1  0  0  0  0
  9 10  1  0  0  0  0
  9 11  1  0  0  0  0
  9 24  1  0  0  0  0
  7  8  1  0  0  0  0
  7  9  1  0  0  0  0
 28 29  1  0  0  0  0
 28 30  1  0  0  0  0
 28 31  1  0  0  0  0
 26 27  1  0  0  0  0
 26 28  1  0  0  0  0
M  END
$$$$
default_name
  -OEChem-02102213163D

 31 30  0     1  0  0  0  0  0999 V2000
   -3.5895   -3.5013    1.1082 H   0  0  0  0  0  0  0  0  0  0  0  0
   -3.5145   -2.5363    0.6082 C   0  0  0  0  0  0  0  0  0  0  0  0
   -4.2285   -1.8413    1.0452 H   0  0  0  0  0  0  0  0  0  0  0  0
   -3.7155   -2.6583   -0.4538 H   0  0  0  0  0  0  0  0  0  0  0  0
   -2.1155   -1.9963    0.7922 C   0  0  0  0  0  0  0  0  0  0  0  0
   -1.2875   -2.6383    1.4252 O   0  0  0  0  0  0  0  0  0  0  0  0
   -1.8575   -0.8123    0.2402 N   0  0  0  0  0  0  0  0  0  0  0  0
   -2.6005   -0.3333   -0.2478 H   0  0  0  0  0  0  0  0  0  0  0  0
   -0.5675   -0.1203    0.3102 C   0  0  1  0  0  0  0  0  0  0  0  0
    0.1932   -0.7715   -0.1219 H   0  0  0  0  0  0  0  0  0  0  0  0
   -0.6568    1.1713   -0.5294 C   0  0  0  0  0  0  0  0  0  0  0  0
   -1.2099    1.9202    0.0407 H   0  0  0  0  0  0  0  0  0  0  0  0
    0.3575    1.5495   -0.6754 H   0  0  0  0  0  0  0  0  0  0  0  0
   -1.3178    1.0264   -1.9125 C   0  0  0  0  0  0  0  0  0  0  0  0
   -0.6180    1.3350   -2.6891 H   0  0  0  0  0  0  0  0  0  0  0  0
   -1.7694   -0.4101   -2.1911 C   0  0  0  0  0  0  0  0  0  0  0  0
   -2.4587   -0.7395   -1.4124 H   0  0  0  0  0  0  0  0  0  0  0  0
   -2.2740   -0.4557   -3.1565 H   0  0  0  0  0  0  0  0  0  0  0  0
   -0.9150   -1.0831   -2.2173 H   0  0  0  0  0  0  0  0  0  0  0  0
   -2.5458    1.9323   -1.9951 C   0  0  0  0  0  0  0  0  0  0  0  0
   -2.2489    2.9683   -1.8320 H   0  0  0  0  0  0  0  0  0  0  0  0
   -2.9997    1.8524   -2.9829 H   0  0  0  0  0  0  0  0  0  0  0  0
   -3.2768    1.6441   -1.2388 H   0  0  0  0  0  0  0  0  0  0  0  0
   -0.1913    0.1554    1.7759 C   0  0  0  0  0  0  0  0  0  0  0  0
    0.9476   -0.0766    2.1748 O   0  0  0  0  0  0  0  0  0  0  0  0
   -1.1502    0.6393    2.5760 N   0  0  0  0  0  0  0  0  0  0  0  0
   -2.0581    0.8092    2.1736 H   0  0  0  0  0  0  0  0  0  0  0  0
   -0.9568    0.9369    3.9933 C   0  0  0  0  0  0  0  0  0  0  0  0
   -0.1600    1.6750    4.1097 H   0  0  0  0  0  0  0  0  0  0  0  0
   -1.8775    1.3307    4.4266 H   0  0  0  0  0  0  0  0  0  0  0  0
   -0.6678    0.0287    4.5244 H   0  0  0  0  0  0  0  0  0  0  0  0
  5  6  2  0  0  0  0
  5  7  1  0  0  0  0
  2  3  1  0  0  0  0
  2  4  1  0  0  0  0
  2  5  1  0  0  0  0
  1  2  1  0  0  0  0
 24 25  2  0  0  0  0
 24 26  1  0  0  0  0
 20 21  1  0  0  0  0
 20 22  1  0  0  0  0
 20 23  1  0  0  0  0
 16 17  1  0  0  0  0
 16 18  1  0  0  0  0
 16 19  1  0  0  0  0
 14 15  1  0  0  0  0
 14 16  1  0  0  0  0
 14 20  1  0  0  0  0
 11 12  1  0  0  0  0
 11 13  1  0  0  0  0
 11 14  1  0  0  0  0
  9 10  1  0  0  0  0
  9 11  1  0  0  0  0
  9 24  1  0  0  0  0
  7  8  1  0  0  0  0
  7  9  1  0  0  0  0
 28 29  1  0  0  0  0
 28 30  1  0  0  0  0
 28 31  1  0  0  0  0
 26 27  1  0  0  0  0
 26 28  1  0  0  0  0
M  END
$$$$
default_name
  -OEChem-02102213163D

 31 30  0     1  0  0  0  0  0999 V2000
   -3.5895   -3.5013    1.1082 H   0  0  0  0  0  0  0  0  0  0  0  0
   -3.5145   -2.5363    0.6082 C   0  0  0  0  0  0  0  0  0  0  0  0
   -4.2285   -1.8413    1.0452 H   0  0  0  0  0  0  0  0  0  0  0  0
   -3.7155   -2.6583   -0.4538 H   0  0  0  0  0  0  0  0  0  0  0  0
   -2.1155   -1.9963    0.7922 C   0  0  0  0  0  0  0  0  0  0  0  0
   -1.2875   -2.6383    1.4252 O   0  0  0  0  0  0  0  0  0  0  0  0
   -1.8575   -0.8123    0.2402 N   0  0  0  0  0  0  0  0  0  0  0  0
   -2.6005   -0.3333   -0.2478 H   0  0  0  0  0  0  0  0  0  0  0  0
   -0.5675   -0.1203    0.3102 C   0  0  1  0  0  0  0  0  0  0  0  0
    0.1932   -0.7715   -0.1219 H   0  0  0  0  0  0  0  0  0  0  0  0
   -0.6568    1.1713   -0.5294 C   0  0  0  0  0  0  0  0  0  0  0  0
   -1.2099    1.9202    0.0407 H   0  0  0  0  0  0  0  0  0  0  0  0
    0.3575    1.5495   -0.6754 H   0  0  0  0  0  0  0  0  0  0  0  0
   -1.3178    1.0264   -1.9125 C   0  0  0  0  0  0  0  0  0  0  0  0
   -0.5566    1.0743   -2.6912 H   0  0  0  0  0  0  0  0  0  0  0  0
   -2.0896   -0.2890   -2.0507 C   0  0  0  0  0  0  0  0  0  0  0  0
   -2.8455   -0.3592   -1.2673 H   0  0  0  0  0  0  0  0  0  0  0  0
   -2.5800   -0.3265   -3.0237 H   0  0  0  0  0  0  0  0  0  0  0  0
   -1.4161   -1.1397   -1.9718 H   0  0  0  0  0  0  0  0  0  0  0  0
   -2.2989    2.1761   -2.1387 C   0  0  0  0  0  0  0  0  0  0  0  0
   -1.7699    3.1270   -2.0777 H   0  0  0  0  0  0  0  0  0  0  0  0
   -2.7478    2.0911   -3.1283 H   0  0  0  0  0  0  0  0  0  0  0  0
   -3.0855    2.1527   -1.3836 H   0  0  0  0  0  0  0  0  0  0  0  0
   -0.1913    0.1554    1.7759 C   0  0  0  0  0  0  0  0  0  0  0  0
    0.9476   -0.0766    2.1748 O   0  0  0  0  0  0  0  0  0  0  0  0
   -1.1502    0.6393    2.5760 N   0  0  0  0  0  0  0  0  0  0  0  0
   -2.0581    0.8092    2.1736 H   0  0  0  0  0  0  0  0  0  0  0  0
   -0.9568    0.9369    3.9933 C   0  0  0  0  0  0  0  0  0  0  0  0
   -0.1600    1.6750    4.1097 H   0  0  0  0  0  0  0  0  0  0  0  0
   -1.8775    1.3307    4.4266 H   0  0  0  0  0  0  0  0  0  0  0  0
   -0.6678    0.0287    4.5244 H   0  0  0  0  0  0  0  0  0  0  0  0
  5  6  2  0  0  0  0
  5  7  1  0  0  0  0
  2  3  1  0  0  0  0
  2  4  1  0  0  0  0
  2  5  1  0  0  0  0
  1  2  1  0  0  0  0
 24 25  2  0  0  0  0
 24 26  1  0  0  0  0
 20 21  1  0  0  0  0
 20 22  1  0  0  0  0
 20 23  1  0  0  0  0
 16 17  1  0  0  0  0
 16 18  1  0  0  0  0
 16 19  1  0  0  0  0
 14 15  1  0  0  0  0
 14 16  1  0  0  0  0
 14 20  1  0  0  0  0
 11 12  1  0  0  0  0
 11 13  1  0  0  0  0
 11 14  1  0  0  0  0
  9 10  1  0  0  0  0
  9 11  1  0  0  0  0
  9 24  1  0  0  0  0
  7  8  1  0  0  0  0
  7  9  1  0  0  0  0
 28 29  1  0  0  0  0
 28 30  1  0  0  0  0
 28 31  1  0  0  0  0
 26 27  1  0  0  0  0
 26 28  1  0  0  0  0
M  END
$$$$
default_name
  -OEChem-02102213163D

 31 30  0     1  0  0  0  0  0999 V2000
   -3.5895   -3.5013    1.1082 H   0  0  0  0  0  0  0  0  0  0  0  0
   -3.5145   -2.5363    0.6082 C   0  0  0  0  0  0  0  0  0  0  0  0
   -4.2285   -1.8413    1.0452 H   0  0  0  0  0  0  0  0  0  0  0  0
   -3.7155   -2.6583   -0.4538 H   0  0  0  0  0  0  0  0  0  0  0  0
   -2.1155   -1.9963    0.7922 C   0  0  0  0  0  0  0  0  0  0  0  0
   -1.2875   -2.6383    1.4252 O   0  0  0  0  0  0  0  0  0  0  0  0
   -1.8575   -0.8123    0.2402 N   0  0  0  0  0  0  0  0  0  0  0  0
   -2.6005   -0.3333   -0.2478 H   0  0  0  0  0  0  0  0  0  0  0  0
   -0.5675   -0.1203    0.3102 C   0  0  1  0  0  0  0  0  0  0  0  0
    0.1932   -0.7715   -0.1219 H   0  0  0  0  0  0  0  0  0  0  0  0
   -0.6568    1.1713   -0.5294 C   0  0  0  0  0  0  0  0  0  0  0  0
   -1.2099    1.9202    0.0407 H   0  0  0  0  0  0  0  0  0  0  0  0
    0.3575    1.5495   -0.6754 H   0  0  0  0  0  0  0  0  0  0  0  0
   -1.3178    1.0264   -1.9125 C   0  0  0  0  0  0  0  0  0  0  0  0
   -0.5579    0.8080   -2.6627 H   0  0  0  0  0  0  0  0  0  0  0  0
   -2.3743   -0.0820   -1.9363 C   0  0  0  0  0  0  0  0  0  0  0  0
   -3.1343    0.1142   -1.1789 H   0  0  0  0  0  0  0  0  0  0  0  0
   -2.8489   -0.1158   -2.9173 H   0  0  0  0  0  0  0  0  0  0  0  0
   -1.9193   -1.0506   -1.7406 H   0  0  0  0  0  0  0  0  0  0  0  0
   -2.0003    2.3382   -2.2984 C   0  0  0  0  0  0  0  0  0  0  0  0
   -1.2642    3.1417   -2.3209 H   0  0  0  0  0  0  0  0  0  0  0  0
   -2.4454    2.2470   -3.2892 H   0  0  0  0  0  0  0  0  0  0  0  0
   -2.7789    2.5835   -1.5752 H   0  0  0  0  0  0  0  0  0  0  0  0
   -0.1913    0.1554    1.7759 C   0  0  0  0  0  0  0  0  0  0  0  0
    0.9476   -0.0766    2.1748 O   0  0  0  0  0  0  0  0  0  0  0  0
   -1.1502    0.6393    2.5760 N   0  0  0  0  0  0  0  0  0  0  0  0
   -2.0581    0.8092    2.1736 H   0  0  0  0  0  0  0  0  0  0  0  0
   -0.9568    0.9369    3.9933 C   0  0  0  0  0  0  0  0  0  0  0  0
   -0.1600    1.6750    4.1097 H   0  0  0  0  0  0  0  0  0  0  0  0
   -1.8775    1.3307    4.4266 H   0  0  0  0  0  0  0  0  0  0  0  0
   -0.6678    0.0287    4.5244 H   0  0  0  0  0  0  0  0  0  0  0  0
  5  6  2  0  0  0  0
  5  7  1  0  0  0  0
  2  3  1  0  0  0  0
  2  4  1  0  0  0  0
  2  5  1  0  0  0  0
  1  2  1  0  0  0  0
 24 25  2  0  0  0  0
 24 26  1  0  0  0  0
 20 21  1  0  0  0  0
 20 22  1  0  0  0  0
 20 23  1  0  0  0  0
 16 17  1  0  0  0  0
 16 18  1  0  0  0  0
 16 19  1  0  0  0  0
 14 15  1  0  0  0  0
 14 16  1  0  0  0  0
 14 20  1  0  0  0  0
 11 12  1  0  0  0  0
 11 13  1  0  0  0  0
 11 14  1  0  0  0  0
  9 10  1  0  0  0  0
  9 11  1  0  0  0  0
  9 24  1  0  0  0  0
  7  8  1  0  0  0  0
  7  9  1  0  0  0  0
 28 29  1  0  0  0  0
 28 30  1  0  0  0  0
 28 31  1  0  0  0  0
 26 27  1  0  0  0  0
 26 28  1  0  0  0  0
M  END
$$$$
default_name
  -OEChem-02102213163D

 31 30  0     1  0  0  0  0  0999 V2000
   -3.5895   -3.5013    1.1082 H   0  0  0  0  0  0  0  0  0  0  0  0
   -3.5145   -2.5363    0.6082 C   0  0  0  0  0  0  0  0  0  0  0  0
   -4.2285   -1.8413    1.0452 H   0  0  0  0  0  0  0  0  0  0  0  0
   -3.7155   -2.6583   -0.4538 H   0  0  0  0  0  0  0  0  0  0  0  0
   -2.1155   -1.9963    0.7922 C   0  0  0  0  0  0  0  0  0  0  0  0
   -1.2875   -2.6383    1.4252 O   0  0  0  0  0  0  0  0  0  0  0  0
   -1.8575   -0.8123    0.2402 N   0  0  0  0  0  0  0  0  0  0  0  0
   -2.6005   -0.3333   -0.2478 H   0  0  0  0  0  0  0  0  0  0  0  0
   -0.5675   -0.1203    0.3102 C   0  0  1  0  0  0  0  0  0  0  0  0
    0.1932   -0.7715   -0.1219 H   0  0  0  0  0  0  0  0  0  0  0  0
   -0.6568    1.1713   -0.5294 C   0  0  0  0  0  0  0  0  0  0  0  0
   -1.2099    1.9202    0.0407 H   0  0  0  0  0  0  0  0  0  0  0  0
    0.3575    1.5495   -0.6754 H   0  0  0  0  0  0  0  0  0  0  0  0
   -1.3178    1.0264   -1.9125 C   0  0  0  0  0  0  0  0  0  0  0  0
   -0.6217    0.5542   -2.6056 H   0  0  0  0  0  0  0  0  0  0  0  0
   -2.6038    0.1968   -1.8558 C   0  0  0  0  0  0  0  0  0  0  0  0
   -3.3054    0.6484   -1.1531 H   0  0  0  0  0  0  0  0  0  0  0  0
   -3.0622    0.1621   -2.8444 H   0  0  0  0  0  0  0  0  0  0  0  0
   -2.3902   -0.8219   -1.5395 H   0  0  0  0  0  0  0  0  0  0  0  0
   -1.6702    2.4076   -2.4634 C   0  0  0  0  0  0  0  0  0  0  0  0
   -0.7665    3.0113   -2.5452 H   0  0  0  0  0  0  0  0  0  0  0  0
   -2.1132    2.3094   -3.4545 H   0  0  0  0  0  0  0  0  0  0  0  0
   -2.3779    2.9070   -1.8008 H   0  0  0  0  0  0  0  0  0  0  0  0
   -0.1913    0.1554    1.7759 C   0  0  0  0  0  0  0  0  0  0  0  0
    0.9476   -0.0766    2.1748 O   0  0  0  0  0  0  0  0  0  0  0  0
   -1.1502    0.6393    2.5760 N   0  0  0  0  0  0  0  0  0  0  0  0
   -2.0581    0.8092    2.1736 H   0  0  0  0  0  0  0  0  0  0  0  0
   -0.9568    0.9369    3.9933 C   0  0  0  0  0  0  0  0  0  0  0  0
   -0.1600    1.6750    4.1097 H   0  0  0  0  0  0  0  0  0  0  0  0
   -1.8775    1.3307    4.4266 H   0  0  0  0  0  0  0  0  0  0  0  0
   -0.6678    0.0287    4.5244 H   0  0  0  0  0  0  0  0  0  0  0  0
  5  6  2  0  0  0  0
  5  7  1  0  0  0  0
  2  3  1  0  0  0  0
  2  4  1  0  0  0  0
  2  5  1  0  0  0  0
  1  2  1  0  0  0  0
 24 25  2  0  0  0  0
 24 26  1  0  0  0  0
 20 21  1  0  0  0  0
 20 22  1  0  0  0  0
 20 23  1  0  0  0  0
 16 17  1  0  0  0  0
 16 18  1  0  0  0  0
 16 19  1  0  0  0  0
 14 15  1  0  0  0  0
 14 16  1  0  0  0  0
 14 20  1  0  0  0  0
 11 12  1  0  0  0  0
 11 13  1  0  0  0  0
 11 14  1  0  0  0  0
  9 10  1  0  0  0  0
  9 11  1  0  0  0  0
  9 24  1  0  0  0  0
  7  8  1  0  0  0  0
  7  9  1  0  0  0  0
 28 29  1  0  0  0  0
 28 30  1  0  0  0  0
 28 31  1  0  0  0  0
 26 27  1  0  0  0  0
 26 28  1  0  0  0  0
M  END
$$$$
default_name
  -OEChem-02102213163D

 31 30  0     1  0  0  0  0  0999 V2000
   -3.5895   -3.5013    1.1082 H   0  0  0  0  0  0  0  0  0  0  0  0
   -3.5145   -2.5363    0.6082 C   0  0  0  0  0  0  0  0  0  0  0  0
   -4.2285   -1.8413    1.0452 H   0  0  0  0  0  0  0  0  0  0  0  0
   -3.7155   -2.6583   -0.4538 H   0  0  0  0  0  0  0  0  0  0  0  0
   -2.1155   -1.9963    0.7922 C   0  0  0  0  0  0  0  0  0  0  0  0
   -1.2875   -2.6383    1.4252 O   0  0  0  0  0  0  0  0  0  0  0  0
   -1.8575   -0.8123    0.2402 N   0  0  0  0  0  0  0  0  0  0  0  0
   -2.6005   -0.3333   -0.2478 H   0  0  0  0  0  0  0  0  0  0  0  0
   -0.5675   -0.1203    0.3102 C   0  0  1  0  0  0  0  0  0  0  0  0
    0.1932   -0.7715   -0.1219 H   0  0  0  0  0  0  0  0  0  0  0  0
   -0.6568    1.1713   -0.5294 C   0  0  0  0  0  0  0  0  0  0  0  0
   -1.2099    1.9202    0.0407 H   0  0  0  0  0  0  0  0  0  0  0  0
    0.3575    1.5495   -0.6754 H   0  0  0  0  0  0  0  0  0  0  0  0
   -1.3178    1.0264   -1.9125 C   0  0  0  0  0  0  0  0  0  0  0  0
   -0.7437    0.3303   -2.5238 H   0  0  0  0  0  0  0  0  0  0  0  0
   -2.7627    0.5285   -1.8146 C   0  0  0  0  0  0  0  0  0  0  0  0
   -3.3471    1.2071   -1.1917 H   0  0  0  0  0  0  0  0  0  0  0  0
   -3.2054    0.4881   -2.8101 H   0  0  0  0  0  0  0  0  0  0  0  0
   -2.7969   -0.4691   -1.3821 H   0  0  0  0  0  0  0  0  0  0  0  0
   -1.3313    2.3796   -2.6225 C   0  0  0  0  0  0  0  0  0  0  0  0
   -0.3105    2.7447   -2.7352 H   0  0  0  0  0  0  0  0  0  0  0  0
   -1.7738    2.2741   -3.6130 H   0  0  0  0  0  0  0  0  0  0  0  0
   -1.9099    3.1012   -2.0448 H   0  0  0  0  0  0  0  0  0  0  0  0
   -0.1913    0.1554    1.7759 C   0  0  0  0  0  0  0  0  0  0  0  0
    0.9476   -0.0766    2.1748 O   0  0  0  0  0  0  0  0  0  0  0  0
   -1.1502    0.6393    2.5760 N   0  0  0  0  0  0  0  0  0  0  0  0
   -2.0581    0.8092    2.1736 H   0  0  0  0  0  0  0  0  0  0  0  0
   -0.9568    0.9369    3.9933 C   0  0  0  0  0  0  0  0  0  0  0  0
   -0.1600    1.6750    4.1097 H   0  0  0  0  0  0  0  0  0  0  0  0
   -1.8775    1.3307    4.4266 H   0  0  0  0  0  0  0  0  0  0  0  0
   -0.6678    0.0287    4.5244 H   0  0  0  0  0  0  0  0  0  0  0  0
  5  6  2  0  0  0  0
  5  7  1  0  0  0  0
  2  3  1  0  0  0  0
  2  4  1  0  0  0  0
  2  5  1  0  0  0  0
  1  2  1  0  0  0  0
 24 25  2  0  0  0  0
 24 26  1  0  0  0  0
 20 21  1  0  0  0  0
 20 22  1  0  0  0  0
 20 23  1  0  0  0  0
 16 17  1  0  0  0  0
 16 18  1  0  0  0  0
 16 19  1  0  0  0  0
 14 15  1  0  0  0  0
 14 16  1  0  0  0  0
 14 20  1  0  0  0  0
 11 12  1  0  0  0  0
 11 13  1  0  0  0  0
 11 14  1  0  0  0  0
  9 10  1  0  0  0  0
  9 11  1  0  0  0  0
  9 24  1  0  0  0  0
  7  8  1  0  0  0  0
  7  9  1  0  0  0  0
 28 29  1  0  0  0  0
 28 30  1  0  0  0  0
 28 31  1  0  0  0  0
 26 27  1  0  0  0  0
 26 28  1  0  0  0  0
M  END
$$$$
default_name
  -OEChem-02102213163D

 31 30  0     1  0  0  0  0  0999 V2000
   -3.5895   -3.5013    1.1082 H   0  0  0  0  0  0  0  0  0  0  0  0
   -3.5145   -2.5363    0.6082 C   0  0  0  0  0  0  0  0  0  0  0  0
   -4.2285   -1.8413    1.0452 H   0  0  0  0  0  0  0  0  0  0  0  0
   -3.7155   -2.6583   -0.4538 H   0  0  0  0  0  0  0  0  0  0  0  0
   -2.1155   -1.9963    0.7922 C   0  0  0  0  0  0  0  0  0  0  0  0
   -1.2875   -2.6383    1.4252 O   0  0  0  0  0  0  0  0  0  0  0  0
   -1.8575   -0.8123    0.2402 N   0  0  0  0  0  0  0  0  0  0  0  0
   -2.6005   -0.3333   -0.2478 H   0  0  0  0  0  0  0  0  0  0  0  0
   -0.5675   -0.1203    0.3102 C   0  0  1  0  0  0  0  0  0  0  0  0
    0.1932   -0.7715   -0.1219 H   0  0  0  0  0  0  0  0  0  0  0  0
   -0.6568    1.1713   -0.5294 C   0  0  0  0  0  0  0  0  0  0  0  0
   -1.2099    1.9202    0.0407 H   0  0  0  0  0  0  0  0  0  0  0  0
    0.3575    1.5495   -0.6754 H   0  0  0  0  0  0  0  0  0  0  0  0
   -1.3178    1.0264   -1.9125 C   0  0  0  0  0  0  0  0  0  0  0  0
   -0.9156    0.1514   -2.4229 H   0  0  0  0  0  0  0  0  0  0  0  0
   -2.8401    0.8904   -1.8155 C   0  0  0  0  0  0  0  0  0  0  0  0
   -3.2565    1.7521   -1.2920 H   0  0  0  0  0  0  0  0  0  0  0  0
   -3.2687    0.8402   -2.8167 H   0  0  0  0  0  0  0  0  0  0  0  0
   -3.1114   -0.0163   -1.2791 H   0  0  0  0  0  0  0  0  0  0  0  0
   -1.0065    2.2561   -2.7648 C   0  0  0  0  0  0  0  0  0  0  0  0
    0.0725    2.3601   -2.8780 H   0  0  0  0  0  0  0  0  0  0  0  0
   -1.4503    2.1435   -3.7540 H   0  0  0  0  0  0  0  0  0  0  0  0
   -1.4068    3.1529   -2.2907 H   0  0  0  0  0  0  0  0  0  0  0  0
   -0.1913    0.1554    1.7759 C   0  0  0  0  0  0  0  0  0  0  0  0
    0.9476   -0.0766    2.1748 O   0  0  0  0  0  0  0  0  0  0  0  0
   -1.1502    0.6393    2.5760 N   0  0  0  0  0  0  0  0  0  0  0  0
   -2.0581    0.8092    2.1736 H   0  0  0  0  0  0  0  0  0  0  0  0
   -0.9568    0.9369    3.9933 C   0  0  0  0  0  0  0  0  0  0  0  0
   -0.1600    1.6750    4.1097 H   0  0  0  0  0  0  0  0  0  0  0  0
   -1.8775    1.3307    4.4266 H   0  0  0  0  0  0  0  0  0  0  0  0
   -0.6678    0.0287    4.5244 H   0  0  0  0  0  0  0  0  0  0  0  0
  5  6  2  0  0  0  0
  5  7  1  0  0  0  0
  2  3  1  0  0  0  0
  2  4  1  0  0  0  0
  2  5  1  0  0  0  0
  1  2  1  0  0  0  0
 24 25  2  0  0  0  0
 24 26  1  0  0  0  0
 20 21  1  0  0  0  0
 20 22  1  0  0  0  0
 20 23  1  0  0  0  0
 16 17  1  0  0  0  0
 16 18  1  0  0  0  0
 16 19  1  0  0  0  0
 14 15  1  0  0  0  0
 14 16  1  0  0  0  0
 14 20  1  0  0  0  0
 11 12  1  0  0  0  0
 11 13  1  0  0  0  0
 11 14  1  0  0  0  0
  9 10  1  0  0  0  0
  9 11  1  0  0  0  0
  9 24  1  0  0  0  0
  7  8  1  0  0  0  0
  7  9  1  0  0  0  0
 28 29  1  0  0  0  0
 28 30  1  0  0  0  0
 28 31  1  0  0  0  0
 26 27  1  0  0  0  0
 26 28  1  0  0  0  0
M  END
$$$$
default_name
  -OEChem-02102213163D

 31 30  0     1  0  0  0  0  0999 V2000
   -3.5895   -3.5013    1.1082 H   0  0  0  0  0  0  0  0  0  0  0  0
   -3.5145   -2.5363    0.6082 C   0  0  0  0  0  0  0  0  0  0  0  0
   -4.2285   -1.8413    1.0452 H   0  0  0  0  0  0  0  0  0  0  0  0
   -3.7155   -2.6583   -0.4538 H   0  0  0  0  0  0  0  0  0  0  0  0
   -2.1155   -1.9963    0.7922 C   0  0  0  0  0  0  0  0  0  0  0  0
   -1.2875   -2.6383    1.4252 O   0  0  0  0  0  0  0  0  0  0  0  0
   -1.8575   -0.8123    0.2402 N   0  0  0  0  0  0  0  0  0  0  0  0
   -2.6005   -0.3333   -0.2478 H   0  0  0  0  0  0  0  0  0  0  0  0
   -0.5675   -0.1203    0.3102 C   0  0  1  0  0  0  0  0  0  0  0  0
    0.1932   -0.7715   -0.1219 H   0  0  0  0  0  0  0  0  0  0  0  0
   -0.6568    1.1713   -0.5294 C   0  0  0  0  0  0  0  0  0  0  0  0
   -1.2099    1.9202    0.0407 H   0  0  0  0  0  0  0  0  0  0  0  0
    0.3575    1.5495   -0.6754 H   0  0  0  0  0  0  0  0  0  0  0  0
   -1.3178    1.0264   -1.9125 C   0  0  0  0  0  0  0  0  0  0  0  0
   -1.1257    0.0298   -2.3098 H   0  0  0  0  0  0  0  0  0  0  0  0
   -2.8307    1.2579   -1.8585 C   0  0  0  0  0  0  0  0  0  0  0  0
   -3.0399    2.2464   -1.4474 H   0  0  0  0  0  0  0  0  0  0  0  0
   -3.2479    1.1943   -2.8637 H   0  0  0  0  0  0  0  0  0  0  0  0
   -3.3125    0.5056   -1.2377 H   0  0  0  0  0  0  0  0  0  0  0  0
   -0.7181    2.0454   -2.8806 C   0  0  0  0  0  0  0  0  0  0  0  0
    0.3566    1.8837   -2.9639 H   0  0  0  0  0  0  0  0  0  0  0  0
   -1.1648    1.9264   -3.8678 H   0  0  0  0  0  0  0  0  0  0  0  0
   -0.9028    3.0585   -2.5218 H   0  0  0  0  0  0  0  0  0  0  0  0
   -0.1913    0.1554    1.7759 C   0  0  0  0  0  0  0  0  0  0  0  0
    0.9476   -0.0766    2.1748 O   0  0  0  0  0  0  0  0  0  0  0  0
   -1.1502    0.6393    2.5760 N   0  0  0  0  0  0  0  0  0  0  0  0
   -2.0581    0.8092    2.1736 H   0  0  0  0  0  0  0  0  0  0  0  0
   -0.9568    0.9369    3.9933 C   0  0  0  0  0  0  0  0  0  0  0  0
   -0.1600    1.6750    4.1097 H   0  0  0  0  0  0  0  0  0  0  0  0
   -1.8775    1.3307    4.4266 H   0  0  0  0  0  0  0  0  0  0  0  0
   -0.6678    0.0287    4.5244 H   0  0  0  0  0  0  0  0  0  0  0  0
  5  6  2  0  0  0  0
  5  7  1  0  0  0  0
  2  3  1  0  0  0  0
  2  4  1  0  0  0  0
  2  5  1  0  0  0  0
  1  2  1  0  0  0  0
 24 25  2  0  0  0  0
 24 26  1  0  0  0  0
 20 21  1  0  0  0  0
 20 22  1  0  0  0  0
 20 23  1  0  0  0  0
 16 17  1  0  0  0  0
 16 18  1  0  0  0  0
 16 19  1  0  0  0  0
 14 15  1  0  0  0  0
 14 16  1  0  0  0  0
 14 20  1  0  0  0  0
 11 12  1  0  0  0  0
 11 13  1  0  0  0  0
 11 14  1  0  0  0  0
  9 10  1  0  0  0  0
  9 11  1  0  0  0  0
  9 24  1  0  0  0  0
  7  8  1  0  0  0  0
  7  9  1  0  0  0  0
 28 29  1  0  0  0  0
 28 30  1  0  0  0  0
 28 31  1  0  0  0  0
 26 27  1  0  0  0  0
 26 28  1  0  0  0  0
M  END
$$$$
default_name
  -OEChem-02102213163D

 31 30  0     1  0  0  0  0  0999 V2000
   -3.5895   -3.5013    1.1082 H   0  0  0  0  0  0  0  0  0  0  0  0
   -3.5145   -2.5363    0.6082 C   0  0  0  0  0  0  0  0  0  0  0  0
   -4.2285   -1.8413    1.0452 H   0  0  0  0  0  0  0  0  0  0  0  0
   -3.7155   -2.6583   -0.4538 H   0  0  0  0  0  0  0  0  0  0  0  0
   -2.1155   -1.9963    0.7922 C   0  0  0  0  0  0  0  0  0  0  0  0
   -1.2875   -2.6383    1.4252 O   0  0  0  0  0  0  0  0  0  0  0  0
   -1.8575   -0.8123    0.2402 N   0  0  0  0  0  0  0  0  0  0  0  0
   -2.6005   -0.3333   -0.2478 H   0  0  0  0  0  0  0  0  0  0  0  0
   -0.5675   -0.1203    0.3102 C   0  0  1  0  0  0  0  0  0  0  0  0
    0.1932   -0.7715   -0.1219 H   0  0  0  0  0  0  0  0  0  0  0  0
   -0.6568    1.1713   -0.5294 C   0  0  0  0  0  0  0  0  0  0  0  0
   -1.2099    1.9202    0.0407 H   0  0  0  0  0  0  0  0  0  0  0  0
    0.3575    1.5495   -0.6754 H   0  0  0  0  0  0  0  0  0  0  0  0
   -1.3178    1.0264   -1.9125 C   0  0  0  0  0  0  0  0  0  0  0  0
   -1.3596   -0.0263   -2.1921 H   0  0  0  0  0  0  0  0  0  0  0  0
   -2.7351    1.6058   -1.9406 C   0  0  0  0  0  0  0  0  0  0  0  0
   -2.7119    2.6562   -1.6470 H   0  0  0  0  0  0  0  0  0  0  0  0
   -3.1444    1.5262   -2.9480 H   0  0  0  0  0  0  0  0  0  0  0  0
   -3.3865    1.0611   -1.2605 H   0  0  0  0  0  0  0  0  0  0  0  0
   -0.4856    1.7620   -2.9621 C   0  0  0  0  0  0  0  0  0  0  0  0
    0.5223    1.3479   -2.9870 H   0  0  0  0  0  0  0  0  0  0  0  0
   -0.9366    1.6377   -3.9466 H   0  0  0  0  0  0  0  0  0  0  0  0
   -0.4323    2.8245   -2.7222 H   0  0  0  0  0  0  0  0  0  0  0  0
   -0.1913    0.1554    1.7759 C   0  0  0  0  0  0  0  0  0  0  0  0
    0.9476   -0.0766    2.1748 O   0  0  0  0  0  0  0  0  0  0  0  0
   -1.1502    0.6393    2.5760 N   0  0  0  0  0  0  0  0  0  0  0  0
   -2.0581    0.8092    2.1736 H   0  0  0  0  0  0  0  0  0  0  0  0
   -0.9568    0.9369    3.9933 C   0  0  0  0  0  0  0  0  0  0  0  0
   -0.1600    1.6750    4.1097 H   0  0  0  0  0  0  0  0  0  0  0  0
   -1.8775    1.3307    4.4266 H   0  0  0  0  0  0  0  0  0  0  0  0
   -0.6678    0.0287    4.5244 H   0  0  0  0  0  0  0  0  0  0  0  0
  5  6  2  0  0  0  0
  5  7  1  0  0  0  0
  2  3  1  0  0  0  0
  2  4  1  0  0  0  0
  2  5  1  0  0  0  0
  1  2  1  0  0  0  0
 24 25  2  0  0  0  0
 24 26  1  0  0  0  0
 20 21  1  0  0  0  0
 20 22  1  0  0  0  0
 20 23  1  0  0  0  0
 16 17  1  0  0  0  0
 16 18  1  0  0  0  0
 16 19  1  0  0  0  0
 14 15  1  0  0  0  0
 14 16  1  0  0  0  0
 14 20  1  0  0  0  0
 11 12  1  0  0  0  0
 11 13  1  0  0  0  0
 11 14  1  0  0  0  0
  9 10  1  0  0  0  0
  9 11  1  0  0  0  0
  9 24  1  0  0  0  0
  7  8  1  0  0  0  0
  7  9  1  0  0  0  0
 28 29  1  0  0  0  0
 28 30  1  0  0  0  0
 28 31  1  0  0  0  0
 26 27  1  0  0  0  0
 26 28  1  0  0  0  0
M  END
$$$$
default_name
  -OEChem-02102213163D

 31 30  0     1  0  0  0  0  0999 V2000
   -3.5895   -3.5013    1.1082 H   0  0  0  0  0  0  0  0  0  0  0  0
   -3.5145   -2.5363    0.6082 C   0  0  0  0  0  0  0  0  0  0  0  0
   -4.2285   -1.8413    1.0452 H   0  0  0  0  0  0  0  0  0  0  0  0
   -3.7155   -2.6583   -0.4538 H   0  0  0  0  0  0  0  0  0  0  0  0
   -2.1155   -1.9963    0.7922 C   0  0  0  0  0  0  0  0  0  0  0  0
   -1.2875   -2.6383    1.4252 O   0  0  0  0  0  0  0  0  0  0  0  0
   -1.8575   -0.8123    0.2402 N   0  0  0  0  0  0  0  0  0  0  0  0
   -2.6005   -0.3333   -0.2478 H   0  0  0  0  0  0  0  0  0  0  0  0
   -0.5675   -0.1203    0.3102 C   0  0  1  0  0  0  0  0  0  0  0  0
    0.1932   -0.7715   -0.1219 H   0  0  0  0  0  0  0  0  0  0  0  0
   -0.6568    1.1713   -0.5294 C   0  0  0  0  0  0  0  0  0  0  0  0
   -1.2099    1.9202    0.0407 H   0  0  0  0  0  0  0  0  0  0  0  0
    0.3575    1.5495   -0.6754 H   0  0  0  0  0  0  0  0  0  0  0  0
   -1.3178    1.0264   -1.9125 C   0  0  0  0  0  0  0  0  0  0  0  0
   -1.6015   -0.0129   -2.0778 H   0  0  0  0  0  0  0  0  0  0  0  0
   -2.5600    1.9106   -2.0563 C   0  0  0  0  0  0  0  0  0  0  0  0
   -2.2950    2.9536   -1.8775 H   0  0  0  0  0  0  0  0  0  0  0  0
   -2.9651    1.8134   -3.0638 H   0  0  0  0  0  0  0  0  0  0  0  0
   -3.3282    1.6123   -1.3461 H   0  0  0  0  0  0  0  0  0  0  0  0
   -0.3249    1.4252   -3.0036 C   0  0  0  0  0  0  0  0  0  0  0  0
    0.5584    0.7893   -2.9457 H   0  0  0  0  0  0  0  0  0  0  0  0
   -0.7815    1.2971   -3.9851 H   0  0  0  0  0  0  0  0  0  0  0  0
   -0.0274    2.4668   -2.8783 H   0  0  0  0  0  0  0  0  0  0  0  0
   -0.1913    0.1554    1.7759 C   0  0  0  0  0  0  0  0  0  0  0  0
    0.9476   -0.0766    2.1748 O   0  0  0  0  0  0  0  0  0  0  0  0
   -1.1502    0.6393    2.5760 N   0  0  0  0  0  0  0  0  0  0  0  0
   -2.0581    0.8092    2.1736 H   0  0  0  0  0  0  0  0  0  0  0  0
   -0.9568    0.9369    3.9933 C   0  0  0  0  0  0  0  0  0  0  0  0
   -0.1600    1.6750    4.1097 H   0  0  0  0  0  0  0  0  0  0  0  0
   -1.8775    1.3307    4.4266 H   0  0  0  0  0  0  0  0  0  0  0  0
   -0.6678    0.0287    4.5244 H   0  0  0  0  0  0  0  0  0  0  0  0
  5  6  2  0  0  0  0
  5  7  1  0  0  0  0
  2  3  1  0  0  0  0
  2  4  1  0  0  0  0
  2  5  1  0  0  0  0
  1  2  1  0  0  0  0
 24 25  2  0  0  0  0
 24 26  1  0  0  0  0
 20 21  1  0  0  0  0
 20 22  1  0  0  0  0
 20 23  1  0  0  0  0
 16 17  1  0  0  0  0
 16 18  1  0  0  0  0
 16 19  1  0  0  0  0
 14 15  1  0  0  0  0
 14 16  1  0  0  0  0
 14 20  1  0  0  0  0
 11 12  1  0  0  0  0
 11 13  1  0  0  0  0
 11 14  1  0  0  0  0
  9 10  1  0  0  0  0
  9 11  1  0  0  0  0
  9 24  1  0  0  0  0
  7  8  1  0  0  0  0
  7  9  1  0  0  0  0
 28 29  1  0  0  0  0
 28 30  1  0  0  0  0
 28 31  1  0  0  0  0
 26 27  1  0  0  0  0
 26 28  1  0  0  0  0
M  END
$$$$
default_name
  -OEChem-02102213163D

 31 30  0     1  0  0  0  0  0999 V2000
   -3.5895   -3.5013    1.1082 H   0  0  0  0  0  0  0  0  0  0  0  0
   -3.5145   -2.5363    0.6082 C   0  0  0  0  0  0  0  0  0  0  0  0
   -4.2285   -1.8413    1.0452 H   0  0  0  0  0  0  0  0  0  0  0  0
   -3.7155   -2.6583   -0.4538 H   0  0  0  0  0  0  0  0  0  0  0  0
   -2.1155   -1.9963    0.7922 C   0  0  0  0  0  0  0  0  0  0  0  0
   -1.2875   -2.6383    1.4252 O   0  0  0  0  0  0  0  0  0  0  0  0
   -1.8575   -0.8123    0.2402 N   0  0  0  0  0  0  0  0  0  0  0  0
   -2.6005   -0.3333   -0.2478 H   0  0  0  0  0  0  0  0  0  0  0  0
   -0.5675   -0.1203    0.3102 C   0  0  1  0  0  0  0  0  0  0  0  0
    0.1932   -0.7715   -0.1219 H   0  0  0  0  0  0  0  0  0  0  0  0
   -0.6568    1.1713   -0.5294 C   0  0  0  0  0  0  0  0  0  0  0  0
   -1.2099    1.9202    0.0407 H   0  0  0  0  0  0  0  0  0  0  0  0
    0.3575    1.5495   -0.6754 H   0  0  0  0  0  0  0  0  0  0  0  0
   -1.3178    1.0264   -1.9125 C   0  0  0  0  0  0  0  0  0  0  0  0
   -1.8348    0.0689   -1.9749 H   0  0  0  0  0  0  0  0  0  0  0  0
   -2.3171    2.1514   -2.1976 C   0  0  0  0  0  0  0  0  0  0  0  0
   -1.8176    3.1183   -2.1229 H   0  0  0  0  0  0  0  0  0  0  0  0
   -2.7224    2.0362   -3.2031 H   0  0  0  0  0  0  0  0  0  0  0  0
   -3.1416    2.1217   -1.4886 H   0  0  0  0  0  0  0  0  0  0  0  0
   -0.2471    1.0578   -3.0023 C   0  0  0  0  0  0  0  0  0  0  0  0
    0.4624    0.2459   -2.8429 H   0  0  0  0  0  0  0  0  0  0  0  0
   -0.7098    0.9277   -3.9806 H   0  0  0  0  0  0  0  0  0  0  0  0
    0.2845    2.0099   -2.9794 H   0  0  0  0  0  0  0  0  0  0  0  0
   -0.1913    0.1554    1.7759 C   0  0  0  0  0  0  0  0  0  0  0  0
    0.9476   -0.0766    2.1748 O   0  0  0  0  0  0  0  0  0  0  0  0
   -1.1502    0.6393    2.5760 N   0  0  0  0  0  0  0  0  0  0  0  0
   -2.0581    0.8092    2.1736 H   0  0  0  0  0  0  0  0  0  0  0  0
   -0.9568    0.9369    3.9933 C   0  0  0  0  0  0  0  0  0  0  0  0
   -0.1600    1.6750    4.1097 H   0  0  0  0  0  0  0  0  0  0  0  0
   -1.8775    1.3307    4.4266 H   0  0  0  0  0  0  0  0  0  0  0  0
   -0.6678    0.0287    4.5244 H   0  0  0  0  0  0  0  0  0  0  0  0
  5  6  2  0  0  0  0
  5  7  1  0  0  0  0
  2  3  1  0  0  0  0
  2  4  1  0  0  0  0
  2  5  1  0  0  0  0
  1  2  1  0  0  0  0
 24 25  2  0  0  0  0
 24 26  1  0  0  0  0
 20 21  1  0  0  0  0
 20 22  1  0  0  0  0
 20 23  1  0  0  0  0
 16 17  1  0  0  0  0
 16 18  1  0  0  0  0
 16 19  1  0  0  0  0
 14 15  1  0  0  0  0
 14 16  1  0  0  0  0
 14 20  1  0  0  0  0
 11 12  1  0  0  0  0
 11 13  1  0  0  0  0
 11 14  1  0  0  0  0
  9 10  1  0  0  0  0
  9 11  1  0  0  0  0
  9 24  1  0  0  0  0
  7  8  1  0  0  0  0
  7  9  1  0  0  0  0
 28 29  1  0  0  0  0
 28 30  1  0  0  0  0
 28 31  1  0  0  0  0
 26 27  1  0  0  0  0
 26 28  1  0  0  0  0
M  END
$$$$
default_name
  -OEChem-02102213163D

 31 30  0     1  0  0  0  0  0999 V2000
   -3.5895   -3.5013    1.1082 H   0  0  0  0  0  0  0  0  0  0  0  0
   -3.5145   -2.5363    0.6082 C   0  0  0  0  0  0  0  0  0  0  0  0
   -4.2285   -1.8413    1.0452 H   0  0  0  0  0  0  0  0  0  0  0  0
   -3.7155   -2.6583   -0.4538 H   0  0  0  0  0  0  0  0  0  0  0  0
   -2.1155   -1.9963    0.7922 C   0  0  0  0  0  0  0  0  0  0  0  0
   -1.2875   -2.6383    1.4252 O   0  0  0  0  0  0  0  0  0  0  0  0
   -1.8575   -0.8123    0.2402 N   0  0  0  0  0  0  0  0  0  0  0  0
   -2.6005   -0.3333   -0.2478 H   0  0  0  0  0  0  0  0  0  0  0  0
   -0.5675   -0.1203    0.3102 C   0  0  1  0  0  0  0  0  0  0  0  0
    0.1932   -0.7715   -0.1219 H   0  0  0  0  0  0  0  0  0  0  0  0
   -0.6568    1.1713   -0.5294 C   0  0  0  0  0  0  0  0  0  0  0  0
   -1.2099    1.9202    0.0407 H   0  0  0  0  0  0  0  0  0  0  0  0
    0.3575    1.5495   -0.6754 H   0  0  0  0  0  0  0  0  0  0  0  0
   -1.3178    1.0264   -1.9125 C   0  0  0  0  0  0  0  0  0  0  0  0
   -2.0437    0.2136   -1.8902 H   0  0  0  0  0  0  0  0  0  0  0  0
   -2.0230    2.3118   -2.3550 C   0  0  0  0  0  0  0  0  0  0  0  0
   -1.3122    3.1392   -2.3667 H   0  0  0  0  0  0  0  0  0  0  0  0
   -2.4328    2.1796   -3.3566 H   0  0  0  0  0  0  0  0  0  0  0  0
   -2.8396    2.5545   -1.6784 H   0  0  0  0  0  0  0  0  0  0  0  0
   -0.2573    0.6851   -2.9584 C   0  0  0  0  0  0  0  0  0  0  0  0
    0.2408   -0.2452   -2.6855 H   0  0  0  0  0  0  0  0  0  0  0  0
   -0.7266    0.5548   -3.9335 H   0  0  0  0  0  0  0  0  0  0  0  0
    0.4819    1.4847   -3.0188 H   0  0  0  0  0  0  0  0  0  0  0  0
   -0.1913    0.1554    1.7759 C   0  0  0  0  0  0  0  0  0  0  0  0
    0.9476   -0.0766    2.1748 O   0  0  0  0  0  0  0  0  0  0  0  0
   -1.1502    0.6393    2.5760 N   0  0  0  0  0  0  0  0  0  0  0  0
   -2.0581    0.8092    2.1736 H   0  0  0  0  0  0  0  0  0  0  0  0
   -0.9568    0.9369    3.9933 C   0  0  0  0  0  0  0  0  0  0  0  0
   -0.1600    1.6750    4.1097 H   0  0  0  0  0  0  0  0  0  0  0  0
   -1.8775    1.3307    4.4266 H   0  0  0  0  0  0  0  0  0  0  0  0
   -0.6678    0.0287    4.5244 H   0  0  0  0  0  0  0  0  0  0  0  0
  5  6  2  0  0  0  0
  5  7  1  0  0  0  0
  2  3  1  0  0  0  0
  2  4  1  0  0  0  0
  2  5  1  0  0  0  0
  1  2  1  0  0  0  0
 24 25  2  0  0  0  0
 24 26  1  0  0  0  0
 20 21  1  0  0  0  0
 20 22  1  0  0  0  0
 20 23  1  0  0  0  0
 16 17  1  0  0  0  0
 16 18  1  0  0  0  0
 16 19  1  0  0  0  0
 14 15  1  0  0  0  0
 14 16  1  0  0  0  0
 14 20  1  0  0  0  0
 11 12  1  0  0  0  0
 11 13  1  0  0  0  0
 11 14  1  0  0  0  0
  9 10  1  0  0  0  0
  9 11  1  0  0  0  0
  9 24  1  0  0  0  0
  7  8  1  0  0  0  0
  7  9  1  0  0  0  0
 28 29  1  0  0  0  0
 28 30  1  0  0  0  0
 28 31  1  0  0  0  0
 26 27  1  0  0  0  0
 26 28  1  0  0  0  0
M  END
$$$$
default_name
  -OEChem-02102213163D

 31 30  0     1  0  0  0  0  0999 V2000
   -3.5895   -3.5013    1.1082 H   0  0  0  0  0  0  0  0  0  0  0  0
   -3.5145   -2.5363    0.6082 C   0  0  0  0  0  0  0  0  0  0  0  0
   -4.2285   -1.8413    1.0452 H   0  0  0  0  0  0  0  0  0  0  0  0
   -3.7155   -2.6583   -0.4538 H   0  0  0  0  0  0  0  0  0  0  0  0
   -2.1155   -1.9963    0.7922 C   0  0  0  0  0  0  0  0  0  0  0  0
   -1.2875   -2.6383    1.4252 O   0  0  0  0  0  0  0  0  0  0  0  0
   -1.8575   -0.8123    0.2402 N   0  0  0  0  0  0  0  0  0  0  0  0
   -2.6005   -0.3333   -0.2478 H   0  0  0  0  0  0  0  0  0  0  0  0
   -0.5675   -0.1203    0.3102 C   0  0  1  0  0  0  0  0  0  0  0  0
    0.1932   -0.7715   -0.1219 H   0  0  0  0  0  0  0  0  0  0  0  0
   -0.6568    1.1713   -0.5294 C   0  0  0  0  0  0  0  0  0  0  0  0
   -1.2099    1.9202    0.0407 H   0  0  0  0  0  0  0  0  0  0  0  0
    0.3575    1.5495   -0.6754 H   0  0  0  0  0  0  0  0  0  0  0  0
   -1.3178    1.0264   -1.9125 C   0  0  0  0  0  0  0  0  0  0  0  0
   -2.2139    0.4113   -1.8296 H   0  0  0  0  0  0  0  0  0  0  0  0
   -1.6979    2.3809   -2.5176 C   0  0  0  0  0  0  0  0  0  0  0  0
   -0.8132    3.0147   -2.5922 H   0  0  0  0  0  0  0  0  0  0  0  0
   -2.1159    2.2337   -3.5137 H   0  0  0  0  0  0  0  0  0  0  0  0
   -2.4426    2.8812   -1.9024 H   0  0  0  0  0  0  0  0  0  0  0  0
   -0.3548    0.3323   -2.8748 C   0  0  0  0  0  0  0  0  0  0  0  0
   -0.0912   -0.6506   -2.4844 H   0  0  0  0  0  0  0  0  0  0  0  0
   -0.8307    0.2037   -3.8470 H   0  0  0  0  0  0  0  0  0  0  0  0
    0.5514    0.9272   -2.9936 H   0  0  0  0  0  0  0  0  0  0  0  0
   -0.1913    0.1554    1.7759 C   0  0  0  0  0  0  0  0  0  0  0  0
    0.9476   -0.0766    2.1748 O   0  0  0  0  0  0  0  0  0  0  0  0
   -1.1502    0.6393    2.5760 N   0  0  0  0  0  0  0  0  0  0  0  0
   -2.0581    0.8092    2.1736 H   0  0  0  0  0  0  0  0  0  0  0  0
   -0.9568    0.9369    3.9933 C   0  0  0  0  0  0  0  0  0  0  0  0
   -0.1600    1.6750    4.1097 H   0  0  0  0  0  0  0  0  0  0  0  0
   -1.8775    1.3307    4.4266 H   0  0  0  0  0  0  0  0  0  0  0  0
   -0.6678    0.0287    4.5244 H   0  0  0  0  0  0  0  0  0  0  0  0
  5  6  2  0  0  0  0
  5  7  1  0  0  0  0
  2  3  1  0  0  0  0
  2  4  1  0  0  0  0
  2  5  1  0  0  0  0
  1  2  1  0  0  0  0
 24 25  2  0  0  0  0
 24 26  1  0  0  0  0
 20 21  1  0  0  0  0
 20 22  1  0  0  0  0
 20 23  1  0  0  0  0
 16 17  1  0  0  0  0
 16 18  1  0  0  0  0
 16 19  1  0  0  0  0
 14 15  1  0  0  0  0
 14 16  1  0  0  0  0
 14 20  1  0  0  0  0
 11 12  1  0  0  0  0
 11 13  1  0  0  0  0
 11 14  1  0  0  0  0
  9 10  1  0  0  0  0
  9 11  1  0  0  0  0
  9 24  1  0  0  0  0
  7  8  1  0  0  0  0
  7  9  1  0  0  0  0
 28 29  1  0  0  0  0
 28 30  1  0  0  0  0
 28 31  1  0  0  0  0
 26 27  1  0  0  0  0
 26 28  1  0  0  0  0
M  END
$$$$
default_name
  -OEChem-02102213163D

 31 30  0     1  0  0  0  0  0999 V2000
   -3.5895   -3.5013    1.1082 H   0  0  0  0  0  0  0  0  0  0  0  0
   -3.5145   -2.5363    0.6082 C   0  0  0  0  0  0  0  0  0  0  0  0
   -4.2285   -1.8413    1.0452 H   0  0  0  0  0  0  0  0  0  0  0  0
   -3.7155   -2.6583   -0.4538 H   0  0  0  0  0  0  0  0  0  0  0  0
   -2.1155   -1.9963    0.7922 C   0  0  0  0  0  0  0  0  0  0  0  0
   -1.2875   -2.6383    1.4252 O   0  0  0  0  0  0  0  0  0  0  0  0
   -1.8575   -0.8123    0.2402 N   0  0  0  0  0  0  0  0  0  0  0  0
   -2.6005   -0.3333   -0.2478 H   0  0  0  0  0  0  0  0  0  0  0  0
   -0.5675   -0.1203    0.3102 C   0  0  1  0  0  0  0  0  0  0  0  0
    0.1932   -0.7715   -0.1219 H   0  0  0  0  0  0  0  0  0  0  0  0
   -0.6568    1.1713   -0.5294 C   0  0  0  0  0  0  0  0  0  0  0  0
   -0.9628    1.9910    0.1235 H   0  0  0  0  0  0  0  0  0  0  0  0
    0.3439    1.4012   -0.9021 H   0  0  0  0  0  0  0  0  0  0  0  0
   -1.6166    1.1229   -1.7324 C   0  0  0  0  0  0  0  0  0  0  0  0
   -2.6255    0.8936   -1.3893 H   0  0  0  0  0  0  0  0  0  0  0  0
   -1.6422    2.4438   -2.5067 C   0  0  0  0  0  0  0  0  0  0  0  0
   -0.6355    2.6955   -2.8433 H   0  0  0  0  0  0  0  0  0  0  0  0
   -2.2948    2.3480   -3.3748 H   0  0  0  0  0  0  0  0  0  0  0  0
   -2.0190    3.2493   -1.8801 H   0  0  0  0  0  0  0  0  0  0  0  0
   -1.1821    0.0187   -2.6954 C   0  0  0  0  0  0  0  0  0  0  0  0
   -1.1855   -0.9409   -2.1787 H   0  0  0  0  0  0  0  0  0  0  0  0
   -1.8761   -0.0359   -3.5342 H   0  0  0  0  0  0  0  0  0  0  0  0
   -0.1786    0.2216   -3.0713 H   0  0  0  0  0  0  0  0  0  0  0  0
   -0.1913    0.1554    1.7759 C   0  0  0  0  0  0  0  0  0  0  0  0
    0.9476   -0.0766    2.1748 O   0  0  0  0  0  0  0  0  0  0  0  0
   -1.1502    0.6393    2.5760 N   0  0  0  0  0  0  0  0  0  0  0  0
   -2.0581    0.8092    2.1736 H   0  0  0  0  0  0  0  0  0  0  0  0
   -0.9568    0.9369    3.9933 C   0  0  0  0  0  0  0  0  0  0  0  0
   -0.1600    1.6750    4.1097 H   0  0  0  0  0  0  0  0  0  0  0  0
   -1.8775    1.3307    4.4266 H   0  0  0  0  0  0  0  0  0  0  0  0
   -0.6678    0.0287    4.5244 H   0  0  0  0  0  0  0  0  0  0  0  0
  5  6  2  0  0  0  0
  5  7  1  0  0  0  0
  2  3  1  0  0  0  0
  2  4  1  0  0  0  0
  2  5  1  0  0  0  0
  1  2  1  0  0  0  0
 24 25  2  0  0  0  0
 24 26  1  0  0  0  0
 20 21  1  0  0  0  0
 20 22  1  0  0  0  0
 20 23  1  0  0  0  0
 16 17  1  0  0  0  0
 16 18  1  0  0  0  0
 16 19  1  0  0  0  0
 14 15  1  0  0  0  0
 14 16  1  0  0  0  0
 14 20  1  0  0  0  0
 11 12  1  0  0  0  0
 11 13  1  0  0  0  0
 11 14  1  0  0  0  0
  9 10  1  0  0  0  0
  9 11  1  0  0  0  0
  9 24  1  0  0  0  0
  7  8  1  0  0  0  0
  7  9  1  0  0  0  0
 28 29  1  0  0  0  0
 28 30  1  0  0  0  0
 28 31  1  0  0  0  0
 26 27  1  0  0  0  0
 26 28  1  0  0  0  0
M  END
$$$$
default_name
  -OEChem-02102213163D

 31 30  0     1  0  0  0  0  0999 V2000
   -3.5895   -3.5013    1.1082 H   0  0  0  0  0  0  0  0  0  0  0  0
   -3.5145   -2.5363    0.6082 C   0  0  0  0  0  0  0  0  0  0  0  0
   -4.2285   -1.8413    1.0452 H   0  0  0  0  0  0  0  0  0  0  0  0
   -3.7155   -2.6583   -0.4538 H   0  0  0  0  0  0  0  0  0  0  0  0
   -2.1155   -1.9963    0.7922 C   0  0  0  0  0  0  0  0  0  0  0  0
   -1.2875   -2.6383    1.4252 O   0  0  0  0  0  0  0  0  0  0  0  0
   -1.8575   -0.8123    0.2402 N   0  0  0  0  0  0  0  0  0  0  0  0
   -2.6005   -0.3333   -0.2478 H   0  0  0  0  0  0  0  0  0  0  0  0
   -0.5675   -0.1203    0.3102 C   0  0  1  0  0  0  0  0  0  0  0  0
    0.1932   -0.7715   -0.1219 H   0  0  0  0  0  0  0  0  0  0  0  0
   -0.6568    1.1713   -0.5294 C   0  0  0  0  0  0  0  0  0  0  0  0
   -0.9628    1.9910    0.1235 H   0  0  0  0  0  0  0  0  0  0  0  0
    0.3439    1.4012   -0.9021 H   0  0  0  0  0  0  0  0  0  0  0  0
   -1.6166    1.1229   -1.7324 C   0  0  0  0  0  0  0  0  0  0  0  0
   -2.6481    1.1603   -1.3820 H   0  0  0  0  0  0  0  0  0  0  0  0
   -1.3802    2.2784   -2.7091 C   0  0  0  0  0  0  0  0  0  0  0  0
   -0.3463    2.2640   -3.0567 H   0  0  0  0  0  0  0  0  0  0  0  0
   -2.0460    2.1766   -3.5664 H   0  0  0  0  0  0  0  0  0  0  0  0
   -1.5805    3.2340   -2.2294 H   0  0  0  0  0  0  0  0  0  0  0  0
   -1.4233   -0.1874   -2.4947 C   0  0  0  0  0  0  0  0  0  0  0  0
   -1.6169   -1.0299   -1.8308 H   0  0  0  0  0  0  0  0  0  0  0  0
   -2.1210   -0.2364   -3.3307 H   0  0  0  0  0  0  0  0  0  0  0  0
   -0.4028   -0.2547   -2.8732 H   0  0  0  0  0  0  0  0  0  0  0  0
   -0.1913    0.1554    1.7759 C   0  0  0  0  0  0  0  0  0  0  0  0
    0.9476   -0.0766    2.1748 O   0  0  0  0  0  0  0  0  0  0  0  0
   -1.1502    0.6393    2.5760 N   0  0  0  0  0  0  0  0  0  0  0  0
   -2.0581    0.8092    2.1736 H   0  0  0  0  0  0  0  0  0  0  0  0
   -0.9568    0.9369    3.9933 C   0  0  0  0  0  0  0  0  0  0  0  0
   -0.1600    1.6750    4.1097 H   0  0  0  0  0  0  0  0  0  0  0  0
   -1.8775    1.3307    4.4266 H   0  0  0  0  0  0  0  0  0  0  0  0
   -0.6678    0.0287    4.5244 H   0  0  0  0  0  0  0  0  0  0  0  0
  5  6  2  0  0  0  0
  5  7  1  0  0  0  0
  2  3  1  0  0  0  0
  2  4  1  0  0  0  0
  2  5  1  0  0  0  0
  1  2  1  0  0  0  0
 24 25  2  0  0  0  0
 24 26  1  0  0  0  0
 20 21  1  0  0  0  0
 20 22  1  0  0  0  0
 20 23  1  0  0  0  0
 16 17  1  0  0  0  0
 16 18  1  0  0  0  0
 16 19  1  0  0  0  0
 14 15  1  0  0  0  0
 14 16  1  0  0  0  0
 14 20  1  0  0  0  0
 11 12  1  0  0  0  0
 11 13  1  0  0  0  0
 11 14  1  0  0  0  0
  9 10  1  0  0  0  0
  9 11  1  0  0  0  0
  9 24  1  0  0  0  0
  7  8  1  0  0  0  0
  7  9  1  0  0  0  0
 28 29  1  0  0  0  0
 28 30  1  0  0  0  0
 28 31  1  0  0  0  0
 26 27  1  0  0  0  0
 26 28  1  0  0  0  0
M  END
$$$$
default_name
  -OEChem-02102213163D

 31 30  0     1  0  0  0  0  0999 V2000
   -3.5895   -3.5013    1.1082 H   0  0  0  0  0  0  0  0  0  0  0  0
   -3.5145   -2.5363    0.6082 C   0  0  0  0  0  0  0  0  0  0  0  0
   -4.2285   -1.8413    1.0452 H   0  0  0  0  0  0  0  0  0  0  0  0
   -3.7155   -2.6583   -0.4538 H   0  0  0  0  0  0  0  0  0  0  0  0
   -2.1155   -1.9963    0.7922 C   0  0  0  0  0  0  0  0  0  0  0  0
   -1.2875   -2.6383    1.4252 O   0  0  0  0  0  0  0  0  0  0  0  0
   -1.8575   -0.8123    0.2402 N   0  0  0  0  0  0  0  0  0  0  0  0
   -2.6005   -0.3333   -0.2478 H   0  0  0  0  0  0  0  0  0  0  0  0
   -0.5675   -0.1203    0.3102 C   0  0  1  0  0  0  0  0  0  0  0  0
    0.1932   -0.7715   -0.1219 H   0  0  0  0  0  0  0  0  0  0  0  0
   -0.6568    1.1713   -0.5294 C   0  0  0  0  0  0  0  0  0  0  0  0
   -0.9628    1.9910    0.1235 H   0  0  0  0  0  0  0  0  0  0  0  0
    0.3439    1.4012   -0.9021 H   0  0  0  0  0  0  0  0  0  0  0  0
   -1.6166    1.1229   -1.7324 C   0  0  0  0  0  0  0  0  0  0  0  0
   -2.6161    1.4238   -1.4182 H   0  0  0  0  0  0  0  0  0  0  0  0
   -1.1589    2.0330   -2.8758 C   0  0  0  0  0  0  0  0  0  0  0  0
   -0.1524    1.7544   -3.1909 H   0  0  0  0  0  0  0  0  0  0  0  0
   -1.8388    1.9298   -3.7218 H   0  0  0  0  0  0  0  0  0  0  0  0
   -1.1571    3.0743   -2.5608 H   0  0  0  0  0  0  0  0  0  0  0  0
   -1.6996   -0.3055   -2.2695 C   0  0  0  0  0  0  0  0  0  0  0  0
   -2.0545   -0.9725   -1.4840 H   0  0  0  0  0  0  0  0  0  0  0  0
   -2.3998   -0.3477   -3.1038 H   0  0  0  0  0  0  0  0  0  0  0  0
   -0.7172   -0.6375   -2.6070 H   0  0  0  0  0  0  0  0  0  0  0  0
   -0.1913    0.1554    1.7759 C   0  0  0  0  0  0  0  0  0  0  0  0
    0.9476   -0.0766    2.1748 O   0  0  0  0  0  0  0  0  0  0  0  0
   -1.1502    0.6393    2.5760 N   0  0  0  0  0  0  0  0  0  0  0  0
   -2.0581    0.8092    2.1736 H   0  0  0  0  0  0  0  0  0  0  0  0
   -0.9568    0.9369    3.9933 C   0  0  0  0  0  0  0  0  0  0  0  0
   -0.1600    1.6750    4.1097 H   0  0  0  0  0  0  0  0  0  0  0  0
   -1.8775    1.3307    4.4266 H   0  0  0  0  0  0  0  0  0  0  0  0
   -0.6678    0.0287    4.5244 H   0  0  0  0  0  0  0  0  0  0  0  0
  5  6  2  0  0  0  0
  5  7  1  0  0  0  0
  2  3  1  0  0  0  0
  2  4  1  0  0  0  0
  2  5  1  0  0  0  0
  1  2  1  0  0  0  0
 24 25  2  0  0  0  0
 24 26  1  0  0  0  0
 20 21  1  0  0  0  0
 20 22  1  0  0  0  0
 20 23  1  0  0  0  0
 16 17  1  0  0  0  0
 16 18  1  0  0  0  0
 16 19  1  0  0  0  0
 14 15  1  0  0  0  0
 14 16  1  0  0  0  0
 14 20  1  0  0  0  0
 11 12  1  0  0  0  0
 11 13  1  0  0  0  0
 11 14  1  0  0  0  0
  9 10  1  0  0  0  0
  9 11  1  0  0  0  0
  9 24  1  0  0  0  0
  7  8  1  0  0  0  0
  7  9  1  0  0  0  0
 28 29  1  0  0  0  0
 28 30  1  0  0  0  0
 28 31  1  0  0  0  0
 26 27  1  0  0  0  0
 26 28  1  0  0  0  0
M  END
$$$$
default_name
  -OEChem-02102213163D

 31 30  0     1  0  0  0  0  0999 V2000
   -3.5895   -3.5013    1.1082 H   0  0  0  0  0  0  0  0  0  0  0  0
   -3.5145   -2.5363    0.6082 C   0  0  0  0  0  0  0  0  0  0  0  0
   -4.2285   -1.8413    1.0452 H   0  0  0  0  0  0  0  0  0  0  0  0
   -3.7155   -2.6583   -0.4538 H   0  0  0  0  0  0  0  0  0  0  0  0
   -2.1155   -1.9963    0.7922 C   0  0  0  0  0  0  0  0  0  0  0  0
   -1.2875   -2.6383    1.4252 O   0  0  0  0  0  0  0  0  0  0  0  0
   -1.8575   -0.8123    0.2402 N   0  0  0  0  0  0  0  0  0  0  0  0
   -2.6005   -0.3333   -0.2478 H   0  0  0  0  0  0  0  0  0  0  0  0
   -0.5675   -0.1203    0.3102 C   0  0  1  0  0  0  0  0  0  0  0  0
    0.1932   -0.7715   -0.1219 H   0  0  0  0  0  0  0  0  0  0  0  0
   -0.6568    1.1713   -0.5294 C   0  0  0  0  0  0  0  0  0  0  0  0
   -0.9628    1.9910    0.1235 H   0  0  0  0  0  0  0  0  0  0  0  0
    0.3439    1.4012   -0.9021 H   0  0  0  0  0  0  0  0  0  0  0  0
   -1.6166    1.1229   -1.7324 C   0  0  0  0  0  0  0  0  0  0  0  0
   -2.5316    1.6659   -1.4954 H   0  0  0  0  0  0  0  0  0  0  0  0
   -0.9935    1.7243   -2.9954 C   0  0  0  0  0  0  0  0  0  0  0  0
   -0.0672    1.2012   -3.2367 H   0  0  0  0  0  0  0  0  0  0  0  0
   -1.6873    1.6244   -3.8304 H   0  0  0  0  0  0  0  0  0  0  0  0
   -0.7778    2.7809   -2.8516 H   0  0  0  0  0  0  0  0  0  0  0  0
   -1.9922   -0.3272   -2.0351 C   0  0  0  0  0  0  0  0  0  0  0  0
   -2.4684   -0.7727   -1.1618 H   0  0  0  0  0  0  0  0  0  0  0  0
   -2.6934   -0.3623   -2.8689 H   0  0  0  0  0  0  0  0  0  0  0  0
   -1.1004   -0.9007   -2.2905 H   0  0  0  0  0  0  0  0  0  0  0  0
   -0.1913    0.1554    1.7759 C   0  0  0  0  0  0  0  0  0  0  0  0
    0.9476   -0.0766    2.1748 O   0  0  0  0  0  0  0  0  0  0  0  0
   -1.1502    0.6393    2.5760 N   0  0  0  0  0  0  0  0  0  0  0  0
   -2.0581    0.8092    2.1736 H   0  0  0  0  0  0  0  0  0  0  0  0
   -0.9568    0.9369    3.9933 C   0  0  0  0  0  0  0  0  0  0  0  0
   -0.1600    1.6750    4.1097 H   0  0  0  0  0  0  0  0  0  0  0  0
   -1.8775    1.3307    4.4266 H   0  0  0  0  0  0  0  0  0  0  0  0
   -0.6678    0.0287    4.5244 H   0  0  0  0  0  0  0  0  0  0  0  0
  5  6  2  0  0  0  0
  5  7  1  0  0  0  0
  2  3  1  0  0  0  0
  2  4  1  0  0  0  0
  2  5  1  0  0  0  0
  1  2  1  0  0  0  0
 24 25  2  0  0  0  0
 24 26  1  0  0  0  0
 20 21  1  0  0  0  0
 20 22  1  0  0  0  0
 20 23  1  0  0  0  0
 16 17  1  0  0  0  0
 16 18  1  0  0  0  0
 16 19  1  0  0  0  0
 14 15  1  0  0  0  0
 14 16  1  0  0  0  0
 14 20  1  0  0  0  0
 11 12  1  0  0  0  0
 11 13  1  0  0  0  0
 11 14  1  0  0  0  0
  9 10  1  0  0  0  0
  9 11  1  0  0  0  0
  9 24  1  0  0  0  0
  7  8  1  0  0  0  0
  7  9  1  0  0  0  0
 28 29  1  0  0  0  0
 28 30  1  0  0  0  0
 28 31  1  0  0  0  0
 26 27  1  0  0  0  0
 26 28  1  0  0  0  0
M  END
$$$$
default_name
  -OEChem-02102213163D

 31 30  0     1  0  0  0  0  0999 V2000
   -3.5895   -3.5013    1.1082 H   0  0  0  0  0  0  0  0  0  0  0  0
   -3.5145   -2.5363    0.6082 C   0  0  0  0  0  0  0  0  0  0  0  0
   -4.2285   -1.8413    1.0452 H   0  0  0  0  0  0  0  0  0  0  0  0
   -3.7155   -2.6583   -0.4538 H   0  0  0  0  0  0  0  0  0  0  0  0
   -2.1155   -1.9963    0.7922 C   0  0  0  0  0  0  0  0  0  0  0  0
   -1.2875   -2.6383    1.4252 O   0  0  0  0  0  0  0  0  0  0  0  0
   -1.8575   -0.8123    0.2402 N   0  0  0  0  0  0  0  0  0  0  0  0
   -2.6005   -0.3333   -0.2478 H   0  0  0  0  0  0  0  0  0  0  0  0
   -0.5675   -0.1203    0.3102 C   0  0  1  0  0  0  0  0  0  0  0  0
    0.1932   -0.7715   -0.1219 H   0  0  0  0  0  0  0  0  0  0  0  0
   -0.6568    1.1713   -0.5294 C   0  0  0  0  0  0  0  0  0  0  0  0
   -0.9628    1.9910    0.1235 H   0  0  0  0  0  0  0  0  0  0  0  0
    0.3439    1.4012   -0.9021 H   0  0  0  0  0  0  0  0  0  0  0  0
   -1.6166    1.1229   -1.7324 C   0  0  0  0  0  0  0  0  0  0  0  0
   -2.4003    1.8702   -1.6083 H   0  0  0  0  0  0  0  0  0  0  0  0
   -0.8951    1.3734   -3.0597 C   0  0  0  0  0  0  0  0  0  0  0  0
   -0.0963    0.6423   -3.1909 H   0  0  0  0  0  0  0  0  0  0  0  0
   -1.6018    1.2813   -3.8848 H   0  0  0  0  0  0  0  0  0  0  0  0
   -0.4684    2.3739   -3.0821 H   0  0  0  0  0  0  0  0  0  0  0  0
   -2.2811   -0.2513   -1.8076 C   0  0  0  0  0  0  0  0  0  0  0  0
   -2.8304   -0.4440   -0.8861 H   0  0  0  0  0  0  0  0  0  0  0  0
   -2.9818   -0.2790   -2.6421 H   0  0  0  0  0  0  0  0  0  0  0  0
   -1.5264   -1.0264   -1.9455 H   0  0  0  0  0  0  0  0  0  0  0  0
   -0.1913    0.1554    1.7759 C   0  0  0  0  0  0  0  0  0  0  0  0
    0.9476   -0.0766    2.1748 O   0  0  0  0  0  0  0  0  0  0  0  0
   -1.1502    0.6393    2.5760 N   0  0  0  0  0  0  0  0  0  0  0  0
   -2.0581    0.8092    2.1736 H   0  0  0  0  0  0  0  0  0  0  0  0
   -0.9568    0.9369    3.9933 C   0  0  0  0  0  0  0  0  0  0  0  0
   -0.1600    1.6750    4.1097 H   0  0  0  0  0  0  0  0  0  0  0  0
   -1.8775    1.3307    4.4266 H   0  0  0  0  0  0  0  0  0  0  0  0
   -0.6678    0.0287    4.5244 H   0  0  0  0  0  0  0  0  0  0  0  0
  5  6  2  0  0  0  0
  5  7  1  0  0  0  0
  2  3  1  0  0  0  0
  2  4  1  0  0  0  0
  2  5  1  0  0  0  0
  1  2  1  0  0  0  0
 24 25  2  0  0  0  0
 24 26  1  0  0  0  0
 20 21  1  0  0  0  0
 20 22  1  0  0  0  0
 20 23  1  0  0  0  0
 16 17  1  0  0  0  0
 16 18  1  0  0  0  0
 16 19  1  0  0  0  0
 14 15  1  0  0  0  0
 14 16  1  0  0  0  0
 14 20  1  0  0  0  0
 11 12  1  0  0  0  0
 11 13  1  0  0  0  0
 11 14  1  0  0  0  0
  9 10  1  0  0  0  0
  9 11  1  0  0  0  0
  9 24  1  0  0  0  0
  7  8  1  0  0  0  0
  7  9  1  0  0  0  0
 28 29  1  0  0  0  0
 28 30  1  0  0  0  0
 28 31  1  0  0  0  0
 26 27  1  0  0  0  0
 26 28  1  0  0  0  0
M  END
$$$$
default_name
  -OEChem-02102213163D

 31 30  0     1  0  0  0  0  0999 V2000
   -3.5895   -3.5013    1.1082 H   0  0  0  0  0  0  0  0  0  0  0  0
   -3.5145   -2.5363    0.6082 C   0  0  0  0  0  0  0  0  0  0  0  0
   -4.2285   -1.8413    1.0452 H   0  0  0  0  0  0  0  0  0  0  0  0
   -3.7155   -2.6583   -0.4538 H   0  0  0  0  0  0  0  0  0  0  0  0
   -2.1155   -1.9963    0.7922 C   0  0  0  0  0  0  0  0  0  0  0  0
   -1.2875   -2.6383    1.4252 O   0  0  0  0  0  0  0  0  0  0  0  0
   -1.8575   -0.8123    0.2402 N   0  0  0  0  0  0  0  0  0  0  0  0
   -2.6005   -0.3333   -0.2478 H   0  0  0  0  0  0  0  0  0  0  0  0
   -0.5675   -0.1203    0.3102 C   0  0  1  0  0  0  0  0  0  0  0  0
    0.1932   -0.7715   -0.1219 H   0  0  0  0  0  0  0  0  0  0  0  0
   -0.6568    1.1713   -0.5294 C   0  0  0  0  0  0  0  0  0  0  0  0
   -0.9628    1.9910    0.1235 H   0  0  0  0  0  0  0  0  0  0  0  0
    0.3439    1.4012   -0.9021 H   0  0  0  0  0  0  0  0  0  0  0  0
   -1.6166    1.1229   -1.7324 C   0  0  0  0  0  0  0  0  0  0  0  0
   -2.2313    2.0229   -1.7493 H   0  0  0  0  0  0  0  0  0  0  0  0
   -0.8705    1.0042   -3.0645 C   0  0  0  0  0  0  0  0  0  0  0  0
   -0.2377    0.1157   -3.0568 H   0  0  0  0  0  0  0  0  0  0  0  0
   -1.5881    0.9238   -3.8813 H   0  0  0  0  0  0  0  0  0  0  0  0
   -0.2499    1.8809   -3.2366 H   0  0  0  0  0  0  0  0  0  0  0  0
   -2.5467   -0.0828   -1.6025 C   0  0  0  0  0  0  0  0  0  0  0  0
   -3.1158   -0.0088   -0.6759 H   0  0  0  0  0  0  0  0  0  0  0  0
   -3.2455   -0.1037   -2.4387 H   0  0  0  0  0  0  0  0  0  0  0  0
   -1.9661   -1.0060   -1.5955 H   0  0  0  0  0  0  0  0  0  0  0  0
   -0.1913    0.1554    1.7759 C   0  0  0  0  0  0  0  0  0  0  0  0
    0.9476   -0.0766    2.1748 O   0  0  0  0  0  0  0  0  0  0  0  0
   -1.1502    0.6393    2.5760 N   0  0  0  0  0  0  0  0  0  0  0  0
   -2.0581    0.8092    2.1736 H   0  0  0  0  0  0  0  0  0  0  0  0
   -0.9568    0.9369    3.9933 C   0  0  0  0  0  0  0  0  0  0  0  0
   -0.1600    1.6750    4.1097 H   0  0  0  0  0  0  0  0  0  0  0  0
   -1.8775    1.3307    4.4266 H   0  0  0  0  0  0  0  0  0  0  0  0
   -0.6678    0.0287    4.5244 H   0  0  0  0  0  0  0  0  0  0  0  0
  5  6  2  0  0  0  0
  5  7  1  0  0  0  0
  2  3  1  0  0  0  0
  2  4  1  0  0  0  0
  2  5  1  0  0  0  0
  1  2  1  0  0  0  0
 24 25  2  0  0  0  0
 24 26  1  0  0  0  0
 20 21  1  0  0  0  0
 20 22  1  0  0  0  0
 20 23  1  0  0  0  0
 16 17  1  0  0  0  0
 16 18  1  0  0  0  0
 16 19  1  0  0  0  0
 14 15  1  0  0  0  0
 14 16  1  0  0  0  0
 14 20  1  0  0  0  0
 11 12  1  0  0  0  0
 11 13  1  0  0  0  0
 11 14  1  0  0  0  0
  9 10  1  0  0  0  0
  9 11  1  0  0  0  0
  9 24  1  0  0  0  0
  7  8  1  0  0  0  0
  7  9  1  0  0  0  0
 28 29  1  0  0  0  0
 28 30  1  0  0  0  0
 28 31  1  0  0  0  0
 26 27  1  0  0  0  0
 26 28  1  0  0  0  0
M  END
$$$$
default_name
  -OEChem-02102213163D

 31 30  0     1  0  0  0  0  0999 V2000
   -3.5895   -3.5013    1.1082 H   0  0  0  0  0  0  0  0  0  0  0  0
   -3.5145   -2.5363    0.6082 C   0  0  0  0  0  0  0  0  0  0  0  0
   -4.2285   -1.8413    1.0452 H   0  0  0  0  0  0  0  0  0  0  0  0
   -3.7155   -2.6583   -0.4538 H   0  0  0  0  0  0  0  0  0  0  0  0
   -2.1155   -1.9963    0.7922 C   0  0  0  0  0  0  0  0  0  0  0  0
   -1.2875   -2.6383    1.4252 O   0  0  0  0  0  0  0  0  0  0  0  0
   -1.8575   -0.8123    0.2402 N   0  0  0  0  0  0  0  0  0  0  0  0
   -2.6005   -0.3333   -0.2478 H   0  0  0  0  0  0  0  0  0  0  0  0
   -0.5675   -0.1203    0.3102 C   0  0  1  0  0  0  0  0  0  0  0  0
    0.1932   -0.7715   -0.1219 H   0  0  0  0  0  0  0  0  0  0  0  0
   -0.6568    1.1713   -0.5294 C   0  0  0  0  0  0  0  0  0  0  0  0
   -0.9628    1.9910    0.1235 H   0  0  0  0  0  0  0  0  0  0  0  0
    0.3439    1.4012   -0.9021 H   0  0  0  0  0  0  0  0  0  0  0  0
   -1.6166    1.1229   -1.7324 C   0  0  0  0  0  0  0  0  0  0  0  0
   -2.0361    2.1134   -1.9088 H   0  0  0  0  0  0  0  0  0  0  0  0
   -0.9214    0.6418   -3.0093 C   0  0  0  0  0  0  0  0  0  0  0  0
   -0.4820   -0.3428   -2.8435 H   0  0  0  0  0  0  0  0  0  0  0  0
   -1.6473    0.5763   -3.8201 H   0  0  0  0  0  0  0  0  0  0  0  0
   -0.1373    1.3357   -3.3045 H   0  0  0  0  0  0  0  0  0  0  0  0
   -2.7708    0.1667   -1.4337 C   0  0  0  0  0  0  0  0  0  0  0  0
   -3.3052    0.5032   -0.5454 H   0  0  0  0  0  0  0  0  0  0  0  0
   -3.4664    0.1517   -2.2728 H   0  0  0  0  0  0  0  0  0  0  0  0
   -2.3896   -0.8409   -1.2642 H   0  0  0  0  0  0  0  0  0  0  0  0
   -0.1913    0.1554    1.7759 C   0  0  0  0  0  0  0  0  0  0  0  0
    0.9476   -0.0766    2.1748 O   0  0  0  0  0  0  0  0  0  0  0  0
   -1.1502    0.6393    2.5760 N   0  0  0  0  0  0  0  0  0  0  0  0
   -2.0581    0.8092    2.1736 H   0  0  0  0  0  0  0  0  0  0  0  0
   -0.9568    0.9369    3.9933 C   0  0  0  0  0  0  0  0  0  0  0  0
   -0.1600    1.6750    4.1097 H   0  0  0  0  0  0  0  0  0  0  0  0
   -1.8775    1.3307    4.4266 H   0  0  0  0  0  0  0  0  0  0  0  0
   -0.6678    0.0287    4.5244 H   0  0  0  0  0  0  0  0  0  0  0  0
  5  6  2  0  0  0  0
  5  7  1  0  0  0  0
  2  3  1  0  0  0  0
  2  4  1  0  0  0  0
  2  5  1  0  0  0  0
  1  2  1  0  0  0  0
 24 25  2  0  0  0  0
 24 26  1  0  0  0  0
 20 21  1  0  0  0  0
 20 22  1  0  0  0  0
 20 23  1  0  0  0  0
 16 17  1  0  0  0  0
 16 18  1  0  0  0  0
 16 19  1  0  0  0  0
 14 15  1  0  0  0  0
 14 16  1  0  0  0  0
 14 20  1  0  0  0  0
 11 12  1  0  0  0  0
 11 13  1  0  0  0  0
 11 14  1  0  0  0  0
  9 10  1  0  0  0  0
  9 11  1  0  0  0  0
  9 24  1  0  0  0  0
  7  8  1  0  0  0  0
  7  9  1  0  0  0  0
 28 29  1  0  0  0  0
 28 30  1  0  0  0  0
 28 31  1  0  0  0  0
 26 27  1  0  0  0  0
 26 28  1  0  0  0  0
M  END
$$$$
default_name
  -OEChem-02102213163D

 31 30  0     1  0  0  0  0  0999 V2000
   -3.5895   -3.5013    1.1082 H   0  0  0  0  0  0  0  0  0  0  0  0
   -3.5145   -2.5363    0.6082 C   0  0  0  0  0  0  0  0  0  0  0  0
   -4.2285   -1.8413    1.0452 H   0  0  0  0  0  0  0  0  0  0  0  0
   -3.7155   -2.6583   -0.4538 H   0  0  0  0  0  0  0  0  0  0  0  0
   -2.1155   -1.9963    0.7922 C   0  0  0  0  0  0  0  0  0  0  0  0
   -1.2875   -2.6383    1.4252 O   0  0  0  0  0  0  0  0  0  0  0  0
   -1.8575   -0.8123    0.2402 N   0  0  0  0  0  0  0  0  0  0  0  0
   -2.6005   -0.3333   -0.2478 H   0  0  0  0  0  0  0  0  0  0  0  0
   -0.5675   -0.1203    0.3102 C   0  0  1  0  0  0  0  0  0  0  0  0
    0.1932   -0.7715   -0.1219 H   0  0  0  0  0  0  0  0  0  0  0  0
   -0.6568    1.1713   -0.5294 C   0  0  0  0  0  0  0  0  0  0  0  0
   -0.9628    1.9910    0.1235 H   0  0  0  0  0  0  0  0  0  0  0  0
    0.3439    1.4012   -0.9021 H   0  0  0  0  0  0  0  0  0  0  0  0
   -1.6166    1.1229   -1.7324 C   0  0  0  0  0  0  0  0  0  0  0  0
   -1.8279    2.1356   -2.0758 H   0  0  0  0  0  0  0  0  0  0  0  0
   -1.0443    0.3110   -2.8979 C   0  0  0  0  0  0  0  0  0  0  0  0
   -0.8124   -0.7018   -2.5654 H   0  0  0  0  0  0  0  0  0  0  0  0
   -1.7751    0.2625   -3.7054 H   0  0  0  0  0  0  0  0  0  0  0  0
   -0.1382    0.7753   -3.2812 H   0  0  0  0  0  0  0  0  0  0  0  0
   -2.9382    0.4803   -1.3128 C   0  0  0  0  0  0  0  0  0  0  0  0
   -3.3857    1.0572   -0.5035 H   0  0  0  0  0  0  0  0  0  0  0  0
   -3.6294    0.4699   -2.1555 H   0  0  0  0  0  0  0  0  0  0  0  0
   -2.7679   -0.5424   -0.9744 H   0  0  0  0  0  0  0  0  0  0  0  0
   -0.1913    0.1554    1.7759 C   0  0  0  0  0  0  0  0  0  0  0  0
    0.9476   -0.0766    2.1748 O   0  0  0  0  0  0  0  0  0  0  0  0
   -1.1502    0.6393    2.5760 N   0  0  0  0  0  0  0  0  0  0  0  0
   -2.0581    0.8092    2.1736 H   0  0  0  0  0  0  0  0  0  0  0  0
   -0.9568    0.9369    3.9933 C   0  0  0  0  0  0  0  0  0  0  0  0
   -0.1600    1.6750    4.1097 H   0  0  0  0  0  0  0  0  0  0  0  0
   -1.8775    1.3307    4.4266 H   0  0  0  0  0  0  0  0  0  0  0  0
   -0.6678    0.0287    4.5244 H   0  0  0  0  0  0  0  0  0  0  0  0
  5  6  2  0  0  0  0
  5  7  1  0  0  0  0
  2  3  1  0  0  0  0
  2  4  1  0  0  0  0
  2  5  1  0  0  0  0
  1  2  1  0  0  0  0
 24 25  2  0  0  0  0
 24 26  1  0  0  0  0
 20 21  1  0  0  0  0
 20 22  1  0  0  0  0
 20 23  1  0  0  0  0
 16 17  1  0  0  0  0
 16 18  1  0  0  0  0
 16 19  1  0  0  0  0
 14 15  1  0  0  0  0
 14 16  1  0  0  0  0
 14 20  1  0  0  0  0
 11 12  1  0  0  0  0
 11 13  1  0  0  0  0
 11 14  1  0  0  0  0
  9 10  1  0  0  0  0
  9 11  1  0  0  0  0
  9 24  1  0  0  0  0
  7  8  1  0  0  0  0
  7  9  1  0  0  0  0
 28 29  1  0  0  0  0
 28 30  1  0  0  0  0
 28 31  1  0  0  0  0
 26 27  1  0  0  0  0
 26 28  1  0  0  0  0
M  END
$$$$
default_name
  -OEChem-02102213163D

 31 30  0     1  0  0  0  0  0999 V2000
   -3.5895   -3.5013    1.1082 H   0  0  0  0  0  0  0  0  0  0  0  0
   -3.5145   -2.5363    0.6082 C   0  0  0  0  0  0  0  0  0  0  0  0
   -4.2285   -1.8413    1.0452 H   0  0  0  0  0  0  0  0  0  0  0  0
   -3.7155   -2.6583   -0.4538 H   0  0  0  0  0  0  0  0  0  0  0  0
   -2.1155   -1.9963    0.7922 C   0  0  0  0  0  0  0  0  0  0  0  0
   -1.2875   -2.6383    1.4252 O   0  0  0  0  0  0  0  0  0  0  0  0
   -1.8575   -0.8123    0.2402 N   0  0  0  0  0  0  0  0  0  0  0  0
   -2.6005   -0.3333   -0.2478 H   0  0  0  0  0  0  0  0  0  0  0  0
   -0.5675   -0.1203    0.3102 C   0  0  1  0  0  0  0  0  0  0  0  0
    0.1932   -0.7715   -0.1219 H   0  0  0  0  0  0  0  0  0  0  0  0
   -0.6568    1.1713   -0.5294 C   0  0  0  0  0  0  0  0  0  0  0  0
   -0.9628    1.9910    0.1235 H   0  0  0  0  0  0  0  0  0  0  0  0
    0.3439    1.4012   -0.9021 H   0  0  0  0  0  0  0  0  0  0  0  0
   -1.6166    1.1229   -1.7324 C   0  0  0  0  0  0  0  0  0  0  0  0
   -1.6209    2.0880   -2.2390 H   0  0  0  0  0  0  0  0  0  0  0  0
   -1.2307    0.0342   -2.7379 C   0  0  0  0  0  0  0  0  0  0  0  0
   -1.2063   -0.9368   -2.2416 H   0  0  0  0  0  0  0  0  0  0  0  0
   -1.9631    0.0037   -3.5450 H   0  0  0  0  0  0  0  0  0  0  0  0
   -0.2526    0.2380   -3.1683 H   0  0  0  0  0  0  0  0  0  0  0  0
   -3.0375    0.8366   -1.2479 C   0  0  0  0  0  0  0  0  0  0  0  0
   -3.3518    1.6152   -0.5530 H   0  0  0  0  0  0  0  0  0  0  0  0
   -3.7235    0.8292   -2.0948 H   0  0  0  0  0  0  0  0  0  0  0  0
   -3.0753   -0.1307   -0.7456 H   0  0  0  0  0  0  0  0  0  0  0  0
   -0.1913    0.1554    1.7759 C   0  0  0  0  0  0  0  0  0  0  0  0
    0.9476   -0.0766    2.1748 O   0  0  0  0  0  0  0  0  0  0  0  0
   -1.1502    0.6393    2.5760 N   0  0  0  0  0  0  0  0  0  0  0  0
   -2.0581    0.8092    2.1736 H   0  0  0  0  0  0  0  0  0  0  0  0
   -0.9568    0.9369    3.9933 C   0  0  0  0  0  0  0  0  0  0  0  0
   -0.1600    1.6750    4.1097 H   0  0  0  0  0  0  0  0  0  0  0  0
   -1.8775    1.3307    4.4266 H   0  0  0  0  0  0  0  0  0  0  0  0
   -0.6678    0.0287    4.5244 H   0  0  0  0  0  0  0  0  0  0  0  0
  5  6  2  0  0  0  0
  5  7  1  0  0  0  0
  2  3  1  0  0  0  0
  2  4  1  0  0  0  0
  2  5  1  0  0  0  0
  1  2  1  0  0  0  0
 24 25  2  0  0  0  0
 24 26  1  0  0  0  0
 20 21  1  0  0  0  0
 20 22  1  0  0  0  0
 20 23  1  0  0  0  0
 16 17  1  0  0  0  0
 16 18  1  0  0  0  0
 16 19  1  0  0  0  0
 14 15  1  0  0  0  0
 14 16  1  0  0  0  0
 14 20  1  0  0  0  0
 11 12  1  0  0  0  0
 11 13  1  0  0  0  0
 11 14  1  0  0  0  0
  9 10  1  0  0  0  0
  9 11  1  0  0  0  0
  9 24  1  0  0  0  0
  7  8  1  0  0  0  0
  7  9  1  0  0  0  0
 28 29  1  0  0  0  0
 28 30  1  0  0  0  0
 28 31  1  0  0  0  0
 26 27  1  0  0  0  0
 26 28  1  0  0  0  0
M  END
$$$$
default_name
  -OEChem-02102213163D

 31 30  0     1  0  0  0  0  0999 V2000
   -3.5895   -3.5013    1.1082 H   0  0  0  0  0  0  0  0  0  0  0  0
   -3.5145   -2.5363    0.6082 C   0  0  0  0  0  0  0  0  0  0  0  0
   -4.2285   -1.8413    1.0452 H   0  0  0  0  0  0  0  0  0  0  0  0
   -3.7155   -2.6583   -0.4538 H   0  0  0  0  0  0  0  0  0  0  0  0
   -2.1155   -1.9963    0.7922 C   0  0  0  0  0  0  0  0  0  0  0  0
   -1.2875   -2.6383    1.4252 O   0  0  0  0  0  0  0  0  0  0  0  0
   -1.8575   -0.8123    0.2402 N   0  0  0  0  0  0  0  0  0  0  0  0
   -2.6005   -0.3333   -0.2478 H   0  0  0  0  0  0  0  0  0  0  0  0
   -0.5675   -0.1203    0.3102 C   0  0  1  0  0  0  0  0  0  0  0  0
    0.1932   -0.7715   -0.1219 H   0  0  0  0  0  0  0  0  0  0  0  0
   -0.6568    1.1713   -0.5294 C   0  0  0  0  0  0  0  0  0  0  0  0
   -0.9628    1.9910    0.1235 H   0  0  0  0  0  0  0  0  0  0  0  0
    0.3439    1.4012   -0.9021 H   0  0  0  0  0  0  0  0  0  0  0  0
   -1.6166    1.1229   -1.7324 C   0  0  0  0  0  0  0  0  0  0  0  0
   -1.4293    1.9738   -2.3873 H   0  0  0  0  0  0  0  0  0  0  0  0
   -1.4681   -0.1696   -2.5403 C   0  0  0  0  0  0  0  0  0  0  0  0
   -1.6370   -1.0320   -1.8940 H   0  0  0  0  0  0  0  0  0  0  0  0
   -2.1982   -0.1824   -3.3499 H   0  0  0  0  0  0  0  0  0  0  0  0
   -0.4727   -0.2397   -2.9735 H   0  0  0  0  0  0  0  0  0  0  0  0
   -3.0619    1.2112   -1.2435 C   0  0  0  0  0  0  0  0  0  0  0  0
   -3.2058    2.1395   -0.6906 H   0  0  0  0  0  0  0  0  0  0  0  0
   -3.7423    1.2050   -2.0950 H   0  0  0  0  0  0  0  0  0  0  0  0
   -3.2909    0.3660   -0.5936 H   0  0  0  0  0  0  0  0  0  0  0  0
   -0.1913    0.1554    1.7759 C   0  0  0  0  0  0  0  0  0  0  0  0
    0.9476   -0.0766    2.1748 O   0  0  0  0  0  0  0  0  0  0  0  0
   -1.1502    0.6393    2.5760 N   0  0  0  0  0  0  0  0  0  0  0  0
   -2.0581    0.8092    2.1736 H   0  0  0  0  0  0  0  0  0  0  0  0
   -0.9568    0.9369    3.9933 C   0  0  0  0  0  0  0  0  0  0  0  0
   -0.1600    1.6750    4.1097 H   0  0  0  0  0  0  0  0  0  0  0  0
   -1.8775    1.3307    4.4266 H   0  0  0  0  0  0  0  0  0  0  0  0
   -0.6678    0.0287    4.5244 H   0  0  0  0  0  0  0  0  0  0  0  0
  5  6  2  0  0  0  0
  5  7  1  0  0  0  0
  2  3  1  0  0  0  0
  2  4  1  0  0  0  0
  2  5  1  0  0  0  0
  1  2  1  0  0  0  0
 24 25  2  0  0  0  0
 24 26  1  0  0  0  0
 20 21  1  0  0  0  0
 20 22  1  0  0  0  0
 20 23  1  0  0  0  0
 16 17  1  0  0  0  0
 16 18  1  0  0  0  0
 16 19  1  0  0  0  0
 14 15  1  0  0  0  0
 14 16  1  0  0  0  0
 14 20  1  0  0  0  0
 11 12  1  0  0  0  0
 11 13  1  0  0  0  0
 11 14  1  0  0  0  0
  9 10  1  0  0  0  0
  9 11  1  0  0  0  0
  9 24  1  0  0  0  0
  7  8  1  0  0  0  0
  7  9  1  0  0  0  0
 28 29  1  0  0  0  0
 28 30  1  0  0  0  0
 28 31  1  0  0  0  0
 26 27  1  0  0  0  0
 26 28  1  0  0  0  0
M  END
$$$$
default_name
  -OEChem-02102213163D

 31 30  0     1  0  0  0  0  0999 V2000
   -3.5895   -3.5013    1.1082 H   0  0  0  0  0  0  0  0  0  0  0  0
   -3.5145   -2.5363    0.6082 C   0  0  0  0  0  0  0  0  0  0  0  0
   -4.2285   -1.8413    1.0452 H   0  0  0  0  0  0  0  0  0  0  0  0
   -3.7155   -2.6583   -0.4538 H   0  0  0  0  0  0  0  0  0  0  0  0
   -2.1155   -1.9963    0.7922 C   0  0  0  0  0  0  0  0  0  0  0  0
   -1.2875   -2.6383    1.4252 O   0  0  0  0  0  0  0  0  0  0  0  0
   -1.8575   -0.8123    0.2402 N   0  0  0  0  0  0  0  0  0  0  0  0
   -2.6005   -0.3333   -0.2478 H   0  0  0  0  0  0  0  0  0  0  0  0
   -0.5675   -0.1203    0.3102 C   0  0  1  0  0  0  0  0  0  0  0  0
    0.1932   -0.7715   -0.1219 H   0  0  0  0  0  0  0  0  0  0  0  0
   -0.6568    1.1713   -0.5294 C   0  0  0  0  0  0  0  0  0  0  0  0
   -0.9628    1.9910    0.1235 H   0  0  0  0  0  0  0  0  0  0  0  0
    0.3439    1.4012   -0.9021 H   0  0  0  0  0  0  0  0  0  0  0  0
   -1.6166    1.1229   -1.7324 C   0  0  0  0  0  0  0  0  0  0  0  0
   -1.2661    1.8009   -2.5106 H   0  0  0  0  0  0  0  0  0  0  0  0
   -1.7403   -0.2866   -2.3185 C   0  0  0  0  0  0  0  0  0  0  0  0
   -2.0751   -0.9808   -1.5465 H   0  0  0  0  0  0  0  0  0  0  0  0
   -2.4646   -0.2831   -3.1333 H   0  0  0  0  0  0  0  0  0  0  0  0
   -0.7834   -0.6251   -2.7100 H   0  0  0  0  0  0  0  0  0  0  0  0
   -3.0097    1.5788   -1.2999 C   0  0  0  0  0  0  0  0  0  0  0  0
   -2.9577    2.5941   -0.9069 H   0  0  0  0  0  0  0  0  0  0  0  0
   -3.6844    1.5718   -2.1560 H   0  0  0  0  0  0  0  0  0  0  0  0
   -3.4000    0.9139   -0.5286 H   0  0  0  0  0  0  0  0  0  0  0  0
   -0.1913    0.1554    1.7759 C   0  0  0  0  0  0  0  0  0  0  0  0
    0.9476   -0.0766    2.1748 O   0  0  0  0  0  0  0  0  0  0  0  0
   -1.1502    0.6393    2.5760 N   0  0  0  0  0  0  0  0  0  0  0  0
   -2.0581    0.8092    2.1736 H   0  0  0  0  0  0  0  0  0  0  0  0
   -0.9568    0.9369    3.9933 C   0  0  0  0  0  0  0  0  0  0  0  0
   -0.1600    1.6750    4.1097 H   0  0  0  0  0  0  0  0  0  0  0  0
   -1.8775    1.3307    4.4266 H   0  0  0  0  0  0  0  0  0  0  0  0
   -0.6678    0.0287    4.5244 H   0  0  0  0  0  0  0  0  0  0  0  0
  5  6  2  0  0  0  0
  5  7  1  0  0  0  0
  2  3  1  0  0  0  0
  2  4  1  0  0  0  0
  2  5  1  0  0  0  0
  1  2  1  0  0  0  0
 24 25  2  0  0  0  0
 24 26  1  0  0  0  0
 20 21  1  0  0  0  0
 20 22  1  0  0  0  0
 20 23  1  0  0  0  0
 16 17  1  0  0  0  0
 16 18  1  0  0  0  0
 16 19  1  0  0  0  0
 14 15  1  0  0  0  0
 14 16  1  0  0  0  0
 14 20  1  0  0  0  0
 11 12  1  0  0  0  0
 11 13  1  0  0  0  0
 11 14  1  0  0  0  0
  9 10  1  0  0  0  0
  9 11  1  0  0  0  0
  9 24  1  0  0  0  0
  7  8  1  0  0  0  0
  7  9  1  0  0  0  0
 28 29  1  0  0  0  0
 28 30  1  0  0  0  0
 28 31  1  0  0  0  0
 26 27  1  0  0  0  0
 26 28  1  0  0  0  0
M  END
$$$$
default_name
  -OEChem-02102213163D

 31 30  0     1  0  0  0  0  0999 V2000
   -3.5895   -3.5013    1.1082 H   0  0  0  0  0  0  0  0  0  0  0  0
   -3.5145   -2.5363    0.6082 C   0  0  0  0  0  0  0  0  0  0  0  0
   -4.2285   -1.8413    1.0452 H   0  0  0  0  0  0  0  0  0  0  0  0
   -3.7155   -2.6583   -0.4538 H   0  0  0  0  0  0  0  0  0  0  0  0
   -2.1155   -1.9963    0.7922 C   0  0  0  0  0  0  0  0  0  0  0  0
   -1.2875   -2.6383    1.4252 O   0  0  0  0  0  0  0  0  0  0  0  0
   -1.8575   -0.8123    0.2402 N   0  0  0  0  0  0  0  0  0  0  0  0
   -2.6005   -0.3333   -0.2478 H   0  0  0  0  0  0  0  0  0  0  0  0
   -0.5675   -0.1203    0.3102 C   0  0  1  0  0  0  0  0  0  0  0  0
    0.1932   -0.7715   -0.1219 H   0  0  0  0  0  0  0  0  0  0  0  0
   -0.6568    1.1713   -0.5294 C   0  0  0  0  0  0  0  0  0  0  0  0
   -0.9628    1.9910    0.1235 H   0  0  0  0  0  0  0  0  0  0  0  0
    0.3439    1.4012   -0.9021 H   0  0  0  0  0  0  0  0  0  0  0  0
   -1.6166    1.1229   -1.7324 C   0  0  0  0  0  0  0  0  0  0  0  0
   -1.1425    1.5809   -2.6004 H   0  0  0  0  0  0  0  0  0  0  0  0
   -2.0286   -0.3087   -2.0875 C   0  0  0  0  0  0  0  0  0  0  0  0
   -2.4908   -0.7866   -1.2226 H   0  0  0  0  0  0  0  0  0  0  0  0
   -2.7440   -0.2916   -2.9100 H   0  0  0  0  0  0  0  0  0  0  0  0
   -1.1637   -0.8921   -2.3958 H   0  0  0  0  0  0  0  0  0  0  0  0
   -2.8845    1.9141   -1.4133 C   0  0  0  0  0  0  0  0  0  0  0  0
   -2.6243    2.9481   -1.1872 H   0  0  0  0  0  0  0  0  0  0  0  0
   -3.5538    1.9045   -2.2736 H   0  0  0  0  0  0  0  0  0  0  0  0
   -3.3950    1.4756   -0.5552 H   0  0  0  0  0  0  0  0  0  0  0  0
   -0.1913    0.1554    1.7759 C   0  0  0  0  0  0  0  0  0  0  0  0
    0.9476   -0.0766    2.1748 O   0  0  0  0  0  0  0  0  0  0  0  0
   -1.1502    0.6393    2.5760 N   0  0  0  0  0  0  0  0  0  0  0  0
   -2.0581    0.8092    2.1736 H   0  0  0  0  0  0  0  0  0  0  0  0
   -0.9568    0.9369    3.9933 C   0  0  0  0  0  0  0  0  0  0  0  0
   -0.1600    1.6750    4.1097 H   0  0  0  0  0  0  0  0  0  0  0  0
   -1.8775    1.3307    4.4266 H   0  0  0  0  0  0  0  0  0  0  0  0
   -0.6678    0.0287    4.5244 H   0  0  0  0  0  0  0  0  0  0  0  0
  5  6  2  0  0  0  0
  5  7  1  0  0  0  0
  2  3  1  0  0  0  0
  2  4  1  0  0  0  0
  2  5  1  0  0  0  0
  1  2  1  0  0  0  0
 24 25  2  0  0  0  0
 24 26  1  0  0  0  0
 20 21  1  0  0  0  0
 20 22  1  0  0  0  0
 20 23  1  0  0  0  0
 16 17  1  0  0  0  0
 16 18  1  0  0  0  0
 16 19  1  0  0  0  0
 14 15  1  0  0  0  0
 14 16  1  0  0  0  0
 14 20  1  0  0  0  0
 11 12  1  0  0  0  0
 11 13  1  0  0  0  0
 11 14  1  0  0  0  0
  9 10  1  0  0  0  0
  9 11  1  0  0  0  0
  9 24  1  0  0  0  0
  7  8  1  0  0  0  0
  7  9  1  0  0  0  0
 28 29  1  0  0  0  0
 28 30  1  0  0  0  0
 28 31  1  0  0  0  0
 26 27  1  0  0  0  0
 26 28  1  0  0  0  0
M  END
$$$$
default_name
  -OEChem-02102213163D

 31 30  0     1  0  0  0  0  0999 V2000
   -3.5895   -3.5013    1.1082 H   0  0  0  0  0  0  0  0  0  0  0  0
   -3.5145   -2.5363    0.6082 C   0  0  0  0  0  0  0  0  0  0  0  0
   -4.2285   -1.8413    1.0452 H   0  0  0  0  0  0  0  0  0  0  0  0
   -3.7155   -2.6583   -0.4538 H   0  0  0  0  0  0  0  0  0  0  0  0
   -2.1155   -1.9963    0.7922 C   0  0  0  0  0  0  0  0  0  0  0  0
   -1.2875   -2.6383    1.4252 O   0  0  0  0  0  0  0  0  0  0  0  0
   -1.8575   -0.8123    0.2402 N   0  0  0  0  0  0  0  0  0  0  0  0
   -2.6005   -0.3333   -0.2478 H   0  0  0  0  0  0  0  0  0  0  0  0
   -0.5675   -0.1203    0.3102 C   0  0  1  0  0  0  0  0  0  0  0  0
    0.1932   -0.7715   -0.1219 H   0  0  0  0  0  0  0  0  0  0  0  0
   -0.6568    1.1713   -0.5294 C   0  0  0  0  0  0  0  0  0  0  0  0
   -0.9628    1.9910    0.1235 H   0  0  0  0  0  0  0  0  0  0  0  0
    0.3439    1.4012   -0.9021 H   0  0  0  0  0  0  0  0  0  0  0  0
   -1.6166    1.1229   -1.7324 C   0  0  0  0  0  0  0  0  0  0  0  0
   -1.0668    1.3290   -2.6507 H   0  0  0  0  0  0  0  0  0  0  0  0
   -2.3134   -0.2346   -1.8632 C   0  0  0  0  0  0  0  0  0  0  0  0
   -2.8556   -0.4628   -0.9445 H   0  0  0  0  0  0  0  0  0  0  0  0
   -3.0174   -0.2072   -2.6952 H   0  0  0  0  0  0  0  0  0  0  0  0
   -1.5875   -1.0224   -2.0524 H   0  0  0  0  0  0  0  0  0  0  0  0
   -2.6949    2.1945   -1.5759 C   0  0  0  0  0  0  0  0  0  0  0  0
   -2.2284    3.1775   -1.5124 H   0  0  0  0  0  0  0  0  0  0  0  0
   -3.3595    2.1805   -2.4398 H   0  0  0  0  0  0  0  0  0  0  0  0
   -3.2765    2.0129   -0.6714 H   0  0  0  0  0  0  0  0  0  0  0  0
   -0.1913    0.1554    1.7759 C   0  0  0  0  0  0  0  0  0  0  0  0
    0.9476   -0.0766    2.1748 O   0  0  0  0  0  0  0  0  0  0  0  0
   -1.1502    0.6393    2.5760 N   0  0  0  0  0  0  0  0  0  0  0  0
   -2.0581    0.8092    2.1736 H   0  0  0  0  0  0  0  0  0  0  0  0
   -0.9568    0.9369    3.9933 C   0  0  0  0  0  0  0  0  0  0  0  0
   -0.1600    1.6750    4.1097 H   0  0  0  0  0  0  0  0  0  0  0  0
   -1.8775    1.3307    4.4266 H   0  0  0  0  0  0  0  0  0  0  0  0
   -0.6678    0.0287    4.5244 H   0  0  0  0  0  0  0  0  0  0  0  0
  5  6  2  0  0  0  0
  5  7  1  0  0  0  0
  2  3  1  0  0  0  0
  2  4  1  0  0  0  0
  2  5  1  0  0  0  0
  1  2  1  0  0  0  0
 24 25  2  0  0  0  0
 24 26  1  0  0  0  0
 20 21  1  0  0  0  0
 20 22  1  0  0  0  0
 20 23  1  0  0  0  0
 16 17  1  0  0  0  0
 16 18  1  0  0  0  0
 16 19  1  0  0  0  0
 14 15  1  0  0  0  0
 14 16  1  0  0  0  0
 14 20  1  0  0  0  0
 11 12  1  0  0  0  0
 11 13  1  0  0  0  0
 11 14  1  0  0  0  0
  9 10  1  0  0  0  0
  9 11  1  0  0  0  0
  9 24  1  0  0  0  0
  7  8  1  0  0  0  0
  7  9  1  0  0  0  0
 28 29  1  0  0  0  0
 28 30  1  0  0  0  0
 28 31  1  0  0  0  0
 26 27  1  0  0  0  0
 26 28  1  0  0  0  0
M  END
$$$$
default_name
  -OEChem-02102213163D

 31 30  0     1  0  0  0  0  0999 V2000
   -3.5895   -3.5013    1.1082 H   0  0  0  0  0  0  0  0  0  0  0  0
   -3.5145   -2.5363    0.6082 C   0  0  0  0  0  0  0  0  0  0  0  0
   -4.2285   -1.8413    1.0452 H   0  0  0  0  0  0  0  0  0  0  0  0
   -3.7155   -2.6583   -0.4538 H   0  0  0  0  0  0  0  0  0  0  0  0
   -2.1155   -1.9963    0.7922 C   0  0  0  0  0  0  0  0  0  0  0  0
   -1.2875   -2.6383    1.4252 O   0  0  0  0  0  0  0  0  0  0  0  0
   -1.8575   -0.8123    0.2402 N   0  0  0  0  0  0  0  0  0  0  0  0
   -2.6005   -0.3333   -0.2478 H   0  0  0  0  0  0  0  0  0  0  0  0
   -0.5675   -0.1203    0.3102 C   0  0  1  0  0  0  0  0  0  0  0  0
    0.1932   -0.7715   -0.1219 H   0  0  0  0  0  0  0  0  0  0  0  0
   -0.6568    1.1713   -0.5294 C   0  0  0  0  0  0  0  0  0  0  0  0
   -0.9628    1.9910    0.1235 H   0  0  0  0  0  0  0  0  0  0  0  0
    0.3439    1.4012   -0.9021 H   0  0  0  0  0  0  0  0  0  0  0  0
   -1.6166    1.1229   -1.7324 C   0  0  0  0  0  0  0  0  0  0  0  0
   -1.0442    1.0622   -2.6579 H   0  0  0  0  0  0  0  0  0  0  0  0
   -2.5754   -0.0692   -1.6608 C   0  0  0  0  0  0  0  0  0  0  0  0
   -3.1449   -0.0313   -0.7311 H   0  0  0  0  0  0  0  0  0  0  0  0
   -3.2662   -0.0358   -2.5036 H   0  0  0  0  0  0  0  0  0  0  0  0
   -2.0260   -1.0072   -1.7030 H   0  0  0  0  0  0  0  0  0  0  0  0
   -2.4537    2.4007   -1.7767 C   0  0  0  0  0  0  0  0  0  0  0  0
   -1.7969    3.2665   -1.8602 H   0  0  0  0  0  0  0  0  0  0  0  0
   -3.1146    2.3810   -2.6433 H   0  0  0  0  0  0  0  0  0  0  0  0
   -3.0524    2.4892   -0.8695 H   0  0  0  0  0  0  0  0  0  0  0  0
   -0.1913    0.1554    1.7759 C   0  0  0  0  0  0  0  0  0  0  0  0
    0.9476   -0.0766    2.1748 O   0  0  0  0  0  0  0  0  0  0  0  0
   -1.1502    0.6393    2.5760 N   0  0  0  0  0  0  0  0  0  0  0  0
   -2.0581    0.8092    2.1736 H   0  0  0  0  0  0  0  0  0  0  0  0
   -0.9568    0.9369    3.9933 C   0  0  0  0  0  0  0  0  0  0  0  0
   -0.1600    1.6750    4.1097 H   0  0  0  0  0  0  0  0  0  0  0  0
   -1.8775    1.3307    4.4266 H   0  0  0  0  0  0  0  0  0  0  0  0
   -0.6678    0.0287    4.5244 H   0  0  0  0  0  0  0  0  0  0  0  0
  5  6  2  0  0  0  0
  5  7  1  0  0  0  0
  2  3  1  0  0  0  0
  2  4  1  0  0  0  0
  2  5  1  0  0  0  0
  1  2  1  0  0  0  0
 24 25  2  0  0  0  0
 24 26  1  0  0  0  0
 20 21  1  0  0  0  0
 20 22  1  0  0  0  0
 20 23  1  0  0  0  0
 16 17  1  0  0  0  0
 16 18  1  0  0  0  0
 16 19  1  0  0  0  0
 14 15  1  0  0  0  0
 14 16  1  0  0  0  0
 14 20  1  0  0  0  0
 11 12  1  0  0  0  0
 11 13  1  0  0  0  0
 11 14  1  0  0  0  0
  9 10  1  0  0  0  0
  9 11  1  0  0  0  0
  9 24  1  0  0  0  0
  7  8  1  0  0  0  0
  7  9  1  0  0  0  0
 28 29  1  0  0  0  0
 28 30  1  0  0  0  0
 28 31  1  0  0  0  0
 26 27  1  0  0  0  0
 26 28  1  0  0  0  0
M  END
$$$$
default_name
  -OEChem-02102213163D

 31 30  0     1  0  0  0  0  0999 V2000
   -3.5895   -3.5013    1.1082 H   0  0  0  0  0  0  0  0  0  0  0  0
   -3.5145   -2.5363    0.6082 C   0  0  0  0  0  0  0  0  0  0  0  0
   -4.2285   -1.8413    1.0452 H   0  0  0  0  0  0  0  0  0  0  0  0
   -3.7155   -2.6583   -0.4538 H   0  0  0  0  0  0  0  0  0  0  0  0
   -2.1155   -1.9963    0.7922 C   0  0  0  0  0  0  0  0  0  0  0  0
   -1.2875   -2.6383    1.4252 O   0  0  0  0  0  0  0  0  0  0  0  0
   -1.8575   -0.8123    0.2402 N   0  0  0  0  0  0  0  0  0  0  0  0
   -2.6005   -0.3333   -0.2478 H   0  0  0  0  0  0  0  0  0  0  0  0
   -0.5675   -0.1203    0.3102 C   0  0  1  0  0  0  0  0  0  0  0  0
    0.1932   -0.7715   -0.1219 H   0  0  0  0  0  0  0  0  0  0  0  0
   -0.6568    1.1713   -0.5294 C   0  0  0  0  0  0  0  0  0  0  0  0
   -0.9628    1.9910    0.1235 H   0  0  0  0  0  0  0  0  0  0  0  0
    0.3439    1.4012   -0.9021 H   0  0  0  0  0  0  0  0  0  0  0  0
   -1.6166    1.1229   -1.7324 C   0  0  0  0  0  0  0  0  0  0  0  0
   -1.0762    0.7988   -2.6218 H   0  0  0  0  0  0  0  0  0  0  0  0
   -2.7967    0.1762   -1.4941 C   0  0  0  0  0  0  0  0  0  0  0  0
   -3.3387    0.4783   -0.5970 H   0  0  0  0  0  0  0  0  0  0  0  0
   -3.4734    0.2110   -2.3482 H   0  0  0  0  0  0  0  0  0  0  0  0
   -2.4494   -0.8474   -1.3717 H   0  0  0  0  0  0  0  0  0  0  0  0
   -2.1774    2.5187   -2.0019 C   0  0  0  0  0  0  0  0  0  0  0  0
   -1.3594    3.2091   -2.2071 H   0  0  0  0  0  0  0  0  0  0  0  0
   -2.8358    2.4924   -2.8702 H   0  0  0  0  0  0  0  0  0  0  0  0
   -2.7380    2.8720   -1.1358 H   0  0  0  0  0  0  0  0  0  0  0  0
   -0.1913    0.1554    1.7759 C   0  0  0  0  0  0  0  0  0  0  0  0
    0.9476   -0.0766    2.1748 O   0  0  0  0  0  0  0  0  0  0  0  0
   -1.1502    0.6393    2.5760 N   0  0  0  0  0  0  0  0  0  0  0  0
   -2.0581    0.8092    2.1736 H   0  0  0  0  0  0  0  0  0  0  0  0
   -0.9568    0.9369    3.9933 C   0  0  0  0  0  0  0  0  0  0  0  0
   -0.1600    1.6750    4.1097 H   0  0  0  0  0  0  0  0  0  0  0  0
   -1.8775    1.3307    4.4266 H   0  0  0  0  0  0  0  0  0  0  0  0
   -0.6678    0.0287    4.5244 H   0  0  0  0  0  0  0  0  0  0  0  0
  5  6  2  0  0  0  0
  5  7  1  0  0  0  0
  2  3  1  0  0  0  0
  2  4  1  0  0  0  0
  2  5  1  0  0  0  0
  1  2  1  0  0  0  0
 24 25  2  0  0  0  0
 24 26  1  0  0  0  0
 20 21  1  0  0  0  0
 20 22  1  0  0  0  0
 20 23  1  0  0  0  0
 16 17  1  0  0  0  0
 16 18  1  0  0  0  0
 16 19  1  0  0  0  0
 14 15  1  0  0  0  0
 14 16  1  0  0  0  0
 14 20  1  0  0  0  0
 11 12  1  0  0  0  0
 11 13  1  0  0  0  0
 11 14  1  0  0  0  0
  9 10  1  0  0  0  0
  9 11  1  0  0  0  0
  9 24  1  0  0  0  0
  7  8  1  0  0  0  0
  7  9  1  0  0  0  0
 28 29  1  0  0  0  0
 28 30  1  0  0  0  0
 28 31  1  0  0  0  0
 26 27  1  0  0  0  0
 26 28  1  0  0  0  0
M  END
$$$$
default_name
  -OEChem-02102213163D

 31 30  0     1  0  0  0  0  0999 V2000
   -3.5895   -3.5013    1.1082 H   0  0  0  0  0  0  0  0  0  0  0  0
   -3.5145   -2.5363    0.6082 C   0  0  0  0  0  0  0  0  0  0  0  0
   -4.2285   -1.8413    1.0452 H   0  0  0  0  0  0  0  0  0  0  0  0
   -3.7155   -2.6583   -0.4538 H   0  0  0  0  0  0  0  0  0  0  0  0
   -2.1155   -1.9963    0.7922 C   0  0  0  0  0  0  0  0  0  0  0  0
   -1.2875   -2.6383    1.4252 O   0  0  0  0  0  0  0  0  0  0  0  0
   -1.8575   -0.8123    0.2402 N   0  0  0  0  0  0  0  0  0  0  0  0
   -2.6005   -0.3333   -0.2478 H   0  0  0  0  0  0  0  0  0  0  0  0
   -0.5675   -0.1203    0.3102 C   0  0  1  0  0  0  0  0  0  0  0  0
    0.1932   -0.7715   -0.1219 H   0  0  0  0  0  0  0  0  0  0  0  0
   -0.6568    1.1713   -0.5294 C   0  0  0  0  0  0  0  0  0  0  0  0
   -0.9628    1.9910    0.1235 H   0  0  0  0  0  0  0  0  0  0  0  0
    0.3439    1.4012   -0.9021 H   0  0  0  0  0  0  0  0  0  0  0  0
   -1.6166    1.1229   -1.7324 C   0  0  0  0  0  0  0  0  0  0  0  0
   -1.1607    0.5566   -2.5446 H   0  0  0  0  0  0  0  0  0  0  0  0
   -2.9621    0.4849   -1.3745 C   0  0  0  0  0  0  0  0  0  0  0  0
   -3.4240    1.0315   -0.5512 H   0  0  0  0  0  0  0  0  0  0  0  0
   -3.6249    0.5163   -2.2396 H   0  0  0  0  0  0  0  0  0  0  0  0
   -2.8287   -0.5540   -1.0808 H   0  0  0  0  0  0  0  0  0  0  0  0
   -1.8848    2.5404   -2.2363 C   0  0  0  0  0  0  0  0  0  0  0  0
   -0.9455    3.0093   -2.5293 H   0  0  0  0  0  0  0  0  0  0  0  0
   -2.5422    2.5069   -3.1051 H   0  0  0  0  0  0  0  0  0  0  0  0
   -2.3547    3.1352   -1.4522 H   0  0  0  0  0  0  0  0  0  0  0  0
   -0.1913    0.1554    1.7759 C   0  0  0  0  0  0  0  0  0  0  0  0
    0.9476   -0.0766    2.1748 O   0  0  0  0  0  0  0  0  0  0  0  0
   -1.1502    0.6393    2.5760 N   0  0  0  0  0  0  0  0  0  0  0  0
   -2.0581    0.8092    2.1736 H   0  0  0  0  0  0  0  0  0  0  0  0
   -0.9568    0.9369    3.9933 C   0  0  0  0  0  0  0  0  0  0  0  0
   -0.1600    1.6750    4.1097 H   0  0  0  0  0  0  0  0  0  0  0  0
   -1.8775    1.3307    4.4266 H   0  0  0  0  0  0  0  0  0  0  0  0
   -0.6678    0.0287    4.5244 H   0  0  0  0  0  0  0  0  0  0  0  0
  5  6  2  0  0  0  0
  5  7  1  0  0  0  0
  2  3  1  0  0  0  0
  2  4  1  0  0  0  0
  2  5  1  0  0  0  0
  1  2  1  0  0  0  0
 24 25  2  0  0  0  0
 24 26  1  0  0  0  0
 20 21  1  0  0  0  0
 20 22  1  0  0  0  0
 20 23  1  0  0  0  0
 16 17  1  0  0  0  0
 16 18  1  0  0  0  0
 16 19  1  0  0  0  0
 14 15  1  0  0  0  0
 14 16  1  0  0  0  0
 14 20  1  0  0  0  0
 11 12  1  0  0  0  0
 11 13  1  0  0  0  0
 11 14  1  0  0  0  0
  9 10  1  0  0  0  0
  9 11  1  0  0  0  0
  9 24  1  0  0  0  0
  7  8  1  0  0  0  0
  7  9  1  0  0  0  0
 28 29  1  0  0  0  0
 28 30  1  0  0  0  0
 28 31  1  0  0  0  0
 26 27  1  0  0  0  0
 26 28  1  0  0  0  0
M  END
$$$$
default_name
  -OEChem-02102213163D

 31 30  0     1  0  0  0  0  0999 V2000
   -3.5895   -3.5013    1.1082 H   0  0  0  0  0  0  0  0  0  0  0  0
   -3.5145   -2.5363    0.6082 C   0  0  0  0  0  0  0  0  0  0  0  0
   -4.2285   -1.8413    1.0452 H   0  0  0  0  0  0  0  0  0  0  0  0
   -3.7155   -2.6583   -0.4538 H   0  0  0  0  0  0  0  0  0  0  0  0
   -2.1155   -1.9963    0.7922 C   0  0  0  0  0  0  0  0  0  0  0  0
   -1.2875   -2.6383    1.4252 O   0  0  0  0  0  0  0  0  0  0  0  0
   -1.8575   -0.8123    0.2402 N   0  0  0  0  0  0  0  0  0  0  0  0
   -2.6005   -0.3333   -0.2478 H   0  0  0  0  0  0  0  0  0  0  0  0
   -0.5675   -0.1203    0.3102 C   0  0  1  0  0  0  0  0  0  0  0  0
    0.1932   -0.7715   -0.1219 H   0  0  0  0  0  0  0  0  0  0  0  0
   -0.6568    1.1713   -0.5294 C   0  0  0  0  0  0  0  0  0  0  0  0
   -0.9628    1.9910    0.1235 H   0  0  0  0  0  0  0  0  0  0  0  0
    0.3439    1.4012   -0.9021 H   0  0  0  0  0  0  0  0  0  0  0  0
   -1.6166    1.1229   -1.7324 C   0  0  0  0  0  0  0  0  0  0  0  0
   -1.2920    0.3523   -2.4316 H   0  0  0  0  0  0  0  0  0  0  0  0
   -3.0605    0.8358   -1.3102 C   0  0  0  0  0  0  0  0  0  0  0  0
   -3.3949    1.5904   -0.5969 H   0  0  0  0  0  0  0  0  0  0  0  0
   -3.7104    0.8595   -2.1852 H   0  0  0  0  0  0  0  0  0  0  0  0
   -3.1381   -0.1470   -0.8503 H   0  0  0  0  0  0  0  0  0  0  0  0
   -1.5959    2.4645   -2.4638 C   0  0  0  0  0  0  0  0  0  0  0  0
   -0.5835    2.6806   -2.8049 H   0  0  0  0  0  0  0  0  0  0  0  0
   -2.2537    2.4237   -3.3319 H   0  0  0  0  0  0  0  0  0  0  0  0
   -1.9287    3.2609   -1.7972 H   0  0  0  0  0  0  0  0  0  0  0  0
   -0.1913    0.1554    1.7759 C   0  0  0  0  0  0  0  0  0  0  0  0
    0.9476   -0.0766    2.1748 O   0  0  0  0  0  0  0  0  0  0  0  0
   -1.1502    0.6393    2.5760 N   0  0  0  0  0  0  0  0  0  0  0  0
   -2.0581    0.8092    2.1736 H   0  0  0  0  0  0  0  0  0  0  0  0
   -0.9568    0.9369    3.9933 C   0  0  0  0  0  0  0  0  0  0  0  0
   -0.1600    1.6750    4.1097 H   0  0  0  0  0  0  0  0  0  0  0  0
   -1.8775    1.3307    4.4266 H   0  0  0  0  0  0  0  0  0  0  0  0
   -0.6678    0.0287    4.5244 H   0  0  0  0  0  0  0  0  0  0  0  0
  5  6  2  0  0  0  0
  5  7  1  0  0  0  0
  2  3  1  0  0  0  0
  2  4  1  0  0  0  0
  2  5  1  0  0  0  0
  1  2  1  0  0  0  0
 24 25  2  0  0  0  0
 24 26  1  0  0  0  0
 20 21  1  0  0  0  0
 20 22  1  0  0  0  0
 20 23  1  0  0  0  0
 16 17  1  0  0  0  0
 16 18  1  0  0  0  0
 16 19  1  0  0  0  0
 14 15  1  0  0  0  0
 14 16  1  0  0  0  0
 14 20  1  0  0  0  0
 11 12  1  0  0  0  0
 11 13  1  0  0  0  0
 11 14  1  0  0  0  0
  9 10  1  0  0  0  0
  9 11  1  0  0  0  0
  9 24  1  0  0  0  0
  7  8  1  0  0  0  0
  7  9  1  0  0  0  0
 28 29  1  0  0  0  0
 28 30  1  0  0  0  0
 28 31  1  0  0  0  0
 26 27  1  0  0  0  0
 26 28  1  0  0  0  0
M  END
$$$$
default_name
  -OEChem-02102213163D

 31 30  0     1  0  0  0  0  0999 V2000
   -3.5895   -3.5013    1.1082 H   0  0  0  0  0  0  0  0  0  0  0  0
   -3.5145   -2.5363    0.6082 C   0  0  0  0  0  0  0  0  0  0  0  0
   -4.2285   -1.8413    1.0452 H   0  0  0  0  0  0  0  0  0  0  0  0
   -3.7155   -2.6583   -0.4538 H   0  0  0  0  0  0  0  0  0  0  0  0
   -2.1155   -1.9963    0.7922 C   0  0  0  0  0  0  0  0  0  0  0  0
   -1.2875   -2.6383    1.4252 O   0  0  0  0  0  0  0  0  0  0  0  0
   -1.8575   -0.8123    0.2402 N   0  0  0  0  0  0  0  0  0  0  0  0
   -2.6005   -0.3333   -0.2478 H   0  0  0  0  0  0  0  0  0  0  0  0
   -0.5675   -0.1203    0.3102 C   0  0  1  0  0  0  0  0  0  0  0  0
    0.1932   -0.7715   -0.1219 H   0  0  0  0  0  0  0  0  0  0  0  0
   -0.6568    1.1713   -0.5294 C   0  0  0  0  0  0  0  0  0  0  0  0
   -0.9628    1.9910    0.1235 H   0  0  0  0  0  0  0  0  0  0  0  0
    0.3439    1.4012   -0.9021 H   0  0  0  0  0  0  0  0  0  0  0  0
   -1.6166    1.1229   -1.7324 C   0  0  0  0  0  0  0  0  0  0  0  0
   -1.4610    0.1997   -2.2906 H   0  0  0  0  0  0  0  0  0  0  0  0
   -3.0851    1.2050   -1.3054 C   0  0  0  0  0  0  0  0  0  0  0  0
   -3.2534    2.1170   -0.7310 H   0  0  0  0  0  0  0  0  0  0  0  0
   -3.7241    1.2170   -2.1887 H   0  0  0  0  0  0  0  0  0  0  0  0
   -3.3566    0.3459   -0.6958 H   0  0  0  0  0  0  0  0  0  0  0  0
   -1.3303    2.2960   -2.6689 C   0  0  0  0  0  0  0  0  0  0  0  0
   -0.2981    2.2454   -3.0151 H   0  0  0  0  0  0  0  0  0  0  0  0
   -1.9901    2.2484   -3.5352 H   0  0  0  0  0  0  0  0  0  0  0  0
   -1.4890    3.2405   -2.1472 H   0  0  0  0  0  0  0  0  0  0  0  0
   -0.1913    0.1554    1.7759 C   0  0  0  0  0  0  0  0  0  0  0  0
    0.9476   -0.0766    2.1748 O   0  0  0  0  0  0  0  0  0  0  0  0
   -1.1502    0.6393    2.5760 N   0  0  0  0  0  0  0  0  0  0  0  0
   -2.0581    0.8092    2.1736 H   0  0  0  0  0  0  0  0  0  0  0  0
   -0.9568    0.9369    3.9933 C   0  0  0  0  0  0  0  0  0  0  0  0
   -0.1600    1.6750    4.1097 H   0  0  0  0  0  0  0  0  0  0  0  0
   -1.8775    1.3307    4.4266 H   0  0  0  0  0  0  0  0  0  0  0  0
   -0.6678    0.0287    4.5244 H   0  0  0  0  0  0  0  0  0  0  0  0
  5  6  2  0  0  0  0
  5  7  1  0  0  0  0
  2  3  1  0  0  0  0
  2  4  1  0  0  0  0
  2  5  1  0  0  0  0
  1  2  1  0  0  0  0
 24 25  2  0  0  0  0
 24 26  1  0  0  0  0
 20 21  1  0  0  0  0
 20 22  1  0  0  0  0
 20 23  1  0  0  0  0
 16 17  1  0  0  0  0
 16 18  1  0  0  0  0
 16 19  1  0  0  0  0
 14 15  1  0  0  0  0
 14 16  1  0  0  0  0
 14 20  1  0  0  0  0
 11 12  1  0  0  0  0
 11 13  1  0  0  0  0
 11 14  1  0  0  0  0
  9 10  1  0  0  0  0
  9 11  1  0  0  0  0
  9 24  1  0  0  0  0
  7  8  1  0  0  0  0
  7  9  1  0  0  0  0
 28 29  1  0  0  0  0
 28 30  1  0  0  0  0
 28 31  1  0  0  0  0
 26 27  1  0  0  0  0
 26 28  1  0  0  0  0
M  END
$$$$
default_name
  -OEChem-02102213163D

 31 30  0     1  0  0  0  0  0999 V2000
   -3.5895   -3.5013    1.1082 H   0  0  0  0  0  0  0  0  0  0  0  0
   -3.5145   -2.5363    0.6082 C   0  0  0  0  0  0  0  0  0  0  0  0
   -4.2285   -1.8413    1.0452 H   0  0  0  0  0  0  0  0  0  0  0  0
   -3.7155   -2.6583   -0.4538 H   0  0  0  0  0  0  0  0  0  0  0  0
   -2.1155   -1.9963    0.7922 C   0  0  0  0  0  0  0  0  0  0  0  0
   -1.2875   -2.6383    1.4252 O   0  0  0  0  0  0  0  0  0  0  0  0
   -1.8575   -0.8123    0.2402 N   0  0  0  0  0  0  0  0  0  0  0  0
   -2.6005   -0.3333   -0.2478 H   0  0  0  0  0  0  0  0  0  0  0  0
   -0.5675   -0.1203    0.3102 C   0  0  1  0  0  0  0  0  0  0  0  0
    0.1932   -0.7715   -0.1219 H   0  0  0  0  0  0  0  0  0  0  0  0
   -0.6568    1.1713   -0.5294 C   0  0  0  0  0  0  0  0  0  0  0  0
   -0.9628    1.9910    0.1235 H   0  0  0  0  0  0  0  0  0  0  0  0
    0.3439    1.4012   -0.9021 H   0  0  0  0  0  0  0  0  0  0  0  0
   -1.6166    1.1229   -1.7324 C   0  0  0  0  0  0  0  0  0  0  0  0
   -1.6562    0.1092   -2.1312 H   0  0  0  0  0  0  0  0  0  0  0  0
   -3.0342    1.5674   -1.3606 C   0  0  0  0  0  0  0  0  0  0  0  0
   -3.0092    2.5755   -0.9444 H   0  0  0  0  0  0  0  0  0  0  0  0
   -3.6649    1.5645   -2.2499 H   0  0  0  0  0  0  0  0  0  0  0  0
   -3.4692    0.8912   -0.6279 H   0  0  0  0  0  0  0  0  0  0  0  0
   -1.1062    2.0465   -2.8377 C   0  0  0  0  0  0  0  0  0  0  0  0
   -0.1087    1.7334   -3.1457 H   0  0  0  0  0  0  0  0  0  0  0  0
   -1.7692    1.9929   -3.7012 H   0  0  0  0  0  0  0  0  0  0  0  0
   -1.0656    3.0754   -2.4785 H   0  0  0  0  0  0  0  0  0  0  0  0
   -0.1913    0.1554    1.7759 C   0  0  0  0  0  0  0  0  0  0  0  0
    0.9476   -0.0766    2.1748 O   0  0  0  0  0  0  0  0  0  0  0  0
   -1.1502    0.6393    2.5760 N   0  0  0  0  0  0  0  0  0  0  0  0
   -2.0581    0.8092    2.1736 H   0  0  0  0  0  0  0  0  0  0  0  0
   -0.9568    0.9369    3.9933 C   0  0  0  0  0  0  0  0  0  0  0  0
   -0.1600    1.6750    4.1097 H   0  0  0  0  0  0  0  0  0  0  0  0
   -1.8775    1.3307    4.4266 H   0  0  0  0  0  0  0  0  0  0  0  0
   -0.6678    0.0287    4.5244 H   0  0  0  0  0  0  0  0  0  0  0  0
  5  6  2  0  0  0  0
  5  7  1  0  0  0  0
  2  3  1  0  0  0  0
  2  4  1  0  0  0  0
  2  5  1  0  0  0  0
  1  2  1  0  0  0  0
 24 25  2  0  0  0  0
 24 26  1  0  0  0  0
 20 21  1  0  0  0  0
 20 22  1  0  0  0  0
 20 23  1  0  0  0  0
 16 17  1  0  0  0  0
 16 18  1  0  0  0  0
 16 19  1  0  0  0  0
 14 15  1  0  0  0  0
 14 16  1  0  0  0  0
 14 20  1  0  0  0  0
 11 12  1  0  0  0  0
 11 13  1  0  0  0  0
 11 14  1  0  0  0  0
  9 10  1  0  0  0  0
  9 11  1  0  0  0  0
  9 24  1  0  0  0  0
  7  8  1  0  0  0  0
  7  9  1  0  0  0  0
 28 29  1  0  0  0  0
 28 30  1  0  0  0  0
 28 31  1  0  0  0  0
 26 27  1  0  0  0  0
 26 28  1  0  0  0  0
M  END
$$$$
default_name
  -OEChem-02102213163D

 31 30  0     1  0  0  0  0  0999 V2000
   -3.5895   -3.5013    1.1082 H   0  0  0  0  0  0  0  0  0  0  0  0
   -3.5145   -2.5363    0.6082 C   0  0  0  0  0  0  0  0  0  0  0  0
   -4.2285   -1.8413    1.0452 H   0  0  0  0  0  0  0  0  0  0  0  0
   -3.7155   -2.6583   -0.4538 H   0  0  0  0  0  0  0  0  0  0  0  0
   -2.1155   -1.9963    0.7922 C   0  0  0  0  0  0  0  0  0  0  0  0
   -1.2875   -2.6383    1.4252 O   0  0  0  0  0  0  0  0  0  0  0  0
   -1.8575   -0.8123    0.2402 N   0  0  0  0  0  0  0  0  0  0  0  0
   -2.6005   -0.3333   -0.2478 H   0  0  0  0  0  0  0  0  0  0  0  0
   -0.5675   -0.1203    0.3102 C   0  0  1  0  0  0  0  0  0  0  0  0
    0.1932   -0.7715   -0.1219 H   0  0  0  0  0  0  0  0  0  0  0  0
   -0.6568    1.1713   -0.5294 C   0  0  0  0  0  0  0  0  0  0  0  0
   -0.9628    1.9910    0.1235 H   0  0  0  0  0  0  0  0  0  0  0  0
    0.3439    1.4012   -0.9021 H   0  0  0  0  0  0  0  0  0  0  0  0
   -1.6166    1.1229   -1.7324 C   0  0  0  0  0  0  0  0  0  0  0  0
   -1.8644    0.0870   -1.9641 H   0  0  0  0  0  0  0  0  0  0  0  0
   -2.9113    1.8983   -1.4720 C   0  0  0  0  0  0  0  0  0  0  0  0
   -2.6788    2.9344   -1.2225 H   0  0  0  0  0  0  0  0  0  0  0  0
   -3.5371    1.8783   -2.3646 H   0  0  0  0  0  0  0  0  0  0  0  0
   -3.4683    1.4515   -0.6512 H   0  0  0  0  0  0  0  0  0  0  0  0
   -0.9388    1.7329   -2.9586 C   0  0  0  0  0  0  0  0  0  0  0  0
   -0.0282    1.1794   -3.1876 H   0  0  0  0  0  0  0  0  0  0  0  0
   -1.6062    1.6747   -3.8185 H   0  0  0  0  0  0  0  0  0  0  0  0
   -0.6872    2.7769   -2.7684 H   0  0  0  0  0  0  0  0  0  0  0  0
   -0.1913    0.1554    1.7759 C   0  0  0  0  0  0  0  0  0  0  0  0
    0.9476   -0.0766    2.1748 O   0  0  0  0  0  0  0  0  0  0  0  0
   -1.1502    0.6393    2.5760 N   0  0  0  0  0  0  0  0  0  0  0  0
   -2.0581    0.8092    2.1736 H   0  0  0  0  0  0  0  0  0  0  0  0
   -0.9568    0.9369    3.9933 C   0  0  0  0  0  0  0  0  0  0  0  0
   -0.1600    1.6750    4.1097 H   0  0  0  0  0  0  0  0  0  0  0  0
   -1.8775    1.3307    4.4266 H   0  0  0  0  0  0  0  0  0  0  0  0
   -0.6678    0.0287    4.5244 H   0  0  0  0  0  0  0  0  0  0  0  0
  5  6  2  0  0  0  0
  5  7  1  0  0  0  0
  2  3  1  0  0  0  0
  2  4  1  0  0  0  0
  2  5  1  0  0  0  0
  1  2  1  0  0  0  0
 24 25  2  0  0  0  0
 24 26  1  0  0  0  0
 20 21  1  0  0  0  0
 20 22  1  0  0  0  0
 20 23  1  0  0  0  0
 16 17  1  0  0  0  0
 16 18  1  0  0  0  0
 16 19  1  0  0  0  0
 14 15  1  0  0  0  0
 14 16  1  0  0  0  0
 14 20  1  0  0  0  0
 11 12  1  0  0  0  0
 11 13  1  0  0  0  0
 11 14  1  0  0  0  0
  9 10  1  0  0  0  0
  9 11  1  0  0  0  0
  9 24  1  0  0  0  0
  7  8  1  0  0  0  0
  7  9  1  0  0  0  0
 28 29  1  0  0  0  0
 28 30  1  0  0  0  0
 28 31  1  0  0  0  0
 26 27  1  0  0  0  0
 26 28  1  0  0  0  0
M  END
$$$$
default_name
  -OEChem-02102213163D

 31 30  0     1  0  0  0  0  0999 V2000
   -3.5895   -3.5013    1.1082 H   0  0  0  0  0  0  0  0  0  0  0  0
   -3.5145   -2.5363    0.6082 C   0  0  0  0  0  0  0  0  0  0  0  0
   -4.2285   -1.8413    1.0452 H   0  0  0  0  0  0  0  0  0  0  0  0
   -3.7155   -2.6583   -0.4538 H   0  0  0  0  0  0  0  0  0  0  0  0
   -2.1155   -1.9963    0.7922 C   0  0  0  0  0  0  0  0  0  0  0  0
   -1.2875   -2.6383    1.4252 O   0  0  0  0  0  0  0  0  0  0  0  0
   -1.8575   -0.8123    0.2402 N   0  0  0  0  0  0  0  0  0  0  0  0
   -2.6005   -0.3333   -0.2478 H   0  0  0  0  0  0  0  0  0  0  0  0
   -0.5675   -0.1203    0.3102 C   0  0  1  0  0  0  0  0  0  0  0  0
    0.1932   -0.7715   -0.1219 H   0  0  0  0  0  0  0  0  0  0  0  0
   -0.6568    1.1713   -0.5294 C   0  0  0  0  0  0  0  0  0  0  0  0
   -0.9628    1.9910    0.1235 H   0  0  0  0  0  0  0  0  0  0  0  0
    0.3439    1.4012   -0.9021 H   0  0  0  0  0  0  0  0  0  0  0  0
   -1.6166    1.1229   -1.7324 C   0  0  0  0  0  0  0  0  0  0  0  0
   -2.0713    0.1346   -1.8009 H   0  0  0  0  0  0  0  0  0  0  0  0
   -2.7248    2.1750   -1.6319 C   0  0  0  0  0  0  0  0  0  0  0  0
   -2.2848    3.1695   -1.5463 H   0  0  0  0  0  0  0  0  0  0  0  0
   -3.3491    2.1371   -2.5249 H   0  0  0  0  0  0  0  0  0  0  0  0
   -3.3539    1.9889   -0.7641 H   0  0  0  0  0  0  0  0  0  0  0  0
   -0.8395    1.3766   -3.0235 C   0  0  0  0  0  0  0  0  0  0  0  0
   -0.0621    0.6214   -3.1381 H   0  0  0  0  0  0  0  0  0  0  0  0
   -1.5121    1.3155   -3.8791 H   0  0  0  0  0  0  0  0  0  0  0  0
   -0.3798    2.3652   -2.9971 H   0  0  0  0  0  0  0  0  0  0  0  0
   -0.1913    0.1554    1.7759 C   0  0  0  0  0  0  0  0  0  0  0  0
    0.9476   -0.0766    2.1748 O   0  0  0  0  0  0  0  0  0  0  0  0
   -1.1502    0.6393    2.5760 N   0  0  0  0  0  0  0  0  0  0  0  0
   -2.0581    0.8092    2.1736 H   0  0  0  0  0  0  0  0  0  0  0  0
   -0.9568    0.9369    3.9933 C   0  0  0  0  0  0  0  0  0  0  0  0
   -0.1600    1.6750    4.1097 H   0  0  0  0  0  0  0  0  0  0  0  0
   -1.8775    1.3307    4.4266 H   0  0  0  0  0  0  0  0  0  0  0  0
   -0.6678    0.0287    4.5244 H   0  0  0  0  0  0  0  0  0  0  0  0
  5  6  2  0  0  0  0
  5  7  1  0  0  0  0
  2  3  1  0  0  0  0
  2  4  1  0  0  0  0
  2  5  1  0  0  0  0
  1  2  1  0  0  0  0
 24 25  2  0  0  0  0
 24 26  1  0  0  0  0
 20 21  1  0  0  0  0
 20 22  1  0  0  0  0
 20 23  1  0  0  0  0
 16 17  1  0  0  0  0
 16 18  1  0  0  0  0
 16 19  1  0  0  0  0
 14 15  1  0  0  0  0
 14 16  1  0  0  0  0
 14 20  1  0  0  0  0
 11 12  1  0  0  0  0
 11 13  1  0  0  0  0
 11 14  1  0  0  0  0
  9 10  1  0  0  0  0
  9 11  1  0  0  0  0
  9 24  1  0  0  0  0
  7  8  1  0  0  0  0
  7  9  1  0  0  0  0
 28 29  1  0  0  0  0
 28 30  1  0  0  0  0
 28 31  1  0  0  0  0
 26 27  1  0  0  0  0
 26 28  1  0  0  0  0
M  END
$$$$
default_name
  -OEChem-02102213163D

 31 30  0     1  0  0  0  0  0999 V2000
   -3.5895   -3.5013    1.1082 H   0  0  0  0  0  0  0  0  0  0  0  0
   -3.5145   -2.5363    0.6082 C   0  0  0  0  0  0  0  0  0  0  0  0
   -4.2285   -1.8413    1.0452 H   0  0  0  0  0  0  0  0  0  0  0  0
   -3.7155   -2.6583   -0.4538 H   0  0  0  0  0  0  0  0  0  0  0  0
   -2.1155   -1.9963    0.7922 C   0  0  0  0  0  0  0  0  0  0  0  0
   -1.2875   -2.6383    1.4252 O   0  0  0  0  0  0  0  0  0  0  0  0
   -1.8575   -0.8123    0.2402 N   0  0  0  0  0  0  0  0  0  0  0  0
   -2.6005   -0.3333   -0.2478 H   0  0  0  0  0  0  0  0  0  0  0  0
   -0.5675   -0.1203    0.3102 C   0  0  1  0  0  0  0  0  0  0  0  0
    0.1932   -0.7715   -0.1219 H   0  0  0  0  0  0  0  0  0  0  0  0
   -0.6568    1.1713   -0.5294 C   0  0  0  0  0  0  0  0  0  0  0  0
   -0.9628    1.9910    0.1235 H   0  0  0  0  0  0  0  0  0  0  0  0
    0.3439    1.4012   -0.9021 H   0  0  0  0  0  0  0  0  0  0  0  0
   -1.6166    1.1229   -1.7324 C   0  0  0  0  0  0  0  0  0  0  0  0
   -2.2629    0.2487   -1.6526 H   0  0  0  0  0  0  0  0  0  0  0  0
   -2.4874    2.3788   -1.8296 C   0  0  0  0  0  0  0  0  0  0  0  0
   -1.8541    3.2647   -1.8938 H   0  0  0  0  0  0  0  0  0  0  0  0
   -3.1140    2.3232   -2.7201 H   0  0  0  0  0  0  0  0  0  0  0  0
   -3.1338    2.4665   -0.9590 H   0  0  0  0  0  0  0  0  0  0  0  0
   -0.8151    1.0020   -3.0279 C   0  0  0  0  0  0  0  0  0  0  0  0
   -0.2081    0.0971   -3.0004 H   0  0  0  0  0  0  0  0  0  0  0  0
   -1.4933    0.9396   -3.8789 H   0  0  0  0  0  0  0  0  0  0  0  0
   -0.1642    1.8685   -3.1491 H   0  0  0  0  0  0  0  0  0  0  0  0
   -0.1913    0.1554    1.7759 C   0  0  0  0  0  0  0  0  0  0  0  0
    0.9476   -0.0766    2.1748 O   0  0  0  0  0  0  0  0  0  0  0  0
   -1.1502    0.6393    2.5760 N   0  0  0  0  0  0  0  0  0  0  0  0
   -2.0581    0.8092    2.1736 H   0  0  0  0  0  0  0  0  0  0  0  0
   -0.9568    0.9369    3.9933 C   0  0  0  0  0  0  0  0  0  0  0  0
   -0.1600    1.6750    4.1097 H   0  0  0  0  0  0  0  0  0  0  0  0
   -1.8775    1.3307    4.4266 H   0  0  0  0  0  0  0  0  0  0  0  0
   -0.6678    0.0287    4.5244 H   0  0  0  0  0  0  0  0  0  0  0  0
  5  6  2  0  0  0  0
  5  7  1  0  0  0  0
  2  3  1  0  0  0  0
  2  4  1  0  0  0  0
  2  5  1  0  0  0  0
  1  2  1  0  0  0  0
 24 25  2  0  0  0  0
 24 26  1  0  0  0  0
 20 21  1  0  0  0  0
 20 22  1  0  0  0  0
 20 23  1  0  0  0  0
 16 17  1  0  0  0  0
 16 18  1  0  0  0  0
 16 19  1  0  0  0  0
 14 15  1  0  0  0  0
 14 16  1  0  0  0  0
 14 20  1  0  0  0  0
 11 12  1  0  0  0  0
 11 13  1  0  0  0  0
 11 14  1  0  0  0  0
  9 10  1  0  0  0  0
  9 11  1  0  0  0  0
  9 24  1  0  0  0  0
  7  8  1  0  0  0  0
  7  9  1  0  0  0  0
 28 29  1  0  0  0  0
 28 30  1  0  0  0  0
 28 31  1  0  0  0  0
 26 27  1  0  0  0  0
 26 28  1  0  0  0  0
M  END
$$$$
default_name
  -OEChem-02102213163D

 31 30  0     1  0  0  0  0  0999 V2000
   -3.5895   -3.5013    1.1082 H   0  0  0  0  0  0  0  0  0  0  0  0
   -3.5145   -2.5363    0.6082 C   0  0  0  0  0  0  0  0  0  0  0  0
   -4.2285   -1.8413    1.0452 H   0  0  0  0  0  0  0  0  0  0  0  0
   -3.7155   -2.6583   -0.4538 H   0  0  0  0  0  0  0  0  0  0  0  0
   -2.1155   -1.9963    0.7922 C   0  0  0  0  0  0  0  0  0  0  0  0
   -1.2875   -2.6383    1.4252 O   0  0  0  0  0  0  0  0  0  0  0  0
   -1.8575   -0.8123    0.2402 N   0  0  0  0  0  0  0  0  0  0  0  0
   -2.6005   -0.3333   -0.2478 H   0  0  0  0  0  0  0  0  0  0  0  0
   -0.5675   -0.1203    0.3102 C   0  0  1  0  0  0  0  0  0  0  0  0
    0.1932   -0.7715   -0.1219 H   0  0  0  0  0  0  0  0  0  0  0  0
   -0.6568    1.1713   -0.5294 C   0  0  0  0  0  0  0  0  0  0  0  0
   -0.9628    1.9910    0.1235 H   0  0  0  0  0  0  0  0  0  0  0  0
    0.3439    1.4012   -0.9021 H   0  0  0  0  0  0  0  0  0  0  0  0
   -1.6166    1.1229   -1.7324 C   0  0  0  0  0  0  0  0  0  0  0  0
   -2.4261    0.4217   -1.5294 H   0  0  0  0  0  0  0  0  0  0  0  0
   -2.2153    2.4958   -2.0514 C   0  0  0  0  0  0  0  0  0  0  0  0
   -1.4160    3.2135   -2.2414 H   0  0  0  0  0  0  0  0  0  0  0  0
   -2.8476    2.4239   -2.9367 H   0  0  0  0  0  0  0  0  0  0  0  0
   -2.8231    2.8520   -1.2224 H   0  0  0  0  0  0  0  0  0  0  0  0
   -0.8673    0.6344   -2.9715 C   0  0  0  0  0  0  0  0  0  0  0  0
   -0.4562   -0.3575   -2.7841 H   0  0  0  0  0  0  0  0  0  0  0  0
   -1.5512    0.5729   -3.8180 H   0  0  0  0  0  0  0  0  0  0  0  0
   -0.0552    1.3206   -3.2141 H   0  0  0  0  0  0  0  0  0  0  0  0
   -0.1913    0.1554    1.7759 C   0  0  0  0  0  0  0  0  0  0  0  0
    0.9476   -0.0766    2.1748 O   0  0  0  0  0  0  0  0  0  0  0  0
   -1.1502    0.6393    2.5760 N   0  0  0  0  0  0  0  0  0  0  0  0
   -2.0581    0.8092    2.1736 H   0  0  0  0  0  0  0  0  0  0  0  0
   -0.9568    0.9369    3.9933 C   0  0  0  0  0  0  0  0  0  0  0  0
   -0.1600    1.6750    4.1097 H   0  0  0  0  0  0  0  0  0  0  0  0
   -1.8775    1.3307    4.4266 H   0  0  0  0  0  0  0  0  0  0  0  0
   -0.6678    0.0287    4.5244 H   0  0  0  0  0  0  0  0  0  0  0  0
  5  6  2  0  0  0  0
  5  7  1  0  0  0  0
  2  3  1  0  0  0  0
  2  4  1  0  0  0  0
  2  5  1  0  0  0  0
  1  2  1  0  0  0  0
 24 25  2  0  0  0  0
 24 26  1  0  0  0  0
 20 21  1  0  0  0  0
 20 22  1  0  0  0  0
 20 23  1  0  0  0  0
 16 17  1  0  0  0  0
 16 18  1  0  0  0  0
 16 19  1  0  0  0  0
 14 15  1  0  0  0  0
 14 16  1  0  0  0  0
 14 20  1  0  0  0  0
 11 12  1  0  0  0  0
 11 13  1  0  0  0  0
 11 14  1  0  0  0  0
  9 10  1  0  0  0  0
  9 11  1  0  0  0  0
  9 24  1  0  0  0  0
  7  8  1  0  0  0  0
  7  9  1  0  0  0  0
 28 29  1  0  0  0  0
 28 30  1  0  0  0  0
 28 31  1  0  0  0  0
 26 27  1  0  0  0  0
 26 28  1  0  0  0  0
M  END
$$$$
default_name
  -OEChem-02102213163D

 31 30  0     1  0  0  0  0  0999 V2000
   -3.5895   -3.5013    1.1082 H   0  0  0  0  0  0  0  0  0  0  0  0
   -3.5145   -2.5363    0.6082 C   0  0  0  0  0  0  0  0  0  0  0  0
   -4.2285   -1.8413    1.0452 H   0  0  0  0  0  0  0  0  0  0  0  0
   -3.7155   -2.6583   -0.4538 H   0  0  0  0  0  0  0  0  0  0  0  0
   -2.1155   -1.9963    0.7922 C   0  0  0  0  0  0  0  0  0  0  0  0
   -1.2875   -2.6383    1.4252 O   0  0  0  0  0  0  0  0  0  0  0  0
   -1.8575   -0.8123    0.2402 N   0  0  0  0  0  0  0  0  0  0  0  0
   -2.6005   -0.3333   -0.2478 H   0  0  0  0  0  0  0  0  0  0  0  0
   -0.5675   -0.1203    0.3102 C   0  0  1  0  0  0  0  0  0  0  0  0
    0.1932   -0.7715   -0.1219 H   0  0  0  0  0  0  0  0  0  0  0  0
   -0.6568    1.1713   -0.5294 C   0  0  0  0  0  0  0  0  0  0  0  0
   -0.9628    1.9910    0.1235 H   0  0  0  0  0  0  0  0  0  0  0  0
    0.3439    1.4012   -0.9021 H   0  0  0  0  0  0  0  0  0  0  0  0
   -1.6166    1.1229   -1.7324 C   0  0  0  0  0  0  0  0  0  0  0  0
   -2.5498    0.6416   -1.4395 H   0  0  0  0  0  0  0  0  0  0  0  0
   -1.9270    2.5180   -2.2824 C   0  0  0  0  0  0  0  0  0  0  0  0
   -1.0004    3.0193   -2.5652 H   0  0  0  0  0  0  0  0  0  0  0  0
   -2.5682    2.4324   -3.1600 H   0  0  0  0  0  0  0  0  0  0  0  0
   -2.4428    3.1190   -1.5366 H   0  0  0  0  0  0  0  0  0  0  0  0
   -0.9925    0.2991   -2.8581 C   0  0  0  0  0  0  0  0  0  0  0  0
   -0.7896   -0.7115   -2.5038 H   0  0  0  0  0  0  0  0  0  0  0  0
   -1.6817    0.2401   -3.7004 H   0  0  0  0  0  0  0  0  0  0  0  0
   -0.0601    0.7589   -3.1875 H   0  0  0  0  0  0  0  0  0  0  0  0
   -0.1913    0.1554    1.7759 C   0  0  0  0  0  0  0  0  0  0  0  0
    0.9476   -0.0766    2.1748 O   0  0  0  0  0  0  0  0  0  0  0  0
   -1.1502    0.6393    2.5760 N   0  0  0  0  0  0  0  0  0  0  0  0
   -2.0581    0.8092    2.1736 H   0  0  0  0  0  0  0  0  0  0  0  0
   -0.9568    0.9369    3.9933 C   0  0  0  0  0  0  0  0  0  0  0  0
   -0.1600    1.6750    4.1097 H   0  0  0  0  0  0  0  0  0  0  0  0
   -1.8775    1.3307    4.4266 H   0  0  0  0  0  0  0  0  0  0  0  0
   -0.6678    0.0287    4.5244 H   0  0  0  0  0  0  0  0  0  0  0  0
  5  6  2  0  0  0  0
  5  7  1  0  0  0  0
  2  3  1  0  0  0  0
  2  4  1  0  0  0  0
  2  5  1  0  0  0  0
  1  2  1  0  0  0  0
 24 25  2  0  0  0  0
 24 26  1  0  0  0  0
 20 21  1  0  0  0  0
 20 22  1  0  0  0  0
 20 23  1  0  0  0  0
 16 17  1  0  0  0  0
 16 18  1  0  0  0  0
 16 19  1  0  0  0  0
 14 15  1  0  0  0  0
 14 16  1  0  0  0  0
 14 20  1  0  0  0  0
 11 12  1  0  0  0  0
 11 13  1  0  0  0  0
 11 14  1  0  0  0  0
  9 10  1  0  0  0  0
  9 11  1  0  0  0  0
  9 24  1  0  0  0  0
  7  8  1  0  0  0  0
  7  9  1  0  0  0  0
 28 29  1  0  0  0  0
 28 30  1  0  0  0  0
 28 31  1  0  0  0  0
 26 27  1  0  0  0  0
 26 28  1  0  0  0  0
M  END
$$$$
default_name
  -OEChem-02102213163D

 31 30  0     1  0  0  0  0  0999 V2000
   -3.5895   -3.5013    1.1082 H   0  0  0  0  0  0  0  0  0  0  0  0
   -3.5145   -2.5363    0.6082 C   0  0  0  0  0  0  0  0  0  0  0  0
   -4.2285   -1.8413    1.0452 H   0  0  0  0  0  0  0  0  0  0  0  0
   -3.7155   -2.6583   -0.4538 H   0  0  0  0  0  0  0  0  0  0  0  0
   -2.1155   -1.9963    0.7922 C   0  0  0  0  0  0  0  0  0  0  0  0
   -1.2875   -2.6383    1.4252 O   0  0  0  0  0  0  0  0  0  0  0  0
   -1.8575   -0.8123    0.2402 N   0  0  0  0  0  0  0  0  0  0  0  0
   -2.6005   -0.3333   -0.2478 H   0  0  0  0  0  0  0  0  0  0  0  0
   -0.5675   -0.1203    0.3102 C   0  0  1  0  0  0  0  0  0  0  0  0
    0.1932   -0.7715   -0.1219 H   0  0  0  0  0  0  0  0  0  0  0  0
   -0.6568    1.1713   -0.5294 C   0  0  0  0  0  0  0  0  0  0  0  0
   -0.6962    2.0259    0.1488 H   0  0  0  0  0  0  0  0  0  0  0  0
    0.2608    1.2565   -1.1158 H   0  0  0  0  0  0  0  0  0  0  0  0
   -1.8527    1.2608   -1.4951 C   0  0  0  0  0  0  0  0  0  0  0  0
   -2.7845    1.1774   -0.9358 H   0  0  0  0  0  0  0  0  0  0  0  0
   -1.8621    2.5723   -2.2857 C   0  0  0  0  0  0  0  0  0  0  0  0
   -0.9279    2.6782   -2.8389 H   0  0  0  0  0  0  0  0  0  0  0  0
   -2.6949    2.5709   -2.9893 H   0  0  0  0  0  0  0  0  0  0  0  0
   -1.9776    3.4229   -1.6174 H   0  0  0  0  0  0  0  0  0  0  0  0
   -1.7962    0.1065   -2.4951 C   0  0  0  0  0  0  0  0  0  0  0  0
   -1.8206   -0.8431   -1.9607 H   0  0  0  0  0  0  0  0  0  0  0  0
   -2.6569    0.1518   -3.1624 H   0  0  0  0  0  0  0  0  0  0  0  0
   -0.8804    0.1645   -3.0844 H   0  0  0  0  0  0  0  0  0  0  0  0
   -0.1913    0.1554    1.7759 C   0  0  0  0  0  0  0  0  0  0  0  0
    0.9476   -0.0766    2.1748 O   0  0  0  0  0  0  0  0  0  0  0  0
   -1.1502    0.6393    2.5760 N   0  0  0  0  0  0  0  0  0  0  0  0
   -2.0581    0.8092    2.1736 H   0  0  0  0  0  0  0  0  0  0  0  0
   -0.9568    0.9369    3.9933 C   0  0  0  0  0  0  0  0  0  0  0  0
   -0.1600    1.6750    4.1097 H   0  0  0  0  0  0  0  0  0  0  0  0
   -1.8775    1.3307    4.4266 H   0  0  0  0  0  0  0  0  0  0  0  0
   -0.6678    0.0287    4.5244 H   0  0  0  0  0  0  0  0  0  0  0  0
  5  6  2  0  0  0  0
  5  7  1  0  0  0  0
  2  3  1  0  0  0  0
  2  4  1  0  0  0  0
  2  5  1  0  0  0  0
  1  2  1  0  0  0  0
 24 25  2  0  0  0  0
 24 26  1  0  0  0  0
 20 21  1  0  0  0  0
 20 22  1  0  0  0  0
 20 23  1  0  0  0  0
 16 17  1  0  0  0  0
 16 18  1  0  0  0  0
 16 19  1  0  0  0  0
 14 15  1  0  0  0  0
 14 16  1  0  0  0  0
 14 20  1  0  0  0  0
 11 12  1  0  0  0  0
 11 13  1  0  0  0  0
 11 14  1  0  0  0  0
  9 10  1  0  0  0  0
  9 11  1  0  0  0  0
  9 24  1  0  0  0  0
  7  8  1  0  0  0  0
  7  9  1  0  0  0  0
 28 29  1  0  0  0  0
 28 30  1  0  0  0  0
 28 31  1  0  0  0  0
 26 27  1  0  0  0  0
 26 28  1  0  0  0  0
M  END
$$$$
default_name
  -OEChem-02102213163D

 31 30  0     1  0  0  0  0  0999 V2000
   -3.5895   -3.5013    1.1082 H   0  0  0  0  0  0  0  0  0  0  0  0
   -3.5145   -2.5363    0.6082 C   0  0  0  0  0  0  0  0  0  0  0  0
   -4.2285   -1.8413    1.0452 H   0  0  0  0  0  0  0  0  0  0  0  0
   -3.7155   -2.6583   -0.4538 H   0  0  0  0  0  0  0  0  0  0  0  0
   -2.1155   -1.9963    0.7922 C   0  0  0  0  0  0  0  0  0  0  0  0
   -1.2875   -2.6383    1.4252 O   0  0  0  0  0  0  0  0  0  0  0  0
   -1.8575   -0.8123    0.2402 N   0  0  0  0  0  0  0  0  0  0  0  0
   -2.6005   -0.3333   -0.2478 H   0  0  0  0  0  0  0  0  0  0  0  0
   -0.5675   -0.1203    0.3102 C   0  0  1  0  0  0  0  0  0  0  0  0
    0.1932   -0.7715   -0.1219 H   0  0  0  0  0  0  0  0  0  0  0  0
   -0.6568    1.1713   -0.5294 C   0  0  0  0  0  0  0  0  0  0  0  0
   -0.6962    2.0259    0.1488 H   0  0  0  0  0  0  0  0  0  0  0  0
    0.2608    1.2565   -1.1158 H   0  0  0  0  0  0  0  0  0  0  0  0
   -1.8527    1.2608   -1.4951 C   0  0  0  0  0  0  0  0  0  0  0  0
   -2.7676    1.4446   -0.9319 H   0  0  0  0  0  0  0  0  0  0  0  0
   -1.6761    2.3714   -2.5346 C   0  0  0  0  0  0  0  0  0  0  0  0
   -0.7550    2.2100   -3.0964 H   0  0  0  0  0  0  0  0  0  0  0  0
   -2.5201    2.3659   -3.2247 H   0  0  0  0  0  0  0  0  0  0  0  0
   -1.6321    3.3455   -2.0524 H   0  0  0  0  0  0  0  0  0  0  0  0
   -2.0142   -0.0633   -2.2409 C   0  0  0  0  0  0  0  0  0  0  0  0
   -2.1740   -0.8700   -1.5255 H   0  0  0  0  0  0  0  0  0  0  0  0
   -2.8771   -0.0119   -2.9049 H   0  0  0  0  0  0  0  0  0  0  0  0
   -1.1201   -0.2751   -2.8283 H   0  0  0  0  0  0  0  0  0  0  0  0
   -0.1913    0.1554    1.7759 C   0  0  0  0  0  0  0  0  0  0  0  0
    0.9476   -0.0766    2.1748 O   0  0  0  0  0  0  0  0  0  0  0  0
   -1.1502    0.6393    2.5760 N   0  0  0  0  0  0  0  0  0  0  0  0
   -2.0581    0.8092    2.1736 H   0  0  0  0  0  0  0  0  0  0  0  0
   -0.9568    0.9369    3.9933 C   0  0  0  0  0  0  0  0  0  0  0  0
   -0.1600    1.6750    4.1097 H   0  0  0  0  0  0  0  0  0  0  0  0
   -1.8775    1.3307    4.4266 H   0  0  0  0  0  0  0  0  0  0  0  0
   -0.6678    0.0287    4.5244 H   0  0  0  0  0  0  0  0  0  0  0  0
  5  6  2  0  0  0  0
  5  7  1  0  0  0  0
  2  3  1  0  0  0  0
  2  4  1  0  0  0  0
  2  5  1  0  0  0  0
  1  2  1  0  0  0  0
 24 25  2  0  0  0  0
 24 26  1  0  0  0  0
 20 21  1  0  0  0  0
 20 22  1  0  0  0  0
 20 23  1  0  0  0  0
 16 17  1  0  0  0  0
 16 18  1  0  0  0  0
 16 19  1  0  0  0  0
 14 15  1  0  0  0  0
 14 16  1  0  0  0  0
 14 20  1  0  0  0  0
 11 12  1  0  0  0  0
 11 13  1  0  0  0  0
 11 14  1  0  0  0  0
  9 10  1  0  0  0  0
  9 11  1  0  0  0  0
  9 24  1  0  0  0  0
  7  8  1  0  0  0  0
  7  9  1  0  0  0  0
 28 29  1  0  0  0  0
 28 30  1  0  0  0  0
 28 31  1  0  0  0  0
 26 27  1  0  0  0  0
 26 28  1  0  0  0  0
M  END
$$$$
default_name
  -OEChem-02102213163D

 31 30  0     1  0  0  0  0  0999 V2000
   -3.5895   -3.5013    1.1082 H   0  0  0  0  0  0  0  0  0  0  0  0
   -3.5145   -2.5363    0.6082 C   0  0  0  0  0  0  0  0  0  0  0  0
   -4.2285   -1.8413    1.0452 H   0  0  0  0  0  0  0  0  0  0  0  0
   -3.7155   -2.6583   -0.4538 H   0  0  0  0  0  0  0  0  0  0  0  0
   -2.1155   -1.9963    0.7922 C   0  0  0  0  0  0  0  0  0  0  0  0
   -1.2875   -2.6383    1.4252 O   0  0  0  0  0  0  0  0  0  0  0  0
   -1.8575   -0.8123    0.2402 N   0  0  0  0  0  0  0  0  0  0  0  0
   -2.6005   -0.3333   -0.2478 H   0  0  0  0  0  0  0  0  0  0  0  0
   -0.5675   -0.1203    0.3102 C   0  0  1  0  0  0  0  0  0  0  0  0
    0.1932   -0.7715   -0.1219 H   0  0  0  0  0  0  0  0  0  0  0  0
   -0.6568    1.1713   -0.5294 C   0  0  0  0  0  0  0  0  0  0  0  0
   -0.6962    2.0259    0.1488 H   0  0  0  0  0  0  0  0  0  0  0  0
    0.2608    1.2565   -1.1158 H   0  0  0  0  0  0  0  0  0  0  0  0
   -1.8527    1.2608   -1.4951 C   0  0  0  0  0  0  0  0  0  0  0  0
   -2.7079    1.7008   -0.9822 H   0  0  0  0  0  0  0  0  0  0  0  0
   -1.5328    2.0970   -2.7375 C   0  0  0  0  0  0  0  0  0  0  0  0
   -0.6679    1.6780   -3.2535 H   0  0  0  0  0  0  0  0  0  0  0  0
   -2.3881    2.0922   -3.4135 H   0  0  0  0  0  0  0  0  0  0  0  0
   -1.3176    3.1272   -2.4622 H   0  0  0  0  0  0  0  0  0  0  0  0
   -2.2485   -0.1409   -1.9579 C   0  0  0  0  0  0  0  0  0  0  0  0
   -2.5132   -0.7510   -1.0944 H   0  0  0  0  0  0  0  0  0  0  0  0
   -3.1124   -0.0825   -2.6200 H   0  0  0  0  0  0  0  0  0  0  0  0
   -1.4191   -0.6093   -2.4889 H   0  0  0  0  0  0  0  0  0  0  0  0
   -0.1913    0.1554    1.7759 C   0  0  0  0  0  0  0  0  0  0  0  0
    0.9476   -0.0766    2.1748 O   0  0  0  0  0  0  0  0  0  0  0  0
   -1.1502    0.6393    2.5760 N   0  0  0  0  0  0  0  0  0  0  0  0
   -2.0581    0.8092    2.1736 H   0  0  0  0  0  0  0  0  0  0  0  0
   -0.9568    0.9369    3.9933 C   0  0  0  0  0  0  0  0  0  0  0  0
   -0.1600    1.6750    4.1097 H   0  0  0  0  0  0  0  0  0  0  0  0
   -1.8775    1.3307    4.4266 H   0  0  0  0  0  0  0  0  0  0  0  0
   -0.6678    0.0287    4.5244 H   0  0  0  0  0  0  0  0  0  0  0  0
  5  6  2  0  0  0  0
  5  7  1  0  0  0  0
  2  3  1  0  0  0  0
  2  4  1  0  0  0  0
  2  5  1  0  0  0  0
  1  2  1  0  0  0  0
 24 25  2  0  0  0  0
 24 26  1  0  0  0  0
 20 21  1  0  0  0  0
 20 22  1  0  0  0  0
 20 23  1  0  0  0  0
 16 17  1  0  0  0  0
 16 18  1  0  0  0  0
 16 19  1  0  0  0  0
 14 15  1  0  0  0  0
 14 16  1  0  0  0  0
 14 20  1  0  0  0  0
 11 12  1  0  0  0  0
 11 13  1  0  0  0  0
 11 14  1  0  0  0  0
  9 10  1  0  0  0  0
  9 11  1  0  0  0  0
  9 24  1  0  0  0  0
  7  8  1  0  0  0  0
  7  9  1  0  0  0  0
 28 29  1  0  0  0  0
 28 30  1  0  0  0  0
 28 31  1  0  0  0  0
 26 27  1  0  0  0  0
 26 28  1  0  0  0  0
M  END
$$$$
default_name
  -OEChem-02102213163D

 31 30  0     1  0  0  0  0  0999 V2000
   -3.5895   -3.5013    1.1082 H   0  0  0  0  0  0  0  0  0  0  0  0
   -3.5145   -2.5363    0.6082 C   0  0  0  0  0  0  0  0  0  0  0  0
   -4.2285   -1.8413    1.0452 H   0  0  0  0  0  0  0  0  0  0  0  0
   -3.7155   -2.6583   -0.4538 H   0  0  0  0  0  0  0  0  0  0  0  0
   -2.1155   -1.9963    0.7922 C   0  0  0  0  0  0  0  0  0  0  0  0
   -1.2875   -2.6383    1.4252 O   0  0  0  0  0  0  0  0  0  0  0  0
   -1.8575   -0.8123    0.2402 N   0  0  0  0  0  0  0  0  0  0  0  0
   -2.6005   -0.3333   -0.2478 H   0  0  0  0  0  0  0  0  0  0  0  0
   -0.5675   -0.1203    0.3102 C   0  0  1  0  0  0  0  0  0  0  0  0
    0.1932   -0.7715   -0.1219 H   0  0  0  0  0  0  0  0  0  0  0  0
   -0.6568    1.1713   -0.5294 C   0  0  0  0  0  0  0  0  0  0  0  0
   -0.6962    2.0259    0.1488 H   0  0  0  0  0  0  0  0  0  0  0  0
    0.2608    1.2565   -1.1158 H   0  0  0  0  0  0  0  0  0  0  0  0
   -1.8527    1.2608   -1.4951 C   0  0  0  0  0  0  0  0  0  0  0  0
   -2.6094    1.9285   -1.0831 H   0  0  0  0  0  0  0  0  0  0  0  0
   -1.4419    1.7680   -2.8805 C   0  0  0  0  0  0  0  0  0  0  0  0
   -0.6724    1.1184   -3.2997 H   0  0  0  0  0  0  0  0  0  0  0  0
   -2.3079    1.7684   -3.5429 H   0  0  0  0  0  0  0  0  0  0  0  0
   -1.0553    2.7830   -2.8189 H   0  0  0  0  0  0  0  0  0  0  0  0
   -2.4832   -0.1209   -1.6654 C   0  0  0  0  0  0  0  0  0  0  0  0
   -2.8151   -0.4944   -0.6968 H   0  0  0  0  0  0  0  0  0  0  0  0
   -3.3470   -0.0552   -2.3270 H   0  0  0  0  0  0  0  0  0  0  0  0
   -1.7571   -0.8154   -2.0895 H   0  0  0  0  0  0  0  0  0  0  0  0
   -0.1913    0.1554    1.7759 C   0  0  0  0  0  0  0  0  0  0  0  0
    0.9476   -0.0766    2.1748 O   0  0  0  0  0  0  0  0  0  0  0  0
   -1.1502    0.6393    2.5760 N   0  0  0  0  0  0  0  0  0  0  0  0
   -2.0581    0.8092    2.1736 H   0  0  0  0  0  0  0  0  0  0  0  0
   -0.9568    0.9369    3.9933 C   0  0  0  0  0  0  0  0  0  0  0  0
   -0.1600    1.6750    4.1097 H   0  0  0  0  0  0  0  0  0  0  0  0
   -1.8775    1.3307    4.4266 H   0  0  0  0  0  0  0  0  0  0  0  0
   -0.6678    0.0287    4.5244 H   0  0  0  0  0  0  0  0  0  0  0  0
  5  6  2  0  0  0  0
  5  7  1  0  0  0  0
  2  3  1  0  0  0  0
  2  4  1  0  0  0  0
  2  5  1  0  0  0  0
  1  2  1  0  0  0  0
 24 25  2  0  0  0  0
 24 26  1  0  0  0  0
 20 21  1  0  0  0  0
 20 22  1  0  0  0  0
 20 23  1  0  0  0  0
 16 17  1  0  0  0  0
 16 18  1  0  0  0  0
 16 19  1  0  0  0  0
 14 15  1  0  0  0  0
 14 16  1  0  0  0  0
 14 20  1  0  0  0  0
 11 12  1  0  0  0  0
 11 13  1  0  0  0  0
 11 14  1  0  0  0  0
  9 10  1  0  0  0  0
  9 11  1  0  0  0  0
  9 24  1  0  0  0  0
  7  8  1  0  0  0  0
  7  9  1  0  0  0  0
 28 29  1  0  0  0  0
 28 30  1  0  0  0  0
 28 31  1  0  0  0  0
 26 27  1  0  0  0  0
 26 28  1  0  0  0  0
M  END
$$$$
default_name
  -OEChem-02102213163D

 31 30  0     1  0  0  0  0  0999 V2000
   -3.5895   -3.5013    1.1082 H   0  0  0  0  0  0  0  0  0  0  0  0
   -3.5145   -2.5363    0.6082 C   0  0  0  0  0  0  0  0  0  0  0  0
   -4.2285   -1.8413    1.0452 H   0  0  0  0  0  0  0  0  0  0  0  0
   -3.7155   -2.6583   -0.4538 H   0  0  0  0  0  0  0  0  0  0  0  0
   -2.1155   -1.9963    0.7922 C   0  0  0  0  0  0  0  0  0  0  0  0
   -1.2875   -2.6383    1.4252 O   0  0  0  0  0  0  0  0  0  0  0  0
   -1.8575   -0.8123    0.2402 N   0  0  0  0  0  0  0  0  0  0  0  0
   -2.6005   -0.3333   -0.2478 H   0  0  0  0  0  0  0  0  0  0  0  0
   -0.5675   -0.1203    0.3102 C   0  0  1  0  0  0  0  0  0  0  0  0
    0.1932   -0.7715   -0.1219 H   0  0  0  0  0  0  0  0  0  0  0  0
   -0.6568    1.1713   -0.5294 C   0  0  0  0  0  0  0  0  0  0  0  0
   -0.6962    2.0259    0.1488 H   0  0  0  0  0  0  0  0  0  0  0  0
    0.2608    1.2565   -1.1158 H   0  0  0  0  0  0  0  0  0  0  0  0
   -1.8527    1.2608   -1.4951 C   0  0  0  0  0  0  0  0  0  0  0  0
   -2.4787    2.1121   -1.2279 H   0  0  0  0  0  0  0  0  0  0  0  0
   -1.4098    1.4067   -2.9538 C   0  0  0  0  0  0  0  0  0  0  0  0
   -0.7684    0.5693   -3.2318 H   0  0  0  0  0  0  0  0  0  0  0  0
   -2.2849    1.4166   -3.6040 H   0  0  0  0  0  0  0  0  0  0  0  0
   -0.8632    2.3361   -3.0982 H   0  0  0  0  0  0  0  0  0  0  0  0
   -2.7022   -0.0047   -1.3834 C   0  0  0  0  0  0  0  0  0  0  0  0
   -3.0590   -0.1176   -0.3598 H   0  0  0  0  0  0  0  0  0  0  0  0
   -3.5647    0.0682   -2.0459 H   0  0  0  0  0  0  0  0  0  0  0  0
   -2.1110   -0.8793   -1.6571 H   0  0  0  0  0  0  0  0  0  0  0  0
   -0.1913    0.1554    1.7759 C   0  0  0  0  0  0  0  0  0  0  0  0
    0.9476   -0.0766    2.1748 O   0  0  0  0  0  0  0  0  0  0  0  0
   -1.1502    0.6393    2.5760 N   0  0  0  0  0  0  0  0  0  0  0  0
   -2.0581    0.8092    2.1736 H   0  0  0  0  0  0  0  0  0  0  0  0
   -0.9568    0.9369    3.9933 C   0  0  0  0  0  0  0  0  0  0  0  0
   -0.1600    1.6750    4.1097 H   0  0  0  0  0  0  0  0  0  0  0  0
   -1.8775    1.3307    4.4266 H   0  0  0  0  0  0  0  0  0  0  0  0
   -0.6678    0.0287    4.5244 H   0  0  0  0  0  0  0  0  0  0  0  0
  5  6  2  0  0  0  0
  5  7  1  0  0  0  0
  2  3  1  0  0  0  0
  2  4  1  0  0  0  0
  2  5  1  0  0  0  0
  1  2  1  0  0  0  0
 24 25  2  0  0  0  0
 24 26  1  0  0  0  0
 20 21  1  0  0  0  0
 20 22  1  0  0  0  0
 20 23  1  0  0  0  0
 16 17  1  0  0  0  0
 16 18  1  0  0  0  0
 16 19  1  0  0  0  0
 14 15  1  0  0  0  0
 14 16  1  0  0  0  0
 14 20  1  0  0  0  0
 11 12  1  0  0  0  0
 11 13  1  0  0  0  0
 11 14  1  0  0  0  0
  9 10  1  0  0  0  0
  9 11  1  0  0  0  0
  9 24  1  0  0  0  0
  7  8  1  0  0  0  0
  7  9  1  0  0  0  0
 28 29  1  0  0  0  0
 28 30  1  0  0  0  0
 28 31  1  0  0  0  0
 26 27  1  0  0  0  0
 26 28  1  0  0  0  0
M  END
$$$$
default_name
  -OEChem-02102213163D

 31 30  0     1  0  0  0  0  0999 V2000
   -3.5895   -3.5013    1.1082 H   0  0  0  0  0  0  0  0  0  0  0  0
   -3.5145   -2.5363    0.6082 C   0  0  0  0  0  0  0  0  0  0  0  0
   -4.2285   -1.8413    1.0452 H   0  0  0  0  0  0  0  0  0  0  0  0
   -3.7155   -2.6583   -0.4538 H   0  0  0  0  0  0  0  0  0  0  0  0
   -2.1155   -1.9963    0.7922 C   0  0  0  0  0  0  0  0  0  0  0  0
   -1.2875   -2.6383    1.4252 O   0  0  0  0  0  0  0  0  0  0  0  0
   -1.8575   -0.8123    0.2402 N   0  0  0  0  0  0  0  0  0  0  0  0
   -2.6005   -0.3333   -0.2478 H   0  0  0  0  0  0  0  0  0  0  0  0
   -0.5675   -0.1203    0.3102 C   0  0  1  0  0  0  0  0  0  0  0  0
    0.1932   -0.7715   -0.1219 H   0  0  0  0  0  0  0  0  0  0  0  0
   -0.6568    1.1713   -0.5294 C   0  0  0  0  0  0  0  0  0  0  0  0
   -0.6962    2.0259    0.1488 H   0  0  0  0  0  0  0  0  0  0  0  0
    0.2608    1.2565   -1.1158 H   0  0  0  0  0  0  0  0  0  0  0  0
   -1.8527    1.2608   -1.4951 C   0  0  0  0  0  0  0  0  0  0  0  0
   -2.3249    2.2392   -1.4066 H   0  0  0  0  0  0  0  0  0  0  0  0
   -1.4384    1.0377   -2.9525 C   0  0  0  0  0  0  0  0  0  0  0  0
   -0.9491    0.0681   -3.0543 H   0  0  0  0  0  0  0  0  0  0  0  0
   -2.3207    1.0609   -3.5926 H   0  0  0  0  0  0  0  0  0  0  0  0
   -0.7544    1.8172   -3.2810 H   0  0  0  0  0  0  0  0  0  0  0  0
   -2.8906    0.1998   -1.1311 C   0  0  0  0  0  0  0  0  0  0  0  0
   -3.2284    0.3537   -0.1063 H   0  0  0  0  0  0  0  0  0  0  0  0
   -3.7507    0.2791   -1.7960 H   0  0  0  0  0  0  0  0  0  0  0  0
   -2.4568   -0.7967   -1.2213 H   0  0  0  0  0  0  0  0  0  0  0  0
   -0.1913    0.1554    1.7759 C   0  0  0  0  0  0  0  0  0  0  0  0
    0.9476   -0.0766    2.1748 O   0  0  0  0  0  0  0  0  0  0  0  0
   -1.1502    0.6393    2.5760 N   0  0  0  0  0  0  0  0  0  0  0  0
   -2.0581    0.8092    2.1736 H   0  0  0  0  0  0  0  0  0  0  0  0
   -0.9568    0.9369    3.9933 C   0  0  0  0  0  0  0  0  0  0  0  0
   -0.1600    1.6750    4.1097 H   0  0  0  0  0  0  0  0  0  0  0  0
   -1.8775    1.3307    4.4266 H   0  0  0  0  0  0  0  0  0  0  0  0
   -0.6678    0.0287    4.5244 H   0  0  0  0  0  0  0  0  0  0  0  0
  5  6  2  0  0  0  0
  5  7  1  0  0  0  0
  2  3  1  0  0  0  0
  2  4  1  0  0  0  0
  2  5  1  0  0  0  0
  1  2  1  0  0  0  0
 24 25  2  0  0  0  0
 24 26  1  0  0  0  0
 20 21  1  0  0  0  0
 20 22  1  0  0  0  0
 20 23  1  0  0  0  0
 16 17  1  0  0  0  0
 16 18  1  0  0  0  0
 16 19  1  0  0  0  0
 14 15  1  0  0  0  0
 14 16  1  0  0  0  0
 14 20  1  0  0  0  0
 11 12  1  0  0  0  0
 11 13  1  0  0  0  0
 11 14  1  0  0  0  0
  9 10  1  0  0  0  0
  9 11  1  0  0  0  0
  9 24  1  0  0  0  0
  7  8  1  0  0  0  0
  7  9  1  0  0  0  0
 28 29  1  0  0  0  0
 28 30  1  0  0  0  0
 28 31  1  0  0  0  0
 26 27  1  0  0  0  0
 26 28  1  0  0  0  0
M  END
$$$$
default_name
  -OEChem-02102213163D

 31 30  0     1  0  0  0  0  0999 V2000
   -3.5895   -3.5013    1.1082 H   0  0  0  0  0  0  0  0  0  0  0  0
   -3.5145   -2.5363    0.6082 C   0  0  0  0  0  0  0  0  0  0  0  0
   -4.2285   -1.8413    1.0452 H   0  0  0  0  0  0  0  0  0  0  0  0
   -3.7155   -2.6583   -0.4538 H   0  0  0  0  0  0  0  0  0  0  0  0
   -2.1155   -1.9963    0.7922 C   0  0  0  0  0  0  0  0  0  0  0  0
   -1.2875   -2.6383    1.4252 O   0  0  0  0  0  0  0  0  0  0  0  0
   -1.8575   -0.8123    0.2402 N   0  0  0  0  0  0  0  0  0  0  0  0
   -2.6005   -0.3333   -0.2478 H   0  0  0  0  0  0  0  0  0  0  0  0
   -0.5675   -0.1203    0.3102 C   0  0  1  0  0  0  0  0  0  0  0  0
    0.1932   -0.7715   -0.1219 H   0  0  0  0  0  0  0  0  0  0  0  0
   -0.6568    1.1713   -0.5294 C   0  0  0  0  0  0  0  0  0  0  0  0
   -0.6962    2.0259    0.1488 H   0  0  0  0  0  0  0  0  0  0  0  0
    0.2608    1.2565   -1.1158 H   0  0  0  0  0  0  0  0  0  0  0  0
   -1.8527    1.2608   -1.4951 C   0  0  0  0  0  0  0  0  0  0  0  0
   -2.1584    2.3010   -1.6071 H   0  0  0  0  0  0  0  0  0  0  0  0
   -1.5260    0.6863   -2.8766 C   0  0  0  0  0  0  0  0  0  0  0  0
   -1.2024   -0.3510   -2.7795 H   0  0  0  0  0  0  0  0  0  0  0  0
   -2.4128    0.7253   -3.5095 H   0  0  0  0  0  0  0  0  0  0  0  0
   -0.7362    1.2615   -3.3549 H   0  0  0  0  0  0  0  0  0  0  0  0
   -3.0357    0.4787   -0.9257 C   0  0  0  0  0  0  0  0  0  0  0  0
   -3.3117    0.8874    0.0463 H   0  0  0  0  0  0  0  0  0  0  0  0
   -3.8924    0.5634   -1.5942 H   0  0  0  0  0  0  0  0  0  0  0  0
   -2.7707   -0.5731   -0.8117 H   0  0  0  0  0  0  0  0  0  0  0  0
   -0.1913    0.1554    1.7759 C   0  0  0  0  0  0  0  0  0  0  0  0
    0.9476   -0.0766    2.1748 O   0  0  0  0  0  0  0  0  0  0  0  0
   -1.1502    0.6393    2.5760 N   0  0  0  0  0  0  0  0  0  0  0  0
   -2.0581    0.8092    2.1736 H   0  0  0  0  0  0  0  0  0  0  0  0
   -0.9568    0.9369    3.9933 C   0  0  0  0  0  0  0  0  0  0  0  0
   -0.1600    1.6750    4.1097 H   0  0  0  0  0  0  0  0  0  0  0  0
   -1.8775    1.3307    4.4266 H   0  0  0  0  0  0  0  0  0  0  0  0
   -0.6678    0.0287    4.5244 H   0  0  0  0  0  0  0  0  0  0  0  0
  5  6  2  0  0  0  0
  5  7  1  0  0  0  0
  2  3  1  0  0  0  0
  2  4  1  0  0  0  0
  2  5  1  0  0  0  0
  1  2  1  0  0  0  0
 24 25  2  0  0  0  0
 24 26  1  0  0  0  0
 20 21  1  0  0  0  0
 20 22  1  0  0  0  0
 20 23  1  0  0  0  0
 16 17  1  0  0  0  0
 16 18  1  0  0  0  0
 16 19  1  0  0  0  0
 14 15  1  0  0  0  0
 14 16  1  0  0  0  0
 14 20  1  0  0  0  0
 11 12  1  0  0  0  0
 11 13  1  0  0  0  0
 11 14  1  0  0  0  0
  9 10  1  0  0  0  0
  9 11  1  0  0  0  0
  9 24  1  0  0  0  0
  7  8  1  0  0  0  0
  7  9  1  0  0  0  0
 28 29  1  0  0  0  0
 28 30  1  0  0  0  0
 28 31  1  0  0  0  0
 26 27  1  0  0  0  0
 26 28  1  0  0  0  0
M  END
$$$$
default_name
  -OEChem-02102213163D

 31 30  0     1  0  0  0  0  0999 V2000
   -3.5895   -3.5013    1.1082 H   0  0  0  0  0  0  0  0  0  0  0  0
   -3.5145   -2.5363    0.6082 C   0  0  0  0  0  0  0  0  0  0  0  0
   -4.2285   -1.8413    1.0452 H   0  0  0  0  0  0  0  0  0  0  0  0
   -3.7155   -2.6583   -0.4538 H   0  0  0  0  0  0  0  0  0  0  0  0
   -2.1155   -1.9963    0.7922 C   0  0  0  0  0  0  0  0  0  0  0  0
   -1.2875   -2.6383    1.4252 O   0  0  0  0  0  0  0  0  0  0  0  0
   -1.8575   -0.8123    0.2402 N   0  0  0  0  0  0  0  0  0  0  0  0
   -2.6005   -0.3333   -0.2478 H   0  0  0  0  0  0  0  0  0  0  0  0
   -0.5675   -0.1203    0.3102 C   0  0  1  0  0  0  0  0  0  0  0  0
    0.1932   -0.7715   -0.1219 H   0  0  0  0  0  0  0  0  0  0  0  0
   -0.6568    1.1713   -0.5294 C   0  0  0  0  0  0  0  0  0  0  0  0
   -0.6962    2.0259    0.1488 H   0  0  0  0  0  0  0  0  0  0  0  0
    0.2608    1.2565   -1.1158 H   0  0  0  0  0  0  0  0  0  0  0  0
   -1.8527    1.2608   -1.4951 C   0  0  0  0  0  0  0  0  0  0  0  0
   -1.9906    2.2934   -1.8156 H   0  0  0  0  0  0  0  0  0  0  0  0
   -1.6665    0.3762   -2.7313 C   0  0  0  0  0  0  0  0  0  0  0  0
   -1.5110   -0.6594   -2.4259 H   0  0  0  0  0  0  0  0  0  0  0  0
   -2.5551    0.4328   -3.3604 H   0  0  0  0  0  0  0  0  0  0  0  0
   -0.8100    0.7070   -3.3149 H   0  0  0  0  0  0  0  0  0  0  0  0
   -3.1274    0.8128   -0.7811 C   0  0  0  0  0  0  0  0  0  0  0  0
   -3.3033    1.4471    0.0877 H   0  0  0  0  0  0  0  0  0  0  0  0
   -3.9801    0.9015   -1.4543 H   0  0  0  0  0  0  0  0  0  0  0  0
   -3.0316   -0.2238   -0.4563 H   0  0  0  0  0  0  0  0  0  0  0  0
   -0.1913    0.1554    1.7759 C   0  0  0  0  0  0  0  0  0  0  0  0
    0.9476   -0.0766    2.1748 O   0  0  0  0  0  0  0  0  0  0  0  0
   -1.1502    0.6393    2.5760 N   0  0  0  0  0  0  0  0  0  0  0  0
   -2.0581    0.8092    2.1736 H   0  0  0  0  0  0  0  0  0  0  0  0
   -0.9568    0.9369    3.9933 C   0  0  0  0  0  0  0  0  0  0  0  0
   -0.1600    1.6750    4.1097 H   0  0  0  0  0  0  0  0  0  0  0  0
   -1.8775    1.3307    4.4266 H   0  0  0  0  0  0  0  0  0  0  0  0
   -0.6678    0.0287    4.5244 H   0  0  0  0  0  0  0  0  0  0  0  0
  5  6  2  0  0  0  0
  5  7  1  0  0  0  0
  2  3  1  0  0  0  0
  2  4  1  0  0  0  0
  2  5  1  0  0  0  0
  1  2  1  0  0  0  0
 24 25  2  0  0  0  0
 24 26  1  0  0  0  0
 20 21  1  0  0  0  0
 20 22  1  0  0  0  0
 20 23  1  0  0  0  0
 16 17  1  0  0  0  0
 16 18  1  0  0  0  0
 16 19  1  0  0  0  0
 14 15  1  0  0  0  0
 14 16  1  0  0  0  0
 14 20  1  0  0  0  0
 11 12  1  0  0  0  0
 11 13  1  0  0  0  0
 11 14  1  0  0  0  0
  9 10  1  0  0  0  0
  9 11  1  0  0  0  0
  9 24  1  0  0  0  0
  7  8  1  0  0  0  0
  7  9  1  0  0  0  0
 28 29  1  0  0  0  0
 28 30  1  0  0  0  0
 28 31  1  0  0  0  0
 26 27  1  0  0  0  0
 26 28  1  0  0  0  0
M  END
$$$$
default_name
  -OEChem-02102213163D

 31 30  0     1  0  0  0  0  0999 V2000
   -3.5895   -3.5013    1.1082 H   0  0  0  0  0  0  0  0  0  0  0  0
   -3.5145   -2.5363    0.6082 C   0  0  0  0  0  0  0  0  0  0  0  0
   -4.2285   -1.8413    1.0452 H   0  0  0  0  0  0  0  0  0  0  0  0
   -3.7155   -2.6583   -0.4538 H   0  0  0  0  0  0  0  0  0  0  0  0
   -2.1155   -1.9963    0.7922 C   0  0  0  0  0  0  0  0  0  0  0  0
   -1.2875   -2.6383    1.4252 O   0  0  0  0  0  0  0  0  0  0  0  0
   -1.8575   -0.8123    0.2402 N   0  0  0  0  0  0  0  0  0  0  0  0
   -2.6005   -0.3333   -0.2478 H   0  0  0  0  0  0  0  0  0  0  0  0
   -0.5675   -0.1203    0.3102 C   0  0  1  0  0  0  0  0  0  0  0  0
    0.1932   -0.7715   -0.1219 H   0  0  0  0  0  0  0  0  0  0  0  0
   -0.6568    1.1713   -0.5294 C   0  0  0  0  0  0  0  0  0  0  0  0
   -0.6962    2.0259    0.1488 H   0  0  0  0  0  0  0  0  0  0  0  0
    0.2608    1.2565   -1.1158 H   0  0  0  0  0  0  0  0  0  0  0  0
   -1.8527    1.2608   -1.4951 C   0  0  0  0  0  0  0  0  0  0  0  0
   -1.8328    2.2169   -2.0181 H   0  0  0  0  0  0  0  0  0  0  0  0
   -1.8503    0.1288   -2.5266 C   0  0  0  0  0  0  0  0  0  0  0  0
   -1.8538   -0.8361   -2.0177 H   0  0  0  0  0  0  0  0  0  0  0  0
   -2.7377    0.2033   -3.1555 H   0  0  0  0  0  0  0  0  0  0  0  0
   -0.9707    0.1914   -3.1636 H   0  0  0  0  0  0  0  0  0  0  0  0
   -3.1596    1.1796   -0.7072 C   0  0  0  0  0  0  0  0  0  0  0  0
   -3.2036    1.9947    0.0150 H   0  0  0  0  0  0  0  0  0  0  0  0
   -4.0078    1.2705   -1.3858 H   0  0  0  0  0  0  0  0  0  0  0  0
   -3.2215    0.2273   -0.1794 H   0  0  0  0  0  0  0  0  0  0  0  0
   -0.1913    0.1554    1.7759 C   0  0  0  0  0  0  0  0  0  0  0  0
    0.9476   -0.0766    2.1748 O   0  0  0  0  0  0  0  0  0  0  0  0
   -1.1502    0.6393    2.5760 N   0  0  0  0  0  0  0  0  0  0  0  0
   -2.0581    0.8092    2.1736 H   0  0  0  0  0  0  0  0  0  0  0  0
   -0.9568    0.9369    3.9933 C   0  0  0  0  0  0  0  0  0  0  0  0
   -0.1600    1.6750    4.1097 H   0  0  0  0  0  0  0  0  0  0  0  0
   -1.8775    1.3307    4.4266 H   0  0  0  0  0  0  0  0  0  0  0  0
   -0.6678    0.0287    4.5244 H   0  0  0  0  0  0  0  0  0  0  0  0
  5  6  2  0  0  0  0
  5  7  1  0  0  0  0
  2  3  1  0  0  0  0
  2  4  1  0  0  0  0
  2  5  1  0  0  0  0
  1  2  1  0  0  0  0
 24 25  2  0  0  0  0
 24 26  1  0  0  0  0
 20 21  1  0  0  0  0
 20 22  1  0  0  0  0
 20 23  1  0  0  0  0
 16 17  1  0  0  0  0
 16 18  1  0  0  0  0
 16 19  1  0  0  0  0
 14 15  1  0  0  0  0
 14 16  1  0  0  0  0
 14 20  1  0  0  0  0
 11 12  1  0  0  0  0
 11 13  1  0  0  0  0
 11 14  1  0  0  0  0
  9 10  1  0  0  0  0
  9 11  1  0  0  0  0
  9 24  1  0  0  0  0
  7  8  1  0  0  0  0
  7  9  1  0  0  0  0
 28 29  1  0  0  0  0
 28 30  1  0  0  0  0
 28 31  1  0  0  0  0
 26 27  1  0  0  0  0
 26 28  1  0  0  0  0
M  END
$$$$
default_name
  -OEChem-02102213163D

 31 30  0     1  0  0  0  0  0999 V2000
   -3.5895   -3.5013    1.1082 H   0  0  0  0  0  0  0  0  0  0  0  0
   -3.5145   -2.5363    0.6082 C   0  0  0  0  0  0  0  0  0  0  0  0
   -4.2285   -1.8413    1.0452 H   0  0  0  0  0  0  0  0  0  0  0  0
   -3.7155   -2.6583   -0.4538 H   0  0  0  0  0  0  0  0  0  0  0  0
   -2.1155   -1.9963    0.7922 C   0  0  0  0  0  0  0  0  0  0  0  0
   -1.2875   -2.6383    1.4252 O   0  0  0  0  0  0  0  0  0  0  0  0
   -1.8575   -0.8123    0.2402 N   0  0  0  0  0  0  0  0  0  0  0  0
   -2.6005   -0.3333   -0.2478 H   0  0  0  0  0  0  0  0  0  0  0  0
   -0.5675   -0.1203    0.3102 C   0  0  1  0  0  0  0  0  0  0  0  0
    0.1932   -0.7715   -0.1219 H   0  0  0  0  0  0  0  0  0  0  0  0
   -0.6568    1.1713   -0.5294 C   0  0  0  0  0  0  0  0  0  0  0  0
   -0.6962    2.0259    0.1488 H   0  0  0  0  0  0  0  0  0  0  0  0
    0.2608    1.2565   -1.1158 H   0  0  0  0  0  0  0  0  0  0  0  0
   -1.8527    1.2608   -1.4951 C   0  0  0  0  0  0  0  0  0  0  0  0
   -1.6959    2.0767   -2.2007 H   0  0  0  0  0  0  0  0  0  0  0  0
   -2.0650   -0.0392   -2.2763 C   0  0  0  0  0  0  0  0  0  0  0  0
   -2.2075   -0.8691   -1.5828 H   0  0  0  0  0  0  0  0  0  0  0  0
   -2.9483    0.0526   -2.9087 H   0  0  0  0  0  0  0  0  0  0  0  0
   -1.2074   -0.2502   -2.9115 H   0  0  0  0  0  0  0  0  0  0  0  0
   -3.1301    1.5539   -0.7091 C   0  0  0  0  0  0  0  0  0  0  0  0
   -3.0196    2.4928   -0.1668 H   0  0  0  0  0  0  0  0  0  0  0  0
   -3.9737    1.6451   -1.3934 H   0  0  0  0  0  0  0  0  0  0  0  0
   -3.3275    0.7495    0.0003 H   0  0  0  0  0  0  0  0  0  0  0  0
   -0.1913    0.1554    1.7759 C   0  0  0  0  0  0  0  0  0  0  0  0
    0.9476   -0.0766    2.1748 O   0  0  0  0  0  0  0  0  0  0  0  0
   -1.1502    0.6393    2.5760 N   0  0  0  0  0  0  0  0  0  0  0  0
   -2.0581    0.8092    2.1736 H   0  0  0  0  0  0  0  0  0  0  0  0
   -0.9568    0.9369    3.9933 C   0  0  0  0  0  0  0  0  0  0  0  0
   -0.1600    1.6750    4.1097 H   0  0  0  0  0  0  0  0  0  0  0  0
   -1.8775    1.3307    4.4266 H   0  0  0  0  0  0  0  0  0  0  0  0
   -0.6678    0.0287    4.5244 H   0  0  0  0  0  0  0  0  0  0  0  0
  5  6  2  0  0  0  0
  5  7  1  0  0  0  0
  2  3  1  0  0  0  0
  2  4  1  0  0  0  0
  2  5  1  0  0  0  0
  1  2  1  0  0  0  0
 24 25  2  0  0  0  0
 24 26  1  0  0  0  0
 20 21  1  0  0  0  0
 20 22  1  0  0  0  0
 20 23  1  0  0  0  0
 16 17  1  0  0  0  0
 16 18  1  0  0  0  0
 16 19  1  0  0  0  0
 14 15  1  0  0  0  0
 14 16  1  0  0  0  0
 14 20  1  0  0  0  0
 11 12  1  0  0  0  0
 11 13  1  0  0  0  0
 11 14  1  0  0  0  0
  9 10  1  0  0  0  0
  9 11  1  0  0  0  0
  9 24  1  0  0  0  0
  7  8  1  0  0  0  0
  7  9  1  0  0  0  0
 28 29  1  0  0  0  0
 28 30  1  0  0  0  0
 28 31  1  0  0  0  0
 26 27  1  0  0  0  0
 26 28  1  0  0  0  0
M  END
$$$$
default_name
  -OEChem-02102213163D

 31 30  0     1  0  0  0  0  0999 V2000
   -3.5895   -3.5013    1.1082 H   0  0  0  0  0  0  0  0  0  0  0  0
   -3.5145   -2.5363    0.6082 C   0  0  0  0  0  0  0  0  0  0  0  0
   -4.2285   -1.8413    1.0452 H   0  0  0  0  0  0  0  0  0  0  0  0
   -3.7155   -2.6583   -0.4538 H   0  0  0  0  0  0  0  0  0  0  0  0
   -2.1155   -1.9963    0.7922 C   0  0  0  0  0  0  0  0  0  0  0  0
   -1.2875   -2.6383    1.4252 O   0  0  0  0  0  0  0  0  0  0  0  0
   -1.8575   -0.8123    0.2402 N   0  0  0  0  0  0  0  0  0  0  0  0
   -2.6005   -0.3333   -0.2478 H   0  0  0  0  0  0  0  0  0  0  0  0
   -0.5675   -0.1203    0.3102 C   0  0  1  0  0  0  0  0  0  0  0  0
    0.1932   -0.7715   -0.1219 H   0  0  0  0  0  0  0  0  0  0  0  0
   -0.6568    1.1713   -0.5294 C   0  0  0  0  0  0  0  0  0  0  0  0
   -0.6962    2.0259    0.1488 H   0  0  0  0  0  0  0  0  0  0  0  0
    0.2608    1.2565   -1.1158 H   0  0  0  0  0  0  0  0  0  0  0  0
   -1.8527    1.2608   -1.4951 C   0  0  0  0  0  0  0  0  0  0  0  0
   -1.5891    1.8823   -2.3509 H   0  0  0  0  0  0  0  0  0  0  0  0
   -2.2959   -0.1164   -1.9975 C   0  0  0  0  0  0  0  0  0  0  0  0
   -2.5479   -0.7562   -1.1507 H   0  0  0  0  0  0  0  0  0  0  0  0
   -3.1725   -0.0093   -2.6368 H   0  0  0  0  0  0  0  0  0  0  0  0
   -1.5039   -0.5876   -2.5756 H   0  0  0  0  0  0  0  0  0  0  0  0
   -3.0408    1.9103   -0.7867 C   0  0  0  0  0  0  0  0  0  0  0  0
   -2.7637    2.9076   -0.4453 H   0  0  0  0  0  0  0  0  0  0  0  0
   -3.8800    1.9999   -1.4765 H   0  0  0  0  0  0  0  0  0  0  0  0
   -3.3425    1.3073    0.0705 H   0  0  0  0  0  0  0  0  0  0  0  0
   -0.1913    0.1554    1.7759 C   0  0  0  0  0  0  0  0  0  0  0  0
    0.9476   -0.0766    2.1748 O   0  0  0  0  0  0  0  0  0  0  0  0
   -1.1502    0.6393    2.5760 N   0  0  0  0  0  0  0  0  0  0  0  0
   -2.0581    0.8092    2.1736 H   0  0  0  0  0  0  0  0  0  0  0  0
   -0.9568    0.9369    3.9933 C   0  0  0  0  0  0  0  0  0  0  0  0
   -0.1600    1.6750    4.1097 H   0  0  0  0  0  0  0  0  0  0  0  0
   -1.8775    1.3307    4.4266 H   0  0  0  0  0  0  0  0  0  0  0  0
   -0.6678    0.0287    4.5244 H   0  0  0  0  0  0  0  0  0  0  0  0
  5  6  2  0  0  0  0
  5  7  1  0  0  0  0
  2  3  1  0  0  0  0
  2  4  1  0  0  0  0
  2  5  1  0  0  0  0
  1  2  1  0  0  0  0
 24 25  2  0  0  0  0
 24 26  1  0  0  0  0
 20 21  1  0  0  0  0
 20 22  1  0  0  0  0
 20 23  1  0  0  0  0
 16 17  1  0  0  0  0
 16 18  1  0  0  0  0
 16 19  1  0  0  0  0
 14 15  1  0  0  0  0
 14 16  1  0  0  0  0
 14 20  1  0  0  0  0
 11 12  1  0  0  0  0
 11 13  1  0  0  0  0
 11 14  1  0  0  0  0
  9 10  1  0  0  0  0
  9 11  1  0  0  0  0
  9 24  1  0  0  0  0
  7  8  1  0  0  0  0
  7  9  1  0  0  0  0
 28 29  1  0  0  0  0
 28 30  1  0  0  0  0
 28 31  1  0  0  0  0
 26 27  1  0  0  0  0
 26 28  1  0  0  0  0
M  END
$$$$
default_name
  -OEChem-02102213163D

 31 30  0     1  0  0  0  0  0999 V2000
   -3.5895   -3.5013    1.1082 H   0  0  0  0  0  0  0  0  0  0  0  0
   -3.5145   -2.5363    0.6082 C   0  0  0  0  0  0  0  0  0  0  0  0
   -4.2285   -1.8413    1.0452 H   0  0  0  0  0  0  0  0  0  0  0  0
   -3.7155   -2.6583   -0.4538 H   0  0  0  0  0  0  0  0  0  0  0  0
   -2.1155   -1.9963    0.7922 C   0  0  0  0  0  0  0  0  0  0  0  0
   -1.2875   -2.6383    1.4252 O   0  0  0  0  0  0  0  0  0  0  0  0
   -1.8575   -0.8123    0.2402 N   0  0  0  0  0  0  0  0  0  0  0  0
   -2.6005   -0.3333   -0.2478 H   0  0  0  0  0  0  0  0  0  0  0  0
   -0.5675   -0.1203    0.3102 C   0  0  1  0  0  0  0  0  0  0  0  0
    0.1932   -0.7715   -0.1219 H   0  0  0  0  0  0  0  0  0  0  0  0
   -0.6568    1.1713   -0.5294 C   0  0  0  0  0  0  0  0  0  0  0  0
   -0.6962    2.0259    0.1488 H   0  0  0  0  0  0  0  0  0  0  0  0
    0.2608    1.2565   -1.1158 H   0  0  0  0  0  0  0  0  0  0  0  0
   -1.8527    1.2608   -1.4951 C   0  0  0  0  0  0  0  0  0  0  0  0
   -1.5198    1.6471   -2.4585 H   0  0  0  0  0  0  0  0  0  0  0  0
   -2.5272   -0.0973   -1.7093 C   0  0  0  0  0  0  0  0  0  0  0  0
   -2.8519   -0.5050   -0.7510 H   0  0  0  0  0  0  0  0  0  0  0  0
   -3.3950    0.0220   -2.3584 H   0  0  0  0  0  0  0  0  0  0  0  0
   -1.8399   -0.7978   -2.1788 H   0  0  0  0  0  0  0  0  0  0  0  0
   -2.8979    2.2244   -0.9346 C   0  0  0  0  0  0  0  0  0  0  0  0
   -2.4534    3.2107   -0.8015 H   0  0  0  0  0  0  0  0  0  0  0  0
   -3.7331    2.3107   -1.6296 H   0  0  0  0  0  0  0  0  0  0  0  0
   -3.2653    1.8627    0.0264 H   0  0  0  0  0  0  0  0  0  0  0  0
   -0.1913    0.1554    1.7759 C   0  0  0  0  0  0  0  0  0  0  0  0
    0.9476   -0.0766    2.1748 O   0  0  0  0  0  0  0  0  0  0  0  0
   -1.1502    0.6393    2.5760 N   0  0  0  0  0  0  0  0  0  0  0  0
   -2.0581    0.8092    2.1736 H   0  0  0  0  0  0  0  0  0  0  0  0
   -0.9568    0.9369    3.9933 C   0  0  0  0  0  0  0  0  0  0  0  0
   -0.1600    1.6750    4.1097 H   0  0  0  0  0  0  0  0  0  0  0  0
   -1.8775    1.3307    4.4266 H   0  0  0  0  0  0  0  0  0  0  0  0
   -0.6678    0.0287    4.5244 H   0  0  0  0  0  0  0  0  0  0  0  0
  5  6  2  0  0  0  0
  5  7  1  0  0  0  0
  2  3  1  0  0  0  0
  2  4  1  0  0  0  0
  2  5  1  0  0  0  0
  1  2  1  0  0  0  0
 24 25  2  0  0  0  0
 24 26  1  0  0  0  0
 20 21  1  0  0  0  0
 20 22  1  0  0  0  0
 20 23  1  0  0  0  0
 16 17  1  0  0  0  0
 16 18  1  0  0  0  0
 16 19  1  0  0  0  0
 14 15  1  0  0  0  0
 14 16  1  0  0  0  0
 14 20  1  0  0  0  0
 11 12  1  0  0  0  0
 11 13  1  0  0  0  0
 11 14  1  0  0  0  0
  9 10  1  0  0  0  0
  9 11  1  0  0  0  0
  9 24  1  0  0  0  0
  7  8  1  0  0  0  0
  7  9  1  0  0  0  0
 28 29  1  0  0  0  0
 28 30  1  0  0  0  0
 28 31  1  0  0  0  0
 26 27  1  0  0  0  0
 26 28  1  0  0  0  0
M  END
$$$$
default_name
  -OEChem-02102213163D

 31 30  0     1  0  0  0  0  0999 V2000
   -3.5895   -3.5013    1.1082 H   0  0  0  0  0  0  0  0  0  0  0  0
   -3.5145   -2.5363    0.6082 C   0  0  0  0  0  0  0  0  0  0  0  0
   -4.2285   -1.8413    1.0452 H   0  0  0  0  0  0  0  0  0  0  0  0
   -3.7155   -2.6583   -0.4538 H   0  0  0  0  0  0  0  0  0  0  0  0
   -2.1155   -1.9963    0.7922 C   0  0  0  0  0  0  0  0  0  0  0  0
   -1.2875   -2.6383    1.4252 O   0  0  0  0  0  0  0  0  0  0  0  0
   -1.8575   -0.8123    0.2402 N   0  0  0  0  0  0  0  0  0  0  0  0
   -2.6005   -0.3333   -0.2478 H   0  0  0  0  0  0  0  0  0  0  0  0
   -0.5675   -0.1203    0.3102 C   0  0  1  0  0  0  0  0  0  0  0  0
    0.1932   -0.7715   -0.1219 H   0  0  0  0  0  0  0  0  0  0  0  0
   -0.6568    1.1713   -0.5294 C   0  0  0  0  0  0  0  0  0  0  0  0
   -0.6962    2.0259    0.1488 H   0  0  0  0  0  0  0  0  0  0  0  0
    0.2608    1.2565   -1.1158 H   0  0  0  0  0  0  0  0  0  0  0  0
   -1.8527    1.2608   -1.4951 C   0  0  0  0  0  0  0  0  0  0  0  0
   -1.4927    1.3869   -2.5162 H   0  0  0  0  0  0  0  0  0  0  0  0
   -2.7432    0.0165   -1.4312 C   0  0  0  0  0  0  0  0  0  0  0  0
   -3.0988   -0.1326   -0.4108 H   0  0  0  0  0  0  0  0  0  0  0  0
   -3.6006    0.1443   -2.0924 H   0  0  0  0  0  0  0  0  0  0  0  0
   -2.1927   -0.8666   -1.7483 H   0  0  0  0  0  0  0  0  0  0  0  0
   -2.7111    2.4750   -1.1427 C   0  0  0  0  0  0  0  0  0  0  0  0
   -2.1098    3.3815   -1.2112 H   0  0  0  0  0  0  0  0  0  0  0  0
   -3.5431    2.5563   -1.8421 H   0  0  0  0  0  0  0  0  0  0  0  0
   -3.1013    2.3777   -0.1290 H   0  0  0  0  0  0  0  0  0  0  0  0
   -0.1913    0.1554    1.7759 C   0  0  0  0  0  0  0  0  0  0  0  0
    0.9476   -0.0766    2.1748 O   0  0  0  0  0  0  0  0  0  0  0  0
   -1.1502    0.6393    2.5760 N   0  0  0  0  0  0  0  0  0  0  0  0
   -2.0581    0.8092    2.1736 H   0  0  0  0  0  0  0  0  0  0  0  0
   -0.9568    0.9369    3.9933 C   0  0  0  0  0  0  0  0  0  0  0  0
   -0.1600    1.6750    4.1097 H   0  0  0  0  0  0  0  0  0  0  0  0
   -1.8775    1.3307    4.4266 H   0  0  0  0  0  0  0  0  0  0  0  0
   -0.6678    0.0287    4.5244 H   0  0  0  0  0  0  0  0  0  0  0  0
  5  6  2  0  0  0  0
  5  7  1  0  0  0  0
  2  3  1  0  0  0  0
  2  4  1  0  0  0  0
  2  5  1  0  0  0  0
  1  2  1  0  0  0  0
 24 25  2  0  0  0  0
 24 26  1  0  0  0  0
 20 21  1  0  0  0  0
 20 22  1  0  0  0  0
 20 23  1  0  0  0  0
 16 17  1  0  0  0  0
 16 18  1  0  0  0  0
 16 19  1  0  0  0  0
 14 15  1  0  0  0  0
 14 16  1  0  0  0  0
 14 20  1  0  0  0  0
 11 12  1  0  0  0  0
 11 13  1  0  0  0  0
 11 14  1  0  0  0  0
  9 10  1  0  0  0  0
  9 11  1  0  0  0  0
  9 24  1  0  0  0  0
  7  8  1  0  0  0  0
  7  9  1  0  0  0  0
 28 29  1  0  0  0  0
 28 30  1  0  0  0  0
 28 31  1  0  0  0  0
 26 27  1  0  0  0  0
 26 28  1  0  0  0  0
M  END
$$$$
default_name
  -OEChem-02102213163D

 31 30  0     1  0  0  0  0  0999 V2000
   -3.5895   -3.5013    1.1082 H   0  0  0  0  0  0  0  0  0  0  0  0
   -3.5145   -2.5363    0.6082 C   0  0  0  0  0  0  0  0  0  0  0  0
   -4.2285   -1.8413    1.0452 H   0  0  0  0  0  0  0  0  0  0  0  0
   -3.7155   -2.6583   -0.4538 H   0  0  0  0  0  0  0  0  0  0  0  0
   -2.1155   -1.9963    0.7922 C   0  0  0  0  0  0  0  0  0  0  0  0
   -1.2875   -2.6383    1.4252 O   0  0  0  0  0  0  0  0  0  0  0  0
   -1.8575   -0.8123    0.2402 N   0  0  0  0  0  0  0  0  0  0  0  0
   -2.6005   -0.3333   -0.2478 H   0  0  0  0  0  0  0  0  0  0  0  0
   -0.5675   -0.1203    0.3102 C   0  0  1  0  0  0  0  0  0  0  0  0
    0.1932   -0.7715   -0.1219 H   0  0  0  0  0  0  0  0  0  0  0  0
   -0.6568    1.1713   -0.5294 C   0  0  0  0  0  0  0  0  0  0  0  0
   -0.6962    2.0259    0.1488 H   0  0  0  0  0  0  0  0  0  0  0  0
    0.2608    1.2565   -1.1158 H   0  0  0  0  0  0  0  0  0  0  0  0
   -1.8527    1.2608   -1.4951 C   0  0  0  0  0  0  0  0  0  0  0  0
   -1.5096    1.1197   -2.5201 H   0  0  0  0  0  0  0  0  0  0  0  0
   -2.9292    0.2175   -1.1822 C   0  0  0  0  0  0  0  0  0  0  0  0
   -3.2716    0.3355   -0.1533 H   0  0  0  0  0  0  0  0  0  0  0  0
   -3.7754    0.3493   -1.8569 H   0  0  0  0  0  0  0  0  0  0  0  0
   -2.5382   -0.7892   -1.3133 H   0  0  0  0  0  0  0  0  0  0  0  0
   -2.4931    2.6448   -1.3969 C   0  0  0  0  0  0  0  0  0  0  0  0
   -1.7564    3.4083   -1.6464 H   0  0  0  0  0  0  0  0  0  0  0  0
   -3.3230    2.7200   -2.0996 H   0  0  0  0  0  0  0  0  0  0  0  0
   -2.8616    2.8173   -0.3851 H   0  0  0  0  0  0  0  0  0  0  0  0
   -0.1913    0.1554    1.7759 C   0  0  0  0  0  0  0  0  0  0  0  0
    0.9476   -0.0766    2.1748 O   0  0  0  0  0  0  0  0  0  0  0  0
   -1.1502    0.6393    2.5760 N   0  0  0  0  0  0  0  0  0  0  0  0
   -2.0581    0.8092    2.1736 H   0  0  0  0  0  0  0  0  0  0  0  0
   -0.9568    0.9369    3.9933 C   0  0  0  0  0  0  0  0  0  0  0  0
   -0.1600    1.6750    4.1097 H   0  0  0  0  0  0  0  0  0  0  0  0
   -1.8775    1.3307    4.4266 H   0  0  0  0  0  0  0  0  0  0  0  0
   -0.6678    0.0287    4.5244 H   0  0  0  0  0  0  0  0  0  0  0  0
  5  6  2  0  0  0  0
  5  7  1  0  0  0  0
  2  3  1  0  0  0  0
  2  4  1  0  0  0  0
  2  5  1  0  0  0  0
  1  2  1  0  0  0  0
 24 25  2  0  0  0  0
 24 26  1  0  0  0  0
 20 21  1  0  0  0  0
 20 22  1  0  0  0  0
 20 23  1  0  0  0  0
 16 17  1  0  0  0  0
 16 18  1  0  0  0  0
 16 19  1  0  0  0  0
 14 15  1  0  0  0  0
 14 16  1  0  0  0  0
 14 20  1  0  0  0  0
 11 12  1  0  0  0  0
 11 13  1  0  0  0  0
 11 14  1  0  0  0  0
  9 10  1  0  0  0  0
  9 11  1  0  0  0  0
  9 24  1  0  0  0  0
  7  8  1  0  0  0  0
  7  9  1  0  0  0  0
 28 29  1  0  0  0  0
 28 30  1  0  0  0  0
 28 31  1  0  0  0  0
 26 27  1  0  0  0  0
 26 28  1  0  0  0  0
M  END
$$$$
default_name
  -OEChem-02102213163D

 31 30  0     1  0  0  0  0  0999 V2000
   -3.5895   -3.5013    1.1082 H   0  0  0  0  0  0  0  0  0  0  0  0
   -3.5145   -2.5363    0.6082 C   0  0  0  0  0  0  0  0  0  0  0  0
   -4.2285   -1.8413    1.0452 H   0  0  0  0  0  0  0  0  0  0  0  0
   -3.7155   -2.6583   -0.4538 H   0  0  0  0  0  0  0  0  0  0  0  0
   -2.1155   -1.9963    0.7922 C   0  0  0  0  0  0  0  0  0  0  0  0
   -1.2875   -2.6383    1.4252 O   0  0  0  0  0  0  0  0  0  0  0  0
   -1.8575   -0.8123    0.2402 N   0  0  0  0  0  0  0  0  0  0  0  0
   -2.6005   -0.3333   -0.2478 H   0  0  0  0  0  0  0  0  0  0  0  0
   -0.5675   -0.1203    0.3102 C   0  0  1  0  0  0  0  0  0  0  0  0
    0.1932   -0.7715   -0.1219 H   0  0  0  0  0  0  0  0  0  0  0  0
   -0.6568    1.1713   -0.5294 C   0  0  0  0  0  0  0  0  0  0  0  0
   -0.6962    2.0259    0.1488 H   0  0  0  0  0  0  0  0  0  0  0  0
    0.2608    1.2565   -1.1158 H   0  0  0  0  0  0  0  0  0  0  0  0
   -1.8527    1.2608   -1.4951 C   0  0  0  0  0  0  0  0  0  0  0  0
   -1.5693    0.8635   -2.4698 H   0  0  0  0  0  0  0  0  0  0  0  0
   -3.0725    0.4918   -0.9794 C   0  0  0  0  0  0  0  0  0  0  0  0
   -3.3588    0.8675    0.0039 H   0  0  0  0  0  0  0  0  0  0  0  0
   -3.9074    0.6230   -1.6681 H   0  0  0  0  0  0  0  0  0  0  0  0
   -2.8528   -0.5709   -0.9035 H   0  0  0  0  0  0  0  0  0  0  0  0
   -2.2588    2.7224   -1.6799 C   0  0  0  0  0  0  0  0  0  0  0  0
   -1.4171    3.2894   -2.0775 H   0  0  0  0  0  0  0  0  0  0  0  0
   -3.0876    2.7906   -2.3846 H   0  0  0  0  0  0  0  0  0  0  0  0
   -2.5626    3.1515   -0.7244 H   0  0  0  0  0  0  0  0  0  0  0  0
   -0.1913    0.1554    1.7759 C   0  0  0  0  0  0  0  0  0  0  0  0
    0.9476   -0.0766    2.1748 O   0  0  0  0  0  0  0  0  0  0  0  0
   -1.1502    0.6393    2.5760 N   0  0  0  0  0  0  0  0  0  0  0  0
   -2.0581    0.8092    2.1736 H   0  0  0  0  0  0  0  0  0  0  0  0
   -0.9568    0.9369    3.9933 C   0  0  0  0  0  0  0  0  0  0  0  0
   -0.1600    1.6750    4.1097 H   0  0  0  0  0  0  0  0  0  0  0  0
   -1.8775    1.3307    4.4266 H   0  0  0  0  0  0  0  0  0  0  0  0
   -0.6678    0.0287    4.5244 H   0  0  0  0  0  0  0  0  0  0  0  0
  5  6  2  0  0  0  0
  5  7  1  0  0  0  0
  2  3  1  0  0  0  0
  2  4  1  0  0  0  0
  2  5  1  0  0  0  0
  1  2  1  0  0  0  0
 24 25  2  0  0  0  0
 24 26  1  0  0  0  0
 20 21  1  0  0  0  0
 20 22  1  0  0  0  0
 20 23  1  0  0  0  0
 16 17  1  0  0  0  0
 16 18  1  0  0  0  0
 16 19  1  0  0  0  0
 14 15  1  0  0  0  0
 14 16  1  0  0  0  0
 14 20  1  0  0  0  0
 11 12  1  0  0  0  0
 11 13  1  0  0  0  0
 11 14  1  0  0  0  0
  9 10  1  0  0  0  0
  9 11  1  0  0  0  0
  9 24  1  0  0  0  0
  7  8  1  0  0  0  0
  7  9  1  0  0  0  0
 28 29  1  0  0  0  0
 28 30  1  0  0  0  0
 28 31  1  0  0  0  0
 26 27  1  0  0  0  0
 26 28  1  0  0  0  0
M  END
$$$$
default_name
  -OEChem-02102213163D

 31 30  0     1  0  0  0  0  0999 V2000
   -3.5895   -3.5013    1.1082 H   0  0  0  0  0  0  0  0  0  0  0  0
   -3.5145   -2.5363    0.6082 C   0  0  0  0  0  0  0  0  0  0  0  0
   -4.2285   -1.8413    1.0452 H   0  0  0  0  0  0  0  0  0  0  0  0
   -3.7155   -2.6583   -0.4538 H   0  0  0  0  0  0  0  0  0  0  0  0
   -2.1155   -1.9963    0.7922 C   0  0  0  0  0  0  0  0  0  0  0  0
   -1.2875   -2.6383    1.4252 O   0  0  0  0  0  0  0  0  0  0  0  0
   -1.8575   -0.8123    0.2402 N   0  0  0  0  0  0  0  0  0  0  0  0
   -2.6005   -0.3333   -0.2478 H   0  0  0  0  0  0  0  0  0  0  0  0
   -0.5675   -0.1203    0.3102 C   0  0  1  0  0  0  0  0  0  0  0  0
    0.1932   -0.7715   -0.1219 H   0  0  0  0  0  0  0  0  0  0  0  0
   -0.6568    1.1713   -0.5294 C   0  0  0  0  0  0  0  0  0  0  0  0
   -0.6962    2.0259    0.1488 H   0  0  0  0  0  0  0  0  0  0  0  0
    0.2608    1.2565   -1.1158 H   0  0  0  0  0  0  0  0  0  0  0  0
   -1.8527    1.2608   -1.4951 C   0  0  0  0  0  0  0  0  0  0  0  0
   -1.6679    0.6358   -2.3688 H   0  0  0  0  0  0  0  0  0  0  0  0
   -3.1633    0.8208   -0.8364 C   0  0  0  0  0  0  0  0  0  0  0  0
   -3.3542    1.4272    0.0501 H   0  0  0  0  0  0  0  0  0  0  0  0
   -3.9876    0.9468   -1.5387 H   0  0  0  0  0  0  0  0  0  0  0  0
   -3.1151   -0.2267   -0.5468 H   0  0  0  0  0  0  0  0  0  0  0  0
   -2.0242    2.7024   -1.9724 C   0  0  0  0  0  0  0  0  0  0  0  0
   -1.1153    3.0327   -2.4751 H   0  0  0  0  0  0  0  0  0  0  0  0
   -2.8530    2.7633   -2.6776 H   0  0  0  0  0  0  0  0  0  0  0  0
   -2.2246    3.3576   -1.1239 H   0  0  0  0  0  0  0  0  0  0  0  0
   -0.1913    0.1554    1.7759 C   0  0  0  0  0  0  0  0  0  0  0  0
    0.9476   -0.0766    2.1748 O   0  0  0  0  0  0  0  0  0  0  0  0
   -1.1502    0.6393    2.5760 N   0  0  0  0  0  0  0  0  0  0  0  0
   -2.0581    0.8092    2.1736 H   0  0  0  0  0  0  0  0  0  0  0  0
   -0.9568    0.9369    3.9933 C   0  0  0  0  0  0  0  0  0  0  0  0
   -0.1600    1.6750    4.1097 H   0  0  0  0  0  0  0  0  0  0  0  0
   -1.8775    1.3307    4.4266 H   0  0  0  0  0  0  0  0  0  0  0  0
   -0.6678    0.0287    4.5244 H   0  0  0  0  0  0  0  0  0  0  0  0
  5  6  2  0  0  0  0
  5  7  1  0  0  0  0
  2  3  1  0  0  0  0
  2  4  1  0  0  0  0
  2  5  1  0  0  0  0
  1  2  1  0  0  0  0
 24 25  2  0  0  0  0
 24 26  1  0  0  0  0
 20 21  1  0  0  0  0
 20 22  1  0  0  0  0
 20 23  1  0  0  0  0
 16 17  1  0  0  0  0
 16 18  1  0  0  0  0
 16 19  1  0  0  0  0
 14 15  1  0  0  0  0
 14 16  1  0  0  0  0
 14 20  1  0  0  0  0
 11 12  1  0  0  0  0
 11 13  1  0  0  0  0
 11 14  1  0  0  0  0
  9 10  1  0  0  0  0
  9 11  1  0  0  0  0
  9 24  1  0  0  0  0
  7  8  1  0  0  0  0
  7  9  1  0  0  0  0
 28 29  1  0  0  0  0
 28 30  1  0  0  0  0
 28 31  1  0  0  0  0
 26 27  1  0  0  0  0
 26 28  1  0  0  0  0
M  END
$$$$
default_name
  -OEChem-02102213163D

 31 30  0     1  0  0  0  0  0999 V2000
   -3.5895   -3.5013    1.1082 H   0  0  0  0  0  0  0  0  0  0  0  0
   -3.5145   -2.5363    0.6082 C   0  0  0  0  0  0  0  0  0  0  0  0
   -4.2285   -1.8413    1.0452 H   0  0  0  0  0  0  0  0  0  0  0  0
   -3.7155   -2.6583   -0.4538 H   0  0  0  0  0  0  0  0  0  0  0  0
   -2.1155   -1.9963    0.7922 C   0  0  0  0  0  0  0  0  0  0  0  0
   -1.2875   -2.6383    1.4252 O   0  0  0  0  0  0  0  0  0  0  0  0
   -1.8575   -0.8123    0.2402 N   0  0  0  0  0  0  0  0  0  0  0  0
   -2.6005   -0.3333   -0.2478 H   0  0  0  0  0  0  0  0  0  0  0  0
   -0.5675   -0.1203    0.3102 C   0  0  1  0  0  0  0  0  0  0  0  0
    0.1932   -0.7715   -0.1219 H   0  0  0  0  0  0  0  0  0  0  0  0
   -0.6568    1.1713   -0.5294 C   0  0  0  0  0  0  0  0  0  0  0  0
   -0.6962    2.0259    0.1488 H   0  0  0  0  0  0  0  0  0  0  0  0
    0.2608    1.2565   -1.1158 H   0  0  0  0  0  0  0  0  0  0  0  0
   -1.8527    1.2608   -1.4951 C   0  0  0  0  0  0  0  0  0  0  0  0
   -1.7985    0.4522   -2.2241 H   0  0  0  0  0  0  0  0  0  0  0  0
   -3.1955    1.1821   -0.7631 C   0  0  0  0  0  0  0  0  0  0  0  0
   -3.2583    1.9763   -0.0178 H   0  0  0  0  0  0  0  0  0  0  0  0
   -4.0106    1.2986   -1.4777 H   0  0  0  0  0  0  0  0  0  0  0  0
   -3.3072    0.2202   -0.2675 H   0  0  0  0  0  0  0  0  0  0  0  0
   -1.8052    2.5862   -2.2544 C   0  0  0  0  0  0  0  0  0  0  0  0
   -0.8713    2.6559   -2.8121 H   0  0  0  0  0  0  0  0  0  0  0  0
   -2.6353    2.6399   -2.9586 H   0  0  0  0  0  0  0  0  0  0  0  0
   -1.8707    3.4215   -1.5563 H   0  0  0  0  0  0  0  0  0  0  0  0
   -0.1913    0.1554    1.7759 C   0  0  0  0  0  0  0  0  0  0  0  0
    0.9476   -0.0766    2.1748 O   0  0  0  0  0  0  0  0  0  0  0  0
   -1.1502    0.6393    2.5760 N   0  0  0  0  0  0  0  0  0  0  0  0
   -2.0581    0.8092    2.1736 H   0  0  0  0  0  0  0  0  0  0  0  0
   -0.9568    0.9369    3.9933 C   0  0  0  0  0  0  0  0  0  0  0  0
   -0.1600    1.6750    4.1097 H   0  0  0  0  0  0  0  0  0  0  0  0
   -1.8775    1.3307    4.4266 H   0  0  0  0  0  0  0  0  0  0  0  0
   -0.6678    0.0287    4.5244 H   0  0  0  0  0  0  0  0  0  0  0  0
  5  6  2  0  0  0  0
  5  7  1  0  0  0  0
  2  3  1  0  0  0  0
  2  4  1  0  0  0  0
  2  5  1  0  0  0  0
  1  2  1  0  0  0  0
 24 25  2  0  0  0  0
 24 26  1  0  0  0  0
 20 21  1  0  0  0  0
 20 22  1  0  0  0  0
 20 23  1  0  0  0  0
 16 17  1  0  0  0  0
 16 18  1  0  0  0  0
 16 19  1  0  0  0  0
 14 15  1  0  0  0  0
 14 16  1  0  0  0  0
 14 20  1  0  0  0  0
 11 12  1  0  0  0  0
 11 13  1  0  0  0  0
 11 14  1  0  0  0  0
  9 10  1  0  0  0  0
  9 11  1  0  0  0  0
  9 24  1  0  0  0  0
  7  8  1  0  0  0  0
  7  9  1  0  0  0  0
 28 29  1  0  0  0  0
 28 30  1  0  0  0  0
 28 31  1  0  0  0  0
 26 27  1  0  0  0  0
 26 28  1  0  0  0  0
M  END
$$$$
default_name
  -OEChem-02102213163D

 31 30  0     1  0  0  0  0  0999 V2000
   -3.5895   -3.5013    1.1082 H   0  0  0  0  0  0  0  0  0  0  0  0
   -3.5145   -2.5363    0.6082 C   0  0  0  0  0  0  0  0  0  0  0  0
   -4.2285   -1.8413    1.0452 H   0  0  0  0  0  0  0  0  0  0  0  0
   -3.7155   -2.6583   -0.4538 H   0  0  0  0  0  0  0  0  0  0  0  0
   -2.1155   -1.9963    0.7922 C   0  0  0  0  0  0  0  0  0  0  0  0
   -1.2875   -2.6383    1.4252 O   0  0  0  0  0  0  0  0  0  0  0  0
   -1.8575   -0.8123    0.2402 N   0  0  0  0  0  0  0  0  0  0  0  0
   -2.6005   -0.3333   -0.2478 H   0  0  0  0  0  0  0  0  0  0  0  0
   -0.5675   -0.1203    0.3102 C   0  0  1  0  0  0  0  0  0  0  0  0
    0.1932   -0.7715   -0.1219 H   0  0  0  0  0  0  0  0  0  0  0  0
   -0.6568    1.1713   -0.5294 C   0  0  0  0  0  0  0  0  0  0  0  0
   -0.6962    2.0259    0.1488 H   0  0  0  0  0  0  0  0  0  0  0  0
    0.2608    1.2565   -1.1158 H   0  0  0  0  0  0  0  0  0  0  0  0
   -1.8527    1.2608   -1.4951 C   0  0  0  0  0  0  0  0  0  0  0  0
   -1.9523    0.3251   -2.0454 H   0  0  0  0  0  0  0  0  0  0  0  0
   -3.1668    1.5511   -0.7644 C   0  0  0  0  0  0  0  0  0  0  0  0
   -3.0775    2.4774   -0.1953 H   0  0  0  0  0  0  0  0  0  0  0  0
   -3.9748    1.6544   -1.4891 H   0  0  0  0  0  0  0  0  0  0  0  0
   -3.4160    0.7391   -0.0847 H   0  0  0  0  0  0  0  0  0  0  0  0
   -1.6167    2.3817   -2.5067 C   0  0  0  0  0  0  0  0  0  0  0  0
   -0.7020    2.1846   -3.0656 H   0  0  0  0  0  0  0  0  0  0  0  0
   -2.4493    2.4290   -3.2086 H   0  0  0  0  0  0  0  0  0  0  0  0
   -1.5250    3.3388   -1.9921 H   0  0  0  0  0  0  0  0  0  0  0  0
   -0.1913    0.1554    1.7759 C   0  0  0  0  0  0  0  0  0  0  0  0
    0.9476   -0.0766    2.1748 O   0  0  0  0  0  0  0  0  0  0  0  0
   -1.1502    0.6393    2.5760 N   0  0  0  0  0  0  0  0  0  0  0  0
   -2.0581    0.8092    2.1736 H   0  0  0  0  0  0  0  0  0  0  0  0
   -0.9568    0.9369    3.9933 C   0  0  0  0  0  0  0  0  0  0  0  0
   -0.1600    1.6750    4.1097 H   0  0  0  0  0  0  0  0  0  0  0  0
   -1.8775    1.3307    4.4266 H   0  0  0  0  0  0  0  0  0  0  0  0
   -0.6678    0.0287    4.5244 H   0  0  0  0  0  0  0  0  0  0  0  0
  5  6  2  0  0  0  0
  5  7  1  0  0  0  0
  2  3  1  0  0  0  0
  2  4  1  0  0  0  0
  2  5  1  0  0  0  0
  1  2  1  0  0  0  0
 24 25  2  0  0  0  0
 24 26  1  0  0  0  0
 20 21  1  0  0  0  0
 20 22  1  0  0  0  0
 20 23  1  0  0  0  0
 16 17  1  0  0  0  0
 16 18  1  0  0  0  0
 16 19  1  0  0  0  0
 14 15  1  0  0  0  0
 14 16  1  0  0  0  0
 14 20  1  0  0  0  0
 11 12  1  0  0  0  0
 11 13  1  0  0  0  0
 11 14  1  0  0  0  0
  9 10  1  0  0  0  0
  9 11  1  0  0  0  0
  9 24  1  0  0  0  0
  7  8  1  0  0  0  0
  7  9  1  0  0  0  0
 28 29  1  0  0  0  0
 28 30  1  0  0  0  0
 28 31  1  0  0  0  0
 26 27  1  0  0  0  0
 26 28  1  0  0  0  0
M  END
$$$$
default_name
  -OEChem-02102213163D

 31 30  0     1  0  0  0  0  0999 V2000
   -3.5895   -3.5013    1.1082 H   0  0  0  0  0  0  0  0  0  0  0  0
   -3.5145   -2.5363    0.6082 C   0  0  0  0  0  0  0  0  0  0  0  0
   -4.2285   -1.8413    1.0452 H   0  0  0  0  0  0  0  0  0  0  0  0
   -3.7155   -2.6583   -0.4538 H   0  0  0  0  0  0  0  0  0  0  0  0
   -2.1155   -1.9963    0.7922 C   0  0  0  0  0  0  0  0  0  0  0  0
   -1.2875   -2.6383    1.4252 O   0  0  0  0  0  0  0  0  0  0  0  0
   -1.8575   -0.8123    0.2402 N   0  0  0  0  0  0  0  0  0  0  0  0
   -2.6005   -0.3333   -0.2478 H   0  0  0  0  0  0  0  0  0  0  0  0
   -0.5675   -0.1203    0.3102 C   0  0  1  0  0  0  0  0  0  0  0  0
    0.1932   -0.7715   -0.1219 H   0  0  0  0  0  0  0  0  0  0  0  0
   -0.6568    1.1713   -0.5294 C   0  0  0  0  0  0  0  0  0  0  0  0
   -0.6962    2.0259    0.1488 H   0  0  0  0  0  0  0  0  0  0  0  0
    0.2608    1.2565   -1.1158 H   0  0  0  0  0  0  0  0  0  0  0  0
   -1.8527    1.2608   -1.4951 C   0  0  0  0  0  0  0  0  0  0  0  0
   -2.1188    0.2633   -1.8449 H   0  0  0  0  0  0  0  0  0  0  0  0
   -3.0793    1.9026   -0.8403 C   0  0  0  0  0  0  0  0  0  0  0  0
   -2.8242    2.8965   -0.4702 H   0  0  0  0  0  0  0  0  0  0  0  0
   -3.8826    1.9900   -1.5721 H   0  0  0  0  0  0  0  0  0  0  0  0
   -3.4341    1.2948   -0.0107 H   0  0  0  0  0  0  0  0  0  0  0  0
   -1.4717    2.1028   -2.7121 C   0  0  0  0  0  0  0  0  0  0  0  0
   -0.6186    1.6509   -3.2182 H   0  0  0  0  0  0  0  0  0  0  0  0
   -2.3076    2.1447   -3.4104 H   0  0  0  0  0  0  0  0  0  0  0  0
   -1.2110    3.1153   -2.4017 H   0  0  0  0  0  0  0  0  0  0  0  0
   -0.1913    0.1554    1.7759 C   0  0  0  0  0  0  0  0  0  0  0  0
    0.9476   -0.0766    2.1748 O   0  0  0  0  0  0  0  0  0  0  0  0
   -1.1502    0.6393    2.5760 N   0  0  0  0  0  0  0  0  0  0  0  0
   -2.0581    0.8092    2.1736 H   0  0  0  0  0  0  0  0  0  0  0  0
   -0.9568    0.9369    3.9933 C   0  0  0  0  0  0  0  0  0  0  0  0
   -0.1600    1.6750    4.1097 H   0  0  0  0  0  0  0  0  0  0  0  0
   -1.8775    1.3307    4.4266 H   0  0  0  0  0  0  0  0  0  0  0  0
   -0.6678    0.0287    4.5244 H   0  0  0  0  0  0  0  0  0  0  0  0
  5  6  2  0  0  0  0
  5  7  1  0  0  0  0
  2  3  1  0  0  0  0
  2  4  1  0  0  0  0
  2  5  1  0  0  0  0
  1  2  1  0  0  0  0
 24 25  2  0  0  0  0
 24 26  1  0  0  0  0
 20 21  1  0  0  0  0
 20 22  1  0  0  0  0
 20 23  1  0  0  0  0
 16 17  1  0  0  0  0
 16 18  1  0  0  0  0
 16 19  1  0  0  0  0
 14 15  1  0  0  0  0
 14 16  1  0  0  0  0
 14 20  1  0  0  0  0
 11 12  1  0  0  0  0
 11 13  1  0  0  0  0
 11 14  1  0  0  0  0
  9 10  1  0  0  0  0
  9 11  1  0  0  0  0
  9 24  1  0  0  0  0
  7  8  1  0  0  0  0
  7  9  1  0  0  0  0
 28 29  1  0  0  0  0
 28 30  1  0  0  0  0
 28 31  1  0  0  0  0
 26 27  1  0  0  0  0
 26 28  1  0  0  0  0
M  END
$$$$
default_name
  -OEChem-02102213163D

 31 30  0     1  0  0  0  0  0999 V2000
   -3.5895   -3.5013    1.1082 H   0  0  0  0  0  0  0  0  0  0  0  0
   -3.5145   -2.5363    0.6082 C   0  0  0  0  0  0  0  0  0  0  0  0
   -4.2285   -1.8413    1.0452 H   0  0  0  0  0  0  0  0  0  0  0  0
   -3.7155   -2.6583   -0.4538 H   0  0  0  0  0  0  0  0  0  0  0  0
   -2.1155   -1.9963    0.7922 C   0  0  0  0  0  0  0  0  0  0  0  0
   -1.2875   -2.6383    1.4252 O   0  0  0  0  0  0  0  0  0  0  0  0
   -1.8575   -0.8123    0.2402 N   0  0  0  0  0  0  0  0  0  0  0  0
   -2.6005   -0.3333   -0.2478 H   0  0  0  0  0  0  0  0  0  0  0  0
   -0.5675   -0.1203    0.3102 C   0  0  1  0  0  0  0  0  0  0  0  0
    0.1932   -0.7715   -0.1219 H   0  0  0  0  0  0  0  0  0  0  0  0
   -0.6568    1.1713   -0.5294 C   0  0  0  0  0  0  0  0  0  0  0  0
   -0.6962    2.0259    0.1488 H   0  0  0  0  0  0  0  0  0  0  0  0
    0.2608    1.2565   -1.1158 H   0  0  0  0  0  0  0  0  0  0  0  0
   -1.8527    1.2608   -1.4951 C   0  0  0  0  0  0  0  0  0  0  0  0
   -2.2867    0.2709   -1.6363 H   0  0  0  0  0  0  0  0  0  0  0  0
   -2.9388    2.2126   -0.9855 C   0  0  0  0  0  0  0  0  0  0  0  0
   -2.5156    3.2049   -0.8238 H   0  0  0  0  0  0  0  0  0  0  0  0
   -3.7404    2.2824   -1.7212 H   0  0  0  0  0  0  0  0  0  0  0  0
   -3.3603    1.8493   -0.0508 H   0  0  0  0  0  0  0  0  0  0  0  0
   -1.3799    1.7687   -2.8567 C   0  0  0  0  0  0  0  0  0  0  0  0
   -0.6271    1.0912   -3.2596 H   0  0  0  0  0  0  0  0  0  0  0  0
   -2.2199    1.8066   -3.5503 H   0  0  0  0  0  0  0  0  0  0  0  0
   -0.9502    2.7660   -2.7570 H   0  0  0  0  0  0  0  0  0  0  0  0
   -0.1913    0.1554    1.7759 C   0  0  0  0  0  0  0  0  0  0  0  0
    0.9476   -0.0766    2.1748 O   0  0  0  0  0  0  0  0  0  0  0  0
   -1.1502    0.6393    2.5760 N   0  0  0  0  0  0  0  0  0  0  0  0
   -2.0581    0.8092    2.1736 H   0  0  0  0  0  0  0  0  0  0  0  0
   -0.9568    0.9369    3.9933 C   0  0  0  0  0  0  0  0  0  0  0  0
   -0.1600    1.6750    4.1097 H   0  0  0  0  0  0  0  0  0  0  0  0
   -1.8775    1.3307    4.4266 H   0  0  0  0  0  0  0  0  0  0  0  0
   -0.6678    0.0287    4.5244 H   0  0  0  0  0  0  0  0  0  0  0  0
  5  6  2  0  0  0  0
  5  7  1  0  0  0  0
  2  3  1  0  0  0  0
  2  4  1  0  0  0  0
  2  5  1  0  0  0  0
  1  2  1  0  0  0  0
 24 25  2  0  0  0  0
 24 26  1  0  0  0  0
 20 21  1  0  0  0  0
 20 22  1  0  0  0  0
 20 23  1  0  0  0  0
 16 17  1  0  0  0  0
 16 18  1  0  0  0  0
 16 19  1  0  0  0  0
 14 15  1  0  0  0  0
 14 16  1  0  0  0  0
 14 20  1  0  0  0  0
 11 12  1  0  0  0  0
 11 13  1  0  0  0  0
 11 14  1  0  0  0  0
  9 10  1  0  0  0  0
  9 11  1  0  0  0  0
  9 24  1  0  0  0  0
  7  8  1  0  0  0  0
  7  9  1  0  0  0  0
 28 29  1  0  0  0  0
 28 30  1  0  0  0  0
 28 31  1  0  0  0  0
 26 27  1  0  0  0  0
 26 28  1  0  0  0  0
M  END
$$$$
default_name
  -OEChem-02102213163D

 31 30  0     1  0  0  0  0  0999 V2000
   -3.5895   -3.5013    1.1082 H   0  0  0  0  0  0  0  0  0  0  0  0
   -3.5145   -2.5363    0.6082 C   0  0  0  0  0  0  0  0  0  0  0  0
   -4.2285   -1.8413    1.0452 H   0  0  0  0  0  0  0  0  0  0  0  0
   -3.7155   -2.6583   -0.4538 H   0  0  0  0  0  0  0  0  0  0  0  0
   -2.1155   -1.9963    0.7922 C   0  0  0  0  0  0  0  0  0  0  0  0
   -1.2875   -2.6383    1.4252 O   0  0  0  0  0  0  0  0  0  0  0  0
   -1.8575   -0.8123    0.2402 N   0  0  0  0  0  0  0  0  0  0  0  0
   -2.6005   -0.3333   -0.2478 H   0  0  0  0  0  0  0  0  0  0  0  0
   -0.5675   -0.1203    0.3102 C   0  0  1  0  0  0  0  0  0  0  0  0
    0.1932   -0.7715   -0.1219 H   0  0  0  0  0  0  0  0  0  0  0  0
   -0.6568    1.1713   -0.5294 C   0  0  0  0  0  0  0  0  0  0  0  0
   -0.6962    2.0259    0.1488 H   0  0  0  0  0  0  0  0  0  0  0  0
    0.2608    1.2565   -1.1158 H   0  0  0  0  0  0  0  0  0  0  0  0
   -1.8527    1.2608   -1.4951 C   0  0  0  0  0  0  0  0  0  0  0  0
   -2.4444    0.3474   -1.4339 H   0  0  0  0  0  0  0  0  0  0  0  0
   -2.7549    2.4600   -1.1903 C   0  0  0  0  0  0  0  0  0  0  0  0
   -2.1728    3.3817   -1.2319 H   0  0  0  0  0  0  0  0  0  0  0  0
   -3.5577    2.5119   -1.9261 H   0  0  0  0  0  0  0  0  0  0  0  0
   -3.1996    2.3649   -0.2020 H   0  0  0  0  0  0  0  0  0  0  0  0
   -1.3477    1.4019   -2.9306 C   0  0  0  0  0  0  0  0  0  0  0  0
   -0.7267    0.5436   -3.1869 H   0  0  0  0  0  0  0  0  0  0  0  0
   -2.1922    1.4377   -3.6188 H   0  0  0  0  0  0  0  0  0  0  0  0
   -0.7603    2.3149   -3.0340 H   0  0  0  0  0  0  0  0  0  0  0  0
   -0.1913    0.1554    1.7759 C   0  0  0  0  0  0  0  0  0  0  0  0
    0.9476   -0.0766    2.1748 O   0  0  0  0  0  0  0  0  0  0  0  0
   -1.1502    0.6393    2.5760 N   0  0  0  0  0  0  0  0  0  0  0  0
   -2.0581    0.8092    2.1736 H   0  0  0  0  0  0  0  0  0  0  0  0
   -0.9568    0.9369    3.9933 C   0  0  0  0  0  0  0  0  0  0  0  0
   -0.1600    1.6750    4.1097 H   0  0  0  0  0  0  0  0  0  0  0  0
   -1.8775    1.3307    4.4266 H   0  0  0  0  0  0  0  0  0  0  0  0
   -0.6678    0.0287    4.5244 H   0  0  0  0  0  0  0  0  0  0  0  0
  5  6  2  0  0  0  0
  5  7  1  0  0  0  0
  2  3  1  0  0  0  0
  2  4  1  0  0  0  0
  2  5  1  0  0  0  0
  1  2  1  0  0  0  0
 24 25  2  0  0  0  0
 24 26  1  0  0  0  0
 20 21  1  0  0  0  0
 20 22  1  0  0  0  0
 20 23  1  0  0  0  0
 16 17  1  0  0  0  0
 16 18  1  0  0  0  0
 16 19  1  0  0  0  0
 14 15  1  0  0  0  0
 14 16  1  0  0  0  0
 14 20  1  0  0  0  0
 11 12  1  0  0  0  0
 11 13  1  0  0  0  0
 11 14  1  0  0  0  0
  9 10  1  0  0  0  0
  9 11  1  0  0  0  0
  9 24  1  0  0  0  0
  7  8  1  0  0  0  0
  7  9  1  0  0  0  0
 28 29  1  0  0  0  0
 28 30  1  0  0  0  0
 28 31  1  0  0  0  0
 26 27  1  0  0  0  0
 26 28  1  0  0  0  0
M  END
$$$$
default_name
  -OEChem-02102213163D

 31 30  0     1  0  0  0  0  0999 V2000
   -3.5895   -3.5013    1.1082 H   0  0  0  0  0  0  0  0  0  0  0  0
   -3.5145   -2.5363    0.6082 C   0  0  0  0  0  0  0  0  0  0  0  0
   -4.2285   -1.8413    1.0452 H   0  0  0  0  0  0  0  0  0  0  0  0
   -3.7155   -2.6583   -0.4538 H   0  0  0  0  0  0  0  0  0  0  0  0
   -2.1155   -1.9963    0.7922 C   0  0  0  0  0  0  0  0  0  0  0  0
   -1.2875   -2.6383    1.4252 O   0  0  0  0  0  0  0  0  0  0  0  0
   -1.8575   -0.8123    0.2402 N   0  0  0  0  0  0  0  0  0  0  0  0
   -2.6005   -0.3333   -0.2478 H   0  0  0  0  0  0  0  0  0  0  0  0
   -0.5675   -0.1203    0.3102 C   0  0  1  0  0  0  0  0  0  0  0  0
    0.1932   -0.7715   -0.1219 H   0  0  0  0  0  0  0  0  0  0  0  0
   -0.6568    1.1713   -0.5294 C   0  0  0  0  0  0  0  0  0  0  0  0
   -0.6962    2.0259    0.1488 H   0  0  0  0  0  0  0  0  0  0  0  0
    0.2608    1.2565   -1.1158 H   0  0  0  0  0  0  0  0  0  0  0  0
   -1.8527    1.2608   -1.4951 C   0  0  0  0  0  0  0  0  0  0  0  0
   -2.5813    0.4876   -1.2513 H   0  0  0  0  0  0  0  0  0  0  0  0
   -2.5403    2.6281   -1.4406 C   0  0  0  0  0  0  0  0  0  0  0  0
   -1.8192    3.4147   -1.6668 H   0  0  0  0  0  0  0  0  0  0  0  0
   -3.3472    2.6627   -2.1730 H   0  0  0  0  0  0  0  0  0  0  0  0
   -2.9629    2.8065   -0.4542 H   0  0  0  0  0  0  0  0  0  0  0  0
   -1.3773    1.0276   -2.9286 C   0  0  0  0  0  0  0  0  0  0  0  0
   -0.9108    0.0455   -3.0051 H   0  0  0  0  0  0  0  0  0  0  0  0
   -2.2264    1.0630   -3.6112 H   0  0  0  0  0  0  0  0  0  0  0  0
   -0.6542    1.7927   -3.2137 H   0  0  0  0  0  0  0  0  0  0  0  0
   -0.1913    0.1554    1.7759 C   0  0  0  0  0  0  0  0  0  0  0  0
    0.9476   -0.0766    2.1748 O   0  0  0  0  0  0  0  0  0  0  0  0
   -1.1502    0.6393    2.5760 N   0  0  0  0  0  0  0  0  0  0  0  0
   -2.0581    0.8092    2.1736 H   0  0  0  0  0  0  0  0  0  0  0  0
   -0.9568    0.9369    3.9933 C   0  0  0  0  0  0  0  0  0  0  0  0
   -0.1600    1.6750    4.1097 H   0  0  0  0  0  0  0  0  0  0  0  0
   -1.8775    1.3307    4.4266 H   0  0  0  0  0  0  0  0  0  0  0  0
   -0.6678    0.0287    4.5244 H   0  0  0  0  0  0  0  0  0  0  0  0
  5  6  2  0  0  0  0
  5  7  1  0  0  0  0
  2  3  1  0  0  0  0
  2  4  1  0  0  0  0
  2  5  1  0  0  0  0
  1  2  1  0  0  0  0
 24 25  2  0  0  0  0
 24 26  1  0  0  0  0
 20 21  1  0  0  0  0
 20 22  1  0  0  0  0
 20 23  1  0  0  0  0
 16 17  1  0  0  0  0
 16 18  1  0  0  0  0
 16 19  1  0  0  0  0
 14 15  1  0  0  0  0
 14 16  1  0  0  0  0
 14 20  1  0  0  0  0
 11 12  1  0  0  0  0
 11 13  1  0  0  0  0
 11 14  1  0  0  0  0
  9 10  1  0  0  0  0
  9 11  1  0  0  0  0
  9 24  1  0  0  0  0
  7  8  1  0  0  0  0
  7  9  1  0  0  0  0
 28 29  1  0  0  0  0
 28 30  1  0  0  0  0
 28 31  1  0  0  0  0
 26 27  1  0  0  0  0
 26 28  1  0  0  0  0
M  END
$$$$
default_name
  -OEChem-02102213163D

 31 30  0     1  0  0  0  0  0999 V2000
   -3.5895   -3.5013    1.1082 H   0  0  0  0  0  0  0  0  0  0  0  0
   -3.5145   -2.5363    0.6082 C   0  0  0  0  0  0  0  0  0  0  0  0
   -4.2285   -1.8413    1.0452 H   0  0  0  0  0  0  0  0  0  0  0  0
   -3.7155   -2.6583   -0.4538 H   0  0  0  0  0  0  0  0  0  0  0  0
   -2.1155   -1.9963    0.7922 C   0  0  0  0  0  0  0  0  0  0  0  0
   -1.2875   -2.6383    1.4252 O   0  0  0  0  0  0  0  0  0  0  0  0
   -1.8575   -0.8123    0.2402 N   0  0  0  0  0  0  0  0  0  0  0  0
   -2.6005   -0.3333   -0.2478 H   0  0  0  0  0  0  0  0  0  0  0  0
   -0.5675   -0.1203    0.3102 C   0  0  1  0  0  0  0  0  0  0  0  0
    0.1932   -0.7715   -0.1219 H   0  0  0  0  0  0  0  0  0  0  0  0
   -0.6568    1.1713   -0.5294 C   0  0  0  0  0  0  0  0  0  0  0  0
   -0.6962    2.0259    0.1488 H   0  0  0  0  0  0  0  0  0  0  0  0
    0.2608    1.2565   -1.1158 H   0  0  0  0  0  0  0  0  0  0  0  0
   -1.8527    1.2608   -1.4951 C   0  0  0  0  0  0  0  0  0  0  0  0
   -2.6881    0.6820   -1.1011 H   0  0  0  0  0  0  0  0  0  0  0  0
   -2.3094    2.7052   -1.7194 C   0  0  0  0  0  0  0  0  0  0  0  0
   -1.4787    3.3017   -2.0989 H   0  0  0  0  0  0  0  0  0  0  0  0
   -3.1230    2.7245   -2.4449 H   0  0  0  0  0  0  0  0  0  0  0  0
   -2.6665    3.1439   -0.7901 H   0  0  0  0  0  0  0  0  0  0  0  0
   -1.4665    0.6712   -2.8511 C   0  0  0  0  0  0  0  0  0  0  0  0
   -1.1667   -0.3692   -2.7266 H   0  0  0  0  0  0  0  0  0  0  0  0
   -2.3200    0.7082   -3.5280 H   0  0  0  0  0  0  0  0  0  0  0  0
   -0.6393    1.2349   -3.2839 H   0  0  0  0  0  0  0  0  0  0  0  0
   -0.1913    0.1554    1.7759 C   0  0  0  0  0  0  0  0  0  0  0  0
    0.9476   -0.0766    2.1748 O   0  0  0  0  0  0  0  0  0  0  0  0
   -1.1502    0.6393    2.5760 N   0  0  0  0  0  0  0  0  0  0  0  0
   -2.0581    0.8092    2.1736 H   0  0  0  0  0  0  0  0  0  0  0  0
   -0.9568    0.9369    3.9933 C   0  0  0  0  0  0  0  0  0  0  0  0
   -0.1600    1.6750    4.1097 H   0  0  0  0  0  0  0  0  0  0  0  0
   -1.8775    1.3307    4.4266 H   0  0  0  0  0  0  0  0  0  0  0  0
   -0.6678    0.0287    4.5244 H   0  0  0  0  0  0  0  0  0  0  0  0
  5  6  2  0  0  0  0
  5  7  1  0  0  0  0
  2  3  1  0  0  0  0
  2  4  1  0  0  0  0
  2  5  1  0  0  0  0
  1  2  1  0  0  0  0
 24 25  2  0  0  0  0
 24 26  1  0  0  0  0
 20 21  1  0  0  0  0
 20 22  1  0  0  0  0
 20 23  1  0  0  0  0
 16 17  1  0  0  0  0
 16 18  1  0  0  0  0
 16 19  1  0  0  0  0
 14 15  1  0  0  0  0
 14 16  1  0  0  0  0
 14 20  1  0  0  0  0
 11 12  1  0  0  0  0
 11 13  1  0  0  0  0
 11 14  1  0  0  0  0
  9 10  1  0  0  0  0
  9 11  1  0  0  0  0
  9 24  1  0  0  0  0
  7  8  1  0  0  0  0
  7  9  1  0  0  0  0
 28 29  1  0  0  0  0
 28 30  1  0  0  0  0
 28 31  1  0  0  0  0
 26 27  1  0  0  0  0
 26 28  1  0  0  0  0
M  END
$$$$
default_name
  -OEChem-02102213163D

 31 30  0     1  0  0  0  0  0999 V2000
   -3.5895   -3.5013    1.1082 H   0  0  0  0  0  0  0  0  0  0  0  0
   -3.5145   -2.5363    0.6082 C   0  0  0  0  0  0  0  0  0  0  0  0
   -4.2285   -1.8413    1.0452 H   0  0  0  0  0  0  0  0  0  0  0  0
   -3.7155   -2.6583   -0.4538 H   0  0  0  0  0  0  0  0  0  0  0  0
   -2.1155   -1.9963    0.7922 C   0  0  0  0  0  0  0  0  0  0  0  0
   -1.2875   -2.6383    1.4252 O   0  0  0  0  0  0  0  0  0  0  0  0
   -1.8575   -0.8123    0.2402 N   0  0  0  0  0  0  0  0  0  0  0  0
   -2.6005   -0.3333   -0.2478 H   0  0  0  0  0  0  0  0  0  0  0  0
   -0.5675   -0.1203    0.3102 C   0  0  1  0  0  0  0  0  0  0  0  0
    0.1932   -0.7715   -0.1219 H   0  0  0  0  0  0  0  0  0  0  0  0
   -0.6568    1.1713   -0.5294 C   0  0  0  0  0  0  0  0  0  0  0  0
   -0.6962    2.0259    0.1488 H   0  0  0  0  0  0  0  0  0  0  0  0
    0.2608    1.2565   -1.1158 H   0  0  0  0  0  0  0  0  0  0  0  0
   -1.8527    1.2608   -1.4951 C   0  0  0  0  0  0  0  0  0  0  0  0
   -2.7574    0.9172   -0.9935 H   0  0  0  0  0  0  0  0  0  0  0  0
   -2.0781    2.6862   -2.0076 C   0  0  0  0  0  0  0  0  0  0  0  0
   -1.1747    3.0505   -2.4987 H   0  0  0  0  0  0  0  0  0  0  0  0
   -2.9005    2.6932   -2.7233 H   0  0  0  0  0  0  0  0  0  0  0  0
   -2.3304    3.3541   -1.1868 H   0  0  0  0  0  0  0  0  0  0  0  0
   -1.6094    0.3571   -2.7032 C   0  0  0  0  0  0  0  0  0  0  0  0
   -1.4770   -0.6723   -2.3704 H   0  0  0  0  0  0  0  0  0  0  0  0
   -2.4669    0.3974   -3.3750 H   0  0  0  0  0  0  0  0  0  0  0  0
   -0.7164    0.6795   -3.2398 H   0  0  0  0  0  0  0  0  0  0  0  0
   -0.1913    0.1554    1.7759 C   0  0  0  0  0  0  0  0  0  0  0  0
    0.9476   -0.0766    2.1748 O   0  0  0  0  0  0  0  0  0  0  0  0
   -1.1502    0.6393    2.5760 N   0  0  0  0  0  0  0  0  0  0  0  0
   -2.0581    0.8092    2.1736 H   0  0  0  0  0  0  0  0  0  0  0  0
   -0.9568    0.9369    3.9933 C   0  0  0  0  0  0  0  0  0  0  0  0
   -0.1600    1.6750    4.1097 H   0  0  0  0  0  0  0  0  0  0  0  0
   -1.8775    1.3307    4.4266 H   0  0  0  0  0  0  0  0  0  0  0  0
   -0.6678    0.0287    4.5244 H   0  0  0  0  0  0  0  0  0  0  0  0
  5  6  2  0  0  0  0
  5  7  1  0  0  0  0
  2  3  1  0  0  0  0
  2  4  1  0  0  0  0
  2  5  1  0  0  0  0
  1  2  1  0  0  0  0
 24 25  2  0  0  0  0
 24 26  1  0  0  0  0
 20 21  1  0  0  0  0
 20 22  1  0  0  0  0
 20 23  1  0  0  0  0
 16 17  1  0  0  0  0
 16 18  1  0  0  0  0
 16 19  1  0  0  0  0
 14 15  1  0  0  0  0
 14 16  1  0  0  0  0
 14 20  1  0  0  0  0
 11 12  1  0  0  0  0
 11 13  1  0  0  0  0
 11 14  1  0  0  0  0
  9 10  1  0  0  0  0
  9 11  1  0  0  0  0
  9 24  1  0  0  0  0
  7  8  1  0  0  0  0
  7  9  1  0  0  0  0
 28 29  1  0  0  0  0
 28 30  1  0  0  0  0
 28 31  1  0  0  0  0
 26 27  1  0  0  0  0
 26 28  1  0  0  0  0
M  END
$$$$
default_name
  -OEChem-02102213163D

 31 30  0     1  0  0  0  0  0999 V2000
   -3.5895   -3.5013    1.1082 H   0  0  0  0  0  0  0  0  0  0  0  0
   -3.5145   -2.5363    0.6082 C   0  0  0  0  0  0  0  0  0  0  0  0
   -4.2285   -1.8413    1.0452 H   0  0  0  0  0  0  0  0  0  0  0  0
   -3.7155   -2.6583   -0.4538 H   0  0  0  0  0  0  0  0  0  0  0  0
   -2.1155   -1.9963    0.7922 C   0  0  0  0  0  0  0  0  0  0  0  0
   -1.2875   -2.6383    1.4252 O   0  0  0  0  0  0  0  0  0  0  0  0
   -1.8575   -0.8123    0.2402 N   0  0  0  0  0  0  0  0  0  0  0  0
   -2.6005   -0.3333   -0.2478 H   0  0  0  0  0  0  0  0  0  0  0  0
   -0.5675   -0.1203    0.3102 C   0  0  1  0  0  0  0  0  0  0  0  0
    0.1932   -0.7715   -0.1219 H   0  0  0  0  0  0  0  0  0  0  0  0
   -0.6568    1.1713   -0.5294 C   0  0  0  0  0  0  0  0  0  0  0  0
   -0.4282    2.0225    0.1149 H   0  0  0  0  0  0  0  0  0  0  0  0
    0.1138    1.1253   -1.3022 H   0  0  0  0  0  0  0  0  0  0  0  0
   -2.0099    1.4308   -1.2169 C   0  0  0  0  0  0  0  0  0  0  0  0
   -2.7999    1.4807   -0.4675 H   0  0  0  0  0  0  0  0  0  0  0  0
   -2.0085    2.7307   -2.0264 C   0  0  0  0  0  0  0  0  0  0  0  0
   -1.2117    2.7027   -2.7710 H   0  0  0  0  0  0  0  0  0  0  0  0
   -2.9664    2.8484   -2.5336 H   0  0  0  0  0  0  0  0  0  0  0  0
   -1.8562    3.5887   -1.3752 H   0  0  0  0  0  0  0  0  0  0  0  0
   -2.3337    0.2808   -2.1698 C   0  0  0  0  0  0  0  0  0  0  0  0
   -2.3730   -0.6560   -1.6141 H   0  0  0  0  0  0  0  0  0  0  0  0
   -3.3041    0.4486   -2.6370 H   0  0  0  0  0  0  0  0  0  0  0  0
   -1.5692    0.2080   -2.9442 H   0  0  0  0  0  0  0  0  0  0  0  0
   -0.1913    0.1554    1.7759 C   0  0  0  0  0  0  0  0  0  0  0  0
    0.9476   -0.0766    2.1748 O   0  0  0  0  0  0  0  0  0  0  0  0
   -1.1502    0.6393    2.5760 N   0  0  0  0  0  0  0  0  0  0  0  0
   -2.0581    0.8092    2.1736 H   0  0  0  0  0  0  0  0  0  0  0  0
   -0.9568    0.9369    3.9933 C   0  0  0  0  0  0  0  0  0  0  0  0
   -0.1600    1.6750    4.1097 H   0  0  0  0  0  0  0  0  0  0  0  0
   -1.8775    1.3307    4.4266 H   0  0  0  0  0  0  0  0  0  0  0  0
   -0.6678    0.0287    4.5244 H   0  0  0  0  0  0  0  0  0  0  0  0
  5  6  2  0  0  0  0
  5  7  1  0  0  0  0
  2  3  1  0  0  0  0
  2  4  1  0  0  0  0
  2  5  1  0  0  0  0
  1  2  1  0  0  0  0
 24 25  2  0  0  0  0
 24 26  1  0  0  0  0
 20 21  1  0  0  0  0
 20 22  1  0  0  0  0
 20 23  1  0  0  0  0
 16 17  1  0  0  0  0
 16 18  1  0  0  0  0
 16 19  1  0  0  0  0
 14 15  1  0  0  0  0
 14 16  1  0  0  0  0
 14 20  1  0  0  0  0
 11 12  1  0  0  0  0
 11 13  1  0  0  0  0
 11 14  1  0  0  0  0
  9 10  1  0  0  0  0
  9 11  1  0  0  0  0
  9 24  1  0  0  0  0
  7  8  1  0  0  0  0
  7  9  1  0  0  0  0
 28 29  1  0  0  0  0
 28 30  1  0  0  0  0
 28 31  1  0  0  0  0
 26 27  1  0  0  0  0
 26 28  1  0  0  0  0
M  END
$$$$
default_name
  -OEChem-02102213163D

 31 30  0     1  0  0  0  0  0999 V2000
   -3.5895   -3.5013    1.1082 H   0  0  0  0  0  0  0  0  0  0  0  0
   -3.5145   -2.5363    0.6082 C   0  0  0  0  0  0  0  0  0  0  0  0
   -4.2285   -1.8413    1.0452 H   0  0  0  0  0  0  0  0  0  0  0  0
   -3.7155   -2.6583   -0.4538 H   0  0  0  0  0  0  0  0  0  0  0  0
   -2.1155   -1.9963    0.7922 C   0  0  0  0  0  0  0  0  0  0  0  0
   -1.2875   -2.6383    1.4252 O   0  0  0  0  0  0  0  0  0  0  0  0
   -1.8575   -0.8123    0.2402 N   0  0  0  0  0  0  0  0  0  0  0  0
   -2.6005   -0.3333   -0.2478 H   0  0  0  0  0  0  0  0  0  0  0  0
   -0.5675   -0.1203    0.3102 C   0  0  1  0  0  0  0  0  0  0  0  0
    0.1932   -0.7715   -0.1219 H   0  0  0  0  0  0  0  0  0  0  0  0
   -0.6568    1.1713   -0.5294 C   0  0  0  0  0  0  0  0  0  0  0  0
   -0.4282    2.0225    0.1149 H   0  0  0  0  0  0  0  0  0  0  0  0
    0.1138    1.1253   -1.3022 H   0  0  0  0  0  0  0  0  0  0  0  0
   -2.0099    1.4308   -1.2169 C   0  0  0  0  0  0  0  0  0  0  0  0
   -2.7455    1.7428   -0.4756 H   0  0  0  0  0  0  0  0  0  0  0  0
   -1.9110    2.5054   -2.3034 C   0  0  0  0  0  0  0  0  0  0  0  0
   -1.1659    2.2148   -3.0453 H   0  0  0  0  0  0  0  0  0  0  0  0
   -2.8773    2.6207   -2.7948 H   0  0  0  0  0  0  0  0  0  0  0  0
   -1.6280    3.4631   -1.8719 H   0  0  0  0  0  0  0  0  0  0  0  0
   -2.5125    0.1436   -1.8695 C   0  0  0  0  0  0  0  0  0  0  0  0
   -2.6234   -0.6324   -1.1123 H   0  0  0  0  0  0  0  0  0  0  0  0
   -3.4835    0.3178   -2.3332 H   0  0  0  0  0  0  0  0  0  0  0  0
   -1.8062   -0.1931   -2.6292 H   0  0  0  0  0  0  0  0  0  0  0  0
   -0.1913    0.1554    1.7759 C   0  0  0  0  0  0  0  0  0  0  0  0
    0.9476   -0.0766    2.1748 O   0  0  0  0  0  0  0  0  0  0  0  0
   -1.1502    0.6393    2.5760 N   0  0  0  0  0  0  0  0  0  0  0  0
   -2.0581    0.8092    2.1736 H   0  0  0  0  0  0  0  0  0  0  0  0
   -0.9568    0.9369    3.9933 C   0  0  0  0  0  0  0  0  0  0  0  0
   -0.1600    1.6750    4.1097 H   0  0  0  0  0  0  0  0  0  0  0  0
   -1.8775    1.3307    4.4266 H   0  0  0  0  0  0  0  0  0  0  0  0
   -0.6678    0.0287    4.5244 H   0  0  0  0  0  0  0  0  0  0  0  0
  5  6  2  0  0  0  0
  5  7  1  0  0  0  0
  2  3  1  0  0  0  0
  2  4  1  0  0  0  0
  2  5  1  0  0  0  0
  1  2  1  0  0  0  0
 24 25  2  0  0  0  0
 24 26  1  0  0  0  0
 20 21  1  0  0  0  0
 20 22  1  0  0  0  0
 20 23  1  0  0  0  0
 16 17  1  0  0  0  0
 16 18  1  0  0  0  0
 16 19  1  0  0  0  0
 14 15  1  0  0  0  0
 14 16  1  0  0  0  0
 14 20  1  0  0  0  0
 11 12  1  0  0  0  0
 11 13  1  0  0  0  0
 11 14  1  0  0  0  0
  9 10  1  0  0  0  0
  9 11  1  0  0  0  0
  9 24  1  0  0  0  0
  7  8  1  0  0  0  0
  7  9  1  0  0  0  0
 28 29  1  0  0  0  0
 28 30  1  0  0  0  0
 28 31  1  0  0  0  0
 26 27  1  0  0  0  0
 26 28  1  0  0  0  0
M  END
$$$$
default_name
  -OEChem-02102213163D

 31 30  0     1  0  0  0  0  0999 V2000
   -3.5895   -3.5013    1.1082 H   0  0  0  0  0  0  0  0  0  0  0  0
   -3.5145   -2.5363    0.6082 C   0  0  0  0  0  0  0  0  0  0  0  0
   -4.2285   -1.8413    1.0452 H   0  0  0  0  0  0  0  0  0  0  0  0
   -3.7155   -2.6583   -0.4538 H   0  0  0  0  0  0  0  0  0  0  0  0
   -2.1155   -1.9963    0.7922 C   0  0  0  0  0  0  0  0  0  0  0  0
   -1.2875   -2.6383    1.4252 O   0  0  0  0  0  0  0  0  0  0  0  0
   -1.8575   -0.8123    0.2402 N   0  0  0  0  0  0  0  0  0  0  0  0
   -2.6005   -0.3333   -0.2478 H   0  0  0  0  0  0  0  0  0  0  0  0
   -0.5675   -0.1203    0.3102 C   0  0  1  0  0  0  0  0  0  0  0  0
    0.1932   -0.7715   -0.1219 H   0  0  0  0  0  0  0  0  0  0  0  0
   -0.6568    1.1713   -0.5294 C   0  0  0  0  0  0  0  0  0  0  0  0
   -0.4282    2.0225    0.1149 H   0  0  0  0  0  0  0  0  0  0  0  0
    0.1138    1.1253   -1.3022 H   0  0  0  0  0  0  0  0  0  0  0  0
   -2.0099    1.4308   -1.2169 C   0  0  0  0  0  0  0  0  0  0  0  0
   -2.6631    1.9879   -0.5453 H   0  0  0  0  0  0  0  0  0  0  0  0
   -1.8549    2.2136   -2.5239 C   0  0  0  0  0  0  0  0  0  0  0  0
   -1.1900    1.6759   -3.2013 H   0  0  0  0  0  0  0  0  0  0  0  0
   -2.8290    2.3310   -2.9992 H   0  0  0  0  0  0  0  0  0  0  0  0
   -1.4437    3.2025   -2.3330 H   0  0  0  0  0  0  0  0  0  0  0  0
   -2.6881    0.1001   -1.5405 C   0  0  0  0  0  0  0  0  0  0  0  0
   -2.8407   -0.4666   -0.6220 H   0  0  0  0  0  0  0  0  0  0  0  0
   -3.6587    0.2813   -2.0022 H   0  0  0  0  0  0  0  0  0  0  0  0
   -2.0677   -0.4815   -2.2233 H   0  0  0  0  0  0  0  0  0  0  0  0
   -0.1913    0.1554    1.7759 C   0  0  0  0  0  0  0  0  0  0  0  0
    0.9476   -0.0766    2.1748 O   0  0  0  0  0  0  0  0  0  0  0  0
   -1.1502    0.6393    2.5760 N   0  0  0  0  0  0  0  0  0  0  0  0
   -2.0581    0.8092    2.1736 H   0  0  0  0  0  0  0  0  0  0  0  0
   -0.9568    0.9369    3.9933 C   0  0  0  0  0  0  0  0  0  0  0  0
   -0.1600    1.6750    4.1097 H   0  0  0  0  0  0  0  0  0  0  0  0
   -1.8775    1.3307    4.4266 H   0  0  0  0  0  0  0  0  0  0  0  0
   -0.6678    0.0287    4.5244 H   0  0  0  0  0  0  0  0  0  0  0  0
  5  6  2  0  0  0  0
  5  7  1  0  0  0  0
  2  3  1  0  0  0  0
  2  4  1  0  0  0  0
  2  5  1  0  0  0  0
  1  2  1  0  0  0  0
 24 25  2  0  0  0  0
 24 26  1  0  0  0  0
 20 21  1  0  0  0  0
 20 22  1  0  0  0  0
 20 23  1  0  0  0  0
 16 17  1  0  0  0  0
 16 18  1  0  0  0  0
 16 19  1  0  0  0  0
 14 15  1  0  0  0  0
 14 16  1  0  0  0  0
 14 20  1  0  0  0  0
 11 12  1  0  0  0  0
 11 13  1  0  0  0  0
 11 14  1  0  0  0  0
  9 10  1  0  0  0  0
  9 11  1  0  0  0  0
  9 24  1  0  0  0  0
  7  8  1  0  0  0  0
  7  9  1  0  0  0  0
 28 29  1  0  0  0  0
 28 30  1  0  0  0  0
 28 31  1  0  0  0  0
 26 27  1  0  0  0  0
 26 28  1  0  0  0  0
M  END
$$$$
default_name
  -OEChem-02102213163D

 31 30  0     1  0  0  0  0  0999 V2000
   -3.5895   -3.5013    1.1082 H   0  0  0  0  0  0  0  0  0  0  0  0
   -3.5145   -2.5363    0.6082 C   0  0  0  0  0  0  0  0  0  0  0  0
   -4.2285   -1.8413    1.0452 H   0  0  0  0  0  0  0  0  0  0  0  0
   -3.7155   -2.6583   -0.4538 H   0  0  0  0  0  0  0  0  0  0  0  0
   -2.1155   -1.9963    0.7922 C   0  0  0  0  0  0  0  0  0  0  0  0
   -1.2875   -2.6383    1.4252 O   0  0  0  0  0  0  0  0  0  0  0  0
   -1.8575   -0.8123    0.2402 N   0  0  0  0  0  0  0  0  0  0  0  0
   -2.6005   -0.3333   -0.2478 H   0  0  0  0  0  0  0  0  0  0  0  0
   -0.5675   -0.1203    0.3102 C   0  0  1  0  0  0  0  0  0  0  0  0
    0.1932   -0.7715   -0.1219 H   0  0  0  0  0  0  0  0  0  0  0  0
   -0.6568    1.1713   -0.5294 C   0  0  0  0  0  0  0  0  0  0  0  0
   -0.4282    2.0225    0.1149 H   0  0  0  0  0  0  0  0  0  0  0  0
    0.1138    1.1253   -1.3022 H   0  0  0  0  0  0  0  0  0  0  0  0
   -2.0099    1.4308   -1.2169 C   0  0  0  0  0  0  0  0  0  0  0  0
   -2.5582    2.1993   -0.6720 H   0  0  0  0  0  0  0  0  0  0  0  0
   -1.8441    1.8751   -2.6730 C   0  0  0  0  0  0  0  0  0  0  0  0
   -1.2824    1.1226   -3.2283 H   0  0  0  0  0  0  0  0  0  0  0  0
   -2.8247    1.9992   -3.1329 H   0  0  0  0  0  0  0  0  0  0  0  0
   -1.3159    2.8245   -2.7272 H   0  0  0  0  0  0  0  0  0  0  0  0
   -2.8483    0.1532   -1.2051 C   0  0  0  0  0  0  0  0  0  0  0  0
   -3.0100   -0.1698   -0.1767 H   0  0  0  0  0  0  0  0  0  0  0  0
   -3.8176    0.3416   -1.6665 H   0  0  0  0  0  0  0  0  0  0  0  0
   -2.3359   -0.6375   -1.7542 H   0  0  0  0  0  0  0  0  0  0  0  0
   -0.1913    0.1554    1.7759 C   0  0  0  0  0  0  0  0  0  0  0  0
    0.9476   -0.0766    2.1748 O   0  0  0  0  0  0  0  0  0  0  0  0
   -1.1502    0.6393    2.5760 N   0  0  0  0  0  0  0  0  0  0  0  0
   -2.0581    0.8092    2.1736 H   0  0  0  0  0  0  0  0  0  0  0  0
   -0.9568    0.9369    3.9933 C   0  0  0  0  0  0  0  0  0  0  0  0
   -0.1600    1.6750    4.1097 H   0  0  0  0  0  0  0  0  0  0  0  0
   -1.8775    1.3307    4.4266 H   0  0  0  0  0  0  0  0  0  0  0  0
   -0.6678    0.0287    4.5244 H   0  0  0  0  0  0  0  0  0  0  0  0
  5  6  2  0  0  0  0
  5  7  1  0  0  0  0
  2  3  1  0  0  0  0
  2  4  1  0  0  0  0
  2  5  1  0  0  0  0
  1  2  1  0  0  0  0
 24 25  2  0  0  0  0
 24 26  1  0  0  0  0
 20 21  1  0  0  0  0
 20 22  1  0  0  0  0
 20 23  1  0  0  0  0
 16 17  1  0  0  0  0
 16 18  1  0  0  0  0
 16 19  1  0  0  0  0
 14 15  1  0  0  0  0
 14 16  1  0  0  0  0
 14 20  1  0  0  0  0
 11 12  1  0  0  0  0
 11 13  1  0  0  0  0
 11 14  1  0  0  0  0
  9 10  1  0  0  0  0
  9 11  1  0  0  0  0
  9 24  1  0  0  0  0
  7  8  1  0  0  0  0
  7  9  1  0  0  0  0
 28 29  1  0  0  0  0
 28 30  1  0  0  0  0
 28 31  1  0  0  0  0
 26 27  1  0  0  0  0
 26 28  1  0  0  0  0
M  END
$$$$
default_name
  -OEChem-02102213163D

 31 30  0     1  0  0  0  0  0999 V2000
   -3.5895   -3.5013    1.1082 H   0  0  0  0  0  0  0  0  0  0  0  0
   -3.5145   -2.5363    0.6082 C   0  0  0  0  0  0  0  0  0  0  0  0
   -4.2285   -1.8413    1.0452 H   0  0  0  0  0  0  0  0  0  0  0  0
   -3.7155   -2.6583   -0.4538 H   0  0  0  0  0  0  0  0  0  0  0  0
   -2.1155   -1.9963    0.7922 C   0  0  0  0  0  0  0  0  0  0  0  0
   -1.2875   -2.6383    1.4252 O   0  0  0  0  0  0  0  0  0  0  0  0
   -1.8575   -0.8123    0.2402 N   0  0  0  0  0  0  0  0  0  0  0  0
   -2.6005   -0.3333   -0.2478 H   0  0  0  0  0  0  0  0  0  0  0  0
   -0.5675   -0.1203    0.3102 C   0  0  1  0  0  0  0  0  0  0  0  0
    0.1932   -0.7715   -0.1219 H   0  0  0  0  0  0  0  0  0  0  0  0
   -0.6568    1.1713   -0.5294 C   0  0  0  0  0  0  0  0  0  0  0  0
   -0.4282    2.0225    0.1149 H   0  0  0  0  0  0  0  0  0  0  0  0
    0.1138    1.1253   -1.3022 H   0  0  0  0  0  0  0  0  0  0  0  0
   -2.0099    1.4308   -1.2169 C   0  0  0  0  0  0  0  0  0  0  0  0
   -2.4380    2.3625   -0.8471 H   0  0  0  0  0  0  0  0  0  0  0  0
   -1.8792    1.5129   -2.7405 C   0  0  0  0  0  0  0  0  0  0  0  0
   -1.4367    0.5928   -3.1246 H   0  0  0  0  0  0  0  0  0  0  0  0
   -2.8648    1.6478   -3.1867 H   0  0  0  0  0  0  0  0  0  0  0  0
   -1.2533    2.3550   -3.0276 H   0  0  0  0  0  0  0  0  0  0  0  0
   -2.9823    0.2992   -0.8862 C   0  0  0  0  0  0  0  0  0  0  0  0
   -3.1199    0.2377    0.1933 H   0  0  0  0  0  0  0  0  0  0  0  0
   -3.9496    0.4945   -1.3491 H   0  0  0  0  0  0  0  0  0  0  0  0
   -2.5925   -0.6506   -1.2540 H   0  0  0  0  0  0  0  0  0  0  0  0
   -0.1913    0.1554    1.7759 C   0  0  0  0  0  0  0  0  0  0  0  0
    0.9476   -0.0766    2.1748 O   0  0  0  0  0  0  0  0  0  0  0  0
   -1.1502    0.6393    2.5760 N   0  0  0  0  0  0  0  0  0  0  0  0
   -2.0581    0.8092    2.1736 H   0  0  0  0  0  0  0  0  0  0  0  0
   -0.9568    0.9369    3.9933 C   0  0  0  0  0  0  0  0  0  0  0  0
   -0.1600    1.6750    4.1097 H   0  0  0  0  0  0  0  0  0  0  0  0
   -1.8775    1.3307    4.4266 H   0  0  0  0  0  0  0  0  0  0  0  0
   -0.6678    0.0287    4.5244 H   0  0  0  0  0  0  0  0  0  0  0  0
  5  6  2  0  0  0  0
  5  7  1  0  0  0  0
  2  3  1  0  0  0  0
  2  4  1  0  0  0  0
  2  5  1  0  0  0  0
  1  2  1  0  0  0  0
 24 25  2  0  0  0  0
 24 26  1  0  0  0  0
 20 21  1  0  0  0  0
 20 22  1  0  0  0  0
 20 23  1  0  0  0  0
 16 17  1  0  0  0  0
 16 18  1  0  0  0  0
 16 19  1  0  0  0  0
 14 15  1  0  0  0  0
 14 16  1  0  0  0  0
 14 20  1  0  0  0  0
 11 12  1  0  0  0  0
 11 13  1  0  0  0  0
 11 14  1  0  0  0  0
  9 10  1  0  0  0  0
  9 11  1  0  0  0  0
  9 24  1  0  0  0  0
  7  8  1  0  0  0  0
  7  9  1  0  0  0  0
 28 29  1  0  0  0  0
 28 30  1  0  0  0  0
 28 31  1  0  0  0  0
 26 27  1  0  0  0  0
 26 28  1  0  0  0  0
M  END
$$$$
default_name
  -OEChem-02102213163D

 31 30  0     1  0  0  0  0  0999 V2000
   -3.5895   -3.5013    1.1082 H   0  0  0  0  0  0  0  0  0  0  0  0
   -3.5145   -2.5363    0.6082 C   0  0  0  0  0  0  0  0  0  0  0  0
   -4.2285   -1.8413    1.0452 H   0  0  0  0  0  0  0  0  0  0  0  0
   -3.7155   -2.6583   -0.4538 H   0  0  0  0  0  0  0  0  0  0  0  0
   -2.1155   -1.9963    0.7922 C   0  0  0  0  0  0  0  0  0  0  0  0
   -1.2875   -2.6383    1.4252 O   0  0  0  0  0  0  0  0  0  0  0  0
   -1.8575   -0.8123    0.2402 N   0  0  0  0  0  0  0  0  0  0  0  0
   -2.6005   -0.3333   -0.2478 H   0  0  0  0  0  0  0  0  0  0  0  0
   -0.5675   -0.1203    0.3102 C   0  0  1  0  0  0  0  0  0  0  0  0
    0.1932   -0.7715   -0.1219 H   0  0  0  0  0  0  0  0  0  0  0  0
   -0.6568    1.1713   -0.5294 C   0  0  0  0  0  0  0  0  0  0  0  0
   -0.4282    2.0225    0.1149 H   0  0  0  0  0  0  0  0  0  0  0  0
    0.1138    1.1253   -1.3022 H   0  0  0  0  0  0  0  0  0  0  0  0
   -2.0099    1.4308   -1.2169 C   0  0  0  0  0  0  0  0  0  0  0  0
   -2.3106    2.4664   -1.0585 H   0  0  0  0  0  0  0  0  0  0  0  0
   -1.9580    1.1518   -2.7218 C   0  0  0  0  0  0  0  0  0  0  0  0
   -1.6424    0.1224   -2.8971 H   0  0  0  0  0  0  0  0  0  0  0  0
   -2.9464    1.3007   -3.1571 H   0  0  0  0  0  0  0  0  0  0  0  0
   -1.2602    1.8260   -3.2137 H   0  0  0  0  0  0  0  0  0  0  0  0
   -3.0810    0.5283   -0.6055 C   0  0  0  0  0  0  0  0  0  0  0  0
   -3.1628    0.7282    0.4628 H   0  0  0  0  0  0  0  0  0  0  0  0
   -4.0455    0.7297   -1.0715 H   0  0  0  0  0  0  0  0  0  0  0  0
   -2.8201   -0.5198   -0.7566 H   0  0  0  0  0  0  0  0  0  0  0  0
   -0.1913    0.1554    1.7759 C   0  0  0  0  0  0  0  0  0  0  0  0
    0.9476   -0.0766    2.1748 O   0  0  0  0  0  0  0  0  0  0  0  0
   -1.1502    0.6393    2.5760 N   0  0  0  0  0  0  0  0  0  0  0  0
   -2.0581    0.8092    2.1736 H   0  0  0  0  0  0  0  0  0  0  0  0
   -0.9568    0.9369    3.9933 C   0  0  0  0  0  0  0  0  0  0  0  0
   -0.1600    1.6750    4.1097 H   0  0  0  0  0  0  0  0  0  0  0  0
   -1.8775    1.3307    4.4266 H   0  0  0  0  0  0  0  0  0  0  0  0
   -0.6678    0.0287    4.5244 H   0  0  0  0  0  0  0  0  0  0  0  0
  5  6  2  0  0  0  0
  5  7  1  0  0  0  0
  2  3  1  0  0  0  0
  2  4  1  0  0  0  0
  2  5  1  0  0  0  0
  1  2  1  0  0  0  0
 24 25  2  0  0  0  0
 24 26  1  0  0  0  0
 20 21  1  0  0  0  0
 20 22  1  0  0  0  0
 20 23  1  0  0  0  0
 16 17  1  0  0  0  0
 16 18  1  0  0  0  0
 16 19  1  0  0  0  0
 14 15  1  0  0  0  0
 14 16  1  0  0  0  0
 14 20  1  0  0  0  0
 11 12  1  0  0  0  0
 11 13  1  0  0  0  0
 11 14  1  0  0  0  0
  9 10  1  0  0  0  0
  9 11  1  0  0  0  0
  9 24  1  0  0  0  0
  7  8  1  0  0  0  0
  7  9  1  0  0  0  0
 28 29  1  0  0  0  0
 28 30  1  0  0  0  0
 28 31  1  0  0  0  0
 26 27  1  0  0  0  0
 26 28  1  0  0  0  0
M  END
$$$$
default_name
  -OEChem-02102213163D

 31 30  0     1  0  0  0  0  0999 V2000
   -3.5895   -3.5013    1.1082 H   0  0  0  0  0  0  0  0  0  0  0  0
   -3.5145   -2.5363    0.6082 C   0  0  0  0  0  0  0  0  0  0  0  0
   -4.2285   -1.8413    1.0452 H   0  0  0  0  0  0  0  0  0  0  0  0
   -3.7155   -2.6583   -0.4538 H   0  0  0  0  0  0  0  0  0  0  0  0
   -2.1155   -1.9963    0.7922 C   0  0  0  0  0  0  0  0  0  0  0  0
   -1.2875   -2.6383    1.4252 O   0  0  0  0  0  0  0  0  0  0  0  0
   -1.8575   -0.8123    0.2402 N   0  0  0  0  0  0  0  0  0  0  0  0
   -2.6005   -0.3333   -0.2478 H   0  0  0  0  0  0  0  0  0  0  0  0
   -0.5675   -0.1203    0.3102 C   0  0  1  0  0  0  0  0  0  0  0  0
    0.1932   -0.7715   -0.1219 H   0  0  0  0  0  0  0  0  0  0  0  0
   -0.6568    1.1713   -0.5294 C   0  0  0  0  0  0  0  0  0  0  0  0
   -0.4282    2.0225    0.1149 H   0  0  0  0  0  0  0  0  0  0  0  0
    0.1138    1.1253   -1.3022 H   0  0  0  0  0  0  0  0  0  0  0  0
   -2.0099    1.4308   -1.2169 C   0  0  0  0  0  0  0  0  0  0  0  0
   -2.1848    2.5040   -1.2920 H   0  0  0  0  0  0  0  0  0  0  0  0
   -2.0750    0.8163   -2.6181 C   0  0  0  0  0  0  0  0  0  0  0  0
   -1.8856   -0.2565   -2.5614 H   0  0  0  0  0  0  0  0  0  0  0  0
   -3.0641    0.9816   -3.0459 H   0  0  0  0  0  0  0  0  0  0  0  0
   -1.3361    1.2735   -3.2728 H   0  0  0  0  0  0  0  0  0  0  0  0
   -3.1375    0.8249   -0.3822 C   0  0  0  0  0  0  0  0  0  0  0  0
   -3.1357    1.2683    0.6135 H   0  0  0  0  0  0  0  0  0  0  0  0
   -4.0989    1.0311   -0.8526 H   0  0  0  0  0  0  0  0  0  0  0  0
   -3.0032   -0.2540   -0.2960 H   0  0  0  0  0  0  0  0  0  0  0  0
   -0.1913    0.1554    1.7759 C   0  0  0  0  0  0  0  0  0  0  0  0
    0.9476   -0.0766    2.1748 O   0  0  0  0  0  0  0  0  0  0  0  0
   -1.1502    0.6393    2.5760 N   0  0  0  0  0  0  0  0  0  0  0  0
   -2.0581    0.8092    2.1736 H   0  0  0  0  0  0  0  0  0  0  0  0
   -0.9568    0.9369    3.9933 C   0  0  0  0  0  0  0  0  0  0  0  0
   -0.1600    1.6750    4.1097 H   0  0  0  0  0  0  0  0  0  0  0  0
   -1.8775    1.3307    4.4266 H   0  0  0  0  0  0  0  0  0  0  0  0
   -0.6678    0.0287    4.5244 H   0  0  0  0  0  0  0  0  0  0  0  0
  5  6  2  0  0  0  0
  5  7  1  0  0  0  0
  2  3  1  0  0  0  0
  2  4  1  0  0  0  0
  2  5  1  0  0  0  0
  1  2  1  0  0  0  0
 24 25  2  0  0  0  0
 24 26  1  0  0  0  0
 20 21  1  0  0  0  0
 20 22  1  0  0  0  0
 20 23  1  0  0  0  0
 16 17  1  0  0  0  0
 16 18  1  0  0  0  0
 16 19  1  0  0  0  0
 14 15  1  0  0  0  0
 14 16  1  0  0  0  0
 14 20  1  0  0  0  0
 11 12  1  0  0  0  0
 11 13  1  0  0  0  0
 11 14  1  0  0  0  0
  9 10  1  0  0  0  0
  9 11  1  0  0  0  0
  9 24  1  0  0  0  0
  7  8  1  0  0  0  0
  7  9  1  0  0  0  0
 28 29  1  0  0  0  0
 28 30  1  0  0  0  0
 28 31  1  0  0  0  0
 26 27  1  0  0  0  0
 26 28  1  0  0  0  0
M  END
$$$$
default_name
  -OEChem-02102213163D

 31 30  0     1  0  0  0  0  0999 V2000
   -3.5895   -3.5013    1.1082 H   0  0  0  0  0  0  0  0  0  0  0  0
   -3.5145   -2.5363    0.6082 C   0  0  0  0  0  0  0  0  0  0  0  0
   -4.2285   -1.8413    1.0452 H   0  0  0  0  0  0  0  0  0  0  0  0
   -3.7155   -2.6583   -0.4538 H   0  0  0  0  0  0  0  0  0  0  0  0
   -2.1155   -1.9963    0.7922 C   0  0  0  0  0  0  0  0  0  0  0  0
   -1.2875   -2.6383    1.4252 O   0  0  0  0  0  0  0  0  0  0  0  0
   -1.8575   -0.8123    0.2402 N   0  0  0  0  0  0  0  0  0  0  0  0
   -2.6005   -0.3333   -0.2478 H   0  0  0  0  0  0  0  0  0  0  0  0
   -0.5675   -0.1203    0.3102 C   0  0  1  0  0  0  0  0  0  0  0  0
    0.1932   -0.7715   -0.1219 H   0  0  0  0  0  0  0  0  0  0  0  0
   -0.6568    1.1713   -0.5294 C   0  0  0  0  0  0  0  0  0  0  0  0
   -0.4282    2.0225    0.1149 H   0  0  0  0  0  0  0  0  0  0  0  0
    0.1138    1.1253   -1.3022 H   0  0  0  0  0  0  0  0  0  0  0  0
   -2.0099    1.4308   -1.2169 C   0  0  0  0  0  0  0  0  0  0  0  0
   -2.0691    2.4727   -1.5315 H   0  0  0  0  0  0  0  0  0  0  0  0
   -2.2222    0.5294   -2.4366 C   0  0  0  0  0  0  0  0  0  0  0  0
   -2.1496   -0.5180   -2.1404 H   0  0  0  0  0  0  0  0  0  0  0  0
   -3.2097    0.7123   -2.8608 H   0  0  0  0  0  0  0  0  0  0  0  0
   -1.4759    0.7351   -3.2009 H   0  0  0  0  0  0  0  0  0  0  0  0
   -3.1482    1.1686   -0.2315 C   0  0  0  0  0  0  0  0  0  0  0  0
   -3.0407    1.8210    0.6350 H   0  0  0  0  0  0  0  0  0  0  0  0
   -4.1061    1.3782   -0.7075 H   0  0  0  0  0  0  0  0  0  0  0  0
   -3.1292    0.1287    0.0964 H   0  0  0  0  0  0  0  0  0  0  0  0
   -0.1913    0.1554    1.7759 C   0  0  0  0  0  0  0  0  0  0  0  0
    0.9476   -0.0766    2.1748 O   0  0  0  0  0  0  0  0  0  0  0  0
   -1.1502    0.6393    2.5760 N   0  0  0  0  0  0  0  0  0  0  0  0
   -2.0581    0.8092    2.1736 H   0  0  0  0  0  0  0  0  0  0  0  0
   -0.9568    0.9369    3.9933 C   0  0  0  0  0  0  0  0  0  0  0  0
   -0.1600    1.6750    4.1097 H   0  0  0  0  0  0  0  0  0  0  0  0
   -1.8775    1.3307    4.4266 H   0  0  0  0  0  0  0  0  0  0  0  0
   -0.6678    0.0287    4.5244 H   0  0  0  0  0  0  0  0  0  0  0  0
  5  6  2  0  0  0  0
  5  7  1  0  0  0  0
  2  3  1  0  0  0  0
  2  4  1  0  0  0  0
  2  5  1  0  0  0  0
  1  2  1  0  0  0  0
 24 25  2  0  0  0  0
 24 26  1  0  0  0  0
 20 21  1  0  0  0  0
 20 22  1  0  0  0  0
 20 23  1  0  0  0  0
 16 17  1  0  0  0  0
 16 18  1  0  0  0  0
 16 19  1  0  0  0  0
 14 15  1  0  0  0  0
 14 16  1  0  0  0  0
 14 20  1  0  0  0  0
 11 12  1  0  0  0  0
 11 13  1  0  0  0  0
 11 14  1  0  0  0  0
  9 10  1  0  0  0  0
  9 11  1  0  0  0  0
  9 24  1  0  0  0  0
  7  8  1  0  0  0  0
  7  9  1  0  0  0  0
 28 29  1  0  0  0  0
 28 30  1  0  0  0  0
 28 31  1  0  0  0  0
 26 27  1  0  0  0  0
 26 28  1  0  0  0  0
M  END
$$$$
default_name
  -OEChem-02102213163D

 31 30  0     1  0  0  0  0  0999 V2000
   -3.5895   -3.5013    1.1082 H   0  0  0  0  0  0  0  0  0  0  0  0
   -3.5145   -2.5363    0.6082 C   0  0  0  0  0  0  0  0  0  0  0  0
   -4.2285   -1.8413    1.0452 H   0  0  0  0  0  0  0  0  0  0  0  0
   -3.7155   -2.6583   -0.4538 H   0  0  0  0  0  0  0  0  0  0  0  0
   -2.1155   -1.9963    0.7922 C   0  0  0  0  0  0  0  0  0  0  0  0
   -1.2875   -2.6383    1.4252 O   0  0  0  0  0  0  0  0  0  0  0  0
   -1.8575   -0.8123    0.2402 N   0  0  0  0  0  0  0  0  0  0  0  0
   -2.6005   -0.3333   -0.2478 H   0  0  0  0  0  0  0  0  0  0  0  0
   -0.5675   -0.1203    0.3102 C   0  0  1  0  0  0  0  0  0  0  0  0
    0.1932   -0.7715   -0.1219 H   0  0  0  0  0  0  0  0  0  0  0  0
   -0.6568    1.1713   -0.5294 C   0  0  0  0  0  0  0  0  0  0  0  0
   -0.4282    2.0225    0.1149 H   0  0  0  0  0  0  0  0  0  0  0  0
    0.1138    1.1253   -1.3022 H   0  0  0  0  0  0  0  0  0  0  0  0
   -2.0099    1.4308   -1.2169 C   0  0  0  0  0  0  0  0  0  0  0  0
   -1.9715    2.3746   -1.7608 H   0  0  0  0  0  0  0  0  0  0  0  0
   -2.3897    0.3106   -2.1896 C   0  0  0  0  0  0  0  0  0  0  0  0
   -2.4165   -0.6443   -1.6628 H   0  0  0  0  0  0  0  0  0  0  0  0
   -3.3735    0.5111   -2.6144 H   0  0  0  0  0  0  0  0  0  0  0  0
   -1.6700    0.2475   -3.0029 H   0  0  0  0  0  0  0  0  0  0  0  0
   -3.1122    1.5362   -0.1637 C   0  0  0  0  0  0  0  0  0  0  0  0
   -2.8840    2.3489    0.5258 H   0  0  0  0  0  0  0  0  0  0  0  0
   -4.0666    1.7473   -0.6459 H   0  0  0  0  0  0  0  0  0  0  0  0
   -3.1895    0.6021    0.3939 H   0  0  0  0  0  0  0  0  0  0  0  0
   -0.1913    0.1554    1.7759 C   0  0  0  0  0  0  0  0  0  0  0  0
    0.9476   -0.0766    2.1748 O   0  0  0  0  0  0  0  0  0  0  0  0
   -1.1502    0.6393    2.5760 N   0  0  0  0  0  0  0  0  0  0  0  0
   -2.0581    0.8092    2.1736 H   0  0  0  0  0  0  0  0  0  0  0  0
   -0.9568    0.9369    3.9933 C   0  0  0  0  0  0  0  0  0  0  0  0
   -0.1600    1.6750    4.1097 H   0  0  0  0  0  0  0  0  0  0  0  0
   -1.8775    1.3307    4.4266 H   0  0  0  0  0  0  0  0  0  0  0  0
   -0.6678    0.0287    4.5244 H   0  0  0  0  0  0  0  0  0  0  0  0
  5  6  2  0  0  0  0
  5  7  1  0  0  0  0
  2  3  1  0  0  0  0
  2  4  1  0  0  0  0
  2  5  1  0  0  0  0
  1  2  1  0  0  0  0
 24 25  2  0  0  0  0
 24 26  1  0  0  0  0
 20 21  1  0  0  0  0
 20 22  1  0  0  0  0
 20 23  1  0  0  0  0
 16 17  1  0  0  0  0
 16 18  1  0  0  0  0
 16 19  1  0  0  0  0
 14 15  1  0  0  0  0
 14 16  1  0  0  0  0
 14 20  1  0  0  0  0
 11 12  1  0  0  0  0
 11 13  1  0  0  0  0
 11 14  1  0  0  0  0
  9 10  1  0  0  0  0
  9 11  1  0  0  0  0
  9 24  1  0  0  0  0
  7  8  1  0  0  0  0
  7  9  1  0  0  0  0
 28 29  1  0  0  0  0
 28 30  1  0  0  0  0
 28 31  1  0  0  0  0
 26 27  1  0  0  0  0
 26 28  1  0  0  0  0
M  END
$$$$
default_name
  -OEChem-02102213163D

 31 30  0     1  0  0  0  0  0999 V2000
   -3.5895   -3.5013    1.1082 H   0  0  0  0  0  0  0  0  0  0  0  0
   -3.5145   -2.5363    0.6082 C   0  0  0  0  0  0  0  0  0  0  0  0
   -4.2285   -1.8413    1.0452 H   0  0  0  0  0  0  0  0  0  0  0  0
   -3.7155   -2.6583   -0.4538 H   0  0  0  0  0  0  0  0  0  0  0  0
   -2.1155   -1.9963    0.7922 C   0  0  0  0  0  0  0  0  0  0  0  0
   -1.2875   -2.6383    1.4252 O   0  0  0  0  0  0  0  0  0  0  0  0
   -1.8575   -0.8123    0.2402 N   0  0  0  0  0  0  0  0  0  0  0  0
   -2.6005   -0.3333   -0.2478 H   0  0  0  0  0  0  0  0  0  0  0  0
   -0.5675   -0.1203    0.3102 C   0  0  1  0  0  0  0  0  0  0  0  0
    0.1932   -0.7715   -0.1219 H   0  0  0  0  0  0  0  0  0  0  0  0
   -0.6568    1.1713   -0.5294 C   0  0  0  0  0  0  0  0  0  0  0  0
   -0.4282    2.0225    0.1149 H   0  0  0  0  0  0  0  0  0  0  0  0
    0.1138    1.1253   -1.3022 H   0  0  0  0  0  0  0  0  0  0  0  0
   -2.0099    1.4308   -1.2169 C   0  0  0  0  0  0  0  0  0  0  0  0
   -1.8984    2.2164   -1.9642 H   0  0  0  0  0  0  0  0  0  0  0  0
   -2.5659    0.1747   -1.8939 C   0  0  0  0  0  0  0  0  0  0  0  0
   -2.6681   -0.6268   -1.1610 H   0  0  0  0  0  0  0  0  0  0  0  0
   -3.5442    0.3917   -2.3235 H   0  0  0  0  0  0  0  0  0  0  0  0
   -1.9051   -0.1559   -2.6923 H   0  0  0  0  0  0  0  0  0  0  0  0
   -3.0320    1.9025   -0.1833 C   0  0  0  0  0  0  0  0  0  0  0  0
   -2.6765    2.8158    0.2936 H   0  0  0  0  0  0  0  0  0  0  0  0
   -3.9832    2.1133   -0.6721 H   0  0  0  0  0  0  0  0  0  0  0  0
   -3.1802    1.1341    0.5762 H   0  0  0  0  0  0  0  0  0  0  0  0
   -0.1913    0.1554    1.7759 C   0  0  0  0  0  0  0  0  0  0  0  0
    0.9476   -0.0766    2.1748 O   0  0  0  0  0  0  0  0  0  0  0  0
   -1.1502    0.6393    2.5760 N   0  0  0  0  0  0  0  0  0  0  0  0
   -2.0581    0.8092    2.1736 H   0  0  0  0  0  0  0  0  0  0  0  0
   -0.9568    0.9369    3.9933 C   0  0  0  0  0  0  0  0  0  0  0  0
   -0.1600    1.6750    4.1097 H   0  0  0  0  0  0  0  0  0  0  0  0
   -1.8775    1.3307    4.4266 H   0  0  0  0  0  0  0  0  0  0  0  0
   -0.6678    0.0287    4.5244 H   0  0  0  0  0  0  0  0  0  0  0  0
  5  6  2  0  0  0  0
  5  7  1  0  0  0  0
  2  3  1  0  0  0  0
  2  4  1  0  0  0  0
  2  5  1  0  0  0  0
  1  2  1  0  0  0  0
 24 25  2  0  0  0  0
 24 26  1  0  0  0  0
 20 21  1  0  0  0  0
 20 22  1  0  0  0  0
 20 23  1  0  0  0  0
 16 17  1  0  0  0  0
 16 18  1  0  0  0  0
 16 19  1  0  0  0  0
 14 15  1  0  0  0  0
 14 16  1  0  0  0  0
 14 20  1  0  0  0  0
 11 12  1  0  0  0  0
 11 13  1  0  0  0  0
 11 14  1  0  0  0  0
  9 10  1  0  0  0  0
  9 11  1  0  0  0  0
  9 24  1  0  0  0  0
  7  8  1  0  0  0  0
  7  9  1  0  0  0  0
 28 29  1  0  0  0  0
 28 30  1  0  0  0  0
 28 31  1  0  0  0  0
 26 27  1  0  0  0  0
 26 28  1  0  0  0  0
M  END
$$$$
default_name
  -OEChem-02102213163D

 31 30  0     1  0  0  0  0  0999 V2000
   -3.5895   -3.5013    1.1082 H   0  0  0  0  0  0  0  0  0  0  0  0
   -3.5145   -2.5363    0.6082 C   0  0  0  0  0  0  0  0  0  0  0  0
   -4.2285   -1.8413    1.0452 H   0  0  0  0  0  0  0  0  0  0  0  0
   -3.7155   -2.6583   -0.4538 H   0  0  0  0  0  0  0  0  0  0  0  0
   -2.1155   -1.9963    0.7922 C   0  0  0  0  0  0  0  0  0  0  0  0
   -1.2875   -2.6383    1.4252 O   0  0  0  0  0  0  0  0  0  0  0  0
   -1.8575   -0.8123    0.2402 N   0  0  0  0  0  0  0  0  0  0  0  0
   -2.6005   -0.3333   -0.2478 H   0  0  0  0  0  0  0  0  0  0  0  0
   -0.5675   -0.1203    0.3102 C   0  0  1  0  0  0  0  0  0  0  0  0
    0.1932   -0.7715   -0.1219 H   0  0  0  0  0  0  0  0  0  0  0  0
   -0.6568    1.1713   -0.5294 C   0  0  0  0  0  0  0  0  0  0  0  0
   -0.4282    2.0225    0.1149 H   0  0  0  0  0  0  0  0  0  0  0  0
    0.1138    1.1253   -1.3022 H   0  0  0  0  0  0  0  0  0  0  0  0
   -2.0099    1.4308   -1.2169 C   0  0  0  0  0  0  0  0  0  0  0  0
   -1.8551    2.0089   -2.1279 H   0  0  0  0  0  0  0  0  0  0  0  0
   -2.7390    0.1311   -1.5697 C   0  0  0  0  0  0  0  0  0  0  0  0
   -2.8872   -0.4667   -0.6694 H   0  0  0  0  0  0  0  0  0  0  0  0
   -3.7101    0.3623   -2.0079 H   0  0  0  0  0  0  0  0  0  0  0  0
   -2.1653   -0.4478   -2.2903 H   0  0  0  0  0  0  0  0  0  0  0  0
   -2.9130    2.2425   -0.2891 C   0  0  0  0  0  0  0  0  0  0  0  0
   -2.4322    3.1900   -0.0461 H   0  0  0  0  0  0  0  0  0  0  0  0
   -3.8614    2.4512   -0.7843 H   0  0  0  0  0  0  0  0  0  0  0  0
   -3.1017    1.6883    0.6309 H   0  0  0  0  0  0  0  0  0  0  0  0
   -0.1913    0.1554    1.7759 C   0  0  0  0  0  0  0  0  0  0  0  0
    0.9476   -0.0766    2.1748 O   0  0  0  0  0  0  0  0  0  0  0  0
   -1.1502    0.6393    2.5760 N   0  0  0  0  0  0  0  0  0  0  0  0
   -2.0581    0.8092    2.1736 H   0  0  0  0  0  0  0  0  0  0  0  0
   -0.9568    0.9369    3.9933 C   0  0  0  0  0  0  0  0  0  0  0  0
   -0.1600    1.6750    4.1097 H   0  0  0  0  0  0  0  0  0  0  0  0
   -1.8775    1.3307    4.4266 H   0  0  0  0  0  0  0  0  0  0  0  0
   -0.6678    0.0287    4.5244 H   0  0  0  0  0  0  0  0  0  0  0  0
  5  6  2  0  0  0  0
  5  7  1  0  0  0  0
  2  3  1  0  0  0  0
  2  4  1  0  0  0  0
  2  5  1  0  0  0  0
  1  2  1  0  0  0  0
 24 25  2  0  0  0  0
 24 26  1  0  0  0  0
 20 21  1  0  0  0  0
 20 22  1  0  0  0  0
 20 23  1  0  0  0  0
 16 17  1  0  0  0  0
 16 18  1  0  0  0  0
 16 19  1  0  0  0  0
 14 15  1  0  0  0  0
 14 16  1  0  0  0  0
 14 20  1  0  0  0  0
 11 12  1  0  0  0  0
 11 13  1  0  0  0  0
 11 14  1  0  0  0  0
  9 10  1  0  0  0  0
  9 11  1  0  0  0  0
  9 24  1  0  0  0  0
  7  8  1  0  0  0  0
  7  9  1  0  0  0  0
 28 29  1  0  0  0  0
 28 30  1  0  0  0  0
 28 31  1  0  0  0  0
 26 27  1  0  0  0  0
 26 28  1  0  0  0  0
M  END
$$$$
default_name
  -OEChem-02102213163D

 31 30  0     1  0  0  0  0  0999 V2000
   -3.5895   -3.5013    1.1082 H   0  0  0  0  0  0  0  0  0  0  0  0
   -3.5145   -2.5363    0.6082 C   0  0  0  0  0  0  0  0  0  0  0  0
   -4.2285   -1.8413    1.0452 H   0  0  0  0  0  0  0  0  0  0  0  0
   -3.7155   -2.6583   -0.4538 H   0  0  0  0  0  0  0  0  0  0  0  0
   -2.1155   -1.9963    0.7922 C   0  0  0  0  0  0  0  0  0  0  0  0
   -1.2875   -2.6383    1.4252 O   0  0  0  0  0  0  0  0  0  0  0  0
   -1.8575   -0.8123    0.2402 N   0  0  0  0  0  0  0  0  0  0  0  0
   -2.6005   -0.3333   -0.2478 H   0  0  0  0  0  0  0  0  0  0  0  0
   -0.5675   -0.1203    0.3102 C   0  0  1  0  0  0  0  0  0  0  0  0
    0.1932   -0.7715   -0.1219 H   0  0  0  0  0  0  0  0  0  0  0  0
   -0.6568    1.1713   -0.5294 C   0  0  0  0  0  0  0  0  0  0  0  0
   -0.4282    2.0225    0.1149 H   0  0  0  0  0  0  0  0  0  0  0  0
    0.1138    1.1253   -1.3022 H   0  0  0  0  0  0  0  0  0  0  0  0
   -2.0099    1.4308   -1.2169 C   0  0  0  0  0  0  0  0  0  0  0  0
   -1.8443    1.7662   -2.2407 H   0  0  0  0  0  0  0  0  0  0  0  0
   -2.8971    0.1827   -1.2391 C   0  0  0  0  0  0  0  0  0  0  0  0
   -3.0589   -0.1750   -0.2213 H   0  0  0  0  0  0  0  0  0  0  0  0
   -3.8601    0.4248   -1.6892 H   0  0  0  0  0  0  0  0  0  0  0  0
   -2.4329   -0.6083   -1.8242 H   0  0  0  0  0  0  0  0  0  0  0  0
   -2.7634    2.5332   -0.4738 C   0  0  0  0  0  0  0  0  0  0  0  0
   -2.1678    3.4460   -0.4699 H   0  0  0  0  0  0  0  0  0  0  0  0
   -3.7096    2.7380   -0.9748 H   0  0  0  0  0  0  0  0  0  0  0  0
   -2.9595    2.2270    0.5543 H   0  0  0  0  0  0  0  0  0  0  0  0
   -0.1913    0.1554    1.7759 C   0  0  0  0  0  0  0  0  0  0  0  0
    0.9476   -0.0766    2.1748 O   0  0  0  0  0  0  0  0  0  0  0  0
   -1.1502    0.6393    2.5760 N   0  0  0  0  0  0  0  0  0  0  0  0
   -2.0581    0.8092    2.1736 H   0  0  0  0  0  0  0  0  0  0  0  0
   -0.9568    0.9369    3.9933 C   0  0  0  0  0  0  0  0  0  0  0  0
   -0.1600    1.6750    4.1097 H   0  0  0  0  0  0  0  0  0  0  0  0
   -1.8775    1.3307    4.4266 H   0  0  0  0  0  0  0  0  0  0  0  0
   -0.6678    0.0287    4.5244 H   0  0  0  0  0  0  0  0  0  0  0  0
  5  6  2  0  0  0  0
  5  7  1  0  0  0  0
  2  3  1  0  0  0  0
  2  4  1  0  0  0  0
  2  5  1  0  0  0  0
  1  2  1  0  0  0  0
 24 25  2  0  0  0  0
 24 26  1  0  0  0  0
 20 21  1  0  0  0  0
 20 22  1  0  0  0  0
 20 23  1  0  0  0  0
 16 17  1  0  0  0  0
 16 18  1  0  0  0  0
 16 19  1  0  0  0  0
 14 15  1  0  0  0  0
 14 16  1  0  0  0  0
 14 20  1  0  0  0  0
 11 12  1  0  0  0  0
 11 13  1  0  0  0  0
 11 14  1  0  0  0  0
  9 10  1  0  0  0  0
  9 11  1  0  0  0  0
  9 24  1  0  0  0  0
  7  8  1  0  0  0  0
  7  9  1  0  0  0  0
 28 29  1  0  0  0  0
 28 30  1  0  0  0  0
 28 31  1  0  0  0  0
 26 27  1  0  0  0  0
 26 28  1  0  0  0  0
M  END
$$$$
default_name
  -OEChem-02102213163D

 31 30  0     1  0  0  0  0  0999 V2000
   -3.5895   -3.5013    1.1082 H   0  0  0  0  0  0  0  0  0  0  0  0
   -3.5145   -2.5363    0.6082 C   0  0  0  0  0  0  0  0  0  0  0  0
   -4.2285   -1.8413    1.0452 H   0  0  0  0  0  0  0  0  0  0  0  0
   -3.7155   -2.6583   -0.4538 H   0  0  0  0  0  0  0  0  0  0  0  0
   -2.1155   -1.9963    0.7922 C   0  0  0  0  0  0  0  0  0  0  0  0
   -1.2875   -2.6383    1.4252 O   0  0  0  0  0  0  0  0  0  0  0  0
   -1.8575   -0.8123    0.2402 N   0  0  0  0  0  0  0  0  0  0  0  0
   -2.6005   -0.3333   -0.2478 H   0  0  0  0  0  0  0  0  0  0  0  0
   -0.5675   -0.1203    0.3102 C   0  0  1  0  0  0  0  0  0  0  0  0
    0.1932   -0.7715   -0.1219 H   0  0  0  0  0  0  0  0  0  0  0  0
   -0.6568    1.1713   -0.5294 C   0  0  0  0  0  0  0  0  0  0  0  0
   -0.4282    2.0225    0.1149 H   0  0  0  0  0  0  0  0  0  0  0  0
    0.1138    1.1253   -1.3022 H   0  0  0  0  0  0  0  0  0  0  0  0
   -2.0099    1.4308   -1.2169 C   0  0  0  0  0  0  0  0  0  0  0  0
   -1.8668    1.5049   -2.2949 H   0  0  0  0  0  0  0  0  0  0  0  0
   -3.0294    0.3260   -0.9246 C   0  0  0  0  0  0  0  0  0  0  0  0
   -3.1715    0.2286    0.1526 H   0  0  0  0  0  0  0  0  0  0  0  0
   -3.9838    0.5751   -1.3890 H   0  0  0  0  0  0  0  0  0  0  0  0
   -2.6896   -0.6263   -1.3258 H   0  0  0  0  0  0  0  0  0  0  0  0
   -2.5934    2.7547   -0.7249 C   0  0  0  0  0  0  0  0  0  0  0  0
   -1.9013    3.5663   -0.9490 H   0  0  0  0  0  0  0  0  0  0  0  0
   -3.5381    2.9542   -1.2307 H   0  0  0  0  0  0  0  0  0  0  0  0
   -2.7632    2.7134    0.3516 H   0  0  0  0  0  0  0  0  0  0  0  0
   -0.1913    0.1554    1.7759 C   0  0  0  0  0  0  0  0  0  0  0  0
    0.9476   -0.0766    2.1748 O   0  0  0  0  0  0  0  0  0  0  0  0
   -1.1502    0.6393    2.5760 N   0  0  0  0  0  0  0  0  0  0  0  0
   -2.0581    0.8092    2.1736 H   0  0  0  0  0  0  0  0  0  0  0  0
   -0.9568    0.9369    3.9933 C   0  0  0  0  0  0  0  0  0  0  0  0
   -0.1600    1.6750    4.1097 H   0  0  0  0  0  0  0  0  0  0  0  0
   -1.8775    1.3307    4.4266 H   0  0  0  0  0  0  0  0  0  0  0  0
   -0.6678    0.0287    4.5244 H   0  0  0  0  0  0  0  0  0  0  0  0
  5  6  2  0  0  0  0
  5  7  1  0  0  0  0
  2  3  1  0  0  0  0
  2  4  1  0  0  0  0
  2  5  1  0  0  0  0
  1  2  1  0  0  0  0
 24 25  2  0  0  0  0
 24 26  1  0  0  0  0
 20 21  1  0  0  0  0
 20 22  1  0  0  0  0
 20 23  1  0  0  0  0
 16 17  1  0  0  0  0
 16 18  1  0  0  0  0
 16 19  1  0  0  0  0
 14 15  1  0  0  0  0
 14 16  1  0  0  0  0
 14 20  1  0  0  0  0
 11 12  1  0  0  0  0
 11 13  1  0  0  0  0
 11 14  1  0  0  0  0
  9 10  1  0  0  0  0
  9 11  1  0  0  0  0
  9 24  1  0  0  0  0
  7  8  1  0  0  0  0
  7  9  1  0  0  0  0
 28 29  1  0  0  0  0
 28 30  1  0  0  0  0
 28 31  1  0  0  0  0
 26 27  1  0  0  0  0
 26 28  1  0  0  0  0
M  END
$$$$
default_name
  -OEChem-02102213163D

 31 30  0     1  0  0  0  0  0999 V2000
   -3.5895   -3.5013    1.1082 H   0  0  0  0  0  0  0  0  0  0  0  0
   -3.5145   -2.5363    0.6082 C   0  0  0  0  0  0  0  0  0  0  0  0
   -4.2285   -1.8413    1.0452 H   0  0  0  0  0  0  0  0  0  0  0  0
   -3.7155   -2.6583   -0.4538 H   0  0  0  0  0  0  0  0  0  0  0  0
   -2.1155   -1.9963    0.7922 C   0  0  0  0  0  0  0  0  0  0  0  0
   -1.2875   -2.6383    1.4252 O   0  0  0  0  0  0  0  0  0  0  0  0
   -1.8575   -0.8123    0.2402 N   0  0  0  0  0  0  0  0  0  0  0  0
   -2.6005   -0.3333   -0.2478 H   0  0  0  0  0  0  0  0  0  0  0  0
   -0.5675   -0.1203    0.3102 C   0  0  1  0  0  0  0  0  0  0  0  0
    0.1932   -0.7715   -0.1219 H   0  0  0  0  0  0  0  0  0  0  0  0
   -0.6568    1.1713   -0.5294 C   0  0  0  0  0  0  0  0  0  0  0  0
   -0.4282    2.0225    0.1149 H   0  0  0  0  0  0  0  0  0  0  0  0
    0.1138    1.1253   -1.3022 H   0  0  0  0  0  0  0  0  0  0  0  0
   -2.0099    1.4308   -1.2169 C   0  0  0  0  0  0  0  0  0  0  0  0
   -1.9212    1.2428   -2.2869 H   0  0  0  0  0  0  0  0  0  0  0  0
   -3.1269    0.5513   -0.6476 C   0  0  0  0  0  0  0  0  0  0  0  0
   -3.2173    0.7164    0.4269 H   0  0  0  0  0  0  0  0  0  0  0  0
   -4.0729    0.8028   -1.1278 H   0  0  0  0  0  0  0  0  0  0  0  0
   -2.9178   -0.5007   -0.8291 H   0  0  0  0  0  0  0  0  0  0  0  0
   -2.4145    2.8919   -1.0252 C   0  0  0  0  0  0  0  0  0  0  0  0
   -1.6509    3.5428   -1.4508 H   0  0  0  0  0  0  0  0  0  0  0  0
   -3.3587    3.0849   -1.5345 H   0  0  0  0  0  0  0  0  0  0  0  0
   -2.5262    3.1145    0.0365 H   0  0  0  0  0  0  0  0  0  0  0  0
   -0.1913    0.1554    1.7759 C   0  0  0  0  0  0  0  0  0  0  0  0
    0.9476   -0.0766    2.1748 O   0  0  0  0  0  0  0  0  0  0  0  0
   -1.1502    0.6393    2.5760 N   0  0  0  0  0  0  0  0  0  0  0  0
   -2.0581    0.8092    2.1736 H   0  0  0  0  0  0  0  0  0  0  0  0
   -0.9568    0.9369    3.9933 C   0  0  0  0  0  0  0  0  0  0  0  0
   -0.1600    1.6750    4.1097 H   0  0  0  0  0  0  0  0  0  0  0  0
   -1.8775    1.3307    4.4266 H   0  0  0  0  0  0  0  0  0  0  0  0
   -0.6678    0.0287    4.5244 H   0  0  0  0  0  0  0  0  0  0  0  0
  5  6  2  0  0  0  0
  5  7  1  0  0  0  0
  2  3  1  0  0  0  0
  2  4  1  0  0  0  0
  2  5  1  0  0  0  0
  1  2  1  0  0  0  0
 24 25  2  0  0  0  0
 24 26  1  0  0  0  0
 20 21  1  0  0  0  0
 20 22  1  0  0  0  0
 20 23  1  0  0  0  0
 16 17  1  0  0  0  0
 16 18  1  0  0  0  0
 16 19  1  0  0  0  0
 14 15  1  0  0  0  0
 14 16  1  0  0  0  0
 14 20  1  0  0  0  0
 11 12  1  0  0  0  0
 11 13  1  0  0  0  0
 11 14  1  0  0  0  0
  9 10  1  0  0  0  0
  9 11  1  0  0  0  0
  9 24  1  0  0  0  0
  7  8  1  0  0  0  0
  7  9  1  0  0  0  0
 28 29  1  0  0  0  0
 28 30  1  0  0  0  0
 28 31  1  0  0  0  0
 26 27  1  0  0  0  0
 26 28  1  0  0  0  0
M  END
$$$$
default_name
  -OEChem-02102213163D

 31 30  0     1  0  0  0  0  0999 V2000
   -3.5895   -3.5013    1.1082 H   0  0  0  0  0  0  0  0  0  0  0  0
   -3.5145   -2.5363    0.6082 C   0  0  0  0  0  0  0  0  0  0  0  0
   -4.2285   -1.8413    1.0452 H   0  0  0  0  0  0  0  0  0  0  0  0
   -3.7155   -2.6583   -0.4538 H   0  0  0  0  0  0  0  0  0  0  0  0
   -2.1155   -1.9963    0.7922 C   0  0  0  0  0  0  0  0  0  0  0  0
   -1.2875   -2.6383    1.4252 O   0  0  0  0  0  0  0  0  0  0  0  0
   -1.8575   -0.8123    0.2402 N   0  0  0  0  0  0  0  0  0  0  0  0
   -2.6005   -0.3333   -0.2478 H   0  0  0  0  0  0  0  0  0  0  0  0
   -0.5675   -0.1203    0.3102 C   0  0  1  0  0  0  0  0  0  0  0  0
    0.1932   -0.7715   -0.1219 H   0  0  0  0  0  0  0  0  0  0  0  0
   -0.6568    1.1713   -0.5294 C   0  0  0  0  0  0  0  0  0  0  0  0
   -0.4282    2.0225    0.1149 H   0  0  0  0  0  0  0  0  0  0  0  0
    0.1138    1.1253   -1.3022 H   0  0  0  0  0  0  0  0  0  0  0  0
   -2.0099    1.4308   -1.2169 C   0  0  0  0  0  0  0  0  0  0  0  0
   -2.0036    0.9977   -2.2171 H   0  0  0  0  0  0  0  0  0  0  0  0
   -3.1830    0.8431   -0.4271 C   0  0  0  0  0  0  0  0  0  0  0  0
   -3.1932    1.2553    0.5828 H   0  0  0  0  0  0  0  0  0  0  0  0
   -4.1212    1.0924   -0.9234 H   0  0  0  0  0  0  0  0  0  0  0  0
   -3.1021   -0.2401   -0.3680 H   0  0  0  0  0  0  0  0  0  0  0  0
   -2.2390    2.9354   -1.3543 C   0  0  0  0  0  0  0  0  0  0  0  0
   -1.4336    3.3769   -1.9411 H   0  0  0  0  0  0  0  0  0  0  0  0
   -3.1835    3.1214   -1.8655 H   0  0  0  0  0  0  0  0  0  0  0  0
   -2.2647    3.4030   -0.3693 H   0  0  0  0  0  0  0  0  0  0  0  0
   -0.1913    0.1554    1.7759 C   0  0  0  0  0  0  0  0  0  0  0  0
    0.9476   -0.0766    2.1748 O   0  0  0  0  0  0  0  0  0  0  0  0
   -1.1502    0.6393    2.5760 N   0  0  0  0  0  0  0  0  0  0  0  0
   -2.0581    0.8092    2.1736 H   0  0  0  0  0  0  0  0  0  0  0  0
   -0.9568    0.9369    3.9933 C   0  0  0  0  0  0  0  0  0  0  0  0
   -0.1600    1.6750    4.1097 H   0  0  0  0  0  0  0  0  0  0  0  0
   -1.8775    1.3307    4.4266 H   0  0  0  0  0  0  0  0  0  0  0  0
   -0.6678    0.0287    4.5244 H   0  0  0  0  0  0  0  0  0  0  0  0
  5  6  2  0  0  0  0
  5  7  1  0  0  0  0
  2  3  1  0  0  0  0
  2  4  1  0  0  0  0
  2  5  1  0  0  0  0
  1  2  1  0  0  0  0
 24 25  2  0  0  0  0
 24 26  1  0  0  0  0
 20 21  1  0  0  0  0
 20 22  1  0  0  0  0
 20 23  1  0  0  0  0
 16 17  1  0  0  0  0
 16 18  1  0  0  0  0
 16 19  1  0  0  0  0
 14 15  1  0  0  0  0
 14 16  1  0  0  0  0
 14 20  1  0  0  0  0
 11 12  1  0  0  0  0
 11 13  1  0  0  0  0
 11 14  1  0  0  0  0
  9 10  1  0  0  0  0
  9 11  1  0  0  0  0
  9 24  1  0  0  0  0
  7  8  1  0  0  0  0
  7  9  1  0  0  0  0
 28 29  1  0  0  0  0
 28 30  1  0  0  0  0
 28 31  1  0  0  0  0
 26 27  1  0  0  0  0
 26 28  1  0  0  0  0
M  END
$$$$
default_name
  -OEChem-02102213163D

 31 30  0     1  0  0  0  0  0999 V2000
   -3.5895   -3.5013    1.1082 H   0  0  0  0  0  0  0  0  0  0  0  0
   -3.5145   -2.5363    0.6082 C   0  0  0  0  0  0  0  0  0  0  0  0
   -4.2285   -1.8413    1.0452 H   0  0  0  0  0  0  0  0  0  0  0  0
   -3.7155   -2.6583   -0.4538 H   0  0  0  0  0  0  0  0  0  0  0  0
   -2.1155   -1.9963    0.7922 C   0  0  0  0  0  0  0  0  0  0  0  0
   -1.2875   -2.6383    1.4252 O   0  0  0  0  0  0  0  0  0  0  0  0
   -1.8575   -0.8123    0.2402 N   0  0  0  0  0  0  0  0  0  0  0  0
   -2.6005   -0.3333   -0.2478 H   0  0  0  0  0  0  0  0  0  0  0  0
   -0.5675   -0.1203    0.3102 C   0  0  1  0  0  0  0  0  0  0  0  0
    0.1932   -0.7715   -0.1219 H   0  0  0  0  0  0  0  0  0  0  0  0
   -0.6568    1.1713   -0.5294 C   0  0  0  0  0  0  0  0  0  0  0  0
   -0.4282    2.0225    0.1149 H   0  0  0  0  0  0  0  0  0  0  0  0
    0.1138    1.1253   -1.3022 H   0  0  0  0  0  0  0  0  0  0  0  0
   -2.0099    1.4308   -1.2169 C   0  0  0  0  0  0  0  0  0  0  0  0
   -2.1085    0.7863   -2.0904 H   0  0  0  0  0  0  0  0  0  0  0  0
   -3.1938    1.1817   -0.2780 C   0  0  0  0  0  0  0  0  0  0  0  0
   -3.1008    1.8086    0.6099 H   0  0  0  0  0  0  0  0  0  0  0  0
   -4.1255    1.4242   -0.7897 H   0  0  0  0  0  0  0  0  0  0  0  0
   -3.2299    0.1378    0.0262 H   0  0  0  0  0  0  0  0  0  0  0  0
   -2.0788    2.8823   -1.6897 C   0  0  0  0  0  0  0  0  0  0  0  0
   -1.2643    3.0801   -2.3864 H   0  0  0  0  0  0  0  0  0  0  0  0
   -3.0246    3.0611   -2.2012 H   0  0  0  0  0  0  0  0  0  0  0  0
   -1.9965    3.5590   -0.8384 H   0  0  0  0  0  0  0  0  0  0  0  0
   -0.1913    0.1554    1.7759 C   0  0  0  0  0  0  0  0  0  0  0  0
    0.9476   -0.0766    2.1748 O   0  0  0  0  0  0  0  0  0  0  0  0
   -1.1502    0.6393    2.5760 N   0  0  0  0  0  0  0  0  0  0  0  0
   -2.0581    0.8092    2.1736 H   0  0  0  0  0  0  0  0  0  0  0  0
   -0.9568    0.9369    3.9933 C   0  0  0  0  0  0  0  0  0  0  0  0
   -0.1600    1.6750    4.1097 H   0  0  0  0  0  0  0  0  0  0  0  0
   -1.8775    1.3307    4.4266 H   0  0  0  0  0  0  0  0  0  0  0  0
   -0.6678    0.0287    4.5244 H   0  0  0  0  0  0  0  0  0  0  0  0
  5  6  2  0  0  0  0
  5  7  1  0  0  0  0
  2  3  1  0  0  0  0
  2  4  1  0  0  0  0
  2  5  1  0  0  0  0
  1  2  1  0  0  0  0
 24 25  2  0  0  0  0
 24 26  1  0  0  0  0
 20 21  1  0  0  0  0
 20 22  1  0  0  0  0
 20 23  1  0  0  0  0
 16 17  1  0  0  0  0
 16 18  1  0  0  0  0
 16 19  1  0  0  0  0
 14 15  1  0  0  0  0
 14 16  1  0  0  0  0
 14 20  1  0  0  0  0
 11 12  1  0  0  0  0
 11 13  1  0  0  0  0
 11 14  1  0  0  0  0
  9 10  1  0  0  0  0
  9 11  1  0  0  0  0
  9 24  1  0  0  0  0
  7  8  1  0  0  0  0
  7  9  1  0  0  0  0
 28 29  1  0  0  0  0
 28 30  1  0  0  0  0
 28 31  1  0  0  0  0
 26 27  1  0  0  0  0
 26 28  1  0  0  0  0
M  END
$$$$
default_name
  -OEChem-02102213163D

 31 30  0     1  0  0  0  0  0999 V2000
   -3.5895   -3.5013    1.1082 H   0  0  0  0  0  0  0  0  0  0  0  0
   -3.5145   -2.5363    0.6082 C   0  0  0  0  0  0  0  0  0  0  0  0
   -4.2285   -1.8413    1.0452 H   0  0  0  0  0  0  0  0  0  0  0  0
   -3.7155   -2.6583   -0.4538 H   0  0  0  0  0  0  0  0  0  0  0  0
   -2.1155   -1.9963    0.7922 C   0  0  0  0  0  0  0  0  0  0  0  0
   -1.2875   -2.6383    1.4252 O   0  0  0  0  0  0  0  0  0  0  0  0
   -1.8575   -0.8123    0.2402 N   0  0  0  0  0  0  0  0  0  0  0  0
   -2.6005   -0.3333   -0.2478 H   0  0  0  0  0  0  0  0  0  0  0  0
   -0.5675   -0.1203    0.3102 C   0  0  1  0  0  0  0  0  0  0  0  0
    0.1932   -0.7715   -0.1219 H   0  0  0  0  0  0  0  0  0  0  0  0
   -0.6568    1.1713   -0.5294 C   0  0  0  0  0  0  0  0  0  0  0  0
   -0.4282    2.0225    0.1149 H   0  0  0  0  0  0  0  0  0  0  0  0
    0.1138    1.1253   -1.3022 H   0  0  0  0  0  0  0  0  0  0  0  0
   -2.0099    1.4308   -1.2169 C   0  0  0  0  0  0  0  0  0  0  0  0
   -2.2288    0.6231   -1.9154 H   0  0  0  0  0  0  0  0  0  0  0  0
   -3.1587    1.5439   -0.2105 C   0  0  0  0  0  0  0  0  0  0  0  0
   -2.9465    2.3384    0.5061 H   0  0  0  0  0  0  0  0  0  0  0  0
   -4.0854    1.7757   -0.7358 H   0  0  0  0  0  0  0  0  0  0  0  0
   -3.2925    0.6073    0.3266 H   0  0  0  0  0  0  0  0  0  0  0  0
   -1.9448    2.7363   -2.0086 C   0  0  0  0  0  0  0  0  0  0  0  0
   -1.1544    2.6726   -2.7564 H   0  0  0  0  0  0  0  0  0  0  0  0
   -2.8926    2.9082   -2.5186 H   0  0  0  0  0  0  0  0  0  0  0  0
   -1.7399    3.5721   -1.3386 H   0  0  0  0  0  0  0  0  0  0  0  0
   -0.1913    0.1554    1.7759 C   0  0  0  0  0  0  0  0  0  0  0  0
    0.9476   -0.0766    2.1748 O   0  0  0  0  0  0  0  0  0  0  0  0
   -1.1502    0.6393    2.5760 N   0  0  0  0  0  0  0  0  0  0  0  0
   -2.0581    0.8092    2.1736 H   0  0  0  0  0  0  0  0  0  0  0  0
   -0.9568    0.9369    3.9933 C   0  0  0  0  0  0  0  0  0  0  0  0
   -0.1600    1.6750    4.1097 H   0  0  0  0  0  0  0  0  0  0  0  0
   -1.8775    1.3307    4.4266 H   0  0  0  0  0  0  0  0  0  0  0  0
   -0.6678    0.0287    4.5244 H   0  0  0  0  0  0  0  0  0  0  0  0
  5  6  2  0  0  0  0
  5  7  1  0  0  0  0
  2  3  1  0  0  0  0
  2  4  1  0  0  0  0
  2  5  1  0  0  0  0
  1  2  1  0  0  0  0
 24 25  2  0  0  0  0
 24 26  1  0  0  0  0
 20 21  1  0  0  0  0
 20 22  1  0  0  0  0
 20 23  1  0  0  0  0
 16 17  1  0  0  0  0
 16 18  1  0  0  0  0
 16 19  1  0  0  0  0
 14 15  1  0  0  0  0
 14 16  1  0  0  0  0
 14 20  1  0  0  0  0
 11 12  1  0  0  0  0
 11 13  1  0  0  0  0
 11 14  1  0  0  0  0
  9 10  1  0  0  0  0
  9 11  1  0  0  0  0
  9 24  1  0  0  0  0
  7  8  1  0  0  0  0
  7  9  1  0  0  0  0
 28 29  1  0  0  0  0
 28 30  1  0  0  0  0
 28 31  1  0  0  0  0
 26 27  1  0  0  0  0
 26 28  1  0  0  0  0
M  END
$$$$
default_name
  -OEChem-02102213163D

 31 30  0     1  0  0  0  0  0999 V2000
   -3.5895   -3.5013    1.1082 H   0  0  0  0  0  0  0  0  0  0  0  0
   -3.5145   -2.5363    0.6082 C   0  0  0  0  0  0  0  0  0  0  0  0
   -4.2285   -1.8413    1.0452 H   0  0  0  0  0  0  0  0  0  0  0  0
   -3.7155   -2.6583   -0.4538 H   0  0  0  0  0  0  0  0  0  0  0  0
   -2.1155   -1.9963    0.7922 C   0  0  0  0  0  0  0  0  0  0  0  0
   -1.2875   -2.6383    1.4252 O   0  0  0  0  0  0  0  0  0  0  0  0
   -1.8575   -0.8123    0.2402 N   0  0  0  0  0  0  0  0  0  0  0  0
   -2.6005   -0.3333   -0.2478 H   0  0  0  0  0  0  0  0  0  0  0  0
   -0.5675   -0.1203    0.3102 C   0  0  1  0  0  0  0  0  0  0  0  0
    0.1932   -0.7715   -0.1219 H   0  0  0  0  0  0  0  0  0  0  0  0
   -0.6568    1.1713   -0.5294 C   0  0  0  0  0  0  0  0  0  0  0  0
   -0.4282    2.0225    0.1149 H   0  0  0  0  0  0  0  0  0  0  0  0
    0.1138    1.1253   -1.3022 H   0  0  0  0  0  0  0  0  0  0  0  0
   -2.0099    1.4308   -1.2169 C   0  0  0  0  0  0  0  0  0  0  0  0
   -2.3561    0.5192   -1.7039 H   0  0  0  0  0  0  0  0  0  0  0  0
   -3.0799    1.9050   -0.2293 C   0  0  0  0  0  0  0  0  0  0  0  0
   -2.7408    2.8088    0.2787 H   0  0  0  0  0  0  0  0  0  0  0  0
   -4.0038    2.1227   -0.7655 H   0  0  0  0  0  0  0  0  0  0  0  0
   -3.2856    1.1364    0.5126 H   0  0  0  0  0  0  0  0  0  0  0  0
   -1.8461    2.5072   -2.2892 C   0  0  0  0  0  0  0  0  0  0  0  0
   -1.1115    2.1821   -3.0259 H   0  0  0  0  0  0  0  0  0  0  0  0
   -2.7967    2.6730   -2.7962 H   0  0  0  0  0  0  0  0  0  0  0  0
   -1.5123    3.4412   -1.8360 H   0  0  0  0  0  0  0  0  0  0  0  0
   -0.1913    0.1554    1.7759 C   0  0  0  0  0  0  0  0  0  0  0  0
    0.9476   -0.0766    2.1748 O   0  0  0  0  0  0  0  0  0  0  0  0
   -1.1502    0.6393    2.5760 N   0  0  0  0  0  0  0  0  0  0  0  0
   -2.0581    0.8092    2.1736 H   0  0  0  0  0  0  0  0  0  0  0  0
   -0.9568    0.9369    3.9933 C   0  0  0  0  0  0  0  0  0  0  0  0
   -0.1600    1.6750    4.1097 H   0  0  0  0  0  0  0  0  0  0  0  0
   -1.8775    1.3307    4.4266 H   0  0  0  0  0  0  0  0  0  0  0  0
   -0.6678    0.0287    4.5244 H   0  0  0  0  0  0  0  0  0  0  0  0
  5  6  2  0  0  0  0
  5  7  1  0  0  0  0
  2  3  1  0  0  0  0
  2  4  1  0  0  0  0
  2  5  1  0  0  0  0
  1  2  1  0  0  0  0
 24 25  2  0  0  0  0
 24 26  1  0  0  0  0
 20 21  1  0  0  0  0
 20 22  1  0  0  0  0
 20 23  1  0  0  0  0
 16 17  1  0  0  0  0
 16 18  1  0  0  0  0
 16 19  1  0  0  0  0
 14 15  1  0  0  0  0
 14 16  1  0  0  0  0
 14 20  1  0  0  0  0
 11 12  1  0  0  0  0
 11 13  1  0  0  0  0
 11 14  1  0  0  0  0
  9 10  1  0  0  0  0
  9 11  1  0  0  0  0
  9 24  1  0  0  0  0
  7  8  1  0  0  0  0
  7  9  1  0  0  0  0
 28 29  1  0  0  0  0
 28 30  1  0  0  0  0
 28 31  1  0  0  0  0
 26 27  1  0  0  0  0
 26 28  1  0  0  0  0
M  END
$$$$
default_name
  -OEChem-02102213163D

 31 30  0     1  0  0  0  0  0999 V2000
   -3.5895   -3.5013    1.1082 H   0  0  0  0  0  0  0  0  0  0  0  0
   -3.5145   -2.5363    0.6082 C   0  0  0  0  0  0  0  0  0  0  0  0
   -4.2285   -1.8413    1.0452 H   0  0  0  0  0  0  0  0  0  0  0  0
   -3.7155   -2.6583   -0.4538 H   0  0  0  0  0  0  0  0  0  0  0  0
   -2.1155   -1.9963    0.7922 C   0  0  0  0  0  0  0  0  0  0  0  0
   -1.2875   -2.6383    1.4252 O   0  0  0  0  0  0  0  0  0  0  0  0
   -1.8575   -0.8123    0.2402 N   0  0  0  0  0  0  0  0  0  0  0  0
   -2.6005   -0.3333   -0.2478 H   0  0  0  0  0  0  0  0  0  0  0  0
   -0.5675   -0.1203    0.3102 C   0  0  1  0  0  0  0  0  0  0  0  0
    0.1932   -0.7715   -0.1219 H   0  0  0  0  0  0  0  0  0  0  0  0
   -0.6568    1.1713   -0.5294 C   0  0  0  0  0  0  0  0  0  0  0  0
   -0.4282    2.0225    0.1149 H   0  0  0  0  0  0  0  0  0  0  0  0
    0.1138    1.1253   -1.3022 H   0  0  0  0  0  0  0  0  0  0  0  0
   -2.0099    1.4308   -1.2169 C   0  0  0  0  0  0  0  0  0  0  0  0
   -2.4819    0.4816   -1.4705 H   0  0  0  0  0  0  0  0  0  0  0  0
   -2.9629    2.2404   -0.3329 C   0  0  0  0  0  0  0  0  0  0  0  0
   -2.4976    3.1877   -0.0570 H   0  0  0  0  0  0  0  0  0  0  0  0
   -3.8861    2.4418   -0.8767 H   0  0  0  0  0  0  0  0  0  0  0  0
   -3.2097    1.6889    0.5718 H   0  0  0  0  0  0  0  0  0  0  0  0
   -1.7895    2.2106   -2.5125 C   0  0  0  0  0  0  0  0  0  0  0  0
   -1.1386    1.6421   -3.1765 H   0  0  0  0  0  0  0  0  0  0  0  0
   -2.7433    2.3716   -3.0151 H   0  0  0  0  0  0  0  0  0  0  0  0
   -1.3292    3.1754   -2.2966 H   0  0  0  0  0  0  0  0  0  0  0  0
   -0.1913    0.1554    1.7759 C   0  0  0  0  0  0  0  0  0  0  0  0
    0.9476   -0.0766    2.1748 O   0  0  0  0  0  0  0  0  0  0  0  0
   -1.1502    0.6393    2.5760 N   0  0  0  0  0  0  0  0  0  0  0  0
   -2.0581    0.8092    2.1736 H   0  0  0  0  0  0  0  0  0  0  0  0
   -0.9568    0.9369    3.9933 C   0  0  0  0  0  0  0  0  0  0  0  0
   -0.1600    1.6750    4.1097 H   0  0  0  0  0  0  0  0  0  0  0  0
   -1.8775    1.3307    4.4266 H   0  0  0  0  0  0  0  0  0  0  0  0
   -0.6678    0.0287    4.5244 H   0  0  0  0  0  0  0  0  0  0  0  0
  5  6  2  0  0  0  0
  5  7  1  0  0  0  0
  2  3  1  0  0  0  0
  2  4  1  0  0  0  0
  2  5  1  0  0  0  0
  1  2  1  0  0  0  0
 24 25  2  0  0  0  0
 24 26  1  0  0  0  0
 20 21  1  0  0  0  0
 20 22  1  0  0  0  0
 20 23  1  0  0  0  0
 16 17  1  0  0  0  0
 16 18  1  0  0  0  0
 16 19  1  0  0  0  0
 14 15  1  0  0  0  0
 14 16  1  0  0  0  0
 14 20  1  0  0  0  0
 11 12  1  0  0  0  0
 11 13  1  0  0  0  0
 11 14  1  0  0  0  0
  9 10  1  0  0  0  0
  9 11  1  0  0  0  0
  9 24  1  0  0  0  0
  7  8  1  0  0  0  0
  7  9  1  0  0  0  0
 28 29  1  0  0  0  0
 28 30  1  0  0  0  0
 28 31  1  0  0  0  0
 26 27  1  0  0  0  0
 26 28  1  0  0  0  0
M  END
$$$$
default_name
  -OEChem-02102213163D

 31 30  0     1  0  0  0  0  0999 V2000
   -3.5895   -3.5013    1.1082 H   0  0  0  0  0  0  0  0  0  0  0  0
   -3.5145   -2.5363    0.6082 C   0  0  0  0  0  0  0  0  0  0  0  0
   -4.2285   -1.8413    1.0452 H   0  0  0  0  0  0  0  0  0  0  0  0
   -3.7155   -2.6583   -0.4538 H   0  0  0  0  0  0  0  0  0  0  0  0
   -2.1155   -1.9963    0.7922 C   0  0  0  0  0  0  0  0  0  0  0  0
   -1.2875   -2.6383    1.4252 O   0  0  0  0  0  0  0  0  0  0  0  0
   -1.8575   -0.8123    0.2402 N   0  0  0  0  0  0  0  0  0  0  0  0
   -2.6005   -0.3333   -0.2478 H   0  0  0  0  0  0  0  0  0  0  0  0
   -0.5675   -0.1203    0.3102 C   0  0  1  0  0  0  0  0  0  0  0  0
    0.1932   -0.7715   -0.1219 H   0  0  0  0  0  0  0  0  0  0  0  0
   -0.6568    1.1713   -0.5294 C   0  0  0  0  0  0  0  0  0  0  0  0
   -0.4282    2.0225    0.1149 H   0  0  0  0  0  0  0  0  0  0  0  0
    0.1138    1.1253   -1.3022 H   0  0  0  0  0  0  0  0  0  0  0  0
   -2.0099    1.4308   -1.2169 C   0  0  0  0  0  0  0  0  0  0  0  0
   -2.5976    0.5129   -1.2310 H   0  0  0  0  0  0  0  0  0  0  0  0
   -2.8157    2.5273   -0.5144 C   0  0  0  0  0  0  0  0  0  0  0  0
   -2.2336    3.4492   -0.4780 H   0  0  0  0  0  0  0  0  0  0  0  0
   -3.7405    2.7111   -1.0618 H   0  0  0  0  0  0  0  0  0  0  0  0
   -3.0699    2.2273    0.4999 H   0  0  0  0  0  0  0  0  0  0  0  0
   -1.7789    1.8669   -2.6632 C   0  0  0  0  0  0  0  0  0  0  0  0
   -1.2336    1.0893   -3.1980 H   0  0  0  0  0  0  0  0  0  0  0  0
   -2.7361    2.0245   -3.1602 H   0  0  0  0  0  0  0  0  0  0  0  0
   -1.2032    2.7928   -2.6890 H   0  0  0  0  0  0  0  0  0  0  0  0
   -0.1913    0.1554    1.7759 C   0  0  0  0  0  0  0  0  0  0  0  0
    0.9476   -0.0766    2.1748 O   0  0  0  0  0  0  0  0  0  0  0  0
   -1.1502    0.6393    2.5760 N   0  0  0  0  0  0  0  0  0  0  0  0
   -2.0581    0.8092    2.1736 H   0  0  0  0  0  0  0  0  0  0  0  0
   -0.9568    0.9369    3.9933 C   0  0  0  0  0  0  0  0  0  0  0  0
   -0.1600    1.6750    4.1097 H   0  0  0  0  0  0  0  0  0  0  0  0
   -1.8775    1.3307    4.4266 H   0  0  0  0  0  0  0  0  0  0  0  0
   -0.6678    0.0287    4.5244 H   0  0  0  0  0  0  0  0  0  0  0  0
  5  6  2  0  0  0  0
  5  7  1  0  0  0  0
  2  3  1  0  0  0  0
  2  4  1  0  0  0  0
  2  5  1  0  0  0  0
  1  2  1  0  0  0  0
 24 25  2  0  0  0  0
 24 26  1  0  0  0  0
 20 21  1  0  0  0  0
 20 22  1  0  0  0  0
 20 23  1  0  0  0  0
 16 17  1  0  0  0  0
 16 18  1  0  0  0  0
 16 19  1  0  0  0  0
 14 15  1  0  0  0  0
 14 16  1  0  0  0  0
 14 20  1  0  0  0  0
 11 12  1  0  0  0  0
 11 13  1  0  0  0  0
 11 14  1  0  0  0  0
  9 10  1  0  0  0  0
  9 11  1  0  0  0  0
  9 24  1  0  0  0  0
  7  8  1  0  0  0  0
  7  9  1  0  0  0  0
 28 29  1  0  0  0  0
 28 30  1  0  0  0  0
 28 31  1  0  0  0  0
 26 27  1  0  0  0  0
 26 28  1  0  0  0  0
M  END
$$$$
default_name
  -OEChem-02102213163D

 31 30  0     1  0  0  0  0  0999 V2000
   -3.5895   -3.5013    1.1082 H   0  0  0  0  0  0  0  0  0  0  0  0
   -3.5145   -2.5363    0.6082 C   0  0  0  0  0  0  0  0  0  0  0  0
   -4.2285   -1.8413    1.0452 H   0  0  0  0  0  0  0  0  0  0  0  0
   -3.7155   -2.6583   -0.4538 H   0  0  0  0  0  0  0  0  0  0  0  0
   -2.1155   -1.9963    0.7922 C   0  0  0  0  0  0  0  0  0  0  0  0
   -1.2875   -2.6383    1.4252 O   0  0  0  0  0  0  0  0  0  0  0  0
   -1.8575   -0.8123    0.2402 N   0  0  0  0  0  0  0  0  0  0  0  0
   -2.6005   -0.3333   -0.2478 H   0  0  0  0  0  0  0  0  0  0  0  0
   -0.5675   -0.1203    0.3102 C   0  0  1  0  0  0  0  0  0  0  0  0
    0.1932   -0.7715   -0.1219 H   0  0  0  0  0  0  0  0  0  0  0  0
   -0.6568    1.1713   -0.5294 C   0  0  0  0  0  0  0  0  0  0  0  0
   -0.4282    2.0225    0.1149 H   0  0  0  0  0  0  0  0  0  0  0  0
    0.1138    1.1253   -1.3022 H   0  0  0  0  0  0  0  0  0  0  0  0
   -2.0099    1.4308   -1.2169 C   0  0  0  0  0  0  0  0  0  0  0  0
   -2.6953    0.6110   -1.0017 H   0  0  0  0  0  0  0  0  0  0  0  0
   -2.6482    2.7462   -0.7615 C   0  0  0  0  0  0  0  0  0  0  0  0
   -1.9667    3.5755   -0.9557 H   0  0  0  0  0  0  0  0  0  0  0  0
   -3.5767    2.9123   -1.3082 H   0  0  0  0  0  0  0  0  0  0  0  0
   -2.8758    2.7148    0.3019 H   0  0  0  0  0  0  0  0  0  0  0  0
   -1.8149    1.4993   -2.7310 C   0  0  0  0  0  0  0  0  0  0  0  0
   -1.3903    0.5615   -3.0889 H   0  0  0  0  0  0  0  0  0  0  0  0
   -2.7756    1.6554   -3.2218 H   0  0  0  0  0  0  0  0  0  0  0  0
   -1.1429    2.3194   -2.9865 H   0  0  0  0  0  0  0  0  0  0  0  0
   -0.1913    0.1554    1.7759 C   0  0  0  0  0  0  0  0  0  0  0  0
    0.9476   -0.0766    2.1748 O   0  0  0  0  0  0  0  0  0  0  0  0
   -1.1502    0.6393    2.5760 N   0  0  0  0  0  0  0  0  0  0  0  0
   -2.0581    0.8092    2.1736 H   0  0  0  0  0  0  0  0  0  0  0  0
   -0.9568    0.9369    3.9933 C   0  0  0  0  0  0  0  0  0  0  0  0
   -0.1600    1.6750    4.1097 H   0  0  0  0  0  0  0  0  0  0  0  0
   -1.8775    1.3307    4.4266 H   0  0  0  0  0  0  0  0  0  0  0  0
   -0.6678    0.0287    4.5244 H   0  0  0  0  0  0  0  0  0  0  0  0
  5  6  2  0  0  0  0
  5  7  1  0  0  0  0
  2  3  1  0  0  0  0
  2  4  1  0  0  0  0
  2  5  1  0  0  0  0
  1  2  1  0  0  0  0
 24 25  2  0  0  0  0
 24 26  1  0  0  0  0
 20 21  1  0  0  0  0
 20 22  1  0  0  0  0
 20 23  1  0  0  0  0
 16 17  1  0  0  0  0
 16 18  1  0  0  0  0
 16 19  1  0  0  0  0
 14 15  1  0  0  0  0
 14 16  1  0  0  0  0
 14 20  1  0  0  0  0
 11 12  1  0  0  0  0
 11 13  1  0  0  0  0
 11 14  1  0  0  0  0
  9 10  1  0  0  0  0
  9 11  1  0  0  0  0
  9 24  1  0  0  0  0
  7  8  1  0  0  0  0
  7  9  1  0  0  0  0
 28 29  1  0  0  0  0
 28 30  1  0  0  0  0
 28 31  1  0  0  0  0
 26 27  1  0  0  0  0
 26 28  1  0  0  0  0
M  END
$$$$
default_name
  -OEChem-02102213163D

 31 30  0     1  0  0  0  0  0999 V2000
   -3.5895   -3.5013    1.1082 H   0  0  0  0  0  0  0  0  0  0  0  0
   -3.5145   -2.5363    0.6082 C   0  0  0  0  0  0  0  0  0  0  0  0
   -4.2285   -1.8413    1.0452 H   0  0  0  0  0  0  0  0  0  0  0  0
   -3.7155   -2.6583   -0.4538 H   0  0  0  0  0  0  0  0  0  0  0  0
   -2.1155   -1.9963    0.7922 C   0  0  0  0  0  0  0  0  0  0  0  0
   -1.2875   -2.6383    1.4252 O   0  0  0  0  0  0  0  0  0  0  0  0
   -1.8575   -0.8123    0.2402 N   0  0  0  0  0  0  0  0  0  0  0  0
   -2.6005   -0.3333   -0.2478 H   0  0  0  0  0  0  0  0  0  0  0  0
   -0.5675   -0.1203    0.3102 C   0  0  1  0  0  0  0  0  0  0  0  0
    0.1932   -0.7715   -0.1219 H   0  0  0  0  0  0  0  0  0  0  0  0
   -0.6568    1.1713   -0.5294 C   0  0  0  0  0  0  0  0  0  0  0  0
   -0.4282    2.0225    0.1149 H   0  0  0  0  0  0  0  0  0  0  0  0
    0.1138    1.1253   -1.3022 H   0  0  0  0  0  0  0  0  0  0  0  0
   -2.0099    1.4308   -1.2169 C   0  0  0  0  0  0  0  0  0  0  0  0
   -2.7683    0.7692   -0.7983 H   0  0  0  0  0  0  0  0  0  0  0  0
   -2.4719    2.8820   -1.0571 C   0  0  0  0  0  0  0  0  0  0  0  0
   -1.7151    3.5580   -1.4574 H   0  0  0  0  0  0  0  0  0  0  0  0
   -3.4060    3.0317   -1.5991 H   0  0  0  0  0  0  0  0  0  0  0  0
   -2.6407    3.1183   -0.0087 H   0  0  0  0  0  0  0  0  0  0  0  0
   -1.8951    1.1330   -2.7114 C   0  0  0  0  0  0  0  0  0  0  0  0
   -1.5978    0.0945   -2.8566 H   0  0  0  0  0  0  0  0  0  0  0  0
   -2.8591    1.2894   -3.1956 H   0  0  0  0  0  0  0  0  0  0  0  0
   -1.1522    1.7874   -3.1688 H   0  0  0  0  0  0  0  0  0  0  0  0
   -0.1913    0.1554    1.7759 C   0  0  0  0  0  0  0  0  0  0  0  0
    0.9476   -0.0766    2.1748 O   0  0  0  0  0  0  0  0  0  0  0  0
   -1.1502    0.6393    2.5760 N   0  0  0  0  0  0  0  0  0  0  0  0
   -2.0581    0.8092    2.1736 H   0  0  0  0  0  0  0  0  0  0  0  0
   -0.9568    0.9369    3.9933 C   0  0  0  0  0  0  0  0  0  0  0  0
   -0.1600    1.6750    4.1097 H   0  0  0  0  0  0  0  0  0  0  0  0
   -1.8775    1.3307    4.4266 H   0  0  0  0  0  0  0  0  0  0  0  0
   -0.6678    0.0287    4.5244 H   0  0  0  0  0  0  0  0  0  0  0  0
  5  6  2  0  0  0  0
  5  7  1  0  0  0  0
  2  3  1  0  0  0  0
  2  4  1  0  0  0  0
  2  5  1  0  0  0  0
  1  2  1  0  0  0  0
 24 25  2  0  0  0  0
 24 26  1  0  0  0  0
 20 21  1  0  0  0  0
 20 22  1  0  0  0  0
 20 23  1  0  0  0  0
 16 17  1  0  0  0  0
 16 18  1  0  0  0  0
 16 19  1  0  0  0  0
 14 15  1  0  0  0  0
 14 16  1  0  0  0  0
 14 20  1  0  0  0  0
 11 12  1  0  0  0  0
 11 13  1  0  0  0  0
 11 14  1  0  0  0  0
  9 10  1  0  0  0  0
  9 11  1  0  0  0  0
  9 24  1  0  0  0  0
  7  8  1  0  0  0  0
  7  9  1  0  0  0  0
 28 29  1  0  0  0  0
 28 30  1  0  0  0  0
 28 31  1  0  0  0  0
 26 27  1  0  0  0  0
 26 28  1  0  0  0  0
M  END
$$$$
default_name
  -OEChem-02102213163D

 31 30  0     1  0  0  0  0  0999 V2000
   -3.5895   -3.5013    1.1082 H   0  0  0  0  0  0  0  0  0  0  0  0
   -3.5145   -2.5363    0.6082 C   0  0  0  0  0  0  0  0  0  0  0  0
   -4.2285   -1.8413    1.0452 H   0  0  0  0  0  0  0  0  0  0  0  0
   -3.7155   -2.6583   -0.4538 H   0  0  0  0  0  0  0  0  0  0  0  0
   -2.1155   -1.9963    0.7922 C   0  0  0  0  0  0  0  0  0  0  0  0
   -1.2875   -2.6383    1.4252 O   0  0  0  0  0  0  0  0  0  0  0  0
   -1.8575   -0.8123    0.2402 N   0  0  0  0  0  0  0  0  0  0  0  0
   -2.6005   -0.3333   -0.2478 H   0  0  0  0  0  0  0  0  0  0  0  0
   -0.5675   -0.1203    0.3102 C   0  0  1  0  0  0  0  0  0  0  0  0
    0.1932   -0.7715   -0.1219 H   0  0  0  0  0  0  0  0  0  0  0  0
   -0.6568    1.1713   -0.5294 C   0  0  0  0  0  0  0  0  0  0  0  0
   -0.4282    2.0225    0.1149 H   0  0  0  0  0  0  0  0  0  0  0  0
    0.1138    1.1253   -1.3022 H   0  0  0  0  0  0  0  0  0  0  0  0
   -2.0099    1.4308   -1.2169 C   0  0  0  0  0  0  0  0  0  0  0  0
   -2.8117    0.9767   -0.6346 H   0  0  0  0  0  0  0  0  0  0  0  0
   -2.2989    2.9256   -1.3813 C   0  0  0  0  0  0  0  0  0  0  0  0
   -1.4960    3.3980   -1.9490 H   0  0  0  0  0  0  0  0  0  0  0  0
   -3.2401    3.0611   -1.9146 H   0  0  0  0  0  0  0  0  0  0  0  0
   -2.3805    3.4102   -0.4108 H   0  0  0  0  0  0  0  0  0  0  0  0
   -2.0141    0.7930   -2.6056 C   0  0  0  0  0  0  0  0  0  0  0  0
   -1.8421   -0.2797   -2.5170 H   0  0  0  0  0  0  0  0  0  0  0  0
   -2.9808    0.9515   -3.0834 H   0  0  0  0  0  0  0  0  0  0  0  0
   -1.2307    1.2332   -3.2236 H   0  0  0  0  0  0  0  0  0  0  0  0
   -0.1913    0.1554    1.7759 C   0  0  0  0  0  0  0  0  0  0  0  0
    0.9476   -0.0766    2.1748 O   0  0  0  0  0  0  0  0  0  0  0  0
   -1.1502    0.6393    2.5760 N   0  0  0  0  0  0  0  0  0  0  0  0
   -2.0581    0.8092    2.1736 H   0  0  0  0  0  0  0  0  0  0  0  0
   -0.9568    0.9369    3.9933 C   0  0  0  0  0  0  0  0  0  0  0  0
   -0.1600    1.6750    4.1097 H   0  0  0  0  0  0  0  0  0  0  0  0
   -1.8775    1.3307    4.4266 H   0  0  0  0  0  0  0  0  0  0  0  0
   -0.6678    0.0287    4.5244 H   0  0  0  0  0  0  0  0  0  0  0  0
  5  6  2  0  0  0  0
  5  7  1  0  0  0  0
  2  3  1  0  0  0  0
  2  4  1  0  0  0  0
  2  5  1  0  0  0  0
  1  2  1  0  0  0  0
 24 25  2  0  0  0  0
 24 26  1  0  0  0  0
 20 21  1  0  0  0  0
 20 22  1  0  0  0  0
 20 23  1  0  0  0  0
 16 17  1  0  0  0  0
 16 18  1  0  0  0  0
 16 19  1  0  0  0  0
 14 15  1  0  0  0  0
 14 16  1  0  0  0  0
 14 20  1  0  0  0  0
 11 12  1  0  0  0  0
 11 13  1  0  0  0  0
 11 14  1  0  0  0  0
  9 10  1  0  0  0  0
  9 11  1  0  0  0  0
  9 24  1  0  0  0  0
  7  8  1  0  0  0  0
  7  9  1  0  0  0  0
 28 29  1  0  0  0  0
 28 30  1  0  0  0  0
 28 31  1  0  0  0  0
 26 27  1  0  0  0  0
 26 28  1  0  0  0  0
M  END
$$$$
default_name
  -OEChem-02102213163D

 31 30  0     1  0  0  0  0  0999 V2000
   -3.5895   -3.5013    1.1082 H   0  0  0  0  0  0  0  0  0  0  0  0
   -3.5145   -2.5363    0.6082 C   0  0  0  0  0  0  0  0  0  0  0  0
   -4.2285   -1.8413    1.0452 H   0  0  0  0  0  0  0  0  0  0  0  0
   -3.7155   -2.6583   -0.4538 H   0  0  0  0  0  0  0  0  0  0  0  0
   -2.1155   -1.9963    0.7922 C   0  0  0  0  0  0  0  0  0  0  0  0
   -1.2875   -2.6383    1.4252 O   0  0  0  0  0  0  0  0  0  0  0  0
   -1.8575   -0.8123    0.2402 N   0  0  0  0  0  0  0  0  0  0  0  0
   -2.6005   -0.3333   -0.2478 H   0  0  0  0  0  0  0  0  0  0  0  0
   -0.5675   -0.1203    0.3102 C   0  0  1  0  0  0  0  0  0  0  0  0
    0.1932   -0.7715   -0.1219 H   0  0  0  0  0  0  0  0  0  0  0  0
   -0.6568    1.1713   -0.5294 C   0  0  0  0  0  0  0  0  0  0  0  0
   -0.4282    2.0225    0.1149 H   0  0  0  0  0  0  0  0  0  0  0  0
    0.1138    1.1253   -1.3022 H   0  0  0  0  0  0  0  0  0  0  0  0
   -2.0099    1.4308   -1.2169 C   0  0  0  0  0  0  0  0  0  0  0  0
   -2.8224    1.2194   -0.5218 H   0  0  0  0  0  0  0  0  0  0  0  0
   -2.1408    2.8740   -1.7119 C   0  0  0  0  0  0  0  0  0  0  0  0
   -1.3243    3.1062   -2.3971 H   0  0  0  0  0  0  0  0  0  0  0  0
   -3.0901    2.9986   -2.2334 H   0  0  0  0  0  0  0  0  0  0  0  0
   -2.1129    3.5707   -0.8769 H   0  0  0  0  0  0  0  0  0  0  0  0
   -2.1637    0.5023   -2.4209 C   0  0  0  0  0  0  0  0  0  0  0  0
   -2.1065   -0.5357   -2.0932 H   0  0  0  0  0  0  0  0  0  0  0  0
   -3.1326    0.6647   -2.8929 H   0  0  0  0  0  0  0  0  0  0  0  0
   -1.3729    0.6945   -3.1469 H   0  0  0  0  0  0  0  0  0  0  0  0
   -0.1913    0.1554    1.7759 C   0  0  0  0  0  0  0  0  0  0  0  0
    0.9476   -0.0766    2.1748 O   0  0  0  0  0  0  0  0  0  0  0  0
   -1.1502    0.6393    2.5760 N   0  0  0  0  0  0  0  0  0  0  0  0
   -2.0581    0.8092    2.1736 H   0  0  0  0  0  0  0  0  0  0  0  0
   -0.9568    0.9369    3.9933 C   0  0  0  0  0  0  0  0  0  0  0  0
   -0.1600    1.6750    4.1097 H   0  0  0  0  0  0  0  0  0  0  0  0
   -1.8775    1.3307    4.4266 H   0  0  0  0  0  0  0  0  0  0  0  0
   -0.6678    0.0287    4.5244 H   0  0  0  0  0  0  0  0  0  0  0  0
  5  6  2  0  0  0  0
  5  7  1  0  0  0  0
  2  3  1  0  0  0  0
  2  4  1  0  0  0  0
  2  5  1  0  0  0  0
  1  2  1  0  0  0  0
 24 25  2  0  0  0  0
 24 26  1  0  0  0  0
 20 21  1  0  0  0  0
 20 22  1  0  0  0  0
 20 23  1  0  0  0  0
 16 17  1  0  0  0  0
 16 18  1  0  0  0  0
 16 19  1  0  0  0  0
 14 15  1  0  0  0  0
 14 16  1  0  0  0  0
 14 20  1  0  0  0  0
 11 12  1  0  0  0  0
 11 13  1  0  0  0  0
 11 14  1  0  0  0  0
  9 10  1  0  0  0  0
  9 11  1  0  0  0  0
  9 24  1  0  0  0  0
  7  8  1  0  0  0  0
  7  9  1  0  0  0  0
 28 29  1  0  0  0  0
 28 30  1  0  0  0  0
 28 31  1  0  0  0  0
 26 27  1  0  0  0  0
 26 28  1  0  0  0  0
M  END
$$$$
default_name
  -OEChem-02102213163D

 31 30  0     1  0  0  0  0  0999 V2000
   -3.5895   -3.5013    1.1082 H   0  0  0  0  0  0  0  0  0  0  0  0
   -3.5145   -2.5363    0.6082 C   0  0  0  0  0  0  0  0  0  0  0  0
   -4.2285   -1.8413    1.0452 H   0  0  0  0  0  0  0  0  0  0  0  0
   -3.7155   -2.6583   -0.4538 H   0  0  0  0  0  0  0  0  0  0  0  0
   -2.1155   -1.9963    0.7922 C   0  0  0  0  0  0  0  0  0  0  0  0
   -1.2875   -2.6383    1.4252 O   0  0  0  0  0  0  0  0  0  0  0  0
   -1.8575   -0.8123    0.2402 N   0  0  0  0  0  0  0  0  0  0  0  0
   -2.6005   -0.3333   -0.2478 H   0  0  0  0  0  0  0  0  0  0  0  0
   -0.5675   -0.1203    0.3102 C   0  0  1  0  0  0  0  0  0  0  0  0
    0.1932   -0.7715   -0.1219 H   0  0  0  0  0  0  0  0  0  0  0  0
   -0.6568    1.1713   -0.5294 C   0  0  0  0  0  0  0  0  0  0  0  0
   -0.1773    1.9809    0.0243 H   0  0  0  0  0  0  0  0  0  0  0  0
   -0.0870    1.0164   -1.4483 H   0  0  0  0  0  0  0  0  0  0  0  0
   -2.0775    1.6213   -0.9166 C   0  0  0  0  0  0  0  0  0  0  0  0
   -2.6706    1.7828   -0.0165 H   0  0  0  0  0  0  0  0  0  0  0  0
   -2.0715    2.9082   -1.7467 C   0  0  0  0  0  0  0  0  0  0  0  0
   -1.4678    2.7673   -2.6443 H   0  0  0  0  0  0  0  0  0  0  0  0
   -3.0909    3.1614   -2.0388 H   0  0  0  0  0  0  0  0  0  0  0  0
   -1.6632    3.7354   -1.1701 H   0  0  0  0  0  0  0  0  0  0  0  0
   -2.7578    0.5297   -1.7418 C   0  0  0  0  0  0  0  0  0  0  0  0
   -2.8052   -0.3922   -1.1624 H   0  0  0  0  0  0  0  0  0  0  0  0
   -3.7736    0.8342   -1.9938 H   0  0  0  0  0  0  0  0  0  0  0  0
   -2.1980    0.3492   -2.6602 H   0  0  0  0  0  0  0  0  0  0  0  0
   -0.1913    0.1554    1.7759 C   0  0  0  0  0  0  0  0  0  0  0  0
    0.9476   -0.0766    2.1748 O   0  0  0  0  0  0  0  0  0  0  0  0
   -1.1502    0.6393    2.5760 N   0  0  0  0  0  0  0  0  0  0  0  0
   -2.0581    0.8092    2.1736 H   0  0  0  0  0  0  0  0  0  0  0  0
   -0.9568    0.9369    3.9933 C   0  0  0  0  0  0  0  0  0  0  0  0
   -0.1600    1.6750    4.1097 H   0  0  0  0  0  0  0  0  0  0  0  0
   -1.8775    1.3307    4.4266 H   0  0  0  0  0  0  0  0  0  0  0  0
   -0.6678    0.0287    4.5244 H   0  0  0  0  0  0  0  0  0  0  0  0
  5  6  2  0  0  0  0
  5  7  1  0  0  0  0
  2  3  1  0  0  0  0
  2  4  1  0  0  0  0
  2  5  1  0  0  0  0
  1  2  1  0  0  0  0
 24 25  2  0  0  0  0
 24 26  1  0  0  0  0
 20 21  1  0  0  0  0
 20 22  1  0  0  0  0
 20 23  1  0  0  0  0
 16 17  1  0  0  0  0
 16 18  1  0  0  0  0
 16 19  1  0  0  0  0
 14 15  1  0  0  0  0
 14 16  1  0  0  0  0
 14 20  1  0  0  0  0
 11 12  1  0  0  0  0
 11 13  1  0  0  0  0
 11 14  1  0  0  0  0
  9 10  1  0  0  0  0
  9 11  1  0  0  0  0
  9 24  1  0  0  0  0
  7  8  1  0  0  0  0
  7  9  1  0  0  0  0
 28 29  1  0  0  0  0
 28 30  1  0  0  0  0
 28 31  1  0  0  0  0
 26 27  1  0  0  0  0
 26 28  1  0  0  0  0
M  END
$$$$
default_name
  -OEChem-02102213163D

 31 30  0     1  0  0  0  0  0999 V2000
   -3.5895   -3.5013    1.1082 H   0  0  0  0  0  0  0  0  0  0  0  0
   -3.5145   -2.5363    0.6082 C   0  0  0  0  0  0  0  0  0  0  0  0
   -4.2285   -1.8413    1.0452 H   0  0  0  0  0  0  0  0  0  0  0  0
   -3.7155   -2.6583   -0.4538 H   0  0  0  0  0  0  0  0  0  0  0  0
   -2.1155   -1.9963    0.7922 C   0  0  0  0  0  0  0  0  0  0  0  0
   -1.2875   -2.6383    1.4252 O   0  0  0  0  0  0  0  0  0  0  0  0
   -1.8575   -0.8123    0.2402 N   0  0  0  0  0  0  0  0  0  0  0  0
   -2.6005   -0.3333   -0.2478 H   0  0  0  0  0  0  0  0  0  0  0  0
   -0.5675   -0.1203    0.3102 C   0  0  1  0  0  0  0  0  0  0  0  0
    0.1932   -0.7715   -0.1219 H   0  0  0  0  0  0  0  0  0  0  0  0
   -0.6568    1.1713   -0.5294 C   0  0  0  0  0  0  0  0  0  0  0  0
   -0.1773    1.9809    0.0243 H   0  0  0  0  0  0  0  0  0  0  0  0
   -0.0870    1.0164   -1.4483 H   0  0  0  0  0  0  0  0  0  0  0  0
   -2.0775    1.6213   -0.9166 C   0  0  0  0  0  0  0  0  0  0  0  0
   -2.5833    2.0345   -0.0440 H   0  0  0  0  0  0  0  0  0  0  0  0
   -2.0689    2.6715   -2.0312 C   0  0  0  0  0  0  0  0  0  0  0  0
   -1.5511    2.2781   -2.9070 H   0  0  0  0  0  0  0  0  0  0  0  0
   -3.0934    2.9235   -2.3060 H   0  0  0  0  0  0  0  0  0  0  0  0
   -1.5683    3.5788   -1.7002 H   0  0  0  0  0  0  0  0  0  0  0  0
   -2.8843    0.4192   -1.4060 C   0  0  0  0  0  0  0  0  0  0  0  0
   -2.9346   -0.3335   -0.6193 H   0  0  0  0  0  0  0  0  0  0  0  0
   -3.8990    0.7302   -1.6546 H   0  0  0  0  0  0  0  0  0  0  0  0
   -2.4141   -0.0143   -2.2894 H   0  0  0  0  0  0  0  0  0  0  0  0
   -0.1913    0.1554    1.7759 C   0  0  0  0  0  0  0  0  0  0  0  0
    0.9476   -0.0766    2.1748 O   0  0  0  0  0  0  0  0  0  0  0  0
   -1.1502    0.6393    2.5760 N   0  0  0  0  0  0  0  0  0  0  0  0
   -2.0581    0.8092    2.1736 H   0  0  0  0  0  0  0  0  0  0  0  0
   -0.9568    0.9369    3.9933 C   0  0  0  0  0  0  0  0  0  0  0  0
   -0.1600    1.6750    4.1097 H   0  0  0  0  0  0  0  0  0  0  0  0
   -1.8775    1.3307    4.4266 H   0  0  0  0  0  0  0  0  0  0  0  0
   -0.6678    0.0287    4.5244 H   0  0  0  0  0  0  0  0  0  0  0  0
  5  6  2  0  0  0  0
  5  7  1  0  0  0  0
  2  3  1  0  0  0  0
  2  4  1  0  0  0  0
  2  5  1  0  0  0  0
  1  2  1  0  0  0  0
 24 25  2  0  0  0  0
 24 26  1  0  0  0  0
 20 21  1  0  0  0  0
 20 22  1  0  0  0  0
 20 23  1  0  0  0  0
 16 17  1  0  0  0  0
 16 18  1  0  0  0  0
 16 19  1  0  0  0  0
 14 15  1  0  0  0  0
 14 16  1  0  0  0  0
 14 20  1  0  0  0  0
 11 12  1  0  0  0  0
 11 13  1  0  0  0  0
 11 14  1  0  0  0  0
  9 10  1  0  0  0  0
  9 11  1  0  0  0  0
  9 24  1  0  0  0  0
  7  8  1  0  0  0  0
  7  9  1  0  0  0  0
 28 29  1  0  0  0  0
 28 30  1  0  0  0  0
 28 31  1  0  0  0  0
 26 27  1  0  0  0  0
 26 28  1  0  0  0  0
M  END
$$$$
default_name
  -OEChem-02102213163D

 31 30  0     1  0  0  0  0  0999 V2000
   -3.5895   -3.5013    1.1082 H   0  0  0  0  0  0  0  0  0  0  0  0
   -3.5145   -2.5363    0.6082 C   0  0  0  0  0  0  0  0  0  0  0  0
   -4.2285   -1.8413    1.0452 H   0  0  0  0  0  0  0  0  0  0  0  0
   -3.7155   -2.6583   -0.4538 H   0  0  0  0  0  0  0  0  0  0  0  0
   -2.1155   -1.9963    0.7922 C   0  0  0  0  0  0  0  0  0  0  0  0
   -1.2875   -2.6383    1.4252 O   0  0  0  0  0  0  0  0  0  0  0  0
   -1.8575   -0.8123    0.2402 N   0  0  0  0  0  0  0  0  0  0  0  0
   -2.6005   -0.3333   -0.2478 H   0  0  0  0  0  0  0  0  0  0  0  0
   -0.5675   -0.1203    0.3102 C   0  0  1  0  0  0  0  0  0  0  0  0
    0.1932   -0.7715   -0.1219 H   0  0  0  0  0  0  0  0  0  0  0  0
   -0.6568    1.1713   -0.5294 C   0  0  0  0  0  0  0  0  0  0  0  0
   -0.1773    1.9809    0.0243 H   0  0  0  0  0  0  0  0  0  0  0  0
   -0.0870    1.0164   -1.4483 H   0  0  0  0  0  0  0  0  0  0  0  0
   -2.0775    1.6213   -0.9166 C   0  0  0  0  0  0  0  0  0  0  0  0
   -2.4848    2.2654   -0.1373 H   0  0  0  0  0  0  0  0  0  0  0  0
   -2.1034    2.3747   -2.2496 C   0  0  0  0  0  0  0  0  0  0  0  0
   -1.6834    1.7482   -3.0376 H   0  0  0  0  0  0  0  0  0  0  0  0
   -3.1316    2.6300   -2.5071 H   0  0  0  0  0  0  0  0  0  0  0  0
   -1.5269    3.2949   -2.1821 H   0  0  0  0  0  0  0  0  0  0  0  0
   -2.9883    0.4010   -1.0457 C   0  0  0  0  0  0  0  0  0  0  0  0
   -3.0146   -0.1387   -0.0991 H   0  0  0  0  0  0  0  0  0  0  0  0
   -4.0012    0.7189   -1.2926 H   0  0  0  0  0  0  0  0  0  0  0  0
   -2.6185   -0.2627   -1.8281 H   0  0  0  0  0  0  0  0  0  0  0  0
   -0.1913    0.1554    1.7759 C   0  0  0  0  0  0  0  0  0  0  0  0
    0.9476   -0.0766    2.1748 O   0  0  0  0  0  0  0  0  0  0  0  0
   -1.1502    0.6393    2.5760 N   0  0  0  0  0  0  0  0  0  0  0  0
   -2.0581    0.8092    2.1736 H   0  0  0  0  0  0  0  0  0  0  0  0
   -0.9568    0.9369    3.9933 C   0  0  0  0  0  0  0  0  0  0  0  0
   -0.1600    1.6750    4.1097 H   0  0  0  0  0  0  0  0  0  0  0  0
   -1.8775    1.3307    4.4266 H   0  0  0  0  0  0  0  0  0  0  0  0
   -0.6678    0.0287    4.5244 H   0  0  0  0  0  0  0  0  0  0  0  0
  5  6  2  0  0  0  0
  5  7  1  0  0  0  0
  2  3  1  0  0  0  0
  2  4  1  0  0  0  0
  2  5  1  0  0  0  0
  1  2  1  0  0  0  0
 24 25  2  0  0  0  0
 24 26  1  0  0  0  0
 20 21  1  0  0  0  0
 20 22  1  0  0  0  0
 20 23  1  0  0  0  0
 16 17  1  0  0  0  0
 16 18  1  0  0  0  0
 16 19  1  0  0  0  0
 14 15  1  0  0  0  0
 14 16  1  0  0  0  0
 14 20  1  0  0  0  0
 11 12  1  0  0  0  0
 11 13  1  0  0  0  0
 11 14  1  0  0  0  0
  9 10  1  0  0  0  0
  9 11  1  0  0  0  0
  9 24  1  0  0  0  0
  7  8  1  0  0  0  0
  7  9  1  0  0  0  0
 28 29  1  0  0  0  0
 28 30  1  0  0  0  0
 28 31  1  0  0  0  0
 26 27  1  0  0  0  0
 26 28  1  0  0  0  0
M  END
$$$$
default_name
  -OEChem-02102213163D

 31 30  0     1  0  0  0  0  0999 V2000
   -3.5895   -3.5013    1.1082 H   0  0  0  0  0  0  0  0  0  0  0  0
   -3.5145   -2.5363    0.6082 C   0  0  0  0  0  0  0  0  0  0  0  0
   -4.2285   -1.8413    1.0452 H   0  0  0  0  0  0  0  0  0  0  0  0
   -3.7155   -2.6583   -0.4538 H   0  0  0  0  0  0  0  0  0  0  0  0
   -2.1155   -1.9963    0.7922 C   0  0  0  0  0  0  0  0  0  0  0  0
   -1.2875   -2.6383    1.4252 O   0  0  0  0  0  0  0  0  0  0  0  0
   -1.8575   -0.8123    0.2402 N   0  0  0  0  0  0  0  0  0  0  0  0
   -2.6005   -0.3333   -0.2478 H   0  0  0  0  0  0  0  0  0  0  0  0
   -0.5675   -0.1203    0.3102 C   0  0  1  0  0  0  0  0  0  0  0  0
    0.1932   -0.7715   -0.1219 H   0  0  0  0  0  0  0  0  0  0  0  0
   -0.6568    1.1713   -0.5294 C   0  0  0  0  0  0  0  0  0  0  0  0
   -0.1773    1.9809    0.0243 H   0  0  0  0  0  0  0  0  0  0  0  0
   -0.0870    1.0164   -1.4483 H   0  0  0  0  0  0  0  0  0  0  0  0
   -2.0775    1.6213   -0.9166 C   0  0  0  0  0  0  0  0  0  0  0  0
   -2.3816    2.4598   -0.2901 H   0  0  0  0  0  0  0  0  0  0  0  0
   -2.1725    2.0382   -2.3871 C   0  0  0  0  0  0  0  0  0  0  0  0
   -1.8555    1.2137   -3.0272 H   0  0  0  0  0  0  0  0  0  0  0  0
   -3.2027    2.3010   -2.6284 H   0  0  0  0  0  0  0  0  0  0  0  0
   -1.5419    2.9028   -2.5828 H   0  0  0  0  0  0  0  0  0  0  0  0
   -3.0627    0.4761   -0.6854 C   0  0  0  0  0  0  0  0  0  0  0  0
   -3.0400    0.1790    0.3630 H   0  0  0  0  0  0  0  0  0  0  0  0
   -4.0733    0.8010   -0.9326 H   0  0  0  0  0  0  0  0  0  0  0  0
   -2.7973   -0.3792   -1.3077 H   0  0  0  0  0  0  0  0  0  0  0  0
   -0.1913    0.1554    1.7759 C   0  0  0  0  0  0  0  0  0  0  0  0
    0.9476   -0.0766    2.1748 O   0  0  0  0  0  0  0  0  0  0  0  0
   -1.1502    0.6393    2.5760 N   0  0  0  0  0  0  0  0  0  0  0  0
   -2.0581    0.8092    2.1736 H   0  0  0  0  0  0  0  0  0  0  0  0
   -0.9568    0.9369    3.9933 C   0  0  0  0  0  0  0  0  0  0  0  0
   -0.1600    1.6750    4.1097 H   0  0  0  0  0  0  0  0  0  0  0  0
   -1.8775    1.3307    4.4266 H   0  0  0  0  0  0  0  0  0  0  0  0
   -0.6678    0.0287    4.5244 H   0  0  0  0  0  0  0  0  0  0  0  0
  5  6  2  0  0  0  0
  5  7  1  0  0  0  0
  2  3  1  0  0  0  0
  2  4  1  0  0  0  0
  2  5  1  0  0  0  0
  1  2  1  0  0  0  0
 24 25  2  0  0  0  0
 24 26  1  0  0  0  0
 20 21  1  0  0  0  0
 20 22  1  0  0  0  0
 20 23  1  0  0  0  0
 16 17  1  0  0  0  0
 16 18  1  0  0  0  0
 16 19  1  0  0  0  0
 14 15  1  0  0  0  0
 14 16  1  0  0  0  0
 14 20  1  0  0  0  0
 11 12  1  0  0  0  0
 11 13  1  0  0  0  0
 11 14  1  0  0  0  0
  9 10  1  0  0  0  0
  9 11  1  0  0  0  0
  9 24  1  0  0  0  0
  7  8  1  0  0  0  0
  7  9  1  0  0  0  0
 28 29  1  0  0  0  0
 28 30  1  0  0  0  0
 28 31  1  0  0  0  0
 26 27  1  0  0  0  0
 26 28  1  0  0  0  0
M  END
$$$$
default_name
  -OEChem-02102213163D

 31 30  0     1  0  0  0  0  0999 V2000
   -3.5895   -3.5013    1.1082 H   0  0  0  0  0  0  0  0  0  0  0  0
   -3.5145   -2.5363    0.6082 C   0  0  0  0  0  0  0  0  0  0  0  0
   -4.2285   -1.8413    1.0452 H   0  0  0  0  0  0  0  0  0  0  0  0
   -3.7155   -2.6583   -0.4538 H   0  0  0  0  0  0  0  0  0  0  0  0
   -2.1155   -1.9963    0.7922 C   0  0  0  0  0  0  0  0  0  0  0  0
   -1.2875   -2.6383    1.4252 O   0  0  0  0  0  0  0  0  0  0  0  0
   -1.8575   -0.8123    0.2402 N   0  0  0  0  0  0  0  0  0  0  0  0
   -2.6005   -0.3333   -0.2478 H   0  0  0  0  0  0  0  0  0  0  0  0
   -0.5675   -0.1203    0.3102 C   0  0  1  0  0  0  0  0  0  0  0  0
    0.1932   -0.7715   -0.1219 H   0  0  0  0  0  0  0  0  0  0  0  0
   -0.6568    1.1713   -0.5294 C   0  0  0  0  0  0  0  0  0  0  0  0
   -0.1773    1.9809    0.0243 H   0  0  0  0  0  0  0  0  0  0  0  0
   -0.0870    1.0164   -1.4483 H   0  0  0  0  0  0  0  0  0  0  0  0
   -2.0775    1.6213   -0.9166 C   0  0  0  0  0  0  0  0  0  0  0  0
   -2.2809    2.6043   -0.4918 H   0  0  0  0  0  0  0  0  0  0  0  0
   -2.2716    1.6848   -2.4344 C   0  0  0  0  0  0  0  0  0  0  0  0
   -2.0557    0.7112   -2.8765 H   0  0  0  0  0  0  0  0  0  0  0  0
   -3.3020    1.9589   -2.6616 H   0  0  0  0  0  0  0  0  0  0  0  0
   -1.6122    2.4293   -2.8752 H   0  0  0  0  0  0  0  0  0  0  0  0
   -3.1024    0.6396   -0.3497 C   0  0  0  0  0  0  0  0  0  0  0  0
   -3.0088    0.5978    0.7354 H   0  0  0  0  0  0  0  0  0  0  0  0
   -4.1104    0.9710   -0.5990 H   0  0  0  0  0  0  0  0  0  0  0  0
   -2.9381   -0.3558   -0.7638 H   0  0  0  0  0  0  0  0  0  0  0  0
   -0.1913    0.1554    1.7759 C   0  0  0  0  0  0  0  0  0  0  0  0
    0.9476   -0.0766    2.1748 O   0  0  0  0  0  0  0  0  0  0  0  0
   -1.1502    0.6393    2.5760 N   0  0  0  0  0  0  0  0  0  0  0  0
   -2.0581    0.8092    2.1736 H   0  0  0  0  0  0  0  0  0  0  0  0
   -0.9568    0.9369    3.9933 C   0  0  0  0  0  0  0  0  0  0  0  0
   -0.1600    1.6750    4.1097 H   0  0  0  0  0  0  0  0  0  0  0  0
   -1.8775    1.3307    4.4266 H   0  0  0  0  0  0  0  0  0  0  0  0
   -0.6678    0.0287    4.5244 H   0  0  0  0  0  0  0  0  0  0  0  0
  5  6  2  0  0  0  0
  5  7  1  0  0  0  0
  2  3  1  0  0  0  0
  2  4  1  0  0  0  0
  2  5  1  0  0  0  0
  1  2  1  0  0  0  0
 24 25  2  0  0  0  0
 24 26  1  0  0  0  0
 20 21  1  0  0  0  0
 20 22  1  0  0  0  0
 20 23  1  0  0  0  0
 16 17  1  0  0  0  0
 16 18  1  0  0  0  0
 16 19  1  0  0  0  0
 14 15  1  0  0  0  0
 14 16  1  0  0  0  0
 14 20  1  0  0  0  0
 11 12  1  0  0  0  0
 11 13  1  0  0  0  0
 11 14  1  0  0  0  0
  9 10  1  0  0  0  0
  9 11  1  0  0  0  0
  9 24  1  0  0  0  0
  7  8  1  0  0  0  0
  7  9  1  0  0  0  0
 28 29  1  0  0  0  0
 28 30  1  0  0  0  0
 28 31  1  0  0  0  0
 26 27  1  0  0  0  0
 26 28  1  0  0  0  0
M  END
$$$$
default_name
  -OEChem-02102213163D

 31 30  0     1  0  0  0  0  0999 V2000
   -3.5895   -3.5013    1.1082 H   0  0  0  0  0  0  0  0  0  0  0  0
   -3.5145   -2.5363    0.6082 C   0  0  0  0  0  0  0  0  0  0  0  0
   -4.2285   -1.8413    1.0452 H   0  0  0  0  0  0  0  0  0  0  0  0
   -3.7155   -2.6583   -0.4538 H   0  0  0  0  0  0  0  0  0  0  0  0
   -2.1155   -1.9963    0.7922 C   0  0  0  0  0  0  0  0  0  0  0  0
   -1.2875   -2.6383    1.4252 O   0  0  0  0  0  0  0  0  0  0  0  0
   -1.8575   -0.8123    0.2402 N   0  0  0  0  0  0  0  0  0  0  0  0
   -2.6005   -0.3333   -0.2478 H   0  0  0  0  0  0  0  0  0  0  0  0
   -0.5675   -0.1203    0.3102 C   0  0  1  0  0  0  0  0  0  0  0  0
    0.1932   -0.7715   -0.1219 H   0  0  0  0  0  0  0  0  0  0  0  0
   -0.6568    1.1713   -0.5294 C   0  0  0  0  0  0  0  0  0  0  0  0
   -0.1773    1.9809    0.0243 H   0  0  0  0  0  0  0  0  0  0  0  0
   -0.0870    1.0164   -1.4483 H   0  0  0  0  0  0  0  0  0  0  0  0
   -2.0775    1.6213   -0.9166 C   0  0  0  0  0  0  0  0  0  0  0  0
   -2.1894    2.6891   -0.7288 H   0  0  0  0  0  0  0  0  0  0  0  0
   -2.3938    1.3385   -2.3881 C   0  0  0  0  0  0  0  0  0  0  0  0
   -2.2704    0.2748   -2.5958 H   0  0  0  0  0  0  0  0  0  0  0  0
   -3.4227    1.6270   -2.6044 H   0  0  0  0  0  0  0  0  0  0  0  0
   -1.7330    1.9068   -3.0392 H   0  0  0  0  0  0  0  0  0  0  0  0
   -3.1047    0.8803   -0.0615 C   0  0  0  0  0  0  0  0  0  0  0  0
   -2.9233    1.0892    0.9927 H   0  0  0  0  0  0  0  0  0  0  0  0
   -4.1099    1.2173   -0.3145 H   0  0  0  0  0  0  0  0  0  0  0  0
   -3.0315   -0.1942   -0.2333 H   0  0  0  0  0  0  0  0  0  0  0  0
   -0.1913    0.1554    1.7759 C   0  0  0  0  0  0  0  0  0  0  0  0
    0.9476   -0.0766    2.1748 O   0  0  0  0  0  0  0  0  0  0  0  0
   -1.1502    0.6393    2.5760 N   0  0  0  0  0  0  0  0  0  0  0  0
   -2.0581    0.8092    2.1736 H   0  0  0  0  0  0  0  0  0  0  0  0
   -0.9568    0.9369    3.9933 C   0  0  0  0  0  0  0  0  0  0  0  0
   -0.1600    1.6750    4.1097 H   0  0  0  0  0  0  0  0  0  0  0  0
   -1.8775    1.3307    4.4266 H   0  0  0  0  0  0  0  0  0  0  0  0
   -0.6678    0.0287    4.5244 H   0  0  0  0  0  0  0  0  0  0  0  0
  5  6  2  0  0  0  0
  5  7  1  0  0  0  0
  2  3  1  0  0  0  0
  2  4  1  0  0  0  0
  2  5  1  0  0  0  0
  1  2  1  0  0  0  0
 24 25  2  0  0  0  0
 24 26  1  0  0  0  0
 20 21  1  0  0  0  0
 20 22  1  0  0  0  0
 20 23  1  0  0  0  0
 16 17  1  0  0  0  0
 16 18  1  0  0  0  0
 16 19  1  0  0  0  0
 14 15  1  0  0  0  0
 14 16  1  0  0  0  0
 14 20  1  0  0  0  0
 11 12  1  0  0  0  0
 11 13  1  0  0  0  0
 11 14  1  0  0  0  0
  9 10  1  0  0  0  0
  9 11  1  0  0  0  0
  9 24  1  0  0  0  0
  7  8  1  0  0  0  0
  7  9  1  0  0  0  0
 28 29  1  0  0  0  0
 28 30  1  0  0  0  0
 28 31  1  0  0  0  0
 26 27  1  0  0  0  0
 26 28  1  0  0  0  0
M  END
$$$$
default_name
  -OEChem-02102213163D

 31 30  0     1  0  0  0  0  0999 V2000
   -3.5895   -3.5013    1.1082 H   0  0  0  0  0  0  0  0  0  0  0  0
   -3.5145   -2.5363    0.6082 C   0  0  0  0  0  0  0  0  0  0  0  0
   -4.2285   -1.8413    1.0452 H   0  0  0  0  0  0  0  0  0  0  0  0
   -3.7155   -2.6583   -0.4538 H   0  0  0  0  0  0  0  0  0  0  0  0
   -2.1155   -1.9963    0.7922 C   0  0  0  0  0  0  0  0  0  0  0  0
   -1.2875   -2.6383    1.4252 O   0  0  0  0  0  0  0  0  0  0  0  0
   -1.8575   -0.8123    0.2402 N   0  0  0  0  0  0  0  0  0  0  0  0
   -2.6005   -0.3333   -0.2478 H   0  0  0  0  0  0  0  0  0  0  0  0
   -0.5675   -0.1203    0.3102 C   0  0  1  0  0  0  0  0  0  0  0  0
    0.1932   -0.7715   -0.1219 H   0  0  0  0  0  0  0  0  0  0  0  0
   -0.6568    1.1713   -0.5294 C   0  0  0  0  0  0  0  0  0  0  0  0
   -0.1773    1.9809    0.0243 H   0  0  0  0  0  0  0  0  0  0  0  0
   -0.0870    1.0164   -1.4483 H   0  0  0  0  0  0  0  0  0  0  0  0
   -2.0775    1.6213   -0.9166 C   0  0  0  0  0  0  0  0  0  0  0  0
   -2.1135    2.7085   -0.9849 H   0  0  0  0  0  0  0  0  0  0  0  0
   -2.5309    1.0231   -2.2515 C   0  0  0  0  0  0  0  0  0  0  0  0
   -2.4850   -0.0657   -2.2042 H   0  0  0  0  0  0  0  0  0  0  0  0
   -3.5566    1.3279   -2.4608 H   0  0  0  0  0  0  0  0  0  0  0  0
   -1.8961    1.3707   -3.0636 H   0  0  0  0  0  0  0  0  0  0  0  0
   -3.0695    1.1818    0.1596 C   0  0  0  0  0  0  0  0  0  0  0  0
   -2.7892    1.6198    1.1175 H   0  0  0  0  0  0  0  0  0  0  0  0
   -4.0719    1.5232   -0.0986 H   0  0  0  0  0  0  0  0  0  0  0  0
   -3.0710    0.0948    0.2476 H   0  0  0  0  0  0  0  0  0  0  0  0
   -0.1913    0.1554    1.7759 C   0  0  0  0  0  0  0  0  0  0  0  0
    0.9476   -0.0766    2.1748 O   0  0  0  0  0  0  0  0  0  0  0  0
   -1.1502    0.6393    2.5760 N   0  0  0  0  0  0  0  0  0  0  0  0
   -2.0581    0.8092    2.1736 H   0  0  0  0  0  0  0  0  0  0  0  0
   -0.9568    0.9369    3.9933 C   0  0  0  0  0  0  0  0  0  0  0  0
   -0.1600    1.6750    4.1097 H   0  0  0  0  0  0  0  0  0  0  0  0
   -1.8775    1.3307    4.4266 H   0  0  0  0  0  0  0  0  0  0  0  0
   -0.6678    0.0287    4.5244 H   0  0  0  0  0  0  0  0  0  0  0  0
  5  6  2  0  0  0  0
  5  7  1  0  0  0  0
  2  3  1  0  0  0  0
  2  4  1  0  0  0  0
  2  5  1  0  0  0  0
  1  2  1  0  0  0  0
 24 25  2  0  0  0  0
 24 26  1  0  0  0  0
 20 21  1  0  0  0  0
 20 22  1  0  0  0  0
 20 23  1  0  0  0  0
 16 17  1  0  0  0  0
 16 18  1  0  0  0  0
 16 19  1  0  0  0  0
 14 15  1  0  0  0  0
 14 16  1  0  0  0  0
 14 20  1  0  0  0  0
 11 12  1  0  0  0  0
 11 13  1  0  0  0  0
 11 14  1  0  0  0  0
  9 10  1  0  0  0  0
  9 11  1  0  0  0  0
  9 24  1  0  0  0  0
  7  8  1  0  0  0  0
  7  9  1  0  0  0  0
 28 29  1  0  0  0  0
 28 30  1  0  0  0  0
 28 31  1  0  0  0  0
 26 27  1  0  0  0  0
 26 28  1  0  0  0  0
M  END
$$$$
default_name
  -OEChem-02102213163D

 31 30  0     1  0  0  0  0  0999 V2000
   -3.5895   -3.5013    1.1082 H   0  0  0  0  0  0  0  0  0  0  0  0
   -3.5145   -2.5363    0.6082 C   0  0  0  0  0  0  0  0  0  0  0  0
   -4.2285   -1.8413    1.0452 H   0  0  0  0  0  0  0  0  0  0  0  0
   -3.7155   -2.6583   -0.4538 H   0  0  0  0  0  0  0  0  0  0  0  0
   -2.1155   -1.9963    0.7922 C   0  0  0  0  0  0  0  0  0  0  0  0
   -1.2875   -2.6383    1.4252 O   0  0  0  0  0  0  0  0  0  0  0  0
   -1.8575   -0.8123    0.2402 N   0  0  0  0  0  0  0  0  0  0  0  0
   -2.6005   -0.3333   -0.2478 H   0  0  0  0  0  0  0  0  0  0  0  0
   -0.5675   -0.1203    0.3102 C   0  0  1  0  0  0  0  0  0  0  0  0
    0.1932   -0.7715   -0.1219 H   0  0  0  0  0  0  0  0  0  0  0  0
   -0.6568    1.1713   -0.5294 C   0  0  0  0  0  0  0  0  0  0  0  0
   -0.1773    1.9809    0.0243 H   0  0  0  0  0  0  0  0  0  0  0  0
   -0.0870    1.0164   -1.4483 H   0  0  0  0  0  0  0  0  0  0  0  0
   -2.0775    1.6213   -0.9166 C   0  0  0  0  0  0  0  0  0  0  0  0
   -2.0582    2.6612   -1.2427 H   0  0  0  0  0  0  0  0  0  0  0  0
   -2.6736    0.7600   -2.0338 C   0  0  0  0  0  0  0  0  0  0  0  0
   -2.6848   -0.2872   -1.7284 H   0  0  0  0  0  0  0  0  0  0  0  0
   -3.6945    1.0820   -2.2405 H   0  0  0  0  0  0  0  0  0  0  0  0
   -2.0904    0.8577   -2.9469 H   0  0  0  0  0  0  0  0  0  0  0  0
   -2.9991    1.5235    0.2985 C   0  0  0  0  0  0  0  0  0  0  0  0
   -2.6158    2.1534    1.1011 H   0  0  0  0  0  0  0  0  0  0  0  0
   -3.9989    1.8677    0.0341 H   0  0  0  0  0  0  0  0  0  0  0  0
   -3.0541    0.4912    0.6461 H   0  0  0  0  0  0  0  0  0  0  0  0
   -0.1913    0.1554    1.7759 C   0  0  0  0  0  0  0  0  0  0  0  0
    0.9476   -0.0766    2.1748 O   0  0  0  0  0  0  0  0  0  0  0  0
   -1.1502    0.6393    2.5760 N   0  0  0  0  0  0  0  0  0  0  0  0
   -2.0581    0.8092    2.1736 H   0  0  0  0  0  0  0  0  0  0  0  0
   -0.9568    0.9369    3.9933 C   0  0  0  0  0  0  0  0  0  0  0  0
   -0.1600    1.6750    4.1097 H   0  0  0  0  0  0  0  0  0  0  0  0
   -1.8775    1.3307    4.4266 H   0  0  0  0  0  0  0  0  0  0  0  0
   -0.6678    0.0287    4.5244 H   0  0  0  0  0  0  0  0  0  0  0  0
  5  6  2  0  0  0  0
  5  7  1  0  0  0  0
  2  3  1  0  0  0  0
  2  4  1  0  0  0  0
  2  5  1  0  0  0  0
  1  2  1  0  0  0  0
 24 25  2  0  0  0  0
 24 26  1  0  0  0  0
 20 21  1  0  0  0  0
 20 22  1  0  0  0  0
 20 23  1  0  0  0  0
 16 17  1  0  0  0  0
 16 18  1  0  0  0  0
 16 19  1  0  0  0  0
 14 15  1  0  0  0  0
 14 16  1  0  0  0  0
 14 20  1  0  0  0  0
 11 12  1  0  0  0  0
 11 13  1  0  0  0  0
 11 14  1  0  0  0  0
  9 10  1  0  0  0  0
  9 11  1  0  0  0  0
  9 24  1  0  0  0  0
  7  8  1  0  0  0  0
  7  9  1  0  0  0  0
 28 29  1  0  0  0  0
 28 30  1  0  0  0  0
 28 31  1  0  0  0  0
 26 27  1  0  0  0  0
 26 28  1  0  0  0  0
M  END
$$$$
default_name
  -OEChem-02102213163D

 31 30  0     1  0  0  0  0  0999 V2000
   -3.5895   -3.5013    1.1082 H   0  0  0  0  0  0  0  0  0  0  0  0
   -3.5145   -2.5363    0.6082 C   0  0  0  0  0  0  0  0  0  0  0  0
   -4.2285   -1.8413    1.0452 H   0  0  0  0  0  0  0  0  0  0  0  0
   -3.7155   -2.6583   -0.4538 H   0  0  0  0  0  0  0  0  0  0  0  0
   -2.1155   -1.9963    0.7922 C   0  0  0  0  0  0  0  0  0  0  0  0
   -1.2875   -2.6383    1.4252 O   0  0  0  0  0  0  0  0  0  0  0  0
   -1.8575   -0.8123    0.2402 N   0  0  0  0  0  0  0  0  0  0  0  0
   -2.6005   -0.3333   -0.2478 H   0  0  0  0  0  0  0  0  0  0  0  0
   -0.5675   -0.1203    0.3102 C   0  0  1  0  0  0  0  0  0  0  0  0
    0.1932   -0.7715   -0.1219 H   0  0  0  0  0  0  0  0  0  0  0  0
   -0.6568    1.1713   -0.5294 C   0  0  0  0  0  0  0  0  0  0  0  0
   -0.1773    1.9809    0.0243 H   0  0  0  0  0  0  0  0  0  0  0  0
   -0.0870    1.0164   -1.4483 H   0  0  0  0  0  0  0  0  0  0  0  0
   -2.0775    1.6213   -0.9166 C   0  0  0  0  0  0  0  0  0  0  0  0
   -2.0274    2.5503   -1.4845 H   0  0  0  0  0  0  0  0  0  0  0  0
   -2.8120    0.5671   -1.7499 C   0  0  0  0  0  0  0  0  0  0  0  0
   -2.8562   -0.3744   -1.2009 H   0  0  0  0  0  0  0  0  0  0  0  0
   -3.8270    0.9061   -1.9586 H   0  0  0  0  0  0  0  0  0  0  0  0
   -2.3026    0.4027   -2.6970 H   0  0  0  0  0  0  0  0  0  0  0  0
   -2.8984    1.8821    0.3457 C   0  0  0  0  0  0  0  0  0  0  0  0
   -2.4148    2.6536    0.9447 H   0  0  0  0  0  0  0  0  0  0  0  0
   -3.8960    2.2273    0.0744 H   0  0  0  0  0  0  0  0  0  0  0  0
   -2.9817    0.9683    0.9351 H   0  0  0  0  0  0  0  0  0  0  0  0
   -0.1913    0.1554    1.7759 C   0  0  0  0  0  0  0  0  0  0  0  0
    0.9476   -0.0766    2.1748 O   0  0  0  0  0  0  0  0  0  0  0  0
   -1.1502    0.6393    2.5760 N   0  0  0  0  0  0  0  0  0  0  0  0
   -2.0581    0.8092    2.1736 H   0  0  0  0  0  0  0  0  0  0  0  0
   -0.9568    0.9369    3.9933 C   0  0  0  0  0  0  0  0  0  0  0  0
   -0.1600    1.6750    4.1097 H   0  0  0  0  0  0  0  0  0  0  0  0
   -1.8775    1.3307    4.4266 H   0  0  0  0  0  0  0  0  0  0  0  0
   -0.6678    0.0287    4.5244 H   0  0  0  0  0  0  0  0  0  0  0  0
  5  6  2  0  0  0  0
  5  7  1  0  0  0  0
  2  3  1  0  0  0  0
  2  4  1  0  0  0  0
  2  5  1  0  0  0  0
  1  2  1  0  0  0  0
 24 25  2  0  0  0  0
 24 26  1  0  0  0  0
 20 21  1  0  0  0  0
 20 22  1  0  0  0  0
 20 23  1  0  0  0  0
 16 17  1  0  0  0  0
 16 18  1  0  0  0  0
 16 19  1  0  0  0  0
 14 15  1  0  0  0  0
 14 16  1  0  0  0  0
 14 20  1  0  0  0  0
 11 12  1  0  0  0  0
 11 13  1  0  0  0  0
 11 14  1  0  0  0  0
  9 10  1  0  0  0  0
  9 11  1  0  0  0  0
  9 24  1  0  0  0  0
  7  8  1  0  0  0  0
  7  9  1  0  0  0  0
 28 29  1  0  0  0  0
 28 30  1  0  0  0  0
 28 31  1  0  0  0  0
 26 27  1  0  0  0  0
 26 28  1  0  0  0  0
M  END
$$$$
default_name
  -OEChem-02102213163D

 31 30  0     1  0  0  0  0  0999 V2000
   -3.5895   -3.5013    1.1082 H   0  0  0  0  0  0  0  0  0  0  0  0
   -3.5145   -2.5363    0.6082 C   0  0  0  0  0  0  0  0  0  0  0  0
   -4.2285   -1.8413    1.0452 H   0  0  0  0  0  0  0  0  0  0  0  0
   -3.7155   -2.6583   -0.4538 H   0  0  0  0  0  0  0  0  0  0  0  0
   -2.1155   -1.9963    0.7922 C   0  0  0  0  0  0  0  0  0  0  0  0
   -1.2875   -2.6383    1.4252 O   0  0  0  0  0  0  0  0  0  0  0  0
   -1.8575   -0.8123    0.2402 N   0  0  0  0  0  0  0  0  0  0  0  0
   -2.6005   -0.3333   -0.2478 H   0  0  0  0  0  0  0  0  0  0  0  0
   -0.5675   -0.1203    0.3102 C   0  0  1  0  0  0  0  0  0  0  0  0
    0.1932   -0.7715   -0.1219 H   0  0  0  0  0  0  0  0  0  0  0  0
   -0.6568    1.1713   -0.5294 C   0  0  0  0  0  0  0  0  0  0  0  0
   -0.1773    1.9809    0.0243 H   0  0  0  0  0  0  0  0  0  0  0  0
   -0.0870    1.0164   -1.4483 H   0  0  0  0  0  0  0  0  0  0  0  0
   -2.0775    1.6213   -0.9166 C   0  0  0  0  0  0  0  0  0  0  0  0
   -2.0232    2.3834   -1.6940 H   0  0  0  0  0  0  0  0  0  0  0  0
   -2.9369    0.4576   -1.4192 C   0  0  0  0  0  0  0  0  0  0  0  0
   -2.9875   -0.3216   -0.6575 H   0  0  0  0  0  0  0  0  0  0  0  0
   -3.9452    0.8120   -1.6343 H   0  0  0  0  0  0  0  0  0  0  0  0
   -2.5183    0.0366   -2.3308 H   0  0  0  0  0  0  0  0  0  0  0  0
   -2.7742    2.2332    0.2981 C   0  0  0  0  0  0  0  0  0  0  0  0
   -2.1998    3.0863    0.6590 H   0  0  0  0  0  0  0  0  0  0  0  0
   -3.7701    2.5777    0.0197 H   0  0  0  0  0  0  0  0  0  0  0  0
   -2.8590    1.4934    1.0948 H   0  0  0  0  0  0  0  0  0  0  0  0
   -0.1913    0.1554    1.7759 C   0  0  0  0  0  0  0  0  0  0  0  0
    0.9476   -0.0766    2.1748 O   0  0  0  0  0  0  0  0  0  0  0  0
   -1.1502    0.6393    2.5760 N   0  0  0  0  0  0  0  0  0  0  0  0
   -2.0581    0.8092    2.1736 H   0  0  0  0  0  0  0  0  0  0  0  0
   -0.9568    0.9369    3.9933 C   0  0  0  0  0  0  0  0  0  0  0  0
   -0.1600    1.6750    4.1097 H   0  0  0  0  0  0  0  0  0  0  0  0
   -1.8775    1.3307    4.4266 H   0  0  0  0  0  0  0  0  0  0  0  0
   -0.6678    0.0287    4.5244 H   0  0  0  0  0  0  0  0  0  0  0  0
  5  6  2  0  0  0  0
  5  7  1  0  0  0  0
  2  3  1  0  0  0  0
  2  4  1  0  0  0  0
  2  5  1  0  0  0  0
  1  2  1  0  0  0  0
 24 25  2  0  0  0  0
 24 26  1  0  0  0  0
 20 21  1  0  0  0  0
 20 22  1  0  0  0  0
 20 23  1  0  0  0  0
 16 17  1  0  0  0  0
 16 18  1  0  0  0  0
 16 19  1  0  0  0  0
 14 15  1  0  0  0  0
 14 16  1  0  0  0  0
 14 20  1  0  0  0  0
 11 12  1  0  0  0  0
 11 13  1  0  0  0  0
 11 14  1  0  0  0  0
  9 10  1  0  0  0  0
  9 11  1  0  0  0  0
  9 24  1  0  0  0  0
  7  8  1  0  0  0  0
  7  9  1  0  0  0  0
 28 29  1  0  0  0  0
 28 30  1  0  0  0  0
 28 31  1  0  0  0  0
 26 27  1  0  0  0  0
 26 28  1  0  0  0  0
M  END
$$$$
default_name
  -OEChem-02102213163D

 31 30  0     1  0  0  0  0  0999 V2000
   -3.5895   -3.5013    1.1082 H   0  0  0  0  0  0  0  0  0  0  0  0
   -3.5145   -2.5363    0.6082 C   0  0  0  0  0  0  0  0  0  0  0  0
   -4.2285   -1.8413    1.0452 H   0  0  0  0  0  0  0  0  0  0  0  0
   -3.7155   -2.6583   -0.4538 H   0  0  0  0  0  0  0  0  0  0  0  0
   -2.1155   -1.9963    0.7922 C   0  0  0  0  0  0  0  0  0  0  0  0
   -1.2875   -2.6383    1.4252 O   0  0  0  0  0  0  0  0  0  0  0  0
   -1.8575   -0.8123    0.2402 N   0  0  0  0  0  0  0  0  0  0  0  0
   -2.6005   -0.3333   -0.2478 H   0  0  0  0  0  0  0  0  0  0  0  0
   -0.5675   -0.1203    0.3102 C   0  0  1  0  0  0  0  0  0  0  0  0
    0.1932   -0.7715   -0.1219 H   0  0  0  0  0  0  0  0  0  0  0  0
   -0.6568    1.1713   -0.5294 C   0  0  0  0  0  0  0  0  0  0  0  0
   -0.1773    1.9809    0.0243 H   0  0  0  0  0  0  0  0  0  0  0  0
   -0.0870    1.0164   -1.4483 H   0  0  0  0  0  0  0  0  0  0  0  0
   -2.0775    1.6213   -0.9166 C   0  0  0  0  0  0  0  0  0  0  0  0
   -2.0458    2.1719   -1.8568 H   0  0  0  0  0  0  0  0  0  0  0  0
   -3.0395    0.4389   -1.0642 C   0  0  0  0  0  0  0  0  0  0  0  0
   -3.0699   -0.1322   -0.1353 H   0  0  0  0  0  0  0  0  0  0  0  0
   -4.0409    0.8064   -1.2896 H   0  0  0  0  0  0  0  0  0  0  0  0
   -2.7228   -0.2154   -1.8734 H   0  0  0  0  0  0  0  0  0  0  0  0
   -2.6350    2.5529    0.1588 C   0  0  0  0  0  0  0  0  0  0  0  0
   -1.9857    3.4221    0.2635 H   0  0  0  0  0  0  0  0  0  0  0  0
   -3.6299    2.8949   -0.1264 H   0  0  0  0  0  0  0  0  0  0  0  0
   -2.6941    2.0307    1.1144 H   0  0  0  0  0  0  0  0  0  0  0  0
   -0.1913    0.1554    1.7759 C   0  0  0  0  0  0  0  0  0  0  0  0
    0.9476   -0.0766    2.1748 O   0  0  0  0  0  0  0  0  0  0  0  0
   -1.1502    0.6393    2.5760 N   0  0  0  0  0  0  0  0  0  0  0  0
   -2.0581    0.8092    2.1736 H   0  0  0  0  0  0  0  0  0  0  0  0
   -0.9568    0.9369    3.9933 C   0  0  0  0  0  0  0  0  0  0  0  0
   -0.1600    1.6750    4.1097 H   0  0  0  0  0  0  0  0  0  0  0  0
   -1.8775    1.3307    4.4266 H   0  0  0  0  0  0  0  0  0  0  0  0
   -0.6678    0.0287    4.5244 H   0  0  0  0  0  0  0  0  0  0  0  0
  5  6  2  0  0  0  0
  5  7  1  0  0  0  0
  2  3  1  0  0  0  0
  2  4  1  0  0  0  0
  2  5  1  0  0  0  0
  1  2  1  0  0  0  0
 24 25  2  0  0  0  0
 24 26  1  0  0  0  0
 20 21  1  0  0  0  0
 20 22  1  0  0  0  0
 20 23  1  0  0  0  0
 16 17  1  0  0  0  0
 16 18  1  0  0  0  0
 16 19  1  0  0  0  0
 14 15  1  0  0  0  0
 14 16  1  0  0  0  0
 14 20  1  0  0  0  0
 11 12  1  0  0  0  0
 11 13  1  0  0  0  0
 11 14  1  0  0  0  0
  9 10  1  0  0  0  0
  9 11  1  0  0  0  0
  9 24  1  0  0  0  0
  7  8  1  0  0  0  0
  7  9  1  0  0  0  0
 28 29  1  0  0  0  0
 28 30  1  0  0  0  0
 28 31  1  0  0  0  0
 26 27  1  0  0  0  0
 26 28  1  0  0  0  0
M  END
$$$$
default_name
  -OEChem-02102213163D

 31 30  0     1  0  0  0  0  0999 V2000
   -3.5895   -3.5013    1.1082 H   0  0  0  0  0  0  0  0  0  0  0  0
   -3.5145   -2.5363    0.6082 C   0  0  0  0  0  0  0  0  0  0  0  0
   -4.2285   -1.8413    1.0452 H   0  0  0  0  0  0  0  0  0  0  0  0
   -3.7155   -2.6583   -0.4538 H   0  0  0  0  0  0  0  0  0  0  0  0
   -2.1155   -1.9963    0.7922 C   0  0  0  0  0  0  0  0  0  0  0  0
   -1.2875   -2.6383    1.4252 O   0  0  0  0  0  0  0  0  0  0  0  0
   -1.8575   -0.8123    0.2402 N   0  0  0  0  0  0  0  0  0  0  0  0
   -2.6005   -0.3333   -0.2478 H   0  0  0  0  0  0  0  0  0  0  0  0
   -0.5675   -0.1203    0.3102 C   0  0  1  0  0  0  0  0  0  0  0  0
    0.1932   -0.7715   -0.1219 H   0  0  0  0  0  0  0  0  0  0  0  0
   -0.6568    1.1713   -0.5294 C   0  0  0  0  0  0  0  0  0  0  0  0
   -0.1773    1.9809    0.0243 H   0  0  0  0  0  0  0  0  0  0  0  0
   -0.0870    1.0164   -1.4483 H   0  0  0  0  0  0  0  0  0  0  0  0
   -2.0775    1.6213   -0.9166 C   0  0  0  0  0  0  0  0  0  0  0  0
   -2.0937    1.9303   -1.9618 H   0  0  0  0  0  0  0  0  0  0  0  0
   -3.1131    0.5124   -0.7090 C   0  0  0  0  0  0  0  0  0  0  0  0
   -3.0976    0.1808    0.3301 H   0  0  0  0  0  0  0  0  0  0  0  0
   -4.1077    0.8895   -0.9481 H   0  0  0  0  0  0  0  0  0  0  0  0
   -2.9021   -0.3364   -1.3560 H   0  0  0  0  0  0  0  0  0  0  0  0
   -2.4902    2.8194   -0.0626 C   0  0  0  0  0  0  0  0  0  0  0  0
   -1.7869    3.6380   -0.2150 H   0  0  0  0  0  0  0  0  0  0  0  0
   -3.4848    3.1572   -0.3538 H   0  0  0  0  0  0  0  0  0  0  0  0
   -2.4984    2.5437    0.9925 H   0  0  0  0  0  0  0  0  0  0  0  0
   -0.1913    0.1554    1.7759 C   0  0  0  0  0  0  0  0  0  0  0  0
    0.9476   -0.0766    2.1748 O   0  0  0  0  0  0  0  0  0  0  0  0
   -1.1502    0.6393    2.5760 N   0  0  0  0  0  0  0  0  0  0  0  0
   -2.0581    0.8092    2.1736 H   0  0  0  0  0  0  0  0  0  0  0  0
   -0.9568    0.9369    3.9933 C   0  0  0  0  0  0  0  0  0  0  0  0
   -0.1600    1.6750    4.1097 H   0  0  0  0  0  0  0  0  0  0  0  0
   -1.8775    1.3307    4.4266 H   0  0  0  0  0  0  0  0  0  0  0  0
   -0.6678    0.0287    4.5244 H   0  0  0  0  0  0  0  0  0  0  0  0
  5  6  2  0  0  0  0
  5  7  1  0  0  0  0
  2  3  1  0  0  0  0
  2  4  1  0  0  0  0
  2  5  1  0  0  0  0
  1  2  1  0  0  0  0
 24 25  2  0  0  0  0
 24 26  1  0  0  0  0
 20 21  1  0  0  0  0
 20 22  1  0  0  0  0
 20 23  1  0  0  0  0
 16 17  1  0  0  0  0
 16 18  1  0  0  0  0
 16 19  1  0  0  0  0
 14 15  1  0  0  0  0
 14 16  1  0  0  0  0
 14 20  1  0  0  0  0
 11 12  1  0  0  0  0
 11 13  1  0  0  0  0
 11 14  1  0  0  0  0
  9 10  1  0  0  0  0
  9 11  1  0  0  0  0
  9 24  1  0  0  0  0
  7  8  1  0  0  0  0
  7  9  1  0  0  0  0
 28 29  1  0  0  0  0
 28 30  1  0  0  0  0
 28 31  1  0  0  0  0
 26 27  1  0  0  0  0
 26 28  1  0  0  0  0
M  END
$$$$
default_name
  -OEChem-02102213163D

 31 30  0     1  0  0  0  0  0999 V2000
   -3.5895   -3.5013    1.1082 H   0  0  0  0  0  0  0  0  0  0  0  0
   -3.5145   -2.5363    0.6082 C   0  0  0  0  0  0  0  0  0  0  0  0
   -4.2285   -1.8413    1.0452 H   0  0  0  0  0  0  0  0  0  0  0  0
   -3.7155   -2.6583   -0.4538 H   0  0  0  0  0  0  0  0  0  0  0  0
   -2.1155   -1.9963    0.7922 C   0  0  0  0  0  0  0  0  0  0  0  0
   -1.2875   -2.6383    1.4252 O   0  0  0  0  0  0  0  0  0  0  0  0
   -1.8575   -0.8123    0.2402 N   0  0  0  0  0  0  0  0  0  0  0  0
   -2.6005   -0.3333   -0.2478 H   0  0  0  0  0  0  0  0  0  0  0  0
   -0.5675   -0.1203    0.3102 C   0  0  1  0  0  0  0  0  0  0  0  0
    0.1932   -0.7715   -0.1219 H   0  0  0  0  0  0  0  0  0  0  0  0
   -0.6568    1.1713   -0.5294 C   0  0  0  0  0  0  0  0  0  0  0  0
   -0.1773    1.9809    0.0243 H   0  0  0  0  0  0  0  0  0  0  0  0
   -0.0870    1.0164   -1.4483 H   0  0  0  0  0  0  0  0  0  0  0  0
   -2.0775    1.6213   -0.9166 C   0  0  0  0  0  0  0  0  0  0  0  0
   -2.1637    1.6749   -2.0019 H   0  0  0  0  0  0  0  0  0  0  0  0
   -3.1525    0.6729   -0.3779 C   0  0  0  0  0  0  0  0  0  0  0  0
   -3.0688    0.5961    0.7070 H   0  0  0  0  0  0  0  0  0  0  0  0
   -4.1409    1.0556   -0.6330 H   0  0  0  0  0  0  0  0  0  0  0  0
   -3.0441   -0.3179   -0.8137 H   0  0  0  0  0  0  0  0  0  0  0  0
   -2.3498    3.0146   -0.3510 C   0  0  0  0  0  0  0  0  0  0  0  0
   -1.6170    3.7194   -0.7437 H   0  0  0  0  0  0  0  0  0  0  0  0
   -3.3448    3.3469   -0.6471 H   0  0  0  0  0  0  0  0  0  0  0  0
   -2.2853    2.9973    0.7375 H   0  0  0  0  0  0  0  0  0  0  0  0
   -0.1913    0.1554    1.7759 C   0  0  0  0  0  0  0  0  0  0  0  0
    0.9476   -0.0766    2.1748 O   0  0  0  0  0  0  0  0  0  0  0  0
   -1.1502    0.6393    2.5760 N   0  0  0  0  0  0  0  0  0  0  0  0
   -2.0581    0.8092    2.1736 H   0  0  0  0  0  0  0  0  0  0  0  0
   -0.9568    0.9369    3.9933 C   0  0  0  0  0  0  0  0  0  0  0  0
   -0.1600    1.6750    4.1097 H   0  0  0  0  0  0  0  0  0  0  0  0
   -1.8775    1.3307    4.4266 H   0  0  0  0  0  0  0  0  0  0  0  0
   -0.6678    0.0287    4.5244 H   0  0  0  0  0  0  0  0  0  0  0  0
  5  6  2  0  0  0  0
  5  7  1  0  0  0  0
  2  3  1  0  0  0  0
  2  4  1  0  0  0  0
  2  5  1  0  0  0  0
  1  2  1  0  0  0  0
 24 25  2  0  0  0  0
 24 26  1  0  0  0  0
 20 21  1  0  0  0  0
 20 22  1  0  0  0  0
 20 23  1  0  0  0  0
 16 17  1  0  0  0  0
 16 18  1  0  0  0  0
 16 19  1  0  0  0  0
 14 15  1  0  0  0  0
 14 16  1  0  0  0  0
 14 20  1  0  0  0  0
 11 12  1  0  0  0  0
 11 13  1  0  0  0  0
 11 14  1  0  0  0  0
  9 10  1  0  0  0  0
  9 11  1  0  0  0  0
  9 24  1  0  0  0  0
  7  8  1  0  0  0  0
  7  9  1  0  0  0  0
 28 29  1  0  0  0  0
 28 30  1  0  0  0  0
 28 31  1  0  0  0  0
 26 27  1  0  0  0  0
 26 28  1  0  0  0  0
M  END
$$$$
default_name
  -OEChem-02102213163D

 31 30  0     1  0  0  0  0  0999 V2000
   -3.5895   -3.5013    1.1082 H   0  0  0  0  0  0  0  0  0  0  0  0
   -3.5145   -2.5363    0.6082 C   0  0  0  0  0  0  0  0  0  0  0  0
   -4.2285   -1.8413    1.0452 H   0  0  0  0  0  0  0  0  0  0  0  0
   -3.7155   -2.6583   -0.4538 H   0  0  0  0  0  0  0  0  0  0  0  0
   -2.1155   -1.9963    0.7922 C   0  0  0  0  0  0  0  0  0  0  0  0
   -1.2875   -2.6383    1.4252 O   0  0  0  0  0  0  0  0  0  0  0  0
   -1.8575   -0.8123    0.2402 N   0  0  0  0  0  0  0  0  0  0  0  0
   -2.6005   -0.3333   -0.2478 H   0  0  0  0  0  0  0  0  0  0  0  0
   -0.5675   -0.1203    0.3102 C   0  0  1  0  0  0  0  0  0  0  0  0
    0.1932   -0.7715   -0.1219 H   0  0  0  0  0  0  0  0  0  0  0  0
   -0.6568    1.1713   -0.5294 C   0  0  0  0  0  0  0  0  0  0  0  0
   -0.1773    1.9809    0.0243 H   0  0  0  0  0  0  0  0  0  0  0  0
   -0.0870    1.0164   -1.4483 H   0  0  0  0  0  0  0  0  0  0  0  0
   -2.0775    1.6213   -0.9166 C   0  0  0  0  0  0  0  0  0  0  0  0
   -2.2509    1.4231   -1.9743 H   0  0  0  0  0  0  0  0  0  0  0  0
   -3.1550    0.9096   -0.0934 C   0  0  0  0  0  0  0  0  0  0  0  0
   -2.9854    1.0853    0.9698 H   0  0  0  0  0  0  0  0  0  0  0  0
   -4.1384    1.2935   -0.3658 H   0  0  0  0  0  0  0  0  0  0  0  0
   -3.1390   -0.1614   -0.2835 H   0  0  0  0  0  0  0  0  0  0  0  0
   -2.2233    3.1250   -0.6869 C   0  0  0  0  0  0  0  0  0  0  0  0
   -1.4877    3.6607   -1.2867 H   0  0  0  0  0  0  0  0  0  0  0  0
   -3.2194    3.4509   -0.9863 H   0  0  0  0  0  0  0  0  0  0  0  0
   -2.0691    3.3608    0.3667 H   0  0  0  0  0  0  0  0  0  0  0  0
   -0.1913    0.1554    1.7759 C   0  0  0  0  0  0  0  0  0  0  0  0
    0.9476   -0.0766    2.1748 O   0  0  0  0  0  0  0  0  0  0  0  0
   -1.1502    0.6393    2.5760 N   0  0  0  0  0  0  0  0  0  0  0  0
   -2.0581    0.8092    2.1736 H   0  0  0  0  0  0  0  0  0  0  0  0
   -0.9568    0.9369    3.9933 C   0  0  0  0  0  0  0  0  0  0  0  0
   -0.1600    1.6750    4.1097 H   0  0  0  0  0  0  0  0  0  0  0  0
   -1.8775    1.3307    4.4266 H   0  0  0  0  0  0  0  0  0  0  0  0
   -0.6678    0.0287    4.5244 H   0  0  0  0  0  0  0  0  0  0  0  0
  5  6  2  0  0  0  0
  5  7  1  0  0  0  0
  2  3  1  0  0  0  0
  2  4  1  0  0  0  0
  2  5  1  0  0  0  0
  1  2  1  0  0  0  0
 24 25  2  0  0  0  0
 24 26  1  0  0  0  0
 20 21  1  0  0  0  0
 20 22  1  0  0  0  0
 20 23  1  0  0  0  0
 16 17  1  0  0  0  0
 16 18  1  0  0  0  0
 16 19  1  0  0  0  0
 14 15  1  0  0  0  0
 14 16  1  0  0  0  0
 14 20  1  0  0  0  0
 11 12  1  0  0  0  0
 11 13  1  0  0  0  0
 11 14  1  0  0  0  0
  9 10  1  0  0  0  0
  9 11  1  0  0  0  0
  9 24  1  0  0  0  0
  7  8  1  0  0  0  0
  7  9  1  0  0  0  0
 28 29  1  0  0  0  0
 28 30  1  0  0  0  0
 28 31  1  0  0  0  0
 26 27  1  0  0  0  0
 26 28  1  0  0  0  0
M  END
$$$$
default_name
  -OEChem-02102213163D

 31 30  0     1  0  0  0  0  0999 V2000
   -3.5895   -3.5013    1.1082 H   0  0  0  0  0  0  0  0  0  0  0  0
   -3.5145   -2.5363    0.6082 C   0  0  0  0  0  0  0  0  0  0  0  0
   -4.2285   -1.8413    1.0452 H   0  0  0  0  0  0  0  0  0  0  0  0
   -3.7155   -2.6583   -0.4538 H   0  0  0  0  0  0  0  0  0  0  0  0
   -2.1155   -1.9963    0.7922 C   0  0  0  0  0  0  0  0  0  0  0  0
   -1.2875   -2.6383    1.4252 O   0  0  0  0  0  0  0  0  0  0  0  0
   -1.8575   -0.8123    0.2402 N   0  0  0  0  0  0  0  0  0  0  0  0
   -2.6005   -0.3333   -0.2478 H   0  0  0  0  0  0  0  0  0  0  0  0
   -0.5675   -0.1203    0.3102 C   0  0  1  0  0  0  0  0  0  0  0  0
    0.1932   -0.7715   -0.1219 H   0  0  0  0  0  0  0  0  0  0  0  0
   -0.6568    1.1713   -0.5294 C   0  0  0  0  0  0  0  0  0  0  0  0
   -0.1773    1.9809    0.0243 H   0  0  0  0  0  0  0  0  0  0  0  0
   -0.0870    1.0164   -1.4483 H   0  0  0  0  0  0  0  0  0  0  0  0
   -2.0775    1.6213   -0.9166 C   0  0  0  0  0  0  0  0  0  0  0  0
   -2.3495    1.1923   -1.8810 H   0  0  0  0  0  0  0  0  0  0  0  0
   -3.1206    1.2064    0.1250 C   0  0  0  0  0  0  0  0  0  0  0  0
   -2.8532    1.6152    1.1004 H   0  0  0  0  0  0  0  0  0  0  0  0
   -4.1003    1.5870   -0.1647 H   0  0  0  0  0  0  0  0  0  0  0  0
   -3.1804    0.1226    0.1983 H   0  0  0  0  0  0  0  0  0  0  0  0
   -2.1193    3.1433   -1.0472 C   0  0  0  0  0  0  0  0  0  0  0  0
   -1.4076    3.4659   -1.8070 H   0  0  0  0  0  0  0  0  0  0  0  0
   -3.1172    3.4622   -1.3482 H   0  0  0  0  0  0  0  0  0  0  0  0
   -1.8647    3.6092   -0.0946 H   0  0  0  0  0  0  0  0  0  0  0  0
   -0.1913    0.1554    1.7759 C   0  0  0  0  0  0  0  0  0  0  0  0
    0.9476   -0.0766    2.1748 O   0  0  0  0  0  0  0  0  0  0  0  0
   -1.1502    0.6393    2.5760 N   0  0  0  0  0  0  0  0  0  0  0  0
   -2.0581    0.8092    2.1736 H   0  0  0  0  0  0  0  0  0  0  0  0
   -0.9568    0.9369    3.9933 C   0  0  0  0  0  0  0  0  0  0  0  0
   -0.1600    1.6750    4.1097 H   0  0  0  0  0  0  0  0  0  0  0  0
   -1.8775    1.3307    4.4266 H   0  0  0  0  0  0  0  0  0  0  0  0
   -0.6678    0.0287    4.5244 H   0  0  0  0  0  0  0  0  0  0  0  0
  5  6  2  0  0  0  0
  5  7  1  0  0  0  0
  2  3  1  0  0  0  0
  2  4  1  0  0  0  0
  2  5  1  0  0  0  0
  1  2  1  0  0  0  0
 24 25  2  0  0  0  0
 24 26  1  0  0  0  0
 20 21  1  0  0  0  0
 20 22  1  0  0  0  0
 20 23  1  0  0  0  0
 16 17  1  0  0  0  0
 16 18  1  0  0  0  0
 16 19  1  0  0  0  0
 14 15  1  0  0  0  0
 14 16  1  0  0  0  0
 14 20  1  0  0  0  0
 11 12  1  0  0  0  0
 11 13  1  0  0  0  0
 11 14  1  0  0  0  0
  9 10  1  0  0  0  0
  9 11  1  0  0  0  0
  9 24  1  0  0  0  0
  7  8  1  0  0  0  0
  7  9  1  0  0  0  0
 28 29  1  0  0  0  0
 28 30  1  0  0  0  0
 28 31  1  0  0  0  0
 26 27  1  0  0  0  0
 26 28  1  0  0  0  0
M  END
$$$$
default_name
  -OEChem-02102213163D

 31 30  0     1  0  0  0  0  0999 V2000
   -3.5895   -3.5013    1.1082 H   0  0  0  0  0  0  0  0  0  0  0  0
   -3.5145   -2.5363    0.6082 C   0  0  0  0  0  0  0  0  0  0  0  0
   -4.2285   -1.8413    1.0452 H   0  0  0  0  0  0  0  0  0  0  0  0
   -3.7155   -2.6583   -0.4538 H   0  0  0  0  0  0  0  0  0  0  0  0
   -2.1155   -1.9963    0.7922 C   0  0  0  0  0  0  0  0  0  0  0  0
   -1.2875   -2.6383    1.4252 O   0  0  0  0  0  0  0  0  0  0  0  0
   -1.8575   -0.8123    0.2402 N   0  0  0  0  0  0  0  0  0  0  0  0
   -2.6005   -0.3333   -0.2478 H   0  0  0  0  0  0  0  0  0  0  0  0
   -0.5675   -0.1203    0.3102 C   0  0  1  0  0  0  0  0  0  0  0  0
    0.1932   -0.7715   -0.1219 H   0  0  0  0  0  0  0  0  0  0  0  0
   -0.6568    1.1713   -0.5294 C   0  0  0  0  0  0  0  0  0  0  0  0
   -0.1773    1.9809    0.0243 H   0  0  0  0  0  0  0  0  0  0  0  0
   -0.0870    1.0164   -1.4483 H   0  0  0  0  0  0  0  0  0  0  0  0
   -2.0775    1.6213   -0.9166 C   0  0  0  0  0  0  0  0  0  0  0  0
   -2.4526    0.9979   -1.7283 H   0  0  0  0  0  0  0  0  0  0  0  0
   -3.0515    1.5429    0.2625 C   0  0  0  0  0  0  0  0  0  0  0  0
   -2.6811    2.1497    1.0900 H   0  0  0  0  0  0  0  0  0  0  0  0
   -4.0291    1.9160   -0.0434 H   0  0  0  0  0  0  0  0  0  0  0  0
   -3.1654    0.5147    0.5991 H   0  0  0  0  0  0  0  0  0  0  0  0
   -2.0450    3.0681   -1.4075 C   0  0  0  0  0  0  0  0  0  0  0  0
   -1.3822    3.1482   -2.2691 H   0  0  0  0  0  0  0  0  0  0  0  0
   -3.0451    3.3801   -1.7083 H   0  0  0  0  0  0  0  0  0  0  0  0
   -1.6860    3.7257   -0.6150 H   0  0  0  0  0  0  0  0  0  0  0  0
   -0.1913    0.1554    1.7759 C   0  0  0  0  0  0  0  0  0  0  0  0
    0.9476   -0.0766    2.1748 O   0  0  0  0  0  0  0  0  0  0  0  0
   -1.1502    0.6393    2.5760 N   0  0  0  0  0  0  0  0  0  0  0  0
   -2.0581    0.8092    2.1736 H   0  0  0  0  0  0  0  0  0  0  0  0
   -0.9568    0.9369    3.9933 C   0  0  0  0  0  0  0  0  0  0  0  0
   -0.1600    1.6750    4.1097 H   0  0  0  0  0  0  0  0  0  0  0  0
   -1.8775    1.3307    4.4266 H   0  0  0  0  0  0  0  0  0  0  0  0
   -0.6678    0.0287    4.5244 H   0  0  0  0  0  0  0  0  0  0  0  0
  5  6  2  0  0  0  0
  5  7  1  0  0  0  0
  2  3  1  0  0  0  0
  2  4  1  0  0  0  0
  2  5  1  0  0  0  0
  1  2  1  0  0  0  0
 24 25  2  0  0  0  0
 24 26  1  0  0  0  0
 20 21  1  0  0  0  0
 20 22  1  0  0  0  0
 20 23  1  0  0  0  0
 16 17  1  0  0  0  0
 16 18  1  0  0  0  0
 16 19  1  0  0  0  0
 14 15  1  0  0  0  0
 14 16  1  0  0  0  0
 14 20  1  0  0  0  0
 11 12  1  0  0  0  0
 11 13  1  0  0  0  0
 11 14  1  0  0  0  0
  9 10  1  0  0  0  0
  9 11  1  0  0  0  0
  9 24  1  0  0  0  0
  7  8  1  0  0  0  0
  7  9  1  0  0  0  0
 28 29  1  0  0  0  0
 28 30  1  0  0  0  0
 28 31  1  0  0  0  0
 26 27  1  0  0  0  0
 26 28  1  0  0  0  0
M  END
$$$$
default_name
  -OEChem-02102213163D

 31 30  0     1  0  0  0  0  0999 V2000
   -3.5895   -3.5013    1.1082 H   0  0  0  0  0  0  0  0  0  0  0  0
   -3.5145   -2.5363    0.6082 C   0  0  0  0  0  0  0  0  0  0  0  0
   -4.2285   -1.8413    1.0452 H   0  0  0  0  0  0  0  0  0  0  0  0
   -3.7155   -2.6583   -0.4538 H   0  0  0  0  0  0  0  0  0  0  0  0
   -2.1155   -1.9963    0.7922 C   0  0  0  0  0  0  0  0  0  0  0  0
   -1.2875   -2.6383    1.4252 O   0  0  0  0  0  0  0  0  0  0  0  0
   -1.8575   -0.8123    0.2402 N   0  0  0  0  0  0  0  0  0  0  0  0
   -2.6005   -0.3333   -0.2478 H   0  0  0  0  0  0  0  0  0  0  0  0
   -0.5675   -0.1203    0.3102 C   0  0  1  0  0  0  0  0  0  0  0  0
    0.1932   -0.7715   -0.1219 H   0  0  0  0  0  0  0  0  0  0  0  0
   -0.6568    1.1713   -0.5294 C   0  0  0  0  0  0  0  0  0  0  0  0
   -0.1773    1.9809    0.0243 H   0  0  0  0  0  0  0  0  0  0  0  0
   -0.0870    1.0164   -1.4483 H   0  0  0  0  0  0  0  0  0  0  0  0
   -2.0775    1.6213   -0.9166 C   0  0  0  0  0  0  0  0  0  0  0  0
   -2.5534    0.8534   -1.5265 H   0  0  0  0  0  0  0  0  0  0  0  0
   -2.9524    1.8963    0.3098 C   0  0  0  0  0  0  0  0  0  0  0  0
   -2.4809    2.6522    0.9393 H   0  0  0  0  0  0  0  0  0  0  0  0
   -3.9298    2.2581   -0.0102 H   0  0  0  0  0  0  0  0  0  0  0  0
   -3.0951    0.9882    0.8914 H   0  0  0  0  0  0  0  0  0  0  0  0
   -2.0053    2.9046   -1.7432 C   0  0  0  0  0  0  0  0  0  0  0  0
   -1.4134    2.7294   -2.6415 H   0  0  0  0  0  0  0  0  0  0  0  0
   -3.0080    3.2101   -2.0419 H   0  0  0  0  0  0  0  0  0  0  0  0
   -1.5451    3.7023   -1.1589 H   0  0  0  0  0  0  0  0  0  0  0  0
   -0.1913    0.1554    1.7759 C   0  0  0  0  0  0  0  0  0  0  0  0
    0.9476   -0.0766    2.1748 O   0  0  0  0  0  0  0  0  0  0  0  0
   -1.1502    0.6393    2.5760 N   0  0  0  0  0  0  0  0  0  0  0  0
   -2.0581    0.8092    2.1736 H   0  0  0  0  0  0  0  0  0  0  0  0
   -0.9568    0.9369    3.9933 C   0  0  0  0  0  0  0  0  0  0  0  0
   -0.1600    1.6750    4.1097 H   0  0  0  0  0  0  0  0  0  0  0  0
   -1.8775    1.3307    4.4266 H   0  0  0  0  0  0  0  0  0  0  0  0
   -0.6678    0.0287    4.5244 H   0  0  0  0  0  0  0  0  0  0  0  0
  5  6  2  0  0  0  0
  5  7  1  0  0  0  0
  2  3  1  0  0  0  0
  2  4  1  0  0  0  0
  2  5  1  0  0  0  0
  1  2  1  0  0  0  0
 24 25  2  0  0  0  0
 24 26  1  0  0  0  0
 20 21  1  0  0  0  0
 20 22  1  0  0  0  0
 20 23  1  0  0  0  0
 16 17  1  0  0  0  0
 16 18  1  0  0  0  0
 16 19  1  0  0  0  0
 14 15  1  0  0  0  0
 14 16  1  0  0  0  0
 14 20  1  0  0  0  0
 11 12  1  0  0  0  0
 11 13  1  0  0  0  0
 11 14  1  0  0  0  0
  9 10  1  0  0  0  0
  9 11  1  0  0  0  0
  9 24  1  0  0  0  0
  7  8  1  0  0  0  0
  7  9  1  0  0  0  0
 28 29  1  0  0  0  0
 28 30  1  0  0  0  0
 28 31  1  0  0  0  0
 26 27  1  0  0  0  0
 26 28  1  0  0  0  0
M  END
$$$$
default_name
  -OEChem-02102213163D

 31 30  0     1  0  0  0  0  0999 V2000
   -3.5895   -3.5013    1.1082 H   0  0  0  0  0  0  0  0  0  0  0  0
   -3.5145   -2.5363    0.6082 C   0  0  0  0  0  0  0  0  0  0  0  0
   -4.2285   -1.8413    1.0452 H   0  0  0  0  0  0  0  0  0  0  0  0
   -3.7155   -2.6583   -0.4538 H   0  0  0  0  0  0  0  0  0  0  0  0
   -2.1155   -1.9963    0.7922 C   0  0  0  0  0  0  0  0  0  0  0  0
   -1.2875   -2.6383    1.4252 O   0  0  0  0  0  0  0  0  0  0  0  0
   -1.8575   -0.8123    0.2402 N   0  0  0  0  0  0  0  0  0  0  0  0
   -2.6005   -0.3333   -0.2478 H   0  0  0  0  0  0  0  0  0  0  0  0
   -0.5675   -0.1203    0.3102 C   0  0  1  0  0  0  0  0  0  0  0  0
    0.1932   -0.7715   -0.1219 H   0  0  0  0  0  0  0  0  0  0  0  0
   -0.6568    1.1713   -0.5294 C   0  0  0  0  0  0  0  0  0  0  0  0
   -0.1773    1.9809    0.0243 H   0  0  0  0  0  0  0  0  0  0  0  0
   -0.0870    1.0164   -1.4483 H   0  0  0  0  0  0  0  0  0  0  0  0
   -2.0775    1.6213   -0.9166 C   0  0  0  0  0  0  0  0  0  0  0  0
   -2.6449    0.7686   -1.2896 H   0  0  0  0  0  0  0  0  0  0  0  0
   -2.8301    2.2426    0.2635 C   0  0  0  0  0  0  0  0  0  0  0  0
   -2.2662    3.0886    0.6586 H   0  0  0  0  0  0  0  0  0  0  0  0
   -3.8091    2.5900   -0.0674 H   0  0  0  0  0  0  0  0  0  0  0  0
   -2.9743    1.5107    1.0554 H   0  0  0  0  0  0  0  0  0  0  0  0
   -2.0029    2.6639   -2.0314 C   0  0  0  0  0  0  0  0  0  0  0  0
   -1.4989    2.2379   -2.8988 H   0  0  0  0  0  0  0  0  0  0  0  0
   -3.0085    2.9638   -2.3264 H   0  0  0  0  0  0  0  0  0  0  0  0
   -1.4518    3.5407   -1.6894 H   0  0  0  0  0  0  0  0  0  0  0  0
   -0.1913    0.1554    1.7759 C   0  0  0  0  0  0  0  0  0  0  0  0
    0.9476   -0.0766    2.1748 O   0  0  0  0  0  0  0  0  0  0  0  0
   -1.1502    0.6393    2.5760 N   0  0  0  0  0  0  0  0  0  0  0  0
   -2.0581    0.8092    2.1736 H   0  0  0  0  0  0  0  0  0  0  0  0
   -0.9568    0.9369    3.9933 C   0  0  0  0  0  0  0  0  0  0  0  0
   -0.1600    1.6750    4.1097 H   0  0  0  0  0  0  0  0  0  0  0  0
   -1.8775    1.3307    4.4266 H   0  0  0  0  0  0  0  0  0  0  0  0
   -0.6678    0.0287    4.5244 H   0  0  0  0  0  0  0  0  0  0  0  0
  5  6  2  0  0  0  0
  5  7  1  0  0  0  0
  2  3  1  0  0  0  0
  2  4  1  0  0  0  0
  2  5  1  0  0  0  0
  1  2  1  0  0  0  0
 24 25  2  0  0  0  0
 24 26  1  0  0  0  0
 20 21  1  0  0  0  0
 20 22  1  0  0  0  0
 20 23  1  0  0  0  0
 16 17  1  0  0  0  0
 16 18  1  0  0  0  0
 16 19  1  0  0  0  0
 14 15  1  0  0  0  0
 14 16  1  0  0  0  0
 14 20  1  0  0  0  0
 11 12  1  0  0  0  0
 11 13  1  0  0  0  0
 11 14  1  0  0  0  0
  9 10  1  0  0  0  0
  9 11  1  0  0  0  0
  9 24  1  0  0  0  0
  7  8  1  0  0  0  0
  7  9  1  0  0  0  0
 28 29  1  0  0  0  0
 28 30  1  0  0  0  0
 28 31  1  0  0  0  0
 26 27  1  0  0  0  0
 26 28  1  0  0  0  0
M  END
$$$$
default_name
  -OEChem-02102213163D

 31 30  0     1  0  0  0  0  0999 V2000
   -3.5895   -3.5013    1.1082 H   0  0  0  0  0  0  0  0  0  0  0  0
   -3.5145   -2.5363    0.6082 C   0  0  0  0  0  0  0  0  0  0  0  0
   -4.2285   -1.8413    1.0452 H   0  0  0  0  0  0  0  0  0  0  0  0
   -3.7155   -2.6583   -0.4538 H   0  0  0  0  0  0  0  0  0  0  0  0
   -2.1155   -1.9963    0.7922 C   0  0  0  0  0  0  0  0  0  0  0  0
   -1.2875   -2.6383    1.4252 O   0  0  0  0  0  0  0  0  0  0  0  0
   -1.8575   -0.8123    0.2402 N   0  0  0  0  0  0  0  0  0  0  0  0
   -2.6005   -0.3333   -0.2478 H   0  0  0  0  0  0  0  0  0  0  0  0
   -0.5675   -0.1203    0.3102 C   0  0  1  0  0  0  0  0  0  0  0  0
    0.1932   -0.7715   -0.1219 H   0  0  0  0  0  0  0  0  0  0  0  0
   -0.6568    1.1713   -0.5294 C   0  0  0  0  0  0  0  0  0  0  0  0
   -0.1773    1.9809    0.0243 H   0  0  0  0  0  0  0  0  0  0  0  0
   -0.0870    1.0164   -1.4483 H   0  0  0  0  0  0  0  0  0  0  0  0
   -2.0775    1.6213   -0.9166 C   0  0  0  0  0  0  0  0  0  0  0  0
   -2.7208    0.7491   -1.0334 H   0  0  0  0  0  0  0  0  0  0  0  0
   -2.6930    2.5580    0.1269 C   0  0  0  0  0  0  0  0  0  0  0  0
   -2.0516    3.4291    0.2670 H   0  0  0  0  0  0  0  0  0  0  0  0
   -3.6753    2.8891   -0.2110 H   0  0  0  0  0  0  0  0  0  0  0  0
   -2.8112    2.0468    1.0799 H   0  0  0  0  0  0  0  0  0  0  0  0
   -2.0382    2.3625   -2.2524 C   0  0  0  0  0  0  0  0  0  0  0  0
   -1.6330    1.7073   -3.0235 H   0  0  0  0  0  0  0  0  0  0  0  0
   -3.0465    2.6579   -2.5423 H   0  0  0  0  0  0  0  0  0  0  0  0
   -1.4122    3.2518   -2.1703 H   0  0  0  0  0  0  0  0  0  0  0  0
   -0.1913    0.1554    1.7759 C   0  0  0  0  0  0  0  0  0  0  0  0
    0.9476   -0.0766    2.1748 O   0  0  0  0  0  0  0  0  0  0  0  0
   -1.1502    0.6393    2.5760 N   0  0  0  0  0  0  0  0  0  0  0  0
   -2.0581    0.8092    2.1736 H   0  0  0  0  0  0  0  0  0  0  0  0
   -0.9568    0.9369    3.9933 C   0  0  0  0  0  0  0  0  0  0  0  0
   -0.1600    1.6750    4.1097 H   0  0  0  0  0  0  0  0  0  0  0  0
   -1.8775    1.3307    4.4266 H   0  0  0  0  0  0  0  0  0  0  0  0
   -0.6678    0.0287    4.5244 H   0  0  0  0  0  0  0  0  0  0  0  0
  5  6  2  0  0  0  0
  5  7  1  0  0  0  0
  2  3  1  0  0  0  0
  2  4  1  0  0  0  0
  2  5  1  0  0  0  0
  1  2  1  0  0  0  0
 24 25  2  0  0  0  0
 24 26  1  0  0  0  0
 20 21  1  0  0  0  0
 20 22  1  0  0  0  0
 20 23  1  0  0  0  0
 16 17  1  0  0  0  0
 16 18  1  0  0  0  0
 16 19  1  0  0  0  0
 14 15  1  0  0  0  0
 14 16  1  0  0  0  0
 14 20  1  0  0  0  0
 11 12  1  0  0  0  0
 11 13  1  0  0  0  0
 11 14  1  0  0  0  0
  9 10  1  0  0  0  0
  9 11  1  0  0  0  0
  9 24  1  0  0  0  0
  7  8  1  0  0  0  0
  7  9  1  0  0  0  0
 28 29  1  0  0  0  0
 28 30  1  0  0  0  0
 28 31  1  0  0  0  0
 26 27  1  0  0  0  0
 26 28  1  0  0  0  0
M  END
$$$$
default_name
  -OEChem-02102213163D

 31 30  0     1  0  0  0  0  0999 V2000
   -3.5895   -3.5013    1.1082 H   0  0  0  0  0  0  0  0  0  0  0  0
   -3.5145   -2.5363    0.6082 C   0  0  0  0  0  0  0  0  0  0  0  0
   -4.2285   -1.8413    1.0452 H   0  0  0  0  0  0  0  0  0  0  0  0
   -3.7155   -2.6583   -0.4538 H   0  0  0  0  0  0  0  0  0  0  0  0
   -2.1155   -1.9963    0.7922 C   0  0  0  0  0  0  0  0  0  0  0  0
   -1.2875   -2.6383    1.4252 O   0  0  0  0  0  0  0  0  0  0  0  0
   -1.8575   -0.8123    0.2402 N   0  0  0  0  0  0  0  0  0  0  0  0
   -2.6005   -0.3333   -0.2478 H   0  0  0  0  0  0  0  0  0  0  0  0
   -0.5675   -0.1203    0.3102 C   0  0  1  0  0  0  0  0  0  0  0  0
    0.1932   -0.7715   -0.1219 H   0  0  0  0  0  0  0  0  0  0  0  0
   -0.6568    1.1713   -0.5294 C   0  0  0  0  0  0  0  0  0  0  0  0
   -0.1773    1.9809    0.0243 H   0  0  0  0  0  0  0  0  0  0  0  0
   -0.0870    1.0164   -1.4483 H   0  0  0  0  0  0  0  0  0  0  0  0
   -2.0775    1.6213   -0.9166 C   0  0  0  0  0  0  0  0  0  0  0  0
   -2.7761    0.7965   -0.7757 H   0  0  0  0  0  0  0  0  0  0  0  0
   -2.5504    2.8211   -0.0908 C   0  0  0  0  0  0  0  0  0  0  0  0
   -1.8518    3.6506   -0.2088 H   0  0  0  0  0  0  0  0  0  0  0  0
   -3.5374    3.1350   -0.4312 H   0  0  0  0  0  0  0  0  0  0  0  0
   -2.6169    2.5598    0.9632 H   0  0  0  0  0  0  0  0  0  0  0  0
   -2.1085    2.0208   -2.3913 C   0  0  0  0  0  0  0  0  0  0  0  0
   -1.8064    1.1738   -3.0072 H   0  0  0  0  0  0  0  0  0  0  0  0
   -3.1195    2.3134   -2.6749 H   0  0  0  0  0  0  0  0  0  0  0  0
   -1.4292    2.8553   -2.5688 H   0  0  0  0  0  0  0  0  0  0  0  0
   -0.1913    0.1554    1.7759 C   0  0  0  0  0  0  0  0  0  0  0  0
    0.9476   -0.0766    2.1748 O   0  0  0  0  0  0  0  0  0  0  0  0
   -1.1502    0.6393    2.5760 N   0  0  0  0  0  0  0  0  0  0  0  0
   -2.0581    0.8092    2.1736 H   0  0  0  0  0  0  0  0  0  0  0  0
   -0.9568    0.9369    3.9933 C   0  0  0  0  0  0  0  0  0  0  0  0
   -0.1600    1.6750    4.1097 H   0  0  0  0  0  0  0  0  0  0  0  0
   -1.8775    1.3307    4.4266 H   0  0  0  0  0  0  0  0  0  0  0  0
   -0.6678    0.0287    4.5244 H   0  0  0  0  0  0  0  0  0  0  0  0
  5  6  2  0  0  0  0
  5  7  1  0  0  0  0
  2  3  1  0  0  0  0
  2  4  1  0  0  0  0
  2  5  1  0  0  0  0
  1  2  1  0  0  0  0
 24 25  2  0  0  0  0
 24 26  1  0  0  0  0
 20 21  1  0  0  0  0
 20 22  1  0  0  0  0
 20 23  1  0  0  0  0
 16 17  1  0  0  0  0
 16 18  1  0  0  0  0
 16 19  1  0  0  0  0
 14 15  1  0  0  0  0
 14 16  1  0  0  0  0
 14 20  1  0  0  0  0
 11 12  1  0  0  0  0
 11 13  1  0  0  0  0
 11 14  1  0  0  0  0
  9 10  1  0  0  0  0
  9 11  1  0  0  0  0
  9 24  1  0  0  0  0
  7  8  1  0  0  0  0
  7  9  1  0  0  0  0
 28 29  1  0  0  0  0
 28 30  1  0  0  0  0
 28 31  1  0  0  0  0
 26 27  1  0  0  0  0
 26 28  1  0  0  0  0
M  END
$$$$
default_name
  -OEChem-02102213163D

 31 30  0     1  0  0  0  0  0999 V2000
   -3.5895   -3.5013    1.1082 H   0  0  0  0  0  0  0  0  0  0  0  0
   -3.5145   -2.5363    0.6082 C   0  0  0  0  0  0  0  0  0  0  0  0
   -4.2285   -1.8413    1.0452 H   0  0  0  0  0  0  0  0  0  0  0  0
   -3.7155   -2.6583   -0.4538 H   0  0  0  0  0  0  0  0  0  0  0  0
   -2.1155   -1.9963    0.7922 C   0  0  0  0  0  0  0  0  0  0  0  0
   -1.2875   -2.6383    1.4252 O   0  0  0  0  0  0  0  0  0  0  0  0
   -1.8575   -0.8123    0.2402 N   0  0  0  0  0  0  0  0  0  0  0  0
   -2.6005   -0.3333   -0.2478 H   0  0  0  0  0  0  0  0  0  0  0  0
   -0.5675   -0.1203    0.3102 C   0  0  1  0  0  0  0  0  0  0  0  0
    0.1932   -0.7715   -0.1219 H   0  0  0  0  0  0  0  0  0  0  0  0
   -0.6568    1.1713   -0.5294 C   0  0  0  0  0  0  0  0  0  0  0  0
   -0.1773    1.9809    0.0243 H   0  0  0  0  0  0  0  0  0  0  0  0
   -0.0870    1.0164   -1.4483 H   0  0  0  0  0  0  0  0  0  0  0  0
   -2.0775    1.6213   -0.9166 C   0  0  0  0  0  0  0  0  0  0  0  0
   -2.8068    0.9074   -0.5338 H   0  0  0  0  0  0  0  0  0  0  0  0
   -2.4119    3.0140   -0.3746 C   0  0  0  0  0  0  0  0  0  0  0  0
   -1.6804    3.7378   -0.7364 H   0  0  0  0  0  0  0  0  0  0  0  0
   -3.4048    3.3110   -0.7131 H   0  0  0  0  0  0  0  0  0  0  0  0
   -2.4047    3.0148    0.7132 H   0  0  0  0  0  0  0  0  0  0  0  0
   -2.2092    1.6622   -2.4386 C   0  0  0  0  0  0  0  0  0  0  0  0
   -2.0075    0.6736   -2.8508 H   0  0  0  0  0  0  0  0  0  0  0  0
   -3.2224    1.9538   -2.7153 H   0  0  0  0  0  0  0  0  0  0  0  0
   -1.5015    2.3782   -2.8578 H   0  0  0  0  0  0  0  0  0  0  0  0
   -0.1913    0.1554    1.7759 C   0  0  0  0  0  0  0  0  0  0  0  0
    0.9476   -0.0766    2.1748 O   0  0  0  0  0  0  0  0  0  0  0  0
   -1.1502    0.6393    2.5760 N   0  0  0  0  0  0  0  0  0  0  0  0
   -2.0581    0.8092    2.1736 H   0  0  0  0  0  0  0  0  0  0  0  0
   -0.9568    0.9369    3.9933 C   0  0  0  0  0  0  0  0  0  0  0  0
   -0.1600    1.6750    4.1097 H   0  0  0  0  0  0  0  0  0  0  0  0
   -1.8775    1.3307    4.4266 H   0  0  0  0  0  0  0  0  0  0  0  0
   -0.6678    0.0287    4.5244 H   0  0  0  0  0  0  0  0  0  0  0  0
  5  6  2  0  0  0  0
  5  7  1  0  0  0  0
  2  3  1  0  0  0  0
  2  4  1  0  0  0  0
  2  5  1  0  0  0  0
  1  2  1  0  0  0  0
 24 25  2  0  0  0  0
 24 26  1  0  0  0  0
 20 21  1  0  0  0  0
 20 22  1  0  0  0  0
 20 23  1  0  0  0  0
 16 17  1  0  0  0  0
 16 18  1  0  0  0  0
 16 19  1  0  0  0  0
 14 15  1  0  0  0  0
 14 16  1  0  0  0  0
 14 20  1  0  0  0  0
 11 12  1  0  0  0  0
 11 13  1  0  0  0  0
 11 14  1  0  0  0  0
  9 10  1  0  0  0  0
  9 11  1  0  0  0  0
  9 24  1  0  0  0  0
  7  8  1  0  0  0  0
  7  9  1  0  0  0  0
 28 29  1  0  0  0  0
 28 30  1  0  0  0  0
 28 31  1  0  0  0  0
 26 27  1  0  0  0  0
 26 28  1  0  0  0  0
M  END
$$$$
default_name
  -OEChem-02102213163D

 31 30  0     1  0  0  0  0  0999 V2000
   -3.5895   -3.5013    1.1082 H   0  0  0  0  0  0  0  0  0  0  0  0
   -3.5145   -2.5363    0.6082 C   0  0  0  0  0  0  0  0  0  0  0  0
   -4.2285   -1.8413    1.0452 H   0  0  0  0  0  0  0  0  0  0  0  0
   -3.7155   -2.6583   -0.4538 H   0  0  0  0  0  0  0  0  0  0  0  0
   -2.1155   -1.9963    0.7922 C   0  0  0  0  0  0  0  0  0  0  0  0
   -1.2875   -2.6383    1.4252 O   0  0  0  0  0  0  0  0  0  0  0  0
   -1.8575   -0.8123    0.2402 N   0  0  0  0  0  0  0  0  0  0  0  0
   -2.6005   -0.3333   -0.2478 H   0  0  0  0  0  0  0  0  0  0  0  0
   -0.5675   -0.1203    0.3102 C   0  0  1  0  0  0  0  0  0  0  0  0
    0.1932   -0.7715   -0.1219 H   0  0  0  0  0  0  0  0  0  0  0  0
   -0.6568    1.1713   -0.5294 C   0  0  0  0  0  0  0  0  0  0  0  0
   -0.1773    1.9809    0.0243 H   0  0  0  0  0  0  0  0  0  0  0  0
   -0.0870    1.0164   -1.4483 H   0  0  0  0  0  0  0  0  0  0  0  0
   -2.0775    1.6213   -0.9166 C   0  0  0  0  0  0  0  0  0  0  0  0
   -2.8111    1.0743   -0.3244 H   0  0  0  0  0  0  0  0  0  0  0  0
   -2.2871    3.1235   -0.7054 C   0  0  0  0  0  0  0  0  0  0  0  0
   -1.5490    3.6850   -1.2798 H   0  0  0  0  0  0  0  0  0  0  0  0
   -3.2866    3.4050   -1.0375 H   0  0  0  0  0  0  0  0  0  0  0  0
   -2.1890    3.3808    0.3471 H   0  0  0  0  0  0  0  0  0  0  0  0
   -2.3334    1.3110   -2.3909 C   0  0  0  0  0  0  0  0  0  0  0  0
   -2.2224    0.2408   -2.5651 H   0  0  0  0  0  0  0  0  0  0  0  0
   -3.3483    1.6034   -2.6605 H   0  0  0  0  0  0  0  0  0  0  0  0
   -1.6243    1.8531   -3.0175 H   0  0  0  0  0  0  0  0  0  0  0  0
   -0.1913    0.1554    1.7759 C   0  0  0  0  0  0  0  0  0  0  0  0
    0.9476   -0.0766    2.1748 O   0  0  0  0  0  0  0  0  0  0  0  0
   -1.1502    0.6393    2.5760 N   0  0  0  0  0  0  0  0  0  0  0  0
   -2.0581    0.8092    2.1736 H   0  0  0  0  0  0  0  0  0  0  0  0
   -0.9568    0.9369    3.9933 C   0  0  0  0  0  0  0  0  0  0  0  0
   -0.1600    1.6750    4.1097 H   0  0  0  0  0  0  0  0  0  0  0  0
   -1.8775    1.3307    4.4266 H   0  0  0  0  0  0  0  0  0  0  0  0
   -0.6678    0.0287    4.5244 H   0  0  0  0  0  0  0  0  0  0  0  0
  5  6  2  0  0  0  0
  5  7  1  0  0  0  0
  2  3  1  0  0  0  0
  2  4  1  0  0  0  0
  2  5  1  0  0  0  0
  1  2  1  0  0  0  0
 24 25  2  0  0  0  0
 24 26  1  0  0  0  0
 20 21  1  0  0  0  0
 20 22  1  0  0  0  0
 20 23  1  0  0  0  0
 16 17  1  0  0  0  0
 16 18  1  0  0  0  0
 16 19  1  0  0  0  0
 14 15  1  0  0  0  0
 14 16  1  0  0  0  0
 14 20  1  0  0  0  0
 11 12  1  0  0  0  0
 11 13  1  0  0  0  0
 11 14  1  0  0  0  0
  9 10  1  0  0  0  0
  9 11  1  0  0  0  0
  9 24  1  0  0  0  0
  7  8  1  0  0  0  0
  7  9  1  0  0  0  0
 28 29  1  0  0  0  0
 28 30  1  0  0  0  0
 28 31  1  0  0  0  0
 26 27  1  0  0  0  0
 26 28  1  0  0  0  0
M  END
$$$$
default_name
  -OEChem-02102213163D

 31 30  0     1  0  0  0  0  0999 V2000
   -3.5895   -3.5013    1.1082 H   0  0  0  0  0  0  0  0  0  0  0  0
   -3.5145   -2.5363    0.6082 C   0  0  0  0  0  0  0  0  0  0  0  0
   -4.2285   -1.8413    1.0452 H   0  0  0  0  0  0  0  0  0  0  0  0
   -3.7155   -2.6583   -0.4538 H   0  0  0  0  0  0  0  0  0  0  0  0
   -2.1155   -1.9963    0.7922 C   0  0  0  0  0  0  0  0  0  0  0  0
   -1.2875   -2.6383    1.4252 O   0  0  0  0  0  0  0  0  0  0  0  0
   -1.8575   -0.8123    0.2402 N   0  0  0  0  0  0  0  0  0  0  0  0
   -2.6005   -0.3333   -0.2478 H   0  0  0  0  0  0  0  0  0  0  0  0
   -0.5675   -0.1203    0.3102 C   0  0  1  0  0  0  0  0  0  0  0  0
    0.1932   -0.7715   -0.1219 H   0  0  0  0  0  0  0  0  0  0  0  0
   -0.6568    1.1713   -0.5294 C   0  0  0  0  0  0  0  0  0  0  0  0
   -0.1773    1.9809    0.0243 H   0  0  0  0  0  0  0  0  0  0  0  0
   -0.0870    1.0164   -1.4483 H   0  0  0  0  0  0  0  0  0  0  0  0
   -2.0775    1.6213   -0.9166 C   0  0  0  0  0  0  0  0  0  0  0  0
   -2.7885    1.2857   -0.1616 H   0  0  0  0  0  0  0  0  0  0  0  0
   -2.1844    3.1422   -1.0604 C   0  0  0  0  0  0  0  0  0  0  0  0
   -1.4667    3.4956   -1.8020 H   0  0  0  0  0  0  0  0  0  0  0  0
   -3.1909    3.4106   -1.3822 H   0  0  0  0  0  0  0  0  0  0  0  0
   -1.9845    3.6329   -0.1103 H   0  0  0  0  0  0  0  0  0  0  0  0
   -2.4726    0.9913   -2.2517 C   0  0  0  0  0  0  0  0  0  0  0  0
   -2.4365   -0.0949   -2.1696 H   0  0  0  0  0  0  0  0  0  0  0  0
   -3.4885    1.2862   -2.5145 H   0  0  0  0  0  0  0  0  0  0  0  0
   -1.7891    1.3158   -3.0371 H   0  0  0  0  0  0  0  0  0  0  0  0
   -0.1913    0.1554    1.7759 C   0  0  0  0  0  0  0  0  0  0  0  0
    0.9476   -0.0766    2.1748 O   0  0  0  0  0  0  0  0  0  0  0  0
   -1.1502    0.6393    2.5760 N   0  0  0  0  0  0  0  0  0  0  0  0
   -2.0581    0.8092    2.1736 H   0  0  0  0  0  0  0  0  0  0  0  0
   -0.9568    0.9369    3.9933 C   0  0  0  0  0  0  0  0  0  0  0  0
   -0.1600    1.6750    4.1097 H   0  0  0  0  0  0  0  0  0  0  0  0
   -1.8775    1.3307    4.4266 H   0  0  0  0  0  0  0  0  0  0  0  0
   -0.6678    0.0287    4.5244 H   0  0  0  0  0  0  0  0  0  0  0  0
  5  6  2  0  0  0  0
  5  7  1  0  0  0  0
  2  3  1  0  0  0  0
  2  4  1  0  0  0  0
  2  5  1  0  0  0  0
  1  2  1  0  0  0  0
 24 25  2  0  0  0  0
 24 26  1  0  0  0  0
 20 21  1  0  0  0  0
 20 22  1  0  0  0  0
 20 23  1  0  0  0  0
 16 17  1  0  0  0  0
 16 18  1  0  0  0  0
 16 19  1  0  0  0  0
 14 15  1  0  0  0  0
 14 16  1  0  0  0  0
 14 20  1  0  0  0  0
 11 12  1  0  0  0  0
 11 13  1  0  0  0  0
 11 14  1  0  0  0  0
  9 10  1  0  0  0  0
  9 11  1  0  0  0  0
  9 24  1  0  0  0  0
  7  8  1  0  0  0  0
  7  9  1  0  0  0  0
 28 29  1  0  0  0  0
 28 30  1  0  0  0  0
 28 31  1  0  0  0  0
 26 27  1  0  0  0  0
 26 28  1  0  0  0  0
M  END
$$$$
default_name
  -OEChem-02102213163D

 31 30  0     1  0  0  0  0  0999 V2000
   -3.5895   -3.5013    1.1082 H   0  0  0  0  0  0  0  0  0  0  0  0
   -3.5145   -2.5363    0.6082 C   0  0  0  0  0  0  0  0  0  0  0  0
   -4.2285   -1.8413    1.0452 H   0  0  0  0  0  0  0  0  0  0  0  0
   -3.7155   -2.6583   -0.4538 H   0  0  0  0  0  0  0  0  0  0  0  0
   -2.1155   -1.9963    0.7922 C   0  0  0  0  0  0  0  0  0  0  0  0
   -1.2875   -2.6383    1.4252 O   0  0  0  0  0  0  0  0  0  0  0  0
   -1.8575   -0.8123    0.2402 N   0  0  0  0  0  0  0  0  0  0  0  0
   -2.6005   -0.3333   -0.2478 H   0  0  0  0  0  0  0  0  0  0  0  0
   -0.5675   -0.1203    0.3102 C   0  0  1  0  0  0  0  0  0  0  0  0
    0.1932   -0.7715   -0.1219 H   0  0  0  0  0  0  0  0  0  0  0  0
   -0.6568    1.1713   -0.5294 C   0  0  0  0  0  0  0  0  0  0  0  0
   -0.1773    1.9809    0.0243 H   0  0  0  0  0  0  0  0  0  0  0  0
   -0.0870    1.0164   -1.4483 H   0  0  0  0  0  0  0  0  0  0  0  0
   -2.0775    1.6213   -0.9166 C   0  0  0  0  0  0  0  0  0  0  0  0
   -2.7405    1.5274   -0.0566 H   0  0  0  0  0  0  0  0  0  0  0  0
   -2.1109    3.0687   -1.4156 C   0  0  0  0  0  0  0  0  0  0  0  0
   -1.4390    3.1826   -2.2674 H   0  0  0  0  0  0  0  0  0  0  0  0
   -3.1241    3.3276   -1.7237 H   0  0  0  0  0  0  0  0  0  0  0  0
   -1.8052    3.7538   -0.6278 H   0  0  0  0  0  0  0  0  0  0  0  0
   -2.6174    0.7248   -2.0303 C   0  0  0  0  0  0  0  0  0  0  0  0
   -2.6353   -0.3109   -1.6911 H   0  0  0  0  0  0  0  0  0  0  0  0
   -3.6336    1.0239   -2.2871 H   0  0  0  0  0  0  0  0  0  0  0  0
   -1.9848    0.8028   -2.9152 H   0  0  0  0  0  0  0  0  0  0  0  0
   -0.1913    0.1554    1.7759 C   0  0  0  0  0  0  0  0  0  0  0  0
    0.9476   -0.0766    2.1748 O   0  0  0  0  0  0  0  0  0  0  0  0
   -1.1502    0.6393    2.5760 N   0  0  0  0  0  0  0  0  0  0  0  0
   -2.0581    0.8092    2.1736 H   0  0  0  0  0  0  0  0  0  0  0  0
   -0.9568    0.9369    3.9933 C   0  0  0  0  0  0  0  0  0  0  0  0
   -0.1600    1.6750    4.1097 H   0  0  0  0  0  0  0  0  0  0  0  0
   -1.8775    1.3307    4.4266 H   0  0  0  0  0  0  0  0  0  0  0  0
   -0.6678    0.0287    4.5244 H   0  0  0  0  0  0  0  0  0  0  0  0
  5  6  2  0  0  0  0
  5  7  1  0  0  0  0
  2  3  1  0  0  0  0
  2  4  1  0  0  0  0
  2  5  1  0  0  0  0
  1  2  1  0  0  0  0
 24 25  2  0  0  0  0
 24 26  1  0  0  0  0
 20 21  1  0  0  0  0
 20 22  1  0  0  0  0
 20 23  1  0  0  0  0
 16 17  1  0  0  0  0
 16 18  1  0  0  0  0
 16 19  1  0  0  0  0
 14 15  1  0  0  0  0
 14 16  1  0  0  0  0
 14 20  1  0  0  0  0
 11 12  1  0  0  0  0
 11 13  1  0  0  0  0
 11 14  1  0  0  0  0
  9 10  1  0  0  0  0
  9 11  1  0  0  0  0
  9 24  1  0  0  0  0
  7  8  1  0  0  0  0
  7  9  1  0  0  0  0
 28 29  1  0  0  0  0
 28 30  1  0  0  0  0
 28 31  1  0  0  0  0
 26 27  1  0  0  0  0
 26 28  1  0  0  0  0
M  END
$$$$
default_name
  -OEChem-02102213163D

 31 30  0     1  0  0  0  0  0999 V2000
   -3.5895   -3.5013    1.1082 H   0  0  0  0  0  0  0  0  0  0  0  0
   -3.5145   -2.5363    0.6082 C   0  0  0  0  0  0  0  0  0  0  0  0
   -4.2285   -1.8413    1.0452 H   0  0  0  0  0  0  0  0  0  0  0  0
   -3.7155   -2.6583   -0.4538 H   0  0  0  0  0  0  0  0  0  0  0  0
   -2.1155   -1.9963    0.7922 C   0  0  0  0  0  0  0  0  0  0  0  0
   -1.2875   -2.6383    1.4252 O   0  0  0  0  0  0  0  0  0  0  0  0
   -1.8575   -0.8123    0.2402 N   0  0  0  0  0  0  0  0  0  0  0  0
   -2.6005   -0.3333   -0.2478 H   0  0  0  0  0  0  0  0  0  0  0  0
   -0.5675   -0.1203    0.3102 C   0  0  1  0  0  0  0  0  0  0  0  0
    0.1932   -0.7715   -0.1219 H   0  0  0  0  0  0  0  0  0  0  0  0
   -0.6568    1.1713   -0.5294 C   0  0  0  0  0  0  0  0  0  0  0  0
    0.0397    1.9040   -0.1171 H   0  0  0  0  0  0  0  0  0  0  0  0
   -0.3280    0.9373   -1.5444 H   0  0  0  0  0  0  0  0  0  0  0  0
   -2.0509    1.8193   -0.6148 C   0  0  0  0  0  0  0  0  0  0  0  0
   -2.4054    2.0632    0.3867 H   0  0  0  0  0  0  0  0  0  0  0  0
   -2.0467    3.0927   -1.4655 C   0  0  0  0  0  0  0  0  0  0  0  0
   -1.6786    2.8677   -2.4674 H   0  0  0  0  0  0  0  0  0  0  0  0
   -3.0599    3.4887   -1.5386 H   0  0  0  0  0  0  0  0  0  0  0  0
   -1.4117    3.8530   -1.0159 H   0  0  0  0  0  0  0  0  0  0  0  0
   -3.0397    0.8362   -1.2403 C   0  0  0  0  0  0  0  0  0  0  0  0
   -3.0876   -0.0699   -0.6364 H   0  0  0  0  0  0  0  0  0  0  0  0
   -4.0335    1.2825   -1.2765 H   0  0  0  0  0  0  0  0  0  0  0  0
   -2.7240    0.5783   -2.2518 H   0  0  0  0  0  0  0  0  0  0  0  0
   -0.1913    0.1554    1.7759 C   0  0  0  0  0  0  0  0  0  0  0  0
    0.9476   -0.0766    2.1748 O   0  0  0  0  0  0  0  0  0  0  0  0
   -1.1502    0.6393    2.5760 N   0  0  0  0  0  0  0  0  0  0  0  0
   -2.0581    0.8092    2.1736 H   0  0  0  0  0  0  0  0  0  0  0  0
   -0.9568    0.9369    3.9933 C   0  0  0  0  0  0  0  0  0  0  0  0
   -0.1600    1.6750    4.1097 H   0  0  0  0  0  0  0  0  0  0  0  0
   -1.8775    1.3307    4.4266 H   0  0  0  0  0  0  0  0  0  0  0  0
   -0.6678    0.0287    4.5244 H   0  0  0  0  0  0  0  0  0  0  0  0
  5  6  2  0  0  0  0
  5  7  1  0  0  0  0
  2  3  1  0  0  0  0
  2  4  1  0  0  0  0
  2  5  1  0  0  0  0
  1  2  1  0  0  0  0
 24 25  2  0  0  0  0
 24 26  1  0  0  0  0
 20 21  1  0  0  0  0
 20 22  1  0  0  0  0
 20 23  1  0  0  0  0
 16 17  1  0  0  0  0
 16 18  1  0  0  0  0
 16 19  1  0  0  0  0
 14 15  1  0  0  0  0
 14 16  1  0  0  0  0
 14 20  1  0  0  0  0
 11 12  1  0  0  0  0
 11 13  1  0  0  0  0
 11 14  1  0  0  0  0
  9 10  1  0  0  0  0
  9 11  1  0  0  0  0
  9 24  1  0  0  0  0
  7  8  1  0  0  0  0
  7  9  1  0  0  0  0
 28 29  1  0  0  0  0
 28 30  1  0  0  0  0
 28 31  1  0  0  0  0
 26 27  1  0  0  0  0
 26 28  1  0  0  0  0
M  END
$$$$
default_name
  -OEChem-02102213163D

 31 30  0     1  0  0  0  0  0999 V2000
   -3.5895   -3.5013    1.1082 H   0  0  0  0  0  0  0  0  0  0  0  0
   -3.5145   -2.5363    0.6082 C   0  0  0  0  0  0  0  0  0  0  0  0
   -4.2285   -1.8413    1.0452 H   0  0  0  0  0  0  0  0  0  0  0  0
   -3.7155   -2.6583   -0.4538 H   0  0  0  0  0  0  0  0  0  0  0  0
   -2.1155   -1.9963    0.7922 C   0  0  0  0  0  0  0  0  0  0  0  0
   -1.2875   -2.6383    1.4252 O   0  0  0  0  0  0  0  0  0  0  0  0
   -1.8575   -0.8123    0.2402 N   0  0  0  0  0  0  0  0  0  0  0  0
   -2.6005   -0.3333   -0.2478 H   0  0  0  0  0  0  0  0  0  0  0  0
   -0.5675   -0.1203    0.3102 C   0  0  1  0  0  0  0  0  0  0  0  0
    0.1932   -0.7715   -0.1219 H   0  0  0  0  0  0  0  0  0  0  0  0
   -0.6568    1.1713   -0.5294 C   0  0  0  0  0  0  0  0  0  0  0  0
    0.0397    1.9040   -0.1171 H   0  0  0  0  0  0  0  0  0  0  0  0
   -0.3280    0.9373   -1.5444 H   0  0  0  0  0  0  0  0  0  0  0  0
   -2.0509    1.8193   -0.6148 C   0  0  0  0  0  0  0  0  0  0  0  0
   -2.2921    2.3000    0.3333 H   0  0  0  0  0  0  0  0  0  0  0  0
   -2.1391    2.8582   -1.7365 C   0  0  0  0  0  0  0  0  0  0  0  0
   -1.8844    2.3955   -2.6909 H   0  0  0  0  0  0  0  0  0  0  0  0
   -3.1536    3.2537   -1.7916 H   0  0  0  0  0  0  0  0  0  0  0  0
   -1.4572    3.6848   -1.5491 H   0  0  0  0  0  0  0  0  0  0  0  0
   -3.1042    0.7447   -0.8819 C   0  0  0  0  0  0  0  0  0  0  0  0
   -3.0862    0.0064   -0.0803 H   0  0  0  0  0  0  0  0  0  0  0  0
   -4.0952    1.1972   -0.9152 H   0  0  0  0  0  0  0  0  0  0  0  0
   -2.9026    0.2492   -1.8322 H   0  0  0  0  0  0  0  0  0  0  0  0
   -0.1913    0.1554    1.7759 C   0  0  0  0  0  0  0  0  0  0  0  0
    0.9476   -0.0766    2.1748 O   0  0  0  0  0  0  0  0  0  0  0  0
   -1.1502    0.6393    2.5760 N   0  0  0  0  0  0  0  0  0  0  0  0
   -2.0581    0.8092    2.1736 H   0  0  0  0  0  0  0  0  0  0  0  0
   -0.9568    0.9369    3.9933 C   0  0  0  0  0  0  0  0  0  0  0  0
   -0.1600    1.6750    4.1097 H   0  0  0  0  0  0  0  0  0  0  0  0
   -1.8775    1.3307    4.4266 H   0  0  0  0  0  0  0  0  0  0  0  0
   -0.6678    0.0287    4.5244 H   0  0  0  0  0  0  0  0  0  0  0  0
  5  6  2  0  0  0  0
  5  7  1  0  0  0  0
  2  3  1  0  0  0  0
  2  4  1  0  0  0  0
  2  5  1  0  0  0  0
  1  2  1  0  0  0  0
 24 25  2  0  0  0  0
 24 26  1  0  0  0  0
 20 21  1  0  0  0  0
 20 22  1  0  0  0  0
 20 23  1  0  0  0  0
 16 17  1  0  0  0  0
 16 18  1  0  0  0  0
 16 19  1  0  0  0  0
 14 15  1  0  0  0  0
 14 16  1  0  0  0  0
 14 20  1  0  0  0  0
 11 12  1  0  0  0  0
 11 13  1  0  0  0  0
 11 14  1  0  0  0  0
  9 10  1  0  0  0  0
  9 11  1  0  0  0  0
  9 24  1  0  0  0  0
  7  8  1  0  0  0  0
  7  9  1  0  0  0  0
 28 29  1  0  0  0  0
 28 30  1  0  0  0  0
 28 31  1  0  0  0  0
 26 27  1  0  0  0  0
 26 28  1  0  0  0  0
M  END
$$$$
default_name
  -OEChem-02102213163D

 31 30  0     1  0  0  0  0  0999 V2000
   -3.5895   -3.5013    1.1082 H   0  0  0  0  0  0  0  0  0  0  0  0
   -3.5145   -2.5363    0.6082 C   0  0  0  0  0  0  0  0  0  0  0  0
   -4.2285   -1.8413    1.0452 H   0  0  0  0  0  0  0  0  0  0  0  0
   -3.7155   -2.6583   -0.4538 H   0  0  0  0  0  0  0  0  0  0  0  0
   -2.1155   -1.9963    0.7922 C   0  0  0  0  0  0  0  0  0  0  0  0
   -1.2875   -2.6383    1.4252 O   0  0  0  0  0  0  0  0  0  0  0  0
   -1.8575   -0.8123    0.2402 N   0  0  0  0  0  0  0  0  0  0  0  0
   -2.6005   -0.3333   -0.2478 H   0  0  0  0  0  0  0  0  0  0  0  0
   -0.5675   -0.1203    0.3102 C   0  0  1  0  0  0  0  0  0  0  0  0
    0.1932   -0.7715   -0.1219 H   0  0  0  0  0  0  0  0  0  0  0  0
   -0.6568    1.1713   -0.5294 C   0  0  0  0  0  0  0  0  0  0  0  0
    0.0397    1.9040   -0.1171 H   0  0  0  0  0  0  0  0  0  0  0  0
   -0.3280    0.9373   -1.5444 H   0  0  0  0  0  0  0  0  0  0  0  0
   -2.0509    1.8193   -0.6148 C   0  0  0  0  0  0  0  0  0  0  0  0
   -2.1851    2.5145    0.2139 H   0  0  0  0  0  0  0  0  0  0  0  0
   -2.2613    2.5695   -1.9332 C   0  0  0  0  0  0  0  0  0  0  0  0
   -2.1143    1.8899   -2.7737 H   0  0  0  0  0  0  0  0  0  0  0  0
   -3.2751    2.9688   -1.9707 H   0  0  0  0  0  0  0  0  0  0  0  0
   -1.5616    3.3981   -2.0196 H   0  0  0  0  0  0  0  0  0  0  0  0
   -3.1287    0.7413   -0.5072 C   0  0  0  0  0  0  0  0  0  0  0  0
   -3.0232    0.2104    0.4388 H   0  0  0  0  0  0  0  0  0  0  0  0
   -4.1168    1.2004   -0.5396 H   0  0  0  0  0  0  0  0  0  0  0  0
   -3.0342    0.0321   -1.3303 H   0  0  0  0  0  0  0  0  0  0  0  0
   -0.1913    0.1554    1.7759 C   0  0  0  0  0  0  0  0  0  0  0  0
    0.9476   -0.0766    2.1748 O   0  0  0  0  0  0  0  0  0  0  0  0
   -1.1502    0.6393    2.5760 N   0  0  0  0  0  0  0  0  0  0  0  0
   -2.0581    0.8092    2.1736 H   0  0  0  0  0  0  0  0  0  0  0  0
   -0.9568    0.9369    3.9933 C   0  0  0  0  0  0  0  0  0  0  0  0
   -0.1600    1.6750    4.1097 H   0  0  0  0  0  0  0  0  0  0  0  0
   -1.8775    1.3307    4.4266 H   0  0  0  0  0  0  0  0  0  0  0  0
   -0.6678    0.0287    4.5244 H   0  0  0  0  0  0  0  0  0  0  0  0
  5  6  2  0  0  0  0
  5  7  1  0  0  0  0
  2  3  1  0  0  0  0
  2  4  1  0  0  0  0
  2  5  1  0  0  0  0
  1  2  1  0  0  0  0
 24 25  2  0  0  0  0
 24 26  1  0  0  0  0
 20 21  1  0  0  0  0
 20 22  1  0  0  0  0
 20 23  1  0  0  0  0
 16 17  1  0  0  0  0
 16 18  1  0  0  0  0
 16 19  1  0  0  0  0
 14 15  1  0  0  0  0
 14 16  1  0  0  0  0
 14 20  1  0  0  0  0
 11 12  1  0  0  0  0
 11 13  1  0  0  0  0
 11 14  1  0  0  0  0
  9 10  1  0  0  0  0
  9 11  1  0  0  0  0
  9 24  1  0  0  0  0
  7  8  1  0  0  0  0
  7  9  1  0  0  0  0
 28 29  1  0  0  0  0
 28 30  1  0  0  0  0
 28 31  1  0  0  0  0
 26 27  1  0  0  0  0
 26 28  1  0  0  0  0
M  END
$$$$
default_name
  -OEChem-02102213163D

 31 30  0     1  0  0  0  0  0999 V2000
   -3.5895   -3.5013    1.1082 H   0  0  0  0  0  0  0  0  0  0  0  0
   -3.5145   -2.5363    0.6082 C   0  0  0  0  0  0  0  0  0  0  0  0
   -4.2285   -1.8413    1.0452 H   0  0  0  0  0  0  0  0  0  0  0  0
   -3.7155   -2.6583   -0.4538 H   0  0  0  0  0  0  0  0  0  0  0  0
   -2.1155   -1.9963    0.7922 C   0  0  0  0  0  0  0  0  0  0  0  0
   -1.2875   -2.6383    1.4252 O   0  0  0  0  0  0  0  0  0  0  0  0
   -1.8575   -0.8123    0.2402 N   0  0  0  0  0  0  0  0  0  0  0  0
   -2.6005   -0.3333   -0.2478 H   0  0  0  0  0  0  0  0  0  0  0  0
   -0.5675   -0.1203    0.3102 C   0  0  1  0  0  0  0  0  0  0  0  0
    0.1932   -0.7715   -0.1219 H   0  0  0  0  0  0  0  0  0  0  0  0
   -0.6568    1.1713   -0.5294 C   0  0  0  0  0  0  0  0  0  0  0  0
    0.0397    1.9040   -0.1171 H   0  0  0  0  0  0  0  0  0  0  0  0
   -0.3280    0.9373   -1.5444 H   0  0  0  0  0  0  0  0  0  0  0  0
   -2.0509    1.8193   -0.6148 C   0  0  0  0  0  0  0  0  0  0  0  0
   -2.0916    2.6922    0.0367 H   0  0  0  0  0  0  0  0  0  0  0  0
   -2.4048    2.2463   -2.0423 C   0  0  0  0  0  0  0  0  0  0  0  0
   -2.3527    1.3854   -2.7102 H   0  0  0  0  0  0  0  0  0  0  0  0
   -3.4160    2.6534   -2.0637 H   0  0  0  0  0  0  0  0  0  0  0  0
   -1.7179    3.0123   -2.3956 H   0  0  0  0  0  0  0  0  0  0  0  0
   -3.1117    0.8261   -0.1418 C   0  0  0  0  0  0  0  0  0  0  0  0
   -2.9029    0.5281    0.8856 H   0  0  0  0  0  0  0  0  0  0  0  0
   -4.0966    1.2918   -0.1751 H   0  0  0  0  0  0  0  0  0  0  0  0
   -3.1098   -0.0580   -0.7804 H   0  0  0  0  0  0  0  0  0  0  0  0
   -0.1913    0.1554    1.7759 C   0  0  0  0  0  0  0  0  0  0  0  0
    0.9476   -0.0766    2.1748 O   0  0  0  0  0  0  0  0  0  0  0  0
   -1.1502    0.6393    2.5760 N   0  0  0  0  0  0  0  0  0  0  0  0
   -2.0581    0.8092    2.1736 H   0  0  0  0  0  0  0  0  0  0  0  0
   -0.9568    0.9369    3.9933 C   0  0  0  0  0  0  0  0  0  0  0  0
   -0.1600    1.6750    4.1097 H   0  0  0  0  0  0  0  0  0  0  0  0
   -1.8775    1.3307    4.4266 H   0  0  0  0  0  0  0  0  0  0  0  0
   -0.6678    0.0287    4.5244 H   0  0  0  0  0  0  0  0  0  0  0  0
  5  6  2  0  0  0  0
  5  7  1  0  0  0  0
  2  3  1  0  0  0  0
  2  4  1  0  0  0  0
  2  5  1  0  0  0  0
  1  2  1  0  0  0  0
 24 25  2  0  0  0  0
 24 26  1  0  0  0  0
 20 21  1  0  0  0  0
 20 22  1  0  0  0  0
 20 23  1  0  0  0  0
 16 17  1  0  0  0  0
 16 18  1  0  0  0  0
 16 19  1  0  0  0  0
 14 15  1  0  0  0  0
 14 16  1  0  0  0  0
 14 20  1  0  0  0  0
 11 12  1  0  0  0  0
 11 13  1  0  0  0  0
 11 14  1  0  0  0  0
  9 10  1  0  0  0  0
  9 11  1  0  0  0  0
  9 24  1  0  0  0  0
  7  8  1  0  0  0  0
  7  9  1  0  0  0  0
 28 29  1  0  0  0  0
 28 30  1  0  0  0  0
 28 31  1  0  0  0  0
 26 27  1  0  0  0  0
 26 28  1  0  0  0  0
M  END
$$$$
default_name
  -OEChem-02102213163D

 31 30  0     1  0  0  0  0  0999 V2000
   -3.5895   -3.5013    1.1082 H   0  0  0  0  0  0  0  0  0  0  0  0
   -3.5145   -2.5363    0.6082 C   0  0  0  0  0  0  0  0  0  0  0  0
   -4.2285   -1.8413    1.0452 H   0  0  0  0  0  0  0  0  0  0  0  0
   -3.7155   -2.6583   -0.4538 H   0  0  0  0  0  0  0  0  0  0  0  0
   -2.1155   -1.9963    0.7922 C   0  0  0  0  0  0  0  0  0  0  0  0
   -1.2875   -2.6383    1.4252 O   0  0  0  0  0  0  0  0  0  0  0  0
   -1.8575   -0.8123    0.2402 N   0  0  0  0  0  0  0  0  0  0  0  0
   -2.6005   -0.3333   -0.2478 H   0  0  0  0  0  0  0  0  0  0  0  0
   -0.5675   -0.1203    0.3102 C   0  0  1  0  0  0  0  0  0  0  0  0
    0.1932   -0.7715   -0.1219 H   0  0  0  0  0  0  0  0  0  0  0  0
   -0.6568    1.1713   -0.5294 C   0  0  0  0  0  0  0  0  0  0  0  0
    0.0397    1.9040   -0.1171 H   0  0  0  0  0  0  0  0  0  0  0  0
   -0.3280    0.9373   -1.5444 H   0  0  0  0  0  0  0  0  0  0  0  0
   -2.0509    1.8193   -0.6148 C   0  0  0  0  0  0  0  0  0  0  0  0
   -2.0181    2.8210   -0.1863 H   0  0  0  0  0  0  0  0  0  0  0  0
   -2.5600    1.9106   -2.0562 C   0  0  0  0  0  0  0  0  0  0  0  0
   -2.5832    0.9165   -2.5046 H   0  0  0  0  0  0  0  0  0  0  0  0
   -3.5667    2.3289   -2.0642 H   0  0  0  0  0  0  0  0  0  0  0  0
   -1.9153    2.5539   -2.6513 H   0  0  0  0  0  0  0  0  0  0  0  0
   -3.0542    0.9934    0.1894 C   0  0  0  0  0  0  0  0  0  0  0  0
   -2.7334    0.9381    1.2296 H   0  0  0  0  0  0  0  0  0  0  0  0
   -4.0361    1.4652    0.1533 H   0  0  0  0  0  0  0  0  0  0  0  0
   -3.1242   -0.0151   -0.2198 H   0  0  0  0  0  0  0  0  0  0  0  0
   -0.1913    0.1554    1.7759 C   0  0  0  0  0  0  0  0  0  0  0  0
    0.9476   -0.0766    2.1748 O   0  0  0  0  0  0  0  0  0  0  0  0
   -1.1502    0.6393    2.5760 N   0  0  0  0  0  0  0  0  0  0  0  0
   -2.0581    0.8092    2.1736 H   0  0  0  0  0  0  0  0  0  0  0  0
   -0.9568    0.9369    3.9933 C   0  0  0  0  0  0  0  0  0  0  0  0
   -0.1600    1.6750    4.1097 H   0  0  0  0  0  0  0  0  0  0  0  0
   -1.8775    1.3307    4.4266 H   0  0  0  0  0  0  0  0  0  0  0  0
   -0.6678    0.0287    4.5244 H   0  0  0  0  0  0  0  0  0  0  0  0
  5  6  2  0  0  0  0
  5  7  1  0  0  0  0
  2  3  1  0  0  0  0
  2  4  1  0  0  0  0
  2  5  1  0  0  0  0
  1  2  1  0  0  0  0
 24 25  2  0  0  0  0
 24 26  1  0  0  0  0
 20 21  1  0  0  0  0
 20 22  1  0  0  0  0
 20 23  1  0  0  0  0
 16 17  1  0  0  0  0
 16 18  1  0  0  0  0
 16 19  1  0  0  0  0
 14 15  1  0  0  0  0
 14 16  1  0  0  0  0
 14 20  1  0  0  0  0
 11 12  1  0  0  0  0
 11 13  1  0  0  0  0
 11 14  1  0  0  0  0
  9 10  1  0  0  0  0
  9 11  1  0  0  0  0
  9 24  1  0  0  0  0
  7  8  1  0  0  0  0
  7  9  1  0  0  0  0
 28 29  1  0  0  0  0
 28 30  1  0  0  0  0
 28 31  1  0  0  0  0
 26 27  1  0  0  0  0
 26 28  1  0  0  0  0
M  END
$$$$
default_name
  -OEChem-02102213163D

 31 30  0     1  0  0  0  0  0999 V2000
   -3.5895   -3.5013    1.1082 H   0  0  0  0  0  0  0  0  0  0  0  0
   -3.5145   -2.5363    0.6082 C   0  0  0  0  0  0  0  0  0  0  0  0
   -4.2285   -1.8413    1.0452 H   0  0  0  0  0  0  0  0  0  0  0  0
   -3.7155   -2.6583   -0.4538 H   0  0  0  0  0  0  0  0  0  0  0  0
   -2.1155   -1.9963    0.7922 C   0  0  0  0  0  0  0  0  0  0  0  0
   -1.2875   -2.6383    1.4252 O   0  0  0  0  0  0  0  0  0  0  0  0
   -1.8575   -0.8123    0.2402 N   0  0  0  0  0  0  0  0  0  0  0  0
   -2.6005   -0.3333   -0.2478 H   0  0  0  0  0  0  0  0  0  0  0  0
   -0.5675   -0.1203    0.3102 C   0  0  1  0  0  0  0  0  0  0  0  0
    0.1932   -0.7715   -0.1219 H   0  0  0  0  0  0  0  0  0  0  0  0
   -0.6568    1.1713   -0.5294 C   0  0  0  0  0  0  0  0  0  0  0  0
    0.0397    1.9040   -0.1171 H   0  0  0  0  0  0  0  0  0  0  0  0
   -0.3280    0.9373   -1.5444 H   0  0  0  0  0  0  0  0  0  0  0  0
   -2.0509    1.8193   -0.6148 C   0  0  0  0  0  0  0  0  0  0  0  0
   -1.9695    2.8921   -0.4399 H   0  0  0  0  0  0  0  0  0  0  0  0
   -2.7162    1.5853   -1.9742 C   0  0  0  0  0  0  0  0  0  0  0  0
   -2.7903    0.5150   -2.1711 H   0  0  0  0  0  0  0  0  0  0  0  0
   -3.7171    2.0176   -1.9723 H   0  0  0  0  0  0  0  0  0  0  0  0
   -2.1405    2.0539   -2.7694 H   0  0  0  0  0  0  0  0  0  0  0  0
   -2.9602    1.2318    0.4638 C   0  0  0  0  0  0  0  0  0  0  0  0
   -2.5264    1.4122    1.4473 H   0  0  0  0  0  0  0  0  0  0  0  0
   -3.9395    1.7087    0.4233 H   0  0  0  0  0  0  0  0  0  0  0  0
   -3.0764    0.1580    0.3132 H   0  0  0  0  0  0  0  0  0  0  0  0
   -0.1913    0.1554    1.7759 C   0  0  0  0  0  0  0  0  0  0  0  0
    0.9476   -0.0766    2.1748 O   0  0  0  0  0  0  0  0  0  0  0  0
   -1.1502    0.6393    2.5760 N   0  0  0  0  0  0  0  0  0  0  0  0
   -2.0581    0.8092    2.1736 H   0  0  0  0  0  0  0  0  0  0  0  0
   -0.9568    0.9369    3.9933 C   0  0  0  0  0  0  0  0  0  0  0  0
   -0.1600    1.6750    4.1097 H   0  0  0  0  0  0  0  0  0  0  0  0
   -1.8775    1.3307    4.4266 H   0  0  0  0  0  0  0  0  0  0  0  0
   -0.6678    0.0287    4.5244 H   0  0  0  0  0  0  0  0  0  0  0  0
  5  6  2  0  0  0  0
  5  7  1  0  0  0  0
  2  3  1  0  0  0  0
  2  4  1  0  0  0  0
  2  5  1  0  0  0  0
  1  2  1  0  0  0  0
 24 25  2  0  0  0  0
 24 26  1  0  0  0  0
 20 21  1  0  0  0  0
 20 22  1  0  0  0  0
 20 23  1  0  0  0  0
 16 17  1  0  0  0  0
 16 18  1  0  0  0  0
 16 19  1  0  0  0  0
 14 15  1  0  0  0  0
 14 16  1  0  0  0  0
 14 20  1  0  0  0  0
 11 12  1  0  0  0  0
 11 13  1  0  0  0  0
 11 14  1  0  0  0  0
  9 10  1  0  0  0  0
  9 11  1  0  0  0  0
  9 24  1  0  0  0  0
  7  8  1  0  0  0  0
  7  9  1  0  0  0  0
 28 29  1  0  0  0  0
 28 30  1  0  0  0  0
 28 31  1  0  0  0  0
 26 27  1  0  0  0  0
 26 28  1  0  0  0  0
M  END
$$$$
default_name
  -OEChem-02102213163D

 31 30  0     1  0  0  0  0  0999 V2000
   -3.5895   -3.5013    1.1082 H   0  0  0  0  0  0  0  0  0  0  0  0
   -3.5145   -2.5363    0.6082 C   0  0  0  0  0  0  0  0  0  0  0  0
   -4.2285   -1.8413    1.0452 H   0  0  0  0  0  0  0  0  0  0  0  0
   -3.7155   -2.6583   -0.4538 H   0  0  0  0  0  0  0  0  0  0  0  0
   -2.1155   -1.9963    0.7922 C   0  0  0  0  0  0  0  0  0  0  0  0
   -1.2875   -2.6383    1.4252 O   0  0  0  0  0  0  0  0  0  0  0  0
   -1.8575   -0.8123    0.2402 N   0  0  0  0  0  0  0  0  0  0  0  0
   -2.6005   -0.3333   -0.2478 H   0  0  0  0  0  0  0  0  0  0  0  0
   -0.5675   -0.1203    0.3102 C   0  0  1  0  0  0  0  0  0  0  0  0
    0.1932   -0.7715   -0.1219 H   0  0  0  0  0  0  0  0  0  0  0  0
   -0.6568    1.1713   -0.5294 C   0  0  0  0  0  0  0  0  0  0  0  0
    0.0397    1.9040   -0.1171 H   0  0  0  0  0  0  0  0  0  0  0  0
   -0.3280    0.9373   -1.5444 H   0  0  0  0  0  0  0  0  0  0  0  0
   -2.0509    1.8193   -0.6148 C   0  0  0  0  0  0  0  0  0  0  0  0
   -1.9492    2.9006   -0.7069 H   0  0  0  0  0  0  0  0  0  0  0  0
   -2.8628    1.2926   -1.8016 C   0  0  0  0  0  0  0  0  0  0  0  0
   -2.9597    0.2083   -1.7322 H   0  0  0  0  0  0  0  0  0  0  0  0
   -3.8568    1.7405   -1.7942 H   0  0  0  0  0  0  0  0  0  0  0  0
   -2.3780    1.5466   -2.7418 H   0  0  0  0  0  0  0  0  0  0  0  0
   -2.8361    1.5250    0.6628 C   0  0  0  0  0  0  0  0  0  0  0  0
   -2.2959    1.9182    1.5240 H   0  0  0  0  0  0  0  0  0  0  0  0
   -3.8132    2.0059    0.6165 H   0  0  0  0  0  0  0  0  0  0  0  0
   -2.9697    0.4493    0.7823 H   0  0  0  0  0  0  0  0  0  0  0  0
   -0.1913    0.1554    1.7759 C   0  0  0  0  0  0  0  0  0  0  0  0
    0.9476   -0.0766    2.1748 O   0  0  0  0  0  0  0  0  0  0  0  0
   -1.1502    0.6393    2.5760 N   0  0  0  0  0  0  0  0  0  0  0  0
   -2.0581    0.8092    2.1736 H   0  0  0  0  0  0  0  0  0  0  0  0
   -0.9568    0.9369    3.9933 C   0  0  0  0  0  0  0  0  0  0  0  0
   -0.1600    1.6750    4.1097 H   0  0  0  0  0  0  0  0  0  0  0  0
   -1.8775    1.3307    4.4266 H   0  0  0  0  0  0  0  0  0  0  0  0
   -0.6678    0.0287    4.5244 H   0  0  0  0  0  0  0  0  0  0  0  0
  5  6  2  0  0  0  0
  5  7  1  0  0  0  0
  2  3  1  0  0  0  0
  2  4  1  0  0  0  0
  2  5  1  0  0  0  0
  1  2  1  0  0  0  0
 24 25  2  0  0  0  0
 24 26  1  0  0  0  0
 20 21  1  0  0  0  0
 20 22  1  0  0  0  0
 20 23  1  0  0  0  0
 16 17  1  0  0  0  0
 16 18  1  0  0  0  0
 16 19  1  0  0  0  0
 14 15  1  0  0  0  0
 14 16  1  0  0  0  0
 14 20  1  0  0  0  0
 11 12  1  0  0  0  0
 11 13  1  0  0  0  0
 11 14  1  0  0  0  0
  9 10  1  0  0  0  0
  9 11  1  0  0  0  0
  9 24  1  0  0  0  0
  7  8  1  0  0  0  0
  7  9  1  0  0  0  0
 28 29  1  0  0  0  0
 28 30  1  0  0  0  0
 28 31  1  0  0  0  0
 26 27  1  0  0  0  0
 26 28  1  0  0  0  0
M  END
$$$$
default_name
  -OEChem-02102213163D

 31 30  0     1  0  0  0  0  0999 V2000
   -3.5895   -3.5013    1.1082 H   0  0  0  0  0  0  0  0  0  0  0  0
   -3.5145   -2.5363    0.6082 C   0  0  0  0  0  0  0  0  0  0  0  0
   -4.2285   -1.8413    1.0452 H   0  0  0  0  0  0  0  0  0  0  0  0
   -3.7155   -2.6583   -0.4538 H   0  0  0  0  0  0  0  0  0  0  0  0
   -2.1155   -1.9963    0.7922 C   0  0  0  0  0  0  0  0  0  0  0  0
   -1.2875   -2.6383    1.4252 O   0  0  0  0  0  0  0  0  0  0  0  0
   -1.8575   -0.8123    0.2402 N   0  0  0  0  0  0  0  0  0  0  0  0
   -2.6005   -0.3333   -0.2478 H   0  0  0  0  0  0  0  0  0  0  0  0
   -0.5675   -0.1203    0.3102 C   0  0  1  0  0  0  0  0  0  0  0  0
    0.1932   -0.7715   -0.1219 H   0  0  0  0  0  0  0  0  0  0  0  0
   -0.6568    1.1713   -0.5294 C   0  0  0  0  0  0  0  0  0  0  0  0
    0.0397    1.9040   -0.1171 H   0  0  0  0  0  0  0  0  0  0  0  0
   -0.3280    0.9373   -1.5444 H   0  0  0  0  0  0  0  0  0  0  0  0
   -2.0509    1.8193   -0.6148 C   0  0  0  0  0  0  0  0  0  0  0  0
   -1.9586    2.8460   -0.9689 H   0  0  0  0  0  0  0  0  0  0  0  0
   -2.9899    1.0524   -1.5504 C   0  0  0  0  0  0  0  0  0  0  0  0
   -3.0799    0.0173   -1.2180 H   0  0  0  0  0  0  0  0  0  0  0  0
   -3.9763    1.5166   -1.5420 H   0  0  0  0  0  0  0  0  0  0  0  0
   -2.6117    1.0664   -2.5703 H   0  0  0  0  0  0  0  0  0  0  0  0
   -2.6903    1.8531    0.7728 C   0  0  0  0  0  0  0  0  0  0  0  0
   -2.0576    2.4216    1.4543 H   0  0  0  0  0  0  0  0  0  0  0  0
   -3.6659    2.3364    0.7198 H   0  0  0  0  0  0  0  0  0  0  0  0
   -2.8114    0.8391    1.1554 H   0  0  0  0  0  0  0  0  0  0  0  0
   -0.1913    0.1554    1.7759 C   0  0  0  0  0  0  0  0  0  0  0  0
    0.9476   -0.0766    2.1748 O   0  0  0  0  0  0  0  0  0  0  0  0
   -1.1502    0.6393    2.5760 N   0  0  0  0  0  0  0  0  0  0  0  0
   -2.0581    0.8092    2.1736 H   0  0  0  0  0  0  0  0  0  0  0  0
   -0.9568    0.9369    3.9933 C   0  0  0  0  0  0  0  0  0  0  0  0
   -0.1600    1.6750    4.1097 H   0  0  0  0  0  0  0  0  0  0  0  0
   -1.8775    1.3307    4.4266 H   0  0  0  0  0  0  0  0  0  0  0  0
   -0.6678    0.0287    4.5244 H   0  0  0  0  0  0  0  0  0  0  0  0
  5  6  2  0  0  0  0
  5  7  1  0  0  0  0
  2  3  1  0  0  0  0
  2  4  1  0  0  0  0
  2  5  1  0  0  0  0
  1  2  1  0  0  0  0
 24 25  2  0  0  0  0
 24 26  1  0  0  0  0
 20 21  1  0  0  0  0
 20 22  1  0  0  0  0
 20 23  1  0  0  0  0
 16 17  1  0  0  0  0
 16 18  1  0  0  0  0
 16 19  1  0  0  0  0
 14 15  1  0  0  0  0
 14 16  1  0  0  0  0
 14 20  1  0  0  0  0
 11 12  1  0  0  0  0
 11 13  1  0  0  0  0
 11 14  1  0  0  0  0
  9 10  1  0  0  0  0
  9 11  1  0  0  0  0
  9 24  1  0  0  0  0
  7  8  1  0  0  0  0
  7  9  1  0  0  0  0
 28 29  1  0  0  0  0
 28 30  1  0  0  0  0
 28 31  1  0  0  0  0
 26 27  1  0  0  0  0
 26 28  1  0  0  0  0
M  END
$$$$
default_name
  -OEChem-02102213163D

 31 30  0     1  0  0  0  0  0999 V2000
   -3.5895   -3.5013    1.1082 H   0  0  0  0  0  0  0  0  0  0  0  0
   -3.5145   -2.5363    0.6082 C   0  0  0  0  0  0  0  0  0  0  0  0
   -4.2285   -1.8413    1.0452 H   0  0  0  0  0  0  0  0  0  0  0  0
   -3.7155   -2.6583   -0.4538 H   0  0  0  0  0  0  0  0  0  0  0  0
   -2.1155   -1.9963    0.7922 C   0  0  0  0  0  0  0  0  0  0  0  0
   -1.2875   -2.6383    1.4252 O   0  0  0  0  0  0  0  0  0  0  0  0
   -1.8575   -0.8123    0.2402 N   0  0  0  0  0  0  0  0  0  0  0  0
   -2.6005   -0.3333   -0.2478 H   0  0  0  0  0  0  0  0  0  0  0  0
   -0.5675   -0.1203    0.3102 C   0  0  1  0  0  0  0  0  0  0  0  0
    0.1932   -0.7715   -0.1219 H   0  0  0  0  0  0  0  0  0  0  0  0
   -0.6568    1.1713   -0.5294 C   0  0  0  0  0  0  0  0  0  0  0  0
    0.0397    1.9040   -0.1171 H   0  0  0  0  0  0  0  0  0  0  0  0
   -0.3280    0.9373   -1.5444 H   0  0  0  0  0  0  0  0  0  0  0  0
   -2.0509    1.8193   -0.6148 C   0  0  0  0  0  0  0  0  0  0  0  0
   -1.9969    2.7320   -1.2082 H   0  0  0  0  0  0  0  0  0  0  0  0
   -3.0887    0.8810   -1.2376 C   0  0  0  0  0  0  0  0  0  0  0  0
   -3.1428   -0.0449   -0.6635 H   0  0  0  0  0  0  0  0  0  0  0  0
   -4.0674    1.3612   -1.2329 H   0  0  0  0  0  0  0  0  0  0  0  0
   -2.8256    0.6462   -2.2668 H   0  0  0  0  0  0  0  0  0  0  0  0
   -2.5328    2.1937    0.7863 C   0  0  0  0  0  0  0  0  0  0  0  0
   -1.8278    2.8882    1.2431 H   0  0  0  0  0  0  0  0  0  0  0  0
   -3.5076    2.6778    0.7260 H   0  0  0  0  0  0  0  0  0  0  0  0
   -2.6122    1.3008    1.4073 H   0  0  0  0  0  0  0  0  0  0  0  0
   -0.1913    0.1554    1.7759 C   0  0  0  0  0  0  0  0  0  0  0  0
    0.9476   -0.0766    2.1748 O   0  0  0  0  0  0  0  0  0  0  0  0
   -1.1502    0.6393    2.5760 N   0  0  0  0  0  0  0  0  0  0  0  0
   -2.0581    0.8092    2.1736 H   0  0  0  0  0  0  0  0  0  0  0  0
   -0.9568    0.9369    3.9933 C   0  0  0  0  0  0  0  0  0  0  0  0
   -0.1600    1.6750    4.1097 H   0  0  0  0  0  0  0  0  0  0  0  0
   -1.8775    1.3307    4.4266 H   0  0  0  0  0  0  0  0  0  0  0  0
   -0.6678    0.0287    4.5244 H   0  0  0  0  0  0  0  0  0  0  0  0
  5  6  2  0  0  0  0
  5  7  1  0  0  0  0
  2  3  1  0  0  0  0
  2  4  1  0  0  0  0
  2  5  1  0  0  0  0
  1  2  1  0  0  0  0
 24 25  2  0  0  0  0
 24 26  1  0  0  0  0
 20 21  1  0  0  0  0
 20 22  1  0  0  0  0
 20 23  1  0  0  0  0
 16 17  1  0  0  0  0
 16 18  1  0  0  0  0
 16 19  1  0  0  0  0
 14 15  1  0  0  0  0
 14 16  1  0  0  0  0
 14 20  1  0  0  0  0
 11 12  1  0  0  0  0
 11 13  1  0  0  0  0
 11 14  1  0  0  0  0
  9 10  1  0  0  0  0
  9 11  1  0  0  0  0
  9 24  1  0  0  0  0
  7  8  1  0  0  0  0
  7  9  1  0  0  0  0
 28 29  1  0  0  0  0
 28 30  1  0  0  0  0
 28 31  1  0  0  0  0
 26 27  1  0  0  0  0
 26 28  1  0  0  0  0
M  END
$$$$
default_name
  -OEChem-02102213163D

 31 30  0     1  0  0  0  0  0999 V2000
   -3.5895   -3.5013    1.1082 H   0  0  0  0  0  0  0  0  0  0  0  0
   -3.5145   -2.5363    0.6082 C   0  0  0  0  0  0  0  0  0  0  0  0
   -4.2285   -1.8413    1.0452 H   0  0  0  0  0  0  0  0  0  0  0  0
   -3.7155   -2.6583   -0.4538 H   0  0  0  0  0  0  0  0  0  0  0  0
   -2.1155   -1.9963    0.7922 C   0  0  0  0  0  0  0  0  0  0  0  0
   -1.2875   -2.6383    1.4252 O   0  0  0  0  0  0  0  0  0  0  0  0
   -1.8575   -0.8123    0.2402 N   0  0  0  0  0  0  0  0  0  0  0  0
   -2.6005   -0.3333   -0.2478 H   0  0  0  0  0  0  0  0  0  0  0  0
   -0.5675   -0.1203    0.3102 C   0  0  1  0  0  0  0  0  0  0  0  0
    0.1932   -0.7715   -0.1219 H   0  0  0  0  0  0  0  0  0  0  0  0
   -0.6568    1.1713   -0.5294 C   0  0  0  0  0  0  0  0  0  0  0  0
    0.0397    1.9040   -0.1171 H   0  0  0  0  0  0  0  0  0  0  0  0
   -0.3280    0.9373   -1.5444 H   0  0  0  0  0  0  0  0  0  0  0  0
   -2.0509    1.8193   -0.6148 C   0  0  0  0  0  0  0  0  0  0  0  0
   -2.0616    2.5664   -1.4085 H   0  0  0  0  0  0  0  0  0  0  0  0
   -3.1525    0.7902   -0.8846 C   0  0  0  0  0  0  0  0  0  0  0  0
   -3.1440    0.0258   -0.1064 H   0  0  0  0  0  0  0  0  0  0  0  0
   -4.1241    1.2848   -0.8880 H   0  0  0  0  0  0  0  0  0  0  0  0
   -3.0052    0.3144   -1.8517 H   0  0  0  0  0  0  0  0  0  0  0  0
   -2.3743    2.5236    0.7023 C   0  0  0  0  0  0  0  0  0  0  0  0
   -1.6222    3.2860    0.9048 H   0  0  0  0  0  0  0  0  0  0  0  0
   -3.3491    3.0066    0.6347 H   0  0  0  0  0  0  0  0  0  0  0  0
   -2.3857    1.8030    1.5207 H   0  0  0  0  0  0  0  0  0  0  0  0
   -0.1913    0.1554    1.7759 C   0  0  0  0  0  0  0  0  0  0  0  0
    0.9476   -0.0766    2.1748 O   0  0  0  0  0  0  0  0  0  0  0  0
   -1.1502    0.6393    2.5760 N   0  0  0  0  0  0  0  0  0  0  0  0
   -2.0581    0.8092    2.1736 H   0  0  0  0  0  0  0  0  0  0  0  0
   -0.9568    0.9369    3.9933 C   0  0  0  0  0  0  0  0  0  0  0  0
   -0.1600    1.6750    4.1097 H   0  0  0  0  0  0  0  0  0  0  0  0
   -1.8775    1.3307    4.4266 H   0  0  0  0  0  0  0  0  0  0  0  0
   -0.6678    0.0287    4.5244 H   0  0  0  0  0  0  0  0  0  0  0  0
  5  6  2  0  0  0  0
  5  7  1  0  0  0  0
  2  3  1  0  0  0  0
  2  4  1  0  0  0  0
  2  5  1  0  0  0  0
  1  2  1  0  0  0  0
 24 25  2  0  0  0  0
 24 26  1  0  0  0  0
 20 21  1  0  0  0  0
 20 22  1  0  0  0  0
 20 23  1  0  0  0  0
 16 17  1  0  0  0  0
 16 18  1  0  0  0  0
 16 19  1  0  0  0  0
 14 15  1  0  0  0  0
 14 16  1  0  0  0  0
 14 20  1  0  0  0  0
 11 12  1  0  0  0  0
 11 13  1  0  0  0  0
 11 14  1  0  0  0  0
  9 10  1  0  0  0  0
  9 11  1  0  0  0  0
  9 24  1  0  0  0  0
  7  8  1  0  0  0  0
  7  9  1  0  0  0  0
 28 29  1  0  0  0  0
 28 30  1  0  0  0  0
 28 31  1  0  0  0  0
 26 27  1  0  0  0  0
 26 28  1  0  0  0  0
M  END
$$$$
default_name
  -OEChem-02102213163D

 31 30  0     1  0  0  0  0  0999 V2000
   -3.5895   -3.5013    1.1082 H   0  0  0  0  0  0  0  0  0  0  0  0
   -3.5145   -2.5363    0.6082 C   0  0  0  0  0  0  0  0  0  0  0  0
   -4.2285   -1.8413    1.0452 H   0  0  0  0  0  0  0  0  0  0  0  0
   -3.7155   -2.6583   -0.4538 H   0  0  0  0  0  0  0  0  0  0  0  0
   -2.1155   -1.9963    0.7922 C   0  0  0  0  0  0  0  0  0  0  0  0
   -1.2875   -2.6383    1.4252 O   0  0  0  0  0  0  0  0  0  0  0  0
   -1.8575   -0.8123    0.2402 N   0  0  0  0  0  0  0  0  0  0  0  0
   -2.6005   -0.3333   -0.2478 H   0  0  0  0  0  0  0  0  0  0  0  0
   -0.5675   -0.1203    0.3102 C   0  0  1  0  0  0  0  0  0  0  0  0
    0.1932   -0.7715   -0.1219 H   0  0  0  0  0  0  0  0  0  0  0  0
   -0.6568    1.1713   -0.5294 C   0  0  0  0  0  0  0  0  0  0  0  0
    0.0397    1.9040   -0.1171 H   0  0  0  0  0  0  0  0  0  0  0  0
   -0.3280    0.9373   -1.5444 H   0  0  0  0  0  0  0  0  0  0  0  0
   -2.0509    1.8193   -0.6148 C   0  0  0  0  0  0  0  0  0  0  0  0
   -2.1483    2.3604   -1.5560 H   0  0  0  0  0  0  0  0  0  0  0  0
   -3.1770    0.7862   -0.5154 C   0  0  0  0  0  0  0  0  0  0  0  0
   -3.0835    0.2247    0.4152 H   0  0  0  0  0  0  0  0  0  0  0  0
   -4.1423    1.2927   -0.5307 H   0  0  0  0  0  0  0  0  0  0  0  0
   -3.1382    0.0938   -1.3535 H   0  0  0  0  0  0  0  0  0  0  0  0
   -2.2257    2.8203    0.5266 C   0  0  0  0  0  0  0  0  0  0  0  0
   -1.4547    3.5881    0.4623 H   0  0  0  0  0  0  0  0  0  0  0  0
   -3.2013    3.3007    0.4523 H   0  0  0  0  0  0  0  0  0  0  0  0
   -2.1474    2.3113    1.4879 H   0  0  0  0  0  0  0  0  0  0  0  0
   -0.1913    0.1554    1.7759 C   0  0  0  0  0  0  0  0  0  0  0  0
    0.9476   -0.0766    2.1748 O   0  0  0  0  0  0  0  0  0  0  0  0
   -1.1502    0.6393    2.5760 N   0  0  0  0  0  0  0  0  0  0  0  0
   -2.0581    0.8092    2.1736 H   0  0  0  0  0  0  0  0  0  0  0  0
   -0.9568    0.9369    3.9933 C   0  0  0  0  0  0  0  0  0  0  0  0
   -0.1600    1.6750    4.1097 H   0  0  0  0  0  0  0  0  0  0  0  0
   -1.8775    1.3307    4.4266 H   0  0  0  0  0  0  0  0  0  0  0  0
   -0.6678    0.0287    4.5244 H   0  0  0  0  0  0  0  0  0  0  0  0
  5  6  2  0  0  0  0
  5  7  1  0  0  0  0
  2  3  1  0  0  0  0
  2  4  1  0  0  0  0
  2  5  1  0  0  0  0
  1  2  1  0  0  0  0
 24 25  2  0  0  0  0
 24 26  1  0  0  0  0
 20 21  1  0  0  0  0
 20 22  1  0  0  0  0
 20 23  1  0  0  0  0
 16 17  1  0  0  0  0
 16 18  1  0  0  0  0
 16 19  1  0  0  0  0
 14 15  1  0  0  0  0
 14 16  1  0  0  0  0
 14 20  1  0  0  0  0
 11 12  1  0  0  0  0
 11 13  1  0  0  0  0
 11 14  1  0  0  0  0
  9 10  1  0  0  0  0
  9 11  1  0  0  0  0
  9 24  1  0  0  0  0
  7  8  1  0  0  0  0
  7  9  1  0  0  0  0
 28 29  1  0  0  0  0
 28 30  1  0  0  0  0
 28 31  1  0  0  0  0
 26 27  1  0  0  0  0
 26 28  1  0  0  0  0
M  END
$$$$
default_name
  -OEChem-02102213163D

 31 30  0     1  0  0  0  0  0999 V2000
   -3.5895   -3.5013    1.1082 H   0  0  0  0  0  0  0  0  0  0  0  0
   -3.5145   -2.5363    0.6082 C   0  0  0  0  0  0  0  0  0  0  0  0
   -4.2285   -1.8413    1.0452 H   0  0  0  0  0  0  0  0  0  0  0  0
   -3.7155   -2.6583   -0.4538 H   0  0  0  0  0  0  0  0  0  0  0  0
   -2.1155   -1.9963    0.7922 C   0  0  0  0  0  0  0  0  0  0  0  0
   -1.2875   -2.6383    1.4252 O   0  0  0  0  0  0  0  0  0  0  0  0
   -1.8575   -0.8123    0.2402 N   0  0  0  0  0  0  0  0  0  0  0  0
   -2.6005   -0.3333   -0.2478 H   0  0  0  0  0  0  0  0  0  0  0  0
   -0.5675   -0.1203    0.3102 C   0  0  1  0  0  0  0  0  0  0  0  0
    0.1932   -0.7715   -0.1219 H   0  0  0  0  0  0  0  0  0  0  0  0
   -0.6568    1.1713   -0.5294 C   0  0  0  0  0  0  0  0  0  0  0  0
    0.0397    1.9040   -0.1171 H   0  0  0  0  0  0  0  0  0  0  0  0
   -0.3280    0.9373   -1.5444 H   0  0  0  0  0  0  0  0  0  0  0  0
   -2.0509    1.8193   -0.6148 C   0  0  0  0  0  0  0  0  0  0  0  0
   -2.2511    2.1280   -1.6408 H   0  0  0  0  0  0  0  0  0  0  0  0
   -3.1605    0.8692   -0.1551 C   0  0  0  0  0  0  0  0  0  0  0  0
   -2.9654    0.5382    0.8659 H   0  0  0  0  0  0  0  0  0  0  0  0
   -4.1209    1.3842   -0.1855 H   0  0  0  0  0  0  0  0  0  0  0  0
   -3.2156   -0.0006   -0.8061 H   0  0  0  0  0  0  0  0  0  0  0  0
   -2.0970    3.0636    0.2712 C   0  0  0  0  0  0  0  0  0  0  0  0
   -1.3368    3.7737   -0.0541 H   0  0  0  0  0  0  0  0  0  0  0  0
   -3.0742    3.5398    0.1911 H   0  0  0  0  0  0  0  0  0  0  0  0
   -1.9135    2.7913    1.3112 H   0  0  0  0  0  0  0  0  0  0  0  0
   -0.1913    0.1554    1.7759 C   0  0  0  0  0  0  0  0  0  0  0  0
    0.9476   -0.0766    2.1748 O   0  0  0  0  0  0  0  0  0  0  0  0
   -1.1502    0.6393    2.5760 N   0  0  0  0  0  0  0  0  0  0  0  0
   -2.0581    0.8092    2.1736 H   0  0  0  0  0  0  0  0  0  0  0  0
   -0.9568    0.9369    3.9933 C   0  0  0  0  0  0  0  0  0  0  0  0
   -0.1600    1.6750    4.1097 H   0  0  0  0  0  0  0  0  0  0  0  0
   -1.8775    1.3307    4.4266 H   0  0  0  0  0  0  0  0  0  0  0  0
   -0.6678    0.0287    4.5244 H   0  0  0  0  0  0  0  0  0  0  0  0
  5  6  2  0  0  0  0
  5  7  1  0  0  0  0
  2  3  1  0  0  0  0
  2  4  1  0  0  0  0
  2  5  1  0  0  0  0
  1  2  1  0  0  0  0
 24 25  2  0  0  0  0
 24 26  1  0  0  0  0
 20 21  1  0  0  0  0
 20 22  1  0  0  0  0
 20 23  1  0  0  0  0
 16 17  1  0  0  0  0
 16 18  1  0  0  0  0
 16 19  1  0  0  0  0
 14 15  1  0  0  0  0
 14 16  1  0  0  0  0
 14 20  1  0  0  0  0
 11 12  1  0  0  0  0
 11 13  1  0  0  0  0
 11 14  1  0  0  0  0
  9 10  1  0  0  0  0
  9 11  1  0  0  0  0
  9 24  1  0  0  0  0
  7  8  1  0  0  0  0
  7  9  1  0  0  0  0
 28 29  1  0  0  0  0
 28 30  1  0  0  0  0
 28 31  1  0  0  0  0
 26 27  1  0  0  0  0
 26 28  1  0  0  0  0
M  END
$$$$
default_name
  -OEChem-02102213163D

 31 30  0     1  0  0  0  0  0999 V2000
   -3.5895   -3.5013    1.1082 H   0  0  0  0  0  0  0  0  0  0  0  0
   -3.5145   -2.5363    0.6082 C   0  0  0  0  0  0  0  0  0  0  0  0
   -4.2285   -1.8413    1.0452 H   0  0  0  0  0  0  0  0  0  0  0  0
   -3.7155   -2.6583   -0.4538 H   0  0  0  0  0  0  0  0  0  0  0  0
   -2.1155   -1.9963    0.7922 C   0  0  0  0  0  0  0  0  0  0  0  0
   -1.2875   -2.6383    1.4252 O   0  0  0  0  0  0  0  0  0  0  0  0
   -1.8575   -0.8123    0.2402 N   0  0  0  0  0  0  0  0  0  0  0  0
   -2.6005   -0.3333   -0.2478 H   0  0  0  0  0  0  0  0  0  0  0  0
   -0.5675   -0.1203    0.3102 C   0  0  1  0  0  0  0  0  0  0  0  0
    0.1932   -0.7715   -0.1219 H   0  0  0  0  0  0  0  0  0  0  0  0
   -0.6568    1.1713   -0.5294 C   0  0  0  0  0  0  0  0  0  0  0  0
    0.0397    1.9040   -0.1171 H   0  0  0  0  0  0  0  0  0  0  0  0
   -0.3280    0.9373   -1.5444 H   0  0  0  0  0  0  0  0  0  0  0  0
   -2.0509    1.8193   -0.6148 C   0  0  0  0  0  0  0  0  0  0  0  0
   -2.3630    1.8852   -1.6571 H   0  0  0  0  0  0  0  0  0  0  0  0
   -3.1041    1.0335    0.1717 C   0  0  0  0  0  0  0  0  0  0  0  0
   -2.7977    0.9449    1.2149 H   0  0  0  0  0  0  0  0  0  0  0  0
   -4.0613    1.5533    0.1241 H   0  0  0  0  0  0  0  0  0  0  0  0
   -3.2322    0.0376   -0.2468 H   0  0  0  0  0  0  0  0  0  0  0  0
   -1.9970    3.2369   -0.0465 C   0  0  0  0  0  0  0  0  0  0  0  0
   -1.2765    3.8304   -0.6093 H   0  0  0  0  0  0  0  0  0  0  0  0
   -2.9764    3.7077   -0.1312 H   0  0  0  0  0  0  0  0  0  0  0  0
   -1.7000    3.2101    1.0025 H   0  0  0  0  0  0  0  0  0  0  0  0
   -0.1913    0.1554    1.7759 C   0  0  0  0  0  0  0  0  0  0  0  0
    0.9476   -0.0766    2.1748 O   0  0  0  0  0  0  0  0  0  0  0  0
   -1.1502    0.6393    2.5760 N   0  0  0  0  0  0  0  0  0  0  0  0
   -2.0581    0.8092    2.1736 H   0  0  0  0  0  0  0  0  0  0  0  0
   -0.9568    0.9369    3.9933 C   0  0  0  0  0  0  0  0  0  0  0  0
   -0.1600    1.6750    4.1097 H   0  0  0  0  0  0  0  0  0  0  0  0
   -1.8775    1.3307    4.4266 H   0  0  0  0  0  0  0  0  0  0  0  0
   -0.6678    0.0287    4.5244 H   0  0  0  0  0  0  0  0  0  0  0  0
  5  6  2  0  0  0  0
  5  7  1  0  0  0  0
  2  3  1  0  0  0  0
  2  4  1  0  0  0  0
  2  5  1  0  0  0  0
  1  2  1  0  0  0  0
 24 25  2  0  0  0  0
 24 26  1  0  0  0  0
 20 21  1  0  0  0  0
 20 22  1  0  0  0  0
 20 23  1  0  0  0  0
 16 17  1  0  0  0  0
 16 18  1  0  0  0  0
 16 19  1  0  0  0  0
 14 15  1  0  0  0  0
 14 16  1  0  0  0  0
 14 20  1  0  0  0  0
 11 12  1  0  0  0  0
 11 13  1  0  0  0  0
 11 14  1  0  0  0  0
  9 10  1  0  0  0  0
  9 11  1  0  0  0  0
  9 24  1  0  0  0  0
  7  8  1  0  0  0  0
  7  9  1  0  0  0  0
 28 29  1  0  0  0  0
 28 30  1  0  0  0  0
 28 31  1  0  0  0  0
 26 27  1  0  0  0  0
 26 28  1  0  0  0  0
M  END
$$$$
default_name
  -OEChem-02102213163D

 31 30  0     1  0  0  0  0  0999 V2000
   -3.5895   -3.5013    1.1082 H   0  0  0  0  0  0  0  0  0  0  0  0
   -3.5145   -2.5363    0.6082 C   0  0  0  0  0  0  0  0  0  0  0  0
   -4.2285   -1.8413    1.0452 H   0  0  0  0  0  0  0  0  0  0  0  0
   -3.7155   -2.6583   -0.4538 H   0  0  0  0  0  0  0  0  0  0  0  0
   -2.1155   -1.9963    0.7922 C   0  0  0  0  0  0  0  0  0  0  0  0
   -1.2875   -2.6383    1.4252 O   0  0  0  0  0  0  0  0  0  0  0  0
   -1.8575   -0.8123    0.2402 N   0  0  0  0  0  0  0  0  0  0  0  0
   -2.6005   -0.3333   -0.2478 H   0  0  0  0  0  0  0  0  0  0  0  0
   -0.5675   -0.1203    0.3102 C   0  0  1  0  0  0  0  0  0  0  0  0
    0.1932   -0.7715   -0.1219 H   0  0  0  0  0  0  0  0  0  0  0  0
   -0.6568    1.1713   -0.5294 C   0  0  0  0  0  0  0  0  0  0  0  0
    0.0397    1.9040   -0.1171 H   0  0  0  0  0  0  0  0  0  0  0  0
   -0.3280    0.9373   -1.5444 H   0  0  0  0  0  0  0  0  0  0  0  0
   -2.0509    1.8193   -0.6148 C   0  0  0  0  0  0  0  0  0  0  0  0
   -2.4763    1.6485   -1.6037 H   0  0  0  0  0  0  0  0  0  0  0  0
   -3.0117    1.2680    0.4427 C   0  0  0  0  0  0  0  0  0  0  0  0
   -2.5919    1.4172    1.4384 H   0  0  0  0  0  0  0  0  0  0  0  0
   -3.9675    1.7883    0.3771 H   0  0  0  0  0  0  0  0  0  0  0  0
   -3.1866    0.2057    0.2863 H   0  0  0  0  0  0  0  0  0  0  0  0
   -1.9325    3.3284   -0.4050 C   0  0  0  0  0  0  0  0  0  0  0  0
   -1.2779    3.7541   -1.1654 H   0  0  0  0  0  0  0  0  0  0  0  0
   -2.9146    3.7930   -0.4924 H   0  0  0  0  0  0  0  0  0  0  0  0
   -1.5213    3.5392    0.5829 H   0  0  0  0  0  0  0  0  0  0  0  0
   -0.1913    0.1554    1.7759 C   0  0  0  0  0  0  0  0  0  0  0  0
    0.9476   -0.0766    2.1748 O   0  0  0  0  0  0  0  0  0  0  0  0
   -1.1502    0.6393    2.5760 N   0  0  0  0  0  0  0  0  0  0  0  0
   -2.0581    0.8092    2.1736 H   0  0  0  0  0  0  0  0  0  0  0  0
   -0.9568    0.9369    3.9933 C   0  0  0  0  0  0  0  0  0  0  0  0
   -0.1600    1.6750    4.1097 H   0  0  0  0  0  0  0  0  0  0  0  0
   -1.8775    1.3307    4.4266 H   0  0  0  0  0  0  0  0  0  0  0  0
   -0.6678    0.0287    4.5244 H   0  0  0  0  0  0  0  0  0  0  0  0
  5  6  2  0  0  0  0
  5  7  1  0  0  0  0
  2  3  1  0  0  0  0
  2  4  1  0  0  0  0
  2  5  1  0  0  0  0
  1  2  1  0  0  0  0
 24 25  2  0  0  0  0
 24 26  1  0  0  0  0
 20 21  1  0  0  0  0
 20 22  1  0  0  0  0
 20 23  1  0  0  0  0
 16 17  1  0  0  0  0
 16 18  1  0  0  0  0
 16 19  1  0  0  0  0
 14 15  1  0  0  0  0
 14 16  1  0  0  0  0
 14 20  1  0  0  0  0
 11 12  1  0  0  0  0
 11 13  1  0  0  0  0
 11 14  1  0  0  0  0
  9 10  1  0  0  0  0
  9 11  1  0  0  0  0
  9 24  1  0  0  0  0
  7  8  1  0  0  0  0
  7  9  1  0  0  0  0
 28 29  1  0  0  0  0
 28 30  1  0  0  0  0
 28 31  1  0  0  0  0
 26 27  1  0  0  0  0
 26 28  1  0  0  0  0
M  END
$$$$
default_name
  -OEChem-02102213163D

 31 30  0     1  0  0  0  0  0999 V2000
   -3.5895   -3.5013    1.1082 H   0  0  0  0  0  0  0  0  0  0  0  0
   -3.5145   -2.5363    0.6082 C   0  0  0  0  0  0  0  0  0  0  0  0
   -4.2285   -1.8413    1.0452 H   0  0  0  0  0  0  0  0  0  0  0  0
   -3.7155   -2.6583   -0.4538 H   0  0  0  0  0  0  0  0  0  0  0  0
   -2.1155   -1.9963    0.7922 C   0  0  0  0  0  0  0  0  0  0  0  0
   -1.2875   -2.6383    1.4252 O   0  0  0  0  0  0  0  0  0  0  0  0
   -1.8575   -0.8123    0.2402 N   0  0  0  0  0  0  0  0  0  0  0  0
   -2.6005   -0.3333   -0.2478 H   0  0  0  0  0  0  0  0  0  0  0  0
   -0.5675   -0.1203    0.3102 C   0  0  1  0  0  0  0  0  0  0  0  0
    0.1932   -0.7715   -0.1219 H   0  0  0  0  0  0  0  0  0  0  0  0
   -0.6568    1.1713   -0.5294 C   0  0  0  0  0  0  0  0  0  0  0  0
    0.0397    1.9040   -0.1171 H   0  0  0  0  0  0  0  0  0  0  0  0
   -0.3280    0.9373   -1.5444 H   0  0  0  0  0  0  0  0  0  0  0  0
   -2.0509    1.8193   -0.6148 C   0  0  0  0  0  0  0  0  0  0  0  0
   -2.5833    1.4339   -1.4844 H   0  0  0  0  0  0  0  0  0  0  0  0
   -2.8895    1.5567    0.6394 C   0  0  0  0  0  0  0  0  0  0  0  0
   -2.3620    1.9228    1.5212 H   0  0  0  0  0  0  0  0  0  0  0  0
   -3.8461    2.0732    0.5562 H   0  0  0  0  0  0  0  0  0  0  0  0
   -3.0822    0.4925    0.7568 H   0  0  0  0  0  0  0  0  0  0  0  0
   -1.9079    3.3318   -0.7796 C   0  0  0  0  0  0  0  0  0  0  0  0
   -1.3409    3.5501   -1.6845 H   0  0  0  0  0  0  0  0  0  0  0  0
   -2.8931    3.7899   -0.8681 H   0  0  0  0  0  0  0  0  0  0  0  0
   -1.3897    3.7562    0.0810 H   0  0  0  0  0  0  0  0  0  0  0  0
   -0.1913    0.1554    1.7759 C   0  0  0  0  0  0  0  0  0  0  0  0
    0.9476   -0.0766    2.1748 O   0  0  0  0  0  0  0  0  0  0  0  0
   -1.1502    0.6393    2.5760 N   0  0  0  0  0  0  0  0  0  0  0  0
   -2.0581    0.8092    2.1736 H   0  0  0  0  0  0  0  0  0  0  0  0
   -0.9568    0.9369    3.9933 C   0  0  0  0  0  0  0  0  0  0  0  0
   -0.1600    1.6750    4.1097 H   0  0  0  0  0  0  0  0  0  0  0  0
   -1.8775    1.3307    4.4266 H   0  0  0  0  0  0  0  0  0  0  0  0
   -0.6678    0.0287    4.5244 H   0  0  0  0  0  0  0  0  0  0  0  0
  5  6  2  0  0  0  0
  5  7  1  0  0  0  0
  2  3  1  0  0  0  0
  2  4  1  0  0  0  0
  2  5  1  0  0  0  0
  1  2  1  0  0  0  0
 24 25  2  0  0  0  0
 24 26  1  0  0  0  0
 20 21  1  0  0  0  0
 20 22  1  0  0  0  0
 20 23  1  0  0  0  0
 16 17  1  0  0  0  0
 16 18  1  0  0  0  0
 16 19  1  0  0  0  0
 14 15  1  0  0  0  0
 14 16  1  0  0  0  0
 14 20  1  0  0  0  0
 11 12  1  0  0  0  0
 11 13  1  0  0  0  0
 11 14  1  0  0  0  0
  9 10  1  0  0  0  0
  9 11  1  0  0  0  0
  9 24  1  0  0  0  0
  7  8  1  0  0  0  0
  7  9  1  0  0  0  0
 28 29  1  0  0  0  0
 28 30  1  0  0  0  0
 28 31  1  0  0  0  0
 26 27  1  0  0  0  0
 26 28  1  0  0  0  0
M  END
$$$$
default_name
  -OEChem-02102213163D

 31 30  0     1  0  0  0  0  0999 V2000
   -3.5895   -3.5013    1.1082 H   0  0  0  0  0  0  0  0  0  0  0  0
   -3.5145   -2.5363    0.6082 C   0  0  0  0  0  0  0  0  0  0  0  0
   -4.2285   -1.8413    1.0452 H   0  0  0  0  0  0  0  0  0  0  0  0
   -3.7155   -2.6583   -0.4538 H   0  0  0  0  0  0  0  0  0  0  0  0
   -2.1155   -1.9963    0.7922 C   0  0  0  0  0  0  0  0  0  0  0  0
   -1.2875   -2.6383    1.4252 O   0  0  0  0  0  0  0  0  0  0  0  0
   -1.8575   -0.8123    0.2402 N   0  0  0  0  0  0  0  0  0  0  0  0
   -2.6005   -0.3333   -0.2478 H   0  0  0  0  0  0  0  0  0  0  0  0
   -0.5675   -0.1203    0.3102 C   0  0  1  0  0  0  0  0  0  0  0  0
    0.1932   -0.7715   -0.1219 H   0  0  0  0  0  0  0  0  0  0  0  0
   -0.6568    1.1713   -0.5294 C   0  0  0  0  0  0  0  0  0  0  0  0
    0.0397    1.9040   -0.1171 H   0  0  0  0  0  0  0  0  0  0  0  0
   -0.3280    0.9373   -1.5444 H   0  0  0  0  0  0  0  0  0  0  0  0
   -2.0509    1.8193   -0.6148 C   0  0  0  0  0  0  0  0  0  0  0  0
   -2.6768    1.2562   -1.3071 H   0  0  0  0  0  0  0  0  0  0  0  0
   -2.7460    1.8799    0.7484 C   0  0  0  0  0  0  0  0  0  0  0  0
   -2.1236    2.4272    1.4577 H   0  0  0  0  0  0  0  0  0  0  0  0
   -3.7052    2.3886    0.6492 H   0  0  0  0  0  0  0  0  0  0  0  0
   -2.9259    0.8782    1.1328 H   0  0  0  0  0  0  0  0  0  0  0  0
   -1.9250    3.2470   -1.1450 C   0  0  0  0  0  0  0  0  0  0  0  0
   -1.4612    3.2324   -2.1313 H   0  0  0  0  0  0  0  0  0  0  0  0
   -2.9132    3.6985   -1.2325 H   0  0  0  0  0  0  0  0  0  0  0  0
   -1.3142    3.8463   -0.4689 H   0  0  0  0  0  0  0  0  0  0  0  0
   -0.1913    0.1554    1.7759 C   0  0  0  0  0  0  0  0  0  0  0  0
    0.9476   -0.0766    2.1748 O   0  0  0  0  0  0  0  0  0  0  0  0
   -1.1502    0.6393    2.5760 N   0  0  0  0  0  0  0  0  0  0  0  0
   -2.0581    0.8092    2.1736 H   0  0  0  0  0  0  0  0  0  0  0  0
   -0.9568    0.9369    3.9933 C   0  0  0  0  0  0  0  0  0  0  0  0
   -0.1600    1.6750    4.1097 H   0  0  0  0  0  0  0  0  0  0  0  0
   -1.8775    1.3307    4.4266 H   0  0  0  0  0  0  0  0  0  0  0  0
   -0.6678    0.0287    4.5244 H   0  0  0  0  0  0  0  0  0  0  0  0
  5  6  2  0  0  0  0
  5  7  1  0  0  0  0
  2  3  1  0  0  0  0
  2  4  1  0  0  0  0
  2  5  1  0  0  0  0
  1  2  1  0  0  0  0
 24 25  2  0  0  0  0
 24 26  1  0  0  0  0
 20 21  1  0  0  0  0
 20 22  1  0  0  0  0
 20 23  1  0  0  0  0
 16 17  1  0  0  0  0
 16 18  1  0  0  0  0
 16 19  1  0  0  0  0
 14 15  1  0  0  0  0
 14 16  1  0  0  0  0
 14 20  1  0  0  0  0
 11 12  1  0  0  0  0
 11 13  1  0  0  0  0
 11 14  1  0  0  0  0
  9 10  1  0  0  0  0
  9 11  1  0  0  0  0
  9 24  1  0  0  0  0
  7  8  1  0  0  0  0
  7  9  1  0  0  0  0
 28 29  1  0  0  0  0
 28 30  1  0  0  0  0
 28 31  1  0  0  0  0
 26 27  1  0  0  0  0
 26 28  1  0  0  0  0
M  END
$$$$
default_name
  -OEChem-02102213163D

 31 30  0     1  0  0  0  0  0999 V2000
   -3.5895   -3.5013    1.1082 H   0  0  0  0  0  0  0  0  0  0  0  0
   -3.5145   -2.5363    0.6082 C   0  0  0  0  0  0  0  0  0  0  0  0
   -4.2285   -1.8413    1.0452 H   0  0  0  0  0  0  0  0  0  0  0  0
   -3.7155   -2.6583   -0.4538 H   0  0  0  0  0  0  0  0  0  0  0  0
   -2.1155   -1.9963    0.7922 C   0  0  0  0  0  0  0  0  0  0  0  0
   -1.2875   -2.6383    1.4252 O   0  0  0  0  0  0  0  0  0  0  0  0
   -1.8575   -0.8123    0.2402 N   0  0  0  0  0  0  0  0  0  0  0  0
   -2.6005   -0.3333   -0.2478 H   0  0  0  0  0  0  0  0  0  0  0  0
   -0.5675   -0.1203    0.3102 C   0  0  1  0  0  0  0  0  0  0  0  0
    0.1932   -0.7715   -0.1219 H   0  0  0  0  0  0  0  0  0  0  0  0
   -0.6568    1.1713   -0.5294 C   0  0  0  0  0  0  0  0  0  0  0  0
    0.0397    1.9040   -0.1171 H   0  0  0  0  0  0  0  0  0  0  0  0
   -0.3280    0.9373   -1.5444 H   0  0  0  0  0  0  0  0  0  0  0  0
   -2.0509    1.8193   -0.6148 C   0  0  0  0  0  0  0  0  0  0  0  0
   -2.7503    1.1274   -1.0841 H   0  0  0  0  0  0  0  0  0  0  0  0
   -2.5908    2.2156    0.7624 C   0  0  0  0  0  0  0  0  0  0  0  0
   -1.8931    2.8962    1.2521 H   0  0  0  0  0  0  0  0  0  0  0  0
   -3.5544    2.7131    0.6497 H   0  0  0  0  0  0  0  0  0  0  0  0
   -2.7285    1.3367    1.3885 H   0  0  0  0  0  0  0  0  0  0  0  0
   -1.9825    3.0797   -1.4762 C   0  0  0  0  0  0  0  0  0  0  0  0
   -1.6307    2.8225   -2.4752 H   0  0  0  0  0  0  0  0  0  0  0  0
   -2.9737    3.5251   -1.5610 H   0  0  0  0  0  0  0  0  0  0  0  0
   -1.2998    3.8034   -1.0295 H   0  0  0  0  0  0  0  0  0  0  0  0
   -0.1913    0.1554    1.7759 C   0  0  0  0  0  0  0  0  0  0  0  0
    0.9476   -0.0766    2.1748 O   0  0  0  0  0  0  0  0  0  0  0  0
   -1.1502    0.6393    2.5760 N   0  0  0  0  0  0  0  0  0  0  0  0
   -2.0581    0.8092    2.1736 H   0  0  0  0  0  0  0  0  0  0  0  0
   -0.9568    0.9369    3.9933 C   0  0  0  0  0  0  0  0  0  0  0  0
   -0.1600    1.6750    4.1097 H   0  0  0  0  0  0  0  0  0  0  0  0
   -1.8775    1.3307    4.4266 H   0  0  0  0  0  0  0  0  0  0  0  0
   -0.6678    0.0287    4.5244 H   0  0  0  0  0  0  0  0  0  0  0  0
  5  6  2  0  0  0  0
  5  7  1  0  0  0  0
  2  3  1  0  0  0  0
  2  4  1  0  0  0  0
  2  5  1  0  0  0  0
  1  2  1  0  0  0  0
 24 25  2  0  0  0  0
 24 26  1  0  0  0  0
 20 21  1  0  0  0  0
 20 22  1  0  0  0  0
 20 23  1  0  0  0  0
 16 17  1  0  0  0  0
 16 18  1  0  0  0  0
 16 19  1  0  0  0  0
 14 15  1  0  0  0  0
 14 16  1  0  0  0  0
 14 20  1  0  0  0  0
 11 12  1  0  0  0  0
 11 13  1  0  0  0  0
 11 14  1  0  0  0  0
  9 10  1  0  0  0  0
  9 11  1  0  0  0  0
  9 24  1  0  0  0  0
  7  8  1  0  0  0  0
  7  9  1  0  0  0  0
 28 29  1  0  0  0  0
 28 30  1  0  0  0  0
 28 31  1  0  0  0  0
 26 27  1  0  0  0  0
 26 28  1  0  0  0  0
M  END
$$$$
default_name
  -OEChem-02102213163D

 31 30  0     1  0  0  0  0  0999 V2000
   -3.5895   -3.5013    1.1082 H   0  0  0  0  0  0  0  0  0  0  0  0
   -3.5145   -2.5363    0.6082 C   0  0  0  0  0  0  0  0  0  0  0  0
   -4.2285   -1.8413    1.0452 H   0  0  0  0  0  0  0  0  0  0  0  0
   -3.7155   -2.6583   -0.4538 H   0  0  0  0  0  0  0  0  0  0  0  0
   -2.1155   -1.9963    0.7922 C   0  0  0  0  0  0  0  0  0  0  0  0
   -1.2875   -2.6383    1.4252 O   0  0  0  0  0  0  0  0  0  0  0  0
   -1.8575   -0.8123    0.2402 N   0  0  0  0  0  0  0  0  0  0  0  0
   -2.6005   -0.3333   -0.2478 H   0  0  0  0  0  0  0  0  0  0  0  0
   -0.5675   -0.1203    0.3102 C   0  0  1  0  0  0  0  0  0  0  0  0
    0.1932   -0.7715   -0.1219 H   0  0  0  0  0  0  0  0  0  0  0  0
   -0.6568    1.1713   -0.5294 C   0  0  0  0  0  0  0  0  0  0  0  0
    0.0397    1.9040   -0.1171 H   0  0  0  0  0  0  0  0  0  0  0  0
   -0.3280    0.9373   -1.5444 H   0  0  0  0  0  0  0  0  0  0  0  0
   -2.0509    1.8193   -0.6148 C   0  0  0  0  0  0  0  0  0  0  0  0
   -2.7989    1.0563   -0.8305 H   0  0  0  0  0  0  0  0  0  0  0  0
   -2.4346    2.5409    0.6803 C   0  0  0  0  0  0  0  0  0  0  0  0
   -1.6860    3.2977    0.9186 H   0  0  0  0  0  0  0  0  0  0  0  0
   -3.4040    3.0244    0.5578 H   0  0  0  0  0  0  0  0  0  0  0  0
   -2.5033    1.8366    1.5066 H   0  0  0  0  0  0  0  0  0  0  0  0
   -2.0765    2.8413   -1.7507 C   0  0  0  0  0  0  0  0  0  0  0  0
   -1.8377    2.3483   -2.6930 H   0  0  0  0  0  0  0  0  0  0  0  0
   -3.0704    3.2815   -1.8310 H   0  0  0  0  0  0  0  0  0  0  0  0
   -1.3476    3.6304   -1.5625 H   0  0  0  0  0  0  0  0  0  0  0  0
   -0.1913    0.1554    1.7759 C   0  0  0  0  0  0  0  0  0  0  0  0
    0.9476   -0.0766    2.1748 O   0  0  0  0  0  0  0  0  0  0  0  0
   -1.1502    0.6393    2.5760 N   0  0  0  0  0  0  0  0  0  0  0  0
   -2.0581    0.8092    2.1736 H   0  0  0  0  0  0  0  0  0  0  0  0
   -0.9568    0.9369    3.9933 C   0  0  0  0  0  0  0  0  0  0  0  0
   -0.1600    1.6750    4.1097 H   0  0  0  0  0  0  0  0  0  0  0  0
   -1.8775    1.3307    4.4266 H   0  0  0  0  0  0  0  0  0  0  0  0
   -0.6678    0.0287    4.5244 H   0  0  0  0  0  0  0  0  0  0  0  0
  5  6  2  0  0  0  0
  5  7  1  0  0  0  0
  2  3  1  0  0  0  0
  2  4  1  0  0  0  0
  2  5  1  0  0  0  0
  1  2  1  0  0  0  0
 24 25  2  0  0  0  0
 24 26  1  0  0  0  0
 20 21  1  0  0  0  0
 20 22  1  0  0  0  0
 20 23  1  0  0  0  0
 16 17  1  0  0  0  0
 16 18  1  0  0  0  0
 16 19  1  0  0  0  0
 14 15  1  0  0  0  0
 14 16  1  0  0  0  0
 14 20  1  0  0  0  0
 11 12  1  0  0  0  0
 11 13  1  0  0  0  0
 11 14  1  0  0  0  0
  9 10  1  0  0  0  0
  9 11  1  0  0  0  0
  9 24  1  0  0  0  0
  7  8  1  0  0  0  0
  7  9  1  0  0  0  0
 28 29  1  0  0  0  0
 28 30  1  0  0  0  0
 28 31  1  0  0  0  0
 26 27  1  0  0  0  0
 26 28  1  0  0  0  0
M  END
$$$$
default_name
  -OEChem-02102213163D

 31 30  0     1  0  0  0  0  0999 V2000
   -3.5895   -3.5013    1.1082 H   0  0  0  0  0  0  0  0  0  0  0  0
   -3.5145   -2.5363    0.6082 C   0  0  0  0  0  0  0  0  0  0  0  0
   -4.2285   -1.8413    1.0452 H   0  0  0  0  0  0  0  0  0  0  0  0
   -3.7155   -2.6583   -0.4538 H   0  0  0  0  0  0  0  0  0  0  0  0
   -2.1155   -1.9963    0.7922 C   0  0  0  0  0  0  0  0  0  0  0  0
   -1.2875   -2.6383    1.4252 O   0  0  0  0  0  0  0  0  0  0  0  0
   -1.8575   -0.8123    0.2402 N   0  0  0  0  0  0  0  0  0  0  0  0
   -2.6005   -0.3333   -0.2478 H   0  0  0  0  0  0  0  0  0  0  0  0
   -0.5675   -0.1203    0.3102 C   0  0  1  0  0  0  0  0  0  0  0  0
    0.1932   -0.7715   -0.1219 H   0  0  0  0  0  0  0  0  0  0  0  0
   -0.6568    1.1713   -0.5294 C   0  0  0  0  0  0  0  0  0  0  0  0
    0.0397    1.9040   -0.1171 H   0  0  0  0  0  0  0  0  0  0  0  0
   -0.3280    0.9373   -1.5444 H   0  0  0  0  0  0  0  0  0  0  0  0
   -2.0509    1.8193   -0.6148 C   0  0  0  0  0  0  0  0  0  0  0  0
   -2.8192    1.0478   -0.5635 H   0  0  0  0  0  0  0  0  0  0  0  0
   -2.2880    2.8336    0.5078 C   0  0  0  0  0  0  0  0  0  0  0  0
   -1.5166    3.6044    0.4797 H   0  0  0  0  0  0  0  0  0  0  0  0
   -3.2644    3.3015    0.3797 H   0  0  0  0  0  0  0  0  0  0  0  0
   -2.2658    2.3439    1.4790 H   0  0  0  0  0  0  0  0  0  0  0  0
   -2.2006    2.5481   -1.9497 C   0  0  0  0  0  0  0  0  0  0  0  0
   -2.0682    1.8423   -2.7696 H   0  0  0  0  0  0  0  0  0  0  0  0
   -3.1967    2.9843   -2.0242 H   0  0  0  0  0  0  0  0  0  0  0  0
   -1.4543    3.3390   -2.0316 H   0  0  0  0  0  0  0  0  0  0  0  0
   -0.1913    0.1554    1.7759 C   0  0  0  0  0  0  0  0  0  0  0  0
    0.9476   -0.0766    2.1748 O   0  0  0  0  0  0  0  0  0  0  0  0
   -1.1502    0.6393    2.5760 N   0  0  0  0  0  0  0  0  0  0  0  0
   -2.0581    0.8092    2.1736 H   0  0  0  0  0  0  0  0  0  0  0  0
   -0.9568    0.9369    3.9933 C   0  0  0  0  0  0  0  0  0  0  0  0
   -0.1600    1.6750    4.1097 H   0  0  0  0  0  0  0  0  0  0  0  0
   -1.8775    1.3307    4.4266 H   0  0  0  0  0  0  0  0  0  0  0  0
   -0.6678    0.0287    4.5244 H   0  0  0  0  0  0  0  0  0  0  0  0
  5  6  2  0  0  0  0
  5  7  1  0  0  0  0
  2  3  1  0  0  0  0
  2  4  1  0  0  0  0
  2  5  1  0  0  0  0
  1  2  1  0  0  0  0
 24 25  2  0  0  0  0
 24 26  1  0  0  0  0
 20 21  1  0  0  0  0
 20 22  1  0  0  0  0
 20 23  1  0  0  0  0
 16 17  1  0  0  0  0
 16 18  1  0  0  0  0
 16 19  1  0  0  0  0
 14 15  1  0  0  0  0
 14 16  1  0  0  0  0
 14 20  1  0  0  0  0
 11 12  1  0  0  0  0
 11 13  1  0  0  0  0
 11 14  1  0  0  0  0
  9 10  1  0  0  0  0
  9 11  1  0  0  0  0
  9 24  1  0  0  0  0
  7  8  1  0  0  0  0
  7  9  1  0  0  0  0
 28 29  1  0  0  0  0
 28 30  1  0  0  0  0
 28 31  1  0  0  0  0
 26 27  1  0  0  0  0
 26 28  1  0  0  0  0
M  END
$$$$
default_name
  -OEChem-02102213163D

 31 30  0     1  0  0  0  0  0999 V2000
   -3.5895   -3.5013    1.1082 H   0  0  0  0  0  0  0  0  0  0  0  0
   -3.5145   -2.5363    0.6082 C   0  0  0  0  0  0  0  0  0  0  0  0
   -4.2285   -1.8413    1.0452 H   0  0  0  0  0  0  0  0  0  0  0  0
   -3.7155   -2.6583   -0.4538 H   0  0  0  0  0  0  0  0  0  0  0  0
   -2.1155   -1.9963    0.7922 C   0  0  0  0  0  0  0  0  0  0  0  0
   -1.2875   -2.6383    1.4252 O   0  0  0  0  0  0  0  0  0  0  0  0
   -1.8575   -0.8123    0.2402 N   0  0  0  0  0  0  0  0  0  0  0  0
   -2.6005   -0.3333   -0.2478 H   0  0  0  0  0  0  0  0  0  0  0  0
   -0.5675   -0.1203    0.3102 C   0  0  1  0  0  0  0  0  0  0  0  0
    0.1932   -0.7715   -0.1219 H   0  0  0  0  0  0  0  0  0  0  0  0
   -0.6568    1.1713   -0.5294 C   0  0  0  0  0  0  0  0  0  0  0  0
    0.0397    1.9040   -0.1171 H   0  0  0  0  0  0  0  0  0  0  0  0
   -0.3280    0.9373   -1.5444 H   0  0  0  0  0  0  0  0  0  0  0  0
   -2.0509    1.8193   -0.6148 C   0  0  0  0  0  0  0  0  0  0  0  0
   -2.8099    1.1024   -0.3015 H   0  0  0  0  0  0  0  0  0  0  0  0
   -2.1610    3.0738    0.2566 C   0  0  0  0  0  0  0  0  0  0  0  0
   -1.3964    3.7954   -0.0345 H   0  0  0  0  0  0  0  0  0  0  0  0
   -3.1449    3.5253    0.1275 H   0  0  0  0  0  0  0  0  0  0  0  0
   -2.0322    2.8241    1.3076 H   0  0  0  0  0  0  0  0  0  0  0  0
   -2.3464    2.2200   -2.0596 C   0  0  0  0  0  0  0  0  0  0  0  0
   -2.3065    1.3389   -2.7000 H   0  0  0  0  0  0  0  0  0  0  0  0
   -3.3440    2.6538   -2.1274 H   0  0  0  0  0  0  0  0  0  0  0  0
   -1.6126    2.9492   -2.4048 H   0  0  0  0  0  0  0  0  0  0  0  0
   -0.1913    0.1554    1.7759 C   0  0  0  0  0  0  0  0  0  0  0  0
    0.9476   -0.0766    2.1748 O   0  0  0  0  0  0  0  0  0  0  0  0
   -1.1502    0.6393    2.5760 N   0  0  0  0  0  0  0  0  0  0  0  0
   -2.0581    0.8092    2.1736 H   0  0  0  0  0  0  0  0  0  0  0  0
   -0.9568    0.9369    3.9933 C   0  0  0  0  0  0  0  0  0  0  0  0
   -0.1600    1.6750    4.1097 H   0  0  0  0  0  0  0  0  0  0  0  0
   -1.8775    1.3307    4.4266 H   0  0  0  0  0  0  0  0  0  0  0  0
   -0.6678    0.0287    4.5244 H   0  0  0  0  0  0  0  0  0  0  0  0
  5  6  2  0  0  0  0
  5  7  1  0  0  0  0
  2  3  1  0  0  0  0
  2  4  1  0  0  0  0
  2  5  1  0  0  0  0
  1  2  1  0  0  0  0
 24 25  2  0  0  0  0
 24 26  1  0  0  0  0
 20 21  1  0  0  0  0
 20 22  1  0  0  0  0
 20 23  1  0  0  0  0
 16 17  1  0  0  0  0
 16 18  1  0  0  0  0
 16 19  1  0  0  0  0
 14 15  1  0  0  0  0
 14 16  1  0  0  0  0
 14 20  1  0  0  0  0
 11 12  1  0  0  0  0
 11 13  1  0  0  0  0
 11 14  1  0  0  0  0
  9 10  1  0  0  0  0
  9 11  1  0  0  0  0
  9 24  1  0  0  0  0
  7  8  1  0  0  0  0
  7  9  1  0  0  0  0
 28 29  1  0  0  0  0
 28 30  1  0  0  0  0
 28 31  1  0  0  0  0
 26 27  1  0  0  0  0
 26 28  1  0  0  0  0
M  END
$$$$
default_name
  -OEChem-02102213163D

 31 30  0     1  0  0  0  0  0999 V2000
   -3.5895   -3.5013    1.1082 H   0  0  0  0  0  0  0  0  0  0  0  0
   -3.5145   -2.5363    0.6082 C   0  0  0  0  0  0  0  0  0  0  0  0
   -4.2285   -1.8413    1.0452 H   0  0  0  0  0  0  0  0  0  0  0  0
   -3.7155   -2.6583   -0.4538 H   0  0  0  0  0  0  0  0  0  0  0  0
   -2.1155   -1.9963    0.7922 C   0  0  0  0  0  0  0  0  0  0  0  0
   -1.2875   -2.6383    1.4252 O   0  0  0  0  0  0  0  0  0  0  0  0
   -1.8575   -0.8123    0.2402 N   0  0  0  0  0  0  0  0  0  0  0  0
   -2.6005   -0.3333   -0.2478 H   0  0  0  0  0  0  0  0  0  0  0  0
   -0.5675   -0.1203    0.3102 C   0  0  1  0  0  0  0  0  0  0  0  0
    0.1932   -0.7715   -0.1219 H   0  0  0  0  0  0  0  0  0  0  0  0
   -0.6568    1.1713   -0.5294 C   0  0  0  0  0  0  0  0  0  0  0  0
    0.0397    1.9040   -0.1171 H   0  0  0  0  0  0  0  0  0  0  0  0
   -0.3280    0.9373   -1.5444 H   0  0  0  0  0  0  0  0  0  0  0  0
   -2.0509    1.8193   -0.6148 C   0  0  0  0  0  0  0  0  0  0  0  0
   -2.7715    1.2164   -0.0622 H   0  0  0  0  0  0  0  0  0  0  0  0
   -2.0622    3.2452   -0.0562 C   0  0  0  0  0  0  0  0  0  0  0  0
   -1.3335    3.8576   -0.5890 H   0  0  0  0  0  0  0  0  0  0  0  0
   -3.0537    3.6808   -0.1816 H   0  0  0  0  0  0  0  0  0  0  0  0
   -1.8182    3.2444    1.0040 H   0  0  0  0  0  0  0  0  0  0  0  0
   -2.5038    1.8794   -2.0731 C   0  0  0  0  0  0  0  0  0  0  0  0
   -2.5363    0.8723   -2.4888 H   0  0  0  0  0  0  0  0  0  0  0  0
   -3.5023    2.3125   -2.1336 H   0  0  0  0  0  0  0  0  0  0  0  0
   -1.8118    2.4875   -2.6566 H   0  0  0  0  0  0  0  0  0  0  0  0
   -0.1913    0.1554    1.7759 C   0  0  0  0  0  0  0  0  0  0  0  0
    0.9476   -0.0766    2.1748 O   0  0  0  0  0  0  0  0  0  0  0  0
   -1.1502    0.6393    2.5760 N   0  0  0  0  0  0  0  0  0  0  0  0
   -2.0581    0.8092    2.1736 H   0  0  0  0  0  0  0  0  0  0  0  0
   -0.9568    0.9369    3.9933 C   0  0  0  0  0  0  0  0  0  0  0  0
   -0.1600    1.6750    4.1097 H   0  0  0  0  0  0  0  0  0  0  0  0
   -1.8775    1.3307    4.4266 H   0  0  0  0  0  0  0  0  0  0  0  0
   -0.6678    0.0287    4.5244 H   0  0  0  0  0  0  0  0  0  0  0  0
  5  6  2  0  0  0  0
  5  7  1  0  0  0  0
  2  3  1  0  0  0  0
  2  4  1  0  0  0  0
  2  5  1  0  0  0  0
  1  2  1  0  0  0  0
 24 25  2  0  0  0  0
 24 26  1  0  0  0  0
 20 21  1  0  0  0  0
 20 22  1  0  0  0  0
 20 23  1  0  0  0  0
 16 17  1  0  0  0  0
 16 18  1  0  0  0  0
 16 19  1  0  0  0  0
 14 15  1  0  0  0  0
 14 16  1  0  0  0  0
 14 20  1  0  0  0  0
 11 12  1  0  0  0  0
 11 13  1  0  0  0  0
 11 14  1  0  0  0  0
  9 10  1  0  0  0  0
  9 11  1  0  0  0  0
  9 24  1  0  0  0  0
  7  8  1  0  0  0  0
  7  9  1  0  0  0  0
 28 29  1  0  0  0  0
 28 30  1  0  0  0  0
 28 31  1  0  0  0  0
 26 27  1  0  0  0  0
 26 28  1  0  0  0  0
M  END
$$$$
default_name
  -OEChem-02102213163D

 31 30  0     1  0  0  0  0  0999 V2000
   -3.5895   -3.5013    1.1082 H   0  0  0  0  0  0  0  0  0  0  0  0
   -3.5145   -2.5363    0.6082 C   0  0  0  0  0  0  0  0  0  0  0  0
   -4.2285   -1.8413    1.0452 H   0  0  0  0  0  0  0  0  0  0  0  0
   -3.7155   -2.6583   -0.4538 H   0  0  0  0  0  0  0  0  0  0  0  0
   -2.1155   -1.9963    0.7922 C   0  0  0  0  0  0  0  0  0  0  0  0
   -1.2875   -2.6383    1.4252 O   0  0  0  0  0  0  0  0  0  0  0  0
   -1.8575   -0.8123    0.2402 N   0  0  0  0  0  0  0  0  0  0  0  0
   -2.6005   -0.3333   -0.2478 H   0  0  0  0  0  0  0  0  0  0  0  0
   -0.5675   -0.1203    0.3102 C   0  0  1  0  0  0  0  0  0  0  0  0
    0.1932   -0.7715   -0.1219 H   0  0  0  0  0  0  0  0  0  0  0  0
   -0.6568    1.1713   -0.5294 C   0  0  0  0  0  0  0  0  0  0  0  0
    0.0397    1.9040   -0.1171 H   0  0  0  0  0  0  0  0  0  0  0  0
   -0.3280    0.9373   -1.5444 H   0  0  0  0  0  0  0  0  0  0  0  0
   -2.0509    1.8193   -0.6148 C   0  0  0  0  0  0  0  0  0  0  0  0
   -2.7068    1.3821    0.1380 H   0  0  0  0  0  0  0  0  0  0  0  0
   -1.9983    3.3360   -0.4092 C   0  0  0  0  0  0  0  0  0  0  0  0
   -1.3322    3.7869   -1.1461 H   0  0  0  0  0  0  0  0  0  0  0  0
   -2.9971    3.7572   -0.5265 H   0  0  0  0  0  0  0  0  0  0  0  0
   -1.6386    3.5761    0.5890 H   0  0  0  0  0  0  0  0  0  0  0  0
   -2.6623    1.5495   -1.9891 C   0  0  0  0  0  0  0  0  0  0  0  0
   -2.7419    0.4745   -2.1504 H   0  0  0  0  0  0  0  0  0  0  0  0
   -3.6607    1.9836   -2.0424 H   0  0  0  0  0  0  0  0  0  0  0  0
   -2.0382    1.9854   -2.7700 H   0  0  0  0  0  0  0  0  0  0  0  0
   -0.1913    0.1554    1.7759 C   0  0  0  0  0  0  0  0  0  0  0  0
    0.9476   -0.0766    2.1748 O   0  0  0  0  0  0  0  0  0  0  0  0
   -1.1502    0.6393    2.5760 N   0  0  0  0  0  0  0  0  0  0  0  0
   -2.0581    0.8092    2.1736 H   0  0  0  0  0  0  0  0  0  0  0  0
   -0.9568    0.9369    3.9933 C   0  0  0  0  0  0  0  0  0  0  0  0
   -0.1600    1.6750    4.1097 H   0  0  0  0  0  0  0  0  0  0  0  0
   -1.8775    1.3307    4.4266 H   0  0  0  0  0  0  0  0  0  0  0  0
   -0.6678    0.0287    4.5244 H   0  0  0  0  0  0  0  0  0  0  0  0
  5  6  2  0  0  0  0
  5  7  1  0  0  0  0
  2  3  1  0  0  0  0
  2  4  1  0  0  0  0
  2  5  1  0  0  0  0
  1  2  1  0  0  0  0
 24 25  2  0  0  0  0
 24 26  1  0  0  0  0
 20 21  1  0  0  0  0
 20 22  1  0  0  0  0
 20 23  1  0  0  0  0
 16 17  1  0  0  0  0
 16 18  1  0  0  0  0
 16 19  1  0  0  0  0
 14 15  1  0  0  0  0
 14 16  1  0  0  0  0
 14 20  1  0  0  0  0
 11 12  1  0  0  0  0
 11 13  1  0  0  0  0
 11 14  1  0  0  0  0
  9 10  1  0  0  0  0
  9 11  1  0  0  0  0
  9 24  1  0  0  0  0
  7  8  1  0  0  0  0
  7  9  1  0  0  0  0
 28 29  1  0  0  0  0
 28 30  1  0  0  0  0
 28 31  1  0  0  0  0
 26 27  1  0  0  0  0
 26 28  1  0  0  0  0
M  END
$$$$
default_name
  -OEChem-02102213163D

 31 30  0     1  0  0  0  0  0999 V2000
   -3.5895   -3.5013    1.1082 H   0  0  0  0  0  0  0  0  0  0  0  0
   -3.5145   -2.5363    0.6082 C   0  0  0  0  0  0  0  0  0  0  0  0
   -4.2285   -1.8413    1.0452 H   0  0  0  0  0  0  0  0  0  0  0  0
   -3.7155   -2.6583   -0.4538 H   0  0  0  0  0  0  0  0  0  0  0  0
   -2.1155   -1.9963    0.7922 C   0  0  0  0  0  0  0  0  0  0  0  0
   -1.2875   -2.6383    1.4252 O   0  0  0  0  0  0  0  0  0  0  0  0
   -1.8575   -0.8123    0.2402 N   0  0  0  0  0  0  0  0  0  0  0  0
   -2.6005   -0.3333   -0.2478 H   0  0  0  0  0  0  0  0  0  0  0  0
   -0.5675   -0.1203    0.3102 C   0  0  1  0  0  0  0  0  0  0  0  0
    0.1932   -0.7715   -0.1219 H   0  0  0  0  0  0  0  0  0  0  0  0
   -0.6568    1.1713   -0.5294 C   0  0  0  0  0  0  0  0  0  0  0  0
    0.0397    1.9040   -0.1171 H   0  0  0  0  0  0  0  0  0  0  0  0
   -0.3280    0.9373   -1.5444 H   0  0  0  0  0  0  0  0  0  0  0  0
   -2.0509    1.8193   -0.6148 C   0  0  0  0  0  0  0  0  0  0  0  0
   -2.6201    1.5881    0.2856 H   0  0  0  0  0  0  0  0  0  0  0  0
   -1.9738    3.3400   -0.7785 C   0  0  0  0  0  0  0  0  0  0  0  0
   -1.3928    3.5880   -1.6677 H   0  0  0  0  0  0  0  0  0  0  0  0
   -2.9788    3.7493   -0.8837 H   0  0  0  0  0  0  0  0  0  0  0  0
   -1.5056    3.7967    0.0908 H   0  0  0  0  0  0  0  0  0  0  0  0
   -2.8110    1.2528   -1.8134 C   0  0  0  0  0  0  0  0  0  0  0  0
   -2.9094    0.1724   -1.7080 H   0  0  0  0  0  0  0  0  0  0  0  0
   -3.8085    1.6896   -1.8600 H   0  0  0  0  0  0  0  0  0  0  0  0
   -2.2765    1.4770   -2.7372 H   0  0  0  0  0  0  0  0  0  0  0  0
   -0.1913    0.1554    1.7759 C   0  0  0  0  0  0  0  0  0  0  0  0
    0.9476   -0.0766    2.1748 O   0  0  0  0  0  0  0  0  0  0  0  0
   -1.1502    0.6393    2.5760 N   0  0  0  0  0  0  0  0  0  0  0  0
   -2.0581    0.8092    2.1736 H   0  0  0  0  0  0  0  0  0  0  0  0
   -0.9568    0.9369    3.9933 C   0  0  0  0  0  0  0  0  0  0  0  0
   -0.1600    1.6750    4.1097 H   0  0  0  0  0  0  0  0  0  0  0  0
   -1.8775    1.3307    4.4266 H   0  0  0  0  0  0  0  0  0  0  0  0
   -0.6678    0.0287    4.5244 H   0  0  0  0  0  0  0  0  0  0  0  0
  5  6  2  0  0  0  0
  5  7  1  0  0  0  0
  2  3  1  0  0  0  0
  2  4  1  0  0  0  0
  2  5  1  0  0  0  0
  1  2  1  0  0  0  0
 24 25  2  0  0  0  0
 24 26  1  0  0  0  0
 20 21  1  0  0  0  0
 20 22  1  0  0  0  0
 20 23  1  0  0  0  0
 16 17  1  0  0  0  0
 16 18  1  0  0  0  0
 16 19  1  0  0  0  0
 14 15  1  0  0  0  0
 14 16  1  0  0  0  0
 14 20  1  0  0  0  0
 11 12  1  0  0  0  0
 11 13  1  0  0  0  0
 11 14  1  0  0  0  0
  9 10  1  0  0  0  0
  9 11  1  0  0  0  0
  9 24  1  0  0  0  0
  7  8  1  0  0  0  0
  7  9  1  0  0  0  0
 28 29  1  0  0  0  0
 28 30  1  0  0  0  0
 28 31  1  0  0  0  0
 26 27  1  0  0  0  0
 26 28  1  0  0  0  0
M  END
$$$$
default_name
  -OEChem-02102213163D

 31 30  0     1  0  0  0  0  0999 V2000
   -3.5895   -3.5013    1.1082 H   0  0  0  0  0  0  0  0  0  0  0  0
   -3.5145   -2.5363    0.6082 C   0  0  0  0  0  0  0  0  0  0  0  0
   -4.2285   -1.8413    1.0452 H   0  0  0  0  0  0  0  0  0  0  0  0
   -3.7155   -2.6583   -0.4538 H   0  0  0  0  0  0  0  0  0  0  0  0
   -2.1155   -1.9963    0.7922 C   0  0  0  0  0  0  0  0  0  0  0  0
   -1.2875   -2.6383    1.4252 O   0  0  0  0  0  0  0  0  0  0  0  0
   -1.8575   -0.8123    0.2402 N   0  0  0  0  0  0  0  0  0  0  0  0
   -2.6005   -0.3333   -0.2478 H   0  0  0  0  0  0  0  0  0  0  0  0
   -0.5675   -0.1203    0.3102 C   0  0  1  0  0  0  0  0  0  0  0  0
    0.1932   -0.7715   -0.1219 H   0  0  0  0  0  0  0  0  0  0  0  0
   -0.6568    1.1713   -0.5294 C   0  0  0  0  0  0  0  0  0  0  0  0
    0.0397    1.9040   -0.1171 H   0  0  0  0  0  0  0  0  0  0  0  0
   -0.3280    0.9373   -1.5444 H   0  0  0  0  0  0  0  0  0  0  0  0
   -2.0509    1.8193   -0.6148 C   0  0  0  0  0  0  0  0  0  0  0  0
   -2.5173    1.8204    0.3704 H   0  0  0  0  0  0  0  0  0  0  0  0
   -1.9904    3.2570   -1.1387 C   0  0  0  0  0  0  0  0  0  0  0  0
   -1.5109    3.2745   -2.1184 H   0  0  0  0  0  0  0  0  0  0  0  0
   -3.0003    3.6577   -1.2289 H   0  0  0  0  0  0  0  0  0  0  0  0
   -1.4282    3.8912   -0.4566 H   0  0  0  0  0  0  0  0  0  0  0  0
   -2.9397    1.0095   -1.5580 C   0  0  0  0  0  0  0  0  0  0  0  0
   -3.0273   -0.0132   -1.1915 H   0  0  0  0  0  0  0  0  0  0  0  0
   -3.9357    1.4505   -1.5987 H   0  0  0  0  0  0  0  0  0  0  0  0
   -2.5104    0.9971   -2.5605 H   0  0  0  0  0  0  0  0  0  0  0  0
   -0.1913    0.1554    1.7759 C   0  0  0  0  0  0  0  0  0  0  0  0
    0.9476   -0.0766    2.1748 O   0  0  0  0  0  0  0  0  0  0  0  0
   -1.1502    0.6393    2.5760 N   0  0  0  0  0  0  0  0  0  0  0  0
   -2.0581    0.8092    2.1736 H   0  0  0  0  0  0  0  0  0  0  0  0
   -0.9568    0.9369    3.9933 C   0  0  0  0  0  0  0  0  0  0  0  0
   -0.1600    1.6750    4.1097 H   0  0  0  0  0  0  0  0  0  0  0  0
   -1.8775    1.3307    4.4266 H   0  0  0  0  0  0  0  0  0  0  0  0
   -0.6678    0.0287    4.5244 H   0  0  0  0  0  0  0  0  0  0  0  0
  5  6  2  0  0  0  0
  5  7  1  0  0  0  0
  2  3  1  0  0  0  0
  2  4  1  0  0  0  0
  2  5  1  0  0  0  0
  1  2  1  0  0  0  0
 24 25  2  0  0  0  0
 24 26  1  0  0  0  0
 20 21  1  0  0  0  0
 20 22  1  0  0  0  0
 20 23  1  0  0  0  0
 16 17  1  0  0  0  0
 16 18  1  0  0  0  0
 16 19  1  0  0  0  0
 14 15  1  0  0  0  0
 14 16  1  0  0  0  0
 14 20  1  0  0  0  0
 11 12  1  0  0  0  0
 11 13  1  0  0  0  0
 11 14  1  0  0  0  0
  9 10  1  0  0  0  0
  9 11  1  0  0  0  0
  9 24  1  0  0  0  0
  7  8  1  0  0  0  0
  7  9  1  0  0  0  0
 28 29  1  0  0  0  0
 28 30  1  0  0  0  0
 28 31  1  0  0  0  0
 26 27  1  0  0  0  0
 26 28  1  0  0  0  0
M  END
$$$$
default_name
  -OEChem-02102213163D

 31 30  0     1  0  0  0  0  0999 V2000
   -3.5895   -3.5013    1.1082 H   0  0  0  0  0  0  0  0  0  0  0  0
   -3.5145   -2.5363    0.6082 C   0  0  0  0  0  0  0  0  0  0  0  0
   -4.2285   -1.8413    1.0452 H   0  0  0  0  0  0  0  0  0  0  0  0
   -3.7155   -2.6583   -0.4538 H   0  0  0  0  0  0  0  0  0  0  0  0
   -2.1155   -1.9963    0.7922 C   0  0  0  0  0  0  0  0  0  0  0  0
   -1.2875   -2.6383    1.4252 O   0  0  0  0  0  0  0  0  0  0  0  0
   -1.8575   -0.8123    0.2402 N   0  0  0  0  0  0  0  0  0  0  0  0
   -2.6005   -0.3333   -0.2478 H   0  0  0  0  0  0  0  0  0  0  0  0
   -0.5675   -0.1203    0.3102 C   0  0  1  0  0  0  0  0  0  0  0  0
    0.1932   -0.7715   -0.1219 H   0  0  0  0  0  0  0  0  0  0  0  0
   -0.6568    1.1713   -0.5294 C   0  0  0  0  0  0  0  0  0  0  0  0
    0.2078    1.7971   -0.2994 H   0  0  0  0  0  0  0  0  0  0  0  0
   -0.5927    0.8934   -1.5838 H   0  0  0  0  0  0  0  0  0  0  0  0
   -1.9319    2.0114   -0.3320 C   0  0  0  0  0  0  0  0  0  0  0  0
   -2.0225    2.3028    0.7145 H   0  0  0  0  0  0  0  0  0  0  0  0
   -1.9359    3.2716   -1.2020 C   0  0  0  0  0  0  0  0  0  0  0  0
   -1.8297    2.9971   -2.2524 H   0  0  0  0  0  0  0  0  0  0  0  0
   -2.8754    3.8080   -1.0670 H   0  0  0  0  0  0  0  0  0  0  0  0
   -1.1187    3.9334   -0.9233 H   0  0  0  0  0  0  0  0  0  0  0  0
   -3.1602    1.1795   -0.6993 C   0  0  0  0  0  0  0  0  0  0  0  0
   -3.2011    0.2892   -0.0720 H   0  0  0  0  0  0  0  0  0  0  0  0
   -4.0660    1.7629   -0.5341 H   0  0  0  0  0  0  0  0  0  0  0  0
   -3.1113    0.8798   -1.7468 H   0  0  0  0  0  0  0  0  0  0  0  0
   -0.1913    0.1554    1.7759 C   0  0  0  0  0  0  0  0  0  0  0  0
    0.9476   -0.0766    2.1748 O   0  0  0  0  0  0  0  0  0  0  0  0
   -1.1502    0.6393    2.5760 N   0  0  0  0  0  0  0  0  0  0  0  0
   -2.0581    0.8092    2.1736 H   0  0  0  0  0  0  0  0  0  0  0  0
   -0.9568    0.9369    3.9933 C   0  0  0  0  0  0  0  0  0  0  0  0
   -0.1600    1.6750    4.1097 H   0  0  0  0  0  0  0  0  0  0  0  0
   -1.8775    1.3307    4.4266 H   0  0  0  0  0  0  0  0  0  0  0  0
   -0.6678    0.0287    4.5244 H   0  0  0  0  0  0  0  0  0  0  0  0
  5  6  2  0  0  0  0
  5  7  1  0  0  0  0
  2  3  1  0  0  0  0
  2  4  1  0  0  0  0
  2  5  1  0  0  0  0
  1  2  1  0  0  0  0
 24 25  2  0  0  0  0
 24 26  1  0  0  0  0
 20 21  1  0  0  0  0
 20 22  1  0  0  0  0
 20 23  1  0  0  0  0
 16 17  1  0  0  0  0
 16 18  1  0  0  0  0
 16 19  1  0  0  0  0
 14 15  1  0  0  0  0
 14 16  1  0  0  0  0
 14 20  1  0  0  0  0
 11 12  1  0  0  0  0
 11 13  1  0  0  0  0
 11 14  1  0  0  0  0
  9 10  1  0  0  0  0
  9 11  1  0  0  0  0
  9 24  1  0  0  0  0
  7  8  1  0  0  0  0
  7  9  1  0  0  0  0
 28 29  1  0  0  0  0
 28 30  1  0  0  0  0
 28 31  1  0  0  0  0
 26 27  1  0  0  0  0
 26 28  1  0  0  0  0
M  END
$$$$
default_name
  -OEChem-02102213163D

 31 30  0     1  0  0  0  0  0999 V2000
   -3.5895   -3.5013    1.1082 H   0  0  0  0  0  0  0  0  0  0  0  0
   -3.5145   -2.5363    0.6082 C   0  0  0  0  0  0  0  0  0  0  0  0
   -4.2285   -1.8413    1.0452 H   0  0  0  0  0  0  0  0  0  0  0  0
   -3.7155   -2.6583   -0.4538 H   0  0  0  0  0  0  0  0  0  0  0  0
   -2.1155   -1.9963    0.7922 C   0  0  0  0  0  0  0  0  0  0  0  0
   -1.2875   -2.6383    1.4252 O   0  0  0  0  0  0  0  0  0  0  0  0
   -1.8575   -0.8123    0.2402 N   0  0  0  0  0  0  0  0  0  0  0  0
   -2.6005   -0.3333   -0.2478 H   0  0  0  0  0  0  0  0  0  0  0  0
   -0.5675   -0.1203    0.3102 C   0  0  1  0  0  0  0  0  0  0  0  0
    0.1932   -0.7715   -0.1219 H   0  0  0  0  0  0  0  0  0  0  0  0
   -0.6568    1.1713   -0.5294 C   0  0  0  0  0  0  0  0  0  0  0  0
    0.2078    1.7971   -0.2994 H   0  0  0  0  0  0  0  0  0  0  0  0
   -0.5927    0.8934   -1.5838 H   0  0  0  0  0  0  0  0  0  0  0  0
   -1.9319    2.0114   -0.3320 C   0  0  0  0  0  0  0  0  0  0  0  0
   -1.8917    2.5210    0.6307 H   0  0  0  0  0  0  0  0  0  0  0  0
   -2.1168    3.0528   -1.4394 C   0  0  0  0  0  0  0  0  0  0  0  0
   -2.1429    2.5591   -2.4118 H   0  0  0  0  0  0  0  0  0  0  0  0
   -3.0538    3.5889   -1.2866 H   0  0  0  0  0  0  0  0  0  0  0  0
   -1.3022    3.7737   -1.4287 H   0  0  0  0  0  0  0  0  0  0  0  0
   -3.1572    1.0980   -0.3328 C   0  0  0  0  0  0  0  0  0  0  0  0
   -3.0680    0.3642    0.4682 H   0  0  0  0  0  0  0  0  0  0  0  0
   -4.0589    1.6871   -0.1656 H   0  0  0  0  0  0  0  0  0  0  0  0
   -3.2383    0.5793   -1.2887 H   0  0  0  0  0  0  0  0  0  0  0  0
   -0.1913    0.1554    1.7759 C   0  0  0  0  0  0  0  0  0  0  0  0
    0.9476   -0.0766    2.1748 O   0  0  0  0  0  0  0  0  0  0  0  0
   -1.1502    0.6393    2.5760 N   0  0  0  0  0  0  0  0  0  0  0  0
   -2.0581    0.8092    2.1736 H   0  0  0  0  0  0  0  0  0  0  0  0
   -0.9568    0.9369    3.9933 C   0  0  0  0  0  0  0  0  0  0  0  0
   -0.1600    1.6750    4.1097 H   0  0  0  0  0  0  0  0  0  0  0  0
   -1.8775    1.3307    4.4266 H   0  0  0  0  0  0  0  0  0  0  0  0
   -0.6678    0.0287    4.5244 H   0  0  0  0  0  0  0  0  0  0  0  0
  5  6  2  0  0  0  0
  5  7  1  0  0  0  0
  2  3  1  0  0  0  0
  2  4  1  0  0  0  0
  2  5  1  0  0  0  0
  1  2  1  0  0  0  0
 24 25  2  0  0  0  0
 24 26  1  0  0  0  0
 20 21  1  0  0  0  0
 20 22  1  0  0  0  0
 20 23  1  0  0  0  0
 16 17  1  0  0  0  0
 16 18  1  0  0  0  0
 16 19  1  0  0  0  0
 14 15  1  0  0  0  0
 14 16  1  0  0  0  0
 14 20  1  0  0  0  0
 11 12  1  0  0  0  0
 11 13  1  0  0  0  0
 11 14  1  0  0  0  0
  9 10  1  0  0  0  0
  9 11  1  0  0  0  0
  9 24  1  0  0  0  0
  7  8  1  0  0  0  0
  7  9  1  0  0  0  0
 28 29  1  0  0  0  0
 28 30  1  0  0  0  0
 28 31  1  0  0  0  0
 26 27  1  0  0  0  0
 26 28  1  0  0  0  0
M  END
$$$$
default_name
  -OEChem-02102213163D

 31 30  0     1  0  0  0  0  0999 V2000
   -3.5895   -3.5013    1.1082 H   0  0  0  0  0  0  0  0  0  0  0  0
   -3.5145   -2.5363    0.6082 C   0  0  0  0  0  0  0  0  0  0  0  0
   -4.2285   -1.8413    1.0452 H   0  0  0  0  0  0  0  0  0  0  0  0
   -3.7155   -2.6583   -0.4538 H   0  0  0  0  0  0  0  0  0  0  0  0
   -2.1155   -1.9963    0.7922 C   0  0  0  0  0  0  0  0  0  0  0  0
   -1.2875   -2.6383    1.4252 O   0  0  0  0  0  0  0  0  0  0  0  0
   -1.8575   -0.8123    0.2402 N   0  0  0  0  0  0  0  0  0  0  0  0
   -2.6005   -0.3333   -0.2478 H   0  0  0  0  0  0  0  0  0  0  0  0
   -0.5675   -0.1203    0.3102 C   0  0  1  0  0  0  0  0  0  0  0  0
    0.1932   -0.7715   -0.1219 H   0  0  0  0  0  0  0  0  0  0  0  0
   -0.6568    1.1713   -0.5294 C   0  0  0  0  0  0  0  0  0  0  0  0
    0.2078    1.7971   -0.2994 H   0  0  0  0  0  0  0  0  0  0  0  0
   -0.5927    0.8934   -1.5838 H   0  0  0  0  0  0  0  0  0  0  0  0
   -1.9319    2.0114   -0.3320 C   0  0  0  0  0  0  0  0  0  0  0  0
   -1.7844    2.7182    0.4846 H   0  0  0  0  0  0  0  0  0  0  0  0
   -2.3178    2.7846   -1.5963 C   0  0  0  0  0  0  0  0  0  0  0  0
   -2.4534    2.0914   -2.4276 H   0  0  0  0  0  0  0  0  0  0  0  0
   -3.2497    3.3243   -1.4265 H   0  0  0  0  0  0  0  0  0  0  0  0
   -1.5454    3.5051   -1.8567 H   0  0  0  0  0  0  0  0  0  0  0  0
   -3.0998    1.0978    0.0382 C   0  0  0  0  0  0  0  0  0  0  0  0
   -2.8658    0.5568    0.9550 H   0  0  0  0  0  0  0  0  0  0  0  0
   -3.9974    1.6931    0.2056 H   0  0  0  0  0  0  0  0  0  0  0  0
   -3.2864    0.3829   -0.7639 H   0  0  0  0  0  0  0  0  0  0  0  0
   -0.1913    0.1554    1.7759 C   0  0  0  0  0  0  0  0  0  0  0  0
    0.9476   -0.0766    2.1748 O   0  0  0  0  0  0  0  0  0  0  0  0
   -1.1502    0.6393    2.5760 N   0  0  0  0  0  0  0  0  0  0  0  0
   -2.0581    0.8092    2.1736 H   0  0  0  0  0  0  0  0  0  0  0  0
   -0.9568    0.9369    3.9933 C   0  0  0  0  0  0  0  0  0  0  0  0
   -0.1600    1.6750    4.1097 H   0  0  0  0  0  0  0  0  0  0  0  0
   -1.8775    1.3307    4.4266 H   0  0  0  0  0  0  0  0  0  0  0  0
   -0.6678    0.0287    4.5244 H   0  0  0  0  0  0  0  0  0  0  0  0
  5  6  2  0  0  0  0
  5  7  1  0  0  0  0
  2  3  1  0  0  0  0
  2  4  1  0  0  0  0
  2  5  1  0  0  0  0
  1  2  1  0  0  0  0
 24 25  2  0  0  0  0
 24 26  1  0  0  0  0
 20 21  1  0  0  0  0
 20 22  1  0  0  0  0
 20 23  1  0  0  0  0
 16 17  1  0  0  0  0
 16 18  1  0  0  0  0
 16 19  1  0  0  0  0
 14 15  1  0  0  0  0
 14 16  1  0  0  0  0
 14 20  1  0  0  0  0
 11 12  1  0  0  0  0
 11 13  1  0  0  0  0
 11 14  1  0  0  0  0
  9 10  1  0  0  0  0
  9 11  1  0  0  0  0
  9 24  1  0  0  0  0
  7  8  1  0  0  0  0
  7  9  1  0  0  0  0
 28 29  1  0  0  0  0
 28 30  1  0  0  0  0
 28 31  1  0  0  0  0
 26 27  1  0  0  0  0
 26 28  1  0  0  0  0
M  END
$$$$
default_name
  -OEChem-02102213163D

 31 30  0     1  0  0  0  0  0999 V2000
   -3.5895   -3.5013    1.1082 H   0  0  0  0  0  0  0  0  0  0  0  0
   -3.5145   -2.5363    0.6082 C   0  0  0  0  0  0  0  0  0  0  0  0
   -4.2285   -1.8413    1.0452 H   0  0  0  0  0  0  0  0  0  0  0  0
   -3.7155   -2.6583   -0.4538 H   0  0  0  0  0  0  0  0  0  0  0  0
   -2.1155   -1.9963    0.7922 C   0  0  0  0  0  0  0  0  0  0  0  0
   -1.2875   -2.6383    1.4252 O   0  0  0  0  0  0  0  0  0  0  0  0
   -1.8575   -0.8123    0.2402 N   0  0  0  0  0  0  0  0  0  0  0  0
   -2.6005   -0.3333   -0.2478 H   0  0  0  0  0  0  0  0  0  0  0  0
   -0.5675   -0.1203    0.3102 C   0  0  1  0  0  0  0  0  0  0  0  0
    0.1932   -0.7715   -0.1219 H   0  0  0  0  0  0  0  0  0  0  0  0
   -0.6568    1.1713   -0.5294 C   0  0  0  0  0  0  0  0  0  0  0  0
    0.2078    1.7971   -0.2994 H   0  0  0  0  0  0  0  0  0  0  0  0
   -0.5927    0.8934   -1.5838 H   0  0  0  0  0  0  0  0  0  0  0  0
   -1.9319    2.0114   -0.3320 C   0  0  0  0  0  0  0  0  0  0  0  0
   -1.7080    2.8808    0.2860 H   0  0  0  0  0  0  0  0  0  0  0  0
   -2.5252    2.4852   -1.6619 C   0  0  0  0  0  0  0  0  0  0  0  0
   -2.7400    1.6260   -2.2988 H   0  0  0  0  0  0  0  0  0  0  0  0
   -3.4500    3.0322   -1.4773 H   0  0  0  0  0  0  0  0  0  0  0  0
   -1.8319    3.1457   -2.1782 H   0  0  0  0  0  0  0  0  0  0  0  0
   -2.9920    1.1792    0.3886 C   0  0  0  0  0  0  0  0  0  0  0  0
   -2.6080    0.8540    1.3555 H   0  0  0  0  0  0  0  0  0  0  0  0
   -3.8859    1.7804    0.5542 H   0  0  0  0  0  0  0  0  0  0  0  0
   -3.2522    0.3042   -0.2081 H   0  0  0  0  0  0  0  0  0  0  0  0
   -0.1913    0.1554    1.7759 C   0  0  0  0  0  0  0  0  0  0  0  0
    0.9476   -0.0766    2.1748 O   0  0  0  0  0  0  0  0  0  0  0  0
   -1.1502    0.6393    2.5760 N   0  0  0  0  0  0  0  0  0  0  0  0
   -2.0581    0.8092    2.1736 H   0  0  0  0  0  0  0  0  0  0  0  0
   -0.9568    0.9369    3.9933 C   0  0  0  0  0  0  0  0  0  0  0  0
   -0.1600    1.6750    4.1097 H   0  0  0  0  0  0  0  0  0  0  0  0
   -1.8775    1.3307    4.4266 H   0  0  0  0  0  0  0  0  0  0  0  0
   -0.6678    0.0287    4.5244 H   0  0  0  0  0  0  0  0  0  0  0  0
  5  6  2  0  0  0  0
  5  7  1  0  0  0  0
  2  3  1  0  0  0  0
  2  4  1  0  0  0  0
  2  5  1  0  0  0  0
  1  2  1  0  0  0  0
 24 25  2  0  0  0  0
 24 26  1  0  0  0  0
 20 21  1  0  0  0  0
 20 22  1  0  0  0  0
 20 23  1  0  0  0  0
 16 17  1  0  0  0  0
 16 18  1  0  0  0  0
 16 19  1  0  0  0  0
 14 15  1  0  0  0  0
 14 16  1  0  0  0  0
 14 20  1  0  0  0  0
 11 12  1  0  0  0  0
 11 13  1  0  0  0  0
 11 14  1  0  0  0  0
  9 10  1  0  0  0  0
  9 11  1  0  0  0  0
  9 24  1  0  0  0  0
  7  8  1  0  0  0  0
  7  9  1  0  0  0  0
 28 29  1  0  0  0  0
 28 30  1  0  0  0  0
 28 31  1  0  0  0  0
 26 27  1  0  0  0  0
 26 28  1  0  0  0  0
M  END
$$$$
default_name
  -OEChem-02102213163D

 31 30  0     1  0  0  0  0  0999 V2000
   -3.5895   -3.5013    1.1082 H   0  0  0  0  0  0  0  0  0  0  0  0
   -3.5145   -2.5363    0.6082 C   0  0  0  0  0  0  0  0  0  0  0  0
   -4.2285   -1.8413    1.0452 H   0  0  0  0  0  0  0  0  0  0  0  0
   -3.7155   -2.6583   -0.4538 H   0  0  0  0  0  0  0  0  0  0  0  0
   -2.1155   -1.9963    0.7922 C   0  0  0  0  0  0  0  0  0  0  0  0
   -1.2875   -2.6383    1.4252 O   0  0  0  0  0  0  0  0  0  0  0  0
   -1.8575   -0.8123    0.2402 N   0  0  0  0  0  0  0  0  0  0  0  0
   -2.6005   -0.3333   -0.2478 H   0  0  0  0  0  0  0  0  0  0  0  0
   -0.5675   -0.1203    0.3102 C   0  0  1  0  0  0  0  0  0  0  0  0
    0.1932   -0.7715   -0.1219 H   0  0  0  0  0  0  0  0  0  0  0  0
   -0.6568    1.1713   -0.5294 C   0  0  0  0  0  0  0  0  0  0  0  0
    0.2078    1.7971   -0.2994 H   0  0  0  0  0  0  0  0  0  0  0  0
   -0.5927    0.8934   -1.5838 H   0  0  0  0  0  0  0  0  0  0  0  0
   -1.9319    2.0114   -0.3320 C   0  0  0  0  0  0  0  0  0  0  0  0
   -1.6676    2.9980    0.0486 H   0  0  0  0  0  0  0  0  0  0  0  0
   -2.7249    2.1751   -1.6319 C   0  0  0  0  0  0  0  0  0  0  0  0
   -2.9833    1.1946   -2.0342 H   0  0  0  0  0  0  0  0  0  0  0  0
   -3.6410    2.7325   -1.4354 H   0  0  0  0  0  0  0  0  0  0  0  0
   -2.1421    2.7202   -2.3713 H   0  0  0  0  0  0  0  0  0  0  0  0
   -2.8410    1.3364    0.6944 C   0  0  0  0  0  0  0  0  0  0  0  0
   -2.3124    1.2354    1.6422 H   0  0  0  0  0  0  0  0  0  0  0  0
   -3.7318    1.9433    0.8564 H   0  0  0  0  0  0  0  0  0  0  0  0
   -3.1381    0.3484    0.3408 H   0  0  0  0  0  0  0  0  0  0  0  0
   -0.1913    0.1554    1.7759 C   0  0  0  0  0  0  0  0  0  0  0  0
    0.9476   -0.0766    2.1748 O   0  0  0  0  0  0  0  0  0  0  0  0
   -1.1502    0.6393    2.5760 N   0  0  0  0  0  0  0  0  0  0  0  0
   -2.0581    0.8092    2.1736 H   0  0  0  0  0  0  0  0  0  0  0  0
   -0.9568    0.9369    3.9933 C   0  0  0  0  0  0  0  0  0  0  0  0
   -0.1600    1.6750    4.1097 H   0  0  0  0  0  0  0  0  0  0  0  0
   -1.8775    1.3307    4.4266 H   0  0  0  0  0  0  0  0  0  0  0  0
   -0.6678    0.0287    4.5244 H   0  0  0  0  0  0  0  0  0  0  0  0
  5  6  2  0  0  0  0
  5  7  1  0  0  0  0
  2  3  1  0  0  0  0
  2  4  1  0  0  0  0
  2  5  1  0  0  0  0
  1  2  1  0  0  0  0
 24 25  2  0  0  0  0
 24 26  1  0  0  0  0
 20 21  1  0  0  0  0
 20 22  1  0  0  0  0
 20 23  1  0  0  0  0
 16 17  1  0  0  0  0
 16 18  1  0  0  0  0
 16 19  1  0  0  0  0
 14 15  1  0  0  0  0
 14 16  1  0  0  0  0
 14 20  1  0  0  0  0
 11 12  1  0  0  0  0
 11 13  1  0  0  0  0
 11 14  1  0  0  0  0
  9 10  1  0  0  0  0
  9 11  1  0  0  0  0
  9 24  1  0  0  0  0
  7  8  1  0  0  0  0
  7  9  1  0  0  0  0
 28 29  1  0  0  0  0
 28 30  1  0  0  0  0
 28 31  1  0  0  0  0
 26 27  1  0  0  0  0
 26 28  1  0  0  0  0
M  END
$$$$
default_name
  -OEChem-02102213163D

 31 30  0     1  0  0  0  0  0999 V2000
   -3.5895   -3.5013    1.1082 H   0  0  0  0  0  0  0  0  0  0  0  0
   -3.5145   -2.5363    0.6082 C   0  0  0  0  0  0  0  0  0  0  0  0
   -4.2285   -1.8413    1.0452 H   0  0  0  0  0  0  0  0  0  0  0  0
   -3.7155   -2.6583   -0.4538 H   0  0  0  0  0  0  0  0  0  0  0  0
   -2.1155   -1.9963    0.7922 C   0  0  0  0  0  0  0  0  0  0  0  0
   -1.2875   -2.6383    1.4252 O   0  0  0  0  0  0  0  0  0  0  0  0
   -1.8575   -0.8123    0.2402 N   0  0  0  0  0  0  0  0  0  0  0  0
   -2.6005   -0.3333   -0.2478 H   0  0  0  0  0  0  0  0  0  0  0  0
   -0.5675   -0.1203    0.3102 C   0  0  1  0  0  0  0  0  0  0  0  0
    0.1932   -0.7715   -0.1219 H   0  0  0  0  0  0  0  0  0  0  0  0
   -0.6568    1.1713   -0.5294 C   0  0  0  0  0  0  0  0  0  0  0  0
    0.2078    1.7971   -0.2994 H   0  0  0  0  0  0  0  0  0  0  0  0
   -0.5927    0.8934   -1.5838 H   0  0  0  0  0  0  0  0  0  0  0  0
   -1.9319    2.0114   -0.3320 C   0  0  0  0  0  0  0  0  0  0  0  0
   -1.6660    3.0615   -0.2116 H   0  0  0  0  0  0  0  0  0  0  0  0
   -2.9032    1.8753   -1.5082 C   0  0  0  0  0  0  0  0  0  0  0  0
   -3.1666    0.8265   -1.6518 H   0  0  0  0  0  0  0  0  0  0  0  0
   -3.8095    2.4457   -1.3038 H   0  0  0  0  0  0  0  0  0  0  0  0
   -2.4549    2.2575   -2.4227 H   0  0  0  0  0  0  0  0  0  0  0  0
   -2.6573    1.5588    0.9347 C   0  0  0  0  0  0  0  0  0  0  0  0
   -1.9990    1.6750    1.7956 H   0  0  0  0  0  0  0  0  0  0  0  0
   -3.5457    2.1705    1.0917 H   0  0  0  0  0  0  0  0  0  0  0  0
   -2.9518    0.5126    0.8455 H   0  0  0  0  0  0  0  0  0  0  0  0
   -0.1913    0.1554    1.7759 C   0  0  0  0  0  0  0  0  0  0  0  0
    0.9476   -0.0766    2.1748 O   0  0  0  0  0  0  0  0  0  0  0  0
   -1.1502    0.6393    2.5760 N   0  0  0  0  0  0  0  0  0  0  0  0
   -2.0581    0.8092    2.1736 H   0  0  0  0  0  0  0  0  0  0  0  0
   -0.9568    0.9369    3.9933 C   0  0  0  0  0  0  0  0  0  0  0  0
   -0.1600    1.6750    4.1097 H   0  0  0  0  0  0  0  0  0  0  0  0
   -1.8775    1.3307    4.4266 H   0  0  0  0  0  0  0  0  0  0  0  0
   -0.6678    0.0287    4.5244 H   0  0  0  0  0  0  0  0  0  0  0  0
  5  6  2  0  0  0  0
  5  7  1  0  0  0  0
  2  3  1  0  0  0  0
  2  4  1  0  0  0  0
  2  5  1  0  0  0  0
  1  2  1  0  0  0  0
 24 25  2  0  0  0  0
 24 26  1  0  0  0  0
 20 21  1  0  0  0  0
 20 22  1  0  0  0  0
 20 23  1  0  0  0  0
 16 17  1  0  0  0  0
 16 18  1  0  0  0  0
 16 19  1  0  0  0  0
 14 15  1  0  0  0  0
 14 16  1  0  0  0  0
 14 20  1  0  0  0  0
 11 12  1  0  0  0  0
 11 13  1  0  0  0  0
 11 14  1  0  0  0  0
  9 10  1  0  0  0  0
  9 11  1  0  0  0  0
  9 24  1  0  0  0  0
  7  8  1  0  0  0  0
  7  9  1  0  0  0  0
 28 29  1  0  0  0  0
 28 30  1  0  0  0  0
 28 31  1  0  0  0  0
 26 27  1  0  0  0  0
 26 28  1  0  0  0  0
M  END
$$$$
default_name
  -OEChem-02102213163D

 31 30  0     1  0  0  0  0  0999 V2000
   -3.5895   -3.5013    1.1082 H   0  0  0  0  0  0  0  0  0  0  0  0
   -3.5145   -2.5363    0.6082 C   0  0  0  0  0  0  0  0  0  0  0  0
   -4.2285   -1.8413    1.0452 H   0  0  0  0  0  0  0  0  0  0  0  0
   -3.7155   -2.6583   -0.4538 H   0  0  0  0  0  0  0  0  0  0  0  0
   -2.1155   -1.9963    0.7922 C   0  0  0  0  0  0  0  0  0  0  0  0
   -1.2875   -2.6383    1.4252 O   0  0  0  0  0  0  0  0  0  0  0  0
   -1.8575   -0.8123    0.2402 N   0  0  0  0  0  0  0  0  0  0  0  0
   -2.6005   -0.3333   -0.2478 H   0  0  0  0  0  0  0  0  0  0  0  0
   -0.5675   -0.1203    0.3102 C   0  0  1  0  0  0  0  0  0  0  0  0
    0.1932   -0.7715   -0.1219 H   0  0  0  0  0  0  0  0  0  0  0  0
   -0.6568    1.1713   -0.5294 C   0  0  0  0  0  0  0  0  0  0  0  0
    0.2078    1.7971   -0.2994 H   0  0  0  0  0  0  0  0  0  0  0  0
   -0.5927    0.8934   -1.5838 H   0  0  0  0  0  0  0  0  0  0  0  0
   -1.9319    2.0114   -0.3320 C   0  0  0  0  0  0  0  0  0  0  0  0
   -1.7033    3.0672   -0.4767 H   0  0  0  0  0  0  0  0  0  0  0  0
   -3.0480    1.6064   -1.2993 C   0  0  0  0  0  0  0  0  0  0  0  0
   -3.2774    0.5469   -1.1776 H   0  0  0  0  0  0  0  0  0  0  0  0
   -3.9442    2.1913   -1.0914 H   0  0  0  0  0  0  0  0  0  0  0  0
   -2.7489    1.7892   -2.3291 H   0  0  0  0  0  0  0  0  0  0  0  0
   -2.4533    1.8313    1.0932 C   0  0  0  0  0  0  0  0  0  0  0  0
   -1.6892    2.1430    1.8053 H   0  0  0  0  0  0  0  0  0  0  0  0
   -3.3403    2.4465    1.2440 H   0  0  0  0  0  0  0  0  0  0  0  0
   -2.7061    0.7855    1.2714 H   0  0  0  0  0  0  0  0  0  0  0  0
   -0.1913    0.1554    1.7759 C   0  0  0  0  0  0  0  0  0  0  0  0
    0.9476   -0.0766    2.1748 O   0  0  0  0  0  0  0  0  0  0  0  0
   -1.1502    0.6393    2.5760 N   0  0  0  0  0  0  0  0  0  0  0  0
   -2.0581    0.8092    2.1736 H   0  0  0  0  0  0  0  0  0  0  0  0
   -0.9568    0.9369    3.9933 C   0  0  0  0  0  0  0  0  0  0  0  0
   -0.1600    1.6750    4.1097 H   0  0  0  0  0  0  0  0  0  0  0  0
   -1.8775    1.3307    4.4266 H   0  0  0  0  0  0  0  0  0  0  0  0
   -0.6678    0.0287    4.5244 H   0  0  0  0  0  0  0  0  0  0  0  0
  5  6  2  0  0  0  0
  5  7  1  0  0  0  0
  2  3  1  0  0  0  0
  2  4  1  0  0  0  0
  2  5  1  0  0  0  0
  1  2  1  0  0  0  0
 24 25  2  0  0  0  0
 24 26  1  0  0  0  0
 20 21  1  0  0  0  0
 20 22  1  0  0  0  0
 20 23  1  0  0  0  0
 16 17  1  0  0  0  0
 16 18  1  0  0  0  0
 16 19  1  0  0  0  0
 14 15  1  0  0  0  0
 14 16  1  0  0  0  0
 14 20  1  0  0  0  0
 11 12  1  0  0  0  0
 11 13  1  0  0  0  0
 11 14  1  0  0  0  0
  9 10  1  0  0  0  0
  9 11  1  0  0  0  0
  9 24  1  0  0  0  0
  7  8  1  0  0  0  0
  7  9  1  0  0  0  0
 28 29  1  0  0  0  0
 28 30  1  0  0  0  0
 28 31  1  0  0  0  0
 26 27  1  0  0  0  0
 26 28  1  0  0  0  0
M  END
$$$$
default_name
  -OEChem-02102213163D

 31 30  0     1  0  0  0  0  0999 V2000
   -3.5895   -3.5013    1.1082 H   0  0  0  0  0  0  0  0  0  0  0  0
   -3.5145   -2.5363    0.6082 C   0  0  0  0  0  0  0  0  0  0  0  0
   -4.2285   -1.8413    1.0452 H   0  0  0  0  0  0  0  0  0  0  0  0
   -3.7155   -2.6583   -0.4538 H   0  0  0  0  0  0  0  0  0  0  0  0
   -2.1155   -1.9963    0.7922 C   0  0  0  0  0  0  0  0  0  0  0  0
   -1.2875   -2.6383    1.4252 O   0  0  0  0  0  0  0  0  0  0  0  0
   -1.8575   -0.8123    0.2402 N   0  0  0  0  0  0  0  0  0  0  0  0
   -2.6005   -0.3333   -0.2478 H   0  0  0  0  0  0  0  0  0  0  0  0
   -0.5675   -0.1203    0.3102 C   0  0  1  0  0  0  0  0  0  0  0  0
    0.1932   -0.7715   -0.1219 H   0  0  0  0  0  0  0  0  0  0  0  0
   -0.6568    1.1713   -0.5294 C   0  0  0  0  0  0  0  0  0  0  0  0
    0.2078    1.7971   -0.2994 H   0  0  0  0  0  0  0  0  0  0  0  0
   -0.5927    0.8934   -1.5838 H   0  0  0  0  0  0  0  0  0  0  0  0
   -1.9319    2.0114   -0.3320 C   0  0  0  0  0  0  0  0  0  0  0  0
   -1.7769    3.0147   -0.7288 H   0  0  0  0  0  0  0  0  0  0  0  0
   -3.1495    1.3865   -1.0194 C   0  0  0  0  0  0  0  0  0  0  0  0
   -3.3082    0.3747   -0.6440 H   0  0  0  0  0  0  0  0  0  0  0  0
   -4.0359    1.9866   -0.8126 H   0  0  0  0  0  0  0  0  0  0  0  0
   -3.0042    1.3471   -2.0968 H   0  0  0  0  0  0  0  0  0  0  0  0
   -2.2428    2.1352    1.1591 C   0  0  0  0  0  0  0  0  0  0  0  0
   -1.4041    2.6074    1.6706 H   0  0  0  0  0  0  0  0  0  0  0  0
   -3.1296    2.7526    1.3029 H   0  0  0  0  0  0  0  0  0  0  0  0
   -2.4176    1.1486    1.5896 H   0  0  0  0  0  0  0  0  0  0  0  0
   -0.1913    0.1554    1.7759 C   0  0  0  0  0  0  0  0  0  0  0  0
    0.9476   -0.0766    2.1748 O   0  0  0  0  0  0  0  0  0  0  0  0
   -1.1502    0.6393    2.5760 N   0  0  0  0  0  0  0  0  0  0  0  0
   -2.0581    0.8092    2.1736 H   0  0  0  0  0  0  0  0  0  0  0  0
   -0.9568    0.9369    3.9933 C   0  0  0  0  0  0  0  0  0  0  0  0
   -0.1600    1.6750    4.1097 H   0  0  0  0  0  0  0  0  0  0  0  0
   -1.8775    1.3307    4.4266 H   0  0  0  0  0  0  0  0  0  0  0  0
   -0.6678    0.0287    4.5244 H   0  0  0  0  0  0  0  0  0  0  0  0
  5  6  2  0  0  0  0
  5  7  1  0  0  0  0
  2  3  1  0  0  0  0
  2  4  1  0  0  0  0
  2  5  1  0  0  0  0
  1  2  1  0  0  0  0
 24 25  2  0  0  0  0
 24 26  1  0  0  0  0
 20 21  1  0  0  0  0
 20 22  1  0  0  0  0
 20 23  1  0  0  0  0
 16 17  1  0  0  0  0
 16 18  1  0  0  0  0
 16 19  1  0  0  0  0
 14 15  1  0  0  0  0
 14 16  1  0  0  0  0
 14 20  1  0  0  0  0
 11 12  1  0  0  0  0
 11 13  1  0  0  0  0
 11 14  1  0  0  0  0
  9 10  1  0  0  0  0
  9 11  1  0  0  0  0
  9 24  1  0  0  0  0
  7  8  1  0  0  0  0
  7  9  1  0  0  0  0
 28 29  1  0  0  0  0
 28 30  1  0  0  0  0
 28 31  1  0  0  0  0
 26 27  1  0  0  0  0
 26 28  1  0  0  0  0
M  END
$$$$
default_name
  -OEChem-02102213163D

 31 30  0     1  0  0  0  0  0999 V2000
   -3.5895   -3.5013    1.1082 H   0  0  0  0  0  0  0  0  0  0  0  0
   -3.5145   -2.5363    0.6082 C   0  0  0  0  0  0  0  0  0  0  0  0
   -4.2285   -1.8413    1.0452 H   0  0  0  0  0  0  0  0  0  0  0  0
   -3.7155   -2.6583   -0.4538 H   0  0  0  0  0  0  0  0  0  0  0  0
   -2.1155   -1.9963    0.7922 C   0  0  0  0  0  0  0  0  0  0  0  0
   -1.2875   -2.6383    1.4252 O   0  0  0  0  0  0  0  0  0  0  0  0
   -1.8575   -0.8123    0.2402 N   0  0  0  0  0  0  0  0  0  0  0  0
   -2.6005   -0.3333   -0.2478 H   0  0  0  0  0  0  0  0  0  0  0  0
   -0.5675   -0.1203    0.3102 C   0  0  1  0  0  0  0  0  0  0  0  0
    0.1932   -0.7715   -0.1219 H   0  0  0  0  0  0  0  0  0  0  0  0
   -0.6568    1.1713   -0.5294 C   0  0  0  0  0  0  0  0  0  0  0  0
    0.2078    1.7971   -0.2994 H   0  0  0  0  0  0  0  0  0  0  0  0
   -0.5927    0.8934   -1.5838 H   0  0  0  0  0  0  0  0  0  0  0  0
   -1.9319    2.0114   -0.3320 C   0  0  0  0  0  0  0  0  0  0  0  0
   -1.8819    2.9074   -0.9506 H   0  0  0  0  0  0  0  0  0  0  0  0
   -3.2007    1.2309   -0.6876 C   0  0  0  0  0  0  0  0  0  0  0  0
   -3.2568    0.3217   -0.0873 H   0  0  0  0  0  0  0  0  0  0  0  0
   -4.0783    1.8456   -0.4866 H   0  0  0  0  0  0  0  0  0  0  0  0
   -3.2033    0.9615   -1.7415 H   0  0  0  0  0  0  0  0  0  0  0  0
   -2.0404    2.4499    1.1279 C   0  0  0  0  0  0  0  0  0  0  0  0
   -1.1632    3.0365    1.4007 H   0  0  0  0  0  0  0  0  0  0  0  0
   -2.9278    3.0679    1.2645 H   0  0  0  0  0  0  0  0  0  0  0  0
   -2.1061    1.5770    1.7784 H   0  0  0  0  0  0  0  0  0  0  0  0
   -0.1913    0.1554    1.7759 C   0  0  0  0  0  0  0  0  0  0  0  0
    0.9476   -0.0766    2.1748 O   0  0  0  0  0  0  0  0  0  0  0  0
   -1.1502    0.6393    2.5760 N   0  0  0  0  0  0  0  0  0  0  0  0
   -2.0581    0.8092    2.1736 H   0  0  0  0  0  0  0  0  0  0  0  0
   -0.9568    0.9369    3.9933 C   0  0  0  0  0  0  0  0  0  0  0  0
   -0.1600    1.6750    4.1097 H   0  0  0  0  0  0  0  0  0  0  0  0
   -1.8775    1.3307    4.4266 H   0  0  0  0  0  0  0  0  0  0  0  0
   -0.6678    0.0287    4.5244 H   0  0  0  0  0  0  0  0  0  0  0  0
  5  6  2  0  0  0  0
  5  7  1  0  0  0  0
  2  3  1  0  0  0  0
  2  4  1  0  0  0  0
  2  5  1  0  0  0  0
  1  2  1  0  0  0  0
 24 25  2  0  0  0  0
 24 26  1  0  0  0  0
 20 21  1  0  0  0  0
 20 22  1  0  0  0  0
 20 23  1  0  0  0  0
 16 17  1  0  0  0  0
 16 18  1  0  0  0  0
 16 19  1  0  0  0  0
 14 15  1  0  0  0  0
 14 16  1  0  0  0  0
 14 20  1  0  0  0  0
 11 12  1  0  0  0  0
 11 13  1  0  0  0  0
 11 14  1  0  0  0  0
  9 10  1  0  0  0  0
  9 11  1  0  0  0  0
  9 24  1  0  0  0  0
  7  8  1  0  0  0  0
  7  9  1  0  0  0  0
 28 29  1  0  0  0  0
 28 30  1  0  0  0  0
 28 31  1  0  0  0  0
 26 27  1  0  0  0  0
 26 28  1  0  0  0  0
M  END
$$$$
default_name
  -OEChem-02102213163D

 31 30  0     1  0  0  0  0  0999 V2000
   -3.5895   -3.5013    1.1082 H   0  0  0  0  0  0  0  0  0  0  0  0
   -3.5145   -2.5363    0.6082 C   0  0  0  0  0  0  0  0  0  0  0  0
   -4.2285   -1.8413    1.0452 H   0  0  0  0  0  0  0  0  0  0  0  0
   -3.7155   -2.6583   -0.4538 H   0  0  0  0  0  0  0  0  0  0  0  0
   -2.1155   -1.9963    0.7922 C   0  0  0  0  0  0  0  0  0  0  0  0
   -1.2875   -2.6383    1.4252 O   0  0  0  0  0  0  0  0  0  0  0  0
   -1.8575   -0.8123    0.2402 N   0  0  0  0  0  0  0  0  0  0  0  0
   -2.6005   -0.3333   -0.2478 H   0  0  0  0  0  0  0  0  0  0  0  0
   -0.5675   -0.1203    0.3102 C   0  0  1  0  0  0  0  0  0  0  0  0
    0.1932   -0.7715   -0.1219 H   0  0  0  0  0  0  0  0  0  0  0  0
   -0.6568    1.1713   -0.5294 C   0  0  0  0  0  0  0  0  0  0  0  0
    0.2078    1.7971   -0.2994 H   0  0  0  0  0  0  0  0  0  0  0  0
   -0.5927    0.8934   -1.5838 H   0  0  0  0  0  0  0  0  0  0  0  0
   -1.9319    2.0114   -0.3320 C   0  0  0  0  0  0  0  0  0  0  0  0
   -2.0111    2.7528   -1.1271 H   0  0  0  0  0  0  0  0  0  0  0  0
   -3.1981    1.1499   -0.3265 C   0  0  0  0  0  0  0  0  0  0  0  0
   -3.1269    0.3916    0.4545 H   0  0  0  0  0  0  0  0  0  0  0  0
   -4.0686    1.7779   -0.1354 H   0  0  0  0  0  0  0  0  0  0  0  0
   -3.3326    0.6585   -1.2876 H   0  0  0  0  0  0  0  0  0  0  0  0
   -1.8597    2.7539    1.0018 C   0  0  0  0  0  0  0  0  0  0  0  0
   -0.9828    3.4012    1.0140 H   0  0  0  0  0  0  0  0  0  0  0  0
   -2.7488    3.3709    1.1312 H   0  0  0  0  0  0  0  0  0  0  0  0
   -1.7928    2.0417    1.8250 H   0  0  0  0  0  0  0  0  0  0  0  0
   -0.1913    0.1554    1.7759 C   0  0  0  0  0  0  0  0  0  0  0  0
    0.9476   -0.0766    2.1748 O   0  0  0  0  0  0  0  0  0  0  0  0
   -1.1502    0.6393    2.5760 N   0  0  0  0  0  0  0  0  0  0  0  0
   -2.0581    0.8092    2.1736 H   0  0  0  0  0  0  0  0  0  0  0  0
   -0.9568    0.9369    3.9933 C   0  0  0  0  0  0  0  0  0  0  0  0
   -0.1600    1.6750    4.1097 H   0  0  0  0  0  0  0  0  0  0  0  0
   -1.8775    1.3307    4.4266 H   0  0  0  0  0  0  0  0  0  0  0  0
   -0.6678    0.0287    4.5244 H   0  0  0  0  0  0  0  0  0  0  0  0
  5  6  2  0  0  0  0
  5  7  1  0  0  0  0
  2  3  1  0  0  0  0
  2  4  1  0  0  0  0
  2  5  1  0  0  0  0
  1  2  1  0  0  0  0
 24 25  2  0  0  0  0
 24 26  1  0  0  0  0
 20 21  1  0  0  0  0
 20 22  1  0  0  0  0
 20 23  1  0  0  0  0
 16 17  1  0  0  0  0
 16 18  1  0  0  0  0
 16 19  1  0  0  0  0
 14 15  1  0  0  0  0
 14 16  1  0  0  0  0
 14 20  1  0  0  0  0
 11 12  1  0  0  0  0
 11 13  1  0  0  0  0
 11 14  1  0  0  0  0
  9 10  1  0  0  0  0
  9 11  1  0  0  0  0
  9 24  1  0  0  0  0
  7  8  1  0  0  0  0
  7  9  1  0  0  0  0
 28 29  1  0  0  0  0
 28 30  1  0  0  0  0
 28 31  1  0  0  0  0
 26 27  1  0  0  0  0
 26 28  1  0  0  0  0
M  END
$$$$
default_name
  -OEChem-02102213163D

 31 30  0     1  0  0  0  0  0999 V2000
   -3.5895   -3.5013    1.1082 H   0  0  0  0  0  0  0  0  0  0  0  0
   -3.5145   -2.5363    0.6082 C   0  0  0  0  0  0  0  0  0  0  0  0
   -4.2285   -1.8413    1.0452 H   0  0  0  0  0  0  0  0  0  0  0  0
   -3.7155   -2.6583   -0.4538 H   0  0  0  0  0  0  0  0  0  0  0  0
   -2.1155   -1.9963    0.7922 C   0  0  0  0  0  0  0  0  0  0  0  0
   -1.2875   -2.6383    1.4252 O   0  0  0  0  0  0  0  0  0  0  0  0
   -1.8575   -0.8123    0.2402 N   0  0  0  0  0  0  0  0  0  0  0  0
   -2.6005   -0.3333   -0.2478 H   0  0  0  0  0  0  0  0  0  0  0  0
   -0.5675   -0.1203    0.3102 C   0  0  1  0  0  0  0  0  0  0  0  0
    0.1932   -0.7715   -0.1219 H   0  0  0  0  0  0  0  0  0  0  0  0
   -0.6568    1.1713   -0.5294 C   0  0  0  0  0  0  0  0  0  0  0  0
    0.2078    1.7971   -0.2994 H   0  0  0  0  0  0  0  0  0  0  0  0
   -0.5927    0.8934   -1.5838 H   0  0  0  0  0  0  0  0  0  0  0  0
   -1.9319    2.0114   -0.3320 C   0  0  0  0  0  0  0  0  0  0  0  0
   -2.1557    2.5613   -1.2461 H   0  0  0  0  0  0  0  0  0  0  0  0
   -3.1419    1.1492    0.0393 C   0  0  0  0  0  0  0  0  0  0  0  0
   -2.9272    0.5796    0.9446 H   0  0  0  0  0  0  0  0  0  0  0  0
   -4.0073    1.7880    0.2170 H   0  0  0  0  0  0  0  0  0  0  0  0
   -3.3833    0.4588   -0.7660 H   0  0  0  0  0  0  0  0  0  0  0  0
   -1.7130    3.0265    0.7892 C   0  0  0  0  0  0  0  0  0  0  0  0
   -0.8753    3.6766    0.5368 H   0  0  0  0  0  0  0  0  0  0  0  0
   -2.6048    3.6409    0.9123 H   0  0  0  0  0  0  0  0  0  0  0  0
   -1.4990    2.5110    1.7261 H   0  0  0  0  0  0  0  0  0  0  0  0
   -0.1913    0.1554    1.7759 C   0  0  0  0  0  0  0  0  0  0  0  0
    0.9476   -0.0766    2.1748 O   0  0  0  0  0  0  0  0  0  0  0  0
   -1.1502    0.6393    2.5760 N   0  0  0  0  0  0  0  0  0  0  0  0
   -2.0581    0.8092    2.1736 H   0  0  0  0  0  0  0  0  0  0  0  0
   -0.9568    0.9369    3.9933 C   0  0  0  0  0  0  0  0  0  0  0  0
   -0.1600    1.6750    4.1097 H   0  0  0  0  0  0  0  0  0  0  0  0
   -1.8775    1.3307    4.4266 H   0  0  0  0  0  0  0  0  0  0  0  0
   -0.6678    0.0287    4.5244 H   0  0  0  0  0  0  0  0  0  0  0  0
  5  6  2  0  0  0  0
  5  7  1  0  0  0  0
  2  3  1  0  0  0  0
  2  4  1  0  0  0  0
  2  5  1  0  0  0  0
  1  2  1  0  0  0  0
 24 25  2  0  0  0  0
 24 26  1  0  0  0  0
 20 21  1  0  0  0  0
 20 22  1  0  0  0  0
 20 23  1  0  0  0  0
 16 17  1  0  0  0  0
 16 18  1  0  0  0  0
 16 19  1  0  0  0  0
 14 15  1  0  0  0  0
 14 16  1  0  0  0  0
 14 20  1  0  0  0  0
 11 12  1  0  0  0  0
 11 13  1  0  0  0  0
 11 14  1  0  0  0  0
  9 10  1  0  0  0  0
  9 11  1  0  0  0  0
  9 24  1  0  0  0  0
  7  8  1  0  0  0  0
  7  9  1  0  0  0  0
 28 29  1  0  0  0  0
 28 30  1  0  0  0  0
 28 31  1  0  0  0  0
 26 27  1  0  0  0  0
 26 28  1  0  0  0  0
M  END
$$$$
default_name
  -OEChem-02102213163D

 31 30  0     1  0  0  0  0  0999 V2000
   -3.5895   -3.5013    1.1082 H   0  0  0  0  0  0  0  0  0  0  0  0
   -3.5145   -2.5363    0.6082 C   0  0  0  0  0  0  0  0  0  0  0  0
   -4.2285   -1.8413    1.0452 H   0  0  0  0  0  0  0  0  0  0  0  0
   -3.7155   -2.6583   -0.4538 H   0  0  0  0  0  0  0  0  0  0  0  0
   -2.1155   -1.9963    0.7922 C   0  0  0  0  0  0  0  0  0  0  0  0
   -1.2875   -2.6383    1.4252 O   0  0  0  0  0  0  0  0  0  0  0  0
   -1.8575   -0.8123    0.2402 N   0  0  0  0  0  0  0  0  0  0  0  0
   -2.6005   -0.3333   -0.2478 H   0  0  0  0  0  0  0  0  0  0  0  0
   -0.5675   -0.1203    0.3102 C   0  0  1  0  0  0  0  0  0  0  0  0
    0.1932   -0.7715   -0.1219 H   0  0  0  0  0  0  0  0  0  0  0  0
   -0.6568    1.1713   -0.5294 C   0  0  0  0  0  0  0  0  0  0  0  0
    0.2078    1.7971   -0.2994 H   0  0  0  0  0  0  0  0  0  0  0  0
   -0.5927    0.8934   -1.5838 H   0  0  0  0  0  0  0  0  0  0  0  0
   -1.9319    2.0114   -0.3320 C   0  0  0  0  0  0  0  0  0  0  0  0
   -2.3058    2.3460   -1.2996 H   0  0  0  0  0  0  0  0  0  0  0  0
   -3.0360    1.2288    0.3849 C   0  0  0  0  0  0  0  0  0  0  0  0
   -2.6713    0.8728    1.3494 H   0  0  0  0  0  0  0  0  0  0  0  0
   -3.8987    1.8754    0.5465 H   0  0  0  0  0  0  0  0  0  0  0  0
   -3.3521    0.3761   -0.2122 H   0  0  0  0  0  0  0  0  0  0  0  0
   -1.6104    3.2491    0.5047 C   0  0  0  0  0  0  0  0  0  0  0  0
   -0.8480    3.8438    0.0017 H   0  0  0  0  0  0  0  0  0  0  0  0
   -2.5056    3.8597    0.6227 H   0  0  0  0  0  0  0  0  0  0  0  0
   -1.2447    2.9528    1.4885 H   0  0  0  0  0  0  0  0  0  0  0  0
   -0.1913    0.1554    1.7759 C   0  0  0  0  0  0  0  0  0  0  0  0
    0.9476   -0.0766    2.1748 O   0  0  0  0  0  0  0  0  0  0  0  0
   -1.1502    0.6393    2.5760 N   0  0  0  0  0  0  0  0  0  0  0  0
   -2.0581    0.8092    2.1736 H   0  0  0  0  0  0  0  0  0  0  0  0
   -0.9568    0.9369    3.9933 C   0  0  0  0  0  0  0  0  0  0  0  0
   -0.1600    1.6750    4.1097 H   0  0  0  0  0  0  0  0  0  0  0  0
   -1.8775    1.3307    4.4266 H   0  0  0  0  0  0  0  0  0  0  0  0
   -0.6678    0.0287    4.5244 H   0  0  0  0  0  0  0  0  0  0  0  0
  5  6  2  0  0  0  0
  5  7  1  0  0  0  0
  2  3  1  0  0  0  0
  2  4  1  0  0  0  0
  2  5  1  0  0  0  0
  1  2  1  0  0  0  0
 24 25  2  0  0  0  0
 24 26  1  0  0  0  0
 20 21  1  0  0  0  0
 20 22  1  0  0  0  0
 20 23  1  0  0  0  0
 16 17  1  0  0  0  0
 16 18  1  0  0  0  0
 16 19  1  0  0  0  0
 14 15  1  0  0  0  0
 14 16  1  0  0  0  0
 14 20  1  0  0  0  0
 11 12  1  0  0  0  0
 11 13  1  0  0  0  0
 11 14  1  0  0  0  0
  9 10  1  0  0  0  0
  9 11  1  0  0  0  0
  9 24  1  0  0  0  0
  7  8  1  0  0  0  0
  7  9  1  0  0  0  0
 28 29  1  0  0  0  0
 28 30  1  0  0  0  0
 28 31  1  0  0  0  0
 26 27  1  0  0  0  0
 26 28  1  0  0  0  0
M  END
$$$$
default_name
  -OEChem-02102213163D

 31 30  0     1  0  0  0  0  0999 V2000
   -3.5895   -3.5013    1.1082 H   0  0  0  0  0  0  0  0  0  0  0  0
   -3.5145   -2.5363    0.6082 C   0  0  0  0  0  0  0  0  0  0  0  0
   -4.2285   -1.8413    1.0452 H   0  0  0  0  0  0  0  0  0  0  0  0
   -3.7155   -2.6583   -0.4538 H   0  0  0  0  0  0  0  0  0  0  0  0
   -2.1155   -1.9963    0.7922 C   0  0  0  0  0  0  0  0  0  0  0  0
   -1.2875   -2.6383    1.4252 O   0  0  0  0  0  0  0  0  0  0  0  0
   -1.8575   -0.8123    0.2402 N   0  0  0  0  0  0  0  0  0  0  0  0
   -2.6005   -0.3333   -0.2478 H   0  0  0  0  0  0  0  0  0  0  0  0
   -0.5675   -0.1203    0.3102 C   0  0  1  0  0  0  0  0  0  0  0  0
    0.1932   -0.7715   -0.1219 H   0  0  0  0  0  0  0  0  0  0  0  0
   -0.6568    1.1713   -0.5294 C   0  0  0  0  0  0  0  0  0  0  0  0
    0.2078    1.7971   -0.2994 H   0  0  0  0  0  0  0  0  0  0  0  0
   -0.5927    0.8934   -1.5838 H   0  0  0  0  0  0  0  0  0  0  0  0
   -1.9319    2.0114   -0.3320 C   0  0  0  0  0  0  0  0  0  0  0  0
   -2.4512    2.1216   -1.2840 H   0  0  0  0  0  0  0  0  0  0  0  0
   -2.8875    1.3832    0.6866 C   0  0  0  0  0  0  0  0  0  0  0  0
   -2.3768    1.2513    1.6415 H   0  0  0  0  0  0  0  0  0  0  0  0
   -3.7502    2.0341    0.8307 H   0  0  0  0  0  0  0  0  0  0  0  0
   -3.2410    0.4159    0.3361 H   0  0  0  0  0  0  0  0  0  0  0  0
   -1.5588    3.4065    0.1678 C   0  0  0  0  0  0  0  0  0  0  0  0
   -0.9027    3.8916   -0.5549 H   0  0  0  0  0  0  0  0  0  0  0  0
   -2.4579    4.0121    0.2820 H   0  0  0  0  0  0  0  0  0  0  0  0
   -1.0473    3.3371    1.1284 H   0  0  0  0  0  0  0  0  0  0  0  0
   -0.1913    0.1554    1.7759 C   0  0  0  0  0  0  0  0  0  0  0  0
    0.9476   -0.0766    2.1748 O   0  0  0  0  0  0  0  0  0  0  0  0
   -1.1502    0.6393    2.5760 N   0  0  0  0  0  0  0  0  0  0  0  0
   -2.0581    0.8092    2.1736 H   0  0  0  0  0  0  0  0  0  0  0  0
   -0.9568    0.9369    3.9933 C   0  0  0  0  0  0  0  0  0  0  0  0
   -0.1600    1.6750    4.1097 H   0  0  0  0  0  0  0  0  0  0  0  0
   -1.8775    1.3307    4.4266 H   0  0  0  0  0  0  0  0  0  0  0  0
   -0.6678    0.0287    4.5244 H   0  0  0  0  0  0  0  0  0  0  0  0
  5  6  2  0  0  0  0
  5  7  1  0  0  0  0
  2  3  1  0  0  0  0
  2  4  1  0  0  0  0
  2  5  1  0  0  0  0
  1  2  1  0  0  0  0
 24 25  2  0  0  0  0
 24 26  1  0  0  0  0
 20 21  1  0  0  0  0
 20 22  1  0  0  0  0
 20 23  1  0  0  0  0
 16 17  1  0  0  0  0
 16 18  1  0  0  0  0
 16 19  1  0  0  0  0
 14 15  1  0  0  0  0
 14 16  1  0  0  0  0
 14 20  1  0  0  0  0
 11 12  1  0  0  0  0
 11 13  1  0  0  0  0
 11 14  1  0  0  0  0
  9 10  1  0  0  0  0
  9 11  1  0  0  0  0
  9 24  1  0  0  0  0
  7  8  1  0  0  0  0
  7  9  1  0  0  0  0
 28 29  1  0  0  0  0
 28 30  1  0  0  0  0
 28 31  1  0  0  0  0
 26 27  1  0  0  0  0
 26 28  1  0  0  0  0
M  END
$$$$
default_name
  -OEChem-02102213163D

 31 30  0     1  0  0  0  0  0999 V2000
   -3.5895   -3.5013    1.1082 H   0  0  0  0  0  0  0  0  0  0  0  0
   -3.5145   -2.5363    0.6082 C   0  0  0  0  0  0  0  0  0  0  0  0
   -4.2285   -1.8413    1.0452 H   0  0  0  0  0  0  0  0  0  0  0  0
   -3.7155   -2.6583   -0.4538 H   0  0  0  0  0  0  0  0  0  0  0  0
   -2.1155   -1.9963    0.7922 C   0  0  0  0  0  0  0  0  0  0  0  0
   -1.2875   -2.6383    1.4252 O   0  0  0  0  0  0  0  0  0  0  0  0
   -1.8575   -0.8123    0.2402 N   0  0  0  0  0  0  0  0  0  0  0  0
   -2.6005   -0.3333   -0.2478 H   0  0  0  0  0  0  0  0  0  0  0  0
   -0.5675   -0.1203    0.3102 C   0  0  1  0  0  0  0  0  0  0  0  0
    0.1932   -0.7715   -0.1219 H   0  0  0  0  0  0  0  0  0  0  0  0
   -0.6568    1.1713   -0.5294 C   0  0  0  0  0  0  0  0  0  0  0  0
    0.2078    1.7971   -0.2994 H   0  0  0  0  0  0  0  0  0  0  0  0
   -0.5927    0.8934   -1.5838 H   0  0  0  0  0  0  0  0  0  0  0  0
   -1.9319    2.0114   -0.3320 C   0  0  0  0  0  0  0  0  0  0  0  0
   -2.5820    1.9034   -1.2003 H   0  0  0  0  0  0  0  0  0  0  0  0
   -2.7066    1.6020    0.9240 C   0  0  0  0  0  0  0  0  0  0  0  0
   -2.0636    1.6893    1.8008 H   0  0  0  0  0  0  0  0  0  0  0  0
   -3.5719    2.2532    1.0502 H   0  0  0  0  0  0  0  0  0  0  0  0
   -3.0575    0.5756    0.8415 H   0  0  0  0  0  0  0  0  0  0  0  0
   -1.5619    3.4881   -0.1987 C   0  0  0  0  0  0  0  0  0  0  0  0
   -1.0358    3.8166   -1.0950 H   0  0  0  0  0  0  0  0  0  0  0  0
   -2.4650    4.0879   -0.0865 H   0  0  0  0  0  0  0  0  0  0  0  0
   -0.9203    3.6376    0.6704 H   0  0  0  0  0  0  0  0  0  0  0  0
   -0.1913    0.1554    1.7759 C   0  0  0  0  0  0  0  0  0  0  0  0
    0.9476   -0.0766    2.1748 O   0  0  0  0  0  0  0  0  0  0  0  0
   -1.1502    0.6393    2.5760 N   0  0  0  0  0  0  0  0  0  0  0  0
   -2.0581    0.8092    2.1736 H   0  0  0  0  0  0  0  0  0  0  0  0
   -0.9568    0.9369    3.9933 C   0  0  0  0  0  0  0  0  0  0  0  0
   -0.1600    1.6750    4.1097 H   0  0  0  0  0  0  0  0  0  0  0  0
   -1.8775    1.3307    4.4266 H   0  0  0  0  0  0  0  0  0  0  0  0
   -0.6678    0.0287    4.5244 H   0  0  0  0  0  0  0  0  0  0  0  0
  5  6  2  0  0  0  0
  5  7  1  0  0  0  0
  2  3  1  0  0  0  0
  2  4  1  0  0  0  0
  2  5  1  0  0  0  0
  1  2  1  0  0  0  0
 24 25  2  0  0  0  0
 24 26  1  0  0  0  0
 20 21  1  0  0  0  0
 20 22  1  0  0  0  0
 20 23  1  0  0  0  0
 16 17  1  0  0  0  0
 16 18  1  0  0  0  0
 16 19  1  0  0  0  0
 14 15  1  0  0  0  0
 14 16  1  0  0  0  0
 14 20  1  0  0  0  0
 11 12  1  0  0  0  0
 11 13  1  0  0  0  0
 11 14  1  0  0  0  0
  9 10  1  0  0  0  0
  9 11  1  0  0  0  0
  9 24  1  0  0  0  0
  7  8  1  0  0  0  0
  7  9  1  0  0  0  0
 28 29  1  0  0  0  0
 28 30  1  0  0  0  0
 28 31  1  0  0  0  0
 26 27  1  0  0  0  0
 26 28  1  0  0  0  0
M  END
$$$$
default_name
  -OEChem-02102213163D

 31 30  0     1  0  0  0  0  0999 V2000
   -3.5895   -3.5013    1.1082 H   0  0  0  0  0  0  0  0  0  0  0  0
   -3.5145   -2.5363    0.6082 C   0  0  0  0  0  0  0  0  0  0  0  0
   -4.2285   -1.8413    1.0452 H   0  0  0  0  0  0  0  0  0  0  0  0
   -3.7155   -2.6583   -0.4538 H   0  0  0  0  0  0  0  0  0  0  0  0
   -2.1155   -1.9963    0.7922 C   0  0  0  0  0  0  0  0  0  0  0  0
   -1.2875   -2.6383    1.4252 O   0  0  0  0  0  0  0  0  0  0  0  0
   -1.8575   -0.8123    0.2402 N   0  0  0  0  0  0  0  0  0  0  0  0
   -2.6005   -0.3333   -0.2478 H   0  0  0  0  0  0  0  0  0  0  0  0
   -0.5675   -0.1203    0.3102 C   0  0  1  0  0  0  0  0  0  0  0  0
    0.1932   -0.7715   -0.1219 H   0  0  0  0  0  0  0  0  0  0  0  0
   -0.6568    1.1713   -0.5294 C   0  0  0  0  0  0  0  0  0  0  0  0
    0.2078    1.7971   -0.2994 H   0  0  0  0  0  0  0  0  0  0  0  0
   -0.5927    0.8934   -1.5838 H   0  0  0  0  0  0  0  0  0  0  0  0
   -1.9319    2.0114   -0.3320 C   0  0  0  0  0  0  0  0  0  0  0  0
   -2.6893    1.7063   -1.0542 H   0  0  0  0  0  0  0  0  0  0  0  0
   -2.5056    1.8702    1.0809 C   0  0  0  0  0  0  0  0  0  0  0  0
   -1.7531    2.1569    1.8167 H   0  0  0  0  0  0  0  0  0  0  0  0
   -3.3759    2.5178    1.1902 H   0  0  0  0  0  0  0  0  0  0  0  0
   -2.8142    0.8443    1.2695 H   0  0  0  0  0  0  0  0  0  0  0  0
   -1.6192    3.4882   -0.5698 C   0  0  0  0  0  0  0  0  0  0  0  0
   -1.2380    3.6240   -1.5819 H   0  0  0  0  0  0  0  0  0  0  0  0
   -2.5264    4.0820   -0.4577 H   0  0  0  0  0  0  0  0  0  0  0  0
   -0.8722    3.8339    0.1455 H   0  0  0  0  0  0  0  0  0  0  0  0
   -0.1913    0.1554    1.7759 C   0  0  0  0  0  0  0  0  0  0  0  0
    0.9476   -0.0766    2.1748 O   0  0  0  0  0  0  0  0  0  0  0  0
   -1.1502    0.6393    2.5760 N   0  0  0  0  0  0  0  0  0  0  0  0
   -2.0581    0.8092    2.1736 H   0  0  0  0  0  0  0  0  0  0  0  0
   -0.9568    0.9369    3.9933 C   0  0  0  0  0  0  0  0  0  0  0  0
   -0.1600    1.6750    4.1097 H   0  0  0  0  0  0  0  0  0  0  0  0
   -1.8775    1.3307    4.4266 H   0  0  0  0  0  0  0  0  0  0  0  0
   -0.6678    0.0287    4.5244 H   0  0  0  0  0  0  0  0  0  0  0  0
  5  6  2  0  0  0  0
  5  7  1  0  0  0  0
  2  3  1  0  0  0  0
  2  4  1  0  0  0  0
  2  5  1  0  0  0  0
  1  2  1  0  0  0  0
 24 25  2  0  0  0  0
 24 26  1  0  0  0  0
 20 21  1  0  0  0  0
 20 22  1  0  0  0  0
 20 23  1  0  0  0  0
 16 17  1  0  0  0  0
 16 18  1  0  0  0  0
 16 19  1  0  0  0  0
 14 15  1  0  0  0  0
 14 16  1  0  0  0  0
 14 20  1  0  0  0  0
 11 12  1  0  0  0  0
 11 13  1  0  0  0  0
 11 14  1  0  0  0  0
  9 10  1  0  0  0  0
  9 11  1  0  0  0  0
  9 24  1  0  0  0  0
  7  8  1  0  0  0  0
  7  9  1  0  0  0  0
 28 29  1  0  0  0  0
 28 30  1  0  0  0  0
 28 31  1  0  0  0  0
 26 27  1  0  0  0  0
 26 28  1  0  0  0  0
M  END
$$$$
default_name
  -OEChem-02102213163D

 31 30  0     1  0  0  0  0  0999 V2000
   -3.5895   -3.5013    1.1082 H   0  0  0  0  0  0  0  0  0  0  0  0
   -3.5145   -2.5363    0.6082 C   0  0  0  0  0  0  0  0  0  0  0  0
   -4.2285   -1.8413    1.0452 H   0  0  0  0  0  0  0  0  0  0  0  0
   -3.7155   -2.6583   -0.4538 H   0  0  0  0  0  0  0  0  0  0  0  0
   -2.1155   -1.9963    0.7922 C   0  0  0  0  0  0  0  0  0  0  0  0
   -1.2875   -2.6383    1.4252 O   0  0  0  0  0  0  0  0  0  0  0  0
   -1.8575   -0.8123    0.2402 N   0  0  0  0  0  0  0  0  0  0  0  0
   -2.6005   -0.3333   -0.2478 H   0  0  0  0  0  0  0  0  0  0  0  0
   -0.5675   -0.1203    0.3102 C   0  0  1  0  0  0  0  0  0  0  0  0
    0.1932   -0.7715   -0.1219 H   0  0  0  0  0  0  0  0  0  0  0  0
   -0.6568    1.1713   -0.5294 C   0  0  0  0  0  0  0  0  0  0  0  0
    0.2078    1.7971   -0.2994 H   0  0  0  0  0  0  0  0  0  0  0  0
   -0.5927    0.8934   -1.5838 H   0  0  0  0  0  0  0  0  0  0  0  0
   -1.9319    2.0114   -0.3320 C   0  0  0  0  0  0  0  0  0  0  0  0
   -2.7657    1.5436   -0.8556 H   0  0  0  0  0  0  0  0  0  0  0  0
   -2.2982    2.1696    1.1465 C   0  0  0  0  0  0  0  0  0  0  0  0
   -1.4664    2.6223    1.6879 H   0  0  0  0  0  0  0  0  0  0  0  0
   -3.1756    2.8099    1.2409 H   0  0  0  0  0  0  0  0  0  0  0  0
   -2.5277    1.2036    1.5910 H   0  0  0  0  0  0  0  0  0  0  0  0
   -1.7271    3.4069   -0.9202 C   0  0  0  0  0  0  0  0  0  0  0  0
   -1.4958    3.3268   -1.9823 H   0  0  0  0  0  0  0  0  0  0  0  0
   -2.6380    3.9946   -0.8063 H   0  0  0  0  0  0  0  0  0  0  0  0
   -0.9064    3.9127   -0.4103 H   0  0  0  0  0  0  0  0  0  0  0  0
   -0.1913    0.1554    1.7759 C   0  0  0  0  0  0  0  0  0  0  0  0
    0.9476   -0.0766    2.1748 O   0  0  0  0  0  0  0  0  0  0  0  0
   -1.1502    0.6393    2.5760 N   0  0  0  0  0  0  0  0  0  0  0  0
   -2.0581    0.8092    2.1736 H   0  0  0  0  0  0  0  0  0  0  0  0
   -0.9568    0.9369    3.9933 C   0  0  0  0  0  0  0  0  0  0  0  0
   -0.1600    1.6750    4.1097 H   0  0  0  0  0  0  0  0  0  0  0  0
   -1.8775    1.3307    4.4266 H   0  0  0  0  0  0  0  0  0  0  0  0
   -0.6678    0.0287    4.5244 H   0  0  0  0  0  0  0  0  0  0  0  0
  5  6  2  0  0  0  0
  5  7  1  0  0  0  0
  2  3  1  0  0  0  0
  2  4  1  0  0  0  0
  2  5  1  0  0  0  0
  1  2  1  0  0  0  0
 24 25  2  0  0  0  0
 24 26  1  0  0  0  0
 20 21  1  0  0  0  0
 20 22  1  0  0  0  0
 20 23  1  0  0  0  0
 16 17  1  0  0  0  0
 16 18  1  0  0  0  0
 16 19  1  0  0  0  0
 14 15  1  0  0  0  0
 14 16  1  0  0  0  0
 14 20  1  0  0  0  0
 11 12  1  0  0  0  0
 11 13  1  0  0  0  0
 11 14  1  0  0  0  0
  9 10  1  0  0  0  0
  9 11  1  0  0  0  0
  9 24  1  0  0  0  0
  7  8  1  0  0  0  0
  7  9  1  0  0  0  0
 28 29  1  0  0  0  0
 28 30  1  0  0  0  0
 28 31  1  0  0  0  0
 26 27  1  0  0  0  0
 26 28  1  0  0  0  0
M  END
$$$$
default_name
  -OEChem-02102213163D

 31 30  0     1  0  0  0  0  0999 V2000
   -3.5895   -3.5013    1.1082 H   0  0  0  0  0  0  0  0  0  0  0  0
   -3.5145   -2.5363    0.6082 C   0  0  0  0  0  0  0  0  0  0  0  0
   -4.2285   -1.8413    1.0452 H   0  0  0  0  0  0  0  0  0  0  0  0
   -3.7155   -2.6583   -0.4538 H   0  0  0  0  0  0  0  0  0  0  0  0
   -2.1155   -1.9963    0.7922 C   0  0  0  0  0  0  0  0  0  0  0  0
   -1.2875   -2.6383    1.4252 O   0  0  0  0  0  0  0  0  0  0  0  0
   -1.8575   -0.8123    0.2402 N   0  0  0  0  0  0  0  0  0  0  0  0
   -2.6005   -0.3333   -0.2478 H   0  0  0  0  0  0  0  0  0  0  0  0
   -0.5675   -0.1203    0.3102 C   0  0  1  0  0  0  0  0  0  0  0  0
    0.1932   -0.7715   -0.1219 H   0  0  0  0  0  0  0  0  0  0  0  0
   -0.6568    1.1713   -0.5294 C   0  0  0  0  0  0  0  0  0  0  0  0
    0.2078    1.7971   -0.2994 H   0  0  0  0  0  0  0  0  0  0  0  0
   -0.5927    0.8934   -1.5838 H   0  0  0  0  0  0  0  0  0  0  0  0
   -1.9319    2.0114   -0.3320 C   0  0  0  0  0  0  0  0  0  0  0  0
   -2.8061    1.4264   -0.6181 H   0  0  0  0  0  0  0  0  0  0  0  0
   -2.0986    2.4798    1.1165 C   0  0  0  0  0  0  0  0  0  0  0  0
   -1.2232    3.0538    1.4233 H   0  0  0  0  0  0  0  0  0  0  0  0
   -2.9847    3.1095    1.1991 H   0  0  0  0  0  0  0  0  0  0  0  0
   -2.2175    1.6291    1.7841 H   0  0  0  0  0  0  0  0  0  0  0  0
   -1.8780    3.2496   -1.2259 C   0  0  0  0  0  0  0  0  0  0  0  0
   -1.7914    2.9454   -2.2690 H   0  0  0  0  0  0  0  0  0  0  0  0
   -2.7920    3.8317   -1.1085 H   0  0  0  0  0  0  0  0  0  0  0  0
   -1.0205    3.8684   -0.9592 H   0  0  0  0  0  0  0  0  0  0  0  0
   -0.1913    0.1554    1.7759 C   0  0  0  0  0  0  0  0  0  0  0  0
    0.9476   -0.0766    2.1748 O   0  0  0  0  0  0  0  0  0  0  0  0
   -1.1502    0.6393    2.5760 N   0  0  0  0  0  0  0  0  0  0  0  0
   -2.0581    0.8092    2.1736 H   0  0  0  0  0  0  0  0  0  0  0  0
   -0.9568    0.9369    3.9933 C   0  0  0  0  0  0  0  0  0  0  0  0
   -0.1600    1.6750    4.1097 H   0  0  0  0  0  0  0  0  0  0  0  0
   -1.8775    1.3307    4.4266 H   0  0  0  0  0  0  0  0  0  0  0  0
   -0.6678    0.0287    4.5244 H   0  0  0  0  0  0  0  0  0  0  0  0
  5  6  2  0  0  0  0
  5  7  1  0  0  0  0
  2  3  1  0  0  0  0
  2  4  1  0  0  0  0
  2  5  1  0  0  0  0
  1  2  1  0  0  0  0
 24 25  2  0  0  0  0
 24 26  1  0  0  0  0
 20 21  1  0  0  0  0
 20 22  1  0  0  0  0
 20 23  1  0  0  0  0
 16 17  1  0  0  0  0
 16 18  1  0  0  0  0
 16 19  1  0  0  0  0
 14 15  1  0  0  0  0
 14 16  1  0  0  0  0
 14 20  1  0  0  0  0
 11 12  1  0  0  0  0
 11 13  1  0  0  0  0
 11 14  1  0  0  0  0
  9 10  1  0  0  0  0
  9 11  1  0  0  0  0
  9 24  1  0  0  0  0
  7  8  1  0  0  0  0
  7  9  1  0  0  0  0
 28 29  1  0  0  0  0
 28 30  1  0  0  0  0
 28 31  1  0  0  0  0
 26 27  1  0  0  0  0
 26 28  1  0  0  0  0
M  END
$$$$
default_name
  -OEChem-02102213163D

 31 30  0     1  0  0  0  0  0999 V2000
   -3.5895   -3.5013    1.1082 H   0  0  0  0  0  0  0  0  0  0  0  0
   -3.5145   -2.5363    0.6082 C   0  0  0  0  0  0  0  0  0  0  0  0
   -4.2285   -1.8413    1.0452 H   0  0  0  0  0  0  0  0  0  0  0  0
   -3.7155   -2.6583   -0.4538 H   0  0  0  0  0  0  0  0  0  0  0  0
   -2.1155   -1.9963    0.7922 C   0  0  0  0  0  0  0  0  0  0  0  0
   -1.2875   -2.6383    1.4252 O   0  0  0  0  0  0  0  0  0  0  0  0
   -1.8575   -0.8123    0.2402 N   0  0  0  0  0  0  0  0  0  0  0  0
   -2.6005   -0.3333   -0.2478 H   0  0  0  0  0  0  0  0  0  0  0  0
   -0.5675   -0.1203    0.3102 C   0  0  1  0  0  0  0  0  0  0  0  0
    0.1932   -0.7715   -0.1219 H   0  0  0  0  0  0  0  0  0  0  0  0
   -0.6568    1.1713   -0.5294 C   0  0  0  0  0  0  0  0  0  0  0  0
    0.2078    1.7971   -0.2994 H   0  0  0  0  0  0  0  0  0  0  0  0
   -0.5927    0.8934   -1.5838 H   0  0  0  0  0  0  0  0  0  0  0  0
   -1.9319    2.0114   -0.3320 C   0  0  0  0  0  0  0  0  0  0  0  0
   -2.8077    1.3629   -0.3580 H   0  0  0  0  0  0  0  0  0  0  0  0
   -1.9203    2.7795    0.9928 C   0  0  0  0  0  0  0  0  0  0  0  0
   -1.0399    3.4219    1.0409 H   0  0  0  0  0  0  0  0  0  0  0  0
   -2.8161    3.3963    1.0674 H   0  0  0  0  0  0  0  0  0  0  0  0
   -1.9048    2.0918    1.8355 H   0  0  0  0  0  0  0  0  0  0  0  0
   -2.0617    3.0272   -1.4663 C   0  0  0  0  0  0  0  0  0  0  0  0
   -2.1048    2.5058   -2.4224 H   0  0  0  0  0  0  0  0  0  0  0  0
   -2.9781    3.6046   -1.3438 H   0  0  0  0  0  0  0  0  0  0  0  0
   -1.2068    3.7043   -1.4638 H   0  0  0  0  0  0  0  0  0  0  0  0
   -0.1913    0.1554    1.7759 C   0  0  0  0  0  0  0  0  0  0  0  0
    0.9476   -0.0766    2.1748 O   0  0  0  0  0  0  0  0  0  0  0  0
   -1.1502    0.6393    2.5760 N   0  0  0  0  0  0  0  0  0  0  0  0
   -2.0581    0.8092    2.1736 H   0  0  0  0  0  0  0  0  0  0  0  0
   -0.9568    0.9369    3.9933 C   0  0  0  0  0  0  0  0  0  0  0  0
   -0.1600    1.6750    4.1097 H   0  0  0  0  0  0  0  0  0  0  0  0
   -1.8775    1.3307    4.4266 H   0  0  0  0  0  0  0  0  0  0  0  0
   -0.6678    0.0287    4.5244 H   0  0  0  0  0  0  0  0  0  0  0  0
  5  6  2  0  0  0  0
  5  7  1  0  0  0  0
  2  3  1  0  0  0  0
  2  4  1  0  0  0  0
  2  5  1  0  0  0  0
  1  2  1  0  0  0  0
 24 25  2  0  0  0  0
 24 26  1  0  0  0  0
 20 21  1  0  0  0  0
 20 22  1  0  0  0  0
 20 23  1  0  0  0  0
 16 17  1  0  0  0  0
 16 18  1  0  0  0  0
 16 19  1  0  0  0  0
 14 15  1  0  0  0  0
 14 16  1  0  0  0  0
 14 20  1  0  0  0  0
 11 12  1  0  0  0  0
 11 13  1  0  0  0  0
 11 14  1  0  0  0  0
  9 10  1  0  0  0  0
  9 11  1  0  0  0  0
  9 24  1  0  0  0  0
  7  8  1  0  0  0  0
  7  9  1  0  0  0  0
 28 29  1  0  0  0  0
 28 30  1  0  0  0  0
 28 31  1  0  0  0  0
 26 27  1  0  0  0  0
 26 28  1  0  0  0  0
M  END
$$$$
default_name
  -OEChem-02102213163D

 31 30  0     1  0  0  0  0  0999 V2000
   -3.5895   -3.5013    1.1082 H   0  0  0  0  0  0  0  0  0  0  0  0
   -3.5145   -2.5363    0.6082 C   0  0  0  0  0  0  0  0  0  0  0  0
   -4.2285   -1.8413    1.0452 H   0  0  0  0  0  0  0  0  0  0  0  0
   -3.7155   -2.6583   -0.4538 H   0  0  0  0  0  0  0  0  0  0  0  0
   -2.1155   -1.9963    0.7922 C   0  0  0  0  0  0  0  0  0  0  0  0
   -1.2875   -2.6383    1.4252 O   0  0  0  0  0  0  0  0  0  0  0  0
   -1.8575   -0.8123    0.2402 N   0  0  0  0  0  0  0  0  0  0  0  0
   -2.6005   -0.3333   -0.2478 H   0  0  0  0  0  0  0  0  0  0  0  0
   -0.5675   -0.1203    0.3102 C   0  0  1  0  0  0  0  0  0  0  0  0
    0.1932   -0.7715   -0.1219 H   0  0  0  0  0  0  0  0  0  0  0  0
   -0.6568    1.1713   -0.5294 C   0  0  0  0  0  0  0  0  0  0  0  0
    0.2078    1.7971   -0.2994 H   0  0  0  0  0  0  0  0  0  0  0  0
   -0.5927    0.8934   -1.5838 H   0  0  0  0  0  0  0  0  0  0  0  0
   -1.9319    2.0114   -0.3320 C   0  0  0  0  0  0  0  0  0  0  0  0
   -2.7704    1.3572   -0.0928 H   0  0  0  0  0  0  0  0  0  0  0  0
   -1.7754    3.0485    0.7839 C   0  0  0  0  0  0  0  0  0  0  0  0
   -0.9291    3.7015    0.5667 H   0  0  0  0  0  0  0  0  0  0  0  0
   -2.6814    3.6508    0.8550 H   0  0  0  0  0  0  0  0  0  0  0  0
   -1.6107    2.5601    1.7419 H   0  0  0  0  0  0  0  0  0  0  0  0
   -2.2658    2.7548   -1.6248 C   0  0  0  0  0  0  0  0  0  0  0  0
   -2.4146    2.0378   -2.4321 H   0  0  0  0  0  0  0  0  0  0  0  0
   -3.1835    3.3285   -1.4961 H   0  0  0  0  0  0  0  0  0  0  0  0
   -1.4525    3.4314   -1.8897 H   0  0  0  0  0  0  0  0  0  0  0  0
   -0.1913    0.1554    1.7759 C   0  0  0  0  0  0  0  0  0  0  0  0
    0.9476   -0.0766    2.1748 O   0  0  0  0  0  0  0  0  0  0  0  0
   -1.1502    0.6393    2.5760 N   0  0  0  0  0  0  0  0  0  0  0  0
   -2.0581    0.8092    2.1736 H   0  0  0  0  0  0  0  0  0  0  0  0
   -0.9568    0.9369    3.9933 C   0  0  0  0  0  0  0  0  0  0  0  0
   -0.1600    1.6750    4.1097 H   0  0  0  0  0  0  0  0  0  0  0  0
   -1.8775    1.3307    4.4266 H   0  0  0  0  0  0  0  0  0  0  0  0
   -0.6678    0.0287    4.5244 H   0  0  0  0  0  0  0  0  0  0  0  0
  5  6  2  0  0  0  0
  5  7  1  0  0  0  0
  2  3  1  0  0  0  0
  2  4  1  0  0  0  0
  2  5  1  0  0  0  0
  1  2  1  0  0  0  0
 24 25  2  0  0  0  0
 24 26  1  0  0  0  0
 20 21  1  0  0  0  0
 20 22  1  0  0  0  0
 20 23  1  0  0  0  0
 16 17  1  0  0  0  0
 16 18  1  0  0  0  0
 16 19  1  0  0  0  0
 14 15  1  0  0  0  0
 14 16  1  0  0  0  0
 14 20  1  0  0  0  0
 11 12  1  0  0  0  0
 11 13  1  0  0  0  0
 11 14  1  0  0  0  0
  9 10  1  0  0  0  0
  9 11  1  0  0  0  0
  9 24  1  0  0  0  0
  7  8  1  0  0  0  0
  7  9  1  0  0  0  0
 28 29  1  0  0  0  0
 28 30  1  0  0  0  0
 28 31  1  0  0  0  0
 26 27  1  0  0  0  0
 26 28  1  0  0  0  0
M  END
$$$$
default_name
  -OEChem-02102213163D

 31 30  0     1  0  0  0  0  0999 V2000
   -3.5895   -3.5013    1.1082 H   0  0  0  0  0  0  0  0  0  0  0  0
   -3.5145   -2.5363    0.6082 C   0  0  0  0  0  0  0  0  0  0  0  0
   -4.2285   -1.8413    1.0452 H   0  0  0  0  0  0  0  0  0  0  0  0
   -3.7155   -2.6583   -0.4538 H   0  0  0  0  0  0  0  0  0  0  0  0
   -2.1155   -1.9963    0.7922 C   0  0  0  0  0  0  0  0  0  0  0  0
   -1.2875   -2.6383    1.4252 O   0  0  0  0  0  0  0  0  0  0  0  0
   -1.8575   -0.8123    0.2402 N   0  0  0  0  0  0  0  0  0  0  0  0
   -2.6005   -0.3333   -0.2478 H   0  0  0  0  0  0  0  0  0  0  0  0
   -0.5675   -0.1203    0.3102 C   0  0  1  0  0  0  0  0  0  0  0  0
    0.1932   -0.7715   -0.1219 H   0  0  0  0  0  0  0  0  0  0  0  0
   -0.6568    1.1713   -0.5294 C   0  0  0  0  0  0  0  0  0  0  0  0
    0.2078    1.7971   -0.2994 H   0  0  0  0  0  0  0  0  0  0  0  0
   -0.5927    0.8934   -1.5838 H   0  0  0  0  0  0  0  0  0  0  0  0
   -1.9319    2.0114   -0.3320 C   0  0  0  0  0  0  0  0  0  0  0  0
   -2.6967    1.4097    0.1593 H   0  0  0  0  0  0  0  0  0  0  0  0
   -1.6740    3.2683    0.5040 C   0  0  0  0  0  0  0  0  0  0  0  0
   -0.8983    3.8737    0.0331 H   0  0  0  0  0  0  0  0  0  0  0  0
   -2.5897    3.8555    0.5763 H   0  0  0  0  0  0  0  0  0  0  0  0
   -1.3555    3.0022    1.5096 H   0  0  0  0  0  0  0  0  0  0  0  0
   -2.4762    2.4508   -1.6907 C   0  0  0  0  0  0  0  0  0  0  0  0
   -2.6997    1.5734   -2.2974 H   0  0  0  0  0  0  0  0  0  0  0  0
   -3.3943    3.0224   -1.5550 H   0  0  0  0  0  0  0  0  0  0  0  0
   -1.7410    3.0683   -2.2080 H   0  0  0  0  0  0  0  0  0  0  0  0
   -0.1913    0.1554    1.7759 C   0  0  0  0  0  0  0  0  0  0  0  0
    0.9476   -0.0766    2.1748 O   0  0  0  0  0  0  0  0  0  0  0  0
   -1.1502    0.6393    2.5760 N   0  0  0  0  0  0  0  0  0  0  0  0
   -2.0581    0.8092    2.1736 H   0  0  0  0  0  0  0  0  0  0  0  0
   -0.9568    0.9369    3.9933 C   0  0  0  0  0  0  0  0  0  0  0  0
   -0.1600    1.6750    4.1097 H   0  0  0  0  0  0  0  0  0  0  0  0
   -1.8775    1.3307    4.4266 H   0  0  0  0  0  0  0  0  0  0  0  0
   -0.6678    0.0287    4.5244 H   0  0  0  0  0  0  0  0  0  0  0  0
  5  6  2  0  0  0  0
  5  7  1  0  0  0  0
  2  3  1  0  0  0  0
  2  4  1  0  0  0  0
  2  5  1  0  0  0  0
  1  2  1  0  0  0  0
 24 25  2  0  0  0  0
 24 26  1  0  0  0  0
 20 21  1  0  0  0  0
 20 22  1  0  0  0  0
 20 23  1  0  0  0  0
 16 17  1  0  0  0  0
 16 18  1  0  0  0  0
 16 19  1  0  0  0  0
 14 15  1  0  0  0  0
 14 16  1  0  0  0  0
 14 20  1  0  0  0  0
 11 12  1  0  0  0  0
 11 13  1  0  0  0  0
 11 14  1  0  0  0  0
  9 10  1  0  0  0  0
  9 11  1  0  0  0  0
  9 24  1  0  0  0  0
  7  8  1  0  0  0  0
  7  9  1  0  0  0  0
 28 29  1  0  0  0  0
 28 30  1  0  0  0  0
 28 31  1  0  0  0  0
 26 27  1  0  0  0  0
 26 28  1  0  0  0  0
M  END
$$$$
default_name
  -OEChem-02102213163D

 31 30  0     1  0  0  0  0  0999 V2000
   -3.5895   -3.5013    1.1082 H   0  0  0  0  0  0  0  0  0  0  0  0
   -3.5145   -2.5363    0.6082 C   0  0  0  0  0  0  0  0  0  0  0  0
   -4.2285   -1.8413    1.0452 H   0  0  0  0  0  0  0  0  0  0  0  0
   -3.7155   -2.6583   -0.4538 H   0  0  0  0  0  0  0  0  0  0  0  0
   -2.1155   -1.9963    0.7922 C   0  0  0  0  0  0  0  0  0  0  0  0
   -1.2875   -2.6383    1.4252 O   0  0  0  0  0  0  0  0  0  0  0  0
   -1.8575   -0.8123    0.2402 N   0  0  0  0  0  0  0  0  0  0  0  0
   -2.6005   -0.3333   -0.2478 H   0  0  0  0  0  0  0  0  0  0  0  0
   -0.5675   -0.1203    0.3102 C   0  0  1  0  0  0  0  0  0  0  0  0
    0.1932   -0.7715   -0.1219 H   0  0  0  0  0  0  0  0  0  0  0  0
   -0.6568    1.1713   -0.5294 C   0  0  0  0  0  0  0  0  0  0  0  0
    0.2078    1.7971   -0.2994 H   0  0  0  0  0  0  0  0  0  0  0  0
   -0.5927    0.8934   -1.5838 H   0  0  0  0  0  0  0  0  0  0  0  0
   -1.9319    2.0114   -0.3320 C   0  0  0  0  0  0  0  0  0  0  0  0
   -2.5917    1.5170    0.3811 H   0  0  0  0  0  0  0  0  0  0  0  0
   -1.6228    3.4240    0.1722 C   0  0  0  0  0  0  0  0  0  0  0  0
   -0.9496    3.9266   -0.5236 H   0  0  0  0  0  0  0  0  0  0  0  0
   -2.5473    3.9965    0.2502 H   0  0  0  0  0  0  0  0  0  0  0  0
   -1.1564    3.3879    1.1543 H   0  0  0  0  0  0  0  0  0  0  0  0
   -2.6786    2.1362   -1.6595 C   0  0  0  0  0  0  0  0  0  0  0  0
   -2.9406    1.1442   -2.0275 H   0  0  0  0  0  0  0  0  0  0  0  0
   -3.5961    2.7071   -1.5166 H   0  0  0  0  0  0  0  0  0  0  0  0
   -2.0525    2.6398   -2.3968 H   0  0  0  0  0  0  0  0  0  0  0  0
   -0.1913    0.1554    1.7759 C   0  0  0  0  0  0  0  0  0  0  0  0
    0.9476   -0.0766    2.1748 O   0  0  0  0  0  0  0  0  0  0  0  0
   -1.1502    0.6393    2.5760 N   0  0  0  0  0  0  0  0  0  0  0  0
   -2.0581    0.8092    2.1736 H   0  0  0  0  0  0  0  0  0  0  0  0
   -0.9568    0.9369    3.9933 C   0  0  0  0  0  0  0  0  0  0  0  0
   -0.1600    1.6750    4.1097 H   0  0  0  0  0  0  0  0  0  0  0  0
   -1.8775    1.3307    4.4266 H   0  0  0  0  0  0  0  0  0  0  0  0
   -0.6678    0.0287    4.5244 H   0  0  0  0  0  0  0  0  0  0  0  0
  5  6  2  0  0  0  0
  5  7  1  0  0  0  0
  2  3  1  0  0  0  0
  2  4  1  0  0  0  0
  2  5  1  0  0  0  0
  1  2  1  0  0  0  0
 24 25  2  0  0  0  0
 24 26  1  0  0  0  0
 20 21  1  0  0  0  0
 20 22  1  0  0  0  0
 20 23  1  0  0  0  0
 16 17  1  0  0  0  0
 16 18  1  0  0  0  0
 16 19  1  0  0  0  0
 14 15  1  0  0  0  0
 14 16  1  0  0  0  0
 14 20  1  0  0  0  0
 11 12  1  0  0  0  0
 11 13  1  0  0  0  0
 11 14  1  0  0  0  0
  9 10  1  0  0  0  0
  9 11  1  0  0  0  0
  9 24  1  0  0  0  0
  7  8  1  0  0  0  0
  7  9  1  0  0  0  0
 28 29  1  0  0  0  0
 28 30  1  0  0  0  0
 28 31  1  0  0  0  0
 26 27  1  0  0  0  0
 26 28  1  0  0  0  0
M  END
$$$$
default_name
  -OEChem-02102213163D

 31 30  0     1  0  0  0  0  0999 V2000
   -3.5895   -3.5013    1.1082 H   0  0  0  0  0  0  0  0  0  0  0  0
   -3.5145   -2.5363    0.6082 C   0  0  0  0  0  0  0  0  0  0  0  0
   -4.2285   -1.8413    1.0452 H   0  0  0  0  0  0  0  0  0  0  0  0
   -3.7155   -2.6583   -0.4538 H   0  0  0  0  0  0  0  0  0  0  0  0
   -2.1155   -1.9963    0.7922 C   0  0  0  0  0  0  0  0  0  0  0  0
   -1.2875   -2.6383    1.4252 O   0  0  0  0  0  0  0  0  0  0  0  0
   -1.8575   -0.8123    0.2402 N   0  0  0  0  0  0  0  0  0  0  0  0
   -2.6005   -0.3333   -0.2478 H   0  0  0  0  0  0  0  0  0  0  0  0
   -0.5675   -0.1203    0.3102 C   0  0  1  0  0  0  0  0  0  0  0  0
    0.1932   -0.7715   -0.1219 H   0  0  0  0  0  0  0  0  0  0  0  0
   -0.6568    1.1713   -0.5294 C   0  0  0  0  0  0  0  0  0  0  0  0
    0.2078    1.7971   -0.2994 H   0  0  0  0  0  0  0  0  0  0  0  0
   -0.5927    0.8934   -1.5838 H   0  0  0  0  0  0  0  0  0  0  0  0
   -1.9319    2.0114   -0.3320 C   0  0  0  0  0  0  0  0  0  0  0  0
   -2.4625    1.6716    0.5575 H   0  0  0  0  0  0  0  0  0  0  0  0
   -1.6254    3.5049   -0.1889 C   0  0  0  0  0  0  0  0  0  0  0  0
   -1.0796    3.8567   -1.0655 H   0  0  0  0  0  0  0  0  0  0  0  0
   -2.5571    4.0642   -0.1010 H   0  0  0  0  0  0  0  0  0  0  0  0
   -1.0271    3.6909    0.7004 H   0  0  0  0  0  0  0  0  0  0  0  0
   -2.8594    1.8322   -1.5333 C   0  0  0  0  0  0  0  0  0  0  0  0
   -3.1210    0.7796   -1.6408 H   0  0  0  0  0  0  0  0  0  0  0  0
   -3.7750    2.4041   -1.3833 H   0  0  0  0  0  0  0  0  0  0  0  0
   -2.3658    2.1751   -2.4433 H   0  0  0  0  0  0  0  0  0  0  0  0
   -0.1913    0.1554    1.7759 C   0  0  0  0  0  0  0  0  0  0  0  0
    0.9476   -0.0766    2.1748 O   0  0  0  0  0  0  0  0  0  0  0  0
   -1.1502    0.6393    2.5760 N   0  0  0  0  0  0  0  0  0  0  0  0
   -2.0581    0.8092    2.1736 H   0  0  0  0  0  0  0  0  0  0  0  0
   -0.9568    0.9369    3.9933 C   0  0  0  0  0  0  0  0  0  0  0  0
   -0.1600    1.6750    4.1097 H   0  0  0  0  0  0  0  0  0  0  0  0
   -1.8775    1.3307    4.4266 H   0  0  0  0  0  0  0  0  0  0  0  0
   -0.6678    0.0287    4.5244 H   0  0  0  0  0  0  0  0  0  0  0  0
  5  6  2  0  0  0  0
  5  7  1  0  0  0  0
  2  3  1  0  0  0  0
  2  4  1  0  0  0  0
  2  5  1  0  0  0  0
  1  2  1  0  0  0  0
 24 25  2  0  0  0  0
 24 26  1  0  0  0  0
 20 21  1  0  0  0  0
 20 22  1  0  0  0  0
 20 23  1  0  0  0  0
 16 17  1  0  0  0  0
 16 18  1  0  0  0  0
 16 19  1  0  0  0  0
 14 15  1  0  0  0  0
 14 16  1  0  0  0  0
 14 20  1  0  0  0  0
 11 12  1  0  0  0  0
 11 13  1  0  0  0  0
 11 14  1  0  0  0  0
  9 10  1  0  0  0  0
  9 11  1  0  0  0  0
  9 24  1  0  0  0  0
  7  8  1  0  0  0  0
  7  9  1  0  0  0  0
 28 29  1  0  0  0  0
 28 30  1  0  0  0  0
 28 31  1  0  0  0  0
 26 27  1  0  0  0  0
 26 28  1  0  0  0  0
M  END
$$$$
default_name
  -OEChem-02102213163D

 31 30  0     1  0  0  0  0  0999 V2000
   -3.5895   -3.5013    1.1082 H   0  0  0  0  0  0  0  0  0  0  0  0
   -3.5145   -2.5363    0.6082 C   0  0  0  0  0  0  0  0  0  0  0  0
   -4.2285   -1.8413    1.0452 H   0  0  0  0  0  0  0  0  0  0  0  0
   -3.7155   -2.6583   -0.4538 H   0  0  0  0  0  0  0  0  0  0  0  0
   -2.1155   -1.9963    0.7922 C   0  0  0  0  0  0  0  0  0  0  0  0
   -1.2875   -2.6383    1.4252 O   0  0  0  0  0  0  0  0  0  0  0  0
   -1.8575   -0.8123    0.2402 N   0  0  0  0  0  0  0  0  0  0  0  0
   -2.6005   -0.3333   -0.2478 H   0  0  0  0  0  0  0  0  0  0  0  0
   -0.5675   -0.1203    0.3102 C   0  0  1  0  0  0  0  0  0  0  0  0
    0.1932   -0.7715   -0.1219 H   0  0  0  0  0  0  0  0  0  0  0  0
   -0.6568    1.1713   -0.5294 C   0  0  0  0  0  0  0  0  0  0  0  0
    0.2078    1.7971   -0.2994 H   0  0  0  0  0  0  0  0  0  0  0  0
   -0.5927    0.8934   -1.5838 H   0  0  0  0  0  0  0  0  0  0  0  0
   -1.9319    2.0114   -0.3320 C   0  0  0  0  0  0  0  0  0  0  0  0
   -2.3179    1.8631    0.6766 H   0  0  0  0  0  0  0  0  0  0  0  0
   -1.6815    3.5057   -0.5547 C   0  0  0  0  0  0  0  0  0  0  0  0
   -1.2793    3.6688   -1.5555 H   0  0  0  0  0  0  0  0  0  0  0  0
   -2.6183    4.0540   -0.4533 H   0  0  0  0  0  0  0  0  0  0  0  0
   -0.9763    3.8905    0.1788 H   0  0  0  0  0  0  0  0  0  0  0  0
   -3.0060    1.5596   -1.3208 C   0  0  0  0  0  0  0  0  0  0  0  0
   -3.2285    0.5042   -1.1636 H   0  0  0  0  0  0  0  0  0  0  0  0
   -3.9190    2.1341   -1.1644 H   0  0  0  0  0  0  0  0  0  0  0  0
   -2.6596    1.7059   -2.3445 H   0  0  0  0  0  0  0  0  0  0  0  0
   -0.1913    0.1554    1.7759 C   0  0  0  0  0  0  0  0  0  0  0  0
    0.9476   -0.0766    2.1748 O   0  0  0  0  0  0  0  0  0  0  0  0
   -1.1502    0.6393    2.5760 N   0  0  0  0  0  0  0  0  0  0  0  0
   -2.0581    0.8092    2.1736 H   0  0  0  0  0  0  0  0  0  0  0  0
   -0.9568    0.9369    3.9933 C   0  0  0  0  0  0  0  0  0  0  0  0
   -0.1600    1.6750    4.1097 H   0  0  0  0  0  0  0  0  0  0  0  0
   -1.8775    1.3307    4.4266 H   0  0  0  0  0  0  0  0  0  0  0  0
   -0.6678    0.0287    4.5244 H   0  0  0  0  0  0  0  0  0  0  0  0
  5  6  2  0  0  0  0
  5  7  1  0  0  0  0
  2  3  1  0  0  0  0
  2  4  1  0  0  0  0
  2  5  1  0  0  0  0
  1  2  1  0  0  0  0
 24 25  2  0  0  0  0
 24 26  1  0  0  0  0
 20 21  1  0  0  0  0
 20 22  1  0  0  0  0
 20 23  1  0  0  0  0
 16 17  1  0  0  0  0
 16 18  1  0  0  0  0
 16 19  1  0  0  0  0
 14 15  1  0  0  0  0
 14 16  1  0  0  0  0
 14 20  1  0  0  0  0
 11 12  1  0  0  0  0
 11 13  1  0  0  0  0
 11 14  1  0  0  0  0
  9 10  1  0  0  0  0
  9 11  1  0  0  0  0
  9 24  1  0  0  0  0
  7  8  1  0  0  0  0
  7  9  1  0  0  0  0
 28 29  1  0  0  0  0
 28 30  1  0  0  0  0
 28 31  1  0  0  0  0
 26 27  1  0  0  0  0
 26 28  1  0  0  0  0
M  END
$$$$
default_name
  -OEChem-02102213163D

 31 30  0     1  0  0  0  0  0999 V2000
   -3.5895   -3.5013    1.1082 H   0  0  0  0  0  0  0  0  0  0  0  0
   -3.5145   -2.5363    0.6082 C   0  0  0  0  0  0  0  0  0  0  0  0
   -4.2285   -1.8413    1.0452 H   0  0  0  0  0  0  0  0  0  0  0  0
   -3.7155   -2.6583   -0.4538 H   0  0  0  0  0  0  0  0  0  0  0  0
   -2.1155   -1.9963    0.7922 C   0  0  0  0  0  0  0  0  0  0  0  0
   -1.2875   -2.6383    1.4252 O   0  0  0  0  0  0  0  0  0  0  0  0
   -1.8575   -0.8123    0.2402 N   0  0  0  0  0  0  0  0  0  0  0  0
   -2.6005   -0.3333   -0.2478 H   0  0  0  0  0  0  0  0  0  0  0  0
   -0.5675   -0.1203    0.3102 C   0  0  1  0  0  0  0  0  0  0  0  0
    0.1932   -0.7715   -0.1219 H   0  0  0  0  0  0  0  0  0  0  0  0
   -0.6568    1.1713   -0.5294 C   0  0  0  0  0  0  0  0  0  0  0  0
    0.2078    1.7971   -0.2994 H   0  0  0  0  0  0  0  0  0  0  0  0
   -0.5927    0.8934   -1.5838 H   0  0  0  0  0  0  0  0  0  0  0  0
   -1.9319    2.0114   -0.3320 C   0  0  0  0  0  0  0  0  0  0  0  0
   -2.1678    2.0784    0.7301 H   0  0  0  0  0  0  0  0  0  0  0  0
   -1.7874    3.4261   -0.9003 C   0  0  0  0  0  0  0  0  0  0  0  0
   -1.5351    3.3756   -1.9603 H   0  0  0  0  0  0  0  0  0  0  0  0
   -2.7269    3.9666   -0.7828 H   0  0  0  0  0  0  0  0  0  0  0  0
   -1.0076    3.9733   -0.3750 H   0  0  0  0  0  0  0  0  0  0  0  0
   -3.1086    1.3370   -1.0363 C   0  0  0  0  0  0  0  0  0  0  0  0
   -3.2558    0.3370   -0.6285 H   0  0  0  0  0  0  0  0  0  0  0  0
   -4.0183    1.9154   -0.8748 H   0  0  0  0  0  0  0  0  0  0  0  0
   -2.9139    1.2641   -2.1069 H   0  0  0  0  0  0  0  0  0  0  0  0
   -0.1913    0.1554    1.7759 C   0  0  0  0  0  0  0  0  0  0  0  0
    0.9476   -0.0766    2.1748 O   0  0  0  0  0  0  0  0  0  0  0  0
   -1.1502    0.6393    2.5760 N   0  0  0  0  0  0  0  0  0  0  0  0
   -2.0581    0.8092    2.1736 H   0  0  0  0  0  0  0  0  0  0  0  0
   -0.9568    0.9369    3.9933 C   0  0  0  0  0  0  0  0  0  0  0  0
   -0.1600    1.6750    4.1097 H   0  0  0  0  0  0  0  0  0  0  0  0
   -1.8775    1.3307    4.4266 H   0  0  0  0  0  0  0  0  0  0  0  0
   -0.6678    0.0287    4.5244 H   0  0  0  0  0  0  0  0  0  0  0  0
  5  6  2  0  0  0  0
  5  7  1  0  0  0  0
  2  3  1  0  0  0  0
  2  4  1  0  0  0  0
  2  5  1  0  0  0  0
  1  2  1  0  0  0  0
 24 25  2  0  0  0  0
 24 26  1  0  0  0  0
 20 21  1  0  0  0  0
 20 22  1  0  0  0  0
 20 23  1  0  0  0  0
 16 17  1  0  0  0  0
 16 18  1  0  0  0  0
 16 19  1  0  0  0  0
 14 15  1  0  0  0  0
 14 16  1  0  0  0  0
 14 20  1  0  0  0  0
 11 12  1  0  0  0  0
 11 13  1  0  0  0  0
 11 14  1  0  0  0  0
  9 10  1  0  0  0  0
  9 11  1  0  0  0  0
  9 24  1  0  0  0  0
  7  8  1  0  0  0  0
  7  9  1  0  0  0  0
 28 29  1  0  0  0  0
 28 30  1  0  0  0  0
 28 31  1  0  0  0  0
 26 27  1  0  0  0  0
 26 28  1  0  0  0  0
M  END
$$$$
default_name
  -OEChem-02102213163D

 31 30  0     1  0  0  0  0  0999 V2000
   -3.5895   -3.5013    1.1082 H   0  0  0  0  0  0  0  0  0  0  0  0
   -3.5145   -2.5363    0.6082 C   0  0  0  0  0  0  0  0  0  0  0  0
   -4.2285   -1.8413    1.0452 H   0  0  0  0  0  0  0  0  0  0  0  0
   -3.7155   -2.6583   -0.4538 H   0  0  0  0  0  0  0  0  0  0  0  0
   -2.1155   -1.9963    0.7922 C   0  0  0  0  0  0  0  0  0  0  0  0
   -1.2875   -2.6383    1.4252 O   0  0  0  0  0  0  0  0  0  0  0  0
   -1.8575   -0.8123    0.2402 N   0  0  0  0  0  0  0  0  0  0  0  0
   -2.6005   -0.3333   -0.2478 H   0  0  0  0  0  0  0  0  0  0  0  0
   -0.5675   -0.1203    0.3102 C   0  0  1  0  0  0  0  0  0  0  0  0
    0.1932   -0.7715   -0.1219 H   0  0  0  0  0  0  0  0  0  0  0  0
   -0.6568    1.1713   -0.5294 C   0  0  0  0  0  0  0  0  0  0  0  0
    0.3156    1.6674   -0.5104 H   0  0  0  0  0  0  0  0  0  0  0  0
   -0.8631    0.8876   -1.5638 H   0  0  0  0  0  0  0  0  0  0  0  0
   -1.7287    2.1844   -0.0875 C   0  0  0  0  0  0  0  0  0  0  0  0
   -1.5478    2.4851    0.9445 H   0  0  0  0  0  0  0  0  0  0  0  0
   -1.7466    3.4328   -0.9742 C   0  0  0  0  0  0  0  0  0  0  0  0
   -1.9109    3.1465   -2.0139 H   0  0  0  0  0  0  0  0  0  0  0  0
   -2.5502    4.0975   -0.6563 H   0  0  0  0  0  0  0  0  0  0  0  0
   -0.8044    3.9713   -0.8985 H   0  0  0  0  0  0  0  0  0  0  0  0
   -3.1110    1.5362   -0.1559 C   0  0  0  0  0  0  0  0  0  0  0  0
   -3.1378    0.6605    0.4924 H   0  0  0  0  0  0  0  0  0  0  0  0
   -3.8689    2.2426    0.1829 H   0  0  0  0  0  0  0  0  0  0  0  0
   -3.3335    1.2331   -1.1796 H   0  0  0  0  0  0  0  0  0  0  0  0
   -0.1913    0.1554    1.7759 C   0  0  0  0  0  0  0  0  0  0  0  0
    0.9476   -0.0766    2.1748 O   0  0  0  0  0  0  0  0  0  0  0  0
   -1.1502    0.6393    2.5760 N   0  0  0  0  0  0  0  0  0  0  0  0
   -2.0581    0.8092    2.1736 H   0  0  0  0  0  0  0  0  0  0  0  0
   -0.9568    0.9369    3.9933 C   0  0  0  0  0  0  0  0  0  0  0  0
   -0.1600    1.6750    4.1097 H   0  0  0  0  0  0  0  0  0  0  0  0
   -1.8775    1.3307    4.4266 H   0  0  0  0  0  0  0  0  0  0  0  0
   -0.6678    0.0287    4.5244 H   0  0  0  0  0  0  0  0  0  0  0  0
  5  6  2  0  0  0  0
  5  7  1  0  0  0  0
  2  3  1  0  0  0  0
  2  4  1  0  0  0  0
  2  5  1  0  0  0  0
  1  2  1  0  0  0  0
 24 25  2  0  0  0  0
 24 26  1  0  0  0  0
 20 21  1  0  0  0  0
 20 22  1  0  0  0  0
 20 23  1  0  0  0  0
 16 17  1  0  0  0  0
 16 18  1  0  0  0  0
 16 19  1  0  0  0  0
 14 15  1  0  0  0  0
 14 16  1  0  0  0  0
 14 20  1  0  0  0  0
 11 12  1  0  0  0  0
 11 13  1  0  0  0  0
 11 14  1  0  0  0  0
  9 10  1  0  0  0  0
  9 11  1  0  0  0  0
  9 24  1  0  0  0  0
  7  8  1  0  0  0  0
  7  9  1  0  0  0  0
 28 29  1  0  0  0  0
 28 30  1  0  0  0  0
 28 31  1  0  0  0  0
 26 27  1  0  0  0  0
 26 28  1  0  0  0  0
M  END
$$$$
default_name
  -OEChem-02102213163D

 31 30  0     1  0  0  0  0  0999 V2000
   -3.5895   -3.5013    1.1082 H   0  0  0  0  0  0  0  0  0  0  0  0
   -3.5145   -2.5363    0.6082 C   0  0  0  0  0  0  0  0  0  0  0  0
   -4.2285   -1.8413    1.0452 H   0  0  0  0  0  0  0  0  0  0  0  0
   -3.7155   -2.6583   -0.4538 H   0  0  0  0  0  0  0  0  0  0  0  0
   -2.1155   -1.9963    0.7922 C   0  0  0  0  0  0  0  0  0  0  0  0
   -1.2875   -2.6383    1.4252 O   0  0  0  0  0  0  0  0  0  0  0  0
   -1.8575   -0.8123    0.2402 N   0  0  0  0  0  0  0  0  0  0  0  0
   -2.6005   -0.3333   -0.2478 H   0  0  0  0  0  0  0  0  0  0  0  0
   -0.5675   -0.1203    0.3102 C   0  0  1  0  0  0  0  0  0  0  0  0
    0.1932   -0.7715   -0.1219 H   0  0  0  0  0  0  0  0  0  0  0  0
   -0.6568    1.1713   -0.5294 C   0  0  0  0  0  0  0  0  0  0  0  0
    0.3156    1.6674   -0.5104 H   0  0  0  0  0  0  0  0  0  0  0  0
   -0.8631    0.8876   -1.5638 H   0  0  0  0  0  0  0  0  0  0  0  0
   -1.7287    2.1844   -0.0875 C   0  0  0  0  0  0  0  0  0  0  0  0
   -1.4093    2.6825    0.8279 H   0  0  0  0  0  0  0  0  0  0  0  0
   -2.0035    3.2422   -1.1602 C   0  0  0  0  0  0  0  0  0  0  0  0
   -2.3091    2.7577   -2.0886 H   0  0  0  0  0  0  0  0  0  0  0  0
   -2.8007    3.9062   -0.8254 H   0  0  0  0  0  0  0  0  0  0  0  0
   -1.1139    3.8396   -1.3474 H   0  0  0  0  0  0  0  0  0  0  0  0
   -3.0396    1.4549    0.2037 C   0  0  0  0  0  0  0  0  0  0  0  0
   -2.8813    0.7154    0.9887 H   0  0  0  0  0  0  0  0  0  0  0  0
   -3.7923    2.1663    0.5433 H   0  0  0  0  0  0  0  0  0  0  0  0
   -3.3984    0.9535   -0.6959 H   0  0  0  0  0  0  0  0  0  0  0  0
   -0.1913    0.1554    1.7759 C   0  0  0  0  0  0  0  0  0  0  0  0
    0.9476   -0.0766    2.1748 O   0  0  0  0  0  0  0  0  0  0  0  0
   -1.1502    0.6393    2.5760 N   0  0  0  0  0  0  0  0  0  0  0  0
   -2.0581    0.8092    2.1736 H   0  0  0  0  0  0  0  0  0  0  0  0
   -0.9568    0.9369    3.9933 C   0  0  0  0  0  0  0  0  0  0  0  0
   -0.1600    1.6750    4.1097 H   0  0  0  0  0  0  0  0  0  0  0  0
   -1.8775    1.3307    4.4266 H   0  0  0  0  0  0  0  0  0  0  0  0
   -0.6678    0.0287    4.5244 H   0  0  0  0  0  0  0  0  0  0  0  0
  5  6  2  0  0  0  0
  5  7  1  0  0  0  0
  2  3  1  0  0  0  0
  2  4  1  0  0  0  0
  2  5  1  0  0  0  0
  1  2  1  0  0  0  0
 24 25  2  0  0  0  0
 24 26  1  0  0  0  0
 20 21  1  0  0  0  0
 20 22  1  0  0  0  0
 20 23  1  0  0  0  0
 16 17  1  0  0  0  0
 16 18  1  0  0  0  0
 16 19  1  0  0  0  0
 14 15  1  0  0  0  0
 14 16  1  0  0  0  0
 14 20  1  0  0  0  0
 11 12  1  0  0  0  0
 11 13  1  0  0  0  0
 11 14  1  0  0  0  0
  9 10  1  0  0  0  0
  9 11  1  0  0  0  0
  9 24  1  0  0  0  0
  7  8  1  0  0  0  0
  7  9  1  0  0  0  0
 28 29  1  0  0  0  0
 28 30  1  0  0  0  0
 28 31  1  0  0  0  0
 26 27  1  0  0  0  0
 26 28  1  0  0  0  0
M  END
$$$$
default_name
  -OEChem-02102213163D

 31 30  0     1  0  0  0  0  0999 V2000
   -3.5895   -3.5013    1.1082 H   0  0  0  0  0  0  0  0  0  0  0  0
   -3.5145   -2.5363    0.6082 C   0  0  0  0  0  0  0  0  0  0  0  0
   -4.2285   -1.8413    1.0452 H   0  0  0  0  0  0  0  0  0  0  0  0
   -3.7155   -2.6583   -0.4538 H   0  0  0  0  0  0  0  0  0  0  0  0
   -2.1155   -1.9963    0.7922 C   0  0  0  0  0  0  0  0  0  0  0  0
   -1.2875   -2.6383    1.4252 O   0  0  0  0  0  0  0  0  0  0  0  0
   -1.8575   -0.8123    0.2402 N   0  0  0  0  0  0  0  0  0  0  0  0
   -2.6005   -0.3333   -0.2478 H   0  0  0  0  0  0  0  0  0  0  0  0
   -0.5675   -0.1203    0.3102 C   0  0  1  0  0  0  0  0  0  0  0  0
    0.1932   -0.7715   -0.1219 H   0  0  0  0  0  0  0  0  0  0  0  0
   -0.6568    1.1713   -0.5294 C   0  0  0  0  0  0  0  0  0  0  0  0
    0.3156    1.6674   -0.5104 H   0  0  0  0  0  0  0  0  0  0  0  0
   -0.8631    0.8876   -1.5638 H   0  0  0  0  0  0  0  0  0  0  0  0
   -1.7287    2.1844   -0.0875 C   0  0  0  0  0  0  0  0  0  0  0  0
   -1.3101    2.8625    0.6562 H   0  0  0  0  0  0  0  0  0  0  0  0
   -2.2691    3.0054   -1.2618 C   0  0  0  0  0  0  0  0  0  0  0  0
   -2.6776    2.3391   -2.0229 H   0  0  0  0  0  0  0  0  0  0  0  0
   -3.0573    3.6723   -0.9117 H   0  0  0  0  0  0  0  0  0  0  0  0
   -1.4794    3.6086   -1.7045 H   0  0  0  0  0  0  0  0  0  0  0  0
   -2.9034    1.4464    0.5535 C   0  0  0  0  0  0  0  0  0  0  0  0
   -2.5531    0.8770    1.4144 H   0  0  0  0  0  0  0  0  0  0  0  0
   -3.6513    2.1633    0.8922 H   0  0  0  0  0  0  0  0  0  0  0  0
   -3.3579    0.7658   -0.1674 H   0  0  0  0  0  0  0  0  0  0  0  0
   -0.1913    0.1554    1.7759 C   0  0  0  0  0  0  0  0  0  0  0  0
    0.9476   -0.0766    2.1748 O   0  0  0  0  0  0  0  0  0  0  0  0
   -1.1502    0.6393    2.5760 N   0  0  0  0  0  0  0  0  0  0  0  0
   -2.0581    0.8092    2.1736 H   0  0  0  0  0  0  0  0  0  0  0  0
   -0.9568    0.9369    3.9933 C   0  0  0  0  0  0  0  0  0  0  0  0
   -0.1600    1.6750    4.1097 H   0  0  0  0  0  0  0  0  0  0  0  0
   -1.8775    1.3307    4.4266 H   0  0  0  0  0  0  0  0  0  0  0  0
   -0.6678    0.0287    4.5244 H   0  0  0  0  0  0  0  0  0  0  0  0
  5  6  2  0  0  0  0
  5  7  1  0  0  0  0
  2  3  1  0  0  0  0
  2  4  1  0  0  0  0
  2  5  1  0  0  0  0
  1  2  1  0  0  0  0
 24 25  2  0  0  0  0
 24 26  1  0  0  0  0
 20 21  1  0  0  0  0
 20 22  1  0  0  0  0
 20 23  1  0  0  0  0
 16 17  1  0  0  0  0
 16 18  1  0  0  0  0
 16 19  1  0  0  0  0
 14 15  1  0  0  0  0
 14 16  1  0  0  0  0
 14 20  1  0  0  0  0
 11 12  1  0  0  0  0
 11 13  1  0  0  0  0
 11 14  1  0  0  0  0
  9 10  1  0  0  0  0
  9 11  1  0  0  0  0
  9 24  1  0  0  0  0
  7  8  1  0  0  0  0
  7  9  1  0  0  0  0
 28 29  1  0  0  0  0
 28 30  1  0  0  0  0
 28 31  1  0  0  0  0
 26 27  1  0  0  0  0
 26 28  1  0  0  0  0
M  END
$$$$
default_name
  -OEChem-02102213163D

 31 30  0     1  0  0  0  0  0999 V2000
   -3.5895   -3.5013    1.1082 H   0  0  0  0  0  0  0  0  0  0  0  0
   -3.5145   -2.5363    0.6082 C   0  0  0  0  0  0  0  0  0  0  0  0
   -4.2285   -1.8413    1.0452 H   0  0  0  0  0  0  0  0  0  0  0  0
   -3.7155   -2.6583   -0.4538 H   0  0  0  0  0  0  0  0  0  0  0  0
   -2.1155   -1.9963    0.7922 C   0  0  0  0  0  0  0  0  0  0  0  0
   -1.2875   -2.6383    1.4252 O   0  0  0  0  0  0  0  0  0  0  0  0
   -1.8575   -0.8123    0.2402 N   0  0  0  0  0  0  0  0  0  0  0  0
   -2.6005   -0.3333   -0.2478 H   0  0  0  0  0  0  0  0  0  0  0  0
   -0.5675   -0.1203    0.3102 C   0  0  1  0  0  0  0  0  0  0  0  0
    0.1932   -0.7715   -0.1219 H   0  0  0  0  0  0  0  0  0  0  0  0
   -0.6568    1.1713   -0.5294 C   0  0  0  0  0  0  0  0  0  0  0  0
    0.3156    1.6674   -0.5104 H   0  0  0  0  0  0  0  0  0  0  0  0
   -0.8631    0.8876   -1.5638 H   0  0  0  0  0  0  0  0  0  0  0  0
   -1.7287    2.1844   -0.0875 C   0  0  0  0  0  0  0  0  0  0  0  0
   -1.2568    3.0127    0.4410 H   0  0  0  0  0  0  0  0  0  0  0  0
   -2.5254    2.7386   -1.2721 C   0  0  0  0  0  0  0  0  0  0  0  0
   -2.9912    1.9192   -1.8212 H   0  0  0  0  0  0  0  0  0  0  0  0
   -3.3025    3.4117   -0.9091 H   0  0  0  0  0  0  0  0  0  0  0  0
   -1.8762    3.2939   -1.9455 H   0  0  0  0  0  0  0  0  0  0  0  0
   -2.7117    1.5113    0.8697 C   0  0  0  0  0  0  0  0  0  0  0  0
   -2.1756    1.1342    1.7406 H   0  0  0  0  0  0  0  0  0  0  0  0
   -3.4555    2.2337    1.2057 H   0  0  0  0  0  0  0  0  0  0  0  0
   -3.2148    0.6826    0.3701 H   0  0  0  0  0  0  0  0  0  0  0  0
   -0.1913    0.1554    1.7759 C   0  0  0  0  0  0  0  0  0  0  0  0
    0.9476   -0.0766    2.1748 O   0  0  0  0  0  0  0  0  0  0  0  0
   -1.1502    0.6393    2.5760 N   0  0  0  0  0  0  0  0  0  0  0  0
   -2.0581    0.8092    2.1736 H   0  0  0  0  0  0  0  0  0  0  0  0
   -0.9568    0.9369    3.9933 C   0  0  0  0  0  0  0  0  0  0  0  0
   -0.1600    1.6750    4.1097 H   0  0  0  0  0  0  0  0  0  0  0  0
   -1.8775    1.3307    4.4266 H   0  0  0  0  0  0  0  0  0  0  0  0
   -0.6678    0.0287    4.5244 H   0  0  0  0  0  0  0  0  0  0  0  0
  5  6  2  0  0  0  0
  5  7  1  0  0  0  0
  2  3  1  0  0  0  0
  2  4  1  0  0  0  0
  2  5  1  0  0  0  0
  1  2  1  0  0  0  0
 24 25  2  0  0  0  0
 24 26  1  0  0  0  0
 20 21  1  0  0  0  0
 20 22  1  0  0  0  0
 20 23  1  0  0  0  0
 16 17  1  0  0  0  0
 16 18  1  0  0  0  0
 16 19  1  0  0  0  0
 14 15  1  0  0  0  0
 14 16  1  0  0  0  0
 14 20  1  0  0  0  0
 11 12  1  0  0  0  0
 11 13  1  0  0  0  0
 11 14  1  0  0  0  0
  9 10  1  0  0  0  0
  9 11  1  0  0  0  0
  9 24  1  0  0  0  0
  7  8  1  0  0  0  0
  7  9  1  0  0  0  0
 28 29  1  0  0  0  0
 28 30  1  0  0  0  0
 28 31  1  0  0  0  0
 26 27  1  0  0  0  0
 26 28  1  0  0  0  0
M  END
$$$$
default_name
  -OEChem-02102213163D

 31 30  0     1  0  0  0  0  0999 V2000
   -3.5895   -3.5013    1.1082 H   0  0  0  0  0  0  0  0  0  0  0  0
   -3.5145   -2.5363    0.6082 C   0  0  0  0  0  0  0  0  0  0  0  0
   -4.2285   -1.8413    1.0452 H   0  0  0  0  0  0  0  0  0  0  0  0
   -3.7155   -2.6583   -0.4538 H   0  0  0  0  0  0  0  0  0  0  0  0
   -2.1155   -1.9963    0.7922 C   0  0  0  0  0  0  0  0  0  0  0  0
   -1.2875   -2.6383    1.4252 O   0  0  0  0  0  0  0  0  0  0  0  0
   -1.8575   -0.8123    0.2402 N   0  0  0  0  0  0  0  0  0  0  0  0
   -2.6005   -0.3333   -0.2478 H   0  0  0  0  0  0  0  0  0  0  0  0
   -0.5675   -0.1203    0.3102 C   0  0  1  0  0  0  0  0  0  0  0  0
    0.1932   -0.7715   -0.1219 H   0  0  0  0  0  0  0  0  0  0  0  0
   -0.6568    1.1713   -0.5294 C   0  0  0  0  0  0  0  0  0  0  0  0
    0.3156    1.6674   -0.5104 H   0  0  0  0  0  0  0  0  0  0  0  0
   -0.8631    0.8876   -1.5638 H   0  0  0  0  0  0  0  0  0  0  0  0
   -1.7287    2.1844   -0.0875 C   0  0  0  0  0  0  0  0  0  0  0  0
   -1.2532    3.1230    0.1969 H   0  0  0  0  0  0  0  0  0  0  0  0
   -2.7549    2.4601   -1.1902 C   0  0  0  0  0  0  0  0  0  0  0  0
   -3.2286    1.5266   -1.4973 H   0  0  0  0  0  0  0  0  0  0  0  0
   -3.5196    3.1423   -0.8180 H   0  0  0  0  0  0  0  0  0  0  0  0
   -2.2771    2.9171   -2.0541 H   0  0  0  0  0  0  0  0  0  0  0  0
   -2.4774    1.6453    1.1308 C   0  0  0  0  0  0  0  0  0  0  0  0
   -1.7745    1.4694    1.9450 H   0  0  0  0  0  0  0  0  0  0  0  0
   -3.2182    2.3728    1.4625 H   0  0  0  0  0  0  0  0  0  0  0  0
   -2.9789    0.7099    0.8799 H   0  0  0  0  0  0  0  0  0  0  0  0
   -0.1913    0.1554    1.7759 C   0  0  0  0  0  0  0  0  0  0  0  0
    0.9476   -0.0766    2.1748 O   0  0  0  0  0  0  0  0  0  0  0  0
   -1.1502    0.6393    2.5760 N   0  0  0  0  0  0  0  0  0  0  0  0
   -2.0581    0.8092    2.1736 H   0  0  0  0  0  0  0  0  0  0  0  0
   -0.9568    0.9369    3.9933 C   0  0  0  0  0  0  0  0  0  0  0  0
   -0.1600    1.6750    4.1097 H   0  0  0  0  0  0  0  0  0  0  0  0
   -1.8775    1.3307    4.4266 H   0  0  0  0  0  0  0  0  0  0  0  0
   -0.6678    0.0287    4.5244 H   0  0  0  0  0  0  0  0  0  0  0  0
  5  6  2  0  0  0  0
  5  7  1  0  0  0  0
  2  3  1  0  0  0  0
  2  4  1  0  0  0  0
  2  5  1  0  0  0  0
  1  2  1  0  0  0  0
 24 25  2  0  0  0  0
 24 26  1  0  0  0  0
 20 21  1  0  0  0  0
 20 22  1  0  0  0  0
 20 23  1  0  0  0  0
 16 17  1  0  0  0  0
 16 18  1  0  0  0  0
 16 19  1  0  0  0  0
 14 15  1  0  0  0  0
 14 16  1  0  0  0  0
 14 20  1  0  0  0  0
 11 12  1  0  0  0  0
 11 13  1  0  0  0  0
 11 14  1  0  0  0  0
  9 10  1  0  0  0  0
  9 11  1  0  0  0  0
  9 24  1  0  0  0  0
  7  8  1  0  0  0  0
  7  9  1  0  0  0  0
 28 29  1  0  0  0  0
 28 30  1  0  0  0  0
 28 31  1  0  0  0  0
 26 27  1  0  0  0  0
 26 28  1  0  0  0  0
M  END
$$$$
default_name
  -OEChem-02102213163D

 31 30  0     1  0  0  0  0  0999 V2000
   -3.5895   -3.5013    1.1082 H   0  0  0  0  0  0  0  0  0  0  0  0
   -3.5145   -2.5363    0.6082 C   0  0  0  0  0  0  0  0  0  0  0  0
   -4.2285   -1.8413    1.0452 H   0  0  0  0  0  0  0  0  0  0  0  0
   -3.7155   -2.6583   -0.4538 H   0  0  0  0  0  0  0  0  0  0  0  0
   -2.1155   -1.9963    0.7922 C   0  0  0  0  0  0  0  0  0  0  0  0
   -1.2875   -2.6383    1.4252 O   0  0  0  0  0  0  0  0  0  0  0  0
   -1.8575   -0.8123    0.2402 N   0  0  0  0  0  0  0  0  0  0  0  0
   -2.6005   -0.3333   -0.2478 H   0  0  0  0  0  0  0  0  0  0  0  0
   -0.5675   -0.1203    0.3102 C   0  0  1  0  0  0  0  0  0  0  0  0
    0.1932   -0.7715   -0.1219 H   0  0  0  0  0  0  0  0  0  0  0  0
   -0.6568    1.1713   -0.5294 C   0  0  0  0  0  0  0  0  0  0  0  0
    0.3156    1.6674   -0.5104 H   0  0  0  0  0  0  0  0  0  0  0  0
   -0.8631    0.8876   -1.5638 H   0  0  0  0  0  0  0  0  0  0  0  0
   -1.7287    2.1844   -0.0875 C   0  0  0  0  0  0  0  0  0  0  0  0
   -1.2994    3.1859   -0.0593 H   0  0  0  0  0  0  0  0  0  0  0  0
   -2.9420    2.1887   -1.0219 C   0  0  0  0  0  0  0  0  0  0  0  0
   -3.3737    1.1882   -1.0733 H   0  0  0  0  0  0  0  0  0  0  0  0
   -3.6937    2.8823   -0.6444 H   0  0  0  0  0  0  0  0  0  0  0  0
   -2.6549    2.5037   -2.0228 H   0  0  0  0  0  0  0  0  0  0  0  0
   -2.2167    1.8391    1.3190 C   0  0  0  0  0  0  0  0  0  0  0  0
   -1.3771    1.8599    2.0138 H   0  0  0  0  0  0  0  0  0  0  0  0
   -2.9556    2.5710    1.6451 H   0  0  0  0  0  0  0  0  0  0  0  0
   -2.6662    0.8455    1.3273 H   0  0  0  0  0  0  0  0  0  0  0  0
   -0.1913    0.1554    1.7759 C   0  0  0  0  0  0  0  0  0  0  0  0
    0.9476   -0.0766    2.1748 O   0  0  0  0  0  0  0  0  0  0  0  0
   -1.1502    0.6393    2.5760 N   0  0  0  0  0  0  0  0  0  0  0  0
   -2.0581    0.8092    2.1736 H   0  0  0  0  0  0  0  0  0  0  0  0
   -0.9568    0.9369    3.9933 C   0  0  0  0  0  0  0  0  0  0  0  0
   -0.1600    1.6750    4.1097 H   0  0  0  0  0  0  0  0  0  0  0  0
   -1.8775    1.3307    4.4266 H   0  0  0  0  0  0  0  0  0  0  0  0
   -0.6678    0.0287    4.5244 H   0  0  0  0  0  0  0  0  0  0  0  0
  5  6  2  0  0  0  0
  5  7  1  0  0  0  0
  2  3  1  0  0  0  0
  2  4  1  0  0  0  0
  2  5  1  0  0  0  0
  1  2  1  0  0  0  0
 24 25  2  0  0  0  0
 24 26  1  0  0  0  0
 20 21  1  0  0  0  0
 20 22  1  0  0  0  0
 20 23  1  0  0  0  0
 16 17  1  0  0  0  0
 16 18  1  0  0  0  0
 16 19  1  0  0  0  0
 14 15  1  0  0  0  0
 14 16  1  0  0  0  0
 14 20  1  0  0  0  0
 11 12  1  0  0  0  0
 11 13  1  0  0  0  0
 11 14  1  0  0  0  0
  9 10  1  0  0  0  0
  9 11  1  0  0  0  0
  9 24  1  0  0  0  0
  7  8  1  0  0  0  0
  7  9  1  0  0  0  0
 28 29  1  0  0  0  0
 28 30  1  0  0  0  0
 28 31  1  0  0  0  0
 26 27  1  0  0  0  0
 26 28  1  0  0  0  0
M  END
$$$$
default_name
  -OEChem-02102213163D

 31 30  0     1  0  0  0  0  0999 V2000
   -3.5895   -3.5013    1.1082 H   0  0  0  0  0  0  0  0  0  0  0  0
   -3.5145   -2.5363    0.6082 C   0  0  0  0  0  0  0  0  0  0  0  0
   -4.2285   -1.8413    1.0452 H   0  0  0  0  0  0  0  0  0  0  0  0
   -3.7155   -2.6583   -0.4538 H   0  0  0  0  0  0  0  0  0  0  0  0
   -2.1155   -1.9963    0.7922 C   0  0  0  0  0  0  0  0  0  0  0  0
   -1.2875   -2.6383    1.4252 O   0  0  0  0  0  0  0  0  0  0  0  0
   -1.8575   -0.8123    0.2402 N   0  0  0  0  0  0  0  0  0  0  0  0
   -2.6005   -0.3333   -0.2478 H   0  0  0  0  0  0  0  0  0  0  0  0
   -0.5675   -0.1203    0.3102 C   0  0  1  0  0  0  0  0  0  0  0  0
    0.1932   -0.7715   -0.1219 H   0  0  0  0  0  0  0  0  0  0  0  0
   -0.6568    1.1713   -0.5294 C   0  0  0  0  0  0  0  0  0  0  0  0
    0.3156    1.6674   -0.5104 H   0  0  0  0  0  0  0  0  0  0  0  0
   -0.8631    0.8876   -1.5638 H   0  0  0  0  0  0  0  0  0  0  0  0
   -1.7287    2.1844   -0.0875 C   0  0  0  0  0  0  0  0  0  0  0  0
   -1.3924    3.1970   -0.3102 H   0  0  0  0  0  0  0  0  0  0  0  0
   -3.0738    1.9430   -0.7786 C   0  0  0  0  0  0  0  0  0  0  0  0
   -3.4164    0.9269   -0.5781 H   0  0  0  0  0  0  0  0  0  0  0  0
   -3.8130    2.6496   -0.4003 H   0  0  0  0  0  0  0  0  0  0  0  0
   -2.9837    2.0820   -1.8538 H   0  0  0  0  0  0  0  0  0  0  0  0
   -1.9471    2.0796    1.4214 C   0  0  0  0  0  0  0  0  0  0  0  0
   -1.0106    2.2789    1.9422 H   0  0  0  0  0  0  0  0  0  0  0  0
   -2.6856    2.8149    1.7411 H   0  0  0  0  0  0  0  0  0  0  0  0
   -2.2981    1.0804    1.6817 H   0  0  0  0  0  0  0  0  0  0  0  0
   -0.1913    0.1554    1.7759 C   0  0  0  0  0  0  0  0  0  0  0  0
    0.9476   -0.0766    2.1748 O   0  0  0  0  0  0  0  0  0  0  0  0
   -1.1502    0.6393    2.5760 N   0  0  0  0  0  0  0  0  0  0  0  0
   -2.0581    0.8092    2.1736 H   0  0  0  0  0  0  0  0  0  0  0  0
   -0.9568    0.9369    3.9933 C   0  0  0  0  0  0  0  0  0  0  0  0
   -0.1600    1.6750    4.1097 H   0  0  0  0  0  0  0  0  0  0  0  0
   -1.8775    1.3307    4.4266 H   0  0  0  0  0  0  0  0  0  0  0  0
   -0.6678    0.0287    4.5244 H   0  0  0  0  0  0  0  0  0  0  0  0
  5  6  2  0  0  0  0
  5  7  1  0  0  0  0
  2  3  1  0  0  0  0
  2  4  1  0  0  0  0
  2  5  1  0  0  0  0
  1  2  1  0  0  0  0
 24 25  2  0  0  0  0
 24 26  1  0  0  0  0
 20 21  1  0  0  0  0
 20 22  1  0  0  0  0
 20 23  1  0  0  0  0
 16 17  1  0  0  0  0
 16 18  1  0  0  0  0
 16 19  1  0  0  0  0
 14 15  1  0  0  0  0
 14 16  1  0  0  0  0
 14 20  1  0  0  0  0
 11 12  1  0  0  0  0
 11 13  1  0  0  0  0
 11 14  1  0  0  0  0
  9 10  1  0  0  0  0
  9 11  1  0  0  0  0
  9 24  1  0  0  0  0
  7  8  1  0  0  0  0
  7  9  1  0  0  0  0
 28 29  1  0  0  0  0
 28 30  1  0  0  0  0
 28 31  1  0  0  0  0
 26 27  1  0  0  0  0
 26 28  1  0  0  0  0
M  END
$$$$
default_name
  -OEChem-02102213163D

 31 30  0     1  0  0  0  0  0999 V2000
   -3.5895   -3.5013    1.1082 H   0  0  0  0  0  0  0  0  0  0  0  0
   -3.5145   -2.5363    0.6082 C   0  0  0  0  0  0  0  0  0  0  0  0
   -4.2285   -1.8413    1.0452 H   0  0  0  0  0  0  0  0  0  0  0  0
   -3.7155   -2.6583   -0.4538 H   0  0  0  0  0  0  0  0  0  0  0  0
   -2.1155   -1.9963    0.7922 C   0  0  0  0  0  0  0  0  0  0  0  0
   -1.2875   -2.6383    1.4252 O   0  0  0  0  0  0  0  0  0  0  0  0
   -1.8575   -0.8123    0.2402 N   0  0  0  0  0  0  0  0  0  0  0  0
   -2.6005   -0.3333   -0.2478 H   0  0  0  0  0  0  0  0  0  0  0  0
   -0.5675   -0.1203    0.3102 C   0  0  1  0  0  0  0  0  0  0  0  0
    0.1932   -0.7715   -0.1219 H   0  0  0  0  0  0  0  0  0  0  0  0
   -0.6568    1.1713   -0.5294 C   0  0  0  0  0  0  0  0  0  0  0  0
    0.3156    1.6674   -0.5104 H   0  0  0  0  0  0  0  0  0  0  0  0
   -0.8631    0.8876   -1.5638 H   0  0  0  0  0  0  0  0  0  0  0  0
   -1.7287    2.1844   -0.0875 C   0  0  0  0  0  0  0  0  0  0  0  0
   -1.5258    3.1556   -0.5388 H   0  0  0  0  0  0  0  0  0  0  0  0
   -3.1415    1.7398   -0.4768 C   0  0  0  0  0  0  0  0  0  0  0  0
   -3.3539    0.7606   -0.0454 H   0  0  0  0  0  0  0  0  0  0  0  0
   -3.8694    2.4599   -0.1023 H   0  0  0  0  0  0  0  0  0  0  0  0
   -3.2412    1.6806   -1.5585 H   0  0  0  0  0  0  0  0  0  0  0  0
   -1.6872    2.3504    1.4311 C   0  0  0  0  0  0  0  0  0  0  0  0
   -0.6999    2.6980    1.7351 H   0  0  0  0  0  0  0  0  0  0  0  0
   -2.4266    3.0878    1.7438 H   0  0  0  0  0  0  0  0  0  0  0  0
   -1.8996    1.3985    1.9191 H   0  0  0  0  0  0  0  0  0  0  0  0
   -0.1913    0.1554    1.7759 C   0  0  0  0  0  0  0  0  0  0  0  0
    0.9476   -0.0766    2.1748 O   0  0  0  0  0  0  0  0  0  0  0  0
   -1.1502    0.6393    2.5760 N   0  0  0  0  0  0  0  0  0  0  0  0
   -2.0581    0.8092    2.1736 H   0  0  0  0  0  0  0  0  0  0  0  0
   -0.9568    0.9369    3.9933 C   0  0  0  0  0  0  0  0  0  0  0  0
   -0.1600    1.6750    4.1097 H   0  0  0  0  0  0  0  0  0  0  0  0
   -1.8775    1.3307    4.4266 H   0  0  0  0  0  0  0  0  0  0  0  0
   -0.6678    0.0287    4.5244 H   0  0  0  0  0  0  0  0  0  0  0  0
  5  6  2  0  0  0  0
  5  7  1  0  0  0  0
  2  3  1  0  0  0  0
  2  4  1  0  0  0  0
  2  5  1  0  0  0  0
  1  2  1  0  0  0  0
 24 25  2  0  0  0  0
 24 26  1  0  0  0  0
 20 21  1  0  0  0  0
 20 22  1  0  0  0  0
 20 23  1  0  0  0  0
 16 17  1  0  0  0  0
 16 18  1  0  0  0  0
 16 19  1  0  0  0  0
 14 15  1  0  0  0  0
 14 16  1  0  0  0  0
 14 20  1  0  0  0  0
 11 12  1  0  0  0  0
 11 13  1  0  0  0  0
 11 14  1  0  0  0  0
  9 10  1  0  0  0  0
  9 11  1  0  0  0  0
  9 24  1  0  0  0  0
  7  8  1  0  0  0  0
  7  9  1  0  0  0  0
 28 29  1  0  0  0  0
 28 30  1  0  0  0  0
 28 31  1  0  0  0  0
 26 27  1  0  0  0  0
 26 28  1  0  0  0  0
M  END
$$$$
default_name
  -OEChem-02102213163D

 31 30  0     1  0  0  0  0  0999 V2000
   -3.5895   -3.5013    1.1082 H   0  0  0  0  0  0  0  0  0  0  0  0
   -3.5145   -2.5363    0.6082 C   0  0  0  0  0  0  0  0  0  0  0  0
   -4.2285   -1.8413    1.0452 H   0  0  0  0  0  0  0  0  0  0  0  0
   -3.7155   -2.6583   -0.4538 H   0  0  0  0  0  0  0  0  0  0  0  0
   -2.1155   -1.9963    0.7922 C   0  0  0  0  0  0  0  0  0  0  0  0
   -1.2875   -2.6383    1.4252 O   0  0  0  0  0  0  0  0  0  0  0  0
   -1.8575   -0.8123    0.2402 N   0  0  0  0  0  0  0  0  0  0  0  0
   -2.6005   -0.3333   -0.2478 H   0  0  0  0  0  0  0  0  0  0  0  0
   -0.5675   -0.1203    0.3102 C   0  0  1  0  0  0  0  0  0  0  0  0
    0.1932   -0.7715   -0.1219 H   0  0  0  0  0  0  0  0  0  0  0  0
   -0.6568    1.1713   -0.5294 C   0  0  0  0  0  0  0  0  0  0  0  0
    0.3156    1.6674   -0.5104 H   0  0  0  0  0  0  0  0  0  0  0  0
   -0.8631    0.8876   -1.5638 H   0  0  0  0  0  0  0  0  0  0  0  0
   -1.7287    2.1844   -0.0875 C   0  0  0  0  0  0  0  0  0  0  0  0
   -1.6904    3.0645   -0.7294 H   0  0  0  0  0  0  0  0  0  0  0  0
   -3.1404    1.5928   -0.1372 C   0  0  0  0  0  0  0  0  0  0  0  0
   -3.1905    0.7006    0.4885 H   0  0  0  0  0  0  0  0  0  0  0  0
   -3.8590    2.3262    0.2294 H   0  0  0  0  0  0  0  0  0  0  0  0
   -3.4099    1.3271   -1.1571 H   0  0  0  0  0  0  0  0  0  0  0  0
   -1.4546    2.6331    1.3474 C   0  0  0  0  0  0  0  0  0  0  0  0
   -0.4662    3.0886    1.4067 H   0  0  0  0  0  0  0  0  0  0  0  0
   -2.1962    3.3711    1.6531 H   0  0  0  0  0  0  0  0  0  0  0  0
   -1.4980    1.7782    2.0231 H   0  0  0  0  0  0  0  0  0  0  0  0
   -0.1913    0.1554    1.7759 C   0  0  0  0  0  0  0  0  0  0  0  0
    0.9476   -0.0766    2.1748 O   0  0  0  0  0  0  0  0  0  0  0  0
   -1.1502    0.6393    2.5760 N   0  0  0  0  0  0  0  0  0  0  0  0
   -2.0581    0.8092    2.1736 H   0  0  0  0  0  0  0  0  0  0  0  0
   -0.9568    0.9369    3.9933 C   0  0  0  0  0  0  0  0  0  0  0  0
   -0.1600    1.6750    4.1097 H   0  0  0  0  0  0  0  0  0  0  0  0
   -1.8775    1.3307    4.4266 H   0  0  0  0  0  0  0  0  0  0  0  0
   -0.6678    0.0287    4.5244 H   0  0  0  0  0  0  0  0  0  0  0  0
  5  6  2  0  0  0  0
  5  7  1  0  0  0  0
  2  3  1  0  0  0  0
  2  4  1  0  0  0  0
  2  5  1  0  0  0  0
  1  2  1  0  0  0  0
 24 25  2  0  0  0  0
 24 26  1  0  0  0  0
 20 21  1  0  0  0  0
 20 22  1  0  0  0  0
 20 23  1  0  0  0  0
 16 17  1  0  0  0  0
 16 18  1  0  0  0  0
 16 19  1  0  0  0  0
 14 15  1  0  0  0  0
 14 16  1  0  0  0  0
 14 20  1  0  0  0  0
 11 12  1  0  0  0  0
 11 13  1  0  0  0  0
 11 14  1  0  0  0  0
  9 10  1  0  0  0  0
  9 11  1  0  0  0  0
  9 24  1  0  0  0  0
  7  8  1  0  0  0  0
  7  9  1  0  0  0  0
 28 29  1  0  0  0  0
 28 30  1  0  0  0  0
 28 31  1  0  0  0  0
 26 27  1  0  0  0  0
 26 28  1  0  0  0  0
M  END
$$$$
default_name
  -OEChem-02102213163D

 31 30  0     1  0  0  0  0  0999 V2000
   -3.5895   -3.5013    1.1082 H   0  0  0  0  0  0  0  0  0  0  0  0
   -3.5145   -2.5363    0.6082 C   0  0  0  0  0  0  0  0  0  0  0  0
   -4.2285   -1.8413    1.0452 H   0  0  0  0  0  0  0  0  0  0  0  0
   -3.7155   -2.6583   -0.4538 H   0  0  0  0  0  0  0  0  0  0  0  0
   -2.1155   -1.9963    0.7922 C   0  0  0  0  0  0  0  0  0  0  0  0
   -1.2875   -2.6383    1.4252 O   0  0  0  0  0  0  0  0  0  0  0  0
   -1.8575   -0.8123    0.2402 N   0  0  0  0  0  0  0  0  0  0  0  0
   -2.6005   -0.3333   -0.2478 H   0  0  0  0  0  0  0  0  0  0  0  0
   -0.5675   -0.1203    0.3102 C   0  0  1  0  0  0  0  0  0  0  0  0
    0.1932   -0.7715   -0.1219 H   0  0  0  0  0  0  0  0  0  0  0  0
   -0.6568    1.1713   -0.5294 C   0  0  0  0  0  0  0  0  0  0  0  0
    0.3156    1.6674   -0.5104 H   0  0  0  0  0  0  0  0  0  0  0  0
   -0.8631    0.8876   -1.5638 H   0  0  0  0  0  0  0  0  0  0  0  0
   -1.7287    2.1844   -0.0875 C   0  0  0  0  0  0  0  0  0  0  0  0
   -1.8752    2.9299   -0.8690 H   0  0  0  0  0  0  0  0  0  0  0  0
   -3.0706    1.5121    0.2171 C   0  0  0  0  0  0  0  0  0  0  0  0
   -2.9373    0.7510    0.9872 H   0  0  0  0  0  0  0  0  0  0  0  0
   -3.7825    2.2576    0.5721 H   0  0  0  0  0  0  0  0  0  0  0  0
   -3.4782    1.0453   -0.6770 H   0  0  0  0  0  0  0  0  0  0  0  0
   -1.2652    2.9083    1.1761 C   0  0  0  0  0  0  0  0  0  0  0  0
   -0.3254    3.4241    0.9793 H   0  0  0  0  0  0  0  0  0  0  0  0
   -2.0101    3.6456    1.4753 H   0  0  0  0  0  0  0  0  0  0  0  0
   -1.1205    2.1934    1.9869 H   0  0  0  0  0  0  0  0  0  0  0  0
   -0.1913    0.1554    1.7759 C   0  0  0  0  0  0  0  0  0  0  0  0
    0.9476   -0.0766    2.1748 O   0  0  0  0  0  0  0  0  0  0  0  0
   -1.1502    0.6393    2.5760 N   0  0  0  0  0  0  0  0  0  0  0  0
   -2.0581    0.8092    2.1736 H   0  0  0  0  0  0  0  0  0  0  0  0
   -0.9568    0.9369    3.9933 C   0  0  0  0  0  0  0  0  0  0  0  0
   -0.1600    1.6750    4.1097 H   0  0  0  0  0  0  0  0  0  0  0  0
   -1.8775    1.3307    4.4266 H   0  0  0  0  0  0  0  0  0  0  0  0
   -0.6678    0.0287    4.5244 H   0  0  0  0  0  0  0  0  0  0  0  0
  5  6  2  0  0  0  0
  5  7  1  0  0  0  0
  2  3  1  0  0  0  0
  2  4  1  0  0  0  0
  2  5  1  0  0  0  0
  1  2  1  0  0  0  0
 24 25  2  0  0  0  0
 24 26  1  0  0  0  0
 20 21  1  0  0  0  0
 20 22  1  0  0  0  0
 20 23  1  0  0  0  0
 16 17  1  0  0  0  0
 16 18  1  0  0  0  0
 16 19  1  0  0  0  0
 14 15  1  0  0  0  0
 14 16  1  0  0  0  0
 14 20  1  0  0  0  0
 11 12  1  0  0  0  0
 11 13  1  0  0  0  0
 11 14  1  0  0  0  0
  9 10  1  0  0  0  0
  9 11  1  0  0  0  0
  9 24  1  0  0  0  0
  7  8  1  0  0  0  0
  7  9  1  0  0  0  0
 28 29  1  0  0  0  0
 28 30  1  0  0  0  0
 28 31  1  0  0  0  0
 26 27  1  0  0  0  0
 26 28  1  0  0  0  0
M  END
$$$$
default_name
  -OEChem-02102213163D

 31 30  0     1  0  0  0  0  0999 V2000
   -3.5895   -3.5013    1.1082 H   0  0  0  0  0  0  0  0  0  0  0  0
   -3.5145   -2.5363    0.6082 C   0  0  0  0  0  0  0  0  0  0  0  0
   -4.2285   -1.8413    1.0452 H   0  0  0  0  0  0  0  0  0  0  0  0
   -3.7155   -2.6583   -0.4538 H   0  0  0  0  0  0  0  0  0  0  0  0
   -2.1155   -1.9963    0.7922 C   0  0  0  0  0  0  0  0  0  0  0  0
   -1.2875   -2.6383    1.4252 O   0  0  0  0  0  0  0  0  0  0  0  0
   -1.8575   -0.8123    0.2402 N   0  0  0  0  0  0  0  0  0  0  0  0
   -2.6005   -0.3333   -0.2478 H   0  0  0  0  0  0  0  0  0  0  0  0
   -0.5675   -0.1203    0.3102 C   0  0  1  0  0  0  0  0  0  0  0  0
    0.1932   -0.7715   -0.1219 H   0  0  0  0  0  0  0  0  0  0  0  0
   -0.6568    1.1713   -0.5294 C   0  0  0  0  0  0  0  0  0  0  0  0
    0.3156    1.6674   -0.5104 H   0  0  0  0  0  0  0  0  0  0  0  0
   -0.8631    0.8876   -1.5638 H   0  0  0  0  0  0  0  0  0  0  0  0
   -1.7287    2.1844   -0.0875 C   0  0  0  0  0  0  0  0  0  0  0  0
   -2.0674    2.7611   -0.9482 H   0  0  0  0  0  0  0  0  0  0  0  0
   -2.9368    1.5032    0.5621 C   0  0  0  0  0  0  0  0  0  0  0  0
   -2.6115    0.9083    1.4167 H   0  0  0  0  0  0  0  0  0  0  0  0
   -3.6452    2.2587    0.9025 H   0  0  0  0  0  0  0  0  0  0  0  0
   -3.4414    0.8547   -0.1508 H   0  0  0  0  0  0  0  0  0  0  0  0
   -1.1319    3.1573    0.9287 C   0  0  0  0  0  0  0  0  0  0  0  0
   -0.2871    3.6816    0.4820 H   0  0  0  0  0  0  0  0  0  0  0  0
   -1.8811    3.8925    1.2224 H   0  0  0  0  0  0  0  0  0  0  0  0
   -0.7929    2.6161    1.8127 H   0  0  0  0  0  0  0  0  0  0  0  0
   -0.1913    0.1554    1.7759 C   0  0  0  0  0  0  0  0  0  0  0  0
    0.9476   -0.0766    2.1748 O   0  0  0  0  0  0  0  0  0  0  0  0
   -1.1502    0.6393    2.5760 N   0  0  0  0  0  0  0  0  0  0  0  0
   -2.0581    0.8092    2.1736 H   0  0  0  0  0  0  0  0  0  0  0  0
   -0.9568    0.9369    3.9933 C   0  0  0  0  0  0  0  0  0  0  0  0
   -0.1600    1.6750    4.1097 H   0  0  0  0  0  0  0  0  0  0  0  0
   -1.8775    1.3307    4.4266 H   0  0  0  0  0  0  0  0  0  0  0  0
   -0.6678    0.0287    4.5244 H   0  0  0  0  0  0  0  0  0  0  0  0
  5  6  2  0  0  0  0
  5  7  1  0  0  0  0
  2  3  1  0  0  0  0
  2  4  1  0  0  0  0
  2  5  1  0  0  0  0
  1  2  1  0  0  0  0
 24 25  2  0  0  0  0
 24 26  1  0  0  0  0
 20 21  1  0  0  0  0
 20 22  1  0  0  0  0
 20 23  1  0  0  0  0
 16 17  1  0  0  0  0
 16 18  1  0  0  0  0
 16 19  1  0  0  0  0
 14 15  1  0  0  0  0
 14 16  1  0  0  0  0
 14 20  1  0  0  0  0
 11 12  1  0  0  0  0
 11 13  1  0  0  0  0
 11 14  1  0  0  0  0
  9 10  1  0  0  0  0
  9 11  1  0  0  0  0
  9 24  1  0  0  0  0
  7  8  1  0  0  0  0
  7  9  1  0  0  0  0
 28 29  1  0  0  0  0
 28 30  1  0  0  0  0
 28 31  1  0  0  0  0
 26 27  1  0  0  0  0
 26 28  1  0  0  0  0
M  END
$$$$
default_name
  -OEChem-02102213163D

 31 30  0     1  0  0  0  0  0999 V2000
   -3.5895   -3.5013    1.1082 H   0  0  0  0  0  0  0  0  0  0  0  0
   -3.5145   -2.5363    0.6082 C   0  0  0  0  0  0  0  0  0  0  0  0
   -4.2285   -1.8413    1.0452 H   0  0  0  0  0  0  0  0  0  0  0  0
   -3.7155   -2.6583   -0.4538 H   0  0  0  0  0  0  0  0  0  0  0  0
   -2.1155   -1.9963    0.7922 C   0  0  0  0  0  0  0  0  0  0  0  0
   -1.2875   -2.6383    1.4252 O   0  0  0  0  0  0  0  0  0  0  0  0
   -1.8575   -0.8123    0.2402 N   0  0  0  0  0  0  0  0  0  0  0  0
   -2.6005   -0.3333   -0.2478 H   0  0  0  0  0  0  0  0  0  0  0  0
   -0.5675   -0.1203    0.3102 C   0  0  1  0  0  0  0  0  0  0  0  0
    0.1932   -0.7715   -0.1219 H   0  0  0  0  0  0  0  0  0  0  0  0
   -0.6568    1.1713   -0.5294 C   0  0  0  0  0  0  0  0  0  0  0  0
    0.3156    1.6674   -0.5104 H   0  0  0  0  0  0  0  0  0  0  0  0
   -0.8631    0.8876   -1.5638 H   0  0  0  0  0  0  0  0  0  0  0  0
   -1.7287    2.1844   -0.0875 C   0  0  0  0  0  0  0  0  0  0  0  0
   -2.2540    2.5694   -0.9615 H   0  0  0  0  0  0  0  0  0  0  0  0
   -2.7481    1.5667    0.8741 C   0  0  0  0  0  0  0  0  0  0  0  0
   -2.2354    1.1619    1.7477 H   0  0  0  0  0  0  0  0  0  0  0  0
   -3.4564    2.3296    1.1980 H   0  0  0  0  0  0  0  0  0  0  0  0
   -3.3022    0.7680    0.3855 H   0  0  0  0  0  0  0  0  0  0  0  0
   -1.0637    3.3632    0.6221 C   0  0  0  0  0  0  0  0  0  0  0  0
   -0.3539    3.8435   -0.0513 H   0  0  0  0  0  0  0  0  0  0  0  0
   -1.8178    4.0950    0.9116 H   0  0  0  0  0  0  0  0  0  0  0  0
   -0.5375    3.0173    1.5125 H   0  0  0  0  0  0  0  0  0  0  0  0
   -0.1913    0.1554    1.7759 C   0  0  0  0  0  0  0  0  0  0  0  0
    0.9476   -0.0766    2.1748 O   0  0  0  0  0  0  0  0  0  0  0  0
   -1.1502    0.6393    2.5760 N   0  0  0  0  0  0  0  0  0  0  0  0
   -2.0581    0.8092    2.1736 H   0  0  0  0  0  0  0  0  0  0  0  0
   -0.9568    0.9369    3.9933 C   0  0  0  0  0  0  0  0  0  0  0  0
   -0.1600    1.6750    4.1097 H   0  0  0  0  0  0  0  0  0  0  0  0
   -1.8775    1.3307    4.4266 H   0  0  0  0  0  0  0  0  0  0  0  0
   -0.6678    0.0287    4.5244 H   0  0  0  0  0  0  0  0  0  0  0  0
  5  6  2  0  0  0  0
  5  7  1  0  0  0  0
  2  3  1  0  0  0  0
  2  4  1  0  0  0  0
  2  5  1  0  0  0  0
  1  2  1  0  0  0  0
 24 25  2  0  0  0  0
 24 26  1  0  0  0  0
 20 21  1  0  0  0  0
 20 22  1  0  0  0  0
 20 23  1  0  0  0  0
 16 17  1  0  0  0  0
 16 18  1  0  0  0  0
 16 19  1  0  0  0  0
 14 15  1  0  0  0  0
 14 16  1  0  0  0  0
 14 20  1  0  0  0  0
 11 12  1  0  0  0  0
 11 13  1  0  0  0  0
 11 14  1  0  0  0  0
  9 10  1  0  0  0  0
  9 11  1  0  0  0  0
  9 24  1  0  0  0  0
  7  8  1  0  0  0  0
  7  9  1  0  0  0  0
 28 29  1  0  0  0  0
 28 30  1  0  0  0  0
 28 31  1  0  0  0  0
 26 27  1  0  0  0  0
 26 28  1  0  0  0  0
M  END
$$$$
default_name
  -OEChem-02102213163D

 31 30  0     1  0  0  0  0  0999 V2000
   -3.5895   -3.5013    1.1082 H   0  0  0  0  0  0  0  0  0  0  0  0
   -3.5145   -2.5363    0.6082 C   0  0  0  0  0  0  0  0  0  0  0  0
   -4.2285   -1.8413    1.0452 H   0  0  0  0  0  0  0  0  0  0  0  0
   -3.7155   -2.6583   -0.4538 H   0  0  0  0  0  0  0  0  0  0  0  0
   -2.1155   -1.9963    0.7922 C   0  0  0  0  0  0  0  0  0  0  0  0
   -1.2875   -2.6383    1.4252 O   0  0  0  0  0  0  0  0  0  0  0  0
   -1.8575   -0.8123    0.2402 N   0  0  0  0  0  0  0  0  0  0  0  0
   -2.6005   -0.3333   -0.2478 H   0  0  0  0  0  0  0  0  0  0  0  0
   -0.5675   -0.1203    0.3102 C   0  0  1  0  0  0  0  0  0  0  0  0
    0.1932   -0.7715   -0.1219 H   0  0  0  0  0  0  0  0  0  0  0  0
   -0.6568    1.1713   -0.5294 C   0  0  0  0  0  0  0  0  0  0  0  0
    0.3156    1.6674   -0.5104 H   0  0  0  0  0  0  0  0  0  0  0  0
   -0.8631    0.8876   -1.5638 H   0  0  0  0  0  0  0  0  0  0  0  0
   -1.7287    2.1844   -0.0875 C   0  0  0  0  0  0  0  0  0  0  0  0
   -2.4223    2.3680   -0.9081 H   0  0  0  0  0  0  0  0  0  0  0  0
   -2.5175    1.6982    1.1319 C   0  0  0  0  0  0  0  0  0  0  0  0
   -1.8346    1.4944    1.9577 H   0  0  0  0  0  0  0  0  0  0  0  0
   -3.2290    2.4653    1.4386 H   0  0  0  0  0  0  0  0  0  0  0  0
   -3.0699    0.7913    0.8955 H   0  0  0  0  0  0  0  0  0  0  0  0
   -1.0653    3.5119    0.2774 C   0  0  0  0  0  0  0  0  0  0  0  0
   -0.5213    3.8989   -0.5842 H   0  0  0  0  0  0  0  0  0  0  0  0
   -1.8247    4.2393    0.5641 H   0  0  0  0  0  0  0  0  0  0  0  0
   -0.3717    3.3697    1.1068 H   0  0  0  0  0  0  0  0  0  0  0  0
   -0.1913    0.1554    1.7759 C   0  0  0  0  0  0  0  0  0  0  0  0
    0.9476   -0.0766    2.1748 O   0  0  0  0  0  0  0  0  0  0  0  0
   -1.1502    0.6393    2.5760 N   0  0  0  0  0  0  0  0  0  0  0  0
   -2.0581    0.8092    2.1736 H   0  0  0  0  0  0  0  0  0  0  0  0
   -0.9568    0.9369    3.9933 C   0  0  0  0  0  0  0  0  0  0  0  0
   -0.1600    1.6750    4.1097 H   0  0  0  0  0  0  0  0  0  0  0  0
   -1.8775    1.3307    4.4266 H   0  0  0  0  0  0  0  0  0  0  0  0
   -0.6678    0.0287    4.5244 H   0  0  0  0  0  0  0  0  0  0  0  0
  5  6  2  0  0  0  0
  5  7  1  0  0  0  0
  2  3  1  0  0  0  0
  2  4  1  0  0  0  0
  2  5  1  0  0  0  0
  1  2  1  0  0  0  0
 24 25  2  0  0  0  0
 24 26  1  0  0  0  0
 20 21  1  0  0  0  0
 20 22  1  0  0  0  0
 20 23  1  0  0  0  0
 16 17  1  0  0  0  0
 16 18  1  0  0  0  0
 16 19  1  0  0  0  0
 14 15  1  0  0  0  0
 14 16  1  0  0  0  0
 14 20  1  0  0  0  0
 11 12  1  0  0  0  0
 11 13  1  0  0  0  0
 11 14  1  0  0  0  0
  9 10  1  0  0  0  0
  9 11  1  0  0  0  0
  9 24  1  0  0  0  0
  7  8  1  0  0  0  0
  7  9  1  0  0  0  0
 28 29  1  0  0  0  0
 28 30  1  0  0  0  0
 28 31  1  0  0  0  0
 26 27  1  0  0  0  0
 26 28  1  0  0  0  0
M  END
$$$$
default_name
  -OEChem-02102213163D

 31 30  0     1  0  0  0  0  0999 V2000
   -3.5895   -3.5013    1.1082 H   0  0  0  0  0  0  0  0  0  0  0  0
   -3.5145   -2.5363    0.6082 C   0  0  0  0  0  0  0  0  0  0  0  0
   -4.2285   -1.8413    1.0452 H   0  0  0  0  0  0  0  0  0  0  0  0
   -3.7155   -2.6583   -0.4538 H   0  0  0  0  0  0  0  0  0  0  0  0
   -2.1155   -1.9963    0.7922 C   0  0  0  0  0  0  0  0  0  0  0  0
   -1.2875   -2.6383    1.4252 O   0  0  0  0  0  0  0  0  0  0  0  0
   -1.8575   -0.8123    0.2402 N   0  0  0  0  0  0  0  0  0  0  0  0
   -2.6005   -0.3333   -0.2478 H   0  0  0  0  0  0  0  0  0  0  0  0
   -0.5675   -0.1203    0.3102 C   0  0  1  0  0  0  0  0  0  0  0  0
    0.1932   -0.7715   -0.1219 H   0  0  0  0  0  0  0  0  0  0  0  0
   -0.6568    1.1713   -0.5294 C   0  0  0  0  0  0  0  0  0  0  0  0
    0.3156    1.6674   -0.5104 H   0  0  0  0  0  0  0  0  0  0  0  0
   -0.8631    0.8876   -1.5638 H   0  0  0  0  0  0  0  0  0  0  0  0
   -1.7287    2.1844   -0.0875 C   0  0  0  0  0  0  0  0  0  0  0  0
   -2.5608    2.1706   -0.7915 H   0  0  0  0  0  0  0  0  0  0  0  0
   -2.2606    1.8889    1.3179 C   0  0  0  0  0  0  0  0  0  0  0  0
   -1.4364    1.8832    2.0324 H   0  0  0  0  0  0  0  0  0  0  0  0
   -2.9784    2.6566    1.6077 H   0  0  0  0  0  0  0  0  0  0  0  0
   -2.7604    0.9230    1.3443 H   0  0  0  0  0  0  0  0  0  0  0  0
   -1.1367    3.5932   -0.0822 C   0  0  0  0  0  0  0  0  0  0  0  0
   -0.7779    3.8439   -1.0804 H   0  0  0  0  0  0  0  0  0  0  0  0
   -1.9013    4.3156    0.2037 H   0  0  0  0  0  0  0  0  0  0  0  0
   -0.3069    3.6493    0.6232 H   0  0  0  0  0  0  0  0  0  0  0  0
   -0.1913    0.1554    1.7759 C   0  0  0  0  0  0  0  0  0  0  0  0
    0.9476   -0.0766    2.1748 O   0  0  0  0  0  0  0  0  0  0  0  0
   -1.1502    0.6393    2.5760 N   0  0  0  0  0  0  0  0  0  0  0  0
   -2.0581    0.8092    2.1736 H   0  0  0  0  0  0  0  0  0  0  0  0
   -0.9568    0.9369    3.9933 C   0  0  0  0  0  0  0  0  0  0  0  0
   -0.1600    1.6750    4.1097 H   0  0  0  0  0  0  0  0  0  0  0  0
   -1.8775    1.3307    4.4266 H   0  0  0  0  0  0  0  0  0  0  0  0
   -0.6678    0.0287    4.5244 H   0  0  0  0  0  0  0  0  0  0  0  0
  5  6  2  0  0  0  0
  5  7  1  0  0  0  0
  2  3  1  0  0  0  0
  2  4  1  0  0  0  0
  2  5  1  0  0  0  0
  1  2  1  0  0  0  0
 24 25  2  0  0  0  0
 24 26  1  0  0  0  0
 20 21  1  0  0  0  0
 20 22  1  0  0  0  0
 20 23  1  0  0  0  0
 16 17  1  0  0  0  0
 16 18  1  0  0  0  0
 16 19  1  0  0  0  0
 14 15  1  0  0  0  0
 14 16  1  0  0  0  0
 14 20  1  0  0  0  0
 11 12  1  0  0  0  0
 11 13  1  0  0  0  0
 11 14  1  0  0  0  0
  9 10  1  0  0  0  0
  9 11  1  0  0  0  0
  9 24  1  0  0  0  0
  7  8  1  0  0  0  0
  7  9  1  0  0  0  0
 28 29  1  0  0  0  0
 28 30  1  0  0  0  0
 28 31  1  0  0  0  0
 26 27  1  0  0  0  0
 26 28  1  0  0  0  0
M  END
$$$$
default_name
  -OEChem-02102213163D

 31 30  0     1  0  0  0  0  0999 V2000
   -3.5895   -3.5013    1.1082 H   0  0  0  0  0  0  0  0  0  0  0  0
   -3.5145   -2.5363    0.6082 C   0  0  0  0  0  0  0  0  0  0  0  0
   -4.2285   -1.8413    1.0452 H   0  0  0  0  0  0  0  0  0  0  0  0
   -3.7155   -2.6583   -0.4538 H   0  0  0  0  0  0  0  0  0  0  0  0
   -2.1155   -1.9963    0.7922 C   0  0  0  0  0  0  0  0  0  0  0  0
   -1.2875   -2.6383    1.4252 O   0  0  0  0  0  0  0  0  0  0  0  0
   -1.8575   -0.8123    0.2402 N   0  0  0  0  0  0  0  0  0  0  0  0
   -2.6005   -0.3333   -0.2478 H   0  0  0  0  0  0  0  0  0  0  0  0
   -0.5675   -0.1203    0.3102 C   0  0  1  0  0  0  0  0  0  0  0  0
    0.1932   -0.7715   -0.1219 H   0  0  0  0  0  0  0  0  0  0  0  0
   -0.6568    1.1713   -0.5294 C   0  0  0  0  0  0  0  0  0  0  0  0
    0.3156    1.6674   -0.5104 H   0  0  0  0  0  0  0  0  0  0  0  0
   -0.8631    0.8876   -1.5638 H   0  0  0  0  0  0  0  0  0  0  0  0
   -1.7287    2.1844   -0.0875 C   0  0  0  0  0  0  0  0  0  0  0  0
   -2.6600    1.9907   -0.6197 H   0  0  0  0  0  0  0  0  0  0  0  0
   -1.9950    2.1257    1.4195 C   0  0  0  0  0  0  0  0  0  0  0  0
   -1.0679    2.3018    1.9667 H   0  0  0  0  0  0  0  0  0  0  0  0
   -2.7218    2.8905    1.6940 H   0  0  0  0  0  0  0  0  0  0  0  0
   -2.3948    1.1540    1.7014 H   0  0  0  0  0  0  0  0  0  0  0  0
   -1.2729    3.6017   -0.4320 C   0  0  0  0  0  0  0  0  0  0  0  0
   -1.1061    3.6823   -1.5061 H   0  0  0  0  0  0  0  0  0  0  0  0
   -2.0422    4.3186   -0.1452 H   0  0  0  0  0  0  0  0  0  0  0  0
   -0.3474    3.8371    0.0946 H   0  0  0  0  0  0  0  0  0  0  0  0
   -0.1913    0.1554    1.7759 C   0  0  0  0  0  0  0  0  0  0  0  0
    0.9476   -0.0766    2.1748 O   0  0  0  0  0  0  0  0  0  0  0  0
   -1.1502    0.6393    2.5760 N   0  0  0  0  0  0  0  0  0  0  0  0
   -2.0581    0.8092    2.1736 H   0  0  0  0  0  0  0  0  0  0  0  0
   -0.9568    0.9369    3.9933 C   0  0  0  0  0  0  0  0  0  0  0  0
   -0.1600    1.6750    4.1097 H   0  0  0  0  0  0  0  0  0  0  0  0
   -1.8775    1.3307    4.4266 H   0  0  0  0  0  0  0  0  0  0  0  0
   -0.6678    0.0287    4.5244 H   0  0  0  0  0  0  0  0  0  0  0  0
  5  6  2  0  0  0  0
  5  7  1  0  0  0  0
  2  3  1  0  0  0  0
  2  4  1  0  0  0  0
  2  5  1  0  0  0  0
  1  2  1  0  0  0  0
 24 25  2  0  0  0  0
 24 26  1  0  0  0  0
 20 21  1  0  0  0  0
 20 22  1  0  0  0  0
 20 23  1  0  0  0  0
 16 17  1  0  0  0  0
 16 18  1  0  0  0  0
 16 19  1  0  0  0  0
 14 15  1  0  0  0  0
 14 16  1  0  0  0  0
 14 20  1  0  0  0  0
 11 12  1  0  0  0  0
 11 13  1  0  0  0  0
 11 14  1  0  0  0  0
  9 10  1  0  0  0  0
  9 11  1  0  0  0  0
  9 24  1  0  0  0  0
  7  8  1  0  0  0  0
  7  9  1  0  0  0  0
 28 29  1  0  0  0  0
 28 30  1  0  0  0  0
 28 31  1  0  0  0  0
 26 27  1  0  0  0  0
 26 28  1  0  0  0  0
M  END
$$$$
default_name
  -OEChem-02102213163D

 31 30  0     1  0  0  0  0  0999 V2000
   -3.5895   -3.5013    1.1082 H   0  0  0  0  0  0  0  0  0  0  0  0
   -3.5145   -2.5363    0.6082 C   0  0  0  0  0  0  0  0  0  0  0  0
   -4.2285   -1.8413    1.0452 H   0  0  0  0  0  0  0  0  0  0  0  0
   -3.7155   -2.6583   -0.4538 H   0  0  0  0  0  0  0  0  0  0  0  0
   -2.1155   -1.9963    0.7922 C   0  0  0  0  0  0  0  0  0  0  0  0
   -1.2875   -2.6383    1.4252 O   0  0  0  0  0  0  0  0  0  0  0  0
   -1.8575   -0.8123    0.2402 N   0  0  0  0  0  0  0  0  0  0  0  0
   -2.6005   -0.3333   -0.2478 H   0  0  0  0  0  0  0  0  0  0  0  0
   -0.5675   -0.1203    0.3102 C   0  0  1  0  0  0  0  0  0  0  0  0
    0.1932   -0.7715   -0.1219 H   0  0  0  0  0  0  0  0  0  0  0  0
   -0.6568    1.1713   -0.5294 C   0  0  0  0  0  0  0  0  0  0  0  0
    0.3156    1.6674   -0.5104 H   0  0  0  0  0  0  0  0  0  0  0  0
   -0.8631    0.8876   -1.5638 H   0  0  0  0  0  0  0  0  0  0  0  0
   -1.7287    2.1844   -0.0875 C   0  0  0  0  0  0  0  0  0  0  0  0
   -2.7133    1.8404   -0.4045 H   0  0  0  0  0  0  0  0  0  0  0  0
   -1.7387    2.3924    1.4297 C   0  0  0  0  0  0  0  0  0  0  0  0
   -0.7542    2.7217    1.7650 H   0  0  0  0  0  0  0  0  0  0  0  0
   -2.4766    3.1511    1.6915 H   0  0  0  0  0  0  0  0  0  0  0  0
   -1.9981    1.4687    1.9425 H   0  0  0  0  0  0  0  0  0  0  0  0
   -1.4647    3.5368   -0.7482 C   0  0  0  0  0  0  0  0  0  0  0  0
   -1.4836    3.4252   -1.8323 H   0  0  0  0  0  0  0  0  0  0  0  0
   -2.2380    4.2482   -0.4587 H   0  0  0  0  0  0  0  0  0  0  0  0
   -0.4904    3.9202   -0.4429 H   0  0  0  0  0  0  0  0  0  0  0  0
   -0.1913    0.1554    1.7759 C   0  0  0  0  0  0  0  0  0  0  0  0
    0.9476   -0.0766    2.1748 O   0  0  0  0  0  0  0  0  0  0  0  0
   -1.1502    0.6393    2.5760 N   0  0  0  0  0  0  0  0  0  0  0  0
   -2.0581    0.8092    2.1736 H   0  0  0  0  0  0  0  0  0  0  0  0
   -0.9568    0.9369    3.9933 C   0  0  0  0  0  0  0  0  0  0  0  0
   -0.1600    1.6750    4.1097 H   0  0  0  0  0  0  0  0  0  0  0  0
   -1.8775    1.3307    4.4266 H   0  0  0  0  0  0  0  0  0  0  0  0
   -0.6678    0.0287    4.5244 H   0  0  0  0  0  0  0  0  0  0  0  0
  5  6  2  0  0  0  0
  5  7  1  0  0  0  0
  2  3  1  0  0  0  0
  2  4  1  0  0  0  0
  2  5  1  0  0  0  0
  1  2  1  0  0  0  0
 24 25  2  0  0  0  0
 24 26  1  0  0  0  0
 20 21  1  0  0  0  0
 20 22  1  0  0  0  0
 20 23  1  0  0  0  0
 16 17  1  0  0  0  0
 16 18  1  0  0  0  0
 16 19  1  0  0  0  0
 14 15  1  0  0  0  0
 14 16  1  0  0  0  0
 14 20  1  0  0  0  0
 11 12  1  0  0  0  0
 11 13  1  0  0  0  0
 11 14  1  0  0  0  0
  9 10  1  0  0  0  0
  9 11  1  0  0  0  0
  9 24  1  0  0  0  0
  7  8  1  0  0  0  0
  7  9  1  0  0  0  0
 28 29  1  0  0  0  0
 28 30  1  0  0  0  0
 28 31  1  0  0  0  0
 26 27  1  0  0  0  0
 26 28  1  0  0  0  0
M  END
$$$$
default_name
  -OEChem-02102213163D

 31 30  0     1  0  0  0  0  0999 V2000
   -3.5895   -3.5013    1.1082 H   0  0  0  0  0  0  0  0  0  0  0  0
   -3.5145   -2.5363    0.6082 C   0  0  0  0  0  0  0  0  0  0  0  0
   -4.2285   -1.8413    1.0452 H   0  0  0  0  0  0  0  0  0  0  0  0
   -3.7155   -2.6583   -0.4538 H   0  0  0  0  0  0  0  0  0  0  0  0
   -2.1155   -1.9963    0.7922 C   0  0  0  0  0  0  0  0  0  0  0  0
   -1.2875   -2.6383    1.4252 O   0  0  0  0  0  0  0  0  0  0  0  0
   -1.8575   -0.8123    0.2402 N   0  0  0  0  0  0  0  0  0  0  0  0
   -2.6005   -0.3333   -0.2478 H   0  0  0  0  0  0  0  0  0  0  0  0
   -0.5675   -0.1203    0.3102 C   0  0  1  0  0  0  0  0  0  0  0  0
    0.1932   -0.7715   -0.1219 H   0  0  0  0  0  0  0  0  0  0  0  0
   -0.6568    1.1713   -0.5294 C   0  0  0  0  0  0  0  0  0  0  0  0
    0.3156    1.6674   -0.5104 H   0  0  0  0  0  0  0  0  0  0  0  0
   -0.8631    0.8876   -1.5638 H   0  0  0  0  0  0  0  0  0  0  0  0
   -1.7287    2.1844   -0.0875 C   0  0  0  0  0  0  0  0  0  0  0  0
   -2.7169    1.7301   -0.1605 H   0  0  0  0  0  0  0  0  0  0  0  0
   -1.5092    2.6710    1.3479 C   0  0  0  0  0  0  0  0  0  0  0  0
   -0.5168    3.1142    1.4411 H   0  0  0  0  0  0  0  0  0  0  0  0
   -2.2596    3.4205    1.6003 H   0  0  0  0  0  0  0  0  0  0  0  0
   -1.5971    1.8456    2.0511 H   0  0  0  0  0  0  0  0  0  0  0  0
   -1.6989    3.4028   -1.0093 C   0  0  0  0  0  0  0  0  0  0  0  0
   -1.8847    3.0899   -2.0368 H   0  0  0  0  0  0  0  0  0  0  0  0
   -2.4753    4.1091   -0.7155 H   0  0  0  0  0  0  0  0  0  0  0  0
   -0.7263    3.8930   -0.9527 H   0  0  0  0  0  0  0  0  0  0  0  0
   -0.1913    0.1554    1.7759 C   0  0  0  0  0  0  0  0  0  0  0  0
    0.9476   -0.0766    2.1748 O   0  0  0  0  0  0  0  0  0  0  0  0
   -1.1502    0.6393    2.5760 N   0  0  0  0  0  0  0  0  0  0  0  0
   -2.0581    0.8092    2.1736 H   0  0  0  0  0  0  0  0  0  0  0  0
   -0.9568    0.9369    3.9933 C   0  0  0  0  0  0  0  0  0  0  0  0
   -0.1600    1.6750    4.1097 H   0  0  0  0  0  0  0  0  0  0  0  0
   -1.8775    1.3307    4.4266 H   0  0  0  0  0  0  0  0  0  0  0  0
   -0.6678    0.0287    4.5244 H   0  0  0  0  0  0  0  0  0  0  0  0
  5  6  2  0  0  0  0
  5  7  1  0  0  0  0
  2  3  1  0  0  0  0
  2  4  1  0  0  0  0
  2  5  1  0  0  0  0
  1  2  1  0  0  0  0
 24 25  2  0  0  0  0
 24 26  1  0  0  0  0
 20 21  1  0  0  0  0
 20 22  1  0  0  0  0
 20 23  1  0  0  0  0
 16 17  1  0  0  0  0
 16 18  1  0  0  0  0
 16 19  1  0  0  0  0
 14 15  1  0  0  0  0
 14 16  1  0  0  0  0
 14 20  1  0  0  0  0
 11 12  1  0  0  0  0
 11 13  1  0  0  0  0
 11 14  1  0  0  0  0
  9 10  1  0  0  0  0
  9 11  1  0  0  0  0
  9 24  1  0  0  0  0
  7  8  1  0  0  0  0
  7  9  1  0  0  0  0
 28 29  1  0  0  0  0
 28 30  1  0  0  0  0
 28 31  1  0  0  0  0
 26 27  1  0  0  0  0
 26 28  1  0  0  0  0
M  END
$$$$
default_name
  -OEChem-02102213163D

 31 30  0     1  0  0  0  0  0999 V2000
   -3.5895   -3.5013    1.1082 H   0  0  0  0  0  0  0  0  0  0  0  0
   -3.5145   -2.5363    0.6082 C   0  0  0  0  0  0  0  0  0  0  0  0
   -4.2285   -1.8413    1.0452 H   0  0  0  0  0  0  0  0  0  0  0  0
   -3.7155   -2.6583   -0.4538 H   0  0  0  0  0  0  0  0  0  0  0  0
   -2.1155   -1.9963    0.7922 C   0  0  0  0  0  0  0  0  0  0  0  0
   -1.2875   -2.6383    1.4252 O   0  0  0  0  0  0  0  0  0  0  0  0
   -1.8575   -0.8123    0.2402 N   0  0  0  0  0  0  0  0  0  0  0  0
   -2.6005   -0.3333   -0.2478 H   0  0  0  0  0  0  0  0  0  0  0  0
   -0.5675   -0.1203    0.3102 C   0  0  1  0  0  0  0  0  0  0  0  0
    0.1932   -0.7715   -0.1219 H   0  0  0  0  0  0  0  0  0  0  0  0
   -0.6568    1.1713   -0.5294 C   0  0  0  0  0  0  0  0  0  0  0  0
    0.3156    1.6674   -0.5104 H   0  0  0  0  0  0  0  0  0  0  0  0
   -0.8631    0.8876   -1.5638 H   0  0  0  0  0  0  0  0  0  0  0  0
   -1.7287    2.1844   -0.0875 C   0  0  0  0  0  0  0  0  0  0  0  0
   -2.6706    1.6673    0.0957 H   0  0  0  0  0  0  0  0  0  0  0  0
   -1.3221    2.9423    1.1796 C   0  0  0  0  0  0  0  0  0  0  0  0
   -0.3718    3.4527    1.0171 H   0  0  0  0  0  0  0  0  0  0  0  0
   -2.0855    3.6804    1.4268 H   0  0  0  0  0  0  0  0  0  0  0  0
   -1.2194    2.2589    2.0198 H   0  0  0  0  0  0  0  0  0  0  0  0
   -1.9597    3.2090   -1.1975 C   0  0  0  0  0  0  0  0  0  0  0  0
   -2.2820    2.6995   -2.1055 H   0  0  0  0  0  0  0  0  0  0  0  0
   -2.7379    3.9109   -0.8981 H   0  0  0  0  0  0  0  0  0  0  0  0
   -1.0390    3.7573   -1.4001 H   0  0  0  0  0  0  0  0  0  0  0  0
   -0.1913    0.1554    1.7759 C   0  0  0  0  0  0  0  0  0  0  0  0
    0.9476   -0.0766    2.1748 O   0  0  0  0  0  0  0  0  0  0  0  0
   -1.1502    0.6393    2.5760 N   0  0  0  0  0  0  0  0  0  0  0  0
   -2.0581    0.8092    2.1736 H   0  0  0  0  0  0  0  0  0  0  0  0
   -0.9568    0.9369    3.9933 C   0  0  0  0  0  0  0  0  0  0  0  0
   -0.1600    1.6750    4.1097 H   0  0  0  0  0  0  0  0  0  0  0  0
   -1.8775    1.3307    4.4266 H   0  0  0  0  0  0  0  0  0  0  0  0
   -0.6678    0.0287    4.5244 H   0  0  0  0  0  0  0  0  0  0  0  0
  5  6  2  0  0  0  0
  5  7  1  0  0  0  0
  2  3  1  0  0  0  0
  2  4  1  0  0  0  0
  2  5  1  0  0  0  0
  1  2  1  0  0  0  0
 24 25  2  0  0  0  0
 24 26  1  0  0  0  0
 20 21  1  0  0  0  0
 20 22  1  0  0  0  0
 20 23  1  0  0  0  0
 16 17  1  0  0  0  0
 16 18  1  0  0  0  0
 16 19  1  0  0  0  0
 14 15  1  0  0  0  0
 14 16  1  0  0  0  0
 14 20  1  0  0  0  0
 11 12  1  0  0  0  0
 11 13  1  0  0  0  0
 11 14  1  0  0  0  0
  9 10  1  0  0  0  0
  9 11  1  0  0  0  0
  9 24  1  0  0  0  0
  7  8  1  0  0  0  0
  7  9  1  0  0  0  0
 28 29  1  0  0  0  0
 28 30  1  0  0  0  0
 28 31  1  0  0  0  0
 26 27  1  0  0  0  0
 26 28  1  0  0  0  0
M  END
$$$$
default_name
  -OEChem-02102213163D

 31 30  0     1  0  0  0  0  0999 V2000
   -3.5895   -3.5013    1.1082 H   0  0  0  0  0  0  0  0  0  0  0  0
   -3.5145   -2.5363    0.6082 C   0  0  0  0  0  0  0  0  0  0  0  0
   -4.2285   -1.8413    1.0452 H   0  0  0  0  0  0  0  0  0  0  0  0
   -3.7155   -2.6583   -0.4538 H   0  0  0  0  0  0  0  0  0  0  0  0
   -2.1155   -1.9963    0.7922 C   0  0  0  0  0  0  0  0  0  0  0  0
   -1.2875   -2.6383    1.4252 O   0  0  0  0  0  0  0  0  0  0  0  0
   -1.8575   -0.8123    0.2402 N   0  0  0  0  0  0  0  0  0  0  0  0
   -2.6005   -0.3333   -0.2478 H   0  0  0  0  0  0  0  0  0  0  0  0
   -0.5675   -0.1203    0.3102 C   0  0  1  0  0  0  0  0  0  0  0  0
    0.1932   -0.7715   -0.1219 H   0  0  0  0  0  0  0  0  0  0  0  0
   -0.6568    1.1713   -0.5294 C   0  0  0  0  0  0  0  0  0  0  0  0
    0.3156    1.6674   -0.5104 H   0  0  0  0  0  0  0  0  0  0  0  0
   -0.8631    0.8876   -1.5638 H   0  0  0  0  0  0  0  0  0  0  0  0
   -1.7287    2.1844   -0.0875 C   0  0  0  0  0  0  0  0  0  0  0  0
   -2.5777    1.6562    0.3467 H   0  0  0  0  0  0  0  0  0  0  0  0
   -1.1903    3.1880    0.9363 C   0  0  0  0  0  0  0  0  0  0  0  0
   -0.3291    3.7139    0.5219 H   0  0  0  0  0  0  0  0  0  0  0  0
   -1.9662    3.9132    1.1826 H   0  0  0  0  0  0  0  0  0  0  0  0
   -0.8906    2.6807    1.8507 H   0  0  0  0  0  0  0  0  0  0  0  0
   -2.2292    2.9684   -1.3000 C   0  0  0  0  0  0  0  0  0  0  0  0
   -2.6486    2.2804   -2.0339 H   0  0  0  0  0  0  0  0  0  0  0  0
   -3.0080    3.6670   -0.9940 H   0  0  0  0  0  0  0  0  0  0  0  0
   -1.4071    3.5224   -1.7545 H   0  0  0  0  0  0  0  0  0  0  0  0
   -0.1913    0.1554    1.7759 C   0  0  0  0  0  0  0  0  0  0  0  0
    0.9476   -0.0766    2.1748 O   0  0  0  0  0  0  0  0  0  0  0  0
   -1.1502    0.6393    2.5760 N   0  0  0  0  0  0  0  0  0  0  0  0
   -2.0581    0.8092    2.1736 H   0  0  0  0  0  0  0  0  0  0  0  0
   -0.9568    0.9369    3.9933 C   0  0  0  0  0  0  0  0  0  0  0  0
   -0.1600    1.6750    4.1097 H   0  0  0  0  0  0  0  0  0  0  0  0
   -1.8775    1.3307    4.4266 H   0  0  0  0  0  0  0  0  0  0  0  0
   -0.6678    0.0287    4.5244 H   0  0  0  0  0  0  0  0  0  0  0  0
  5  6  2  0  0  0  0
  5  7  1  0  0  0  0
  2  3  1  0  0  0  0
  2  4  1  0  0  0  0
  2  5  1  0  0  0  0
  1  2  1  0  0  0  0
 24 25  2  0  0  0  0
 24 26  1  0  0  0  0
 20 21  1  0  0  0  0
 20 22  1  0  0  0  0
 20 23  1  0  0  0  0
 16 17  1  0  0  0  0
 16 18  1  0  0  0  0
 16 19  1  0  0  0  0
 14 15  1  0  0  0  0
 14 16  1  0  0  0  0
 14 20  1  0  0  0  0
 11 12  1  0  0  0  0
 11 13  1  0  0  0  0
 11 14  1  0  0  0  0
  9 10  1  0  0  0  0
  9 11  1  0  0  0  0
  9 24  1  0  0  0  0
  7  8  1  0  0  0  0
  7  9  1  0  0  0  0
 28 29  1  0  0  0  0
 28 30  1  0  0  0  0
 28 31  1  0  0  0  0
 26 27  1  0  0  0  0
 26 28  1  0  0  0  0
M  END
$$$$
default_name
  -OEChem-02102213163D

 31 30  0     1  0  0  0  0  0999 V2000
   -3.5895   -3.5013    1.1082 H   0  0  0  0  0  0  0  0  0  0  0  0
   -3.5145   -2.5363    0.6082 C   0  0  0  0  0  0  0  0  0  0  0  0
   -4.2285   -1.8413    1.0452 H   0  0  0  0  0  0  0  0  0  0  0  0
   -3.7155   -2.6583   -0.4538 H   0  0  0  0  0  0  0  0  0  0  0  0
   -2.1155   -1.9963    0.7922 C   0  0  0  0  0  0  0  0  0  0  0  0
   -1.2875   -2.6383    1.4252 O   0  0  0  0  0  0  0  0  0  0  0  0
   -1.8575   -0.8123    0.2402 N   0  0  0  0  0  0  0  0  0  0  0  0
   -2.6005   -0.3333   -0.2478 H   0  0  0  0  0  0  0  0  0  0  0  0
   -0.5675   -0.1203    0.3102 C   0  0  1  0  0  0  0  0  0  0  0  0
    0.1932   -0.7715   -0.1219 H   0  0  0  0  0  0  0  0  0  0  0  0
   -0.6568    1.1713   -0.5294 C   0  0  0  0  0  0  0  0  0  0  0  0
    0.3156    1.6674   -0.5104 H   0  0  0  0  0  0  0  0  0  0  0  0
   -0.8631    0.8876   -1.5638 H   0  0  0  0  0  0  0  0  0  0  0  0
   -1.7287    2.1844   -0.0875 C   0  0  0  0  0  0  0  0  0  0  0  0
   -2.4443    1.6976    0.5752 H   0  0  0  0  0  0  0  0  0  0  0  0
   -1.1226    3.3913    0.6345 C   0  0  0  0  0  0  0  0  0  0  0  0
   -0.3915    3.8802   -0.0108 H   0  0  0  0  0  0  0  0  0  0  0  0
   -1.9098    4.1029    0.8846 H   0  0  0  0  0  0  0  0  0  0  0  0
   -0.6330    3.0820    1.5555 H   0  0  0  0  0  0  0  0  0  0  0  0
   -2.4891    2.6976   -1.3097 C   0  0  0  0  0  0  0  0  0  0  0  0
   -2.9593    1.8613   -1.8269 H   0  0  0  0  0  0  0  0  0  0  0  0
   -3.2670    3.3941   -0.9968 H   0  0  0  0  0  0  0  0  0  0  0  0
   -1.8056    3.2043   -1.9918 H   0  0  0  0  0  0  0  0  0  0  0  0
   -0.1913    0.1554    1.7759 C   0  0  0  0  0  0  0  0  0  0  0  0
    0.9476   -0.0766    2.1748 O   0  0  0  0  0  0  0  0  0  0  0  0
   -1.1502    0.6393    2.5760 N   0  0  0  0  0  0  0  0  0  0  0  0
   -2.0581    0.8092    2.1736 H   0  0  0  0  0  0  0  0  0  0  0  0
   -0.9568    0.9369    3.9933 C   0  0  0  0  0  0  0  0  0  0  0  0
   -0.1600    1.6750    4.1097 H   0  0  0  0  0  0  0  0  0  0  0  0
   -1.8775    1.3307    4.4266 H   0  0  0  0  0  0  0  0  0  0  0  0
   -0.6678    0.0287    4.5244 H   0  0  0  0  0  0  0  0  0  0  0  0
  5  6  2  0  0  0  0
  5  7  1  0  0  0  0
  2  3  1  0  0  0  0
  2  4  1  0  0  0  0
  2  5  1  0  0  0  0
  1  2  1  0  0  0  0
 24 25  2  0  0  0  0
 24 26  1  0  0  0  0
 20 21  1  0  0  0  0
 20 22  1  0  0  0  0
 20 23  1  0  0  0  0
 16 17  1  0  0  0  0
 16 18  1  0  0  0  0
 16 19  1  0  0  0  0
 14 15  1  0  0  0  0
 14 16  1  0  0  0  0
 14 20  1  0  0  0  0
 11 12  1  0  0  0  0
 11 13  1  0  0  0  0
 11 14  1  0  0  0  0
  9 10  1  0  0  0  0
  9 11  1  0  0  0  0
  9 24  1  0  0  0  0
  7  8  1  0  0  0  0
  7  9  1  0  0  0  0
 28 29  1  0  0  0  0
 28 30  1  0  0  0  0
 28 31  1  0  0  0  0
 26 27  1  0  0  0  0
 26 28  1  0  0  0  0
M  END
$$$$
default_name
  -OEChem-02102213163D

 31 30  0     1  0  0  0  0  0999 V2000
   -3.5895   -3.5013    1.1082 H   0  0  0  0  0  0  0  0  0  0  0  0
   -3.5145   -2.5363    0.6082 C   0  0  0  0  0  0  0  0  0  0  0  0
   -4.2285   -1.8413    1.0452 H   0  0  0  0  0  0  0  0  0  0  0  0
   -3.7155   -2.6583   -0.4538 H   0  0  0  0  0  0  0  0  0  0  0  0
   -2.1155   -1.9963    0.7922 C   0  0  0  0  0  0  0  0  0  0  0  0
   -1.2875   -2.6383    1.4252 O   0  0  0  0  0  0  0  0  0  0  0  0
   -1.8575   -0.8123    0.2402 N   0  0  0  0  0  0  0  0  0  0  0  0
   -2.6005   -0.3333   -0.2478 H   0  0  0  0  0  0  0  0  0  0  0  0
   -0.5675   -0.1203    0.3102 C   0  0  1  0  0  0  0  0  0  0  0  0
    0.1932   -0.7715   -0.1219 H   0  0  0  0  0  0  0  0  0  0  0  0
   -0.6568    1.1713   -0.5294 C   0  0  0  0  0  0  0  0  0  0  0  0
    0.3156    1.6674   -0.5104 H   0  0  0  0  0  0  0  0  0  0  0  0
   -0.8631    0.8876   -1.5638 H   0  0  0  0  0  0  0  0  0  0  0  0
   -1.7287    2.1844   -0.0875 C   0  0  0  0  0  0  0  0  0  0  0  0
   -2.2797    1.7887    0.7658 H   0  0  0  0  0  0  0  0  0  0  0  0
   -1.1237    3.5383    0.2949 C   0  0  0  0  0  0  0  0  0  0  0  0
   -0.5549    3.9403   -0.5447 H   0  0  0  0  0  0  0  0  0  0  0  0
   -1.9202    4.2366    0.5529 H   0  0  0  0  0  0  0  0  0  0  0  0
   -0.4644    3.4355    1.1541 H   0  0  0  0  0  0  0  0  0  0  0  0
   -2.7217    2.4150   -1.2260 C   0  0  0  0  0  0  0  0  0  0  0  0
   -3.1930    1.4707   -1.4984 H   0  0  0  0  0  0  0  0  0  0  0  0
   -3.4974    3.1108   -0.9061 H   0  0  0  0  0  0  0  0  0  0  0  0
   -2.2072    2.8247   -2.0959 H   0  0  0  0  0  0  0  0  0  0  0  0
   -0.1913    0.1554    1.7759 C   0  0  0  0  0  0  0  0  0  0  0  0
    0.9476   -0.0766    2.1748 O   0  0  0  0  0  0  0  0  0  0  0  0
   -1.1502    0.6393    2.5760 N   0  0  0  0  0  0  0  0  0  0  0  0
   -2.0581    0.8092    2.1736 H   0  0  0  0  0  0  0  0  0  0  0  0
   -0.9568    0.9369    3.9933 C   0  0  0  0  0  0  0  0  0  0  0  0
   -0.1600    1.6750    4.1097 H   0  0  0  0  0  0  0  0  0  0  0  0
   -1.8775    1.3307    4.4266 H   0  0  0  0  0  0  0  0  0  0  0  0
   -0.6678    0.0287    4.5244 H   0  0  0  0  0  0  0  0  0  0  0  0
  5  6  2  0  0  0  0
  5  7  1  0  0  0  0
  2  3  1  0  0  0  0
  2  4  1  0  0  0  0
  2  5  1  0  0  0  0
  1  2  1  0  0  0  0
 24 25  2  0  0  0  0
 24 26  1  0  0  0  0
 20 21  1  0  0  0  0
 20 22  1  0  0  0  0
 20 23  1  0  0  0  0
 16 17  1  0  0  0  0
 16 18  1  0  0  0  0
 16 19  1  0  0  0  0
 14 15  1  0  0  0  0
 14 16  1  0  0  0  0
 14 20  1  0  0  0  0
 11 12  1  0  0  0  0
 11 13  1  0  0  0  0
 11 14  1  0  0  0  0
  9 10  1  0  0  0  0
  9 11  1  0  0  0  0
  9 24  1  0  0  0  0
  7  8  1  0  0  0  0
  7  9  1  0  0  0  0
 28 29  1  0  0  0  0
 28 30  1  0  0  0  0
 28 31  1  0  0  0  0
 26 27  1  0  0  0  0
 26 28  1  0  0  0  0
M  END
$$$$
default_name
  -OEChem-02102213163D

 31 30  0     1  0  0  0  0  0999 V2000
   -3.5895   -3.5013    1.1082 H   0  0  0  0  0  0  0  0  0  0  0  0
   -3.5145   -2.5363    0.6082 C   0  0  0  0  0  0  0  0  0  0  0  0
   -4.2285   -1.8413    1.0452 H   0  0  0  0  0  0  0  0  0  0  0  0
   -3.7155   -2.6583   -0.4538 H   0  0  0  0  0  0  0  0  0  0  0  0
   -2.1155   -1.9963    0.7922 C   0  0  0  0  0  0  0  0  0  0  0  0
   -1.2875   -2.6383    1.4252 O   0  0  0  0  0  0  0  0  0  0  0  0
   -1.8575   -0.8123    0.2402 N   0  0  0  0  0  0  0  0  0  0  0  0
   -2.6005   -0.3333   -0.2478 H   0  0  0  0  0  0  0  0  0  0  0  0
   -0.5675   -0.1203    0.3102 C   0  0  1  0  0  0  0  0  0  0  0  0
    0.1932   -0.7715   -0.1219 H   0  0  0  0  0  0  0  0  0  0  0  0
   -0.6568    1.1713   -0.5294 C   0  0  0  0  0  0  0  0  0  0  0  0
    0.3156    1.6674   -0.5104 H   0  0  0  0  0  0  0  0  0  0  0  0
   -0.8631    0.8876   -1.5638 H   0  0  0  0  0  0  0  0  0  0  0  0
   -1.7287    2.1844   -0.0875 C   0  0  0  0  0  0  0  0  0  0  0  0
   -2.0949    1.9232    0.9054 H   0  0  0  0  0  0  0  0  0  0  0  0
   -1.1935    3.6190   -0.0595 C   0  0  0  0  0  0  0  0  0  0  0  0
   -0.8081    3.8899   -1.0434 H   0  0  0  0  0  0  0  0  0  0  0  0
   -1.9966    4.3052    0.2102 H   0  0  0  0  0  0  0  0  0  0  0  0
   -0.3961    3.7173    0.6739 H   0  0  0  0  0  0  0  0  0  0  0  0
   -2.9111    2.1398   -1.0546 C   0  0  0  0  0  0  0  0  0  0  0  0
   -3.3338    1.1352   -1.0710 H   0  0  0  0  0  0  0  0  0  0  0  0
   -3.6835    2.8363   -0.7283 H   0  0  0  0  0  0  0  0  0  0  0  0
   -2.5847    2.4094   -2.0596 H   0  0  0  0  0  0  0  0  0  0  0  0
   -0.1913    0.1554    1.7759 C   0  0  0  0  0  0  0  0  0  0  0  0
    0.9476   -0.0766    2.1748 O   0  0  0  0  0  0  0  0  0  0  0  0
   -1.1502    0.6393    2.5760 N   0  0  0  0  0  0  0  0  0  0  0  0
   -2.0581    0.8092    2.1736 H   0  0  0  0  0  0  0  0  0  0  0  0
   -0.9568    0.9369    3.9933 C   0  0  0  0  0  0  0  0  0  0  0  0
   -0.1600    1.6750    4.1097 H   0  0  0  0  0  0  0  0  0  0  0  0
   -1.8775    1.3307    4.4266 H   0  0  0  0  0  0  0  0  0  0  0  0
   -0.6678    0.0287    4.5244 H   0  0  0  0  0  0  0  0  0  0  0  0
  5  6  2  0  0  0  0
  5  7  1  0  0  0  0
  2  3  1  0  0  0  0
  2  4  1  0  0  0  0
  2  5  1  0  0  0  0
  1  2  1  0  0  0  0
 24 25  2  0  0  0  0
 24 26  1  0  0  0  0
 20 21  1  0  0  0  0
 20 22  1  0  0  0  0
 20 23  1  0  0  0  0
 16 17  1  0  0  0  0
 16 18  1  0  0  0  0
 16 19  1  0  0  0  0
 14 15  1  0  0  0  0
 14 16  1  0  0  0  0
 14 20  1  0  0  0  0
 11 12  1  0  0  0  0
 11 13  1  0  0  0  0
 11 14  1  0  0  0  0
  9 10  1  0  0  0  0
  9 11  1  0  0  0  0
  9 24  1  0  0  0  0
  7  8  1  0  0  0  0
  7  9  1  0  0  0  0
 28 29  1  0  0  0  0
 28 30  1  0  0  0  0
 28 31  1  0  0  0  0
 26 27  1  0  0  0  0
 26 28  1  0  0  0  0
M  END
$$$$
default_name
  -OEChem-02102213163D

 31 30  0     1  0  0  0  0  0999 V2000
   -3.5895   -3.5013    1.1082 H   0  0  0  0  0  0  0  0  0  0  0  0
   -3.5145   -2.5363    0.6082 C   0  0  0  0  0  0  0  0  0  0  0  0
   -4.2285   -1.8413    1.0452 H   0  0  0  0  0  0  0  0  0  0  0  0
   -3.7155   -2.6583   -0.4538 H   0  0  0  0  0  0  0  0  0  0  0  0
   -2.1155   -1.9963    0.7922 C   0  0  0  0  0  0  0  0  0  0  0  0
   -1.2875   -2.6383    1.4252 O   0  0  0  0  0  0  0  0  0  0  0  0
   -1.8575   -0.8123    0.2402 N   0  0  0  0  0  0  0  0  0  0  0  0
   -2.6005   -0.3333   -0.2478 H   0  0  0  0  0  0  0  0  0  0  0  0
   -0.5675   -0.1203    0.3102 C   0  0  1  0  0  0  0  0  0  0  0  0
    0.1932   -0.7715   -0.1219 H   0  0  0  0  0  0  0  0  0  0  0  0
   -0.6568    1.1713   -0.5294 C   0  0  0  0  0  0  0  0  0  0  0  0
    0.3156    1.6674   -0.5104 H   0  0  0  0  0  0  0  0  0  0  0  0
   -0.8631    0.8876   -1.5638 H   0  0  0  0  0  0  0  0  0  0  0  0
   -1.7287    2.1844   -0.0875 C   0  0  0  0  0  0  0  0  0  0  0  0
   -1.9027    2.0921    0.9846 H   0  0  0  0  0  0  0  0  0  0  0  0
   -1.3273    3.6279   -0.4044 C   0  0  0  0  0  0  0  0  0  0  0  0
   -1.1339    3.7325   -1.4728 H   0  0  0  0  0  0  0  0  0  0  0  0
   -2.1339    4.3041   -0.1202 H   0  0  0  0  0  0  0  0  0  0  0  0
   -0.4328    3.9079    0.1478 H   0  0  0  0  0  0  0  0  0  0  0  0
   -3.0445    1.8908   -0.8072 C   0  0  0  0  0  0  0  0  0  0  0  0
   -3.3721    0.8778   -0.5737 H   0  0  0  0  0  0  0  0  0  0  0  0
   -3.8125    2.5894   -0.4753 H   0  0  0  0  0  0  0  0  0  0  0  0
   -2.9124    1.9868   -1.8855 H   0  0  0  0  0  0  0  0  0  0  0  0
   -0.1913    0.1554    1.7759 C   0  0  0  0  0  0  0  0  0  0  0  0
    0.9476   -0.0766    2.1748 O   0  0  0  0  0  0  0  0  0  0  0  0
   -1.1502    0.6393    2.5760 N   0  0  0  0  0  0  0  0  0  0  0  0
   -2.0581    0.8092    2.1736 H   0  0  0  0  0  0  0  0  0  0  0  0
   -0.9568    0.9369    3.9933 C   0  0  0  0  0  0  0  0  0  0  0  0
   -0.1600    1.6750    4.1097 H   0  0  0  0  0  0  0  0  0  0  0  0
   -1.8775    1.3307    4.4266 H   0  0  0  0  0  0  0  0  0  0  0  0
   -0.6678    0.0287    4.5244 H   0  0  0  0  0  0  0  0  0  0  0  0
  5  6  2  0  0  0  0
  5  7  1  0  0  0  0
  2  3  1  0  0  0  0
  2  4  1  0  0  0  0
  2  5  1  0  0  0  0
  1  2  1  0  0  0  0
 24 25  2  0  0  0  0
 24 26  1  0  0  0  0
 20 21  1  0  0  0  0
 20 22  1  0  0  0  0
 20 23  1  0  0  0  0
 16 17  1  0  0  0  0
 16 18  1  0  0  0  0
 16 19  1  0  0  0  0
 14 15  1  0  0  0  0
 14 16  1  0  0  0  0
 14 20  1  0  0  0  0
 11 12  1  0  0  0  0
 11 13  1  0  0  0  0
 11 14  1  0  0  0  0
  9 10  1  0  0  0  0
  9 11  1  0  0  0  0
  9 24  1  0  0  0  0
  7  8  1  0  0  0  0
  7  9  1  0  0  0  0
 28 29  1  0  0  0  0
 28 30  1  0  0  0  0
 28 31  1  0  0  0  0
 26 27  1  0  0  0  0
 26 28  1  0  0  0  0
M  END
$$$$
default_name
  -OEChem-02102213163D

 31 30  0     1  0  0  0  0  0999 V2000
   -3.5895   -3.5013    1.1082 H   0  0  0  0  0  0  0  0  0  0  0  0
   -3.5145   -2.5363    0.6082 C   0  0  0  0  0  0  0  0  0  0  0  0
   -4.2285   -1.8413    1.0452 H   0  0  0  0  0  0  0  0  0  0  0  0
   -3.7155   -2.6583   -0.4538 H   0  0  0  0  0  0  0  0  0  0  0  0
   -2.1155   -1.9963    0.7922 C   0  0  0  0  0  0  0  0  0  0  0  0
   -1.2875   -2.6383    1.4252 O   0  0  0  0  0  0  0  0  0  0  0  0
   -1.8575   -0.8123    0.2402 N   0  0  0  0  0  0  0  0  0  0  0  0
   -2.6005   -0.3333   -0.2478 H   0  0  0  0  0  0  0  0  0  0  0  0
   -0.5675   -0.1203    0.3102 C   0  0  1  0  0  0  0  0  0  0  0  0
    0.1932   -0.7715   -0.1219 H   0  0  0  0  0  0  0  0  0  0  0  0
   -0.6568    1.1713   -0.5294 C   0  0  0  0  0  0  0  0  0  0  0  0
    0.3156    1.6674   -0.5104 H   0  0  0  0  0  0  0  0  0  0  0  0
   -0.8631    0.8876   -1.5638 H   0  0  0  0  0  0  0  0  0  0  0  0
   -1.7287    2.1844   -0.0875 C   0  0  0  0  0  0  0  0  0  0  0  0
   -1.7161    2.2837    0.9979 H   0  0  0  0  0  0  0  0  0  0  0  0
   -1.5160    3.5644   -0.7164 C   0  0  0  0  0  0  0  0  0  0  0  0
   -1.5100    3.4790   -1.8039 H   0  0  0  0  0  0  0  0  0  0  0  0
   -2.3227    4.2332   -0.4157 H   0  0  0  0  0  0  0  0  0  0  0  0
   -0.5721    3.9946   -0.3886 H   0  0  0  0  0  0  0  0  0  0  0  0
   -3.1126    1.6849   -0.5007 C   0  0  0  0  0  0  0  0  0  0  0  0
   -3.3052    0.7158   -0.0405 H   0  0  0  0  0  0  0  0  0  0  0  0
   -3.8757    2.3869   -0.1645 H   0  0  0  0  0  0  0  0  0  0  0  0
   -3.1677    1.5855   -1.5853 H   0  0  0  0  0  0  0  0  0  0  0  0
   -0.1913    0.1554    1.7759 C   0  0  0  0  0  0  0  0  0  0  0  0
    0.9476   -0.0766    2.1748 O   0  0  0  0  0  0  0  0  0  0  0  0
   -1.1502    0.6393    2.5760 N   0  0  0  0  0  0  0  0  0  0  0  0
   -2.0581    0.8092    2.1736 H   0  0  0  0  0  0  0  0  0  0  0  0
   -0.9568    0.9369    3.9933 C   0  0  0  0  0  0  0  0  0  0  0  0
   -0.1600    1.6750    4.1097 H   0  0  0  0  0  0  0  0  0  0  0  0
   -1.8775    1.3307    4.4266 H   0  0  0  0  0  0  0  0  0  0  0  0
   -0.6678    0.0287    4.5244 H   0  0  0  0  0  0  0  0  0  0  0  0
  5  6  2  0  0  0  0
  5  7  1  0  0  0  0
  2  3  1  0  0  0  0
  2  4  1  0  0  0  0
  2  5  1  0  0  0  0
  1  2  1  0  0  0  0
 24 25  2  0  0  0  0
 24 26  1  0  0  0  0
 20 21  1  0  0  0  0
 20 22  1  0  0  0  0
 20 23  1  0  0  0  0
 16 17  1  0  0  0  0
 16 18  1  0  0  0  0
 16 19  1  0  0  0  0
 14 15  1  0  0  0  0
 14 16  1  0  0  0  0
 14 20  1  0  0  0  0
 11 12  1  0  0  0  0
 11 13  1  0  0  0  0
 11 14  1  0  0  0  0
  9 10  1  0  0  0  0
  9 11  1  0  0  0  0
  9 24  1  0  0  0  0
  7  8  1  0  0  0  0
  7  9  1  0  0  0  0
 28 29  1  0  0  0  0
 28 30  1  0  0  0  0
 28 31  1  0  0  0  0
 26 27  1  0  0  0  0
 26 28  1  0  0  0  0
M  END
$$$$
default_name
  -OEChem-02102213163D

 31 30  0     1  0  0  0  0  0999 V2000
   -3.5895   -3.5013    1.1082 H   0  0  0  0  0  0  0  0  0  0  0  0
   -3.5145   -2.5363    0.6082 C   0  0  0  0  0  0  0  0  0  0  0  0
   -4.2285   -1.8413    1.0452 H   0  0  0  0  0  0  0  0  0  0  0  0
   -3.7155   -2.6583   -0.4538 H   0  0  0  0  0  0  0  0  0  0  0  0
   -2.1155   -1.9963    0.7922 C   0  0  0  0  0  0  0  0  0  0  0  0
   -1.2875   -2.6383    1.4252 O   0  0  0  0  0  0  0  0  0  0  0  0
   -1.8575   -0.8123    0.2402 N   0  0  0  0  0  0  0  0  0  0  0  0
   -2.6005   -0.3333   -0.2478 H   0  0  0  0  0  0  0  0  0  0  0  0
   -0.5675   -0.1203    0.3102 C   0  0  1  0  0  0  0  0  0  0  0  0
    0.1932   -0.7715   -0.1219 H   0  0  0  0  0  0  0  0  0  0  0  0
   -0.6568    1.1713   -0.5294 C   0  0  0  0  0  0  0  0  0  0  0  0
    0.3557    1.5238   -0.7356 H   0  0  0  0  0  0  0  0  0  0  0  0
   -1.1207    0.9205   -1.4859 H   0  0  0  0  0  0  0  0  0  0  0  0
   -1.4551    2.3265    0.1021 C   0  0  0  0  0  0  0  0  0  0  0  0
   -1.0138    2.5979    1.0612 H   0  0  0  0  0  0  0  0  0  0  0  0
   -1.4917    3.5653   -0.7976 C   0  0  0  0  0  0  0  0  0  0  0  0
   -1.9166    3.3058   -1.7682 H   0  0  0  0  0  0  0  0  0  0  0  0
   -2.1062    4.3375   -0.3343 H   0  0  0  0  0  0  0  0  0  0  0  0
   -0.4900    3.9640   -0.9432 H   0  0  0  0  0  0  0  0  0  0  0  0
   -2.8955    1.8820    0.3531 C   0  0  0  0  0  0  0  0  0  0  0  0
   -2.9022    1.0186    1.0183 H   0  0  0  0  0  0  0  0  0  0  0  0
   -3.4556    2.6889    0.8256 H   0  0  0  0  0  0  0  0  0  0  0  0
   -3.3755    1.6142   -0.5889 H   0  0  0  0  0  0  0  0  0  0  0  0
   -0.1913    0.1554    1.7759 C   0  0  0  0  0  0  0  0  0  0  0  0
    0.9476   -0.0766    2.1748 O   0  0  0  0  0  0  0  0  0  0  0  0
   -1.1502    0.6393    2.5760 N   0  0  0  0  0  0  0  0  0  0  0  0
   -2.0581    0.8092    2.1736 H   0  0  0  0  0  0  0  0  0  0  0  0
   -0.9568    0.9369    3.9933 C   0  0  0  0  0  0  0  0  0  0  0  0
   -0.1600    1.6750    4.1097 H   0  0  0  0  0  0  0  0  0  0  0  0
   -1.8775    1.3307    4.4266 H   0  0  0  0  0  0  0  0  0  0  0  0
   -0.6678    0.0287    4.5244 H   0  0  0  0  0  0  0  0  0  0  0  0
  5  6  2  0  0  0  0
  5  7  1  0  0  0  0
  2  3  1  0  0  0  0
  2  4  1  0  0  0  0
  2  5  1  0  0  0  0
  1  2  1  0  0  0  0
 24 25  2  0  0  0  0
 24 26  1  0  0  0  0
 20 21  1  0  0  0  0
 20 22  1  0  0  0  0
 20 23  1  0  0  0  0
 16 17  1  0  0  0  0
 16 18  1  0  0  0  0
 16 19  1  0  0  0  0
 14 15  1  0  0  0  0
 14 16  1  0  0  0  0
 14 20  1  0  0  0  0
 11 12  1  0  0  0  0
 11 13  1  0  0  0  0
 11 14  1  0  0  0  0
  9 10  1  0  0  0  0
  9 11  1  0  0  0  0
  9 24  1  0  0  0  0
  7  8  1  0  0  0  0
  7  9  1  0  0  0  0
 28 29  1  0  0  0  0
 28 30  1  0  0  0  0
 28 31  1  0  0  0  0
 26 27  1  0  0  0  0
 26 28  1  0  0  0  0
M  END
$$$$
default_name
  -OEChem-02102213163D

 31 30  0     1  0  0  0  0  0999 V2000
   -3.5895   -3.5013    1.1082 H   0  0  0  0  0  0  0  0  0  0  0  0
   -3.5145   -2.5363    0.6082 C   0  0  0  0  0  0  0  0  0  0  0  0
   -4.2285   -1.8413    1.0452 H   0  0  0  0  0  0  0  0  0  0  0  0
   -3.7155   -2.6583   -0.4538 H   0  0  0  0  0  0  0  0  0  0  0  0
   -2.1155   -1.9963    0.7922 C   0  0  0  0  0  0  0  0  0  0  0  0
   -1.2875   -2.6383    1.4252 O   0  0  0  0  0  0  0  0  0  0  0  0
   -1.8575   -0.8123    0.2402 N   0  0  0  0  0  0  0  0  0  0  0  0
   -2.6005   -0.3333   -0.2478 H   0  0  0  0  0  0  0  0  0  0  0  0
   -0.5675   -0.1203    0.3102 C   0  0  1  0  0  0  0  0  0  0  0  0
    0.1932   -0.7715   -0.1219 H   0  0  0  0  0  0  0  0  0  0  0  0
   -0.6568    1.1713   -0.5294 C   0  0  0  0  0  0  0  0  0  0  0  0
    0.3557    1.5238   -0.7356 H   0  0  0  0  0  0  0  0  0  0  0  0
   -1.1207    0.9205   -1.4859 H   0  0  0  0  0  0  0  0  0  0  0  0
   -1.4551    2.3265    0.1021 C   0  0  0  0  0  0  0  0  0  0  0  0
   -0.8779    2.7736    0.9115 H   0  0  0  0  0  0  0  0  0  0  0  0
   -1.8069    3.4132   -0.9179 C   0  0  0  0  0  0  0  0  0  0  0  0
   -2.3716    2.9777   -1.7434 H   0  0  0  0  0  0  0  0  0  0  0  0
   -2.4117    4.1839   -0.4396 H   0  0  0  0  0  0  0  0  0  0  0  0
   -0.9050    3.8780   -1.3106 H   0  0  0  0  0  0  0  0  0  0  0  0
   -2.7596    1.7911    0.6911 C   0  0  0  0  0  0  0  0  0  0  0  0
   -2.5387    1.0362    1.4457 H   0  0  0  0  0  0  0  0  0  0  0  0
   -3.3138    2.6023    1.1632 H   0  0  0  0  0  0  0  0  0  0  0  0
   -3.3718    1.3464   -0.0943 H   0  0  0  0  0  0  0  0  0  0  0  0
   -0.1913    0.1554    1.7759 C   0  0  0  0  0  0  0  0  0  0  0  0
    0.9476   -0.0766    2.1748 O   0  0  0  0  0  0  0  0  0  0  0  0
   -1.1502    0.6393    2.5760 N   0  0  0  0  0  0  0  0  0  0  0  0
   -2.0581    0.8092    2.1736 H   0  0  0  0  0  0  0  0  0  0  0  0
   -0.9568    0.9369    3.9933 C   0  0  0  0  0  0  0  0  0  0  0  0
   -0.1600    1.6750    4.1097 H   0  0  0  0  0  0  0  0  0  0  0  0
   -1.8775    1.3307    4.4266 H   0  0  0  0  0  0  0  0  0  0  0  0
   -0.6678    0.0287    4.5244 H   0  0  0  0  0  0  0  0  0  0  0  0
  5  6  2  0  0  0  0
  5  7  1  0  0  0  0
  2  3  1  0  0  0  0
  2  4  1  0  0  0  0
  2  5  1  0  0  0  0
  1  2  1  0  0  0  0
 24 25  2  0  0  0  0
 24 26  1  0  0  0  0
 20 21  1  0  0  0  0
 20 22  1  0  0  0  0
 20 23  1  0  0  0  0
 16 17  1  0  0  0  0
 16 18  1  0  0  0  0
 16 19  1  0  0  0  0
 14 15  1  0  0  0  0
 14 16  1  0  0  0  0
 14 20  1  0  0  0  0
 11 12  1  0  0  0  0
 11 13  1  0  0  0  0
 11 14  1  0  0  0  0
  9 10  1  0  0  0  0
  9 11  1  0  0  0  0
  9 24  1  0  0  0  0
  7  8  1  0  0  0  0
  7  9  1  0  0  0  0
 28 29  1  0  0  0  0
 28 30  1  0  0  0  0
 28 31  1  0  0  0  0
 26 27  1  0  0  0  0
 26 28  1  0  0  0  0
M  END
$$$$
default_name
  -OEChem-02102213163D

 31 30  0     1  0  0  0  0  0999 V2000
   -3.5895   -3.5013    1.1082 H   0  0  0  0  0  0  0  0  0  0  0  0
   -3.5145   -2.5363    0.6082 C   0  0  0  0  0  0  0  0  0  0  0  0
   -4.2285   -1.8413    1.0452 H   0  0  0  0  0  0  0  0  0  0  0  0
   -3.7155   -2.6583   -0.4538 H   0  0  0  0  0  0  0  0  0  0  0  0
   -2.1155   -1.9963    0.7922 C   0  0  0  0  0  0  0  0  0  0  0  0
   -1.2875   -2.6383    1.4252 O   0  0  0  0  0  0  0  0  0  0  0  0
   -1.8575   -0.8123    0.2402 N   0  0  0  0  0  0  0  0  0  0  0  0
   -2.6005   -0.3333   -0.2478 H   0  0  0  0  0  0  0  0  0  0  0  0
   -0.5675   -0.1203    0.3102 C   0  0  1  0  0  0  0  0  0  0  0  0
    0.1932   -0.7715   -0.1219 H   0  0  0  0  0  0  0  0  0  0  0  0
   -0.6568    1.1713   -0.5294 C   0  0  0  0  0  0  0  0  0  0  0  0
    0.3557    1.5238   -0.7356 H   0  0  0  0  0  0  0  0  0  0  0  0
   -1.1207    0.9205   -1.4859 H   0  0  0  0  0  0  0  0  0  0  0  0
   -1.4551    2.3265    0.1021 C   0  0  0  0  0  0  0  0  0  0  0  0
   -0.7944    2.9377    0.7170 H   0  0  0  0  0  0  0  0  0  0  0  0
   -2.1186    3.2168   -0.9526 C   0  0  0  0  0  0  0  0  0  0  0  0
   -2.7716    2.6159   -1.5870 H   0  0  0  0  0  0  0  0  0  0  0  0
   -2.7110    3.9890   -0.4613 H   0  0  0  0  0  0  0  0  0  0  0  0
   -1.3681    3.7016   -1.5733 H   0  0  0  0  0  0  0  0  0  0  0  0
   -2.5531    1.7631    1.0034 C   0  0  0  0  0  0  0  0  0  0  0  0
   -2.1065    1.1491    1.7855 H   0  0  0  0  0  0  0  0  0  0  0  0
   -3.1021    2.5791    1.4734 H   0  0  0  0  0  0  0  0  0  0  0  0
   -3.2437    1.1545    0.4186 H   0  0  0  0  0  0  0  0  0  0  0  0
   -0.1913    0.1554    1.7759 C   0  0  0  0  0  0  0  0  0  0  0  0
    0.9476   -0.0766    2.1748 O   0  0  0  0  0  0  0  0  0  0  0  0
   -1.1502    0.6393    2.5760 N   0  0  0  0  0  0  0  0  0  0  0  0
   -2.0581    0.8092    2.1736 H   0  0  0  0  0  0  0  0  0  0  0  0
   -0.9568    0.9369    3.9933 C   0  0  0  0  0  0  0  0  0  0  0  0
   -0.1600    1.6750    4.1097 H   0  0  0  0  0  0  0  0  0  0  0  0
   -1.8775    1.3307    4.4266 H   0  0  0  0  0  0  0  0  0  0  0  0
   -0.6678    0.0287    4.5244 H   0  0  0  0  0  0  0  0  0  0  0  0
  5  6  2  0  0  0  0
  5  7  1  0  0  0  0
  2  3  1  0  0  0  0
  2  4  1  0  0  0  0
  2  5  1  0  0  0  0
  1  2  1  0  0  0  0
 24 25  2  0  0  0  0
 24 26  1  0  0  0  0
 20 21  1  0  0  0  0
 20 22  1  0  0  0  0
 20 23  1  0  0  0  0
 16 17  1  0  0  0  0
 16 18  1  0  0  0  0
 16 19  1  0  0  0  0
 14 15  1  0  0  0  0
 14 16  1  0  0  0  0
 14 20  1  0  0  0  0
 11 12  1  0  0  0  0
 11 13  1  0  0  0  0
 11 14  1  0  0  0  0
  9 10  1  0  0  0  0
  9 11  1  0  0  0  0
  9 24  1  0  0  0  0
  7  8  1  0  0  0  0
  7  9  1  0  0  0  0
 28 29  1  0  0  0  0
 28 30  1  0  0  0  0
 28 31  1  0  0  0  0
 26 27  1  0  0  0  0
 26 28  1  0  0  0  0
M  END
$$$$
default_name
  -OEChem-02102213163D

 31 30  0     1  0  0  0  0  0999 V2000
   -3.5895   -3.5013    1.1082 H   0  0  0  0  0  0  0  0  0  0  0  0
   -3.5145   -2.5363    0.6082 C   0  0  0  0  0  0  0  0  0  0  0  0
   -4.2285   -1.8413    1.0452 H   0  0  0  0  0  0  0  0  0  0  0  0
   -3.7155   -2.6583   -0.4538 H   0  0  0  0  0  0  0  0  0  0  0  0
   -2.1155   -1.9963    0.7922 C   0  0  0  0  0  0  0  0  0  0  0  0
   -1.2875   -2.6383    1.4252 O   0  0  0  0  0  0  0  0  0  0  0  0
   -1.8575   -0.8123    0.2402 N   0  0  0  0  0  0  0  0  0  0  0  0
   -2.6005   -0.3333   -0.2478 H   0  0  0  0  0  0  0  0  0  0  0  0
   -0.5675   -0.1203    0.3102 C   0  0  1  0  0  0  0  0  0  0  0  0
    0.1932   -0.7715   -0.1219 H   0  0  0  0  0  0  0  0  0  0  0  0
   -0.6568    1.1713   -0.5294 C   0  0  0  0  0  0  0  0  0  0  0  0
    0.3557    1.5238   -0.7356 H   0  0  0  0  0  0  0  0  0  0  0  0
   -1.1207    0.9205   -1.4859 H   0  0  0  0  0  0  0  0  0  0  0  0
   -1.4551    2.3265    0.1021 C   0  0  0  0  0  0  0  0  0  0  0  0
   -0.7689    3.0789    0.4909 H   0  0  0  0  0  0  0  0  0  0  0  0
   -2.4055    2.9893   -0.8992 C   0  0  0  0  0  0  0  0  0  0  0  0
   -3.0891    2.2448   -1.3098 H   0  0  0  0  0  0  0  0  0  0  0  0
   -2.9835    3.7660   -0.3980 H   0  0  0  0  0  0  0  0  0  0  0  0
   -1.8477    3.4468   -1.7134 H   0  0  0  0  0  0  0  0  0  0  0  0
   -2.2900    1.7999    1.2688 C   0  0  0  0  0  0  0  0  0  0  0  0
   -1.6349    1.3497    2.0146 H   0  0  0  0  0  0  0  0  0  0  0  0
   -2.8349    2.6207    1.7350 H   0  0  0  0  0  0  0  0  0  0  0  0
   -3.0001    1.0516    0.9149 H   0  0  0  0  0  0  0  0  0  0  0  0
   -0.1913    0.1554    1.7759 C   0  0  0  0  0  0  0  0  0  0  0  0
    0.9476   -0.0766    2.1748 O   0  0  0  0  0  0  0  0  0  0  0  0
   -1.1502    0.6393    2.5760 N   0  0  0  0  0  0  0  0  0  0  0  0
   -2.0581    0.8092    2.1736 H   0  0  0  0  0  0  0  0  0  0  0  0
   -0.9568    0.9369    3.9933 C   0  0  0  0  0  0  0  0  0  0  0  0
   -0.1600    1.6750    4.1097 H   0  0  0  0  0  0  0  0  0  0  0  0
   -1.8775    1.3307    4.4266 H   0  0  0  0  0  0  0  0  0  0  0  0
   -0.6678    0.0287    4.5244 H   0  0  0  0  0  0  0  0  0  0  0  0
  5  6  2  0  0  0  0
  5  7  1  0  0  0  0
  2  3  1  0  0  0  0
  2  4  1  0  0  0  0
  2  5  1  0  0  0  0
  1  2  1  0  0  0  0
 24 25  2  0  0  0  0
 24 26  1  0  0  0  0
 20 21  1  0  0  0  0
 20 22  1  0  0  0  0
 20 23  1  0  0  0  0
 16 17  1  0  0  0  0
 16 18  1  0  0  0  0
 16 19  1  0  0  0  0
 14 15  1  0  0  0  0
 14 16  1  0  0  0  0
 14 20  1  0  0  0  0
 11 12  1  0  0  0  0
 11 13  1  0  0  0  0
 11 14  1  0  0  0  0
  9 10  1  0  0  0  0
  9 11  1  0  0  0  0
  9 24  1  0  0  0  0
  7  8  1  0  0  0  0
  7  9  1  0  0  0  0
 28 29  1  0  0  0  0
 28 30  1  0  0  0  0
 28 31  1  0  0  0  0
 26 27  1  0  0  0  0
 26 28  1  0  0  0  0
M  END
$$$$
default_name
  -OEChem-02102213163D

 31 30  0     1  0  0  0  0  0999 V2000
   -3.5895   -3.5013    1.1082 H   0  0  0  0  0  0  0  0  0  0  0  0
   -3.5145   -2.5363    0.6082 C   0  0  0  0  0  0  0  0  0  0  0  0
   -4.2285   -1.8413    1.0452 H   0  0  0  0  0  0  0  0  0  0  0  0
   -3.7155   -2.6583   -0.4538 H   0  0  0  0  0  0  0  0  0  0  0  0
   -2.1155   -1.9963    0.7922 C   0  0  0  0  0  0  0  0  0  0  0  0
   -1.2875   -2.6383    1.4252 O   0  0  0  0  0  0  0  0  0  0  0  0
   -1.8575   -0.8123    0.2402 N   0  0  0  0  0  0  0  0  0  0  0  0
   -2.6005   -0.3333   -0.2478 H   0  0  0  0  0  0  0  0  0  0  0  0
   -0.5675   -0.1203    0.3102 C   0  0  1  0  0  0  0  0  0  0  0  0
    0.1932   -0.7715   -0.1219 H   0  0  0  0  0  0  0  0  0  0  0  0
   -0.6568    1.1713   -0.5294 C   0  0  0  0  0  0  0  0  0  0  0  0
    0.3557    1.5238   -0.7356 H   0  0  0  0  0  0  0  0  0  0  0  0
   -1.1207    0.9205   -1.4859 H   0  0  0  0  0  0  0  0  0  0  0  0
   -1.4551    2.3265    0.1021 C   0  0  0  0  0  0  0  0  0  0  0  0
   -0.8032    3.1877    0.2485 H   0  0  0  0  0  0  0  0  0  0  0  0
   -2.6482    2.7462   -0.7614 C   0  0  0  0  0  0  0  0  0  0  0  0
   -3.3026    1.8900   -0.9305 H   0  0  0  0  0  0  0  0  0  0  0  0
   -3.2109    3.5302   -0.2541 H   0  0  0  0  0  0  0  0  0  0  0  0
   -2.3111    3.1309   -1.7215 H   0  0  0  0  0  0  0  0  0  0  0  0
   -1.9882    1.8989    1.4690 C   0  0  0  0  0  0  0  0  0  0  0  0
   -1.1563    1.6243    2.1175 H   0  0  0  0  0  0  0  0  0  0  0  0
   -2.5304    2.7244    1.9303 H   0  0  0  0  0  0  0  0  0  0  0  0
   -2.6574    1.0446    1.3608 H   0  0  0  0  0  0  0  0  0  0  0  0
   -0.1913    0.1554    1.7759 C   0  0  0  0  0  0  0  0  0  0  0  0
    0.9476   -0.0766    2.1748 O   0  0  0  0  0  0  0  0  0  0  0  0
   -1.1502    0.6393    2.5760 N   0  0  0  0  0  0  0  0  0  0  0  0
   -2.0581    0.8092    2.1736 H   0  0  0  0  0  0  0  0  0  0  0  0
   -0.9568    0.9369    3.9933 C   0  0  0  0  0  0  0  0  0  0  0  0
   -0.1600    1.6750    4.1097 H   0  0  0  0  0  0  0  0  0  0  0  0
   -1.8775    1.3307    4.4266 H   0  0  0  0  0  0  0  0  0  0  0  0
   -0.6678    0.0287    4.5244 H   0  0  0  0  0  0  0  0  0  0  0  0
  5  6  2  0  0  0  0
  5  7  1  0  0  0  0
  2  3  1  0  0  0  0
  2  4  1  0  0  0  0
  2  5  1  0  0  0  0
  1  2  1  0  0  0  0
 24 25  2  0  0  0  0
 24 26  1  0  0  0  0
 20 21  1  0  0  0  0
 20 22  1  0  0  0  0
 20 23  1  0  0  0  0
 16 17  1  0  0  0  0
 16 18  1  0  0  0  0
 16 19  1  0  0  0  0
 14 15  1  0  0  0  0
 14 16  1  0  0  0  0
 14 20  1  0  0  0  0
 11 12  1  0  0  0  0
 11 13  1  0  0  0  0
 11 14  1  0  0  0  0
  9 10  1  0  0  0  0
  9 11  1  0  0  0  0
  9 24  1  0  0  0  0
  7  8  1  0  0  0  0
  7  9  1  0  0  0  0
 28 29  1  0  0  0  0
 28 30  1  0  0  0  0
 28 31  1  0  0  0  0
 26 27  1  0  0  0  0
 26 28  1  0  0  0  0
M  END
$$$$
default_name
  -OEChem-02102213163D

 31 30  0     1  0  0  0  0  0999 V2000
   -3.5895   -3.5013    1.1082 H   0  0  0  0  0  0  0  0  0  0  0  0
   -3.5145   -2.5363    0.6082 C   0  0  0  0  0  0  0  0  0  0  0  0
   -4.2285   -1.8413    1.0452 H   0  0  0  0  0  0  0  0  0  0  0  0
   -3.7155   -2.6583   -0.4538 H   0  0  0  0  0  0  0  0  0  0  0  0
   -2.1155   -1.9963    0.7922 C   0  0  0  0  0  0  0  0  0  0  0  0
   -1.2875   -2.6383    1.4252 O   0  0  0  0  0  0  0  0  0  0  0  0
   -1.8575   -0.8123    0.2402 N   0  0  0  0  0  0  0  0  0  0  0  0
   -2.6005   -0.3333   -0.2478 H   0  0  0  0  0  0  0  0  0  0  0  0
   -0.5675   -0.1203    0.3102 C   0  0  1  0  0  0  0  0  0  0  0  0
    0.1932   -0.7715   -0.1219 H   0  0  0  0  0  0  0  0  0  0  0  0
   -0.6568    1.1713   -0.5294 C   0  0  0  0  0  0  0  0  0  0  0  0
    0.3557    1.5238   -0.7356 H   0  0  0  0  0  0  0  0  0  0  0  0
   -1.1207    0.9205   -1.4859 H   0  0  0  0  0  0  0  0  0  0  0  0
   -1.4551    2.3265    0.1021 C   0  0  0  0  0  0  0  0  0  0  0  0
   -0.8949    3.2566    0.0065 H   0  0  0  0  0  0  0  0  0  0  0  0
   -2.8300    2.5042   -0.5485 C   0  0  0  0  0  0  0  0  0  0  0  0
   -3.3974    1.5754   -0.4751 H   0  0  0  0  0  0  0  0  0  0  0  0
   -3.3774    3.2976   -0.0392 H   0  0  0  0  0  0  0  0  0  0  0  0
   -2.7267    2.7756   -1.5969 H   0  0  0  0  0  0  0  0  0  0  0  0
   -1.6683    2.0535    1.5906 C   0  0  0  0  0  0  0  0  0  0  0  0
   -0.7031    1.9541    2.0871 H   0  0  0  0  0  0  0  0  0  0  0  0
   -2.2094    2.8831    2.0458 H   0  0  0  0  0  0  0  0  0  0  0  0
   -2.2391    1.1341    1.7259 H   0  0  0  0  0  0  0  0  0  0  0  0
   -0.1913    0.1554    1.7759 C   0  0  0  0  0  0  0  0  0  0  0  0
    0.9476   -0.0766    2.1748 O   0  0  0  0  0  0  0  0  0  0  0  0
   -1.1502    0.6393    2.5760 N   0  0  0  0  0  0  0  0  0  0  0  0
   -2.0581    0.8092    2.1736 H   0  0  0  0  0  0  0  0  0  0  0  0
   -0.9568    0.9369    3.9933 C   0  0  0  0  0  0  0  0  0  0  0  0
   -0.1600    1.6750    4.1097 H   0  0  0  0  0  0  0  0  0  0  0  0
   -1.8775    1.3307    4.4266 H   0  0  0  0  0  0  0  0  0  0  0  0
   -0.6678    0.0287    4.5244 H   0  0  0  0  0  0  0  0  0  0  0  0
  5  6  2  0  0  0  0
  5  7  1  0  0  0  0
  2  3  1  0  0  0  0
  2  4  1  0  0  0  0
  2  5  1  0  0  0  0
  1  2  1  0  0  0  0
 24 25  2  0  0  0  0
 24 26  1  0  0  0  0
 20 21  1  0  0  0  0
 20 22  1  0  0  0  0
 20 23  1  0  0  0  0
 16 17  1  0  0  0  0
 16 18  1  0  0  0  0
 16 19  1  0  0  0  0
 14 15  1  0  0  0  0
 14 16  1  0  0  0  0
 14 20  1  0  0  0  0
 11 12  1  0  0  0  0
 11 13  1  0  0  0  0
 11 14  1  0  0  0  0
  9 10  1  0  0  0  0
  9 11  1  0  0  0  0
  9 24  1  0  0  0  0
  7  8  1  0  0  0  0
  7  9  1  0  0  0  0
 28 29  1  0  0  0  0
 28 30  1  0  0  0  0
 28 31  1  0  0  0  0
 26 27  1  0  0  0  0
 26 28  1  0  0  0  0
M  END
$$$$
default_name
  -OEChem-02102213163D

 31 30  0     1  0  0  0  0  0999 V2000
   -3.5895   -3.5013    1.1082 H   0  0  0  0  0  0  0  0  0  0  0  0
   -3.5145   -2.5363    0.6082 C   0  0  0  0  0  0  0  0  0  0  0  0
   -4.2285   -1.8413    1.0452 H   0  0  0  0  0  0  0  0  0  0  0  0
   -3.7155   -2.6583   -0.4538 H   0  0  0  0  0  0  0  0  0  0  0  0
   -2.1155   -1.9963    0.7922 C   0  0  0  0  0  0  0  0  0  0  0  0
   -1.2875   -2.6383    1.4252 O   0  0  0  0  0  0  0  0  0  0  0  0
   -1.8575   -0.8123    0.2402 N   0  0  0  0  0  0  0  0  0  0  0  0
   -2.6005   -0.3333   -0.2478 H   0  0  0  0  0  0  0  0  0  0  0  0
   -0.5675   -0.1203    0.3102 C   0  0  1  0  0  0  0  0  0  0  0  0
    0.1932   -0.7715   -0.1219 H   0  0  0  0  0  0  0  0  0  0  0  0
   -0.6568    1.1713   -0.5294 C   0  0  0  0  0  0  0  0  0  0  0  0
    0.3557    1.5238   -0.7356 H   0  0  0  0  0  0  0  0  0  0  0  0
   -1.1207    0.9205   -1.4859 H   0  0  0  0  0  0  0  0  0  0  0  0
   -1.4551    2.3265    0.1021 C   0  0  0  0  0  0  0  0  0  0  0  0
   -1.0378    3.2810   -0.2187 H   0  0  0  0  0  0  0  0  0  0  0  0
   -2.9386    2.2797   -0.2751 C   0  0  0  0  0  0  0  0  0  0  0  0
   -3.3673    1.3226    0.0254 H   0  0  0  0  0  0  0  0  0  0  0  0
   -3.4719    3.0841    0.2319 H   0  0  0  0  0  0  0  0  0  0  0  0
   -3.0663    2.4049   -1.3482 H   0  0  0  0  0  0  0  0  0  0  0  0
   -1.3522    2.2532    1.6251 C   0  0  0  0  0  0  0  0  0  0  0  0
   -0.3063    2.3167    1.9254 H   0  0  0  0  0  0  0  0  0  0  0  0
   -1.8937    3.0859    2.0738 H   0  0  0  0  0  0  0  0  0  0  0  0
   -1.7736    1.3140    1.9853 H   0  0  0  0  0  0  0  0  0  0  0  0
   -0.1913    0.1554    1.7759 C   0  0  0  0  0  0  0  0  0  0  0  0
    0.9476   -0.0766    2.1748 O   0  0  0  0  0  0  0  0  0  0  0  0
   -1.1502    0.6393    2.5760 N   0  0  0  0  0  0  0  0  0  0  0  0
   -2.0581    0.8092    2.1736 H   0  0  0  0  0  0  0  0  0  0  0  0
   -0.9568    0.9369    3.9933 C   0  0  0  0  0  0  0  0  0  0  0  0
   -0.1600    1.6750    4.1097 H   0  0  0  0  0  0  0  0  0  0  0  0
   -1.8775    1.3307    4.4266 H   0  0  0  0  0  0  0  0  0  0  0  0
   -0.6678    0.0287    4.5244 H   0  0  0  0  0  0  0  0  0  0  0  0
  5  6  2  0  0  0  0
  5  7  1  0  0  0  0
  2  3  1  0  0  0  0
  2  4  1  0  0  0  0
  2  5  1  0  0  0  0
  1  2  1  0  0  0  0
 24 25  2  0  0  0  0
 24 26  1  0  0  0  0
 20 21  1  0  0  0  0
 20 22  1  0  0  0  0
 20 23  1  0  0  0  0
 16 17  1  0  0  0  0
 16 18  1  0  0  0  0
 16 19  1  0  0  0  0
 14 15  1  0  0  0  0
 14 16  1  0  0  0  0
 14 20  1  0  0  0  0
 11 12  1  0  0  0  0
 11 13  1  0  0  0  0
 11 14  1  0  0  0  0
  9 10  1  0  0  0  0
  9 11  1  0  0  0  0
  9 24  1  0  0  0  0
  7  8  1  0  0  0  0
  7  9  1  0  0  0  0
 28 29  1  0  0  0  0
 28 30  1  0  0  0  0
 28 31  1  0  0  0  0
 26 27  1  0  0  0  0
 26 28  1  0  0  0  0
M  END
$$$$
default_name
  -OEChem-02102213163D

 31 30  0     1  0  0  0  0  0999 V2000
   -3.5895   -3.5013    1.1082 H   0  0  0  0  0  0  0  0  0  0  0  0
   -3.5145   -2.5363    0.6082 C   0  0  0  0  0  0  0  0  0  0  0  0
   -4.2285   -1.8413    1.0452 H   0  0  0  0  0  0  0  0  0  0  0  0
   -3.7155   -2.6583   -0.4538 H   0  0  0  0  0  0  0  0  0  0  0  0
   -2.1155   -1.9963    0.7922 C   0  0  0  0  0  0  0  0  0  0  0  0
   -1.2875   -2.6383    1.4252 O   0  0  0  0  0  0  0  0  0  0  0  0
   -1.8575   -0.8123    0.2402 N   0  0  0  0  0  0  0  0  0  0  0  0
   -2.6005   -0.3333   -0.2478 H   0  0  0  0  0  0  0  0  0  0  0  0
   -0.5675   -0.1203    0.3102 C   0  0  1  0  0  0  0  0  0  0  0  0
    0.1932   -0.7715   -0.1219 H   0  0  0  0  0  0  0  0  0  0  0  0
   -0.6568    1.1713   -0.5294 C   0  0  0  0  0  0  0  0  0  0  0  0
    0.3557    1.5238   -0.7356 H   0  0  0  0  0  0  0  0  0  0  0  0
   -1.1207    0.9205   -1.4859 H   0  0  0  0  0  0  0  0  0  0  0  0
   -1.4551    2.3265    0.1021 C   0  0  0  0  0  0  0  0  0  0  0  0
   -1.2221    3.2591   -0.4117 H   0  0  0  0  0  0  0  0  0  0  0  0
   -2.9666    2.0880    0.0402 C   0  0  0  0  0  0  0  0  0  0  0  0
   -3.2141    1.1488    0.5369 H   0  0  0  0  0  0  0  0  0  0  0  0
   -3.4879    2.9042    0.5407 H   0  0  0  0  0  0  0  0  0  0  0  0
   -3.3066    2.0442   -0.9922 H   0  0  0  0  0  0  0  0  0  0  0  0
   -1.0613    2.4842    1.5703 C   0  0  0  0  0  0  0  0  0  0  0  0
    0.0070    2.6874    1.6436 H   0  0  0  0  0  0  0  0  0  0  0  0
   -1.6049    3.3192    2.0123 H   0  0  0  0  0  0  0  0  0  0  0  0
   -1.2927    1.5720    2.1213 H   0  0  0  0  0  0  0  0  0  0  0  0
   -0.1913    0.1554    1.7759 C   0  0  0  0  0  0  0  0  0  0  0  0
    0.9476   -0.0766    2.1748 O   0  0  0  0  0  0  0  0  0  0  0  0
   -1.1502    0.6393    2.5760 N   0  0  0  0  0  0  0  0  0  0  0  0
   -2.0581    0.8092    2.1736 H   0  0  0  0  0  0  0  0  0  0  0  0
   -0.9568    0.9369    3.9933 C   0  0  0  0  0  0  0  0  0  0  0  0
   -0.1600    1.6750    4.1097 H   0  0  0  0  0  0  0  0  0  0  0  0
   -1.8775    1.3307    4.4266 H   0  0  0  0  0  0  0  0  0  0  0  0
   -0.6678    0.0287    4.5244 H   0  0  0  0  0  0  0  0  0  0  0  0
  5  6  2  0  0  0  0
  5  7  1  0  0  0  0
  2  3  1  0  0  0  0
  2  4  1  0  0  0  0
  2  5  1  0  0  0  0
  1  2  1  0  0  0  0
 24 25  2  0  0  0  0
 24 26  1  0  0  0  0
 20 21  1  0  0  0  0
 20 22  1  0  0  0  0
 20 23  1  0  0  0  0
 16 17  1  0  0  0  0
 16 18  1  0  0  0  0
 16 19  1  0  0  0  0
 14 15  1  0  0  0  0
 14 16  1  0  0  0  0
 14 20  1  0  0  0  0
 11 12  1  0  0  0  0
 11 13  1  0  0  0  0
 11 14  1  0  0  0  0
  9 10  1  0  0  0  0
  9 11  1  0  0  0  0
  9 24  1  0  0  0  0
  7  8  1  0  0  0  0
  7  9  1  0  0  0  0
 28 29  1  0  0  0  0
 28 30  1  0  0  0  0
 28 31  1  0  0  0  0
 26 27  1  0  0  0  0
 26 28  1  0  0  0  0
M  END
$$$$
default_name
  -OEChem-02102213163D

 31 30  0     1  0  0  0  0  0999 V2000
   -3.5895   -3.5013    1.1082 H   0  0  0  0  0  0  0  0  0  0  0  0
   -3.5145   -2.5363    0.6082 C   0  0  0  0  0  0  0  0  0  0  0  0
   -4.2285   -1.8413    1.0452 H   0  0  0  0  0  0  0  0  0  0  0  0
   -3.7155   -2.6583   -0.4538 H   0  0  0  0  0  0  0  0  0  0  0  0
   -2.1155   -1.9963    0.7922 C   0  0  0  0  0  0  0  0  0  0  0  0
   -1.2875   -2.6383    1.4252 O   0  0  0  0  0  0  0  0  0  0  0  0
   -1.8575   -0.8123    0.2402 N   0  0  0  0  0  0  0  0  0  0  0  0
   -2.6005   -0.3333   -0.2478 H   0  0  0  0  0  0  0  0  0  0  0  0
   -0.5675   -0.1203    0.3102 C   0  0  1  0  0  0  0  0  0  0  0  0
    0.1932   -0.7715   -0.1219 H   0  0  0  0  0  0  0  0  0  0  0  0
   -0.6568    1.1713   -0.5294 C   0  0  0  0  0  0  0  0  0  0  0  0
    0.3557    1.5238   -0.7356 H   0  0  0  0  0  0  0  0  0  0  0  0
   -1.1207    0.9205   -1.4859 H   0  0  0  0  0  0  0  0  0  0  0  0
   -1.4551    2.3265    0.1021 C   0  0  0  0  0  0  0  0  0  0  0  0
   -1.4354    3.1926   -0.5595 H   0  0  0  0  0  0  0  0  0  0  0  0
   -2.9120    1.9421    0.3759 C   0  0  0  0  0  0  0  0  0  0  0  0
   -2.9484    1.0659    1.0246 H   0  0  0  0  0  0  0  0  0  0  0  0
   -3.4243    2.7702    0.8663 H   0  0  0  0  0  0  0  0  0  0  0  0
   -3.4314    1.7181   -0.5534 H   0  0  0  0  0  0  0  0  0  0  0  0
   -0.8155    2.7308    1.4298 C   0  0  0  0  0  0  0  0  0  0  0  0
    0.2157    3.0409    1.2607 H   0  0  0  0  0  0  0  0  0  0  0  0
   -1.3626    3.5668    1.8656 H   0  0  0  0  0  0  0  0  0  0  0  0
   -0.8292    1.8904    2.1247 H   0  0  0  0  0  0  0  0  0  0  0  0
   -0.1913    0.1554    1.7759 C   0  0  0  0  0  0  0  0  0  0  0  0
    0.9476   -0.0766    2.1748 O   0  0  0  0  0  0  0  0  0  0  0  0
   -1.1502    0.6393    2.5760 N   0  0  0  0  0  0  0  0  0  0  0  0
   -2.0581    0.8092    2.1736 H   0  0  0  0  0  0  0  0  0  0  0  0
   -0.9568    0.9369    3.9933 C   0  0  0  0  0  0  0  0  0  0  0  0
   -0.1600    1.6750    4.1097 H   0  0  0  0  0  0  0  0  0  0  0  0
   -1.8775    1.3307    4.4266 H   0  0  0  0  0  0  0  0  0  0  0  0
   -0.6678    0.0287    4.5244 H   0  0  0  0  0  0  0  0  0  0  0  0
  5  6  2  0  0  0  0
  5  7  1  0  0  0  0
  2  3  1  0  0  0  0
  2  4  1  0  0  0  0
  2  5  1  0  0  0  0
  1  2  1  0  0  0  0
 24 25  2  0  0  0  0
 24 26  1  0  0  0  0
 20 21  1  0  0  0  0
 20 22  1  0  0  0  0
 20 23  1  0  0  0  0
 16 17  1  0  0  0  0
 16 18  1  0  0  0  0
 16 19  1  0  0  0  0
 14 15  1  0  0  0  0
 14 16  1  0  0  0  0
 14 20  1  0  0  0  0
 11 12  1  0  0  0  0
 11 13  1  0  0  0  0
 11 14  1  0  0  0  0
  9 10  1  0  0  0  0
  9 11  1  0  0  0  0
  9 24  1  0  0  0  0
  7  8  1  0  0  0  0
  7  9  1  0  0  0  0
 28 29  1  0  0  0  0
 28 30  1  0  0  0  0
 28 31  1  0  0  0  0
 26 27  1  0  0  0  0
 26 28  1  0  0  0  0
M  END
$$$$
default_name
  -OEChem-02102213163D

 31 30  0     1  0  0  0  0  0999 V2000
   -3.5895   -3.5013    1.1082 H   0  0  0  0  0  0  0  0  0  0  0  0
   -3.5145   -2.5363    0.6082 C   0  0  0  0  0  0  0  0  0  0  0  0
   -4.2285   -1.8413    1.0452 H   0  0  0  0  0  0  0  0  0  0  0  0
   -3.7155   -2.6583   -0.4538 H   0  0  0  0  0  0  0  0  0  0  0  0
   -2.1155   -1.9963    0.7922 C   0  0  0  0  0  0  0  0  0  0  0  0
   -1.2875   -2.6383    1.4252 O   0  0  0  0  0  0  0  0  0  0  0  0
   -1.8575   -0.8123    0.2402 N   0  0  0  0  0  0  0  0  0  0  0  0
   -2.6005   -0.3333   -0.2478 H   0  0  0  0  0  0  0  0  0  0  0  0
   -0.5675   -0.1203    0.3102 C   0  0  1  0  0  0  0  0  0  0  0  0
    0.1932   -0.7715   -0.1219 H   0  0  0  0  0  0  0  0  0  0  0  0
   -0.6568    1.1713   -0.5294 C   0  0  0  0  0  0  0  0  0  0  0  0
    0.3557    1.5238   -0.7356 H   0  0  0  0  0  0  0  0  0  0  0  0
   -1.1207    0.9205   -1.4859 H   0  0  0  0  0  0  0  0  0  0  0  0
   -1.4551    2.3265    0.1021 C   0  0  0  0  0  0  0  0  0  0  0  0
   -1.6630    3.0858   -0.6518 H   0  0  0  0  0  0  0  0  0  0  0  0
   -2.7786    1.8521    0.7092 C   0  0  0  0  0  0  0  0  0  0  0  0
   -2.5882    1.0794    1.4552 H   0  0  0  0  0  0  0  0  0  0  0  0
   -3.2854    2.6912    1.1864 H   0  0  0  0  0  0  0  0  0  0  0  0
   -3.4320    1.4487   -0.0614 H   0  0  0  0  0  0  0  0  0  0  0  0
   -0.6315    2.9763    1.2133 C   0  0  0  0  0  0  0  0  0  0  0  0
    0.3053    3.3531    0.8029 H   0  0  0  0  0  0  0  0  0  0  0  0
   -1.1833    3.8121    1.6435 H   0  0  0  0  0  0  0  0  0  0  0  0
   -0.4146    2.2477    1.9953 H   0  0  0  0  0  0  0  0  0  0  0  0
   -0.1913    0.1554    1.7759 C   0  0  0  0  0  0  0  0  0  0  0  0
    0.9476   -0.0766    2.1748 O   0  0  0  0  0  0  0  0  0  0  0  0
   -1.1502    0.6393    2.5760 N   0  0  0  0  0  0  0  0  0  0  0  0
   -2.0581    0.8092    2.1736 H   0  0  0  0  0  0  0  0  0  0  0  0
   -0.9568    0.9369    3.9933 C   0  0  0  0  0  0  0  0  0  0  0  0
   -0.1600    1.6750    4.1097 H   0  0  0  0  0  0  0  0  0  0  0  0
   -1.8775    1.3307    4.4266 H   0  0  0  0  0  0  0  0  0  0  0  0
   -0.6678    0.0287    4.5244 H   0  0  0  0  0  0  0  0  0  0  0  0
  5  6  2  0  0  0  0
  5  7  1  0  0  0  0
  2  3  1  0  0  0  0
  2  4  1  0  0  0  0
  2  5  1  0  0  0  0
  1  2  1  0  0  0  0
 24 25  2  0  0  0  0
 24 26  1  0  0  0  0
 20 21  1  0  0  0  0
 20 22  1  0  0  0  0
 20 23  1  0  0  0  0
 16 17  1  0  0  0  0
 16 18  1  0  0  0  0
 16 19  1  0  0  0  0
 14 15  1  0  0  0  0
 14 16  1  0  0  0  0
 14 20  1  0  0  0  0
 11 12  1  0  0  0  0
 11 13  1  0  0  0  0
 11 14  1  0  0  0  0
  9 10  1  0  0  0  0
  9 11  1  0  0  0  0
  9 24  1  0  0  0  0
  7  8  1  0  0  0  0
  7  9  1  0  0  0  0
 28 29  1  0  0  0  0
 28 30  1  0  0  0  0
 28 31  1  0  0  0  0
 26 27  1  0  0  0  0
 26 28  1  0  0  0  0
M  END
$$$$
default_name
  -OEChem-02102213163D

 31 30  0     1  0  0  0  0  0999 V2000
   -3.5895   -3.5013    1.1082 H   0  0  0  0  0  0  0  0  0  0  0  0
   -3.5145   -2.5363    0.6082 C   0  0  0  0  0  0  0  0  0  0  0  0
   -4.2285   -1.8413    1.0452 H   0  0  0  0  0  0  0  0  0  0  0  0
   -3.7155   -2.6583   -0.4538 H   0  0  0  0  0  0  0  0  0  0  0  0
   -2.1155   -1.9963    0.7922 C   0  0  0  0  0  0  0  0  0  0  0  0
   -1.2875   -2.6383    1.4252 O   0  0  0  0  0  0  0  0  0  0  0  0
   -1.8575   -0.8123    0.2402 N   0  0  0  0  0  0  0  0  0  0  0  0
   -2.6005   -0.3333   -0.2478 H   0  0  0  0  0  0  0  0  0  0  0  0
   -0.5675   -0.1203    0.3102 C   0  0  1  0  0  0  0  0  0  0  0  0
    0.1932   -0.7715   -0.1219 H   0  0  0  0  0  0  0  0  0  0  0  0
   -0.6568    1.1713   -0.5294 C   0  0  0  0  0  0  0  0  0  0  0  0
    0.3557    1.5238   -0.7356 H   0  0  0  0  0  0  0  0  0  0  0  0
   -1.1207    0.9205   -1.4859 H   0  0  0  0  0  0  0  0  0  0  0  0
   -1.4551    2.3265    0.1021 C   0  0  0  0  0  0  0  0  0  0  0  0
   -1.8894    2.9461   -0.6825 H   0  0  0  0  0  0  0  0  0  0  0  0
   -2.5755    1.8240    1.0173 C   0  0  0  0  0  0  0  0  0  0  0  0
   -2.1581    1.1885    1.7994 H   0  0  0  0  0  0  0  0  0  0  0  0
   -3.0806    2.6726    1.4792 H   0  0  0  0  0  0  0  0  0  0  0  0
   -3.3085    1.2544    0.4500 H   0  0  0  0  0  0  0  0  0  0  0  0
   -0.5219    3.2040    0.9356 C   0  0  0  0  0  0  0  0  0  0  0  0
    0.2699    3.6028    0.3015 H   0  0  0  0  0  0  0  0  0  0  0  0
   -1.0794    4.0382    1.3613 H   0  0  0  0  0  0  0  0  0  0  0  0
   -0.0773    2.6195    1.7418 H   0  0  0  0  0  0  0  0  0  0  0  0
   -0.1913    0.1554    1.7759 C   0  0  0  0  0  0  0  0  0  0  0  0
    0.9476   -0.0766    2.1748 O   0  0  0  0  0  0  0  0  0  0  0  0
   -1.1502    0.6393    2.5760 N   0  0  0  0  0  0  0  0  0  0  0  0
   -2.0581    0.8092    2.1736 H   0  0  0  0  0  0  0  0  0  0  0  0
   -0.9568    0.9369    3.9933 C   0  0  0  0  0  0  0  0  0  0  0  0
   -0.1600    1.6750    4.1097 H   0  0  0  0  0  0  0  0  0  0  0  0
   -1.8775    1.3307    4.4266 H   0  0  0  0  0  0  0  0  0  0  0  0
   -0.6678    0.0287    4.5244 H   0  0  0  0  0  0  0  0  0  0  0  0
  5  6  2  0  0  0  0
  5  7  1  0  0  0  0
  2  3  1  0  0  0  0
  2  4  1  0  0  0  0
  2  5  1  0  0  0  0
  1  2  1  0  0  0  0
 24 25  2  0  0  0  0
 24 26  1  0  0  0  0
 20 21  1  0  0  0  0
 20 22  1  0  0  0  0
 20 23  1  0  0  0  0
 16 17  1  0  0  0  0
 16 18  1  0  0  0  0
 16 19  1  0  0  0  0
 14 15  1  0  0  0  0
 14 16  1  0  0  0  0
 14 20  1  0  0  0  0
 11 12  1  0  0  0  0
 11 13  1  0  0  0  0
 11 14  1  0  0  0  0
  9 10  1  0  0  0  0
  9 11  1  0  0  0  0
  9 24  1  0  0  0  0
  7  8  1  0  0  0  0
  7  9  1  0  0  0  0
 28 29  1  0  0  0  0
 28 30  1  0  0  0  0
 28 31  1  0  0  0  0
 26 27  1  0  0  0  0
 26 28  1  0  0  0  0
M  END
$$$$
default_name
  -OEChem-02102213163D

 31 30  0     1  0  0  0  0  0999 V2000
   -3.5895   -3.5013    1.1082 H   0  0  0  0  0  0  0  0  0  0  0  0
   -3.5145   -2.5363    0.6082 C   0  0  0  0  0  0  0  0  0  0  0  0
   -4.2285   -1.8413    1.0452 H   0  0  0  0  0  0  0  0  0  0  0  0
   -3.7155   -2.6583   -0.4538 H   0  0  0  0  0  0  0  0  0  0  0  0
   -2.1155   -1.9963    0.7922 C   0  0  0  0  0  0  0  0  0  0  0  0
   -1.2875   -2.6383    1.4252 O   0  0  0  0  0  0  0  0  0  0  0  0
   -1.8575   -0.8123    0.2402 N   0  0  0  0  0  0  0  0  0  0  0  0
   -2.6005   -0.3333   -0.2478 H   0  0  0  0  0  0  0  0  0  0  0  0
   -0.5675   -0.1203    0.3102 C   0  0  1  0  0  0  0  0  0  0  0  0
    0.1932   -0.7715   -0.1219 H   0  0  0  0  0  0  0  0  0  0  0  0
   -0.6568    1.1713   -0.5294 C   0  0  0  0  0  0  0  0  0  0  0  0
    0.3557    1.5238   -0.7356 H   0  0  0  0  0  0  0  0  0  0  0  0
   -1.1207    0.9205   -1.4859 H   0  0  0  0  0  0  0  0  0  0  0  0
   -1.4551    2.3265    0.1021 C   0  0  0  0  0  0  0  0  0  0  0  0
   -2.0992    2.7829   -0.6495 H   0  0  0  0  0  0  0  0  0  0  0  0
   -2.3165    1.8598    1.2792 C   0  0  0  0  0  0  0  0  0  0  0  0
   -1.6874    1.3857    2.0337 H   0  0  0  0  0  0  0  0  0  0  0  0
   -2.8240    2.7157    1.7248 H   0  0  0  0  0  0  0  0  0  0  0  0
   -3.0693    1.1485    0.9461 H   0  0  0  0  0  0  0  0  0  0  0  0
   -0.4941    3.3982    0.6154 C   0  0  0  0  0  0  0  0  0  0  0  0
    0.1118    3.7728   -0.2095 H   0  0  0  0  0  0  0  0  0  0  0  0
   -1.0578    4.2298    1.0381 H   0  0  0  0  0  0  0  0  0  0  0  0
    0.1600    2.9804    1.3815 H   0  0  0  0  0  0  0  0  0  0  0  0
   -0.1913    0.1554    1.7759 C   0  0  0  0  0  0  0  0  0  0  0  0
    0.9476   -0.0766    2.1748 O   0  0  0  0  0  0  0  0  0  0  0  0
   -1.1502    0.6393    2.5760 N   0  0  0  0  0  0  0  0  0  0  0  0
   -2.0581    0.8092    2.1736 H   0  0  0  0  0  0  0  0  0  0  0  0
   -0.9568    0.9369    3.9933 C   0  0  0  0  0  0  0  0  0  0  0  0
   -0.1600    1.6750    4.1097 H   0  0  0  0  0  0  0  0  0  0  0  0
   -1.8775    1.3307    4.4266 H   0  0  0  0  0  0  0  0  0  0  0  0
   -0.6678    0.0287    4.5244 H   0  0  0  0  0  0  0  0  0  0  0  0
  5  6  2  0  0  0  0
  5  7  1  0  0  0  0
  2  3  1  0  0  0  0
  2  4  1  0  0  0  0
  2  5  1  0  0  0  0
  1  2  1  0  0  0  0
 24 25  2  0  0  0  0
 24 26  1  0  0  0  0
 20 21  1  0  0  0  0
 20 22  1  0  0  0  0
 20 23  1  0  0  0  0
 16 17  1  0  0  0  0
 16 18  1  0  0  0  0
 16 19  1  0  0  0  0
 14 15  1  0  0  0  0
 14 16  1  0  0  0  0
 14 20  1  0  0  0  0
 11 12  1  0  0  0  0
 11 13  1  0  0  0  0
 11 14  1  0  0  0  0
  9 10  1  0  0  0  0
  9 11  1  0  0  0  0
  9 24  1  0  0  0  0
  7  8  1  0  0  0  0
  7  9  1  0  0  0  0
 28 29  1  0  0  0  0
 28 30  1  0  0  0  0
 28 31  1  0  0  0  0
 26 27  1  0  0  0  0
 26 28  1  0  0  0  0
M  END
$$$$
default_name
  -OEChem-02102213163D

 31 30  0     1  0  0  0  0  0999 V2000
   -3.5895   -3.5013    1.1082 H   0  0  0  0  0  0  0  0  0  0  0  0
   -3.5145   -2.5363    0.6082 C   0  0  0  0  0  0  0  0  0  0  0  0
   -4.2285   -1.8413    1.0452 H   0  0  0  0  0  0  0  0  0  0  0  0
   -3.7155   -2.6583   -0.4538 H   0  0  0  0  0  0  0  0  0  0  0  0
   -2.1155   -1.9963    0.7922 C   0  0  0  0  0  0  0  0  0  0  0  0
   -1.2875   -2.6383    1.4252 O   0  0  0  0  0  0  0  0  0  0  0  0
   -1.8575   -0.8123    0.2402 N   0  0  0  0  0  0  0  0  0  0  0  0
   -2.6005   -0.3333   -0.2478 H   0  0  0  0  0  0  0  0  0  0  0  0
   -0.5675   -0.1203    0.3102 C   0  0  1  0  0  0  0  0  0  0  0  0
    0.1932   -0.7715   -0.1219 H   0  0  0  0  0  0  0  0  0  0  0  0
   -0.6568    1.1713   -0.5294 C   0  0  0  0  0  0  0  0  0  0  0  0
    0.3557    1.5238   -0.7356 H   0  0  0  0  0  0  0  0  0  0  0  0
   -1.1207    0.9205   -1.4859 H   0  0  0  0  0  0  0  0  0  0  0  0
   -1.4551    2.3265    0.1021 C   0  0  0  0  0  0  0  0  0  0  0  0
   -2.2782    2.6076   -0.5549 H   0  0  0  0  0  0  0  0  0  0  0  0
   -2.0193    1.9570    1.4771 C   0  0  0  0  0  0  0  0  0  0  0  0
   -1.2082    1.6576    2.1421 H   0  0  0  0  0  0  0  0  0  0  0  0
   -2.5331    2.8175    1.9064 H   0  0  0  0  0  0  0  0  0  0  0  0
   -2.7306    1.1382    1.3931 H   0  0  0  0  0  0  0  0  0  0  0  0
   -0.5501    3.5458    0.2747 C   0  0  0  0  0  0  0  0  0  0  0  0
   -0.1582    3.8518   -0.6952 H   0  0  0  0  0  0  0  0  0  0  0  0
   -1.1200    4.3738    0.6961 H   0  0  0  0  0  0  0  0  0  0  0  0
    0.2808    3.3058    0.9391 H   0  0  0  0  0  0  0  0  0  0  0  0
   -0.1913    0.1554    1.7759 C   0  0  0  0  0  0  0  0  0  0  0  0
    0.9476   -0.0766    2.1748 O   0  0  0  0  0  0  0  0  0  0  0  0
   -1.1502    0.6393    2.5760 N   0  0  0  0  0  0  0  0  0  0  0  0
   -2.0581    0.8092    2.1736 H   0  0  0  0  0  0  0  0  0  0  0  0
   -0.9568    0.9369    3.9933 C   0  0  0  0  0  0  0  0  0  0  0  0
   -0.1600    1.6750    4.1097 H   0  0  0  0  0  0  0  0  0  0  0  0
   -1.8775    1.3307    4.4266 H   0  0  0  0  0  0  0  0  0  0  0  0
   -0.6678    0.0287    4.5244 H   0  0  0  0  0  0  0  0  0  0  0  0
  5  6  2  0  0  0  0
  5  7  1  0  0  0  0
  2  3  1  0  0  0  0
  2  4  1  0  0  0  0
  2  5  1  0  0  0  0
  1  2  1  0  0  0  0
 24 25  2  0  0  0  0
 24 26  1  0  0  0  0
 20 21  1  0  0  0  0
 20 22  1  0  0  0  0
 20 23  1  0  0  0  0
 16 17  1  0  0  0  0
 16 18  1  0  0  0  0
 16 19  1  0  0  0  0
 14 15  1  0  0  0  0
 14 16  1  0  0  0  0
 14 20  1  0  0  0  0
 11 12  1  0  0  0  0
 11 13  1  0  0  0  0
 11 14  1  0  0  0  0
  9 10  1  0  0  0  0
  9 11  1  0  0  0  0
  9 24  1  0  0  0  0
  7  8  1  0  0  0  0
  7  9  1  0  0  0  0
 28 29  1  0  0  0  0
 28 30  1  0  0  0  0
 28 31  1  0  0  0  0
 26 27  1  0  0  0  0
 26 28  1  0  0  0  0
M  END
$$$$
default_name
  -OEChem-02102213163D

 31 30  0     1  0  0  0  0  0999 V2000
   -3.5895   -3.5013    1.1082 H   0  0  0  0  0  0  0  0  0  0  0  0
   -3.5145   -2.5363    0.6082 C   0  0  0  0  0  0  0  0  0  0  0  0
   -4.2285   -1.8413    1.0452 H   0  0  0  0  0  0  0  0  0  0  0  0
   -3.7155   -2.6583   -0.4538 H   0  0  0  0  0  0  0  0  0  0  0  0
   -2.1155   -1.9963    0.7922 C   0  0  0  0  0  0  0  0  0  0  0  0
   -1.2875   -2.6383    1.4252 O   0  0  0  0  0  0  0  0  0  0  0  0
   -1.8575   -0.8123    0.2402 N   0  0  0  0  0  0  0  0  0  0  0  0
   -2.6005   -0.3333   -0.2478 H   0  0  0  0  0  0  0  0  0  0  0  0
   -0.5675   -0.1203    0.3102 C   0  0  1  0  0  0  0  0  0  0  0  0
    0.1932   -0.7715   -0.1219 H   0  0  0  0  0  0  0  0  0  0  0  0
   -0.6568    1.1713   -0.5294 C   0  0  0  0  0  0  0  0  0  0  0  0
    0.3557    1.5238   -0.7356 H   0  0  0  0  0  0  0  0  0  0  0  0
   -1.1207    0.9205   -1.4859 H   0  0  0  0  0  0  0  0  0  0  0  0
   -1.4551    2.3265    0.1021 C   0  0  0  0  0  0  0  0  0  0  0  0
   -2.4141    2.4318   -0.4052 H   0  0  0  0  0  0  0  0  0  0  0  0
   -1.7041    2.1091    1.5975 C   0  0  0  0  0  0  0  0  0  0  0  0
   -0.7531    1.9856    2.1173 H   0  0  0  0  0  0  0  0  0  0  0  0
   -2.2276    2.9711    2.0116 H   0  0  0  0  0  0  0  0  0  0  0  0
   -2.3156    1.2242    1.7604 H   0  0  0  0  0  0  0  0  0  0  0  0
   -0.6860    3.6367   -0.0633 C   0  0  0  0  0  0  0  0  0  0  0  0
   -0.5218    3.8342   -1.1226 H   0  0  0  0  0  0  0  0  0  0  0  0
   -1.2618    4.4604    0.3585 H   0  0  0  0  0  0  0  0  0  0  0  0
    0.2771    3.5736    0.4445 H   0  0  0  0  0  0  0  0  0  0  0  0
   -0.1913    0.1554    1.7759 C   0  0  0  0  0  0  0  0  0  0  0  0
    0.9476   -0.0766    2.1748 O   0  0  0  0  0  0  0  0  0  0  0  0
   -1.1502    0.6393    2.5760 N   0  0  0  0  0  0  0  0  0  0  0  0
   -2.0581    0.8092    2.1736 H   0  0  0  0  0  0  0  0  0  0  0  0
   -0.9568    0.9369    3.9933 C   0  0  0  0  0  0  0  0  0  0  0  0
   -0.1600    1.6750    4.1097 H   0  0  0  0  0  0  0  0  0  0  0  0
   -1.8775    1.3307    4.4266 H   0  0  0  0  0  0  0  0  0  0  0  0
   -0.6678    0.0287    4.5244 H   0  0  0  0  0  0  0  0  0  0  0  0
  5  6  2  0  0  0  0
  5  7  1  0  0  0  0
  2  3  1  0  0  0  0
  2  4  1  0  0  0  0
  2  5  1  0  0  0  0
  1  2  1  0  0  0  0
 24 25  2  0  0  0  0
 24 26  1  0  0  0  0
 20 21  1  0  0  0  0
 20 22  1  0  0  0  0
 20 23  1  0  0  0  0
 16 17  1  0  0  0  0
 16 18  1  0  0  0  0
 16 19  1  0  0  0  0
 14 15  1  0  0  0  0
 14 16  1  0  0  0  0
 14 20  1  0  0  0  0
 11 12  1  0  0  0  0
 11 13  1  0  0  0  0
 11 14  1  0  0  0  0
  9 10  1  0  0  0  0
  9 11  1  0  0  0  0
  9 24  1  0  0  0  0
  7  8  1  0  0  0  0
  7  9  1  0  0  0  0
 28 29  1  0  0  0  0
 28 30  1  0  0  0  0
 28 31  1  0  0  0  0
 26 27  1  0  0  0  0
 26 28  1  0  0  0  0
M  END
$$$$
default_name
  -OEChem-02102213163D

 31 30  0     1  0  0  0  0  0999 V2000
   -3.5895   -3.5013    1.1082 H   0  0  0  0  0  0  0  0  0  0  0  0
   -3.5145   -2.5363    0.6082 C   0  0  0  0  0  0  0  0  0  0  0  0
   -4.2285   -1.8413    1.0452 H   0  0  0  0  0  0  0  0  0  0  0  0
   -3.7155   -2.6583   -0.4538 H   0  0  0  0  0  0  0  0  0  0  0  0
   -2.1155   -1.9963    0.7922 C   0  0  0  0  0  0  0  0  0  0  0  0
   -1.2875   -2.6383    1.4252 O   0  0  0  0  0  0  0  0  0  0  0  0
   -1.8575   -0.8123    0.2402 N   0  0  0  0  0  0  0  0  0  0  0  0
   -2.6005   -0.3333   -0.2478 H   0  0  0  0  0  0  0  0  0  0  0  0
   -0.5675   -0.1203    0.3102 C   0  0  1  0  0  0  0  0  0  0  0  0
    0.1932   -0.7715   -0.1219 H   0  0  0  0  0  0  0  0  0  0  0  0
   -0.6568    1.1713   -0.5294 C   0  0  0  0  0  0  0  0  0  0  0  0
    0.3557    1.5238   -0.7356 H   0  0  0  0  0  0  0  0  0  0  0  0
   -1.1207    0.9205   -1.4859 H   0  0  0  0  0  0  0  0  0  0  0  0
   -1.4551    2.3265    0.1021 C   0  0  0  0  0  0  0  0  0  0  0  0
   -2.4976    2.2678   -0.2107 H   0  0  0  0  0  0  0  0  0  0  0  0
   -1.3924    2.3055    1.6321 C   0  0  0  0  0  0  0  0  0  0  0  0
   -0.3531    2.3475    1.9610 H   0  0  0  0  0  0  0  0  0  0  0  0
   -1.9283    3.1660    2.0334 H   0  0  0  0  0  0  0  0  0  0  0  0
   -1.8525    1.4006    2.0231 H   0  0  0  0  0  0  0  0  0  0  0  0
   -0.8925    3.6647   -0.3757 C   0  0  0  0  0  0  0  0  0  0  0  0
   -0.9540    3.7212   -1.4624 H   0  0  0  0  0  0  0  0  0  0  0  0
   -1.4735    4.4837    0.0483 H   0  0  0  0  0  0  0  0  0  0  0  0
    0.1490    3.7655   -0.0684 H   0  0  0  0  0  0  0  0  0  0  0  0
   -0.1913    0.1554    1.7759 C   0  0  0  0  0  0  0  0  0  0  0  0
    0.9476   -0.0766    2.1748 O   0  0  0  0  0  0  0  0  0  0  0  0
   -1.1502    0.6393    2.5760 N   0  0  0  0  0  0  0  0  0  0  0  0
   -2.0581    0.8092    2.1736 H   0  0  0  0  0  0  0  0  0  0  0  0
   -0.9568    0.9369    3.9933 C   0  0  0  0  0  0  0  0  0  0  0  0
   -0.1600    1.6750    4.1097 H   0  0  0  0  0  0  0  0  0  0  0  0
   -1.8775    1.3307    4.4266 H   0  0  0  0  0  0  0  0  0  0  0  0
   -0.6678    0.0287    4.5244 H   0  0  0  0  0  0  0  0  0  0  0  0
  5  6  2  0  0  0  0
  5  7  1  0  0  0  0
  2  3  1  0  0  0  0
  2  4  1  0  0  0  0
  2  5  1  0  0  0  0
  1  2  1  0  0  0  0
 24 25  2  0  0  0  0
 24 26  1  0  0  0  0
 20 21  1  0  0  0  0
 20 22  1  0  0  0  0
 20 23  1  0  0  0  0
 16 17  1  0  0  0  0
 16 18  1  0  0  0  0
 16 19  1  0  0  0  0
 14 15  1  0  0  0  0
 14 16  1  0  0  0  0
 14 20  1  0  0  0  0
 11 12  1  0  0  0  0
 11 13  1  0  0  0  0
 11 14  1  0  0  0  0
  9 10  1  0  0  0  0
  9 11  1  0  0  0  0
  9 24  1  0  0  0  0
  7  8  1  0  0  0  0
  7  9  1  0  0  0  0
 28 29  1  0  0  0  0
 28 30  1  0  0  0  0
 28 31  1  0  0  0  0
 26 27  1  0  0  0  0
 26 28  1  0  0  0  0
M  END
$$$$
default_name
  -OEChem-02102213163D

 31 30  0     1  0  0  0  0  0999 V2000
   -3.5895   -3.5013    1.1082 H   0  0  0  0  0  0  0  0  0  0  0  0
   -3.5145   -2.5363    0.6082 C   0  0  0  0  0  0  0  0  0  0  0  0
   -4.2285   -1.8413    1.0452 H   0  0  0  0  0  0  0  0  0  0  0  0
   -3.7155   -2.6583   -0.4538 H   0  0  0  0  0  0  0  0  0  0  0  0
   -2.1155   -1.9963    0.7922 C   0  0  0  0  0  0  0  0  0  0  0  0
   -1.2875   -2.6383    1.4252 O   0  0  0  0  0  0  0  0  0  0  0  0
   -1.8575   -0.8123    0.2402 N   0  0  0  0  0  0  0  0  0  0  0  0
   -2.6005   -0.3333   -0.2478 H   0  0  0  0  0  0  0  0  0  0  0  0
   -0.5675   -0.1203    0.3102 C   0  0  1  0  0  0  0  0  0  0  0  0
    0.1932   -0.7715   -0.1219 H   0  0  0  0  0  0  0  0  0  0  0  0
   -0.6568    1.1713   -0.5294 C   0  0  0  0  0  0  0  0  0  0  0  0
    0.3557    1.5238   -0.7356 H   0  0  0  0  0  0  0  0  0  0  0  0
   -1.1207    0.9205   -1.4859 H   0  0  0  0  0  0  0  0  0  0  0  0
   -1.4551    2.3265    0.1021 C   0  0  0  0  0  0  0  0  0  0  0  0
   -2.5231    2.1265    0.0154 H   0  0  0  0  0  0  0  0  0  0  0  0
   -1.1055    2.5330    1.5787 C   0  0  0  0  0  0  0  0  0  0  0  0
   -0.0356    2.7185    1.6837 H   0  0  0  0  0  0  0  0  0  0  0  0
   -1.6558    3.3890    1.9701 H   0  0  0  0  0  0  0  0  0  0  0  0
   -1.3730    1.6554    2.1633 H   0  0  0  0  0  0  0  0  0  0  0  0
   -1.1556    3.6279   -0.6410 C   0  0  0  0  0  0  0  0  0  0  0  0
   -1.4255    3.5207   -1.6915 H   0  0  0  0  0  0  0  0  0  0  0  0
   -1.7407    4.4421   -0.2134 H   0  0  0  0  0  0  0  0  0  0  0  0
   -0.0947    3.8684   -0.5647 H   0  0  0  0  0  0  0  0  0  0  0  0
   -0.1913    0.1554    1.7759 C   0  0  0  0  0  0  0  0  0  0  0  0
    0.9476   -0.0766    2.1748 O   0  0  0  0  0  0  0  0  0  0  0  0
   -1.1502    0.6393    2.5760 N   0  0  0  0  0  0  0  0  0  0  0  0
   -2.0581    0.8092    2.1736 H   0  0  0  0  0  0  0  0  0  0  0  0
   -0.9568    0.9369    3.9933 C   0  0  0  0  0  0  0  0  0  0  0  0
   -0.1600    1.6750    4.1097 H   0  0  0  0  0  0  0  0  0  0  0  0
   -1.8775    1.3307    4.4266 H   0  0  0  0  0  0  0  0  0  0  0  0
   -0.6678    0.0287    4.5244 H   0  0  0  0  0  0  0  0  0  0  0  0
  5  6  2  0  0  0  0
  5  7  1  0  0  0  0
  2  3  1  0  0  0  0
  2  4  1  0  0  0  0
  2  5  1  0  0  0  0
  1  2  1  0  0  0  0
 24 25  2  0  0  0  0
 24 26  1  0  0  0  0
 20 21  1  0  0  0  0
 20 22  1  0  0  0  0
 20 23  1  0  0  0  0
 16 17  1  0  0  0  0
 16 18  1  0  0  0  0
 16 19  1  0  0  0  0
 14 15  1  0  0  0  0
 14 16  1  0  0  0  0
 14 20  1  0  0  0  0
 11 12  1  0  0  0  0
 11 13  1  0  0  0  0
 11 14  1  0  0  0  0
  9 10  1  0  0  0  0
  9 11  1  0  0  0  0
  9 24  1  0  0  0  0
  7  8  1  0  0  0  0
  7  9  1  0  0  0  0
 28 29  1  0  0  0  0
 28 30  1  0  0  0  0
 28 31  1  0  0  0  0
 26 27  1  0  0  0  0
 26 28  1  0  0  0  0
M  END
$$$$
default_name
  -OEChem-02102213163D

 31 30  0     1  0  0  0  0  0999 V2000
   -3.5895   -3.5013    1.1082 H   0  0  0  0  0  0  0  0  0  0  0  0
   -3.5145   -2.5363    0.6082 C   0  0  0  0  0  0  0  0  0  0  0  0
   -4.2285   -1.8413    1.0452 H   0  0  0  0  0  0  0  0  0  0  0  0
   -3.7155   -2.6583   -0.4538 H   0  0  0  0  0  0  0  0  0  0  0  0
   -2.1155   -1.9963    0.7922 C   0  0  0  0  0  0  0  0  0  0  0  0
   -1.2875   -2.6383    1.4252 O   0  0  0  0  0  0  0  0  0  0  0  0
   -1.8575   -0.8123    0.2402 N   0  0  0  0  0  0  0  0  0  0  0  0
   -2.6005   -0.3333   -0.2478 H   0  0  0  0  0  0  0  0  0  0  0  0
   -0.5675   -0.1203    0.3102 C   0  0  1  0  0  0  0  0  0  0  0  0
    0.1932   -0.7715   -0.1219 H   0  0  0  0  0  0  0  0  0  0  0  0
   -0.6568    1.1713   -0.5294 C   0  0  0  0  0  0  0  0  0  0  0  0
    0.3557    1.5238   -0.7356 H   0  0  0  0  0  0  0  0  0  0  0  0
   -1.1207    0.9205   -1.4859 H   0  0  0  0  0  0  0  0  0  0  0  0
   -1.4551    2.3265    0.1021 C   0  0  0  0  0  0  0  0  0  0  0  0
   -2.4888    2.0177    0.2577 H   0  0  0  0  0  0  0  0  0  0  0  0
   -0.8628    2.7761    1.4409 C   0  0  0  0  0  0  0  0  0  0  0  0
    0.1779    3.0734    1.3045 H   0  0  0  0  0  0  0  0  0  0  0  0
   -1.4285    3.6248    1.8262 H   0  0  0  0  0  0  0  0  0  0  0  0
   -0.9096    1.9713    2.1713 H   0  0  0  0  0  0  0  0  0  0  0  0
   -1.4574    3.5288   -0.8412 C   0  0  0  0  0  0  0  0  0  0  0  0
   -1.9041    3.2461   -1.7944 H   0  0  0  0  0  0  0  0  0  0  0  0
   -2.0452    4.3384   -0.4086 H   0  0  0  0  0  0  0  0  0  0  0  0
   -0.4373    3.8754   -1.0106 H   0  0  0  0  0  0  0  0  0  0  0  0
   -0.1913    0.1554    1.7759 C   0  0  0  0  0  0  0  0  0  0  0  0
    0.9476   -0.0766    2.1748 O   0  0  0  0  0  0  0  0  0  0  0  0
   -1.1502    0.6393    2.5760 N   0  0  0  0  0  0  0  0  0  0  0  0
   -2.0581    0.8092    2.1736 H   0  0  0  0  0  0  0  0  0  0  0  0
   -0.9568    0.9369    3.9933 C   0  0  0  0  0  0  0  0  0  0  0  0
   -0.1600    1.6750    4.1097 H   0  0  0  0  0  0  0  0  0  0  0  0
   -1.8775    1.3307    4.4266 H   0  0  0  0  0  0  0  0  0  0  0  0
   -0.6678    0.0287    4.5244 H   0  0  0  0  0  0  0  0  0  0  0  0
  5  6  2  0  0  0  0
  5  7  1  0  0  0  0
  2  3  1  0  0  0  0
  2  4  1  0  0  0  0
  2  5  1  0  0  0  0
  1  2  1  0  0  0  0
 24 25  2  0  0  0  0
 24 26  1  0  0  0  0
 20 21  1  0  0  0  0
 20 22  1  0  0  0  0
 20 23  1  0  0  0  0
 16 17  1  0  0  0  0
 16 18  1  0  0  0  0
 16 19  1  0  0  0  0
 14 15  1  0  0  0  0
 14 16  1  0  0  0  0
 14 20  1  0  0  0  0
 11 12  1  0  0  0  0
 11 13  1  0  0  0  0
 11 14  1  0  0  0  0
  9 10  1  0  0  0  0
  9 11  1  0  0  0  0
  9 24  1  0  0  0  0
  7  8  1  0  0  0  0
  7  9  1  0  0  0  0
 28 29  1  0  0  0  0
 28 30  1  0  0  0  0
 28 31  1  0  0  0  0
 26 27  1  0  0  0  0
 26 28  1  0  0  0  0
M  END
$$$$
default_name
  -OEChem-02102213163D

 31 30  0     1  0  0  0  0  0999 V2000
   -3.5895   -3.5013    1.1082 H   0  0  0  0  0  0  0  0  0  0  0  0
   -3.5145   -2.5363    0.6082 C   0  0  0  0  0  0  0  0  0  0  0  0
   -4.2285   -1.8413    1.0452 H   0  0  0  0  0  0  0  0  0  0  0  0
   -3.7155   -2.6583   -0.4538 H   0  0  0  0  0  0  0  0  0  0  0  0
   -2.1155   -1.9963    0.7922 C   0  0  0  0  0  0  0  0  0  0  0  0
   -1.2875   -2.6383    1.4252 O   0  0  0  0  0  0  0  0  0  0  0  0
   -1.8575   -0.8123    0.2402 N   0  0  0  0  0  0  0  0  0  0  0  0
   -2.6005   -0.3333   -0.2478 H   0  0  0  0  0  0  0  0  0  0  0  0
   -0.5675   -0.1203    0.3102 C   0  0  1  0  0  0  0  0  0  0  0  0
    0.1932   -0.7715   -0.1219 H   0  0  0  0  0  0  0  0  0  0  0  0
   -0.6568    1.1713   -0.5294 C   0  0  0  0  0  0  0  0  0  0  0  0
    0.3557    1.5238   -0.7356 H   0  0  0  0  0  0  0  0  0  0  0  0
   -1.1207    0.9205   -1.4859 H   0  0  0  0  0  0  0  0  0  0  0  0
   -1.4551    2.3265    0.1021 C   0  0  0  0  0  0  0  0  0  0  0  0
   -2.3971    1.9488    0.4997 H   0  0  0  0  0  0  0  0  0  0  0  0
   -0.6810    3.0181    1.2280 C   0  0  0  0  0  0  0  0  0  0  0  0
    0.2727    3.3879    0.8491 H   0  0  0  0  0  0  0  0  0  0  0  0
   -1.2619    3.8573    1.6113 H   0  0  0  0  0  0  0  0  0  0  0  0
   -0.4939    2.3266    2.0467 H   0  0  0  0  0  0  0  0  0  0  0  0
   -1.7773    3.3742   -0.9628 C   0  0  0  0  0  0  0  0  0  0  0  0
   -2.3573    2.9163   -1.7640 H   0  0  0  0  0  0  0  0  0  0  0  0
   -2.3662    4.1797   -0.5242 H   0  0  0  0  0  0  0  0  0  0  0  0
   -0.8557    3.7859   -1.3756 H   0  0  0  0  0  0  0  0  0  0  0  0
   -0.1913    0.1554    1.7759 C   0  0  0  0  0  0  0  0  0  0  0  0
    0.9476   -0.0766    2.1748 O   0  0  0  0  0  0  0  0  0  0  0  0
   -1.1502    0.6393    2.5760 N   0  0  0  0  0  0  0  0  0  0  0  0
   -2.0581    0.8092    2.1736 H   0  0  0  0  0  0  0  0  0  0  0  0
   -0.9568    0.9369    3.9933 C   0  0  0  0  0  0  0  0  0  0  0  0
   -0.1600    1.6750    4.1097 H   0  0  0  0  0  0  0  0  0  0  0  0
   -1.8775    1.3307    4.4266 H   0  0  0  0  0  0  0  0  0  0  0  0
   -0.6678    0.0287    4.5244 H   0  0  0  0  0  0  0  0  0  0  0  0
  5  6  2  0  0  0  0
  5  7  1  0  0  0  0
  2  3  1  0  0  0  0
  2  4  1  0  0  0  0
  2  5  1  0  0  0  0
  1  2  1  0  0  0  0
 24 25  2  0  0  0  0
 24 26  1  0  0  0  0
 20 21  1  0  0  0  0
 20 22  1  0  0  0  0
 20 23  1  0  0  0  0
 16 17  1  0  0  0  0
 16 18  1  0  0  0  0
 16 19  1  0  0  0  0
 14 15  1  0  0  0  0
 14 16  1  0  0  0  0
 14 20  1  0  0  0  0
 11 12  1  0  0  0  0
 11 13  1  0  0  0  0
 11 14  1  0  0  0  0
  9 10  1  0  0  0  0
  9 11  1  0  0  0  0
  9 24  1  0  0  0  0
  7  8  1  0  0  0  0
  7  9  1  0  0  0  0
 28 29  1  0  0  0  0
 28 30  1  0  0  0  0
 28 31  1  0  0  0  0
 26 27  1  0  0  0  0
 26 28  1  0  0  0  0
M  END
$$$$
default_name
  -OEChem-02102213163D

 31 30  0     1  0  0  0  0  0999 V2000
   -3.5895   -3.5013    1.1082 H   0  0  0  0  0  0  0  0  0  0  0  0
   -3.5145   -2.5363    0.6082 C   0  0  0  0  0  0  0  0  0  0  0  0
   -4.2285   -1.8413    1.0452 H   0  0  0  0  0  0  0  0  0  0  0  0
   -3.7155   -2.6583   -0.4538 H   0  0  0  0  0  0  0  0  0  0  0  0
   -2.1155   -1.9963    0.7922 C   0  0  0  0  0  0  0  0  0  0  0  0
   -1.2875   -2.6383    1.4252 O   0  0  0  0  0  0  0  0  0  0  0  0
   -1.8575   -0.8123    0.2402 N   0  0  0  0  0  0  0  0  0  0  0  0
   -2.6005   -0.3333   -0.2478 H   0  0  0  0  0  0  0  0  0  0  0  0
   -0.5675   -0.1203    0.3102 C   0  0  1  0  0  0  0  0  0  0  0  0
    0.1932   -0.7715   -0.1219 H   0  0  0  0  0  0  0  0  0  0  0  0
   -0.6568    1.1713   -0.5294 C   0  0  0  0  0  0  0  0  0  0  0  0
    0.3557    1.5238   -0.7356 H   0  0  0  0  0  0  0  0  0  0  0  0
   -1.1207    0.9205   -1.4859 H   0  0  0  0  0  0  0  0  0  0  0  0
   -1.4551    2.3265    0.1021 C   0  0  0  0  0  0  0  0  0  0  0  0
   -2.2542    1.9244    0.7249 H   0  0  0  0  0  0  0  0  0  0  0  0
   -0.5724    3.2426    0.9546 C   0  0  0  0  0  0  0  0  0  0  0  0
    0.2426    3.6407    0.3485 H   0  0  0  0  0  0  0  0  0  0  0  0
   -1.1674    4.0709    1.3402 H   0  0  0  0  0  0  0  0  0  0  0  0
   -0.1544    2.6973    1.7980 H   0  0  0  0  0  0  0  0  0  0  0  0
   -2.0934    3.1746   -0.9973 C   0  0  0  0  0  0  0  0  0  0  0  0
   -2.7541    2.5537   -1.6023 H   0  0  0  0  0  0  0  0  0  0  0  0
   -2.6819    3.9768   -0.5521 H   0  0  0  0  0  0  0  0  0  0  0  0
   -1.3211    3.6060   -1.6351 H   0  0  0  0  0  0  0  0  0  0  0  0
   -0.1913    0.1554    1.7759 C   0  0  0  0  0  0  0  0  0  0  0  0
    0.9476   -0.0766    2.1748 O   0  0  0  0  0  0  0  0  0  0  0  0
   -1.1502    0.6393    2.5760 N   0  0  0  0  0  0  0  0  0  0  0  0
   -2.0581    0.8092    2.1736 H   0  0  0  0  0  0  0  0  0  0  0  0
   -0.9568    0.9369    3.9933 C   0  0  0  0  0  0  0  0  0  0  0  0
   -0.1600    1.6750    4.1097 H   0  0  0  0  0  0  0  0  0  0  0  0
   -1.8775    1.3307    4.4266 H   0  0  0  0  0  0  0  0  0  0  0  0
   -0.6678    0.0287    4.5244 H   0  0  0  0  0  0  0  0  0  0  0  0
  5  6  2  0  0  0  0
  5  7  1  0  0  0  0
  2  3  1  0  0  0  0
  2  4  1  0  0  0  0
  2  5  1  0  0  0  0
  1  2  1  0  0  0  0
 24 25  2  0  0  0  0
 24 26  1  0  0  0  0
 20 21  1  0  0  0  0
 20 22  1  0  0  0  0
 20 23  1  0  0  0  0
 16 17  1  0  0  0  0
 16 18  1  0  0  0  0
 16 19  1  0  0  0  0
 14 15  1  0  0  0  0
 14 16  1  0  0  0  0
 14 20  1  0  0  0  0
 11 12  1  0  0  0  0
 11 13  1  0  0  0  0
 11 14  1  0  0  0  0
  9 10  1  0  0  0  0
  9 11  1  0  0  0  0
  9 24  1  0  0  0  0
  7  8  1  0  0  0  0
  7  9  1  0  0  0  0
 28 29  1  0  0  0  0
 28 30  1  0  0  0  0
 28 31  1  0  0  0  0
 26 27  1  0  0  0  0
 26 28  1  0  0  0  0
M  END
$$$$
default_name
  -OEChem-02102213163D

 31 30  0     1  0  0  0  0  0999 V2000
   -3.5895   -3.5013    1.1082 H   0  0  0  0  0  0  0  0  0  0  0  0
   -3.5145   -2.5363    0.6082 C   0  0  0  0  0  0  0  0  0  0  0  0
   -4.2285   -1.8413    1.0452 H   0  0  0  0  0  0  0  0  0  0  0  0
   -3.7155   -2.6583   -0.4538 H   0  0  0  0  0  0  0  0  0  0  0  0
   -2.1155   -1.9963    0.7922 C   0  0  0  0  0  0  0  0  0  0  0  0
   -1.2875   -2.6383    1.4252 O   0  0  0  0  0  0  0  0  0  0  0  0
   -1.8575   -0.8123    0.2402 N   0  0  0  0  0  0  0  0  0  0  0  0
   -2.6005   -0.3333   -0.2478 H   0  0  0  0  0  0  0  0  0  0  0  0
   -0.5675   -0.1203    0.3102 C   0  0  1  0  0  0  0  0  0  0  0  0
    0.1932   -0.7715   -0.1219 H   0  0  0  0  0  0  0  0  0  0  0  0
   -0.6568    1.1713   -0.5294 C   0  0  0  0  0  0  0  0  0  0  0  0
    0.3557    1.5238   -0.7356 H   0  0  0  0  0  0  0  0  0  0  0  0
   -1.1207    0.9205   -1.4859 H   0  0  0  0  0  0  0  0  0  0  0  0
   -1.4551    2.3265    0.1021 C   0  0  0  0  0  0  0  0  0  0  0  0
   -2.0699    1.9463    0.9180 H   0  0  0  0  0  0  0  0  0  0  0  0
   -0.5444    3.4344    0.6393 C   0  0  0  0  0  0  0  0  0  0  0  0
    0.0894    3.8145   -0.1630 H   0  0  0  0  0  0  0  0  0  0  0  0
   -1.1514    4.2507    1.0314 H   0  0  0  0  0  0  0  0  0  0  0  0
    0.0860    3.0580    1.4421 H   0  0  0  0  0  0  0  0  0  0  0  0
   -2.3843    2.9436   -0.9425 C   0  0  0  0  0  0  0  0  0  0  0  0
   -3.0675    2.1830   -1.3205 H   0  0  0  0  0  0  0  0  0  0  0  0
   -2.9707    3.7436   -0.4907 H   0  0  0  0  0  0  0  0  0  0  0  0
   -1.8020    3.3480   -1.7711 H   0  0  0  0  0  0  0  0  0  0  0  0
   -0.1913    0.1554    1.7759 C   0  0  0  0  0  0  0  0  0  0  0  0
    0.9476   -0.0766    2.1748 O   0  0  0  0  0  0  0  0  0  0  0  0
   -1.1502    0.6393    2.5760 N   0  0  0  0  0  0  0  0  0  0  0  0
   -2.0581    0.8092    2.1736 H   0  0  0  0  0  0  0  0  0  0  0  0
   -0.9568    0.9369    3.9933 C   0  0  0  0  0  0  0  0  0  0  0  0
   -0.1600    1.6750    4.1097 H   0  0  0  0  0  0  0  0  0  0  0  0
   -1.8775    1.3307    4.4266 H   0  0  0  0  0  0  0  0  0  0  0  0
   -0.6678    0.0287    4.5244 H   0  0  0  0  0  0  0  0  0  0  0  0
  5  6  2  0  0  0  0
  5  7  1  0  0  0  0
  2  3  1  0  0  0  0
  2  4  1  0  0  0  0
  2  5  1  0  0  0  0
  1  2  1  0  0  0  0
 24 25  2  0  0  0  0
 24 26  1  0  0  0  0
 20 21  1  0  0  0  0
 20 22  1  0  0  0  0
 20 23  1  0  0  0  0
 16 17  1  0  0  0  0
 16 18  1  0  0  0  0
 16 19  1  0  0  0  0
 14 15  1  0  0  0  0
 14 16  1  0  0  0  0
 14 20  1  0  0  0  0
 11 12  1  0  0  0  0
 11 13  1  0  0  0  0
 11 14  1  0  0  0  0
  9 10  1  0  0  0  0
  9 11  1  0  0  0  0
  9 24  1  0  0  0  0
  7  8  1  0  0  0  0
  7  9  1  0  0  0  0
 28 29  1  0  0  0  0
 28 30  1  0  0  0  0
 28 31  1  0  0  0  0
 26 27  1  0  0  0  0
 26 28  1  0  0  0  0
M  END
$$$$
default_name
  -OEChem-02102213163D

 31 30  0     1  0  0  0  0  0999 V2000
   -3.5895   -3.5013    1.1082 H   0  0  0  0  0  0  0  0  0  0  0  0
   -3.5145   -2.5363    0.6082 C   0  0  0  0  0  0  0  0  0  0  0  0
   -4.2285   -1.8413    1.0452 H   0  0  0  0  0  0  0  0  0  0  0  0
   -3.7155   -2.6583   -0.4538 H   0  0  0  0  0  0  0  0  0  0  0  0
   -2.1155   -1.9963    0.7922 C   0  0  0  0  0  0  0  0  0  0  0  0
   -1.2875   -2.6383    1.4252 O   0  0  0  0  0  0  0  0  0  0  0  0
   -1.8575   -0.8123    0.2402 N   0  0  0  0  0  0  0  0  0  0  0  0
   -2.6005   -0.3333   -0.2478 H   0  0  0  0  0  0  0  0  0  0  0  0
   -0.5675   -0.1203    0.3102 C   0  0  1  0  0  0  0  0  0  0  0  0
    0.1932   -0.7715   -0.1219 H   0  0  0  0  0  0  0  0  0  0  0  0
   -0.6568    1.1713   -0.5294 C   0  0  0  0  0  0  0  0  0  0  0  0
    0.3557    1.5238   -0.7356 H   0  0  0  0  0  0  0  0  0  0  0  0
   -1.1207    0.9205   -1.4859 H   0  0  0  0  0  0  0  0  0  0  0  0
   -1.4551    2.3265    0.1021 C   0  0  0  0  0  0  0  0  0  0  0  0
   -1.8566    2.0129    1.0657 H   0  0  0  0  0  0  0  0  0  0  0  0
   -0.5990    3.5802    0.3036 C   0  0  0  0  0  0  0  0  0  0  0  0
   -0.1763    3.8975   -0.6507 H   0  0  0  0  0  0  0  0  0  0  0  0
   -1.2150    4.3847    0.7058 H   0  0  0  0  0  0  0  0  0  0  0  0
    0.2107    3.3841    1.0032 H   0  0  0  0  0  0  0  0  0  0  0  0
   -2.6301    2.6969   -0.8020 C   0  0  0  0  0  0  0  0  0  0  0  0
   -3.2761    1.8295   -0.9376 H   0  0  0  0  0  0  0  0  0  0  0  0
   -3.2130    3.4959   -0.3439 H   0  0  0  0  0  0  0  0  0  0  0  0
   -2.2655    3.0296   -1.7745 H   0  0  0  0  0  0  0  0  0  0  0  0
   -0.1913    0.1554    1.7759 C   0  0  0  0  0  0  0  0  0  0  0  0
    0.9476   -0.0766    2.1748 O   0  0  0  0  0  0  0  0  0  0  0  0
   -1.1502    0.6393    2.5760 N   0  0  0  0  0  0  0  0  0  0  0  0
   -2.0581    0.8092    2.1736 H   0  0  0  0  0  0  0  0  0  0  0  0
   -0.9568    0.9369    3.9933 C   0  0  0  0  0  0  0  0  0  0  0  0
   -0.1600    1.6750    4.1097 H   0  0  0  0  0  0  0  0  0  0  0  0
   -1.8775    1.3307    4.4266 H   0  0  0  0  0  0  0  0  0  0  0  0
   -0.6678    0.0287    4.5244 H   0  0  0  0  0  0  0  0  0  0  0  0
  5  6  2  0  0  0  0
  5  7  1  0  0  0  0
  2  3  1  0  0  0  0
  2  4  1  0  0  0  0
  2  5  1  0  0  0  0
  1  2  1  0  0  0  0
 24 25  2  0  0  0  0
 24 26  1  0  0  0  0
 20 21  1  0  0  0  0
 20 22  1  0  0  0  0
 20 23  1  0  0  0  0
 16 17  1  0  0  0  0
 16 18  1  0  0  0  0
 16 19  1  0  0  0  0
 14 15  1  0  0  0  0
 14 16  1  0  0  0  0
 14 20  1  0  0  0  0
 11 12  1  0  0  0  0
 11 13  1  0  0  0  0
 11 14  1  0  0  0  0
  9 10  1  0  0  0  0
  9 11  1  0  0  0  0
  9 24  1  0  0  0  0
  7  8  1  0  0  0  0
  7  9  1  0  0  0  0
 28 29  1  0  0  0  0
 28 30  1  0  0  0  0
 28 31  1  0  0  0  0
 26 27  1  0  0  0  0
 26 28  1  0  0  0  0
M  END
$$$$
default_name
  -OEChem-02102213163D

 31 30  0     1  0  0  0  0  0999 V2000
   -3.5895   -3.5013    1.1082 H   0  0  0  0  0  0  0  0  0  0  0  0
   -3.5145   -2.5363    0.6082 C   0  0  0  0  0  0  0  0  0  0  0  0
   -4.2285   -1.8413    1.0452 H   0  0  0  0  0  0  0  0  0  0  0  0
   -3.7155   -2.6583   -0.4538 H   0  0  0  0  0  0  0  0  0  0  0  0
   -2.1155   -1.9963    0.7922 C   0  0  0  0  0  0  0  0  0  0  0  0
   -1.2875   -2.6383    1.4252 O   0  0  0  0  0  0  0  0  0  0  0  0
   -1.8575   -0.8123    0.2402 N   0  0  0  0  0  0  0  0  0  0  0  0
   -2.6005   -0.3333   -0.2478 H   0  0  0  0  0  0  0  0  0  0  0  0
   -0.5675   -0.1203    0.3102 C   0  0  1  0  0  0  0  0  0  0  0  0
    0.1932   -0.7715   -0.1219 H   0  0  0  0  0  0  0  0  0  0  0  0
   -0.6568    1.1713   -0.5294 C   0  0  0  0  0  0  0  0  0  0  0  0
    0.3557    1.5238   -0.7356 H   0  0  0  0  0  0  0  0  0  0  0  0
   -1.1207    0.9205   -1.4859 H   0  0  0  0  0  0  0  0  0  0  0  0
   -1.4551    2.3265    0.1021 C   0  0  0  0  0  0  0  0  0  0  0  0
   -1.6290    2.1197    1.1581 H   0  0  0  0  0  0  0  0  0  0  0  0
   -0.7324    3.6702   -0.0297 C   0  0  0  0  0  0  0  0  0  0  0  0
   -0.5365    3.8840   -1.0813 H   0  0  0  0  0  0  0  0  0  0  0  0
   -1.3540    4.4637    0.3857 H   0  0  0  0  0  0  0  0  0  0  0  0
    0.2114    3.6535    0.5112 H   0  0  0  0  0  0  0  0  0  0  0  0
   -2.8141    2.4514   -0.5856 C   0  0  0  0  0  0  0  0  0  0  0  0
   -3.3658    1.5173   -0.4798 H   0  0  0  0  0  0  0  0  0  0  0  0
   -3.3922    3.2506   -0.1218 H   0  0  0  0  0  0  0  0  0  0  0  0
   -2.6801    2.6723   -1.6451 H   0  0  0  0  0  0  0  0  0  0  0  0
   -0.1913    0.1554    1.7759 C   0  0  0  0  0  0  0  0  0  0  0  0
    0.9476   -0.0766    2.1748 O   0  0  0  0  0  0  0  0  0  0  0  0
   -1.1502    0.6393    2.5760 N   0  0  0  0  0  0  0  0  0  0  0  0
   -2.0581    0.8092    2.1736 H   0  0  0  0  0  0  0  0  0  0  0  0
   -0.9568    0.9369    3.9933 C   0  0  0  0  0  0  0  0  0  0  0  0
   -0.1600    1.6750    4.1097 H   0  0  0  0  0  0  0  0  0  0  0  0
   -1.8775    1.3307    4.4266 H   0  0  0  0  0  0  0  0  0  0  0  0
   -0.6678    0.0287    4.5244 H   0  0  0  0  0  0  0  0  0  0  0  0
  5  6  2  0  0  0  0
  5  7  1  0  0  0  0
  2  3  1  0  0  0  0
  2  4  1  0  0  0  0
  2  5  1  0  0  0  0
  1  2  1  0  0  0  0
 24 25  2  0  0  0  0
 24 26  1  0  0  0  0
 20 21  1  0  0  0  0
 20 22  1  0  0  0  0
 20 23  1  0  0  0  0
 16 17  1  0  0  0  0
 16 18  1  0  0  0  0
 16 19  1  0  0  0  0
 14 15  1  0  0  0  0
 14 16  1  0  0  0  0
 14 20  1  0  0  0  0
 11 12  1  0  0  0  0
 11 13  1  0  0  0  0
 11 14  1  0  0  0  0
  9 10  1  0  0  0  0
  9 11  1  0  0  0  0
  9 24  1  0  0  0  0
  7  8  1  0  0  0  0
  7  9  1  0  0  0  0
 28 29  1  0  0  0  0
 28 30  1  0  0  0  0
 28 31  1  0  0  0  0
 26 27  1  0  0  0  0
 26 28  1  0  0  0  0
M  END
$$$$
default_name
  -OEChem-02102213163D

 31 30  0     1  0  0  0  0  0999 V2000
   -3.5895   -3.5013    1.1082 H   0  0  0  0  0  0  0  0  0  0  0  0
   -3.5145   -2.5363    0.6082 C   0  0  0  0  0  0  0  0  0  0  0  0
   -4.2285   -1.8413    1.0452 H   0  0  0  0  0  0  0  0  0  0  0  0
   -3.7155   -2.6583   -0.4538 H   0  0  0  0  0  0  0  0  0  0  0  0
   -2.1155   -1.9963    0.7922 C   0  0  0  0  0  0  0  0  0  0  0  0
   -1.2875   -2.6383    1.4252 O   0  0  0  0  0  0  0  0  0  0  0  0
   -1.8575   -0.8123    0.2402 N   0  0  0  0  0  0  0  0  0  0  0  0
   -2.6005   -0.3333   -0.2478 H   0  0  0  0  0  0  0  0  0  0  0  0
   -0.5675   -0.1203    0.3102 C   0  0  1  0  0  0  0  0  0  0  0  0
    0.1932   -0.7715   -0.1219 H   0  0  0  0  0  0  0  0  0  0  0  0
   -0.6568    1.1713   -0.5294 C   0  0  0  0  0  0  0  0  0  0  0  0
    0.3557    1.5238   -0.7356 H   0  0  0  0  0  0  0  0  0  0  0  0
   -1.1207    0.9205   -1.4859 H   0  0  0  0  0  0  0  0  0  0  0  0
   -1.4551    2.3265    0.1021 C   0  0  0  0  0  0  0  0  0  0  0  0
   -1.4026    2.2594    1.1888 H   0  0  0  0  0  0  0  0  0  0  0  0
   -0.9355    3.6983   -0.3378 C   0  0  0  0  0  0  0  0  0  0  0  0
   -0.9666    3.7749   -1.4255 H   0  0  0  0  0  0  0  0  0  0  0  0
   -1.5587    4.4823    0.0929 H   0  0  0  0  0  0  0  0  0  0  0  0
    0.0878    3.8478   -0.0002 H   0  0  0  0  0  0  0  0  0  0  0  0
   -2.9237    2.2238   -0.3078 C   0  0  0  0  0  0  0  0  0  0  0  0
   -3.3303    1.2676    0.0216 H   0  0  0  0  0  0  0  0  0  0  0  0
   -3.4962    3.0245    0.1604 H   0  0  0  0  0  0  0  0  0  0  0  0
   -3.0175    2.3005   -1.3916 H   0  0  0  0  0  0  0  0  0  0  0  0
   -0.1913    0.1554    1.7759 C   0  0  0  0  0  0  0  0  0  0  0  0
    0.9476   -0.0766    2.1748 O   0  0  0  0  0  0  0  0  0  0  0  0
   -1.1502    0.6393    2.5760 N   0  0  0  0  0  0  0  0  0  0  0  0
   -2.0581    0.8092    2.1736 H   0  0  0  0  0  0  0  0  0  0  0  0
   -0.9568    0.9369    3.9933 C   0  0  0  0  0  0  0  0  0  0  0  0
   -0.1600    1.6750    4.1097 H   0  0  0  0  0  0  0  0  0  0  0  0
   -1.8775    1.3307    4.4266 H   0  0  0  0  0  0  0  0  0  0  0  0
   -0.6678    0.0287    4.5244 H   0  0  0  0  0  0  0  0  0  0  0  0
  5  6  2  0  0  0  0
  5  7  1  0  0  0  0
  2  3  1  0  0  0  0
  2  4  1  0  0  0  0
  2  5  1  0  0  0  0
  1  2  1  0  0  0  0
 24 25  2  0  0  0  0
 24 26  1  0  0  0  0
 20 21  1  0  0  0  0
 20 22  1  0  0  0  0
 20 23  1  0  0  0  0
 16 17  1  0  0  0  0
 16 18  1  0  0  0  0
 16 19  1  0  0  0  0
 14 15  1  0  0  0  0
 14 16  1  0  0  0  0
 14 20  1  0  0  0  0
 11 12  1  0  0  0  0
 11 13  1  0  0  0  0
 11 14  1  0  0  0  0
  9 10  1  0  0  0  0
  9 11  1  0  0  0  0
  9 24  1  0  0  0  0
  7  8  1  0  0  0  0
  7  9  1  0  0  0  0
 28 29  1  0  0  0  0
 28 30  1  0  0  0  0
 28 31  1  0  0  0  0
 26 27  1  0  0  0  0
 26 28  1  0  0  0  0
M  END
$$$$
default_name
  -OEChem-02102213163D

 31 30  0     1  0  0  0  0  0999 V2000
   -3.5895   -3.5013    1.1082 H   0  0  0  0  0  0  0  0  0  0  0  0
   -3.5145   -2.5363    0.6082 C   0  0  0  0  0  0  0  0  0  0  0  0
   -4.2285   -1.8413    1.0452 H   0  0  0  0  0  0  0  0  0  0  0  0
   -3.7155   -2.6583   -0.4538 H   0  0  0  0  0  0  0  0  0  0  0  0
   -2.1155   -1.9963    0.7922 C   0  0  0  0  0  0  0  0  0  0  0  0
   -1.2875   -2.6383    1.4252 O   0  0  0  0  0  0  0  0  0  0  0  0
   -1.8575   -0.8123    0.2402 N   0  0  0  0  0  0  0  0  0  0  0  0
   -2.6005   -0.3333   -0.2478 H   0  0  0  0  0  0  0  0  0  0  0  0
   -0.5675   -0.1203    0.3102 C   0  0  1  0  0  0  0  0  0  0  0  0
    0.1932   -0.7715   -0.1219 H   0  0  0  0  0  0  0  0  0  0  0  0
   -0.6568    1.1713   -0.5294 C   0  0  0  0  0  0  0  0  0  0  0  0
    0.3557    1.5238   -0.7356 H   0  0  0  0  0  0  0  0  0  0  0  0
   -1.1207    0.9205   -1.4859 H   0  0  0  0  0  0  0  0  0  0  0  0
   -1.4551    2.3265    0.1021 C   0  0  0  0  0  0  0  0  0  0  0  0
   -1.1928    2.4225    1.1557 H   0  0  0  0  0  0  0  0  0  0  0  0
   -1.1944    3.6625   -0.5997 C   0  0  0  0  0  0  0  0  0  0  0  0
   -1.4373    3.5777   -1.6597 H   0  0  0  0  0  0  0  0  0  0  0  0
   -1.8153    4.4393   -0.1527 H   0  0  0  0  0  0  0  0  0  0  0  0
   -0.1514    3.9537   -0.4963 H   0  0  0  0  0  0  0  0  0  0  0  0
   -2.9515    2.0295    0.0124 C   0  0  0  0  0  0  0  0  0  0  0  0
   -3.1722    1.0975    0.5326 H   0  0  0  0  0  0  0  0  0  0  0  0
   -3.5178    2.8329    0.4835 H   0  0  0  0  0  0  0  0  0  0  0  0
   -3.2547    1.9396   -1.0313 H   0  0  0  0  0  0  0  0  0  0  0  0
   -0.1913    0.1554    1.7759 C   0  0  0  0  0  0  0  0  0  0  0  0
    0.9476   -0.0766    2.1748 O   0  0  0  0  0  0  0  0  0  0  0  0
   -1.1502    0.6393    2.5760 N   0  0  0  0  0  0  0  0  0  0  0  0
   -2.0581    0.8092    2.1736 H   0  0  0  0  0  0  0  0  0  0  0  0
   -0.9568    0.9369    3.9933 C   0  0  0  0  0  0  0  0  0  0  0  0
   -0.1600    1.6750    4.1097 H   0  0  0  0  0  0  0  0  0  0  0  0
   -1.8775    1.3307    4.4266 H   0  0  0  0  0  0  0  0  0  0  0  0
   -0.6678    0.0287    4.5244 H   0  0  0  0  0  0  0  0  0  0  0  0
  5  6  2  0  0  0  0
  5  7  1  0  0  0  0
  2  3  1  0  0  0  0
  2  4  1  0  0  0  0
  2  5  1  0  0  0  0
  1  2  1  0  0  0  0
 24 25  2  0  0  0  0
 24 26  1  0  0  0  0
 20 21  1  0  0  0  0
 20 22  1  0  0  0  0
 20 23  1  0  0  0  0
 16 17  1  0  0  0  0
 16 18  1  0  0  0  0
 16 19  1  0  0  0  0
 14 15  1  0  0  0  0
 14 16  1  0  0  0  0
 14 20  1  0  0  0  0
 11 12  1  0  0  0  0
 11 13  1  0  0  0  0
 11 14  1  0  0  0  0
  9 10  1  0  0  0  0
  9 11  1  0  0  0  0
  9 24  1  0  0  0  0
  7  8  1  0  0  0  0
  7  9  1  0  0  0  0
 28 29  1  0  0  0  0
 28 30  1  0  0  0  0
 28 31  1  0  0  0  0
 26 27  1  0  0  0  0
 26 28  1  0  0  0  0
M  END
$$$$
default_name
  -OEChem-02102213163D

 31 30  0     1  0  0  0  0  0999 V2000
   -3.5895   -3.5013    1.1082 H   0  0  0  0  0  0  0  0  0  0  0  0
   -3.5145   -2.5363    0.6082 C   0  0  0  0  0  0  0  0  0  0  0  0
   -4.2285   -1.8413    1.0452 H   0  0  0  0  0  0  0  0  0  0  0  0
   -3.7155   -2.6583   -0.4538 H   0  0  0  0  0  0  0  0  0  0  0  0
   -2.1155   -1.9963    0.7922 C   0  0  0  0  0  0  0  0  0  0  0  0
   -1.2875   -2.6383    1.4252 O   0  0  0  0  0  0  0  0  0  0  0  0
   -1.8575   -0.8123    0.2402 N   0  0  0  0  0  0  0  0  0  0  0  0
   -2.6005   -0.3333   -0.2478 H   0  0  0  0  0  0  0  0  0  0  0  0
   -0.5675   -0.1203    0.3102 C   0  0  1  0  0  0  0  0  0  0  0  0
    0.1932   -0.7715   -0.1219 H   0  0  0  0  0  0  0  0  0  0  0  0
   -0.6568    1.1713   -0.5294 C   0  0  0  0  0  0  0  0  0  0  0  0
    0.3255    1.3761   -0.9596 H   0  0  0  0  0  0  0  0  0  0  0  0
   -1.3481    0.9897   -1.3553 H   0  0  0  0  0  0  0  0  0  0  0  0
   -1.1297    2.4281    0.2239 C   0  0  0  0  0  0  0  0  0  0  0  0
   -0.4568    2.6333    1.0565 H   0  0  0  0  0  0  0  0  0  0  0  0
   -1.1885    3.6599   -0.6842 C   0  0  0  0  0  0  0  0  0  0  0  0
   -1.8464    3.4642   -1.5320 H   0  0  0  0  0  0  0  0  0  0  0  0
   -1.5739    4.5116   -0.1231 H   0  0  0  0  0  0  0  0  0  0  0  0
   -0.1971    3.9119   -1.0544 H   0  0  0  0  0  0  0  0  0  0  0  0
   -2.5285    2.1932    0.7929 C   0  0  0  0  0  0  0  0  0  0  0  0
   -2.5102    1.3392    1.4699 H   0  0  0  0  0  0  0  0  0  0  0  0
   -2.8543    3.0715    1.3501 H   0  0  0  0  0  0  0  0  0  0  0  0
   -3.2345    1.9971   -0.0149 H   0  0  0  0  0  0  0  0  0  0  0  0
   -0.1913    0.1554    1.7759 C   0  0  0  0  0  0  0  0  0  0  0  0
    0.9476   -0.0766    2.1748 O   0  0  0  0  0  0  0  0  0  0  0  0
   -1.1502    0.6393    2.5760 N   0  0  0  0  0  0  0  0  0  0  0  0
   -2.0581    0.8092    2.1736 H   0  0  0  0  0  0  0  0  0  0  0  0
   -0.9568    0.9369    3.9933 C   0  0  0  0  0  0  0  0  0  0  0  0
   -0.1600    1.6750    4.1097 H   0  0  0  0  0  0  0  0  0  0  0  0
   -1.8775    1.3307    4.4266 H   0  0  0  0  0  0  0  0  0  0  0  0
   -0.6678    0.0287    4.5244 H   0  0  0  0  0  0  0  0  0  0  0  0
  5  6  2  0  0  0  0
  5  7  1  0  0  0  0
  2  3  1  0  0  0  0
  2  4  1  0  0  0  0
  2  5  1  0  0  0  0
  1  2  1  0  0  0  0
 24 25  2  0  0  0  0
 24 26  1  0  0  0  0
 20 21  1  0  0  0  0
 20 22  1  0  0  0  0
 20 23  1  0  0  0  0
 16 17  1  0  0  0  0
 16 18  1  0  0  0  0
 16 19  1  0  0  0  0
 14 15  1  0  0  0  0
 14 16  1  0  0  0  0
 14 20  1  0  0  0  0
 11 12  1  0  0  0  0
 11 13  1  0  0  0  0
 11 14  1  0  0  0  0
  9 10  1  0  0  0  0
  9 11  1  0  0  0  0
  9 24  1  0  0  0  0
  7  8  1  0  0  0  0
  7  9  1  0  0  0  0
 28 29  1  0  0  0  0
 28 30  1  0  0  0  0
 28 31  1  0  0  0  0
 26 27  1  0  0  0  0
 26 28  1  0  0  0  0
M  END
$$$$
default_name
  -OEChem-02102213163D

 31 30  0     1  0  0  0  0  0999 V2000
   -3.5895   -3.5013    1.1082 H   0  0  0  0  0  0  0  0  0  0  0  0
   -3.5145   -2.5363    0.6082 C   0  0  0  0  0  0  0  0  0  0  0  0
   -4.2285   -1.8413    1.0452 H   0  0  0  0  0  0  0  0  0  0  0  0
   -3.7155   -2.6583   -0.4538 H   0  0  0  0  0  0  0  0  0  0  0  0
   -2.1155   -1.9963    0.7922 C   0  0  0  0  0  0  0  0  0  0  0  0
   -1.2875   -2.6383    1.4252 O   0  0  0  0  0  0  0  0  0  0  0  0
   -1.8575   -0.8123    0.2402 N   0  0  0  0  0  0  0  0  0  0  0  0
   -2.6005   -0.3333   -0.2478 H   0  0  0  0  0  0  0  0  0  0  0  0
   -0.5675   -0.1203    0.3102 C   0  0  1  0  0  0  0  0  0  0  0  0
    0.1932   -0.7715   -0.1219 H   0  0  0  0  0  0  0  0  0  0  0  0
   -0.6568    1.1713   -0.5294 C   0  0  0  0  0  0  0  0  0  0  0  0
    0.3255    1.3761   -0.9596 H   0  0  0  0  0  0  0  0  0  0  0  0
   -1.3481    0.9897   -1.3553 H   0  0  0  0  0  0  0  0  0  0  0  0
   -1.1297    2.4281    0.2239 C   0  0  0  0  0  0  0  0  0  0  0  0
   -0.3337    2.7880    0.8758 H   0  0  0  0  0  0  0  0  0  0  0  0
   -1.5404    3.5544   -0.7291 C   0  0  0  0  0  0  0  0  0  0  0  0
   -2.3263    3.2043   -1.3997 H   0  0  0  0  0  0  0  0  0  0  0  0
   -1.9133    4.4031   -0.1553 H   0  0  0  0  0  0  0  0  0  0  0  0
   -0.6900    3.8862   -1.3209 H   0  0  0  0  0  0  0  0  0  0  0  0
   -2.3363    2.0837    1.0963 C   0  0  0  0  0  0  0  0  0  0  0  0
   -2.0636    1.3046    1.8081 H   0  0  0  0  0  0  0  0  0  0  0  0
   -2.6559    2.9654    1.6517 H   0  0  0  0  0  0  0  0  0  0  0  0
   -3.1605    1.7312    0.4752 H   0  0  0  0  0  0  0  0  0  0  0  0
   -0.1913    0.1554    1.7759 C   0  0  0  0  0  0  0  0  0  0  0  0
    0.9476   -0.0766    2.1748 O   0  0  0  0  0  0  0  0  0  0  0  0
   -1.1502    0.6393    2.5760 N   0  0  0  0  0  0  0  0  0  0  0  0
   -2.0581    0.8092    2.1736 H   0  0  0  0  0  0  0  0  0  0  0  0
   -0.9568    0.9369    3.9933 C   0  0  0  0  0  0  0  0  0  0  0  0
   -0.1600    1.6750    4.1097 H   0  0  0  0  0  0  0  0  0  0  0  0
   -1.8775    1.3307    4.4266 H   0  0  0  0  0  0  0  0  0  0  0  0
   -0.6678    0.0287    4.5244 H   0  0  0  0  0  0  0  0  0  0  0  0
  5  6  2  0  0  0  0
  5  7  1  0  0  0  0
  2  3  1  0  0  0  0
  2  4  1  0  0  0  0
  2  5  1  0  0  0  0
  1  2  1  0  0  0  0
 24 25  2  0  0  0  0
 24 26  1  0  0  0  0
 20 21  1  0  0  0  0
 20 22  1  0  0  0  0
 20 23  1  0  0  0  0
 16 17  1  0  0  0  0
 16 18  1  0  0  0  0
 16 19  1  0  0  0  0
 14 15  1  0  0  0  0
 14 16  1  0  0  0  0
 14 20  1  0  0  0  0
 11 12  1  0  0  0  0
 11 13  1  0  0  0  0
 11 14  1  0  0  0  0
  9 10  1  0  0  0  0
  9 11  1  0  0  0  0
  9 24  1  0  0  0  0
  7  8  1  0  0  0  0
  7  9  1  0  0  0  0
 28 29  1  0  0  0  0
 28 30  1  0  0  0  0
 28 31  1  0  0  0  0
 26 27  1  0  0  0  0
 26 28  1  0  0  0  0
M  END
$$$$
default_name
  -OEChem-02102213163D

 31 30  0     1  0  0  0  0  0999 V2000
   -3.5895   -3.5013    1.1082 H   0  0  0  0  0  0  0  0  0  0  0  0
   -3.5145   -2.5363    0.6082 C   0  0  0  0  0  0  0  0  0  0  0  0
   -4.2285   -1.8413    1.0452 H   0  0  0  0  0  0  0  0  0  0  0  0
   -3.7155   -2.6583   -0.4538 H   0  0  0  0  0  0  0  0  0  0  0  0
   -2.1155   -1.9963    0.7922 C   0  0  0  0  0  0  0  0  0  0  0  0
   -1.2875   -2.6383    1.4252 O   0  0  0  0  0  0  0  0  0  0  0  0
   -1.8575   -0.8123    0.2402 N   0  0  0  0  0  0  0  0  0  0  0  0
   -2.6005   -0.3333   -0.2478 H   0  0  0  0  0  0  0  0  0  0  0  0
   -0.5675   -0.1203    0.3102 C   0  0  1  0  0  0  0  0  0  0  0  0
    0.1932   -0.7715   -0.1219 H   0  0  0  0  0  0  0  0  0  0  0  0
   -0.6568    1.1713   -0.5294 C   0  0  0  0  0  0  0  0  0  0  0  0
    0.3255    1.3761   -0.9596 H   0  0  0  0  0  0  0  0  0  0  0  0
   -1.3481    0.9897   -1.3553 H   0  0  0  0  0  0  0  0  0  0  0  0
   -1.1297    2.4281    0.2239 C   0  0  0  0  0  0  0  0  0  0  0  0
   -0.2725    2.9386    0.6629 H   0  0  0  0  0  0  0  0  0  0  0  0
   -1.8764    3.4044   -0.6897 C   0  0  0  0  0  0  0  0  0  0  0  0
   -2.7289    2.9030   -1.1498 H   0  0  0  0  0  0  0  0  0  0  0  0
   -2.2342    4.2529   -0.1060 H   0  0  0  0  0  0  0  0  0  0  0  0
   -1.2191    3.7777   -1.4721 H   0  0  0  0  0  0  0  0  0  0  0  0
   -2.0726    2.0264    1.3574 C   0  0  0  0  0  0  0  0  0  0  0  0
   -1.5563    1.3547    2.0431 H   0  0  0  0  0  0  0  0  0  0  0  0
   -2.3871    2.9120    1.9095 H   0  0  0  0  0  0  0  0  0  0  0  0
   -2.9518    1.5228    0.9540 H   0  0  0  0  0  0  0  0  0  0  0  0
   -0.1913    0.1554    1.7759 C   0  0  0  0  0  0  0  0  0  0  0  0
    0.9476   -0.0766    2.1748 O   0  0  0  0  0  0  0  0  0  0  0  0
   -1.1502    0.6393    2.5760 N   0  0  0  0  0  0  0  0  0  0  0  0
   -2.0581    0.8092    2.1736 H   0  0  0  0  0  0  0  0  0  0  0  0
   -0.9568    0.9369    3.9933 C   0  0  0  0  0  0  0  0  0  0  0  0
   -0.1600    1.6750    4.1097 H   0  0  0  0  0  0  0  0  0  0  0  0
   -1.8775    1.3307    4.4266 H   0  0  0  0  0  0  0  0  0  0  0  0
   -0.6678    0.0287    4.5244 H   0  0  0  0  0  0  0  0  0  0  0  0
  5  6  2  0  0  0  0
  5  7  1  0  0  0  0
  2  3  1  0  0  0  0
  2  4  1  0  0  0  0
  2  5  1  0  0  0  0
  1  2  1  0  0  0  0
 24 25  2  0  0  0  0
 24 26  1  0  0  0  0
 20 21  1  0  0  0  0
 20 22  1  0  0  0  0
 20 23  1  0  0  0  0
 16 17  1  0  0  0  0
 16 18  1  0  0  0  0
 16 19  1  0  0  0  0
 14 15  1  0  0  0  0
 14 16  1  0  0  0  0
 14 20  1  0  0  0  0
 11 12  1  0  0  0  0
 11 13  1  0  0  0  0
 11 14  1  0  0  0  0
  9 10  1  0  0  0  0
  9 11  1  0  0  0  0
  9 24  1  0  0  0  0
  7  8  1  0  0  0  0
  7  9  1  0  0  0  0
 28 29  1  0  0  0  0
 28 30  1  0  0  0  0
 28 31  1  0  0  0  0
 26 27  1  0  0  0  0
 26 28  1  0  0  0  0
M  END
$$$$
default_name
  -OEChem-02102213163D

 31 30  0     1  0  0  0  0  0999 V2000
   -3.5895   -3.5013    1.1082 H   0  0  0  0  0  0  0  0  0  0  0  0
   -3.5145   -2.5363    0.6082 C   0  0  0  0  0  0  0  0  0  0  0  0
   -4.2285   -1.8413    1.0452 H   0  0  0  0  0  0  0  0  0  0  0  0
   -3.7155   -2.6583   -0.4538 H   0  0  0  0  0  0  0  0  0  0  0  0
   -2.1155   -1.9963    0.7922 C   0  0  0  0  0  0  0  0  0  0  0  0
   -1.2875   -2.6383    1.4252 O   0  0  0  0  0  0  0  0  0  0  0  0
   -1.8575   -0.8123    0.2402 N   0  0  0  0  0  0  0  0  0  0  0  0
   -2.6005   -0.3333   -0.2478 H   0  0  0  0  0  0  0  0  0  0  0  0
   -0.5675   -0.1203    0.3102 C   0  0  1  0  0  0  0  0  0  0  0  0
    0.1932   -0.7715   -0.1219 H   0  0  0  0  0  0  0  0  0  0  0  0
   -0.6568    1.1713   -0.5294 C   0  0  0  0  0  0  0  0  0  0  0  0
    0.3255    1.3761   -0.9596 H   0  0  0  0  0  0  0  0  0  0  0  0
   -1.3481    0.9897   -1.3553 H   0  0  0  0  0  0  0  0  0  0  0  0
   -1.1297    2.4281    0.2239 C   0  0  0  0  0  0  0  0  0  0  0  0
   -0.2775    3.0749    0.4324 H   0  0  0  0  0  0  0  0  0  0  0  0
   -2.1736    3.2201   -0.5688 C   0  0  0  0  0  0  0  0  0  0  0  0
   -3.0270    2.5809   -0.7995 H   0  0  0  0  0  0  0  0  0  0  0  0
   -2.5148    4.0710    0.0213 H   0  0  0  0  0  0  0  0  0  0  0  0
   -1.7483    3.5939   -1.4977 H   0  0  0  0  0  0  0  0  0  0  0  0
   -1.7555    2.0252    1.5585 C   0  0  0  0  0  0  0  0  0  0  0  0
   -1.0230    1.4859    2.1590 H   0  0  0  0  0  0  0  0  0  0  0  0
   -2.0662    2.9150    2.1060 H   0  0  0  0  0  0  0  0  0  0  0  0
   -2.6227    1.3859    1.3890 H   0  0  0  0  0  0  0  0  0  0  0  0
   -0.1913    0.1554    1.7759 C   0  0  0  0  0  0  0  0  0  0  0  0
    0.9476   -0.0766    2.1748 O   0  0  0  0  0  0  0  0  0  0  0  0
   -1.1502    0.6393    2.5760 N   0  0  0  0  0  0  0  0  0  0  0  0
   -2.0581    0.8092    2.1736 H   0  0  0  0  0  0  0  0  0  0  0  0
   -0.9568    0.9369    3.9933 C   0  0  0  0  0  0  0  0  0  0  0  0
   -0.1600    1.6750    4.1097 H   0  0  0  0  0  0  0  0  0  0  0  0
   -1.8775    1.3307    4.4266 H   0  0  0  0  0  0  0  0  0  0  0  0
   -0.6678    0.0287    4.5244 H   0  0  0  0  0  0  0  0  0  0  0  0
  5  6  2  0  0  0  0
  5  7  1  0  0  0  0
  2  3  1  0  0  0  0
  2  4  1  0  0  0  0
  2  5  1  0  0  0  0
  1  2  1  0  0  0  0
 24 25  2  0  0  0  0
 24 26  1  0  0  0  0
 20 21  1  0  0  0  0
 20 22  1  0  0  0  0
 20 23  1  0  0  0  0
 16 17  1  0  0  0  0
 16 18  1  0  0  0  0
 16 19  1  0  0  0  0
 14 15  1  0  0  0  0
 14 16  1  0  0  0  0
 14 20  1  0  0  0  0
 11 12  1  0  0  0  0
 11 13  1  0  0  0  0
 11 14  1  0  0  0  0
  9 10  1  0  0  0  0
  9 11  1  0  0  0  0
  9 24  1  0  0  0  0
  7  8  1  0  0  0  0
  7  9  1  0  0  0  0
 28 29  1  0  0  0  0
 28 30  1  0  0  0  0
 28 31  1  0  0  0  0
 26 27  1  0  0  0  0
 26 28  1  0  0  0  0
M  END
$$$$
default_name
  -OEChem-02102213163D

 31 30  0     1  0  0  0  0  0999 V2000
   -3.5895   -3.5013    1.1082 H   0  0  0  0  0  0  0  0  0  0  0  0
   -3.5145   -2.5363    0.6082 C   0  0  0  0  0  0  0  0  0  0  0  0
   -4.2285   -1.8413    1.0452 H   0  0  0  0  0  0  0  0  0  0  0  0
   -3.7155   -2.6583   -0.4538 H   0  0  0  0  0  0  0  0  0  0  0  0
   -2.1155   -1.9963    0.7922 C   0  0  0  0  0  0  0  0  0  0  0  0
   -1.2875   -2.6383    1.4252 O   0  0  0  0  0  0  0  0  0  0  0  0
   -1.8575   -0.8123    0.2402 N   0  0  0  0  0  0  0  0  0  0  0  0
   -2.6005   -0.3333   -0.2478 H   0  0  0  0  0  0  0  0  0  0  0  0
   -0.5675   -0.1203    0.3102 C   0  0  1  0  0  0  0  0  0  0  0  0
    0.1932   -0.7715   -0.1219 H   0  0  0  0  0  0  0  0  0  0  0  0
   -0.6568    1.1713   -0.5294 C   0  0  0  0  0  0  0  0  0  0  0  0
    0.3255    1.3761   -0.9596 H   0  0  0  0  0  0  0  0  0  0  0  0
   -1.3481    0.9897   -1.3553 H   0  0  0  0  0  0  0  0  0  0  0  0
   -1.1297    2.4281    0.2239 C   0  0  0  0  0  0  0  0  0  0  0  0
   -0.3482    3.1876    0.2000 H   0  0  0  0  0  0  0  0  0  0  0  0
   -2.4119    3.0140   -0.3746 C   0  0  0  0  0  0  0  0  0  0  0  0
   -3.2000    2.2598   -0.3725 H   0  0  0  0  0  0  0  0  0  0  0  0
   -2.7359    3.8699    0.2180 H   0  0  0  0  0  0  0  0  0  0  0  0
   -2.2417    3.3473   -1.3961 H   0  0  0  0  0  0  0  0  0  0  0  0
   -1.4066    2.0801    1.6859 C   0  0  0  0  0  0  0  0  0  0  0  0
   -0.5000    1.6894    2.1479 H   0  0  0  0  0  0  0  0  0  0  0  0
   -1.7151    2.9742    2.2278 H   0  0  0  0  0  0  0  0  0  0  0  0
   -2.1956    1.3300    1.7506 H   0  0  0  0  0  0  0  0  0  0  0  0
   -0.1913    0.1554    1.7759 C   0  0  0  0  0  0  0  0  0  0  0  0
    0.9476   -0.0766    2.1748 O   0  0  0  0  0  0  0  0  0  0  0  0
   -1.1502    0.6393    2.5760 N   0  0  0  0  0  0  0  0  0  0  0  0
   -2.0581    0.8092    2.1736 H   0  0  0  0  0  0  0  0  0  0  0  0
   -0.9568    0.9369    3.9933 C   0  0  0  0  0  0  0  0  0  0  0  0
   -0.1600    1.6750    4.1097 H   0  0  0  0  0  0  0  0  0  0  0  0
   -1.8775    1.3307    4.4266 H   0  0  0  0  0  0  0  0  0  0  0  0
   -0.6678    0.0287    4.5244 H   0  0  0  0  0  0  0  0  0  0  0  0
  5  6  2  0  0  0  0
  5  7  1  0  0  0  0
  2  3  1  0  0  0  0
  2  4  1  0  0  0  0
  2  5  1  0  0  0  0
  1  2  1  0  0  0  0
 24 25  2  0  0  0  0
 24 26  1  0  0  0  0
 20 21  1  0  0  0  0
 20 22  1  0  0  0  0
 20 23  1  0  0  0  0
 16 17  1  0  0  0  0
 16 18  1  0  0  0  0
 16 19  1  0  0  0  0
 14 15  1  0  0  0  0
 14 16  1  0  0  0  0
 14 20  1  0  0  0  0
 11 12  1  0  0  0  0
 11 13  1  0  0  0  0
 11 14  1  0  0  0  0
  9 10  1  0  0  0  0
  9 11  1  0  0  0  0
  9 24  1  0  0  0  0
  7  8  1  0  0  0  0
  7  9  1  0  0  0  0
 28 29  1  0  0  0  0
 28 30  1  0  0  0  0
 28 31  1  0  0  0  0
 26 27  1  0  0  0  0
 26 28  1  0  0  0  0
M  END
$$$$
default_name
  -OEChem-02102213163D

 31 30  0     1  0  0  0  0  0999 V2000
   -3.5895   -3.5013    1.1082 H   0  0  0  0  0  0  0  0  0  0  0  0
   -3.5145   -2.5363    0.6082 C   0  0  0  0  0  0  0  0  0  0  0  0
   -4.2285   -1.8413    1.0452 H   0  0  0  0  0  0  0  0  0  0  0  0
   -3.7155   -2.6583   -0.4538 H   0  0  0  0  0  0  0  0  0  0  0  0
   -2.1155   -1.9963    0.7922 C   0  0  0  0  0  0  0  0  0  0  0  0
   -1.2875   -2.6383    1.4252 O   0  0  0  0  0  0  0  0  0  0  0  0
   -1.8575   -0.8123    0.2402 N   0  0  0  0  0  0  0  0  0  0  0  0
   -2.6005   -0.3333   -0.2478 H   0  0  0  0  0  0  0  0  0  0  0  0
   -0.5675   -0.1203    0.3102 C   0  0  1  0  0  0  0  0  0  0  0  0
    0.1932   -0.7715   -0.1219 H   0  0  0  0  0  0  0  0  0  0  0  0
   -0.6568    1.1713   -0.5294 C   0  0  0  0  0  0  0  0  0  0  0  0
    0.3255    1.3761   -0.9596 H   0  0  0  0  0  0  0  0  0  0  0  0
   -1.3481    0.9897   -1.3553 H   0  0  0  0  0  0  0  0  0  0  0  0
   -1.1297    2.4281    0.2239 C   0  0  0  0  0  0  0  0  0  0  0  0
   -0.4799    3.2690   -0.0186 H   0  0  0  0  0  0  0  0  0  0  0  0
   -2.5749    2.8002   -0.1202 C   0  0  0  0  0  0  0  0  0  0  0  0
   -3.2363    1.9618    0.1020 H   0  0  0  0  0  0  0  0  0  0  0  0
   -2.8824    3.6633    0.4707 H   0  0  0  0  0  0  0  0  0  0  0  0
   -2.6656    3.0547   -1.1740 H   0  0  0  0  0  0  0  0  0  0  0  0
   -1.0496    2.1875    1.7309 C   0  0  0  0  0  0  0  0  0  0  0  0
   -0.0230    1.9513    2.0104 H   0  0  0  0  0  0  0  0  0  0  0  0
   -1.3577    3.0854    2.2666 H   0  0  0  0  0  0  0  0  0  0  0  0
   -1.6995    1.3588    2.0140 H   0  0  0  0  0  0  0  0  0  0  0  0
   -0.1913    0.1554    1.7759 C   0  0  0  0  0  0  0  0  0  0  0  0
    0.9476   -0.0766    2.1748 O   0  0  0  0  0  0  0  0  0  0  0  0
   -1.1502    0.6393    2.5760 N   0  0  0  0  0  0  0  0  0  0  0  0
   -2.0581    0.8092    2.1736 H   0  0  0  0  0  0  0  0  0  0  0  0
   -0.9568    0.9369    3.9933 C   0  0  0  0  0  0  0  0  0  0  0  0
   -0.1600    1.6750    4.1097 H   0  0  0  0  0  0  0  0  0  0  0  0
   -1.8775    1.3307    4.4266 H   0  0  0  0  0  0  0  0  0  0  0  0
   -0.6678    0.0287    4.5244 H   0  0  0  0  0  0  0  0  0  0  0  0
  5  6  2  0  0  0  0
  5  7  1  0  0  0  0
  2  3  1  0  0  0  0
  2  4  1  0  0  0  0
  2  5  1  0  0  0  0
  1  2  1  0  0  0  0
 24 25  2  0  0  0  0
 24 26  1  0  0  0  0
 20 21  1  0  0  0  0
 20 22  1  0  0  0  0
 20 23  1  0  0  0  0
 16 17  1  0  0  0  0
 16 18  1  0  0  0  0
 16 19  1  0  0  0  0
 14 15  1  0  0  0  0
 14 16  1  0  0  0  0
 14 20  1  0  0  0  0
 11 12  1  0  0  0  0
 11 13  1  0  0  0  0
 11 14  1  0  0  0  0
  9 10  1  0  0  0  0
  9 11  1  0  0  0  0
  9 24  1  0  0  0  0
  7  8  1  0  0  0  0
  7  9  1  0  0  0  0
 28 29  1  0  0  0  0
 28 30  1  0  0  0  0
 28 31  1  0  0  0  0
 26 27  1  0  0  0  0
 26 28  1  0  0  0  0
M  END
$$$$
default_name
  -OEChem-02102213163D

 31 30  0     1  0  0  0  0  0999 V2000
   -3.5895   -3.5013    1.1082 H   0  0  0  0  0  0  0  0  0  0  0  0
   -3.5145   -2.5363    0.6082 C   0  0  0  0  0  0  0  0  0  0  0  0
   -4.2285   -1.8413    1.0452 H   0  0  0  0  0  0  0  0  0  0  0  0
   -3.7155   -2.6583   -0.4538 H   0  0  0  0  0  0  0  0  0  0  0  0
   -2.1155   -1.9963    0.7922 C   0  0  0  0  0  0  0  0  0  0  0  0
   -1.2875   -2.6383    1.4252 O   0  0  0  0  0  0  0  0  0  0  0  0
   -1.8575   -0.8123    0.2402 N   0  0  0  0  0  0  0  0  0  0  0  0
   -2.6005   -0.3333   -0.2478 H   0  0  0  0  0  0  0  0  0  0  0  0
   -0.5675   -0.1203    0.3102 C   0  0  1  0  0  0  0  0  0  0  0  0
    0.1932   -0.7715   -0.1219 H   0  0  0  0  0  0  0  0  0  0  0  0
   -0.6568    1.1713   -0.5294 C   0  0  0  0  0  0  0  0  0  0  0  0
    0.3255    1.3761   -0.9596 H   0  0  0  0  0  0  0  0  0  0  0  0
   -1.3481    0.9897   -1.3553 H   0  0  0  0  0  0  0  0  0  0  0  0
   -1.1297    2.4281    0.2239 C   0  0  0  0  0  0  0  0  0  0  0  0
   -0.6636    3.3136   -0.2083 H   0  0  0  0  0  0  0  0  0  0  0  0
   -2.6515    2.5933    0.1769 C   0  0  0  0  0  0  0  0  0  0  0  0
   -3.1334    1.7070    0.5918 H   0  0  0  0  0  0  0  0  0  0  0  0
   -2.9444    3.4653    0.7621 H   0  0  0  0  0  0  0  0  0  0  0  0
   -2.9910    2.7361   -0.8468 H   0  0  0  0  0  0  0  0  0  0  0  0
   -0.7089    2.3400    1.6903 C   0  0  0  0  0  0  0  0  0  0  0  0
    0.3756    2.2538    1.7561 H   0  0  0  0  0  0  0  0  0  0  0  0
   -1.0184    3.2412    2.2196 H   0  0  0  0  0  0  0  0  0  0  0  0
   -1.1684    1.4703    2.1614 H   0  0  0  0  0  0  0  0  0  0  0  0
   -0.1913    0.1554    1.7759 C   0  0  0  0  0  0  0  0  0  0  0  0
    0.9476   -0.0766    2.1748 O   0  0  0  0  0  0  0  0  0  0  0  0
   -1.1502    0.6393    2.5760 N   0  0  0  0  0  0  0  0  0  0  0  0
   -2.0581    0.8092    2.1736 H   0  0  0  0  0  0  0  0  0  0  0  0
   -0.9568    0.9369    3.9933 C   0  0  0  0  0  0  0  0  0  0  0  0
   -0.1600    1.6750    4.1097 H   0  0  0  0  0  0  0  0  0  0  0  0
   -1.8775    1.3307    4.4266 H   0  0  0  0  0  0  0  0  0  0  0  0
   -0.6678    0.0287    4.5244 H   0  0  0  0  0  0  0  0  0  0  0  0
  5  6  2  0  0  0  0
  5  7  1  0  0  0  0
  2  3  1  0  0  0  0
  2  4  1  0  0  0  0
  2  5  1  0  0  0  0
  1  2  1  0  0  0  0
 24 25  2  0  0  0  0
 24 26  1  0  0  0  0
 20 21  1  0  0  0  0
 20 22  1  0  0  0  0
 20 23  1  0  0  0  0
 16 17  1  0  0  0  0
 16 18  1  0  0  0  0
 16 19  1  0  0  0  0
 14 15  1  0  0  0  0
 14 16  1  0  0  0  0
 14 20  1  0  0  0  0
 11 12  1  0  0  0  0
 11 13  1  0  0  0  0
 11 14  1  0  0  0  0
  9 10  1  0  0  0  0
  9 11  1  0  0  0  0
  9 24  1  0  0  0  0
  7  8  1  0  0  0  0
  7  9  1  0  0  0  0
 28 29  1  0  0  0  0
 28 30  1  0  0  0  0
 28 31  1  0  0  0  0
 26 27  1  0  0  0  0
 26 28  1  0  0  0  0
M  END
$$$$
default_name
  -OEChem-02102213163D

 31 30  0     1  0  0  0  0  0999 V2000
   -3.5895   -3.5013    1.1082 H   0  0  0  0  0  0  0  0  0  0  0  0
   -3.5145   -2.5363    0.6082 C   0  0  0  0  0  0  0  0  0  0  0  0
   -4.2285   -1.8413    1.0452 H   0  0  0  0  0  0  0  0  0  0  0  0
   -3.7155   -2.6583   -0.4538 H   0  0  0  0  0  0  0  0  0  0  0  0
   -2.1155   -1.9963    0.7922 C   0  0  0  0  0  0  0  0  0  0  0  0
   -1.2875   -2.6383    1.4252 O   0  0  0  0  0  0  0  0  0  0  0  0
   -1.8575   -0.8123    0.2402 N   0  0  0  0  0  0  0  0  0  0  0  0
   -2.6005   -0.3333   -0.2478 H   0  0  0  0  0  0  0  0  0  0  0  0
   -0.5675   -0.1203    0.3102 C   0  0  1  0  0  0  0  0  0  0  0  0
    0.1932   -0.7715   -0.1219 H   0  0  0  0  0  0  0  0  0  0  0  0
   -0.6568    1.1713   -0.5294 C   0  0  0  0  0  0  0  0  0  0  0  0
    0.3255    1.3761   -0.9596 H   0  0  0  0  0  0  0  0  0  0  0  0
   -1.3481    0.9897   -1.3553 H   0  0  0  0  0  0  0  0  0  0  0  0
   -1.1297    2.4281    0.2239 C   0  0  0  0  0  0  0  0  0  0  0  0
   -0.8867    3.3183   -0.3564 H   0  0  0  0  0  0  0  0  0  0  0  0
   -2.6366    2.4074    0.4965 C   0  0  0  0  0  0  0  0  0  0  0  0
   -2.8982    1.5128    1.0633 H   0  0  0  0  0  0  0  0  0  0  0  0
   -2.9176    3.2893    1.0725 H   0  0  0  0  0  0  0  0  0  0  0  0
   -3.1959    2.4131   -0.4365 H   0  0  0  0  0  0  0  0  0  0  0  0
   -0.4077    2.5273    1.5671 C   0  0  0  0  0  0  0  0  0  0  0  0
    0.6686    2.5762    1.4021 H   0  0  0  0  0  0  0  0  0  0  0  0
   -0.7204    3.4309    2.0902 H   0  0  0  0  0  0  0  0  0  0  0  0
   -0.6383    1.6571    2.1826 H   0  0  0  0  0  0  0  0  0  0  0  0
   -0.1913    0.1554    1.7759 C   0  0  0  0  0  0  0  0  0  0  0  0
    0.9476   -0.0766    2.1748 O   0  0  0  0  0  0  0  0  0  0  0  0
   -1.1502    0.6393    2.5760 N   0  0  0  0  0  0  0  0  0  0  0  0
   -2.0581    0.8092    2.1736 H   0  0  0  0  0  0  0  0  0  0  0  0
   -0.9568    0.9369    3.9933 C   0  0  0  0  0  0  0  0  0  0  0  0
   -0.1600    1.6750    4.1097 H   0  0  0  0  0  0  0  0  0  0  0  0
   -1.8775    1.3307    4.4266 H   0  0  0  0  0  0  0  0  0  0  0  0
   -0.6678    0.0287    4.5244 H   0  0  0  0  0  0  0  0  0  0  0  0
  5  6  2  0  0  0  0
  5  7  1  0  0  0  0
  2  3  1  0  0  0  0
  2  4  1  0  0  0  0
  2  5  1  0  0  0  0
  1  2  1  0  0  0  0
 24 25  2  0  0  0  0
 24 26  1  0  0  0  0
 20 21  1  0  0  0  0
 20 22  1  0  0  0  0
 20 23  1  0  0  0  0
 16 17  1  0  0  0  0
 16 18  1  0  0  0  0
 16 19  1  0  0  0  0
 14 15  1  0  0  0  0
 14 16  1  0  0  0  0
 14 20  1  0  0  0  0
 11 12  1  0  0  0  0
 11 13  1  0  0  0  0
 11 14  1  0  0  0  0
  9 10  1  0  0  0  0
  9 11  1  0  0  0  0
  9 24  1  0  0  0  0
  7  8  1  0  0  0  0
  7  9  1  0  0  0  0
 28 29  1  0  0  0  0
 28 30  1  0  0  0  0
 28 31  1  0  0  0  0
 26 27  1  0  0  0  0
 26 28  1  0  0  0  0
M  END
$$$$
default_name
  -OEChem-02102213163D

 31 30  0     1  0  0  0  0  0999 V2000
   -3.5895   -3.5013    1.1082 H   0  0  0  0  0  0  0  0  0  0  0  0
   -3.5145   -2.5363    0.6082 C   0  0  0  0  0  0  0  0  0  0  0  0
   -4.2285   -1.8413    1.0452 H   0  0  0  0  0  0  0  0  0  0  0  0
   -3.7155   -2.6583   -0.4538 H   0  0  0  0  0  0  0  0  0  0  0  0
   -2.1155   -1.9963    0.7922 C   0  0  0  0  0  0  0  0  0  0  0  0
   -1.2875   -2.6383    1.4252 O   0  0  0  0  0  0  0  0  0  0  0  0
   -1.8575   -0.8123    0.2402 N   0  0  0  0  0  0  0  0  0  0  0  0
   -2.6005   -0.3333   -0.2478 H   0  0  0  0  0  0  0  0  0  0  0  0
   -0.5675   -0.1203    0.3102 C   0  0  1  0  0  0  0  0  0  0  0  0
    0.1932   -0.7715   -0.1219 H   0  0  0  0  0  0  0  0  0  0  0  0
   -0.6568    1.1713   -0.5294 C   0  0  0  0  0  0  0  0  0  0  0  0
    0.3255    1.3761   -0.9596 H   0  0  0  0  0  0  0  0  0  0  0  0
   -1.3481    0.9897   -1.3553 H   0  0  0  0  0  0  0  0  0  0  0  0
   -1.1297    2.4281    0.2239 C   0  0  0  0  0  0  0  0  0  0  0  0
   -1.1342    3.2829   -0.4526 H   0  0  0  0  0  0  0  0  0  0  0  0
   -2.5310    2.2551    0.8168 C   0  0  0  0  0  0  0  0  0  0  0  0
   -2.5469    1.3926    1.4846 H   0  0  0  0  0  0  0  0  0  0  0  0
   -2.8039    3.1474    1.3806 H   0  0  0  0  0  0  0  0  0  0  0  0
   -3.2662    2.1078    0.0287 H   0  0  0  0  0  0  0  0  0  0  0  0
   -0.1665    2.7365    1.3695 C   0  0  0  0  0  0  0  0  0  0  0  0
    0.8360    2.8965    0.9727 H   0  0  0  0  0  0  0  0  0  0  0  0
   -0.4838    3.6417    1.8872 H   0  0  0  0  0  0  0  0  0  0  0  0
   -0.1454    1.9062    2.0763 H   0  0  0  0  0  0  0  0  0  0  0  0
   -0.1913    0.1554    1.7759 C   0  0  0  0  0  0  0  0  0  0  0  0
    0.9476   -0.0766    2.1748 O   0  0  0  0  0  0  0  0  0  0  0  0
   -1.1502    0.6393    2.5760 N   0  0  0  0  0  0  0  0  0  0  0  0
   -2.0581    0.8092    2.1736 H   0  0  0  0  0  0  0  0  0  0  0  0
   -0.9568    0.9369    3.9933 C   0  0  0  0  0  0  0  0  0  0  0  0
   -0.1600    1.6750    4.1097 H   0  0  0  0  0  0  0  0  0  0  0  0
   -1.8775    1.3307    4.4266 H   0  0  0  0  0  0  0  0  0  0  0  0
   -0.6678    0.0287    4.5244 H   0  0  0  0  0  0  0  0  0  0  0  0
  5  6  2  0  0  0  0
  5  7  1  0  0  0  0
  2  3  1  0  0  0  0
  2  4  1  0  0  0  0
  2  5  1  0  0  0  0
  1  2  1  0  0  0  0
 24 25  2  0  0  0  0
 24 26  1  0  0  0  0
 20 21  1  0  0  0  0
 20 22  1  0  0  0  0
 20 23  1  0  0  0  0
 16 17  1  0  0  0  0
 16 18  1  0  0  0  0
 16 19  1  0  0  0  0
 14 15  1  0  0  0  0
 14 16  1  0  0  0  0
 14 20  1  0  0  0  0
 11 12  1  0  0  0  0
 11 13  1  0  0  0  0
 11 14  1  0  0  0  0
  9 10  1  0  0  0  0
  9 11  1  0  0  0  0
  9 24  1  0  0  0  0
  7  8  1  0  0  0  0
  7  9  1  0  0  0  0
 28 29  1  0  0  0  0
 28 30  1  0  0  0  0
 28 31  1  0  0  0  0
 26 27  1  0  0  0  0
 26 28  1  0  0  0  0
M  END
$$$$
default_name
  -OEChem-02102213163D

 31 30  0     1  0  0  0  0  0999 V2000
   -3.5895   -3.5013    1.1082 H   0  0  0  0  0  0  0  0  0  0  0  0
   -3.5145   -2.5363    0.6082 C   0  0  0  0  0  0  0  0  0  0  0  0
   -4.2285   -1.8413    1.0452 H   0  0  0  0  0  0  0  0  0  0  0  0
   -3.7155   -2.6583   -0.4538 H   0  0  0  0  0  0  0  0  0  0  0  0
   -2.1155   -1.9963    0.7922 C   0  0  0  0  0  0  0  0  0  0  0  0
   -1.2875   -2.6383    1.4252 O   0  0  0  0  0  0  0  0  0  0  0  0
   -1.8575   -0.8123    0.2402 N   0  0  0  0  0  0  0  0  0  0  0  0
   -2.6005   -0.3333   -0.2478 H   0  0  0  0  0  0  0  0  0  0  0  0
   -0.5675   -0.1203    0.3102 C   0  0  1  0  0  0  0  0  0  0  0  0
    0.1932   -0.7715   -0.1219 H   0  0  0  0  0  0  0  0  0  0  0  0
   -0.6568    1.1713   -0.5294 C   0  0  0  0  0  0  0  0  0  0  0  0
    0.3255    1.3761   -0.9596 H   0  0  0  0  0  0  0  0  0  0  0  0
   -1.3481    0.9897   -1.3553 H   0  0  0  0  0  0  0  0  0  0  0  0
   -1.1297    2.4281    0.2239 C   0  0  0  0  0  0  0  0  0  0  0  0
   -1.3890    3.2097   -0.4904 H   0  0  0  0  0  0  0  0  0  0  0  0
   -2.3422    2.1468    1.1161 C   0  0  0  0  0  0  0  0  0  0  0  0
   -2.1033    1.3544    1.8268 H   0  0  0  0  0  0  0  0  0  0  0  0
   -2.6110    3.0493    1.6655 H   0  0  0  0  0  0  0  0  0  0  0  0
   -3.1973    1.8410    0.5171 H   0  0  0  0  0  0  0  0  0  0  0  0
   -0.0017    2.9534    1.1110 C   0  0  0  0  0  0  0  0  0  0  0  0
    0.8664    3.1930    0.4971 H   0  0  0  0  0  0  0  0  0  0  0  0
   -0.3249    3.8590    1.6244 H   0  0  0  0  0  0  0  0  0  0  0  0
    0.2766    2.2009    1.8497 H   0  0  0  0  0  0  0  0  0  0  0  0
   -0.1913    0.1554    1.7759 C   0  0  0  0  0  0  0  0  0  0  0  0
    0.9476   -0.0766    2.1748 O   0  0  0  0  0  0  0  0  0  0  0  0
   -1.1502    0.6393    2.5760 N   0  0  0  0  0  0  0  0  0  0  0  0
   -2.0581    0.8092    2.1736 H   0  0  0  0  0  0  0  0  0  0  0  0
   -0.9568    0.9369    3.9933 C   0  0  0  0  0  0  0  0  0  0  0  0
   -0.1600    1.6750    4.1097 H   0  0  0  0  0  0  0  0  0  0  0  0
   -1.8775    1.3307    4.4266 H   0  0  0  0  0  0  0  0  0  0  0  0
   -0.6678    0.0287    4.5244 H   0  0  0  0  0  0  0  0  0  0  0  0
  5  6  2  0  0  0  0
  5  7  1  0  0  0  0
  2  3  1  0  0  0  0
  2  4  1  0  0  0  0
  2  5  1  0  0  0  0
  1  2  1  0  0  0  0
 24 25  2  0  0  0  0
 24 26  1  0  0  0  0
 20 21  1  0  0  0  0
 20 22  1  0  0  0  0
 20 23  1  0  0  0  0
 16 17  1  0  0  0  0
 16 18  1  0  0  0  0
 16 19  1  0  0  0  0
 14 15  1  0  0  0  0
 14 16  1  0  0  0  0
 14 20  1  0  0  0  0
 11 12  1  0  0  0  0
 11 13  1  0  0  0  0
 11 14  1  0  0  0  0
  9 10  1  0  0  0  0
  9 11  1  0  0  0  0
  9 24  1  0  0  0  0
  7  8  1  0  0  0  0
  7  9  1  0  0  0  0
 28 29  1  0  0  0  0
 28 30  1  0  0  0  0
 28 31  1  0  0  0  0
 26 27  1  0  0  0  0
 26 28  1  0  0  0  0
M  END
$$$$
default_name
  -OEChem-02102213163D

 31 30  0     1  0  0  0  0  0999 V2000
   -3.5895   -3.5013    1.1082 H   0  0  0  0  0  0  0  0  0  0  0  0
   -3.5145   -2.5363    0.6082 C   0  0  0  0  0  0  0  0  0  0  0  0
   -4.2285   -1.8413    1.0452 H   0  0  0  0  0  0  0  0  0  0  0  0
   -3.7155   -2.6583   -0.4538 H   0  0  0  0  0  0  0  0  0  0  0  0
   -2.1155   -1.9963    0.7922 C   0  0  0  0  0  0  0  0  0  0  0  0
   -1.2875   -2.6383    1.4252 O   0  0  0  0  0  0  0  0  0  0  0  0
   -1.8575   -0.8123    0.2402 N   0  0  0  0  0  0  0  0  0  0  0  0
   -2.6005   -0.3333   -0.2478 H   0  0  0  0  0  0  0  0  0  0  0  0
   -0.5675   -0.1203    0.3102 C   0  0  1  0  0  0  0  0  0  0  0  0
    0.1932   -0.7715   -0.1219 H   0  0  0  0  0  0  0  0  0  0  0  0
   -0.6568    1.1713   -0.5294 C   0  0  0  0  0  0  0  0  0  0  0  0
    0.3255    1.3761   -0.9596 H   0  0  0  0  0  0  0  0  0  0  0  0
   -1.3481    0.9897   -1.3553 H   0  0  0  0  0  0  0  0  0  0  0  0
   -1.1297    2.4281    0.2239 C   0  0  0  0  0  0  0  0  0  0  0  0
   -1.6339    3.1037   -0.4673 H   0  0  0  0  0  0  0  0  0  0  0  0
   -2.0828    2.0899    1.3739 C   0  0  0  0  0  0  0  0  0  0  0  0
   -1.5977    1.4009    2.0666 H   0  0  0  0  0  0  0  0  0  0  0  0
   -2.3521    3.0016    1.9077 H   0  0  0  0  0  0  0  0  0  0  0  0
   -2.9936    1.6309    0.9956 H   0  0  0  0  0  0  0  0  0  0  0  0
    0.0754    3.1632    0.8094 C   0  0  0  0  0  0  0  0  0  0  0  0
    0.7577    3.4455    0.0076 H   0  0  0  0  0  0  0  0  0  0  0  0
   -0.2544    4.0682    1.3196 H   0  0  0  0  0  0  0  0  0  0  0  0
    0.5991    2.5209    1.5182 H   0  0  0  0  0  0  0  0  0  0  0  0
   -0.1913    0.1554    1.7759 C   0  0  0  0  0  0  0  0  0  0  0  0
    0.9476   -0.0766    2.1748 O   0  0  0  0  0  0  0  0  0  0  0  0
   -1.1502    0.6393    2.5760 N   0  0  0  0  0  0  0  0  0  0  0  0
   -2.0581    0.8092    2.1736 H   0  0  0  0  0  0  0  0  0  0  0  0
   -0.9568    0.9369    3.9933 C   0  0  0  0  0  0  0  0  0  0  0  0
   -0.1600    1.6750    4.1097 H   0  0  0  0  0  0  0  0  0  0  0  0
   -1.8775    1.3307    4.4266 H   0  0  0  0  0  0  0  0  0  0  0  0
   -0.6678    0.0287    4.5244 H   0  0  0  0  0  0  0  0  0  0  0  0
  5  6  2  0  0  0  0
  5  7  1  0  0  0  0
  2  3  1  0  0  0  0
  2  4  1  0  0  0  0
  2  5  1  0  0  0  0
  1  2  1  0  0  0  0
 24 25  2  0  0  0  0
 24 26  1  0  0  0  0
 20 21  1  0  0  0  0
 20 22  1  0  0  0  0
 20 23  1  0  0  0  0
 16 17  1  0  0  0  0
 16 18  1  0  0  0  0
 16 19  1  0  0  0  0
 14 15  1  0  0  0  0
 14 16  1  0  0  0  0
 14 20  1  0  0  0  0
 11 12  1  0  0  0  0
 11 13  1  0  0  0  0
 11 14  1  0  0  0  0
  9 10  1  0  0  0  0
  9 11  1  0  0  0  0
  9 24  1  0  0  0  0
  7  8  1  0  0  0  0
  7  9  1  0  0  0  0
 28 29  1  0  0  0  0
 28 30  1  0  0  0  0
 28 31  1  0  0  0  0
 26 27  1  0  0  0  0
 26 28  1  0  0  0  0
M  END
$$$$
default_name
  -OEChem-02102213163D

 31 30  0     1  0  0  0  0  0999 V2000
   -3.5895   -3.5013    1.1082 H   0  0  0  0  0  0  0  0  0  0  0  0
   -3.5145   -2.5363    0.6082 C   0  0  0  0  0  0  0  0  0  0  0  0
   -4.2285   -1.8413    1.0452 H   0  0  0  0  0  0  0  0  0  0  0  0
   -3.7155   -2.6583   -0.4538 H   0  0  0  0  0  0  0  0  0  0  0  0
   -2.1155   -1.9963    0.7922 C   0  0  0  0  0  0  0  0  0  0  0  0
   -1.2875   -2.6383    1.4252 O   0  0  0  0  0  0  0  0  0  0  0  0
   -1.8575   -0.8123    0.2402 N   0  0  0  0  0  0  0  0  0  0  0  0
   -2.6005   -0.3333   -0.2478 H   0  0  0  0  0  0  0  0  0  0  0  0
   -0.5675   -0.1203    0.3102 C   0  0  1  0  0  0  0  0  0  0  0  0
    0.1932   -0.7715   -0.1219 H   0  0  0  0  0  0  0  0  0  0  0  0
   -0.6568    1.1713   -0.5294 C   0  0  0  0  0  0  0  0  0  0  0  0
    0.3255    1.3761   -0.9596 H   0  0  0  0  0  0  0  0  0  0  0  0
   -1.3481    0.9897   -1.3553 H   0  0  0  0  0  0  0  0  0  0  0  0
   -1.1297    2.4281    0.2239 C   0  0  0  0  0  0  0  0  0  0  0  0
   -1.8521    2.9721   -0.3848 H   0  0  0  0  0  0  0  0  0  0  0  0
   -1.7706    2.0883    1.5726 C   0  0  0  0  0  0  0  0  0  0  0  0
   -1.0645    1.5289    2.1878 H   0  0  0  0  0  0  0  0  0  0  0  0
   -2.0447    3.0075    2.0908 H   0  0  0  0  0  0  0  0  0  0  0  0
   -2.6693    1.4917    1.4315 H   0  0  0  0  0  0  0  0  0  0  0  0
    0.0595    3.3517    0.4850 C   0  0  0  0  0  0  0  0  0  0  0  0
    0.5174    3.6366   -0.4622 H   0  0  0  0  0  0  0  0  0  0  0  0
   -0.2772    4.2549    0.9937 H   0  0  0  0  0  0  0  0  0  0  0  0
    0.8000    2.8445    1.1045 H   0  0  0  0  0  0  0  0  0  0  0  0
   -0.1913    0.1554    1.7759 C   0  0  0  0  0  0  0  0  0  0  0  0
    0.9476   -0.0766    2.1748 O   0  0  0  0  0  0  0  0  0  0  0  0
   -1.1502    0.6393    2.5760 N   0  0  0  0  0  0  0  0  0  0  0  0
   -2.0581    0.8092    2.1736 H   0  0  0  0  0  0  0  0  0  0  0  0
   -0.9568    0.9369    3.9933 C   0  0  0  0  0  0  0  0  0  0  0  0
   -0.1600    1.6750    4.1097 H   0  0  0  0  0  0  0  0  0  0  0  0
   -1.8775    1.3307    4.4266 H   0  0  0  0  0  0  0  0  0  0  0  0
   -0.6678    0.0287    4.5244 H   0  0  0  0  0  0  0  0  0  0  0  0
  5  6  2  0  0  0  0
  5  7  1  0  0  0  0
  2  3  1  0  0  0  0
  2  4  1  0  0  0  0
  2  5  1  0  0  0  0
  1  2  1  0  0  0  0
 24 25  2  0  0  0  0
 24 26  1  0  0  0  0
 20 21  1  0  0  0  0
 20 22  1  0  0  0  0
 20 23  1  0  0  0  0
 16 17  1  0  0  0  0
 16 18  1  0  0  0  0
 16 19  1  0  0  0  0
 14 15  1  0  0  0  0
 14 16  1  0  0  0  0
 14 20  1  0  0  0  0
 11 12  1  0  0  0  0
 11 13  1  0  0  0  0
 11 14  1  0  0  0  0
  9 10  1  0  0  0  0
  9 11  1  0  0  0  0
  9 24  1  0  0  0  0
  7  8  1  0  0  0  0
  7  9  1  0  0  0  0
 28 29  1  0  0  0  0
 28 30  1  0  0  0  0
 28 31  1  0  0  0  0
 26 27  1  0  0  0  0
 26 28  1  0  0  0  0
M  END
$$$$
default_name
  -OEChem-02102213163D

 31 30  0     1  0  0  0  0  0999 V2000
   -3.5895   -3.5013    1.1082 H   0  0  0  0  0  0  0  0  0  0  0  0
   -3.5145   -2.5363    0.6082 C   0  0  0  0  0  0  0  0  0  0  0  0
   -4.2285   -1.8413    1.0452 H   0  0  0  0  0  0  0  0  0  0  0  0
   -3.7155   -2.6583   -0.4538 H   0  0  0  0  0  0  0  0  0  0  0  0
   -2.1155   -1.9963    0.7922 C   0  0  0  0  0  0  0  0  0  0  0  0
   -1.2875   -2.6383    1.4252 O   0  0  0  0  0  0  0  0  0  0  0  0
   -1.8575   -0.8123    0.2402 N   0  0  0  0  0  0  0  0  0  0  0  0
   -2.6005   -0.3333   -0.2478 H   0  0  0  0  0  0  0  0  0  0  0  0
   -0.5675   -0.1203    0.3102 C   0  0  1  0  0  0  0  0  0  0  0  0
    0.1932   -0.7715   -0.1219 H   0  0  0  0  0  0  0  0  0  0  0  0
   -0.6568    1.1713   -0.5294 C   0  0  0  0  0  0  0  0  0  0  0  0
    0.3255    1.3761   -0.9596 H   0  0  0  0  0  0  0  0  0  0  0  0
   -1.3481    0.9897   -1.3553 H   0  0  0  0  0  0  0  0  0  0  0  0
   -1.1297    2.4281    0.2239 C   0  0  0  0  0  0  0  0  0  0  0  0
   -2.0288    2.8239   -0.2486 H   0  0  0  0  0  0  0  0  0  0  0  0
   -1.4269    2.1421    1.6987 C   0  0  0  0  0  0  0  0  0  0  0  0
   -0.5401    1.7297    2.1821 H   0  0  0  0  0  0  0  0  0  0  0  0
   -1.7099    3.0667    2.2022 H   0  0  0  0  0  0  0  0  0  0  0  0
   -2.2462    1.4330    1.7950 H   0  0  0  0  0  0  0  0  0  0  0  0
   -0.0482    3.5059    0.1600 C   0  0  0  0  0  0  0  0  0  0  0  0
    0.1618    3.7535   -0.8805 H   0  0  0  0  0  0  0  0  0  0  0  0
   -0.3917    4.4065    0.6689 H   0  0  0  0  0  0  0  0  0  0  0  0
    0.8657    3.1496    0.6367 H   0  0  0  0  0  0  0  0  0  0  0  0
   -0.1913    0.1554    1.7759 C   0  0  0  0  0  0  0  0  0  0  0  0
    0.9476   -0.0766    2.1748 O   0  0  0  0  0  0  0  0  0  0  0  0
   -1.1502    0.6393    2.5760 N   0  0  0  0  0  0  0  0  0  0  0  0
   -2.0581    0.8092    2.1736 H   0  0  0  0  0  0  0  0  0  0  0  0
   -0.9568    0.9369    3.9933 C   0  0  0  0  0  0  0  0  0  0  0  0
   -0.1600    1.6750    4.1097 H   0  0  0  0  0  0  0  0  0  0  0  0
   -1.8775    1.3307    4.4266 H   0  0  0  0  0  0  0  0  0  0  0  0
   -0.6678    0.0287    4.5244 H   0  0  0  0  0  0  0  0  0  0  0  0
  5  6  2  0  0  0  0
  5  7  1  0  0  0  0
  2  3  1  0  0  0  0
  2  4  1  0  0  0  0
  2  5  1  0  0  0  0
  1  2  1  0  0  0  0
 24 25  2  0  0  0  0
 24 26  1  0  0  0  0
 20 21  1  0  0  0  0
 20 22  1  0  0  0  0
 20 23  1  0  0  0  0
 16 17  1  0  0  0  0
 16 18  1  0  0  0  0
 16 19  1  0  0  0  0
 14 15  1  0  0  0  0
 14 16  1  0  0  0  0
 14 20  1  0  0  0  0
 11 12  1  0  0  0  0
 11 13  1  0  0  0  0
 11 14  1  0  0  0  0
  9 10  1  0  0  0  0
  9 11  1  0  0  0  0
  9 24  1  0  0  0  0
  7  8  1  0  0  0  0
  7  9  1  0  0  0  0
 28 29  1  0  0  0  0
 28 30  1  0  0  0  0
 28 31  1  0  0  0  0
 26 27  1  0  0  0  0
 26 28  1  0  0  0  0
M  END
$$$$
default_name
  -OEChem-02102213163D

 31 30  0     1  0  0  0  0  0999 V2000
   -3.5895   -3.5013    1.1082 H   0  0  0  0  0  0  0  0  0  0  0  0
   -3.5145   -2.5363    0.6082 C   0  0  0  0  0  0  0  0  0  0  0  0
   -4.2285   -1.8413    1.0452 H   0  0  0  0  0  0  0  0  0  0  0  0
   -3.7155   -2.6583   -0.4538 H   0  0  0  0  0  0  0  0  0  0  0  0
   -2.1155   -1.9963    0.7922 C   0  0  0  0  0  0  0  0  0  0  0  0
   -1.2875   -2.6383    1.4252 O   0  0  0  0  0  0  0  0  0  0  0  0
   -1.8575   -0.8123    0.2402 N   0  0  0  0  0  0  0  0  0  0  0  0
   -2.6005   -0.3333   -0.2478 H   0  0  0  0  0  0  0  0  0  0  0  0
   -0.5675   -0.1203    0.3102 C   0  0  1  0  0  0  0  0  0  0  0  0
    0.1932   -0.7715   -0.1219 H   0  0  0  0  0  0  0  0  0  0  0  0
   -0.6568    1.1713   -0.5294 C   0  0  0  0  0  0  0  0  0  0  0  0
    0.3255    1.3761   -0.9596 H   0  0  0  0  0  0  0  0  0  0  0  0
   -1.3481    0.9897   -1.3553 H   0  0  0  0  0  0  0  0  0  0  0  0
   -1.1297    2.4281    0.2239 C   0  0  0  0  0  0  0  0  0  0  0  0
   -2.1519    2.6693   -0.0678 H   0  0  0  0  0  0  0  0  0  0  0  0
   -1.0750    2.2476    1.7436 C   0  0  0  0  0  0  0  0  0  0  0  0
   -0.0602    1.9896    2.0498 H   0  0  0  0  0  0  0  0  0  0  0  0
   -1.3705    3.1751    2.2344 H   0  0  0  0  0  0  0  0  0  0  0  0
   -1.7534    1.4588    2.0615 H   0  0  0  0  0  0  0  0  0  0  0  0
   -0.2404    3.6154   -0.1434 C   0  0  0  0  0  0  0  0  0  0  0  0
   -0.2849    3.7881   -1.2187 H   0  0  0  0  0  0  0  0  0  0  0  0
   -0.5902    4.5126    0.3673 H   0  0  0  0  0  0  0  0  0  0  0  0
    0.7917    3.4155    0.1466 H   0  0  0  0  0  0  0  0  0  0  0  0
   -0.1913    0.1554    1.7759 C   0  0  0  0  0  0  0  0  0  0  0  0
    0.9476   -0.0766    2.1748 O   0  0  0  0  0  0  0  0  0  0  0  0
   -1.1502    0.6393    2.5760 N   0  0  0  0  0  0  0  0  0  0  0  0
   -2.0581    0.8092    2.1736 H   0  0  0  0  0  0  0  0  0  0  0  0
   -0.9568    0.9369    3.9933 C   0  0  0  0  0  0  0  0  0  0  0  0
   -0.1600    1.6750    4.1097 H   0  0  0  0  0  0  0  0  0  0  0  0
   -1.8775    1.3307    4.4266 H   0  0  0  0  0  0  0  0  0  0  0  0
   -0.6678    0.0287    4.5244 H   0  0  0  0  0  0  0  0  0  0  0  0
  5  6  2  0  0  0  0
  5  7  1  0  0  0  0
  2  3  1  0  0  0  0
  2  4  1  0  0  0  0
  2  5  1  0  0  0  0
  1  2  1  0  0  0  0
 24 25  2  0  0  0  0
 24 26  1  0  0  0  0
 20 21  1  0  0  0  0
 20 22  1  0  0  0  0
 20 23  1  0  0  0  0
 16 17  1  0  0  0  0
 16 18  1  0  0  0  0
 16 19  1  0  0  0  0
 14 15  1  0  0  0  0
 14 16  1  0  0  0  0
 14 20  1  0  0  0  0
 11 12  1  0  0  0  0
 11 13  1  0  0  0  0
 11 14  1  0  0  0  0
  9 10  1  0  0  0  0
  9 11  1  0  0  0  0
  9 24  1  0  0  0  0
  7  8  1  0  0  0  0
  7  9  1  0  0  0  0
 28 29  1  0  0  0  0
 28 30  1  0  0  0  0
 28 31  1  0  0  0  0
 26 27  1  0  0  0  0
 26 28  1  0  0  0  0
M  END
$$$$
default_name
  -OEChem-02102213163D

 31 30  0     1  0  0  0  0  0999 V2000
   -3.5895   -3.5013    1.1082 H   0  0  0  0  0  0  0  0  0  0  0  0
   -3.5145   -2.5363    0.6082 C   0  0  0  0  0  0  0  0  0  0  0  0
   -4.2285   -1.8413    1.0452 H   0  0  0  0  0  0  0  0  0  0  0  0
   -3.7155   -2.6583   -0.4538 H   0  0  0  0  0  0  0  0  0  0  0  0
   -2.1155   -1.9963    0.7922 C   0  0  0  0  0  0  0  0  0  0  0  0
   -1.2875   -2.6383    1.4252 O   0  0  0  0  0  0  0  0  0  0  0  0
   -1.8575   -0.8123    0.2402 N   0  0  0  0  0  0  0  0  0  0  0  0
   -2.6005   -0.3333   -0.2478 H   0  0  0  0  0  0  0  0  0  0  0  0
   -0.5675   -0.1203    0.3102 C   0  0  1  0  0  0  0  0  0  0  0  0
    0.1932   -0.7715   -0.1219 H   0  0  0  0  0  0  0  0  0  0  0  0
   -0.6568    1.1713   -0.5294 C   0  0  0  0  0  0  0  0  0  0  0  0
    0.3255    1.3761   -0.9596 H   0  0  0  0  0  0  0  0  0  0  0  0
   -1.3481    0.9897   -1.3553 H   0  0  0  0  0  0  0  0  0  0  0  0
   -1.1297    2.4281    0.2239 C   0  0  0  0  0  0  0  0  0  0  0  0
   -2.2131    2.5187    0.1450 H   0  0  0  0  0  0  0  0  0  0  0  0
   -0.7390    2.3976    1.7043 C   0  0  0  0  0  0  0  0  0  0  0  0
    0.3424    2.2909    1.7999 H   0  0  0  0  0  0  0  0  0  0  0  0
   -1.0496    3.3254    2.1852 H   0  0  0  0  0  0  0  0  0  0  0  0
   -1.2243    1.5673    2.2127 H   0  0  0  0  0  0  0  0  0  0  0  0
   -0.5040    3.6727   -0.4046 C   0  0  0  0  0  0  0  0  0  0  0  0
   -0.7921    3.7381   -1.4537 H   0  0  0  0  0  0  0  0  0  0  0  0
   -0.8590    4.5659    0.1095 H   0  0  0  0  0  0  0  0  0  0  0  0
    0.5831    3.6240   -0.3322 H   0  0  0  0  0  0  0  0  0  0  0  0
   -0.1913    0.1554    1.7759 C   0  0  0  0  0  0  0  0  0  0  0  0
    0.9476   -0.0766    2.1748 O   0  0  0  0  0  0  0  0  0  0  0  0
   -1.1502    0.6393    2.5760 N   0  0  0  0  0  0  0  0  0  0  0  0
   -2.0581    0.8092    2.1736 H   0  0  0  0  0  0  0  0  0  0  0  0
   -0.9568    0.9369    3.9933 C   0  0  0  0  0  0  0  0  0  0  0  0
   -0.1600    1.6750    4.1097 H   0  0  0  0  0  0  0  0  0  0  0  0
   -1.8775    1.3307    4.4266 H   0  0  0  0  0  0  0  0  0  0  0  0
   -0.6678    0.0287    4.5244 H   0  0  0  0  0  0  0  0  0  0  0  0
  5  6  2  0  0  0  0
  5  7  1  0  0  0  0
  2  3  1  0  0  0  0
  2  4  1  0  0  0  0
  2  5  1  0  0  0  0
  1  2  1  0  0  0  0
 24 25  2  0  0  0  0
 24 26  1  0  0  0  0
 20 21  1  0  0  0  0
 20 22  1  0  0  0  0
 20 23  1  0  0  0  0
 16 17  1  0  0  0  0
 16 18  1  0  0  0  0
 16 19  1  0  0  0  0
 14 15  1  0  0  0  0
 14 16  1  0  0  0  0
 14 20  1  0  0  0  0
 11 12  1  0  0  0  0
 11 13  1  0  0  0  0
 11 14  1  0  0  0  0
  9 10  1  0  0  0  0
  9 11  1  0  0  0  0
  9 24  1  0  0  0  0
  7  8  1  0  0  0  0
  7  9  1  0  0  0  0
 28 29  1  0  0  0  0
 28 30  1  0  0  0  0
 28 31  1  0  0  0  0
 26 27  1  0  0  0  0
 26 28  1  0  0  0  0
M  END
$$$$
default_name
  -OEChem-02102213163D

 31 30  0     1  0  0  0  0  0999 V2000
   -3.5895   -3.5013    1.1082 H   0  0  0  0  0  0  0  0  0  0  0  0
   -3.5145   -2.5363    0.6082 C   0  0  0  0  0  0  0  0  0  0  0  0
   -4.2285   -1.8413    1.0452 H   0  0  0  0  0  0  0  0  0  0  0  0
   -3.7155   -2.6583   -0.4538 H   0  0  0  0  0  0  0  0  0  0  0  0
   -2.1155   -1.9963    0.7922 C   0  0  0  0  0  0  0  0  0  0  0  0
   -1.2875   -2.6383    1.4252 O   0  0  0  0  0  0  0  0  0  0  0  0
   -1.8575   -0.8123    0.2402 N   0  0  0  0  0  0  0  0  0  0  0  0
   -2.6005   -0.3333   -0.2478 H   0  0  0  0  0  0  0  0  0  0  0  0
   -0.5675   -0.1203    0.3102 C   0  0  1  0  0  0  0  0  0  0  0  0
    0.1932   -0.7715   -0.1219 H   0  0  0  0  0  0  0  0  0  0  0  0
   -0.6568    1.1713   -0.5294 C   0  0  0  0  0  0  0  0  0  0  0  0
    0.3255    1.3761   -0.9596 H   0  0  0  0  0  0  0  0  0  0  0  0
   -1.3481    0.9897   -1.3553 H   0  0  0  0  0  0  0  0  0  0  0  0
   -1.1297    2.4281    0.2239 C   0  0  0  0  0  0  0  0  0  0  0  0
   -2.2082    2.3824    0.3755 H   0  0  0  0  0  0  0  0  0  0  0  0
   -0.4417    2.5819    1.5834 C   0  0  0  0  0  0  0  0  0  0  0  0
    0.6404    2.6131    1.4495 H   0  0  0  0  0  0  0  0  0  0  0  0
   -0.7690    3.5073    2.0579 H   0  0  0  0  0  0  0  0  0  0  0  0
   -0.6950    1.7511    2.2383 H   0  0  0  0  0  0  0  0  0  0  0  0
   -0.8211    3.6739   -0.6057 C   0  0  0  0  0  0  0  0  0  0  0  0
   -1.3254    3.6069   -1.5696 H   0  0  0  0  0  0  0  0  0  0  0  0
   -1.1799    4.5630   -0.0870 H   0  0  0  0  0  0  0  0  0  0  0  0
    0.2539    3.7608   -0.7672 H   0  0  0  0  0  0  0  0  0  0  0  0
   -0.1913    0.1554    1.7759 C   0  0  0  0  0  0  0  0  0  0  0  0
    0.9476   -0.0766    2.1748 O   0  0  0  0  0  0  0  0  0  0  0  0
   -1.1502    0.6393    2.5760 N   0  0  0  0  0  0  0  0  0  0  0  0
   -2.0581    0.8092    2.1736 H   0  0  0  0  0  0  0  0  0  0  0  0
   -0.9568    0.9369    3.9933 C   0  0  0  0  0  0  0  0  0  0  0  0
   -0.1600    1.6750    4.1097 H   0  0  0  0  0  0  0  0  0  0  0  0
   -1.8775    1.3307    4.4266 H   0  0  0  0  0  0  0  0  0  0  0  0
   -0.6678    0.0287    4.5244 H   0  0  0  0  0  0  0  0  0  0  0  0
  5  6  2  0  0  0  0
  5  7  1  0  0  0  0
  2  3  1  0  0  0  0
  2  4  1  0  0  0  0
  2  5  1  0  0  0  0
  1  2  1  0  0  0  0
 24 25  2  0  0  0  0
 24 26  1  0  0  0  0
 20 21  1  0  0  0  0
 20 22  1  0  0  0  0
 20 23  1  0  0  0  0
 16 17  1  0  0  0  0
 16 18  1  0  0  0  0
 16 19  1  0  0  0  0
 14 15  1  0  0  0  0
 14 16  1  0  0  0  0
 14 20  1  0  0  0  0
 11 12  1  0  0  0  0
 11 13  1  0  0  0  0
 11 14  1  0  0  0  0
  9 10  1  0  0  0  0
  9 11  1  0  0  0  0
  9 24  1  0  0  0  0
  7  8  1  0  0  0  0
  7  9  1  0  0  0  0
 28 29  1  0  0  0  0
 28 30  1  0  0  0  0
 28 31  1  0  0  0  0
 26 27  1  0  0  0  0
 26 28  1  0  0  0  0
M  END
$$$$
default_name
  -OEChem-02102213163D

 31 30  0     1  0  0  0  0  0999 V2000
   -3.5895   -3.5013    1.1082 H   0  0  0  0  0  0  0  0  0  0  0  0
   -3.5145   -2.5363    0.6082 C   0  0  0  0  0  0  0  0  0  0  0  0
   -4.2285   -1.8413    1.0452 H   0  0  0  0  0  0  0  0  0  0  0  0
   -3.7155   -2.6583   -0.4538 H   0  0  0  0  0  0  0  0  0  0  0  0
   -2.1155   -1.9963    0.7922 C   0  0  0  0  0  0  0  0  0  0  0  0
   -1.2875   -2.6383    1.4252 O   0  0  0  0  0  0  0  0  0  0  0  0
   -1.8575   -0.8123    0.2402 N   0  0  0  0  0  0  0  0  0  0  0  0
   -2.6005   -0.3333   -0.2478 H   0  0  0  0  0  0  0  0  0  0  0  0
   -0.5675   -0.1203    0.3102 C   0  0  1  0  0  0  0  0  0  0  0  0
    0.1932   -0.7715   -0.1219 H   0  0  0  0  0  0  0  0  0  0  0  0
   -0.6568    1.1713   -0.5294 C   0  0  0  0  0  0  0  0  0  0  0  0
    0.3255    1.3761   -0.9596 H   0  0  0  0  0  0  0  0  0  0  0  0
   -1.3481    0.9897   -1.3553 H   0  0  0  0  0  0  0  0  0  0  0  0
   -1.1297    2.4281    0.2239 C   0  0  0  0  0  0  0  0  0  0  0  0
   -2.1374    2.2697    0.6080 H   0  0  0  0  0  0  0  0  0  0  0  0
   -0.2035    2.7880    1.3891 C   0  0  0  0  0  0  0  0  0  0  0  0
    0.8135    2.9341    1.0226 H   0  0  0  0  0  0  0  0  0  0  0  0
   -0.5480    3.7084    1.8612 H   0  0  0  0  0  0  0  0  0  0  0  0
   -0.2017    1.9977    2.1366 H   0  0  0  0  0  0  0  0  0  0  0  0
   -1.1700    3.6190   -0.7331 C   0  0  0  0  0  0  0  0  0  0  0  0
   -1.8484    3.4034   -1.5584 H   0  0  0  0  0  0  0  0  0  0  0  0
   -1.5310    4.5038   -0.2088 H   0  0  0  0  0  0  0  0  0  0  0  0
   -0.1732    3.8168   -1.1288 H   0  0  0  0  0  0  0  0  0  0  0  0
   -0.1913    0.1554    1.7759 C   0  0  0  0  0  0  0  0  0  0  0  0
    0.9476   -0.0766    2.1748 O   0  0  0  0  0  0  0  0  0  0  0  0
   -1.1502    0.6393    2.5760 N   0  0  0  0  0  0  0  0  0  0  0  0
   -2.0581    0.8092    2.1736 H   0  0  0  0  0  0  0  0  0  0  0  0
   -0.9568    0.9369    3.9933 C   0  0  0  0  0  0  0  0  0  0  0  0
   -0.1600    1.6750    4.1097 H   0  0  0  0  0  0  0  0  0  0  0  0
   -1.8775    1.3307    4.4266 H   0  0  0  0  0  0  0  0  0  0  0  0
   -0.6678    0.0287    4.5244 H   0  0  0  0  0  0  0  0  0  0  0  0
  5  6  2  0  0  0  0
  5  7  1  0  0  0  0
  2  3  1  0  0  0  0
  2  4  1  0  0  0  0
  2  5  1  0  0  0  0
  1  2  1  0  0  0  0
 24 25  2  0  0  0  0
 24 26  1  0  0  0  0
 20 21  1  0  0  0  0
 20 22  1  0  0  0  0
 20 23  1  0  0  0  0
 16 17  1  0  0  0  0
 16 18  1  0  0  0  0
 16 19  1  0  0  0  0
 14 15  1  0  0  0  0
 14 16  1  0  0  0  0
 14 20  1  0  0  0  0
 11 12  1  0  0  0  0
 11 13  1  0  0  0  0
 11 14  1  0  0  0  0
  9 10  1  0  0  0  0
  9 11  1  0  0  0  0
  9 24  1  0  0  0  0
  7  8  1  0  0  0  0
  7  9  1  0  0  0  0
 28 29  1  0  0  0  0
 28 30  1  0  0  0  0
 28 31  1  0  0  0  0
 26 27  1  0  0  0  0
 26 28  1  0  0  0  0
M  END
$$$$
default_name
  -OEChem-02102213163D

 31 30  0     1  0  0  0  0  0999 V2000
   -3.5895   -3.5013    1.1082 H   0  0  0  0  0  0  0  0  0  0  0  0
   -3.5145   -2.5363    0.6082 C   0  0  0  0  0  0  0  0  0  0  0  0
   -4.2285   -1.8413    1.0452 H   0  0  0  0  0  0  0  0  0  0  0  0
   -3.7155   -2.6583   -0.4538 H   0  0  0  0  0  0  0  0  0  0  0  0
   -2.1155   -1.9963    0.7922 C   0  0  0  0  0  0  0  0  0  0  0  0
   -1.2875   -2.6383    1.4252 O   0  0  0  0  0  0  0  0  0  0  0  0
   -1.8575   -0.8123    0.2402 N   0  0  0  0  0  0  0  0  0  0  0  0
   -2.6005   -0.3333   -0.2478 H   0  0  0  0  0  0  0  0  0  0  0  0
   -0.5675   -0.1203    0.3102 C   0  0  1  0  0  0  0  0  0  0  0  0
    0.1932   -0.7715   -0.1219 H   0  0  0  0  0  0  0  0  0  0  0  0
   -0.6568    1.1713   -0.5294 C   0  0  0  0  0  0  0  0  0  0  0  0
    0.3255    1.3761   -0.9596 H   0  0  0  0  0  0  0  0  0  0  0  0
   -1.3481    0.9897   -1.3553 H   0  0  0  0  0  0  0  0  0  0  0  0
   -1.1297    2.4281    0.2239 C   0  0  0  0  0  0  0  0  0  0  0  0
   -2.0058    2.1883    0.8265 H   0  0  0  0  0  0  0  0  0  0  0  0
   -0.0405    3.0018    1.1348 C   0  0  0  0  0  0  0  0  0  0  0  0
    0.8498    3.2322    0.5480 H   0  0  0  0  0  0  0  0  0  0  0  0
   -0.4014    3.9150    1.6085 H   0  0  0  0  0  0  0  0  0  0  0  0
    0.2222    2.2902    1.9146 H   0  0  0  0  0  0  0  0  0  0  0  0
   -1.5270    3.5116   -0.7780 C   0  0  0  0  0  0  0  0  0  0  0  0
   -2.3255    3.1414   -1.4210 H   0  0  0  0  0  0  0  0  0  0  0  0
   -1.8883    4.3925   -0.2475 H   0  0  0  0  0  0  0  0  0  0  0  0
   -0.6693    3.7880   -1.3922 H   0  0  0  0  0  0  0  0  0  0  0  0
   -0.1913    0.1554    1.7759 C   0  0  0  0  0  0  0  0  0  0  0  0
    0.9476   -0.0766    2.1748 O   0  0  0  0  0  0  0  0  0  0  0  0
   -1.1502    0.6393    2.5760 N   0  0  0  0  0  0  0  0  0  0  0  0
   -2.0581    0.8092    2.1736 H   0  0  0  0  0  0  0  0  0  0  0  0
   -0.9568    0.9369    3.9933 C   0  0  0  0  0  0  0  0  0  0  0  0
   -0.1600    1.6750    4.1097 H   0  0  0  0  0  0  0  0  0  0  0  0
   -1.8775    1.3307    4.4266 H   0  0  0  0  0  0  0  0  0  0  0  0
   -0.6678    0.0287    4.5244 H   0  0  0  0  0  0  0  0  0  0  0  0
  5  6  2  0  0  0  0
  5  7  1  0  0  0  0
  2  3  1  0  0  0  0
  2  4  1  0  0  0  0
  2  5  1  0  0  0  0
  1  2  1  0  0  0  0
 24 25  2  0  0  0  0
 24 26  1  0  0  0  0
 20 21  1  0  0  0  0
 20 22  1  0  0  0  0
 20 23  1  0  0  0  0
 16 17  1  0  0  0  0
 16 18  1  0  0  0  0
 16 19  1  0  0  0  0
 14 15  1  0  0  0  0
 14 16  1  0  0  0  0
 14 20  1  0  0  0  0
 11 12  1  0  0  0  0
 11 13  1  0  0  0  0
 11 14  1  0  0  0  0
  9 10  1  0  0  0  0
  9 11  1  0  0  0  0
  9 24  1  0  0  0  0
  7  8  1  0  0  0  0
  7  9  1  0  0  0  0
 28 29  1  0  0  0  0
 28 30  1  0  0  0  0
 28 31  1  0  0  0  0
 26 27  1  0  0  0  0
 26 28  1  0  0  0  0
M  END
$$$$
default_name
  -OEChem-02102213163D

 31 30  0     1  0  0  0  0  0999 V2000
   -3.5895   -3.5013    1.1082 H   0  0  0  0  0  0  0  0  0  0  0  0
   -3.5145   -2.5363    0.6082 C   0  0  0  0  0  0  0  0  0  0  0  0
   -4.2285   -1.8413    1.0452 H   0  0  0  0  0  0  0  0  0  0  0  0
   -3.7155   -2.6583   -0.4538 H   0  0  0  0  0  0  0  0  0  0  0  0
   -2.1155   -1.9963    0.7922 C   0  0  0  0  0  0  0  0  0  0  0  0
   -1.2875   -2.6383    1.4252 O   0  0  0  0  0  0  0  0  0  0  0  0
   -1.8575   -0.8123    0.2402 N   0  0  0  0  0  0  0  0  0  0  0  0
   -2.6005   -0.3333   -0.2478 H   0  0  0  0  0  0  0  0  0  0  0  0
   -0.5675   -0.1203    0.3102 C   0  0  1  0  0  0  0  0  0  0  0  0
    0.1932   -0.7715   -0.1219 H   0  0  0  0  0  0  0  0  0  0  0  0
   -0.6568    1.1713   -0.5294 C   0  0  0  0  0  0  0  0  0  0  0  0
    0.3255    1.3761   -0.9596 H   0  0  0  0  0  0  0  0  0  0  0  0
   -1.3481    0.9897   -1.3553 H   0  0  0  0  0  0  0  0  0  0  0  0
   -1.1297    2.4281    0.2239 C   0  0  0  0  0  0  0  0  0  0  0  0
   -1.8221    2.1437    1.0162 H   0  0  0  0  0  0  0  0  0  0  0  0
    0.0361    3.2087    0.8377 C   0  0  0  0  0  0  0  0  0  0  0  0
    0.7468    3.4869    0.0583 H   0  0  0  0  0  0  0  0  0  0  0  0
   -0.3394    4.1130    1.3170 H   0  0  0  0  0  0  0  0  0  0  0  0
    0.5477    2.6089    1.5873 H   0  0  0  0  0  0  0  0  0  0  0  0
   -1.8677    3.3591   -0.7375 C   0  0  0  0  0  0  0  0  0  0  0  0
   -2.7241    2.8390   -1.1666 H   0  0  0  0  0  0  0  0  0  0  0  0
   -2.2276    4.2367   -0.2006 H   0  0  0  0  0  0  0  0  0  0  0  0
   -1.2004    3.6764   -1.5396 H   0  0  0  0  0  0  0  0  0  0  0  0
   -0.1913    0.1554    1.7759 C   0  0  0  0  0  0  0  0  0  0  0  0
    0.9476   -0.0766    2.1748 O   0  0  0  0  0  0  0  0  0  0  0  0
   -1.1502    0.6393    2.5760 N   0  0  0  0  0  0  0  0  0  0  0  0
   -2.0581    0.8092    2.1736 H   0  0  0  0  0  0  0  0  0  0  0  0
   -0.9568    0.9369    3.9933 C   0  0  0  0  0  0  0  0  0  0  0  0
   -0.1600    1.6750    4.1097 H   0  0  0  0  0  0  0  0  0  0  0  0
   -1.8775    1.3307    4.4266 H   0  0  0  0  0  0  0  0  0  0  0  0
   -0.6678    0.0287    4.5244 H   0  0  0  0  0  0  0  0  0  0  0  0
  5  6  2  0  0  0  0
  5  7  1  0  0  0  0
  2  3  1  0  0  0  0
  2  4  1  0  0  0  0
  2  5  1  0  0  0  0
  1  2  1  0  0  0  0
 24 25  2  0  0  0  0
 24 26  1  0  0  0  0
 20 21  1  0  0  0  0
 20 22  1  0  0  0  0
 20 23  1  0  0  0  0
 16 17  1  0  0  0  0
 16 18  1  0  0  0  0
 16 19  1  0  0  0  0
 14 15  1  0  0  0  0
 14 16  1  0  0  0  0
 14 20  1  0  0  0  0
 11 12  1  0  0  0  0
 11 13  1  0  0  0  0
 11 14  1  0  0  0  0
  9 10  1  0  0  0  0
  9 11  1  0  0  0  0
  9 24  1  0  0  0  0
  7  8  1  0  0  0  0
  7  9  1  0  0  0  0
 28 29  1  0  0  0  0
 28 30  1  0  0  0  0
 28 31  1  0  0  0  0
 26 27  1  0  0  0  0
 26 28  1  0  0  0  0
M  END
$$$$
default_name
  -OEChem-02102213163D

 31 30  0     1  0  0  0  0  0999 V2000
   -3.5895   -3.5013    1.1082 H   0  0  0  0  0  0  0  0  0  0  0  0
   -3.5145   -2.5363    0.6082 C   0  0  0  0  0  0  0  0  0  0  0  0
   -4.2285   -1.8413    1.0452 H   0  0  0  0  0  0  0  0  0  0  0  0
   -3.7155   -2.6583   -0.4538 H   0  0  0  0  0  0  0  0  0  0  0  0
   -2.1155   -1.9963    0.7922 C   0  0  0  0  0  0  0  0  0  0  0  0
   -1.2875   -2.6383    1.4252 O   0  0  0  0  0  0  0  0  0  0  0  0
   -1.8575   -0.8123    0.2402 N   0  0  0  0  0  0  0  0  0  0  0  0
   -2.6005   -0.3333   -0.2478 H   0  0  0  0  0  0  0  0  0  0  0  0
   -0.5675   -0.1203    0.3102 C   0  0  1  0  0  0  0  0  0  0  0  0
    0.1932   -0.7715   -0.1219 H   0  0  0  0  0  0  0  0  0  0  0  0
   -0.6568    1.1713   -0.5294 C   0  0  0  0  0  0  0  0  0  0  0  0
    0.3255    1.3761   -0.9596 H   0  0  0  0  0  0  0  0  0  0  0  0
   -1.3481    0.9897   -1.3553 H   0  0  0  0  0  0  0  0  0  0  0  0
   -1.1297    2.4281    0.2239 C   0  0  0  0  0  0  0  0  0  0  0  0
   -1.5989    2.1389    1.1643 H   0  0  0  0  0  0  0  0  0  0  0  0
    0.0212    3.3946    0.5181 C   0  0  0  0  0  0  0  0  0  0  0  0
    0.5117    3.6811   -0.4132 H   0  0  0  0  0  0  0  0  0  0  0  0
   -0.3662    4.2890    1.0067 H   0  0  0  0  0  0  0  0  0  0  0  0
    0.7525    2.9318    1.1771 H   0  0  0  0  0  0  0  0  0  0  0  0
   -2.1689    3.1718   -0.6142 C   0  0  0  0  0  0  0  0  0  0  0  0
   -3.0170    2.5166   -0.8127 H   0  0  0  0  0  0  0  0  0  0  0  0
   -2.5257    4.0470   -0.0712 H   0  0  0  0  0  0  0  0  0  0  0  0
   -1.7305    3.4897   -1.5608 H   0  0  0  0  0  0  0  0  0  0  0  0
   -0.1913    0.1554    1.7759 C   0  0  0  0  0  0  0  0  0  0  0  0
    0.9476   -0.0766    2.1748 O   0  0  0  0  0  0  0  0  0  0  0  0
   -1.1502    0.6393    2.5760 N   0  0  0  0  0  0  0  0  0  0  0  0
   -2.0581    0.8092    2.1736 H   0  0  0  0  0  0  0  0  0  0  0  0
   -0.9568    0.9369    3.9933 C   0  0  0  0  0  0  0  0  0  0  0  0
   -0.1600    1.6750    4.1097 H   0  0  0  0  0  0  0  0  0  0  0  0
   -1.8775    1.3307    4.4266 H   0  0  0  0  0  0  0  0  0  0  0  0
   -0.6678    0.0287    4.5244 H   0  0  0  0  0  0  0  0  0  0  0  0
  5  6  2  0  0  0  0
  5  7  1  0  0  0  0
  2  3  1  0  0  0  0
  2  4  1  0  0  0  0
  2  5  1  0  0  0  0
  1  2  1  0  0  0  0
 24 25  2  0  0  0  0
 24 26  1  0  0  0  0
 20 21  1  0  0  0  0
 20 22  1  0  0  0  0
 20 23  1  0  0  0  0
 16 17  1  0  0  0  0
 16 18  1  0  0  0  0
 16 19  1  0  0  0  0
 14 15  1  0  0  0  0
 14 16  1  0  0  0  0
 14 20  1  0  0  0  0
 11 12  1  0  0  0  0
 11 13  1  0  0  0  0
 11 14  1  0  0  0  0
  9 10  1  0  0  0  0
  9 11  1  0  0  0  0
  9 24  1  0  0  0  0
  7  8  1  0  0  0  0
  7  9  1  0  0  0  0
 28 29  1  0  0  0  0
 28 30  1  0  0  0  0
 28 31  1  0  0  0  0
 26 27  1  0  0  0  0
 26 28  1  0  0  0  0
M  END
$$$$
default_name
  -OEChem-02102213163D

 31 30  0     1  0  0  0  0  0999 V2000
   -3.5895   -3.5013    1.1082 H   0  0  0  0  0  0  0  0  0  0  0  0
   -3.5145   -2.5363    0.6082 C   0  0  0  0  0  0  0  0  0  0  0  0
   -4.2285   -1.8413    1.0452 H   0  0  0  0  0  0  0  0  0  0  0  0
   -3.7155   -2.6583   -0.4538 H   0  0  0  0  0  0  0  0  0  0  0  0
   -2.1155   -1.9963    0.7922 C   0  0  0  0  0  0  0  0  0  0  0  0
   -1.2875   -2.6383    1.4252 O   0  0  0  0  0  0  0  0  0  0  0  0
   -1.8575   -0.8123    0.2402 N   0  0  0  0  0  0  0  0  0  0  0  0
   -2.6005   -0.3333   -0.2478 H   0  0  0  0  0  0  0  0  0  0  0  0
   -0.5675   -0.1203    0.3102 C   0  0  1  0  0  0  0  0  0  0  0  0
    0.1932   -0.7715   -0.1219 H   0  0  0  0  0  0  0  0  0  0  0  0
   -0.6568    1.1713   -0.5294 C   0  0  0  0  0  0  0  0  0  0  0  0
    0.3255    1.3761   -0.9596 H   0  0  0  0  0  0  0  0  0  0  0  0
   -1.3481    0.9897   -1.3553 H   0  0  0  0  0  0  0  0  0  0  0  0
   -1.1297    2.4281    0.2239 C   0  0  0  0  0  0  0  0  0  0  0  0
   -1.3515    2.1744    1.2605 H   0  0  0  0  0  0  0  0  0  0  0  0
   -0.0843    3.5469    0.1977 C   0  0  0  0  0  0  0  0  0  0  0  0
    0.1603    3.8013   -0.8345 H   0  0  0  0  0  0  0  0  0  0  0  0
   -0.4799    4.4308    0.6985 H   0  0  0  0  0  0  0  0  0  0  0  0
    0.8229    3.2371    0.7119 H   0  0  0  0  0  0  0  0  0  0  0  0
   -2.4102    2.9626   -0.4166 C   0  0  0  0  0  0  0  0  0  0  0  0
   -3.1844    2.1962   -0.3832 H   0  0  0  0  0  0  0  0  0  0  0  0
   -2.7623    3.8363    0.1318 H   0  0  0  0  0  0  0  0  0  0  0  0
   -2.2233    3.2405   -1.4545 H   0  0  0  0  0  0  0  0  0  0  0  0
   -0.1913    0.1554    1.7759 C   0  0  0  0  0  0  0  0  0  0  0  0
    0.9476   -0.0766    2.1748 O   0  0  0  0  0  0  0  0  0  0  0  0
   -1.1502    0.6393    2.5760 N   0  0  0  0  0  0  0  0  0  0  0  0
   -2.0581    0.8092    2.1736 H   0  0  0  0  0  0  0  0  0  0  0  0
   -0.9568    0.9369    3.9933 C   0  0  0  0  0  0  0  0  0  0  0  0
   -0.1600    1.6750    4.1097 H   0  0  0  0  0  0  0  0  0  0  0  0
   -1.8775    1.3307    4.4266 H   0  0  0  0  0  0  0  0  0  0  0  0
   -0.6678    0.0287    4.5244 H   0  0  0  0  0  0  0  0  0  0  0  0
  5  6  2  0  0  0  0
  5  7  1  0  0  0  0
  2  3  1  0  0  0  0
  2  4  1  0  0  0  0
  2  5  1  0  0  0  0
  1  2  1  0  0  0  0
 24 25  2  0  0  0  0
 24 26  1  0  0  0  0
 20 21  1  0  0  0  0
 20 22  1  0  0  0  0
 20 23  1  0  0  0  0
 16 17  1  0  0  0  0
 16 18  1  0  0  0  0
 16 19  1  0  0  0  0
 14 15  1  0  0  0  0
 14 16  1  0  0  0  0
 14 20  1  0  0  0  0
 11 12  1  0  0  0  0
 11 13  1  0  0  0  0
 11 14  1  0  0  0  0
  9 10  1  0  0  0  0
  9 11  1  0  0  0  0
  9 24  1  0  0  0  0
  7  8  1  0  0  0  0
  7  9  1  0  0  0  0
 28 29  1  0  0  0  0
 28 30  1  0  0  0  0
 28 31  1  0  0  0  0
 26 27  1  0  0  0  0
 26 28  1  0  0  0  0
M  END
$$$$
default_name
  -OEChem-02102213163D

 31 30  0     1  0  0  0  0  0999 V2000
   -3.5895   -3.5013    1.1082 H   0  0  0  0  0  0  0  0  0  0  0  0
   -3.5145   -2.5363    0.6082 C   0  0  0  0  0  0  0  0  0  0  0  0
   -4.2285   -1.8413    1.0452 H   0  0  0  0  0  0  0  0  0  0  0  0
   -3.7155   -2.6583   -0.4538 H   0  0  0  0  0  0  0  0  0  0  0  0
   -2.1155   -1.9963    0.7922 C   0  0  0  0  0  0  0  0  0  0  0  0
   -1.2875   -2.6383    1.4252 O   0  0  0  0  0  0  0  0  0  0  0  0
   -1.8575   -0.8123    0.2402 N   0  0  0  0  0  0  0  0  0  0  0  0
   -2.6005   -0.3333   -0.2478 H   0  0  0  0  0  0  0  0  0  0  0  0
   -0.5675   -0.1203    0.3102 C   0  0  1  0  0  0  0  0  0  0  0  0
    0.1932   -0.7715   -0.1219 H   0  0  0  0  0  0  0  0  0  0  0  0
   -0.6568    1.1713   -0.5294 C   0  0  0  0  0  0  0  0  0  0  0  0
    0.3255    1.3761   -0.9596 H   0  0  0  0  0  0  0  0  0  0  0  0
   -1.3481    0.9897   -1.3553 H   0  0  0  0  0  0  0  0  0  0  0  0
   -1.1297    2.4281    0.2239 C   0  0  0  0  0  0  0  0  0  0  0  0
   -1.0966    2.2476    1.2983 H   0  0  0  0  0  0  0  0  0  0  0  0
   -0.2732    3.6552   -0.1016 C   0  0  0  0  0  0  0  0  0  0  0  0
   -0.2832    3.8395   -1.1767 H   0  0  0  0  0  0  0  0  0  0  0  0
   -0.6728    4.5290    0.4136 H   0  0  0  0  0  0  0  0  0  0  0  0
    0.7539    3.5039    0.2235 H   0  0  0  0  0  0  0  0  0  0  0  0
   -2.5749    2.7457   -0.1582 C   0  0  0  0  0  0  0  0  0  0  0  0
   -3.2148    1.8997    0.0924 H   0  0  0  0  0  0  0  0  0  0  0  0
   -2.9212    3.6190    0.3947 H   0  0  0  0  0  0  0  0  0  0  0  0
   -2.6454    2.9459   -1.2279 H   0  0  0  0  0  0  0  0  0  0  0  0
   -0.1913    0.1554    1.7759 C   0  0  0  0  0  0  0  0  0  0  0  0
    0.9476   -0.0766    2.1748 O   0  0  0  0  0  0  0  0  0  0  0  0
   -1.1502    0.6393    2.5760 N   0  0  0  0  0  0  0  0  0  0  0  0
   -2.0581    0.8092    2.1736 H   0  0  0  0  0  0  0  0  0  0  0  0
   -0.9568    0.9369    3.9933 C   0  0  0  0  0  0  0  0  0  0  0  0
   -0.1600    1.6750    4.1097 H   0  0  0  0  0  0  0  0  0  0  0  0
   -1.8775    1.3307    4.4266 H   0  0  0  0  0  0  0  0  0  0  0  0
   -0.6678    0.0287    4.5244 H   0  0  0  0  0  0  0  0  0  0  0  0
  5  6  2  0  0  0  0
  5  7  1  0  0  0  0
  2  3  1  0  0  0  0
  2  4  1  0  0  0  0
  2  5  1  0  0  0  0
  1  2  1  0  0  0  0
 24 25  2  0  0  0  0
 24 26  1  0  0  0  0
 20 21  1  0  0  0  0
 20 22  1  0  0  0  0
 20 23  1  0  0  0  0
 16 17  1  0  0  0  0
 16 18  1  0  0  0  0
 16 19  1  0  0  0  0
 14 15  1  0  0  0  0
 14 16  1  0  0  0  0
 14 20  1  0  0  0  0
 11 12  1  0  0  0  0
 11 13  1  0  0  0  0
 11 14  1  0  0  0  0
  9 10  1  0  0  0  0
  9 11  1  0  0  0  0
  9 24  1  0  0  0  0
  7  8  1  0  0  0  0
  7  9  1  0  0  0  0
 28 29  1  0  0  0  0
 28 30  1  0  0  0  0
 28 31  1  0  0  0  0
 26 27  1  0  0  0  0
 26 28  1  0  0  0  0
M  END
$$$$
default_name
  -OEChem-02102213163D

 31 30  0     1  0  0  0  0  0999 V2000
   -3.5895   -3.5013    1.1082 H   0  0  0  0  0  0  0  0  0  0  0  0
   -3.5145   -2.5363    0.6082 C   0  0  0  0  0  0  0  0  0  0  0  0
   -4.2285   -1.8413    1.0452 H   0  0  0  0  0  0  0  0  0  0  0  0
   -3.7155   -2.6583   -0.4538 H   0  0  0  0  0  0  0  0  0  0  0  0
   -2.1155   -1.9963    0.7922 C   0  0  0  0  0  0  0  0  0  0  0  0
   -1.2875   -2.6383    1.4252 O   0  0  0  0  0  0  0  0  0  0  0  0
   -1.8575   -0.8123    0.2402 N   0  0  0  0  0  0  0  0  0  0  0  0
   -2.6005   -0.3333   -0.2478 H   0  0  0  0  0  0  0  0  0  0  0  0
   -0.5675   -0.1203    0.3102 C   0  0  1  0  0  0  0  0  0  0  0  0
    0.1932   -0.7715   -0.1219 H   0  0  0  0  0  0  0  0  0  0  0  0
   -0.6568    1.1713   -0.5294 C   0  0  0  0  0  0  0  0  0  0  0  0
    0.3255    1.3761   -0.9596 H   0  0  0  0  0  0  0  0  0  0  0  0
   -1.3481    0.9897   -1.3553 H   0  0  0  0  0  0  0  0  0  0  0  0
   -1.1297    2.4281    0.2239 C   0  0  0  0  0  0  0  0  0  0  0  0
   -0.8518    2.3536    1.2752 H   0  0  0  0  0  0  0  0  0  0  0  0
   -0.5326    3.7121   -0.3593 C   0  0  0  0  0  0  0  0  0  0  0  0
   -0.7888    3.7930   -1.4166 H   0  0  0  0  0  0  0  0  0  0  0  0
   -0.9318    4.5767    0.1714 H   0  0  0  0  0  0  0  0  0  0  0  0
    0.5503    3.7141   -0.2550 H   0  0  0  0  0  0  0  0  0  0  0  0
   -2.6520    2.5359    0.1435 C   0  0  0  0  0  0  0  0  0  0  0  0
   -3.1062    1.6473    0.5818 H   0  0  0  0  0  0  0  0  0  0  0  0
   -2.9917    3.4098    0.6994 H   0  0  0  0  0  0  0  0  0  0  0  0
   -2.9679    2.6258   -0.8964 H   0  0  0  0  0  0  0  0  0  0  0  0
   -0.1913    0.1554    1.7759 C   0  0  0  0  0  0  0  0  0  0  0  0
    0.9476   -0.0766    2.1748 O   0  0  0  0  0  0  0  0  0  0  0  0
   -1.1502    0.6393    2.5760 N   0  0  0  0  0  0  0  0  0  0  0  0
   -2.0581    0.8092    2.1736 H   0  0  0  0  0  0  0  0  0  0  0  0
   -0.9568    0.9369    3.9933 C   0  0  0  0  0  0  0  0  0  0  0  0
   -0.1600    1.6750    4.1097 H   0  0  0  0  0  0  0  0  0  0  0  0
   -1.8775    1.3307    4.4266 H   0  0  0  0  0  0  0  0  0  0  0  0
   -0.6678    0.0287    4.5244 H   0  0  0  0  0  0  0  0  0  0  0  0
  5  6  2  0  0  0  0
  5  7  1  0  0  0  0
  2  3  1  0  0  0  0
  2  4  1  0  0  0  0
  2  5  1  0  0  0  0
  1  2  1  0  0  0  0
 24 25  2  0  0  0  0
 24 26  1  0  0  0  0
 20 21  1  0  0  0  0
 20 22  1  0  0  0  0
 20 23  1  0  0  0  0
 16 17  1  0  0  0  0
 16 18  1  0  0  0  0
 16 19  1  0  0  0  0
 14 15  1  0  0  0  0
 14 16  1  0  0  0  0
 14 20  1  0  0  0  0
 11 12  1  0  0  0  0
 11 13  1  0  0  0  0
 11 14  1  0  0  0  0
  9 10  1  0  0  0  0
  9 11  1  0  0  0  0
  9 24  1  0  0  0  0
  7  8  1  0  0  0  0
  7  9  1  0  0  0  0
 28 29  1  0  0  0  0
 28 30  1  0  0  0  0
 28 31  1  0  0  0  0
 26 27  1  0  0  0  0
 26 28  1  0  0  0  0
M  END
$$$$
default_name
  -OEChem-02102213163D

 31 30  0     1  0  0  0  0  0999 V2000
   -3.5895   -3.5013    1.1082 H   0  0  0  0  0  0  0  0  0  0  0  0
   -3.5145   -2.5363    0.6082 C   0  0  0  0  0  0  0  0  0  0  0  0
   -4.2285   -1.8413    1.0452 H   0  0  0  0  0  0  0  0  0  0  0  0
   -3.7155   -2.6583   -0.4538 H   0  0  0  0  0  0  0  0  0  0  0  0
   -2.1155   -1.9963    0.7922 C   0  0  0  0  0  0  0  0  0  0  0  0
   -1.2875   -2.6383    1.4252 O   0  0  0  0  0  0  0  0  0  0  0  0
   -1.8575   -0.8123    0.2402 N   0  0  0  0  0  0  0  0  0  0  0  0
   -2.6005   -0.3333   -0.2478 H   0  0  0  0  0  0  0  0  0  0  0  0
   -0.5675   -0.1203    0.3102 C   0  0  1  0  0  0  0  0  0  0  0  0
    0.1932   -0.7715   -0.1219 H   0  0  0  0  0  0  0  0  0  0  0  0
   -0.6568    1.1713   -0.5294 C   0  0  0  0  0  0  0  0  0  0  0  0
    0.3255    1.3761   -0.9596 H   0  0  0  0  0  0  0  0  0  0  0  0
   -1.3481    0.9897   -1.3553 H   0  0  0  0  0  0  0  0  0  0  0  0
   -1.1297    2.4281    0.2239 C   0  0  0  0  0  0  0  0  0  0  0  0
   -0.6335    2.4852    1.1927 H   0  0  0  0  0  0  0  0  0  0  0  0
   -0.8448    3.7137   -0.5580 C   0  0  0  0  0  0  0  0  0  0  0  0
   -1.3220    3.6650   -1.5378 H   0  0  0  0  0  0  0  0  0  0  0  0
   -1.2391    4.5708   -0.0116 H   0  0  0  0  0  0  0  0  0  0  0  0
    0.2259    3.8532   -0.6909 H   0  0  0  0  0  0  0  0  0  0  0  0
   -2.6362    2.3474    0.4679 C   0  0  0  0  0  0  0  0  0  0  0  0
   -2.8658    1.4561    1.0516 H   0  0  0  0  0  0  0  0  0  0  0  0
   -2.9689    3.2230    1.0253 H   0  0  0  0  0  0  0  0  0  0  0  0
   -3.1688    2.3022   -0.4827 H   0  0  0  0  0  0  0  0  0  0  0  0
   -0.1913    0.1554    1.7759 C   0  0  0  0  0  0  0  0  0  0  0  0
    0.9476   -0.0766    2.1748 O   0  0  0  0  0  0  0  0  0  0  0  0
   -1.1502    0.6393    2.5760 N   0  0  0  0  0  0  0  0  0  0  0  0
   -2.0581    0.8092    2.1736 H   0  0  0  0  0  0  0  0  0  0  0  0
   -0.9568    0.9369    3.9933 C   0  0  0  0  0  0  0  0  0  0  0  0
   -0.1600    1.6750    4.1097 H   0  0  0  0  0  0  0  0  0  0  0  0
   -1.8775    1.3307    4.4266 H   0  0  0  0  0  0  0  0  0  0  0  0
   -0.6678    0.0287    4.5244 H   0  0  0  0  0  0  0  0  0  0  0  0
  5  6  2  0  0  0  0
  5  7  1  0  0  0  0
  2  3  1  0  0  0  0
  2  4  1  0  0  0  0
  2  5  1  0  0  0  0
  1  2  1  0  0  0  0
 24 25  2  0  0  0  0
 24 26  1  0  0  0  0
 20 21  1  0  0  0  0
 20 22  1  0  0  0  0
 20 23  1  0  0  0  0
 16 17  1  0  0  0  0
 16 18  1  0  0  0  0
 16 19  1  0  0  0  0
 14 15  1  0  0  0  0
 14 16  1  0  0  0  0
 14 20  1  0  0  0  0
 11 12  1  0  0  0  0
 11 13  1  0  0  0  0
 11 14  1  0  0  0  0
  9 10  1  0  0  0  0
  9 11  1  0  0  0  0
  9 24  1  0  0  0  0
  7  8  1  0  0  0  0
  7  9  1  0  0  0  0
 28 29  1  0  0  0  0
 28 30  1  0  0  0  0
 28 31  1  0  0  0  0
 26 27  1  0  0  0  0
 26 28  1  0  0  0  0
M  END
$$$$
default_name
  -OEChem-02102213163D

 31 30  0     1  0  0  0  0  0999 V2000
   -3.5895   -3.5013    1.1082 H   0  0  0  0  0  0  0  0  0  0  0  0
   -3.5145   -2.5363    0.6082 C   0  0  0  0  0  0  0  0  0  0  0  0
   -4.2285   -1.8413    1.0452 H   0  0  0  0  0  0  0  0  0  0  0  0
   -3.7155   -2.6583   -0.4538 H   0  0  0  0  0  0  0  0  0  0  0  0
   -2.1155   -1.9963    0.7922 C   0  0  0  0  0  0  0  0  0  0  0  0
   -1.2875   -2.6383    1.4252 O   0  0  0  0  0  0  0  0  0  0  0  0
   -1.8575   -0.8123    0.2402 N   0  0  0  0  0  0  0  0  0  0  0  0
   -2.6005   -0.3333   -0.2478 H   0  0  0  0  0  0  0  0  0  0  0  0
   -0.5675   -0.1203    0.3102 C   0  0  1  0  0  0  0  0  0  0  0  0
    0.1932   -0.7715   -0.1219 H   0  0  0  0  0  0  0  0  0  0  0  0
   -0.6568    1.1713   -0.5294 C   0  0  0  0  0  0  0  0  0  0  0  0
    0.2270    1.2342   -1.1673 H   0  0  0  0  0  0  0  0  0  0  0  0
   -1.5297    1.0905   -1.1809 H   0  0  0  0  0  0  0  0  0  0  0  0
   -0.7748    2.4823    0.2694 C   0  0  0  0  0  0  0  0  0  0  0  0
    0.0851    2.5891    0.9308 H   0  0  0  0  0  0  0  0  0  0  0  0
   -0.8578    3.7104   -0.6417 C   0  0  0  0  0  0  0  0  0  0  0  0
   -1.7052    3.6108   -1.3214 H   0  0  0  0  0  0  0  0  0  0  0  0
   -0.9894    4.6080   -0.0370 H   0  0  0  0  0  0  0  0  0  0  0  0
    0.0544    3.8188   -1.2245 H   0  0  0  0  0  0  0  0  0  0  0  0
   -2.0348    2.4487    1.1334 C   0  0  0  0  0  0  0  0  0  0  0  0
   -1.9886    1.6005    1.8164 H   0  0  0  0  0  0  0  0  0  0  0  0
   -2.1061    3.3642    1.7208 H   0  0  0  0  0  0  0  0  0  0  0  0
   -2.9200    2.3557    0.5033 H   0  0  0  0  0  0  0  0  0  0  0  0
   -0.1913    0.1554    1.7759 C   0  0  0  0  0  0  0  0  0  0  0  0
    0.9476   -0.0766    2.1748 O   0  0  0  0  0  0  0  0  0  0  0  0
   -1.1502    0.6393    2.5760 N   0  0  0  0  0  0  0  0  0  0  0  0
   -2.0581    0.8092    2.1736 H   0  0  0  0  0  0  0  0  0  0  0  0
   -0.9568    0.9369    3.9933 C   0  0  0  0  0  0  0  0  0  0  0  0
   -0.1600    1.6750    4.1097 H   0  0  0  0  0  0  0  0  0  0  0  0
   -1.8775    1.3307    4.4266 H   0  0  0  0  0  0  0  0  0  0  0  0
   -0.6678    0.0287    4.5244 H   0  0  0  0  0  0  0  0  0  0  0  0
  5  6  2  0  0  0  0
  5  7  1  0  0  0  0
  2  3  1  0  0  0  0
  2  4  1  0  0  0  0
  2  5  1  0  0  0  0
  1  2  1  0  0  0  0
 24 25  2  0  0  0  0
 24 26  1  0  0  0  0
 20 21  1  0  0  0  0
 20 22  1  0  0  0  0
 20 23  1  0  0  0  0
 16 17  1  0  0  0  0
 16 18  1  0  0  0  0
 16 19  1  0  0  0  0
 14 15  1  0  0  0  0
 14 16  1  0  0  0  0
 14 20  1  0  0  0  0
 11 12  1  0  0  0  0
 11 13  1  0  0  0  0
 11 14  1  0  0  0  0
  9 10  1  0  0  0  0
  9 11  1  0  0  0  0
  9 24  1  0  0  0  0
  7  8  1  0  0  0  0
  7  9  1  0  0  0  0
 28 29  1  0  0  0  0
 28 30  1  0  0  0  0
 28 31  1  0  0  0  0
 26 27  1  0  0  0  0
 26 28  1  0  0  0  0
M  END
$$$$
default_name
  -OEChem-02102213163D

 31 30  0     1  0  0  0  0  0999 V2000
   -3.5895   -3.5013    1.1082 H   0  0  0  0  0  0  0  0  0  0  0  0
   -3.5145   -2.5363    0.6082 C   0  0  0  0  0  0  0  0  0  0  0  0
   -4.2285   -1.8413    1.0452 H   0  0  0  0  0  0  0  0  0  0  0  0
   -3.7155   -2.6583   -0.4538 H   0  0  0  0  0  0  0  0  0  0  0  0
   -2.1155   -1.9963    0.7922 C   0  0  0  0  0  0  0  0  0  0  0  0
   -1.2875   -2.6383    1.4252 O   0  0  0  0  0  0  0  0  0  0  0  0
   -1.8575   -0.8123    0.2402 N   0  0  0  0  0  0  0  0  0  0  0  0
   -2.6005   -0.3333   -0.2478 H   0  0  0  0  0  0  0  0  0  0  0  0
   -0.5675   -0.1203    0.3102 C   0  0  1  0  0  0  0  0  0  0  0  0
    0.1932   -0.7715   -0.1219 H   0  0  0  0  0  0  0  0  0  0  0  0
   -0.6568    1.1713   -0.5294 C   0  0  0  0  0  0  0  0  0  0  0  0
    0.2270    1.2342   -1.1673 H   0  0  0  0  0  0  0  0  0  0  0  0
   -1.5297    1.0905   -1.1809 H   0  0  0  0  0  0  0  0  0  0  0  0
   -0.7748    2.4823    0.2694 C   0  0  0  0  0  0  0  0  0  0  0  0
    0.1862    2.7247    0.7231 H   0  0  0  0  0  0  0  0  0  0  0  0
   -1.2222    3.6561   -0.6065 C   0  0  0  0  0  0  0  0  0  0  0  0
   -2.1761    3.4219   -1.0809 H   0  0  0  0  0  0  0  0  0  0  0  0
   -1.3394    4.5490    0.0081 H   0  0  0  0  0  0  0  0  0  0  0  0
   -0.4833    3.8636   -1.3775 H   0  0  0  0  0  0  0  0  0  0  0  0
   -1.7983    2.3128    1.3915 C   0  0  0  0  0  0  0  0  0  0  0  0
   -1.4883    1.5025    2.0512 H   0  0  0  0  0  0  0  0  0  0  0  0
   -1.8635    3.2307    1.9756 H   0  0  0  0  0  0  0  0  0  0  0  0
   -2.7788    2.0817    0.9737 H   0  0  0  0  0  0  0  0  0  0  0  0
   -0.1913    0.1554    1.7759 C   0  0  0  0  0  0  0  0  0  0  0  0
    0.9476   -0.0766    2.1748 O   0  0  0  0  0  0  0  0  0  0  0  0
   -1.1502    0.6393    2.5760 N   0  0  0  0  0  0  0  0  0  0  0  0
   -2.0581    0.8092    2.1736 H   0  0  0  0  0  0  0  0  0  0  0  0
   -0.9568    0.9369    3.9933 C   0  0  0  0  0  0  0  0  0  0  0  0
   -0.1600    1.6750    4.1097 H   0  0  0  0  0  0  0  0  0  0  0  0
   -1.8775    1.3307    4.4266 H   0  0  0  0  0  0  0  0  0  0  0  0
   -0.6678    0.0287    4.5244 H   0  0  0  0  0  0  0  0  0  0  0  0
  5  6  2  0  0  0  0
  5  7  1  0  0  0  0
  2  3  1  0  0  0  0
  2  4  1  0  0  0  0
  2  5  1  0  0  0  0
  1  2  1  0  0  0  0
 24 25  2  0  0  0  0
 24 26  1  0  0  0  0
 20 21  1  0  0  0  0
 20 22  1  0  0  0  0
 20 23  1  0  0  0  0
 16 17  1  0  0  0  0
 16 18  1  0  0  0  0
 16 19  1  0  0  0  0
 14 15  1  0  0  0  0
 14 16  1  0  0  0  0
 14 20  1  0  0  0  0
 11 12  1  0  0  0  0
 11 13  1  0  0  0  0
 11 14  1  0  0  0  0
  9 10  1  0  0  0  0
  9 11  1  0  0  0  0
  9 24  1  0  0  0  0
  7  8  1  0  0  0  0
  7  9  1  0  0  0  0
 28 29  1  0  0  0  0
 28 30  1  0  0  0  0
 28 31  1  0  0  0  0
 26 27  1  0  0  0  0
 26 28  1  0  0  0  0
M  END
$$$$
default_name
  -OEChem-02102213163D

 31 30  0     1  0  0  0  0  0999 V2000
   -3.5895   -3.5013    1.1082 H   0  0  0  0  0  0  0  0  0  0  0  0
   -3.5145   -2.5363    0.6082 C   0  0  0  0  0  0  0  0  0  0  0  0
   -4.2285   -1.8413    1.0452 H   0  0  0  0  0  0  0  0  0  0  0  0
   -3.7155   -2.6583   -0.4538 H   0  0  0  0  0  0  0  0  0  0  0  0
   -2.1155   -1.9963    0.7922 C   0  0  0  0  0  0  0  0  0  0  0  0
   -1.2875   -2.6383    1.4252 O   0  0  0  0  0  0  0  0  0  0  0  0
   -1.8575   -0.8123    0.2402 N   0  0  0  0  0  0  0  0  0  0  0  0
   -2.6005   -0.3333   -0.2478 H   0  0  0  0  0  0  0  0  0  0  0  0
   -0.5675   -0.1203    0.3102 C   0  0  1  0  0  0  0  0  0  0  0  0
    0.1932   -0.7715   -0.1219 H   0  0  0  0  0  0  0  0  0  0  0  0
   -0.6568    1.1713   -0.5294 C   0  0  0  0  0  0  0  0  0  0  0  0
    0.2270    1.2342   -1.1673 H   0  0  0  0  0  0  0  0  0  0  0  0
   -1.5297    1.0905   -1.1809 H   0  0  0  0  0  0  0  0  0  0  0  0
   -0.7748    2.4823    0.2694 C   0  0  0  0  0  0  0  0  0  0  0  0
    0.2200    2.8652    0.4976 H   0  0  0  0  0  0  0  0  0  0  0  0
   -1.5591    3.5555   -0.4911 C   0  0  0  0  0  0  0  0  0  0  0  0
   -2.5526    3.1809   -0.7411 H   0  0  0  0  0  0  0  0  0  0  0  0
   -1.6596    4.4459    0.1299 H   0  0  0  0  0  0  0  0  0  0  0  0
   -1.0424    3.8317   -1.4077 H   0  0  0  0  0  0  0  0  0  0  0  0
   -1.4948    2.2184    1.5913 C   0  0  0  0  0  0  0  0  0  0  0  0
   -0.9402    1.4796    2.1698 H   0  0  0  0  0  0  0  0  0  0  0  0
   -1.5551    3.1395    2.1710 H   0  0  0  0  0  0  0  0  0  0  0  0
   -2.5020    1.8454    1.4025 H   0  0  0  0  0  0  0  0  0  0  0  0
   -0.1913    0.1554    1.7759 C   0  0  0  0  0  0  0  0  0  0  0  0
    0.9476   -0.0766    2.1748 O   0  0  0  0  0  0  0  0  0  0  0  0
   -1.1502    0.6393    2.5760 N   0  0  0  0  0  0  0  0  0  0  0  0
   -2.0581    0.8092    2.1736 H   0  0  0  0  0  0  0  0  0  0  0  0
   -0.9568    0.9369    3.9933 C   0  0  0  0  0  0  0  0  0  0  0  0
   -0.1600    1.6750    4.1097 H   0  0  0  0  0  0  0  0  0  0  0  0
   -1.8775    1.3307    4.4266 H   0  0  0  0  0  0  0  0  0  0  0  0
   -0.6678    0.0287    4.5244 H   0  0  0  0  0  0  0  0  0  0  0  0
  5  6  2  0  0  0  0
  5  7  1  0  0  0  0
  2  3  1  0  0  0  0
  2  4  1  0  0  0  0
  2  5  1  0  0  0  0
  1  2  1  0  0  0  0
 24 25  2  0  0  0  0
 24 26  1  0  0  0  0
 20 21  1  0  0  0  0
 20 22  1  0  0  0  0
 20 23  1  0  0  0  0
 16 17  1  0  0  0  0
 16 18  1  0  0  0  0
 16 19  1  0  0  0  0
 14 15  1  0  0  0  0
 14 16  1  0  0  0  0
 14 20  1  0  0  0  0
 11 12  1  0  0  0  0
 11 13  1  0  0  0  0
 11 14  1  0  0  0  0
  9 10  1  0  0  0  0
  9 11  1  0  0  0  0
  9 24  1  0  0  0  0
  7  8  1  0  0  0  0
  7  9  1  0  0  0  0
 28 29  1  0  0  0  0
 28 30  1  0  0  0  0
 28 31  1  0  0  0  0
 26 27  1  0  0  0  0
 26 28  1  0  0  0  0
M  END
$$$$
default_name
  -OEChem-02102213163D

 31 30  0     1  0  0  0  0  0999 V2000
   -3.5895   -3.5013    1.1082 H   0  0  0  0  0  0  0  0  0  0  0  0
   -3.5145   -2.5363    0.6082 C   0  0  0  0  0  0  0  0  0  0  0  0
   -4.2285   -1.8413    1.0452 H   0  0  0  0  0  0  0  0  0  0  0  0
   -3.7155   -2.6583   -0.4538 H   0  0  0  0  0  0  0  0  0  0  0  0
   -2.1155   -1.9963    0.7922 C   0  0  0  0  0  0  0  0  0  0  0  0
   -1.2875   -2.6383    1.4252 O   0  0  0  0  0  0  0  0  0  0  0  0
   -1.8575   -0.8123    0.2402 N   0  0  0  0  0  0  0  0  0  0  0  0
   -2.6005   -0.3333   -0.2478 H   0  0  0  0  0  0  0  0  0  0  0  0
   -0.5675   -0.1203    0.3102 C   0  0  1  0  0  0  0  0  0  0  0  0
    0.1932   -0.7715   -0.1219 H   0  0  0  0  0  0  0  0  0  0  0  0
   -0.6568    1.1713   -0.5294 C   0  0  0  0  0  0  0  0  0  0  0  0
    0.2270    1.2342   -1.1673 H   0  0  0  0  0  0  0  0  0  0  0  0
   -1.5297    1.0905   -1.1809 H   0  0  0  0  0  0  0  0  0  0  0  0
   -0.7748    2.4823    0.2694 C   0  0  0  0  0  0  0  0  0  0  0  0
    0.1840    3.0009    0.2695 H   0  0  0  0  0  0  0  0  0  0  0  0
   -1.8456    3.4153   -0.3034 C   0  0  0  0  0  0  0  0  0  0  0  0
   -2.8091    2.9043   -0.3250 H   0  0  0  0  0  0  0  0  0  0  0  0
   -1.9283    4.3058    0.3202 H   0  0  0  0  0  0  0  0  0  0  0  0
   -1.5849    3.7252   -1.3131 H   0  0  0  0  0  0  0  0  0  0  0  0
   -1.1448    2.1719    1.7193 C   0  0  0  0  0  0  0  0  0  0  0  0
   -0.3815    1.5334    2.1639 H   0  0  0  0  0  0  0  0  0  0  0  0
   -1.2019    3.0966    2.2935 H   0  0  0  0  0  0  0  0  0  0  0  0
   -2.1084    1.6628    1.7603 H   0  0  0  0  0  0  0  0  0  0  0  0
   -0.1913    0.1554    1.7759 C   0  0  0  0  0  0  0  0  0  0  0  0
    0.9476   -0.0766    2.1748 O   0  0  0  0  0  0  0  0  0  0  0  0
   -1.1502    0.6393    2.5760 N   0  0  0  0  0  0  0  0  0  0  0  0
   -2.0581    0.8092    2.1736 H   0  0  0  0  0  0  0  0  0  0  0  0
   -0.9568    0.9369    3.9933 C   0  0  0  0  0  0  0  0  0  0  0  0
   -0.1600    1.6750    4.1097 H   0  0  0  0  0  0  0  0  0  0  0  0
   -1.8775    1.3307    4.4266 H   0  0  0  0  0  0  0  0  0  0  0  0
   -0.6678    0.0287    4.5244 H   0  0  0  0  0  0  0  0  0  0  0  0
  5  6  2  0  0  0  0
  5  7  1  0  0  0  0
  2  3  1  0  0  0  0
  2  4  1  0  0  0  0
  2  5  1  0  0  0  0
  1  2  1  0  0  0  0
 24 25  2  0  0  0  0
 24 26  1  0  0  0  0
 20 21  1  0  0  0  0
 20 22  1  0  0  0  0
 20 23  1  0  0  0  0
 16 17  1  0  0  0  0
 16 18  1  0  0  0  0
 16 19  1  0  0  0  0
 14 15  1  0  0  0  0
 14 16  1  0  0  0  0
 14 20  1  0  0  0  0
 11 12  1  0  0  0  0
 11 13  1  0  0  0  0
 11 14  1  0  0  0  0
  9 10  1  0  0  0  0
  9 11  1  0  0  0  0
  9 24  1  0  0  0  0
  7  8  1  0  0  0  0
  7  9  1  0  0  0  0
 28 29  1  0  0  0  0
 28 30  1  0  0  0  0
 28 31  1  0  0  0  0
 26 27  1  0  0  0  0
 26 28  1  0  0  0  0
M  END
$$$$
default_name
  -OEChem-02102213163D

 31 30  0     1  0  0  0  0  0999 V2000
   -3.5895   -3.5013    1.1082 H   0  0  0  0  0  0  0  0  0  0  0  0
   -3.5145   -2.5363    0.6082 C   0  0  0  0  0  0  0  0  0  0  0  0
   -4.2285   -1.8413    1.0452 H   0  0  0  0  0  0  0  0  0  0  0  0
   -3.7155   -2.6583   -0.4538 H   0  0  0  0  0  0  0  0  0  0  0  0
   -2.1155   -1.9963    0.7922 C   0  0  0  0  0  0  0  0  0  0  0  0
   -1.2875   -2.6383    1.4252 O   0  0  0  0  0  0  0  0  0  0  0  0
   -1.8575   -0.8123    0.2402 N   0  0  0  0  0  0  0  0  0  0  0  0
   -2.6005   -0.3333   -0.2478 H   0  0  0  0  0  0  0  0  0  0  0  0
   -0.5675   -0.1203    0.3102 C   0  0  1  0  0  0  0  0  0  0  0  0
    0.1932   -0.7715   -0.1219 H   0  0  0  0  0  0  0  0  0  0  0  0
   -0.6568    1.1713   -0.5294 C   0  0  0  0  0  0  0  0  0  0  0  0
    0.2270    1.2342   -1.1673 H   0  0  0  0  0  0  0  0  0  0  0  0
   -1.5297    1.0905   -1.1809 H   0  0  0  0  0  0  0  0  0  0  0  0
   -0.7748    2.4823    0.2694 C   0  0  0  0  0  0  0  0  0  0  0  0
    0.0807    3.1227    0.0545 H   0  0  0  0  0  0  0  0  0  0  0  0
   -2.0621    3.2452   -0.0561 C   0  0  0  0  0  0  0  0  0  0  0  0
   -2.9280    2.6110    0.1388 H   0  0  0  0  0  0  0  0  0  0  0  0
   -2.1270    4.1382    0.5659 H   0  0  0  0  0  0  0  0  0  0  0  0
   -2.0737    3.5514   -1.1000 H   0  0  0  0  0  0  0  0  0  0  0  0
   -0.7724    2.1765    1.7667 C   0  0  0  0  0  0  0  0  0  0  0  0
    0.1496    1.6603    2.0341 H   0  0  0  0  0  0  0  0  0  0  0  0
   -0.8280    3.1051    2.3348 H   0  0  0  0  0  0  0  0  0  0  0  0
   -1.6248    1.5463    2.0228 H   0  0  0  0  0  0  0  0  0  0  0  0
   -0.1913    0.1554    1.7759 C   0  0  0  0  0  0  0  0  0  0  0  0
    0.9476   -0.0766    2.1748 O   0  0  0  0  0  0  0  0  0  0  0  0
   -1.1502    0.6393    2.5760 N   0  0  0  0  0  0  0  0  0  0  0  0
   -2.0581    0.8092    2.1736 H   0  0  0  0  0  0  0  0  0  0  0  0
   -0.9568    0.9369    3.9933 C   0  0  0  0  0  0  0  0  0  0  0  0
   -0.1600    1.6750    4.1097 H   0  0  0  0  0  0  0  0  0  0  0  0
   -1.8775    1.3307    4.4266 H   0  0  0  0  0  0  0  0  0  0  0  0
   -0.6678    0.0287    4.5244 H   0  0  0  0  0  0  0  0  0  0  0  0
  5  6  2  0  0  0  0
  5  7  1  0  0  0  0
  2  3  1  0  0  0  0
  2  4  1  0  0  0  0
  2  5  1  0  0  0  0
  1  2  1  0  0  0  0
 24 25  2  0  0  0  0
 24 26  1  0  0  0  0
 20 21  1  0  0  0  0
 20 22  1  0  0  0  0
 20 23  1  0  0  0  0
 16 17  1  0  0  0  0
 16 18  1  0  0  0  0
 16 19  1  0  0  0  0
 14 15  1  0  0  0  0
 14 16  1  0  0  0  0
 14 20  1  0  0  0  0
 11 12  1  0  0  0  0
 11 13  1  0  0  0  0
 11 14  1  0  0  0  0
  9 10  1  0  0  0  0
  9 11  1  0  0  0  0
  9 24  1  0  0  0  0
  7  8  1  0  0  0  0
  7  9  1  0  0  0  0
 28 29  1  0  0  0  0
 28 30  1  0  0  0  0
 28 31  1  0  0  0  0
 26 27  1  0  0  0  0
 26 28  1  0  0  0  0
M  END
$$$$
default_name
  -OEChem-02102213163D

 31 30  0     1  0  0  0  0  0999 V2000
   -3.5895   -3.5013    1.1082 H   0  0  0  0  0  0  0  0  0  0  0  0
   -3.5145   -2.5363    0.6082 C   0  0  0  0  0  0  0  0  0  0  0  0
   -4.2285   -1.8413    1.0452 H   0  0  0  0  0  0  0  0  0  0  0  0
   -3.7155   -2.6583   -0.4538 H   0  0  0  0  0  0  0  0  0  0  0  0
   -2.1155   -1.9963    0.7922 C   0  0  0  0  0  0  0  0  0  0  0  0
   -1.2875   -2.6383    1.4252 O   0  0  0  0  0  0  0  0  0  0  0  0
   -1.8575   -0.8123    0.2402 N   0  0  0  0  0  0  0  0  0  0  0  0
   -2.6005   -0.3333   -0.2478 H   0  0  0  0  0  0  0  0  0  0  0  0
   -0.5675   -0.1203    0.3102 C   0  0  1  0  0  0  0  0  0  0  0  0
    0.1932   -0.7715   -0.1219 H   0  0  0  0  0  0  0  0  0  0  0  0
   -0.6568    1.1713   -0.5294 C   0  0  0  0  0  0  0  0  0  0  0  0
    0.2270    1.2342   -1.1673 H   0  0  0  0  0  0  0  0  0  0  0  0
   -1.5297    1.0905   -1.1809 H   0  0  0  0  0  0  0  0  0  0  0  0
   -0.7748    2.4823    0.2694 C   0  0  0  0  0  0  0  0  0  0  0  0
   -0.0827    3.2221   -0.1329 H   0  0  0  0  0  0  0  0  0  0  0  0
   -2.1939    3.0567    0.2337 C   0  0  0  0  0  0  0  0  0  0  0  0
   -2.9012    2.3209    0.6189 H   0  0  0  0  0  0  0  0  0  0  0  0
   -2.2423    3.9544    0.8505 H   0  0  0  0  0  0  0  0  0  0  0  0
   -2.4756    3.3220   -0.7830 H   0  0  0  0  0  0  0  0  0  0  0  0
   -0.4028    2.2319    1.7304 C   0  0  0  0  0  0  0  0  0  0  0  0
    0.6170    1.8517    1.7891 H   0  0  0  0  0  0  0  0  0  0  0  0
   -0.4588    3.1643    2.2922 H   0  0  0  0  0  0  0  0  0  0  0  0
   -1.0843    1.5040    2.1721 H   0  0  0  0  0  0  0  0  0  0  0  0
   -0.1913    0.1554    1.7759 C   0  0  0  0  0  0  0  0  0  0  0  0
    0.9476   -0.0766    2.1748 O   0  0  0  0  0  0  0  0  0  0  0  0
   -1.1502    0.6393    2.5760 N   0  0  0  0  0  0  0  0  0  0  0  0
   -2.0581    0.8092    2.1736 H   0  0  0  0  0  0  0  0  0  0  0  0
   -0.9568    0.9369    3.9933 C   0  0  0  0  0  0  0  0  0  0  0  0
   -0.1600    1.6750    4.1097 H   0  0  0  0  0  0  0  0  0  0  0  0
   -1.8775    1.3307    4.4266 H   0  0  0  0  0  0  0  0  0  0  0  0
   -0.6678    0.0287    4.5244 H   0  0  0  0  0  0  0  0  0  0  0  0
  5  6  2  0  0  0  0
  5  7  1  0  0  0  0
  2  3  1  0  0  0  0
  2  4  1  0  0  0  0
  2  5  1  0  0  0  0
  1  2  1  0  0  0  0
 24 25  2  0  0  0  0
 24 26  1  0  0  0  0
 20 21  1  0  0  0  0
 20 22  1  0  0  0  0
 20 23  1  0  0  0  0
 16 17  1  0  0  0  0
 16 18  1  0  0  0  0
 16 19  1  0  0  0  0
 14 15  1  0  0  0  0
 14 16  1  0  0  0  0
 14 20  1  0  0  0  0
 11 12  1  0  0  0  0
 11 13  1  0  0  0  0
 11 14  1  0  0  0  0
  9 10  1  0  0  0  0
  9 11  1  0  0  0  0
  9 24  1  0  0  0  0
  7  8  1  0  0  0  0
  7  9  1  0  0  0  0
 28 29  1  0  0  0  0
 28 30  1  0  0  0  0
 28 31  1  0  0  0  0
 26 27  1  0  0  0  0
 26 28  1  0  0  0  0
M  END
$$$$
default_name
  -OEChem-02102213163D

 31 30  0     1  0  0  0  0  0999 V2000
   -3.5895   -3.5013    1.1082 H   0  0  0  0  0  0  0  0  0  0  0  0
   -3.5145   -2.5363    0.6082 C   0  0  0  0  0  0  0  0  0  0  0  0
   -4.2285   -1.8413    1.0452 H   0  0  0  0  0  0  0  0  0  0  0  0
   -3.7155   -2.6583   -0.4538 H   0  0  0  0  0  0  0  0  0  0  0  0
   -2.1155   -1.9963    0.7922 C   0  0  0  0  0  0  0  0  0  0  0  0
   -1.2875   -2.6383    1.4252 O   0  0  0  0  0  0  0  0  0  0  0  0
   -1.8575   -0.8123    0.2402 N   0  0  0  0  0  0  0  0  0  0  0  0
   -2.6005   -0.3333   -0.2478 H   0  0  0  0  0  0  0  0  0  0  0  0
   -0.5675   -0.1203    0.3102 C   0  0  1  0  0  0  0  0  0  0  0  0
    0.1932   -0.7715   -0.1219 H   0  0  0  0  0  0  0  0  0  0  0  0
   -0.6568    1.1713   -0.5294 C   0  0  0  0  0  0  0  0  0  0  0  0
    0.2270    1.2342   -1.1673 H   0  0  0  0  0  0  0  0  0  0  0  0
   -1.5297    1.0905   -1.1809 H   0  0  0  0  0  0  0  0  0  0  0  0
   -0.7748    2.4823    0.2694 C   0  0  0  0  0  0  0  0  0  0  0  0
   -0.2953    3.2925   -0.2799 H   0  0  0  0  0  0  0  0  0  0  0  0
   -2.2321    2.8626    0.5466 C   0  0  0  0  0  0  0  0  0  0  0  0
   -2.7306    2.0538    1.0824 H   0  0  0  0  0  0  0  0  0  0  0  0
   -2.2663    3.7671    1.1543 H   0  0  0  0  0  0  0  0  0  0  0  0
   -2.7631    3.0528   -0.3837 H   0  0  0  0  0  0  0  0  0  0  0  0
   -0.0612    2.3343    1.6127 C   0  0  0  0  0  0  0  0  0  0  0  0
    0.9888    2.0944    1.4457 H   0  0  0  0  0  0  0  0  0  0  0  0
   -0.1196    3.2702    2.1685 H   0  0  0  0  0  0  0  0  0  0  0  0
   -0.5236    1.5387    2.1980 H   0  0  0  0  0  0  0  0  0  0  0  0
   -0.1913    0.1554    1.7759 C   0  0  0  0  0  0  0  0  0  0  0  0
    0.9476   -0.0766    2.1748 O   0  0  0  0  0  0  0  0  0  0  0  0
   -1.1502    0.6393    2.5760 N   0  0  0  0  0  0  0  0  0  0  0  0
   -2.0581    0.8092    2.1736 H   0  0  0  0  0  0  0  0  0  0  0  0
   -0.9568    0.9369    3.9933 C   0  0  0  0  0  0  0  0  0  0  0  0
   -0.1600    1.6750    4.1097 H   0  0  0  0  0  0  0  0  0  0  0  0
   -1.8775    1.3307    4.4266 H   0  0  0  0  0  0  0  0  0  0  0  0
   -0.6678    0.0287    4.5244 H   0  0  0  0  0  0  0  0  0  0  0  0
  5  6  2  0  0  0  0
  5  7  1  0  0  0  0
  2  3  1  0  0  0  0
  2  4  1  0  0  0  0
  2  5  1  0  0  0  0
  1  2  1  0  0  0  0
 24 25  2  0  0  0  0
 24 26  1  0  0  0  0
 20 21  1  0  0  0  0
 20 22  1  0  0  0  0
 20 23  1  0  0  0  0
 16 17  1  0  0  0  0
 16 18  1  0  0  0  0
 16 19  1  0  0  0  0
 14 15  1  0  0  0  0
 14 16  1  0  0  0  0
 14 20  1  0  0  0  0
 11 12  1  0  0  0  0
 11 13  1  0  0  0  0
 11 14  1  0  0  0  0
  9 10  1  0  0  0  0
  9 11  1  0  0  0  0
  9 24  1  0  0  0  0
  7  8  1  0  0  0  0
  7  9  1  0  0  0  0
 28 29  1  0  0  0  0
 28 30  1  0  0  0  0
 28 31  1  0  0  0  0
 26 27  1  0  0  0  0
 26 28  1  0  0  0  0
M  END
$$$$
default_name
  -OEChem-02102213163D

 31 30  0     1  0  0  0  0  0999 V2000
   -3.5895   -3.5013    1.1082 H   0  0  0  0  0  0  0  0  0  0  0  0
   -3.5145   -2.5363    0.6082 C   0  0  0  0  0  0  0  0  0  0  0  0
   -4.2285   -1.8413    1.0452 H   0  0  0  0  0  0  0  0  0  0  0  0
   -3.7155   -2.6583   -0.4538 H   0  0  0  0  0  0  0  0  0  0  0  0
   -2.1155   -1.9963    0.7922 C   0  0  0  0  0  0  0  0  0  0  0  0
   -1.2875   -2.6383    1.4252 O   0  0  0  0  0  0  0  0  0  0  0  0
   -1.8575   -0.8123    0.2402 N   0  0  0  0  0  0  0  0  0  0  0  0
   -2.6005   -0.3333   -0.2478 H   0  0  0  0  0  0  0  0  0  0  0  0
   -0.5675   -0.1203    0.3102 C   0  0  1  0  0  0  0  0  0  0  0  0
    0.1932   -0.7715   -0.1219 H   0  0  0  0  0  0  0  0  0  0  0  0
   -0.6568    1.1713   -0.5294 C   0  0  0  0  0  0  0  0  0  0  0  0
    0.2270    1.2342   -1.1673 H   0  0  0  0  0  0  0  0  0  0  0  0
   -1.5297    1.0905   -1.1809 H   0  0  0  0  0  0  0  0  0  0  0  0
   -0.7748    2.4823    0.2694 C   0  0  0  0  0  0  0  0  0  0  0  0
   -0.5424    3.3291   -0.3764 H   0  0  0  0  0  0  0  0  0  0  0  0
   -2.1739    2.6763    0.8610 C   0  0  0  0  0  0  0  0  0  0  0  0
   -2.4278    1.8278    1.4979 H   0  0  0  0  0  0  0  0  0  0  0  0
   -2.1973    3.5890    1.4568 H   0  0  0  0  0  0  0  0  0  0  0  0
   -2.9166    2.7621    0.0707 H   0  0  0  0  0  0  0  0  0  0  0  0
    0.2290    2.4768    1.4218 C   0  0  0  0  0  0  0  0  0  0  0  0
    1.2396    2.3720    1.0272 H   0  0  0  0  0  0  0  0  0  0  0  0
    0.1666    3.4155    1.9722 H   0  0  0  0  0  0  0  0  0  0  0  0
    0.0191    1.6480    2.0988 H   0  0  0  0  0  0  0  0  0  0  0  0
   -0.1913    0.1554    1.7759 C   0  0  0  0  0  0  0  0  0  0  0  0
    0.9476   -0.0766    2.1748 O   0  0  0  0  0  0  0  0  0  0  0  0
   -1.1502    0.6393    2.5760 N   0  0  0  0  0  0  0  0  0  0  0  0
   -2.0581    0.8092    2.1736 H   0  0  0  0  0  0  0  0  0  0  0  0
   -0.9568    0.9369    3.9933 C   0  0  0  0  0  0  0  0  0  0  0  0
   -0.1600    1.6750    4.1097 H   0  0  0  0  0  0  0  0  0  0  0  0
   -1.8775    1.3307    4.4266 H   0  0  0  0  0  0  0  0  0  0  0  0
   -0.6678    0.0287    4.5244 H   0  0  0  0  0  0  0  0  0  0  0  0
  5  6  2  0  0  0  0
  5  7  1  0  0  0  0
  2  3  1  0  0  0  0
  2  4  1  0  0  0  0
  2  5  1  0  0  0  0
  1  2  1  0  0  0  0
 24 25  2  0  0  0  0
 24 26  1  0  0  0  0
 20 21  1  0  0  0  0
 20 22  1  0  0  0  0
 20 23  1  0  0  0  0
 16 17  1  0  0  0  0
 16 18  1  0  0  0  0
 16 19  1  0  0  0  0
 14 15  1  0  0  0  0
 14 16  1  0  0  0  0
 14 20  1  0  0  0  0
 11 12  1  0  0  0  0
 11 13  1  0  0  0  0
 11 14  1  0  0  0  0
  9 10  1  0  0  0  0
  9 11  1  0  0  0  0
  9 24  1  0  0  0  0
  7  8  1  0  0  0  0
  7  9  1  0  0  0  0
 28 29  1  0  0  0  0
 28 30  1  0  0  0  0
 28 31  1  0  0  0  0
 26 27  1  0  0  0  0
 26 28  1  0  0  0  0
M  END
$$$$
default_name
  -OEChem-02102213163D

 31 30  0     1  0  0  0  0  0999 V2000
   -3.5895   -3.5013    1.1082 H   0  0  0  0  0  0  0  0  0  0  0  0
   -3.5145   -2.5363    0.6082 C   0  0  0  0  0  0  0  0  0  0  0  0
   -4.2285   -1.8413    1.0452 H   0  0  0  0  0  0  0  0  0  0  0  0
   -3.7155   -2.6583   -0.4538 H   0  0  0  0  0  0  0  0  0  0  0  0
   -2.1155   -1.9963    0.7922 C   0  0  0  0  0  0  0  0  0  0  0  0
   -1.2875   -2.6383    1.4252 O   0  0  0  0  0  0  0  0  0  0  0  0
   -1.8575   -0.8123    0.2402 N   0  0  0  0  0  0  0  0  0  0  0  0
   -2.6005   -0.3333   -0.2478 H   0  0  0  0  0  0  0  0  0  0  0  0
   -0.5675   -0.1203    0.3102 C   0  0  1  0  0  0  0  0  0  0  0  0
    0.1932   -0.7715   -0.1219 H   0  0  0  0  0  0  0  0  0  0  0  0
   -0.6568    1.1713   -0.5294 C   0  0  0  0  0  0  0  0  0  0  0  0
    0.2270    1.2342   -1.1673 H   0  0  0  0  0  0  0  0  0  0  0  0
   -1.5297    1.0905   -1.1809 H   0  0  0  0  0  0  0  0  0  0  0  0
   -0.7748    2.4823    0.2694 C   0  0  0  0  0  0  0  0  0  0  0  0
   -0.8073    3.3293   -0.4159 H   0  0  0  0  0  0  0  0  0  0  0  0
   -2.0235    2.5103    1.1555 C   0  0  0  0  0  0  0  0  0  0  0  0
   -2.0134    1.6585    1.8369 H   0  0  0  0  0  0  0  0  0  0  0  0
   -2.0401    3.4322    1.7374 H   0  0  0  0  0  0  0  0  0  0  0  0
   -2.9258    2.4697    0.5492 H   0  0  0  0  0  0  0  0  0  0  0  0
    0.4481    2.6496    1.1705 C   0  0  0  0  0  0  0  0  0  0  0  0
    1.3524    2.6654    0.5623 H   0  0  0  0  0  0  0  0  0  0  0  0
    0.3803    3.5905    1.7166 H   0  0  0  0  0  0  0  0  0  0  0  0
    0.5068    1.8245    1.8812 H   0  0  0  0  0  0  0  0  0  0  0  0
   -0.1913    0.1554    1.7759 C   0  0  0  0  0  0  0  0  0  0  0  0
    0.9476   -0.0766    2.1748 O   0  0  0  0  0  0  0  0  0  0  0  0
   -1.1502    0.6393    2.5760 N   0  0  0  0  0  0  0  0  0  0  0  0
   -2.0581    0.8092    2.1736 H   0  0  0  0  0  0  0  0  0  0  0  0
   -0.9568    0.9369    3.9933 C   0  0  0  0  0  0  0  0  0  0  0  0
   -0.1600    1.6750    4.1097 H   0  0  0  0  0  0  0  0  0  0  0  0
   -1.8775    1.3307    4.4266 H   0  0  0  0  0  0  0  0  0  0  0  0
   -0.6678    0.0287    4.5244 H   0  0  0  0  0  0  0  0  0  0  0  0
  5  6  2  0  0  0  0
  5  7  1  0  0  0  0
  2  3  1  0  0  0  0
  2  4  1  0  0  0  0
  2  5  1  0  0  0  0
  1  2  1  0  0  0  0
 24 25  2  0  0  0  0
 24 26  1  0  0  0  0
 20 21  1  0  0  0  0
 20 22  1  0  0  0  0
 20 23  1  0  0  0  0
 16 17  1  0  0  0  0
 16 18  1  0  0  0  0
 16 19  1  0  0  0  0
 14 15  1  0  0  0  0
 14 16  1  0  0  0  0
 14 20  1  0  0  0  0
 11 12  1  0  0  0  0
 11 13  1  0  0  0  0
 11 14  1  0  0  0  0
  9 10  1  0  0  0  0
  9 11  1  0  0  0  0
  9 24  1  0  0  0  0
  7  8  1  0  0  0  0
  7  9  1  0  0  0  0
 28 29  1  0  0  0  0
 28 30  1  0  0  0  0
 28 31  1  0  0  0  0
 26 27  1  0  0  0  0
 26 28  1  0  0  0  0
M  END
$$$$
default_name
  -OEChem-02102213163D

 31 30  0     1  0  0  0  0  0999 V2000
   -3.5895   -3.5013    1.1082 H   0  0  0  0  0  0  0  0  0  0  0  0
   -3.5145   -2.5363    0.6082 C   0  0  0  0  0  0  0  0  0  0  0  0
   -4.2285   -1.8413    1.0452 H   0  0  0  0  0  0  0  0  0  0  0  0
   -3.7155   -2.6583   -0.4538 H   0  0  0  0  0  0  0  0  0  0  0  0
   -2.1155   -1.9963    0.7922 C   0  0  0  0  0  0  0  0  0  0  0  0
   -1.2875   -2.6383    1.4252 O   0  0  0  0  0  0  0  0  0  0  0  0
   -1.8575   -0.8123    0.2402 N   0  0  0  0  0  0  0  0  0  0  0  0
   -2.6005   -0.3333   -0.2478 H   0  0  0  0  0  0  0  0  0  0  0  0
   -0.5675   -0.1203    0.3102 C   0  0  1  0  0  0  0  0  0  0  0  0
    0.1932   -0.7715   -0.1219 H   0  0  0  0  0  0  0  0  0  0  0  0
   -0.6568    1.1713   -0.5294 C   0  0  0  0  0  0  0  0  0  0  0  0
    0.2270    1.2342   -1.1673 H   0  0  0  0  0  0  0  0  0  0  0  0
   -1.5297    1.0905   -1.1809 H   0  0  0  0  0  0  0  0  0  0  0  0
   -0.7748    2.4823    0.2694 C   0  0  0  0  0  0  0  0  0  0  0  0
   -1.0719    3.2932   -0.3956 H   0  0  0  0  0  0  0  0  0  0  0  0
   -1.7909    2.3761    1.4102 C   0  0  0  0  0  0  0  0  0  0  0  0
   -1.5157    1.5574    2.0765 H   0  0  0  0  0  0  0  0  0  0  0  0
   -1.8054    3.3074    1.9769 H   0  0  0  0  0  0  0  0  0  0  0  0
   -2.7899    2.1956    1.0192 H   0  0  0  0  0  0  0  0  0  0  0  0
    0.5812    2.8410    0.8762 C   0  0  0  0  0  0  0  0  0  0  0  0
    1.3195    2.9549    0.0825 H   0  0  0  0  0  0  0  0  0  0  0  0
    0.5068    3.7832    1.4192 H   0  0  0  0  0  0  0  0  0  0  0  0
    0.9062    2.0561    1.5601 H   0  0  0  0  0  0  0  0  0  0  0  0
   -0.1913    0.1554    1.7759 C   0  0  0  0  0  0  0  0  0  0  0  0
    0.9476   -0.0766    2.1748 O   0  0  0  0  0  0  0  0  0  0  0  0
   -1.1502    0.6393    2.5760 N   0  0  0  0  0  0  0  0  0  0  0  0
   -2.0581    0.8092    2.1736 H   0  0  0  0  0  0  0  0  0  0  0  0
   -0.9568    0.9369    3.9933 C   0  0  0  0  0  0  0  0  0  0  0  0
   -0.1600    1.6750    4.1097 H   0  0  0  0  0  0  0  0  0  0  0  0
   -1.8775    1.3307    4.4266 H   0  0  0  0  0  0  0  0  0  0  0  0
   -0.6678    0.0287    4.5244 H   0  0  0  0  0  0  0  0  0  0  0  0
  5  6  2  0  0  0  0
  5  7  1  0  0  0  0
  2  3  1  0  0  0  0
  2  4  1  0  0  0  0
  2  5  1  0  0  0  0
  1  2  1  0  0  0  0
 24 25  2  0  0  0  0
 24 26  1  0  0  0  0
 20 21  1  0  0  0  0
 20 22  1  0  0  0  0
 20 23  1  0  0  0  0
 16 17  1  0  0  0  0
 16 18  1  0  0  0  0
 16 19  1  0  0  0  0
 14 15  1  0  0  0  0
 14 16  1  0  0  0  0
 14 20  1  0  0  0  0
 11 12  1  0  0  0  0
 11 13  1  0  0  0  0
 11 14  1  0  0  0  0
  9 10  1  0  0  0  0
  9 11  1  0  0  0  0
  9 24  1  0  0  0  0
  7  8  1  0  0  0  0
  7  9  1  0  0  0  0
 28 29  1  0  0  0  0
 28 30  1  0  0  0  0
 28 31  1  0  0  0  0
 26 27  1  0  0  0  0
 26 28  1  0  0  0  0
M  END
$$$$
default_name
  -OEChem-02102213163D

 31 30  0     1  0  0  0  0  0999 V2000
   -3.5895   -3.5013    1.1082 H   0  0  0  0  0  0  0  0  0  0  0  0
   -3.5145   -2.5363    0.6082 C   0  0  0  0  0  0  0  0  0  0  0  0
   -4.2285   -1.8413    1.0452 H   0  0  0  0  0  0  0  0  0  0  0  0
   -3.7155   -2.6583   -0.4538 H   0  0  0  0  0  0  0  0  0  0  0  0
   -2.1155   -1.9963    0.7922 C   0  0  0  0  0  0  0  0  0  0  0  0
   -1.2875   -2.6383    1.4252 O   0  0  0  0  0  0  0  0  0  0  0  0
   -1.8575   -0.8123    0.2402 N   0  0  0  0  0  0  0  0  0  0  0  0
   -2.6005   -0.3333   -0.2478 H   0  0  0  0  0  0  0  0  0  0  0  0
   -0.5675   -0.1203    0.3102 C   0  0  1  0  0  0  0  0  0  0  0  0
    0.1932   -0.7715   -0.1219 H   0  0  0  0  0  0  0  0  0  0  0  0
   -0.6568    1.1713   -0.5294 C   0  0  0  0  0  0  0  0  0  0  0  0
    0.2270    1.2342   -1.1673 H   0  0  0  0  0  0  0  0  0  0  0  0
   -1.5297    1.0905   -1.1809 H   0  0  0  0  0  0  0  0  0  0  0  0
   -0.7748    2.4823    0.2694 C   0  0  0  0  0  0  0  0  0  0  0  0
   -1.3182    3.2231   -0.3171 H   0  0  0  0  0  0  0  0  0  0  0  0
   -1.4922    2.2827    1.6076 C   0  0  0  0  0  0  0  0  0  0  0  0
   -0.9686    1.5312    2.2002 H   0  0  0  0  0  0  0  0  0  0  0  0
   -1.5092    3.2231    2.1589 H   0  0  0  0  0  0  0  0  0  0  0  0
   -2.5183    1.9583    1.4488 H   0  0  0  0  0  0  0  0  0  0  0  0
    0.6192    3.0379    0.5587 C   0  0  0  0  0  0  0  0  0  0  0  0
    1.1431    3.2205   -0.3795 H   0  0  0  0  0  0  0  0  0  0  0  0
    0.5376    3.9803    1.1002 H   0  0  0  0  0  0  0  0  0  0  0  0
    1.1901    2.3271    1.1573 H   0  0  0  0  0  0  0  0  0  0  0  0
   -0.1913    0.1554    1.7759 C   0  0  0  0  0  0  0  0  0  0  0  0
    0.9476   -0.0766    2.1748 O   0  0  0  0  0  0  0  0  0  0  0  0
   -1.1502    0.6393    2.5760 N   0  0  0  0  0  0  0  0  0  0  0  0
   -2.0581    0.8092    2.1736 H   0  0  0  0  0  0  0  0  0  0  0  0
   -0.9568    0.9369    3.9933 C   0  0  0  0  0  0  0  0  0  0  0  0
   -0.1600    1.6750    4.1097 H   0  0  0  0  0  0  0  0  0  0  0  0
   -1.8775    1.3307    4.4266 H   0  0  0  0  0  0  0  0  0  0  0  0
   -0.6678    0.0287    4.5244 H   0  0  0  0  0  0  0  0  0  0  0  0
  5  6  2  0  0  0  0
  5  7  1  0  0  0  0
  2  3  1  0  0  0  0
  2  4  1  0  0  0  0
  2  5  1  0  0  0  0
  1  2  1  0  0  0  0
 24 25  2  0  0  0  0
 24 26  1  0  0  0  0
 20 21  1  0  0  0  0
 20 22  1  0  0  0  0
 20 23  1  0  0  0  0
 16 17  1  0  0  0  0
 16 18  1  0  0  0  0
 16 19  1  0  0  0  0
 14 15  1  0  0  0  0
 14 16  1  0  0  0  0
 14 20  1  0  0  0  0
 11 12  1  0  0  0  0
 11 13  1  0  0  0  0
 11 14  1  0  0  0  0
  9 10  1  0  0  0  0
  9 11  1  0  0  0  0
  9 24  1  0  0  0  0
  7  8  1  0  0  0  0
  7  9  1  0  0  0  0
 28 29  1  0  0  0  0
 28 30  1  0  0  0  0
 28 31  1  0  0  0  0
 26 27  1  0  0  0  0
 26 28  1  0  0  0  0
M  END
$$$$
default_name
  -OEChem-02102213163D

 31 30  0     1  0  0  0  0  0999 V2000
   -3.5895   -3.5013    1.1082 H   0  0  0  0  0  0  0  0  0  0  0  0
   -3.5145   -2.5363    0.6082 C   0  0  0  0  0  0  0  0  0  0  0  0
   -4.2285   -1.8413    1.0452 H   0  0  0  0  0  0  0  0  0  0  0  0
   -3.7155   -2.6583   -0.4538 H   0  0  0  0  0  0  0  0  0  0  0  0
   -2.1155   -1.9963    0.7922 C   0  0  0  0  0  0  0  0  0  0  0  0
   -1.2875   -2.6383    1.4252 O   0  0  0  0  0  0  0  0  0  0  0  0
   -1.8575   -0.8123    0.2402 N   0  0  0  0  0  0  0  0  0  0  0  0
   -2.6005   -0.3333   -0.2478 H   0  0  0  0  0  0  0  0  0  0  0  0
   -0.5675   -0.1203    0.3102 C   0  0  1  0  0  0  0  0  0  0  0  0
    0.1932   -0.7715   -0.1219 H   0  0  0  0  0  0  0  0  0  0  0  0
   -0.6568    1.1713   -0.5294 C   0  0  0  0  0  0  0  0  0  0  0  0
    0.2270    1.2342   -1.1673 H   0  0  0  0  0  0  0  0  0  0  0  0
   -1.5297    1.0905   -1.1809 H   0  0  0  0  0  0  0  0  0  0  0  0
   -0.7748    2.4823    0.2694 C   0  0  0  0  0  0  0  0  0  0  0  0
   -1.5294    3.1239   -0.1855 H   0  0  0  0  0  0  0  0  0  0  0  0
   -1.1475    2.2365    1.7343 C   0  0  0  0  0  0  0  0  0  0  0  0
   -0.4093    1.5819    2.1996 H   0  0  0  0  0  0  0  0  0  0  0  0
   -1.1716    3.1851    2.2712 H   0  0  0  0  0  0  0  0  0  0  0  0
   -2.1294    1.7741    1.8085 H   0  0  0  0  0  0  0  0  0  0  0  0
    0.5595    3.2268    0.2397 C   0  0  0  0  0  0  0  0  0  0  0  0
    0.8353    3.4442   -0.7921 H   0  0  0  0  0  0  0  0  0  0  0  0
    0.4707    4.1686    0.7813 H   0  0  0  0  0  0  0  0  0  0  0  0
    1.3391    2.6190    0.7002 H   0  0  0  0  0  0  0  0  0  0  0  0
   -0.1913    0.1554    1.7759 C   0  0  0  0  0  0  0  0  0  0  0  0
    0.9476   -0.0766    2.1748 O   0  0  0  0  0  0  0  0  0  0  0  0
   -1.1502    0.6393    2.5760 N   0  0  0  0  0  0  0  0  0  0  0  0
   -2.0581    0.8092    2.1736 H   0  0  0  0  0  0  0  0  0  0  0  0
   -0.9568    0.9369    3.9933 C   0  0  0  0  0  0  0  0  0  0  0  0
   -0.1600    1.6750    4.1097 H   0  0  0  0  0  0  0  0  0  0  0  0
   -1.8775    1.3307    4.4266 H   0  0  0  0  0  0  0  0  0  0  0  0
   -0.6678    0.0287    4.5244 H   0  0  0  0  0  0  0  0  0  0  0  0
  5  6  2  0  0  0  0
  5  7  1  0  0  0  0
  2  3  1  0  0  0  0
  2  4  1  0  0  0  0
  2  5  1  0  0  0  0
  1  2  1  0  0  0  0
 24 25  2  0  0  0  0
 24 26  1  0  0  0  0
 20 21  1  0  0  0  0
 20 22  1  0  0  0  0
 20 23  1  0  0  0  0
 16 17  1  0  0  0  0
 16 18  1  0  0  0  0
 16 19  1  0  0  0  0
 14 15  1  0  0  0  0
 14 16  1  0  0  0  0
 14 20  1  0  0  0  0
 11 12  1  0  0  0  0
 11 13  1  0  0  0  0
 11 14  1  0  0  0  0
  9 10  1  0  0  0  0
  9 11  1  0  0  0  0
  9 24  1  0  0  0  0
  7  8  1  0  0  0  0
  7  9  1  0  0  0  0
 28 29  1  0  0  0  0
 28 30  1  0  0  0  0
 28 31  1  0  0  0  0
 26 27  1  0  0  0  0
 26 28  1  0  0  0  0
M  END
$$$$
default_name
  -OEChem-02102213163D

 31 30  0     1  0  0  0  0  0999 V2000
   -3.5895   -3.5013    1.1082 H   0  0  0  0  0  0  0  0  0  0  0  0
   -3.5145   -2.5363    0.6082 C   0  0  0  0  0  0  0  0  0  0  0  0
   -4.2285   -1.8413    1.0452 H   0  0  0  0  0  0  0  0  0  0  0  0
   -3.7155   -2.6583   -0.4538 H   0  0  0  0  0  0  0  0  0  0  0  0
   -2.1155   -1.9963    0.7922 C   0  0  0  0  0  0  0  0  0  0  0  0
   -1.2875   -2.6383    1.4252 O   0  0  0  0  0  0  0  0  0  0  0  0
   -1.8575   -0.8123    0.2402 N   0  0  0  0  0  0  0  0  0  0  0  0
   -2.6005   -0.3333   -0.2478 H   0  0  0  0  0  0  0  0  0  0  0  0
   -0.5675   -0.1203    0.3102 C   0  0  1  0  0  0  0  0  0  0  0  0
    0.1932   -0.7715   -0.1219 H   0  0  0  0  0  0  0  0  0  0  0  0
   -0.6568    1.1713   -0.5294 C   0  0  0  0  0  0  0  0  0  0  0  0
    0.2270    1.2342   -1.1673 H   0  0  0  0  0  0  0  0  0  0  0  0
   -1.5297    1.0905   -1.1809 H   0  0  0  0  0  0  0  0  0  0  0  0
   -0.7748    2.4823    0.2694 C   0  0  0  0  0  0  0  0  0  0  0  0
   -1.6910    3.0024   -0.0099 H   0  0  0  0  0  0  0  0  0  0  0  0
   -0.7805    2.2407    1.7817 C   0  0  0  0  0  0  0  0  0  0  0  0
    0.1240    1.7060    2.0749 H   0  0  0  0  0  0  0  0  0  0  0  0
   -0.8157    3.1959    2.3059 H   0  0  0  0  0  0  0  0  0  0  0  0
   -1.6498    1.6555    2.0739 H   0  0  0  0  0  0  0  0  0  0  0  0
    0.4062    3.3950   -0.0589 C   0  0  0  0  0  0  0  0  0  0  0  0
    0.4169    3.6107   -1.1272 H   0  0  0  0  0  0  0  0  0  0  0  0
    0.3104    4.3351    0.4844 H   0  0  0  0  0  0  0  0  0  0  0  0
    1.3432    2.9119    0.2202 H   0  0  0  0  0  0  0  0  0  0  0  0
   -0.1913    0.1554    1.7759 C   0  0  0  0  0  0  0  0  0  0  0  0
    0.9476   -0.0766    2.1748 O   0  0  0  0  0  0  0  0  0  0  0  0
   -1.1502    0.6393    2.5760 N   0  0  0  0  0  0  0  0  0  0  0  0
   -2.0581    0.8092    2.1736 H   0  0  0  0  0  0  0  0  0  0  0  0
   -0.9568    0.9369    3.9933 C   0  0  0  0  0  0  0  0  0  0  0  0
   -0.1600    1.6750    4.1097 H   0  0  0  0  0  0  0  0  0  0  0  0
   -1.8775    1.3307    4.4266 H   0  0  0  0  0  0  0  0  0  0  0  0
   -0.6678    0.0287    4.5244 H   0  0  0  0  0  0  0  0  0  0  0  0
  5  6  2  0  0  0  0
  5  7  1  0  0  0  0
  2  3  1  0  0  0  0
  2  4  1  0  0  0  0
  2  5  1  0  0  0  0
  1  2  1  0  0  0  0
 24 25  2  0  0  0  0
 24 26  1  0  0  0  0
 20 21  1  0  0  0  0
 20 22  1  0  0  0  0
 20 23  1  0  0  0  0
 16 17  1  0  0  0  0
 16 18  1  0  0  0  0
 16 19  1  0  0  0  0
 14 15  1  0  0  0  0
 14 16  1  0  0  0  0
 14 20  1  0  0  0  0
 11 12  1  0  0  0  0
 11 13  1  0  0  0  0
 11 14  1  0  0  0  0
  9 10  1  0  0  0  0
  9 11  1  0  0  0  0
  9 24  1  0  0  0  0
  7  8  1  0  0  0  0
  7  9  1  0  0  0  0
 28 29  1  0  0  0  0
 28 30  1  0  0  0  0
 28 31  1  0  0  0  0
 26 27  1  0  0  0  0
 26 28  1  0  0  0  0
M  END
$$$$
default_name
  -OEChem-02102213163D

 31 30  0     1  0  0  0  0  0999 V2000
   -3.5895   -3.5013    1.1082 H   0  0  0  0  0  0  0  0  0  0  0  0
   -3.5145   -2.5363    0.6082 C   0  0  0  0  0  0  0  0  0  0  0  0
   -4.2285   -1.8413    1.0452 H   0  0  0  0  0  0  0  0  0  0  0  0
   -3.7155   -2.6583   -0.4538 H   0  0  0  0  0  0  0  0  0  0  0  0
   -2.1155   -1.9963    0.7922 C   0  0  0  0  0  0  0  0  0  0  0  0
   -1.2875   -2.6383    1.4252 O   0  0  0  0  0  0  0  0  0  0  0  0
   -1.8575   -0.8123    0.2402 N   0  0  0  0  0  0  0  0  0  0  0  0
   -2.6005   -0.3333   -0.2478 H   0  0  0  0  0  0  0  0  0  0  0  0
   -0.5675   -0.1203    0.3102 C   0  0  1  0  0  0  0  0  0  0  0  0
    0.1932   -0.7715   -0.1219 H   0  0  0  0  0  0  0  0  0  0  0  0
   -0.6568    1.1713   -0.5294 C   0  0  0  0  0  0  0  0  0  0  0  0
    0.2270    1.2342   -1.1673 H   0  0  0  0  0  0  0  0  0  0  0  0
   -1.5297    1.0905   -1.1809 H   0  0  0  0  0  0  0  0  0  0  0  0
   -0.7748    2.4823    0.2694 C   0  0  0  0  0  0  0  0  0  0  0  0
   -1.7922    2.8668    0.1977 H   0  0  0  0  0  0  0  0  0  0  0  0
   -0.4161    2.2950    1.7464 C   0  0  0  0  0  0  0  0  0  0  0  0
    0.5949    1.8949    1.8343 H   0  0  0  0  0  0  0  0  0  0  0  0
   -0.4657    3.2549    2.2609 H   0  0  0  0  0  0  0  0  0  0  0  0
   -1.1121    1.6107    2.2269 H   0  0  0  0  0  0  0  0  0  0  0  0
    0.1697    3.5309   -0.3169 C   0  0  0  0  0  0  0  0  0  0  0  0
   -0.0834    3.7088   -1.3621 H   0  0  0  0  0  0  0  0  0  0  0  0
    0.0678    4.4685    0.2296 H   0  0  0  0  0  0  0  0  0  0  0  0
    1.2021    3.1859   -0.2503 H   0  0  0  0  0  0  0  0  0  0  0  0
   -0.1913    0.1554    1.7759 C   0  0  0  0  0  0  0  0  0  0  0  0
    0.9476   -0.0766    2.1748 O   0  0  0  0  0  0  0  0  0  0  0  0
   -1.1502    0.6393    2.5760 N   0  0  0  0  0  0  0  0  0  0  0  0
   -2.0581    0.8092    2.1736 H   0  0  0  0  0  0  0  0  0  0  0  0
   -0.9568    0.9369    3.9933 C   0  0  0  0  0  0  0  0  0  0  0  0
   -0.1600    1.6750    4.1097 H   0  0  0  0  0  0  0  0  0  0  0  0
   -1.8775    1.3307    4.4266 H   0  0  0  0  0  0  0  0  0  0  0  0
   -0.6678    0.0287    4.5244 H   0  0  0  0  0  0  0  0  0  0  0  0
  5  6  2  0  0  0  0
  5  7  1  0  0  0  0
  2  3  1  0  0  0  0
  2  4  1  0  0  0  0
  2  5  1  0  0  0  0
  1  2  1  0  0  0  0
 24 25  2  0  0  0  0
 24 26  1  0  0  0  0
 20 21  1  0  0  0  0
 20 22  1  0  0  0  0
 20 23  1  0  0  0  0
 16 17  1  0  0  0  0
 16 18  1  0  0  0  0
 16 19  1  0  0  0  0
 14 15  1  0  0  0  0
 14 16  1  0  0  0  0
 14 20  1  0  0  0  0
 11 12  1  0  0  0  0
 11 13  1  0  0  0  0
 11 14  1  0  0  0  0
  9 10  1  0  0  0  0
  9 11  1  0  0  0  0
  9 24  1  0  0  0  0
  7  8  1  0  0  0  0
  7  9  1  0  0  0  0
 28 29  1  0  0  0  0
 28 30  1  0  0  0  0
 28 31  1  0  0  0  0
 26 27  1  0  0  0  0
 26 28  1  0  0  0  0
M  END
$$$$
default_name
  -OEChem-02102213163D

 31 30  0     1  0  0  0  0  0999 V2000
   -3.5895   -3.5013    1.1082 H   0  0  0  0  0  0  0  0  0  0  0  0
   -3.5145   -2.5363    0.6082 C   0  0  0  0  0  0  0  0  0  0  0  0
   -4.2285   -1.8413    1.0452 H   0  0  0  0  0  0  0  0  0  0  0  0
   -3.7155   -2.6583   -0.4538 H   0  0  0  0  0  0  0  0  0  0  0  0
   -2.1155   -1.9963    0.7922 C   0  0  0  0  0  0  0  0  0  0  0  0
   -1.2875   -2.6383    1.4252 O   0  0  0  0  0  0  0  0  0  0  0  0
   -1.8575   -0.8123    0.2402 N   0  0  0  0  0  0  0  0  0  0  0  0
   -2.6005   -0.3333   -0.2478 H   0  0  0  0  0  0  0  0  0  0  0  0
   -0.5675   -0.1203    0.3102 C   0  0  1  0  0  0  0  0  0  0  0  0
    0.1932   -0.7715   -0.1219 H   0  0  0  0  0  0  0  0  0  0  0  0
   -0.6568    1.1713   -0.5294 C   0  0  0  0  0  0  0  0  0  0  0  0
    0.2270    1.2342   -1.1673 H   0  0  0  0  0  0  0  0  0  0  0  0
   -1.5297    1.0905   -1.1809 H   0  0  0  0  0  0  0  0  0  0  0  0
   -0.7748    2.4823    0.2694 C   0  0  0  0  0  0  0  0  0  0  0  0
   -1.8259    2.7263    0.4232 H   0  0  0  0  0  0  0  0  0  0  0  0
   -0.0792    2.3956    1.6310 C   0  0  0  0  0  0  0  0  0  0  0  0
    0.9714    2.1359    1.4945 H   0  0  0  0  0  0  0  0  0  0  0  0
   -0.1455    3.3580    2.1391 H   0  0  0  0  0  0  0  0  0  0  0  0
   -0.5529    1.6426    2.2572 H   0  0  0  0  0  0  0  0  0  0  0  0
   -0.1339    3.6254   -0.5168 C   0  0  0  0  0  0  0  0  0  0  0  0
   -0.6315    3.7317   -1.4806 H   0  0  0  0  0  0  0  0  0  0  0  0
   -0.2406    4.5598    0.0342 H   0  0  0  0  0  0  0  0  0  0  0  0
    0.9252    3.4222   -0.6790 H   0  0  0  0  0  0  0  0  0  0  0  0
   -0.1913    0.1554    1.7759 C   0  0  0  0  0  0  0  0  0  0  0  0
    0.9476   -0.0766    2.1748 O   0  0  0  0  0  0  0  0  0  0  0  0
   -1.1502    0.6393    2.5760 N   0  0  0  0  0  0  0  0  0  0  0  0
   -2.0581    0.8092    2.1736 H   0  0  0  0  0  0  0  0  0  0  0  0
   -0.9568    0.9369    3.9933 C   0  0  0  0  0  0  0  0  0  0  0  0
   -0.1600    1.6750    4.1097 H   0  0  0  0  0  0  0  0  0  0  0  0
   -1.8775    1.3307    4.4266 H   0  0  0  0  0  0  0  0  0  0  0  0
   -0.6678    0.0287    4.5244 H   0  0  0  0  0  0  0  0  0  0  0  0
  5  6  2  0  0  0  0
  5  7  1  0  0  0  0
  2  3  1  0  0  0  0
  2  4  1  0  0  0  0
  2  5  1  0  0  0  0
  1  2  1  0  0  0  0
 24 25  2  0  0  0  0
 24 26  1  0  0  0  0
 20 21  1  0  0  0  0
 20 22  1  0  0  0  0
 20 23  1  0  0  0  0
 16 17  1  0  0  0  0
 16 18  1  0  0  0  0
 16 19  1  0  0  0  0
 14 15  1  0  0  0  0
 14 16  1  0  0  0  0
 14 20  1  0  0  0  0
 11 12  1  0  0  0  0
 11 13  1  0  0  0  0
 11 14  1  0  0  0  0
  9 10  1  0  0  0  0
  9 11  1  0  0  0  0
  9 24  1  0  0  0  0
  7  8  1  0  0  0  0
  7  9  1  0  0  0  0
 28 29  1  0  0  0  0
 28 30  1  0  0  0  0
 28 31  1  0  0  0  0
 26 27  1  0  0  0  0
 26 28  1  0  0  0  0
M  END
$$$$
default_name
  -OEChem-02102213163D

 31 30  0     1  0  0  0  0  0999 V2000
   -3.5895   -3.5013    1.1082 H   0  0  0  0  0  0  0  0  0  0  0  0
   -3.5145   -2.5363    0.6082 C   0  0  0  0  0  0  0  0  0  0  0  0
   -4.2285   -1.8413    1.0452 H   0  0  0  0  0  0  0  0  0  0  0  0
   -3.7155   -2.6583   -0.4538 H   0  0  0  0  0  0  0  0  0  0  0  0
   -2.1155   -1.9963    0.7922 C   0  0  0  0  0  0  0  0  0  0  0  0
   -1.2875   -2.6383    1.4252 O   0  0  0  0  0  0  0  0  0  0  0  0
   -1.8575   -0.8123    0.2402 N   0  0  0  0  0  0  0  0  0  0  0  0
   -2.6005   -0.3333   -0.2478 H   0  0  0  0  0  0  0  0  0  0  0  0
   -0.5675   -0.1203    0.3102 C   0  0  1  0  0  0  0  0  0  0  0  0
    0.1932   -0.7715   -0.1219 H   0  0  0  0  0  0  0  0  0  0  0  0
   -0.6568    1.1713   -0.5294 C   0  0  0  0  0  0  0  0  0  0  0  0
    0.2270    1.2342   -1.1673 H   0  0  0  0  0  0  0  0  0  0  0  0
   -1.5297    1.0905   -1.1809 H   0  0  0  0  0  0  0  0  0  0  0  0
   -0.7748    2.4823    0.2694 C   0  0  0  0  0  0  0  0  0  0  0  0
   -1.7899    2.5906    0.6513 H   0  0  0  0  0  0  0  0  0  0  0  0
    0.2073    2.5358    1.4433 C   0  0  0  0  0  0  0  0  0  0  0  0
    1.2279    2.4125    1.0785 H   0  0  0  0  0  0  0  0  0  0  0  0
    0.1232    3.4981    1.9488 H   0  0  0  0  0  0  0  0  0  0  0  0
   -0.0105    1.7491    2.1625 H   0  0  0  0  0  0  0  0  0  0  0  0
   -0.4838    3.6719   -0.6447 C   0  0  0  0  0  0  0  0  0  0  0  0
   -1.1902    3.6778   -1.4748 H   0  0  0  0  0  0  0  0  0  0  0  0
   -0.5938    4.6027   -0.0883 H   0  0  0  0  0  0  0  0  0  0  0  0
    0.5316    3.6048   -1.0368 H   0  0  0  0  0  0  0  0  0  0  0  0
   -0.1913    0.1554    1.7759 C   0  0  0  0  0  0  0  0  0  0  0  0
    0.9476   -0.0766    2.1748 O   0  0  0  0  0  0  0  0  0  0  0  0
   -1.1502    0.6393    2.5760 N   0  0  0  0  0  0  0  0  0  0  0  0
   -2.0581    0.8092    2.1736 H   0  0  0  0  0  0  0  0  0  0  0  0
   -0.9568    0.9369    3.9933 C   0  0  0  0  0  0  0  0  0  0  0  0
   -0.1600    1.6750    4.1097 H   0  0  0  0  0  0  0  0  0  0  0  0
   -1.8775    1.3307    4.4266 H   0  0  0  0  0  0  0  0  0  0  0  0
   -0.6678    0.0287    4.5244 H   0  0  0  0  0  0  0  0  0  0  0  0
  5  6  2  0  0  0  0
  5  7  1  0  0  0  0
  2  3  1  0  0  0  0
  2  4  1  0  0  0  0
  2  5  1  0  0  0  0
  1  2  1  0  0  0  0
 24 25  2  0  0  0  0
 24 26  1  0  0  0  0
 20 21  1  0  0  0  0
 20 22  1  0  0  0  0
 20 23  1  0  0  0  0
 16 17  1  0  0  0  0
 16 18  1  0  0  0  0
 16 19  1  0  0  0  0
 14 15  1  0  0  0  0
 14 16  1  0  0  0  0
 14 20  1  0  0  0  0
 11 12  1  0  0  0  0
 11 13  1  0  0  0  0
 11 14  1  0  0  0  0
  9 10  1  0  0  0  0
  9 11  1  0  0  0  0
  9 24  1  0  0  0  0
  7  8  1  0  0  0  0
  7  9  1  0  0  0  0
 28 29  1  0  0  0  0
 28 30  1  0  0  0  0
 28 31  1  0  0  0  0
 26 27  1  0  0  0  0
 26 28  1  0  0  0  0
M  END
$$$$
default_name
  -OEChem-02102213163D

 31 30  0     1  0  0  0  0  0999 V2000
   -3.5895   -3.5013    1.1082 H   0  0  0  0  0  0  0  0  0  0  0  0
   -3.5145   -2.5363    0.6082 C   0  0  0  0  0  0  0  0  0  0  0  0
   -4.2285   -1.8413    1.0452 H   0  0  0  0  0  0  0  0  0  0  0  0
   -3.7155   -2.6583   -0.4538 H   0  0  0  0  0  0  0  0  0  0  0  0
   -2.1155   -1.9963    0.7922 C   0  0  0  0  0  0  0  0  0  0  0  0
   -1.2875   -2.6383    1.4252 O   0  0  0  0  0  0  0  0  0  0  0  0
   -1.8575   -0.8123    0.2402 N   0  0  0  0  0  0  0  0  0  0  0  0
   -2.6005   -0.3333   -0.2478 H   0  0  0  0  0  0  0  0  0  0  0  0
   -0.5675   -0.1203    0.3102 C   0  0  1  0  0  0  0  0  0  0  0  0
    0.1932   -0.7715   -0.1219 H   0  0  0  0  0  0  0  0  0  0  0  0
   -0.6568    1.1713   -0.5294 C   0  0  0  0  0  0  0  0  0  0  0  0
    0.2270    1.2342   -1.1673 H   0  0  0  0  0  0  0  0  0  0  0  0
   -1.5297    1.0905   -1.1809 H   0  0  0  0  0  0  0  0  0  0  0  0
   -0.7748    2.4823    0.2694 C   0  0  0  0  0  0  0  0  0  0  0  0
   -1.6867    2.4688    0.8664 H   0  0  0  0  0  0  0  0  0  0  0  0
    0.4238    2.7059    1.1961 C   0  0  0  0  0  0  0  0  0  0  0  0
    1.3468    2.7058    0.6146 H   0  0  0  0  0  0  0  0  0  0  0  0
    0.3219    3.6657    1.7030 H   0  0  0  0  0  0  0  0  0  0  0  0
    0.4783    1.9230    1.9494 H   0  0  0  0  0  0  0  0  0  0  0  0
   -0.8563    3.6673   -0.6922 C   0  0  0  0  0  0  0  0  0  0  0  0
   -1.7213    3.5509   -1.3449 H   0  0  0  0  0  0  0  0  0  0  0  0
   -0.9677    4.5942   -0.1296 H   0  0  0  0  0  0  0  0  0  0  0  0
    0.0481    3.7212   -1.2993 H   0  0  0  0  0  0  0  0  0  0  0  0
   -0.1913    0.1554    1.7759 C   0  0  0  0  0  0  0  0  0  0  0  0
    0.9476   -0.0766    2.1748 O   0  0  0  0  0  0  0  0  0  0  0  0
   -1.1502    0.6393    2.5760 N   0  0  0  0  0  0  0  0  0  0  0  0
   -2.0581    0.8092    2.1736 H   0  0  0  0  0  0  0  0  0  0  0  0
   -0.9568    0.9369    3.9933 C   0  0  0  0  0  0  0  0  0  0  0  0
   -0.1600    1.6750    4.1097 H   0  0  0  0  0  0  0  0  0  0  0  0
   -1.8775    1.3307    4.4266 H   0  0  0  0  0  0  0  0  0  0  0  0
   -0.6678    0.0287    4.5244 H   0  0  0  0  0  0  0  0  0  0  0  0
  5  6  2  0  0  0  0
  5  7  1  0  0  0  0
  2  3  1  0  0  0  0
  2  4  1  0  0  0  0
  2  5  1  0  0  0  0
  1  2  1  0  0  0  0
 24 25  2  0  0  0  0
 24 26  1  0  0  0  0
 20 21  1  0  0  0  0
 20 22  1  0  0  0  0
 20 23  1  0  0  0  0
 16 17  1  0  0  0  0
 16 18  1  0  0  0  0
 16 19  1  0  0  0  0
 14 15  1  0  0  0  0
 14 16  1  0  0  0  0
 14 20  1  0  0  0  0
 11 12  1  0  0  0  0
 11 13  1  0  0  0  0
 11 14  1  0  0  0  0
  9 10  1  0  0  0  0
  9 11  1  0  0  0  0
  9 24  1  0  0  0  0
  7  8  1  0  0  0  0
  7  9  1  0  0  0  0
 28 29  1  0  0  0  0
 28 30  1  0  0  0  0
 28 31  1  0  0  0  0
 26 27  1  0  0  0  0
 26 28  1  0  0  0  0
M  END
$$$$
default_name
  -OEChem-02102213163D

 31 30  0     1  0  0  0  0  0999 V2000
   -3.5895   -3.5013    1.1082 H   0  0  0  0  0  0  0  0  0  0  0  0
   -3.5145   -2.5363    0.6082 C   0  0  0  0  0  0  0  0  0  0  0  0
   -4.2285   -1.8413    1.0452 H   0  0  0  0  0  0  0  0  0  0  0  0
   -3.7155   -2.6583   -0.4538 H   0  0  0  0  0  0  0  0  0  0  0  0
   -2.1155   -1.9963    0.7922 C   0  0  0  0  0  0  0  0  0  0  0  0
   -1.2875   -2.6383    1.4252 O   0  0  0  0  0  0  0  0  0  0  0  0
   -1.8575   -0.8123    0.2402 N   0  0  0  0  0  0  0  0  0  0  0  0
   -2.6005   -0.3333   -0.2478 H   0  0  0  0  0  0  0  0  0  0  0  0
   -0.5675   -0.1203    0.3102 C   0  0  1  0  0  0  0  0  0  0  0  0
    0.1932   -0.7715   -0.1219 H   0  0  0  0  0  0  0  0  0  0  0  0
   -0.6568    1.1713   -0.5294 C   0  0  0  0  0  0  0  0  0  0  0  0
    0.2270    1.2342   -1.1673 H   0  0  0  0  0  0  0  0  0  0  0  0
   -1.5297    1.0905   -1.1809 H   0  0  0  0  0  0  0  0  0  0  0  0
   -0.7748    2.4823    0.2694 C   0  0  0  0  0  0  0  0  0  0  0  0
   -1.5232    2.3694    1.0538 H   0  0  0  0  0  0  0  0  0  0  0  0
    0.5556    2.8944    0.9062 C   0  0  0  0  0  0  0  0  0  0  0  0
    1.3200    2.9959    0.1346 H   0  0  0  0  0  0  0  0  0  0  0  0
    0.4372    3.8495    1.4185 H   0  0  0  0  0  0  0  0  0  0  0  0
    0.8802    2.1523    1.6324 H   0  0  0  0  0  0  0  0  0  0  0  0
   -1.2259    3.6118   -0.6558 C   0  0  0  0  0  0  0  0  0  0  0  0
   -2.1887    3.3596   -1.1000 H   0  0  0  0  0  0  0  0  0  0  0  0
   -1.3368    4.5350   -0.0870 H   0  0  0  0  0  0  0  0  0  0  0  0
   -0.4925    3.7635   -1.4486 H   0  0  0  0  0  0  0  0  0  0  0  0
   -0.1913    0.1554    1.7759 C   0  0  0  0  0  0  0  0  0  0  0  0
    0.9476   -0.0766    2.1748 O   0  0  0  0  0  0  0  0  0  0  0  0
   -1.1502    0.6393    2.5760 N   0  0  0  0  0  0  0  0  0  0  0  0
   -2.0581    0.8092    2.1736 H   0  0  0  0  0  0  0  0  0  0  0  0
   -0.9568    0.9369    3.9933 C   0  0  0  0  0  0  0  0  0  0  0  0
   -0.1600    1.6750    4.1097 H   0  0  0  0  0  0  0  0  0  0  0  0
   -1.8775    1.3307    4.4266 H   0  0  0  0  0  0  0  0  0  0  0  0
   -0.6678    0.0287    4.5244 H   0  0  0  0  0  0  0  0  0  0  0  0
  5  6  2  0  0  0  0
  5  7  1  0  0  0  0
  2  3  1  0  0  0  0
  2  4  1  0  0  0  0
  2  5  1  0  0  0  0
  1  2  1  0  0  0  0
 24 25  2  0  0  0  0
 24 26  1  0  0  0  0
 20 21  1  0  0  0  0
 20 22  1  0  0  0  0
 20 23  1  0  0  0  0
 16 17  1  0  0  0  0
 16 18  1  0  0  0  0
 16 19  1  0  0  0  0
 14 15  1  0  0  0  0
 14 16  1  0  0  0  0
 14 20  1  0  0  0  0
 11 12  1  0  0  0  0
 11 13  1  0  0  0  0
 11 14  1  0  0  0  0
  9 10  1  0  0  0  0
  9 11  1  0  0  0  0
  9 24  1  0  0  0  0
  7  8  1  0  0  0  0
  7  9  1  0  0  0  0
 28 29  1  0  0  0  0
 28 30  1  0  0  0  0
 28 31  1  0  0  0  0
 26 27  1  0  0  0  0
 26 28  1  0  0  0  0
M  END
$$$$
default_name
  -OEChem-02102213163D

 31 30  0     1  0  0  0  0  0999 V2000
   -3.5895   -3.5013    1.1082 H   0  0  0  0  0  0  0  0  0  0  0  0
   -3.5145   -2.5363    0.6082 C   0  0  0  0  0  0  0  0  0  0  0  0
   -4.2285   -1.8413    1.0452 H   0  0  0  0  0  0  0  0  0  0  0  0
   -3.7155   -2.6583   -0.4538 H   0  0  0  0  0  0  0  0  0  0  0  0
   -2.1155   -1.9963    0.7922 C   0  0  0  0  0  0  0  0  0  0  0  0
   -1.2875   -2.6383    1.4252 O   0  0  0  0  0  0  0  0  0  0  0  0
   -1.8575   -0.8123    0.2402 N   0  0  0  0  0  0  0  0  0  0  0  0
   -2.6005   -0.3333   -0.2478 H   0  0  0  0  0  0  0  0  0  0  0  0
   -0.5675   -0.1203    0.3102 C   0  0  1  0  0  0  0  0  0  0  0  0
    0.1932   -0.7715   -0.1219 H   0  0  0  0  0  0  0  0  0  0  0  0
   -0.6568    1.1713   -0.5294 C   0  0  0  0  0  0  0  0  0  0  0  0
    0.2270    1.2342   -1.1673 H   0  0  0  0  0  0  0  0  0  0  0  0
   -1.5297    1.0905   -1.1809 H   0  0  0  0  0  0  0  0  0  0  0  0
   -0.7748    2.4823    0.2694 C   0  0  0  0  0  0  0  0  0  0  0  0
   -1.3107    2.2989    1.2007 H   0  0  0  0  0  0  0  0  0  0  0  0
    0.5938    3.0885    0.5934 C   0  0  0  0  0  0  0  0  0  0  0  0
    1.1494    3.2630   -0.3290 H   0  0  0  0  0  0  0  0  0  0  0  0
    0.4612    4.0368    1.1146 H   0  0  0  0  0  0  0  0  0  0  0  0
    1.1677    2.4215    1.2331 H   0  0  0  0  0  0  0  0  0  0  0  0
   -1.5674    3.5094   -0.5382 C   0  0  0  0  0  0  0  0  0  0  0  0
   -2.5605    3.1169   -0.7566 H   0  0  0  0  0  0  0  0  0  0  0  0
   -1.6761    4.4291    0.0366 H   0  0  0  0  0  0  0  0  0  0  0  0
   -1.0532    3.7289   -1.4745 H   0  0  0  0  0  0  0  0  0  0  0  0
   -0.1913    0.1554    1.7759 C   0  0  0  0  0  0  0  0  0  0  0  0
    0.9476   -0.0766    2.1748 O   0  0  0  0  0  0  0  0  0  0  0  0
   -1.1502    0.6393    2.5760 N   0  0  0  0  0  0  0  0  0  0  0  0
   -2.0581    0.8092    2.1736 H   0  0  0  0  0  0  0  0  0  0  0  0
   -0.9568    0.9369    3.9933 C   0  0  0  0  0  0  0  0  0  0  0  0
   -0.1600    1.6750    4.1097 H   0  0  0  0  0  0  0  0  0  0  0  0
   -1.8775    1.3307    4.4266 H   0  0  0  0  0  0  0  0  0  0  0  0
   -0.6678    0.0287    4.5244 H   0  0  0  0  0  0  0  0  0  0  0  0
  5  6  2  0  0  0  0
  5  7  1  0  0  0  0
  2  3  1  0  0  0  0
  2  4  1  0  0  0  0
  2  5  1  0  0  0  0
  1  2  1  0  0  0  0
 24 25  2  0  0  0  0
 24 26  1  0  0  0  0
 20 21  1  0  0  0  0
 20 22  1  0  0  0  0
 20 23  1  0  0  0  0
 16 17  1  0  0  0  0
 16 18  1  0  0  0  0
 16 19  1  0  0  0  0
 14 15  1  0  0  0  0
 14 16  1  0  0  0  0
 14 20  1  0  0  0  0
 11 12  1  0  0  0  0
 11 13  1  0  0  0  0
 11 14  1  0  0  0  0
  9 10  1  0  0  0  0
  9 11  1  0  0  0  0
  9 24  1  0  0  0  0
  7  8  1  0  0  0  0
  7  9  1  0  0  0  0
 28 29  1  0  0  0  0
 28 30  1  0  0  0  0
 28 31  1  0  0  0  0
 26 27  1  0  0  0  0
 26 28  1  0  0  0  0
M  END
$$$$
default_name
  -OEChem-02102213163D

 31 30  0     1  0  0  0  0  0999 V2000
   -3.5895   -3.5013    1.1082 H   0  0  0  0  0  0  0  0  0  0  0  0
   -3.5145   -2.5363    0.6082 C   0  0  0  0  0  0  0  0  0  0  0  0
   -4.2285   -1.8413    1.0452 H   0  0  0  0  0  0  0  0  0  0  0  0
   -3.7155   -2.6583   -0.4538 H   0  0  0  0  0  0  0  0  0  0  0  0
   -2.1155   -1.9963    0.7922 C   0  0  0  0  0  0  0  0  0  0  0  0
   -1.2875   -2.6383    1.4252 O   0  0  0  0  0  0  0  0  0  0  0  0
   -1.8575   -0.8123    0.2402 N   0  0  0  0  0  0  0  0  0  0  0  0
   -2.6005   -0.3333   -0.2478 H   0  0  0  0  0  0  0  0  0  0  0  0
   -0.5675   -0.1203    0.3102 C   0  0  1  0  0  0  0  0  0  0  0  0
    0.1932   -0.7715   -0.1219 H   0  0  0  0  0  0  0  0  0  0  0  0
   -0.6568    1.1713   -0.5294 C   0  0  0  0  0  0  0  0  0  0  0  0
    0.2270    1.2342   -1.1673 H   0  0  0  0  0  0  0  0  0  0  0  0
   -1.5297    1.0905   -1.1809 H   0  0  0  0  0  0  0  0  0  0  0  0
   -0.7748    2.4823    0.2694 C   0  0  0  0  0  0  0  0  0  0  0  0
   -1.0635    2.2624    1.2972 H   0  0  0  0  0  0  0  0  0  0  0  0
    0.5356    3.2748    0.2790 C   0  0  0  0  0  0  0  0  0  0  0  0
    0.8466    3.4889   -0.7444 H   0  0  0  0  0  0  0  0  0  0  0  0
    0.3922    4.2149    0.8121 H   0  0  0  0  0  0  0  0  0  0  0  0
    1.3212    2.7122    0.7787 H   0  0  0  0  0  0  0  0  0  0  0  0
   -1.8576    3.3669   -0.3472 C   0  0  0  0  0  0  0  0  0  0  0  0
   -2.8113    2.8393   -0.3381 H   0  0  0  0  0  0  0  0  0  0  0  0
   -1.9623    4.2837    0.2330 H   0  0  0  0  0  0  0  0  0  0  0  0
   -1.5959    3.6196   -1.3753 H   0  0  0  0  0  0  0  0  0  0  0  0
   -0.1913    0.1554    1.7759 C   0  0  0  0  0  0  0  0  0  0  0  0
    0.9476   -0.0766    2.1748 O   0  0  0  0  0  0  0  0  0  0  0  0
   -1.1502    0.6393    2.5760 N   0  0  0  0  0  0  0  0  0  0  0  0
   -2.0581    0.8092    2.1736 H   0  0  0  0  0  0  0  0  0  0  0  0
   -0.9568    0.9369    3.9933 C   0  0  0  0  0  0  0  0  0  0  0  0
   -0.1600    1.6750    4.1097 H   0  0  0  0  0  0  0  0  0  0  0  0
   -1.8775    1.3307    4.4266 H   0  0  0  0  0  0  0  0  0  0  0  0
   -0.6678    0.0287    4.5244 H   0  0  0  0  0  0  0  0  0  0  0  0
  5  6  2  0  0  0  0
  5  7  1  0  0  0  0
  2  3  1  0  0  0  0
  2  4  1  0  0  0  0
  2  5  1  0  0  0  0
  1  2  1  0  0  0  0
 24 25  2  0  0  0  0
 24 26  1  0  0  0  0
 20 21  1  0  0  0  0
 20 22  1  0  0  0  0
 20 23  1  0  0  0  0
 16 17  1  0  0  0  0
 16 18  1  0  0  0  0
 16 19  1  0  0  0  0
 14 15  1  0  0  0  0
 14 16  1  0  0  0  0
 14 20  1  0  0  0  0
 11 12  1  0  0  0  0
 11 13  1  0  0  0  0
 11 14  1  0  0  0  0
  9 10  1  0  0  0  0
  9 11  1  0  0  0  0
  9 24  1  0  0  0  0
  7  8  1  0  0  0  0
  7  9  1  0  0  0  0
 28 29  1  0  0  0  0
 28 30  1  0  0  0  0
 28 31  1  0  0  0  0
 26 27  1  0  0  0  0
 26 28  1  0  0  0  0
M  END
$$$$
default_name
  -OEChem-02102213163D

 31 30  0     1  0  0  0  0  0999 V2000
   -3.5895   -3.5013    1.1082 H   0  0  0  0  0  0  0  0  0  0  0  0
   -3.5145   -2.5363    0.6082 C   0  0  0  0  0  0  0  0  0  0  0  0
   -4.2285   -1.8413    1.0452 H   0  0  0  0  0  0  0  0  0  0  0  0
   -3.7155   -2.6583   -0.4538 H   0  0  0  0  0  0  0  0  0  0  0  0
   -2.1155   -1.9963    0.7922 C   0  0  0  0  0  0  0  0  0  0  0  0
   -1.2875   -2.6383    1.4252 O   0  0  0  0  0  0  0  0  0  0  0  0
   -1.8575   -0.8123    0.2402 N   0  0  0  0  0  0  0  0  0  0  0  0
   -2.6005   -0.3333   -0.2478 H   0  0  0  0  0  0  0  0  0  0  0  0
   -0.5675   -0.1203    0.3102 C   0  0  1  0  0  0  0  0  0  0  0  0
    0.1932   -0.7715   -0.1219 H   0  0  0  0  0  0  0  0  0  0  0  0
   -0.6568    1.1713   -0.5294 C   0  0  0  0  0  0  0  0  0  0  0  0
    0.2270    1.2342   -1.1673 H   0  0  0  0  0  0  0  0  0  0  0  0
   -1.5297    1.0905   -1.1809 H   0  0  0  0  0  0  0  0  0  0  0  0
   -0.7748    2.4823    0.2694 C   0  0  0  0  0  0  0  0  0  0  0  0
   -0.7986    2.2622    1.3367 H   0  0  0  0  0  0  0  0  0  0  0  0
    0.3852    3.4408   -0.0156 C   0  0  0  0  0  0  0  0  0  0  0  0
    0.4322    3.6582   -1.0835 H   0  0  0  0  0  0  0  0  0  0  0  0
    0.2350    4.3717    0.5316 H   0  0  0  0  0  0  0  0  0  0  0  0
    1.3304    3.0046    0.3002 H   0  0  0  0  0  0  0  0  0  0  0  0
   -2.0768    3.1941   -0.0960 C   0  0  0  0  0  0  0  0  0  0  0  0
   -2.9241    2.5458    0.1269 H   0  0  0  0  0  0  0  0  0  0  0  0
   -2.1759    4.1087    0.4886 H   0  0  0  0  0  0  0  0  0  0  0  0
   -2.0836    3.4431   -1.1577 H   0  0  0  0  0  0  0  0  0  0  0  0
   -0.1913    0.1554    1.7759 C   0  0  0  0  0  0  0  0  0  0  0  0
    0.9476   -0.0766    2.1748 O   0  0  0  0  0  0  0  0  0  0  0  0
   -1.1502    0.6393    2.5760 N   0  0  0  0  0  0  0  0  0  0  0  0
   -2.0581    0.8092    2.1736 H   0  0  0  0  0  0  0  0  0  0  0  0
   -0.9568    0.9369    3.9933 C   0  0  0  0  0  0  0  0  0  0  0  0
   -0.1600    1.6750    4.1097 H   0  0  0  0  0  0  0  0  0  0  0  0
   -1.8775    1.3307    4.4266 H   0  0  0  0  0  0  0  0  0  0  0  0
   -0.6678    0.0287    4.5244 H   0  0  0  0  0  0  0  0  0  0  0  0
  5  6  2  0  0  0  0
  5  7  1  0  0  0  0
  2  3  1  0  0  0  0
  2  4  1  0  0  0  0
  2  5  1  0  0  0  0
  1  2  1  0  0  0  0
 24 25  2  0  0  0  0
 24 26  1  0  0  0  0
 20 21  1  0  0  0  0
 20 22  1  0  0  0  0
 20 23  1  0  0  0  0
 16 17  1  0  0  0  0
 16 18  1  0  0  0  0
 16 19  1  0  0  0  0
 14 15  1  0  0  0  0
 14 16  1  0  0  0  0
 14 20  1  0  0  0  0
 11 12  1  0  0  0  0
 11 13  1  0  0  0  0
 11 14  1  0  0  0  0
  9 10  1  0  0  0  0
  9 11  1  0  0  0  0
  9 24  1  0  0  0  0
  7  8  1  0  0  0  0
  7  9  1  0  0  0  0
 28 29  1  0  0  0  0
 28 30  1  0  0  0  0
 28 31  1  0  0  0  0
 26 27  1  0  0  0  0
 26 28  1  0  0  0  0
M  END
$$$$
default_name
  -OEChem-02102213163D

 31 30  0     1  0  0  0  0  0999 V2000
   -3.5895   -3.5013    1.1082 H   0  0  0  0  0  0  0  0  0  0  0  0
   -3.5145   -2.5363    0.6082 C   0  0  0  0  0  0  0  0  0  0  0  0
   -4.2285   -1.8413    1.0452 H   0  0  0  0  0  0  0  0  0  0  0  0
   -3.7155   -2.6583   -0.4538 H   0  0  0  0  0  0  0  0  0  0  0  0
   -2.1155   -1.9963    0.7922 C   0  0  0  0  0  0  0  0  0  0  0  0
   -1.2875   -2.6383    1.4252 O   0  0  0  0  0  0  0  0  0  0  0  0
   -1.8575   -0.8123    0.2402 N   0  0  0  0  0  0  0  0  0  0  0  0
   -2.6005   -0.3333   -0.2478 H   0  0  0  0  0  0  0  0  0  0  0  0
   -0.5675   -0.1203    0.3102 C   0  0  1  0  0  0  0  0  0  0  0  0
    0.1932   -0.7715   -0.1219 H   0  0  0  0  0  0  0  0  0  0  0  0
   -0.6568    1.1713   -0.5294 C   0  0  0  0  0  0  0  0  0  0  0  0
    0.2270    1.2342   -1.1673 H   0  0  0  0  0  0  0  0  0  0  0  0
   -1.5297    1.0905   -1.1809 H   0  0  0  0  0  0  0  0  0  0  0  0
   -0.7748    2.4823    0.2694 C   0  0  0  0  0  0  0  0  0  0  0  0
   -0.5340    2.2983    1.3165 H   0  0  0  0  0  0  0  0  0  0  0  0
    0.1526    3.5750   -0.2703 C   0  0  0  0  0  0  0  0  0  0  0  0
   -0.0655    3.7594   -1.3231 H   0  0  0  0  0  0  0  0  0  0  0  0
    0.0003    4.4965    0.2921 H   0  0  0  0  0  0  0  0  0  0  0  0
    1.1945    3.2788   -0.1698 H   0  0  0  0  0  0  0  0  0  0  0  0
   -2.2098    3.0028    0.1984 C   0  0  0  0  0  0  0  0  0  0  0  0
   -2.8912    2.2564    0.6067 H   0  0  0  0  0  0  0  0  0  0  0  0
   -2.3025    3.9161    0.7860 H   0  0  0  0  0  0  0  0  0  0  0  0
   -2.4829    3.2115   -0.8366 H   0  0  0  0  0  0  0  0  0  0  0  0
   -0.1913    0.1554    1.7759 C   0  0  0  0  0  0  0  0  0  0  0  0
    0.9476   -0.0766    2.1748 O   0  0  0  0  0  0  0  0  0  0  0  0
   -1.1502    0.6393    2.5760 N   0  0  0  0  0  0  0  0  0  0  0  0
   -2.0581    0.8092    2.1736 H   0  0  0  0  0  0  0  0  0  0  0  0
   -0.9568    0.9369    3.9933 C   0  0  0  0  0  0  0  0  0  0  0  0
   -0.1600    1.6750    4.1097 H   0  0  0  0  0  0  0  0  0  0  0  0
   -1.8775    1.3307    4.4266 H   0  0  0  0  0  0  0  0  0  0  0  0
   -0.6678    0.0287    4.5244 H   0  0  0  0  0  0  0  0  0  0  0  0
  5  6  2  0  0  0  0
  5  7  1  0  0  0  0
  2  3  1  0  0  0  0
  2  4  1  0  0  0  0
  2  5  1  0  0  0  0
  1  2  1  0  0  0  0
 24 25  2  0  0  0  0
 24 26  1  0  0  0  0
 20 21  1  0  0  0  0
 20 22  1  0  0  0  0
 20 23  1  0  0  0  0
 16 17  1  0  0  0  0
 16 18  1  0  0  0  0
 16 19  1  0  0  0  0
 14 15  1  0  0  0  0
 14 16  1  0  0  0  0
 14 20  1  0  0  0  0
 11 12  1  0  0  0  0
 11 13  1  0  0  0  0
 11 14  1  0  0  0  0
  9 10  1  0  0  0  0
  9 11  1  0  0  0  0
  9 24  1  0  0  0  0
  7  8  1  0  0  0  0
  7  9  1  0  0  0  0
 28 29  1  0  0  0  0
 28 30  1  0  0  0  0
 28 31  1  0  0  0  0
 26 27  1  0  0  0  0
 26 28  1  0  0  0  0
M  END
$$$$
default_name
  -OEChem-02102213163D

 31 30  0     1  0  0  0  0  0999 V2000
   -3.5895   -3.5013    1.1082 H   0  0  0  0  0  0  0  0  0  0  0  0
   -3.5145   -2.5363    0.6082 C   0  0  0  0  0  0  0  0  0  0  0  0
   -4.2285   -1.8413    1.0452 H   0  0  0  0  0  0  0  0  0  0  0  0
   -3.7155   -2.6583   -0.4538 H   0  0  0  0  0  0  0  0  0  0  0  0
   -2.1155   -1.9963    0.7922 C   0  0  0  0  0  0  0  0  0  0  0  0
   -1.2875   -2.6383    1.4252 O   0  0  0  0  0  0  0  0  0  0  0  0
   -1.8575   -0.8123    0.2402 N   0  0  0  0  0  0  0  0  0  0  0  0
   -2.6005   -0.3333   -0.2478 H   0  0  0  0  0  0  0  0  0  0  0  0
   -0.5675   -0.1203    0.3102 C   0  0  1  0  0  0  0  0  0  0  0  0
    0.1932   -0.7715   -0.1219 H   0  0  0  0  0  0  0  0  0  0  0  0
   -0.6568    1.1713   -0.5294 C   0  0  0  0  0  0  0  0  0  0  0  0
    0.2270    1.2342   -1.1673 H   0  0  0  0  0  0  0  0  0  0  0  0
   -1.5297    1.0905   -1.1809 H   0  0  0  0  0  0  0  0  0  0  0  0
   -0.7748    2.4823    0.2694 C   0  0  0  0  0  0  0  0  0  0  0  0
   -0.2877    2.3684    1.2379 H   0  0  0  0  0  0  0  0  0  0  0  0
   -0.1462    3.6684   -0.4677 C   0  0  0  0  0  0  0  0  0  0  0  0
   -0.6126    3.7855   -1.4468 H   0  0  0  0  0  0  0  0  0  0  0  0
   -0.2959    4.5808    0.1100 H   0  0  0  0  0  0  0  0  0  0  0  0
    0.9229    3.5160   -0.5993 H   0  0  0  0  0  0  0  0  0  0  0  0
   -2.2478    2.8059    0.5159 C   0  0  0  0  0  0  0  0  0  0  0  0
   -2.7148    1.9908    1.0686 H   0  0  0  0  0  0  0  0  0  0  0  0
   -2.3333    3.7189    1.1050 H   0  0  0  0  0  0  0  0  0  0  0  0
   -2.7668    2.9405   -0.4338 H   0  0  0  0  0  0  0  0  0  0  0  0
   -0.1913    0.1554    1.7759 C   0  0  0  0  0  0  0  0  0  0  0  0
    0.9476   -0.0766    2.1748 O   0  0  0  0  0  0  0  0  0  0  0  0
   -1.1502    0.6393    2.5760 N   0  0  0  0  0  0  0  0  0  0  0  0
   -2.0581    0.8092    2.1736 H   0  0  0  0  0  0  0  0  0  0  0  0
   -0.9568    0.9369    3.9933 C   0  0  0  0  0  0  0  0  0  0  0  0
   -0.1600    1.6750    4.1097 H   0  0  0  0  0  0  0  0  0  0  0  0
   -1.8775    1.3307    4.4266 H   0  0  0  0  0  0  0  0  0  0  0  0
   -0.6678    0.0287    4.5244 H   0  0  0  0  0  0  0  0  0  0  0  0
  5  6  2  0  0  0  0
  5  7  1  0  0  0  0
  2  3  1  0  0  0  0
  2  4  1  0  0  0  0
  2  5  1  0  0  0  0
  1  2  1  0  0  0  0
 24 25  2  0  0  0  0
 24 26  1  0  0  0  0
 20 21  1  0  0  0  0
 20 22  1  0  0  0  0
 20 23  1  0  0  0  0
 16 17  1  0  0  0  0
 16 18  1  0  0  0  0
 16 19  1  0  0  0  0
 14 15  1  0  0  0  0
 14 16  1  0  0  0  0
 14 20  1  0  0  0  0
 11 12  1  0  0  0  0
 11 13  1  0  0  0  0
 11 14  1  0  0  0  0
  9 10  1  0  0  0  0
  9 11  1  0  0  0  0
  9 24  1  0  0  0  0
  7  8  1  0  0  0  0
  7  9  1  0  0  0  0
 28 29  1  0  0  0  0
 28 30  1  0  0  0  0
 28 31  1  0  0  0  0
 26 27  1  0  0  0  0
 26 28  1  0  0  0  0
M  END
$$$$
default_name
  -OEChem-02102213163D

 31 30  0     1  0  0  0  0  0999 V2000
   -3.5895   -3.5013    1.1082 H   0  0  0  0  0  0  0  0  0  0  0  0
   -3.5145   -2.5363    0.6082 C   0  0  0  0  0  0  0  0  0  0  0  0
   -4.2285   -1.8413    1.0452 H   0  0  0  0  0  0  0  0  0  0  0  0
   -3.7155   -2.6583   -0.4538 H   0  0  0  0  0  0  0  0  0  0  0  0
   -2.1155   -1.9963    0.7922 C   0  0  0  0  0  0  0  0  0  0  0  0
   -1.2875   -2.6383    1.4252 O   0  0  0  0  0  0  0  0  0  0  0  0
   -1.8575   -0.8123    0.2402 N   0  0  0  0  0  0  0  0  0  0  0  0
   -2.6005   -0.3333   -0.2478 H   0  0  0  0  0  0  0  0  0  0  0  0
   -0.5675   -0.1203    0.3102 C   0  0  1  0  0  0  0  0  0  0  0  0
    0.1932   -0.7715   -0.1219 H   0  0  0  0  0  0  0  0  0  0  0  0
   -0.6568    1.1713   -0.5294 C   0  0  0  0  0  0  0  0  0  0  0  0
    0.2270    1.2342   -1.1673 H   0  0  0  0  0  0  0  0  0  0  0  0
   -1.5297    1.0905   -1.1809 H   0  0  0  0  0  0  0  0  0  0  0  0
   -0.7748    2.4823    0.2694 C   0  0  0  0  0  0  0  0  0  0  0  0
   -0.0766    2.4675    1.1063 H   0  0  0  0  0  0  0  0  0  0  0  0
   -0.4908    3.7146   -0.5944 C   0  0  0  0  0  0  0  0  0  0  0  0
   -1.1719    3.7349   -1.4462 H   0  0  0  0  0  0  0  0  0  0  0  0
   -0.6335    4.6188   -0.0022 H   0  0  0  0  0  0  0  0  0  0  0  0
    0.5340    3.7002   -0.9591 H   0  0  0  0  0  0  0  0  0  0  0  0
   -2.1881    2.6169    0.8348 C   0  0  0  0  0  0  0  0  0  0  0  0
   -2.4070    1.7671    1.4812 H   0  0  0  0  0  0  0  0  0  0  0  0
   -2.2663    3.5307    1.4239 H   0  0  0  0  0  0  0  0  0  0  0  0
   -2.9159    2.6486    0.0232 H   0  0  0  0  0  0  0  0  0  0  0  0
   -0.1913    0.1554    1.7759 C   0  0  0  0  0  0  0  0  0  0  0  0
    0.9476   -0.0766    2.1748 O   0  0  0  0  0  0  0  0  0  0  0  0
   -1.1502    0.6393    2.5760 N   0  0  0  0  0  0  0  0  0  0  0  0
   -2.0581    0.8092    2.1736 H   0  0  0  0  0  0  0  0  0  0  0  0
   -0.9568    0.9369    3.9933 C   0  0  0  0  0  0  0  0  0  0  0  0
   -0.1600    1.6750    4.1097 H   0  0  0  0  0  0  0  0  0  0  0  0
   -1.8775    1.3307    4.4266 H   0  0  0  0  0  0  0  0  0  0  0  0
   -0.6678    0.0287    4.5244 H   0  0  0  0  0  0  0  0  0  0  0  0
  5  6  2  0  0  0  0
  5  7  1  0  0  0  0
  2  3  1  0  0  0  0
  2  4  1  0  0  0  0
  2  5  1  0  0  0  0
  1  2  1  0  0  0  0
 24 25  2  0  0  0  0
 24 26  1  0  0  0  0
 20 21  1  0  0  0  0
 20 22  1  0  0  0  0
 20 23  1  0  0  0  0
 16 17  1  0  0  0  0
 16 18  1  0  0  0  0
 16 19  1  0  0  0  0
 14 15  1  0  0  0  0
 14 16  1  0  0  0  0
 14 20  1  0  0  0  0
 11 12  1  0  0  0  0
 11 13  1  0  0  0  0
 11 14  1  0  0  0  0
  9 10  1  0  0  0  0
  9 11  1  0  0  0  0
  9 24  1  0  0  0  0
  7  8  1  0  0  0  0
  7  9  1  0  0  0  0
 28 29  1  0  0  0  0
 28 30  1  0  0  0  0
 28 31  1  0  0  0  0
 26 27  1  0  0  0  0
 26 28  1  0  0  0  0
M  END
$$$$
default_name
  -OEChem-02102213163D

 31 30  0     1  0  0  0  0  0999 V2000
   -3.5895   -3.5013    1.1082 H   0  0  0  0  0  0  0  0  0  0  0  0
   -3.5145   -2.5363    0.6082 C   0  0  0  0  0  0  0  0  0  0  0  0
   -4.2285   -1.8413    1.0452 H   0  0  0  0  0  0  0  0  0  0  0  0
   -3.7155   -2.6583   -0.4538 H   0  0  0  0  0  0  0  0  0  0  0  0
   -2.1155   -1.9963    0.7922 C   0  0  0  0  0  0  0  0  0  0  0  0
   -1.2875   -2.6383    1.4252 O   0  0  0  0  0  0  0  0  0  0  0  0
   -1.8575   -0.8123    0.2402 N   0  0  0  0  0  0  0  0  0  0  0  0
   -2.6005   -0.3333   -0.2478 H   0  0  0  0  0  0  0  0  0  0  0  0
   -0.5675   -0.1203    0.3102 C   0  0  1  0  0  0  0  0  0  0  0  0
    0.1932   -0.7715   -0.1219 H   0  0  0  0  0  0  0  0  0  0  0  0
   -0.6568    1.1713   -0.5294 C   0  0  0  0  0  0  0  0  0  0  0  0
    0.0669    1.1080   -1.3444 H   0  0  0  0  0  0  0  0  0  0  0  0
   -1.6531    1.2160   -0.9746 H   0  0  0  0  0  0  0  0  0  0  0  0
   -0.4144    2.4853    0.2357 C   0  0  0  0  0  0  0  0  0  0  0  0
    0.5751    2.4681    0.6926 H   0  0  0  0  0  0  0  0  0  0  0  0
   -0.5220    3.7132   -0.6731 C   0  0  0  0  0  0  0  0  0  0  0  0
   -1.5025    3.7357   -1.1508 H   0  0  0  0  0  0  0  0  0  0  0  0
   -0.3926    4.6200   -0.0819 H   0  0  0  0  0  0  0  0  0  0  0  0
    0.2474    3.6908   -1.4418 H   0  0  0  0  0  0  0  0  0  0  0  0
   -1.4482    2.6311    1.3517 C   0  0  0  0  0  0  0  0  0  0  0  0
   -1.3730    1.7846    2.0341 H   0  0  0  0  0  0  0  0  0  0  0  0
   -1.2618    3.5471    1.9124 H   0  0  0  0  0  0  0  0  0  0  0  0
   -2.4535    2.6655    0.9303 H   0  0  0  0  0  0  0  0  0  0  0  0
   -0.1913    0.1554    1.7759 C   0  0  0  0  0  0  0  0  0  0  0  0
    0.9476   -0.0766    2.1748 O   0  0  0  0  0  0  0  0  0  0  0  0
   -1.1502    0.6393    2.5760 N   0  0  0  0  0  0  0  0  0  0  0  0
   -2.0581    0.8092    2.1736 H   0  0  0  0  0  0  0  0  0  0  0  0
   -0.9568    0.9369    3.9933 C   0  0  0  0  0  0  0  0  0  0  0  0
   -0.1600    1.6750    4.1097 H   0  0  0  0  0  0  0  0  0  0  0  0
   -1.8775    1.3307    4.4266 H   0  0  0  0  0  0  0  0  0  0  0  0
   -0.6678    0.0287    4.5244 H   0  0  0  0  0  0  0  0  0  0  0  0
  5  6  2  0  0  0  0
  5  7  1  0  0  0  0
  2  3  1  0  0  0  0
  2  4  1  0  0  0  0
  2  5  1  0  0  0  0
  1  2  1  0  0  0  0
 24 25  2  0  0  0  0
 24 26  1  0  0  0  0
 20 21  1  0  0  0  0
 20 22  1  0  0  0  0
 20 23  1  0  0  0  0
 16 17  1  0  0  0  0
 16 18  1  0  0  0  0
 16 19  1  0  0  0  0
 14 15  1  0  0  0  0
 14 16  1  0  0  0  0
 14 20  1  0  0  0  0
 11 12  1  0  0  0  0
 11 13  1  0  0  0  0
 11 14  1  0  0  0  0
  9 10  1  0  0  0  0
  9 11  1  0  0  0  0
  9 24  1  0  0  0  0
  7  8  1  0  0  0  0
  7  9  1  0  0  0  0
 28 29  1  0  0  0  0
 28 30  1  0  0  0  0
 28 31  1  0  0  0  0
 26 27  1  0  0  0  0
 26 28  1  0  0  0  0
M  END
$$$$
default_name
  -OEChem-02102213163D

 31 30  0     1  0  0  0  0  0999 V2000
   -3.5895   -3.5013    1.1082 H   0  0  0  0  0  0  0  0  0  0  0  0
   -3.5145   -2.5363    0.6082 C   0  0  0  0  0  0  0  0  0  0  0  0
   -4.2285   -1.8413    1.0452 H   0  0  0  0  0  0  0  0  0  0  0  0
   -3.7155   -2.6583   -0.4538 H   0  0  0  0  0  0  0  0  0  0  0  0
   -2.1155   -1.9963    0.7922 C   0  0  0  0  0  0  0  0  0  0  0  0
   -1.2875   -2.6383    1.4252 O   0  0  0  0  0  0  0  0  0  0  0  0
   -1.8575   -0.8123    0.2402 N   0  0  0  0  0  0  0  0  0  0  0  0
   -2.6005   -0.3333   -0.2478 H   0  0  0  0  0  0  0  0  0  0  0  0
   -0.5675   -0.1203    0.3102 C   0  0  1  0  0  0  0  0  0  0  0  0
    0.1932   -0.7715   -0.1219 H   0  0  0  0  0  0  0  0  0  0  0  0
   -0.6568    1.1713   -0.5294 C   0  0  0  0  0  0  0  0  0  0  0  0
    0.0669    1.1080   -1.3444 H   0  0  0  0  0  0  0  0  0  0  0  0
   -1.6531    1.2160   -0.9746 H   0  0  0  0  0  0  0  0  0  0  0  0
   -0.4144    2.4853    0.2357 C   0  0  0  0  0  0  0  0  0  0  0  0
    0.6465    2.5881    0.4640 H   0  0  0  0  0  0  0  0  0  0  0  0
   -0.8739    3.7114   -0.5585 C   0  0  0  0  0  0  0  0  0  0  0  0
   -1.9314    3.6157   -0.8088 H   0  0  0  0  0  0  0  0  0  0  0  0
   -0.7291    4.6115    0.0393 H   0  0  0  0  0  0  0  0  0  0  0  0
   -0.2991    3.8119   -1.4767 H   0  0  0  0  0  0  0  0  0  0  0  0
   -1.1825    2.4628    1.5567 C   0  0  0  0  0  0  0  0  0  0  0  0
   -0.8522    1.6162    2.1585 H   0  0  0  0  0  0  0  0  0  0  0  0
   -0.9905    3.3803    2.1129 H   0  0  0  0  0  0  0  0  0  0  0  0
   -2.2528    2.3739    1.3674 H   0  0  0  0  0  0  0  0  0  0  0  0
   -0.1913    0.1554    1.7759 C   0  0  0  0  0  0  0  0  0  0  0  0
    0.9476   -0.0766    2.1748 O   0  0  0  0  0  0  0  0  0  0  0  0
   -1.1502    0.6393    2.5760 N   0  0  0  0  0  0  0  0  0  0  0  0
   -2.0581    0.8092    2.1736 H   0  0  0  0  0  0  0  0  0  0  0  0
   -0.9568    0.9369    3.9933 C   0  0  0  0  0  0  0  0  0  0  0  0
   -0.1600    1.6750    4.1097 H   0  0  0  0  0  0  0  0  0  0  0  0
   -1.8775    1.3307    4.4266 H   0  0  0  0  0  0  0  0  0  0  0  0
   -0.6678    0.0287    4.5244 H   0  0  0  0  0  0  0  0  0  0  0  0
  5  6  2  0  0  0  0
  5  7  1  0  0  0  0
  2  3  1  0  0  0  0
  2  4  1  0  0  0  0
  2  5  1  0  0  0  0
  1  2  1  0  0  0  0
 24 25  2  0  0  0  0
 24 26  1  0  0  0  0
 20 21  1  0  0  0  0
 20 22  1  0  0  0  0
 20 23  1  0  0  0  0
 16 17  1  0  0  0  0
 16 18  1  0  0  0  0
 16 19  1  0  0  0  0
 14 15  1  0  0  0  0
 14 16  1  0  0  0  0
 14 20  1  0  0  0  0
 11 12  1  0  0  0  0
 11 13  1  0  0  0  0
 11 14  1  0  0  0  0
  9 10  1  0  0  0  0
  9 11  1  0  0  0  0
  9 24  1  0  0  0  0
  7  8  1  0  0  0  0
  7  9  1  0  0  0  0
 28 29  1  0  0  0  0
 28 30  1  0  0  0  0
 28 31  1  0  0  0  0
 26 27  1  0  0  0  0
 26 28  1  0  0  0  0
M  END
$$$$
default_name
  -OEChem-02102213163D

 31 30  0     1  0  0  0  0  0999 V2000
   -3.5895   -3.5013    1.1082 H   0  0  0  0  0  0  0  0  0  0  0  0
   -3.5145   -2.5363    0.6082 C   0  0  0  0  0  0  0  0  0  0  0  0
   -4.2285   -1.8413    1.0452 H   0  0  0  0  0  0  0  0  0  0  0  0
   -3.7155   -2.6583   -0.4538 H   0  0  0  0  0  0  0  0  0  0  0  0
   -2.1155   -1.9963    0.7922 C   0  0  0  0  0  0  0  0  0  0  0  0
   -1.2875   -2.6383    1.4252 O   0  0  0  0  0  0  0  0  0  0  0  0
   -1.8575   -0.8123    0.2402 N   0  0  0  0  0  0  0  0  0  0  0  0
   -2.6005   -0.3333   -0.2478 H   0  0  0  0  0  0  0  0  0  0  0  0
   -0.5675   -0.1203    0.3102 C   0  0  1  0  0  0  0  0  0  0  0  0
    0.1932   -0.7715   -0.1219 H   0  0  0  0  0  0  0  0  0  0  0  0
   -0.6568    1.1713   -0.5294 C   0  0  0  0  0  0  0  0  0  0  0  0
    0.0669    1.1080   -1.3444 H   0  0  0  0  0  0  0  0  0  0  0  0
   -1.6531    1.2160   -0.9746 H   0  0  0  0  0  0  0  0  0  0  0  0
   -0.4144    2.4853    0.2357 C   0  0  0  0  0  0  0  0  0  0  0  0
    0.6495    2.7224    0.2323 H   0  0  0  0  0  0  0  0  0  0  0  0
   -1.1883    3.6597   -0.3702 C   0  0  0  0  0  0  0  0  0  0  0  0
   -2.2546    3.4306   -0.3886 H   0  0  0  0  0  0  0  0  0  0  0  0
   -1.0263    4.5551    0.2304 H   0  0  0  0  0  0  0  0  0  0  0  0
   -0.8503    3.8600   -1.3846 H   0  0  0  0  0  0  0  0  0  0  0  0
   -0.8589    2.3259    1.6891 C   0  0  0  0  0  0  0  0  0  0  0  0
   -0.3000    1.5153    2.1567 H   0  0  0  0  0  0  0  0  0  0  0  0
   -0.6627    3.2459    2.2398 H   0  0  0  0  0  0  0  0  0  0  0  0
   -1.9249    2.1004    1.7333 H   0  0  0  0  0  0  0  0  0  0  0  0
   -0.1913    0.1554    1.7759 C   0  0  0  0  0  0  0  0  0  0  0  0
    0.9476   -0.0766    2.1748 O   0  0  0  0  0  0  0  0  0  0  0  0
   -1.1502    0.6393    2.5760 N   0  0  0  0  0  0  0  0  0  0  0  0
   -2.0581    0.8092    2.1736 H   0  0  0  0  0  0  0  0  0  0  0  0
   -0.9568    0.9369    3.9933 C   0  0  0  0  0  0  0  0  0  0  0  0
   -0.1600    1.6750    4.1097 H   0  0  0  0  0  0  0  0  0  0  0  0
   -1.8775    1.3307    4.4266 H   0  0  0  0  0  0  0  0  0  0  0  0
   -0.6678    0.0287    4.5244 H   0  0  0  0  0  0  0  0  0  0  0  0
  5  6  2  0  0  0  0
  5  7  1  0  0  0  0
  2  3  1  0  0  0  0
  2  4  1  0  0  0  0
  2  5  1  0  0  0  0
  1  2  1  0  0  0  0
 24 25  2  0  0  0  0
 24 26  1  0  0  0  0
 20 21  1  0  0  0  0
 20 22  1  0  0  0  0
 20 23  1  0  0  0  0
 16 17  1  0  0  0  0
 16 18  1  0  0  0  0
 16 19  1  0  0  0  0
 14 15  1  0  0  0  0
 14 16  1  0  0  0  0
 14 20  1  0  0  0  0
 11 12  1  0  0  0  0
 11 13  1  0  0  0  0
 11 14  1  0  0  0  0
  9 10  1  0  0  0  0
  9 11  1  0  0  0  0
  9 24  1  0  0  0  0
  7  8  1  0  0  0  0
  7  9  1  0  0  0  0
 28 29  1  0  0  0  0
 28 30  1  0  0  0  0
 28 31  1  0  0  0  0
 26 27  1  0  0  0  0
 26 28  1  0  0  0  0
M  END
$$$$
default_name
  -OEChem-02102213163D

 31 30  0     1  0  0  0  0  0999 V2000
   -3.5895   -3.5013    1.1082 H   0  0  0  0  0  0  0  0  0  0  0  0
   -3.5145   -2.5363    0.6082 C   0  0  0  0  0  0  0  0  0  0  0  0
   -4.2285   -1.8413    1.0452 H   0  0  0  0  0  0  0  0  0  0  0  0
   -3.7155   -2.6583   -0.4538 H   0  0  0  0  0  0  0  0  0  0  0  0
   -2.1155   -1.9963    0.7922 C   0  0  0  0  0  0  0  0  0  0  0  0
   -1.2875   -2.6383    1.4252 O   0  0  0  0  0  0  0  0  0  0  0  0
   -1.8575   -0.8123    0.2402 N   0  0  0  0  0  0  0  0  0  0  0  0
   -2.6005   -0.3333   -0.2478 H   0  0  0  0  0  0  0  0  0  0  0  0
   -0.5675   -0.1203    0.3102 C   0  0  1  0  0  0  0  0  0  0  0  0
    0.1932   -0.7715   -0.1219 H   0  0  0  0  0  0  0  0  0  0  0  0
   -0.6568    1.1713   -0.5294 C   0  0  0  0  0  0  0  0  0  0  0  0
    0.0669    1.1080   -1.3444 H   0  0  0  0  0  0  0  0  0  0  0  0
   -1.6531    1.2160   -0.9746 H   0  0  0  0  0  0  0  0  0  0  0  0
   -0.4144    2.4853    0.2357 C   0  0  0  0  0  0  0  0  0  0  0  0
    0.5840    2.8620    0.0133 H   0  0  0  0  0  0  0  0  0  0  0  0
   -1.4437    3.5617   -0.1210 C   0  0  0  0  0  0  0  0  0  0  0  0
   -2.4503    3.1932    0.0812 H   0  0  0  0  0  0  0  0  0  0  0  0
   -1.2639    4.4545    0.4783 H   0  0  0  0  0  0  0  0  0  0  0  0
   -1.3686    3.8318   -1.1721 H   0  0  0  0  0  0  0  0  0  0  0  0
   -0.4994    2.2300    1.7400 C   0  0  0  0  0  0  0  0  0  0  0  0
    0.2459    1.4891    2.0289 H   0  0  0  0  0  0  0  0  0  0  0  0
   -0.3008    3.1531    2.2846 H   0  0  0  0  0  0  0  0  0  0  0  0
   -1.4922    1.8633    2.0033 H   0  0  0  0  0  0  0  0  0  0  0  0
   -0.1913    0.1554    1.7759 C   0  0  0  0  0  0  0  0  0  0  0  0
    0.9476   -0.0766    2.1748 O   0  0  0  0  0  0  0  0  0  0  0  0
   -1.1502    0.6393    2.5760 N   0  0  0  0  0  0  0  0  0  0  0  0
   -2.0581    0.8092    2.1736 H   0  0  0  0  0  0  0  0  0  0  0  0
   -0.9568    0.9369    3.9933 C   0  0  0  0  0  0  0  0  0  0  0  0
   -0.1600    1.6750    4.1097 H   0  0  0  0  0  0  0  0  0  0  0  0
   -1.8775    1.3307    4.4266 H   0  0  0  0  0  0  0  0  0  0  0  0
   -0.6678    0.0287    4.5244 H   0  0  0  0  0  0  0  0  0  0  0  0
  5  6  2  0  0  0  0
  5  7  1  0  0  0  0
  2  3  1  0  0  0  0
  2  4  1  0  0  0  0
  2  5  1  0  0  0  0
  1  2  1  0  0  0  0
 24 25  2  0  0  0  0
 24 26  1  0  0  0  0
 20 21  1  0  0  0  0
 20 22  1  0  0  0  0
 20 23  1  0  0  0  0
 16 17  1  0  0  0  0
 16 18  1  0  0  0  0
 16 19  1  0  0  0  0
 14 15  1  0  0  0  0
 14 16  1  0  0  0  0
 14 20  1  0  0  0  0
 11 12  1  0  0  0  0
 11 13  1  0  0  0  0
 11 14  1  0  0  0  0
  9 10  1  0  0  0  0
  9 11  1  0  0  0  0
  9 24  1  0  0  0  0
  7  8  1  0  0  0  0
  7  9  1  0  0  0  0
 28 29  1  0  0  0  0
 28 30  1  0  0  0  0
 28 31  1  0  0  0  0
 26 27  1  0  0  0  0
 26 28  1  0  0  0  0
M  END
$$$$
default_name
  -OEChem-02102213163D

 31 30  0     1  0  0  0  0  0999 V2000
   -3.5895   -3.5013    1.1082 H   0  0  0  0  0  0  0  0  0  0  0  0
   -3.5145   -2.5363    0.6082 C   0  0  0  0  0  0  0  0  0  0  0  0
   -4.2285   -1.8413    1.0452 H   0  0  0  0  0  0  0  0  0  0  0  0
   -3.7155   -2.6583   -0.4538 H   0  0  0  0  0  0  0  0  0  0  0  0
   -2.1155   -1.9963    0.7922 C   0  0  0  0  0  0  0  0  0  0  0  0
   -1.2875   -2.6383    1.4252 O   0  0  0  0  0  0  0  0  0  0  0  0
   -1.8575   -0.8123    0.2402 N   0  0  0  0  0  0  0  0  0  0  0  0
   -2.6005   -0.3333   -0.2478 H   0  0  0  0  0  0  0  0  0  0  0  0
   -0.5675   -0.1203    0.3102 C   0  0  1  0  0  0  0  0  0  0  0  0
    0.1932   -0.7715   -0.1219 H   0  0  0  0  0  0  0  0  0  0  0  0
   -0.6568    1.1713   -0.5294 C   0  0  0  0  0  0  0  0  0  0  0  0
    0.0669    1.1080   -1.3444 H   0  0  0  0  0  0  0  0  0  0  0  0
   -1.6531    1.2160   -0.9746 H   0  0  0  0  0  0  0  0  0  0  0  0
   -0.4144    2.4853    0.2357 C   0  0  0  0  0  0  0  0  0  0  0  0
    0.4544    2.9974   -0.1780 H   0  0  0  0  0  0  0  0  0  0  0  0
   -1.6227    3.4240    0.1722 C   0  0  0  0  0  0  0  0  0  0  0  0
   -2.5050    2.9195    0.5685 H   0  0  0  0  0  0  0  0  0  0  0  0
   -1.4257    4.3168    0.7661 H   0  0  0  0  0  0  0  0  0  0  0  0
   -1.8186    3.7293   -0.8534 H   0  0  0  0  0  0  0  0  0  0  0  0
   -0.1287    2.1815    1.7059 C   0  0  0  0  0  0  0  0  0  0  0  0
    0.7484    1.5391    1.7838 H   0  0  0  0  0  0  0  0  0  0  0  0
    0.0705    3.1082    2.2441 H   0  0  0  0  0  0  0  0  0  0  0  0
   -0.9841    1.6791    2.1588 H   0  0  0  0  0  0  0  0  0  0  0  0
   -0.1913    0.1554    1.7759 C   0  0  0  0  0  0  0  0  0  0  0  0
    0.9476   -0.0766    2.1748 O   0  0  0  0  0  0  0  0  0  0  0  0
   -1.1502    0.6393    2.5760 N   0  0  0  0  0  0  0  0  0  0  0  0
   -2.0581    0.8092    2.1736 H   0  0  0  0  0  0  0  0  0  0  0  0
   -0.9568    0.9369    3.9933 C   0  0  0  0  0  0  0  0  0  0  0  0
   -0.1600    1.6750    4.1097 H   0  0  0  0  0  0  0  0  0  0  0  0
   -1.8775    1.3307    4.4266 H   0  0  0  0  0  0  0  0  0  0  0  0
   -0.6678    0.0287    4.5244 H   0  0  0  0  0  0  0  0  0  0  0  0
  5  6  2  0  0  0  0
  5  7  1  0  0  0  0
  2  3  1  0  0  0  0
  2  4  1  0  0  0  0
  2  5  1  0  0  0  0
  1  2  1  0  0  0  0
 24 25  2  0  0  0  0
 24 26  1  0  0  0  0
 20 21  1  0  0  0  0
 20 22  1  0  0  0  0
 20 23  1  0  0  0  0
 16 17  1  0  0  0  0
 16 18  1  0  0  0  0
 16 19  1  0  0  0  0
 14 15  1  0  0  0  0
 14 16  1  0  0  0  0
 14 20  1  0  0  0  0
 11 12  1  0  0  0  0
 11 13  1  0  0  0  0
 11 14  1  0  0  0  0
  9 10  1  0  0  0  0
  9 11  1  0  0  0  0
  9 24  1  0  0  0  0
  7  8  1  0  0  0  0
  7  9  1  0  0  0  0
 28 29  1  0  0  0  0
 28 30  1  0  0  0  0
 28 31  1  0  0  0  0
 26 27  1  0  0  0  0
 26 28  1  0  0  0  0
M  END
$$$$
default_name
  -OEChem-02102213163D

 31 30  0     1  0  0  0  0  0999 V2000
   -3.5895   -3.5013    1.1082 H   0  0  0  0  0  0  0  0  0  0  0  0
   -3.5145   -2.5363    0.6082 C   0  0  0  0  0  0  0  0  0  0  0  0
   -4.2285   -1.8413    1.0452 H   0  0  0  0  0  0  0  0  0  0  0  0
   -3.7155   -2.6583   -0.4538 H   0  0  0  0  0  0  0  0  0  0  0  0
   -2.1155   -1.9963    0.7922 C   0  0  0  0  0  0  0  0  0  0  0  0
   -1.2875   -2.6383    1.4252 O   0  0  0  0  0  0  0  0  0  0  0  0
   -1.8575   -0.8123    0.2402 N   0  0  0  0  0  0  0  0  0  0  0  0
   -2.6005   -0.3333   -0.2478 H   0  0  0  0  0  0  0  0  0  0  0  0
   -0.5675   -0.1203    0.3102 C   0  0  1  0  0  0  0  0  0  0  0  0
    0.1932   -0.7715   -0.1219 H   0  0  0  0  0  0  0  0  0  0  0  0
   -0.6568    1.1713   -0.5294 C   0  0  0  0  0  0  0  0  0  0  0  0
    0.0669    1.1080   -1.3444 H   0  0  0  0  0  0  0  0  0  0  0  0
   -1.6531    1.2160   -0.9746 H   0  0  0  0  0  0  0  0  0  0  0  0
   -0.4144    2.4853    0.2357 C   0  0  0  0  0  0  0  0  0  0  0  0
    0.2695    3.1192   -0.3287 H   0  0  0  0  0  0  0  0  0  0  0  0
   -1.7132    3.2560    0.4893 C   0  0  0  0  0  0  0  0  0  0  0  0
   -2.4150    2.6283    1.0401 H   0  0  0  0  0  0  0  0  0  0  0  0
   -1.5007    4.1512    1.0743 H   0  0  0  0  0  0  0  0  0  0  0  0
   -2.1697    3.5594   -0.4504 H   0  0  0  0  0  0  0  0  0  0  0  0
    0.2282    2.1837    1.5891 C   0  0  0  0  0  0  0  0  0  0  0  0
    1.1732    1.6620    1.4382 H   0  0  0  0  0  0  0  0  0  0  0  0
    0.4261    3.1142    2.1211 H   0  0  0  0  0  0  0  0  0  0  0  0
   -0.4353    1.5601    2.1893 H   0  0  0  0  0  0  0  0  0  0  0  0
   -0.1913    0.1554    1.7759 C   0  0  0  0  0  0  0  0  0  0  0  0
    0.9476   -0.0766    2.1748 O   0  0  0  0  0  0  0  0  0  0  0  0
   -1.1502    0.6393    2.5760 N   0  0  0  0  0  0  0  0  0  0  0  0
   -2.0581    0.8092    2.1736 H   0  0  0  0  0  0  0  0  0  0  0  0
   -0.9568    0.9369    3.9933 C   0  0  0  0  0  0  0  0  0  0  0  0
   -0.1600    1.6750    4.1097 H   0  0  0  0  0  0  0  0  0  0  0  0
   -1.8775    1.3307    4.4266 H   0  0  0  0  0  0  0  0  0  0  0  0
   -0.6678    0.0287    4.5244 H   0  0  0  0  0  0  0  0  0  0  0  0
  5  6  2  0  0  0  0
  5  7  1  0  0  0  0
  2  3  1  0  0  0  0
  2  4  1  0  0  0  0
  2  5  1  0  0  0  0
  1  2  1  0  0  0  0
 24 25  2  0  0  0  0
 24 26  1  0  0  0  0
 20 21  1  0  0  0  0
 20 22  1  0  0  0  0
 20 23  1  0  0  0  0
 16 17  1  0  0  0  0
 16 18  1  0  0  0  0
 16 19  1  0  0  0  0
 14 15  1  0  0  0  0
 14 16  1  0  0  0  0
 14 20  1  0  0  0  0
 11 12  1  0  0  0  0
 11 13  1  0  0  0  0
 11 14  1  0  0  0  0
  9 10  1  0  0  0  0
  9 11  1  0  0  0  0
  9 24  1  0  0  0  0
  7  8  1  0  0  0  0
  7  9  1  0  0  0  0
 28 29  1  0  0  0  0
 28 30  1  0  0  0  0
 28 31  1  0  0  0  0
 26 27  1  0  0  0  0
 26 28  1  0  0  0  0
M  END
$$$$
default_name
  -OEChem-02102213163D

 31 30  0     1  0  0  0  0  0999 V2000
   -3.5895   -3.5013    1.1082 H   0  0  0  0  0  0  0  0  0  0  0  0
   -3.5145   -2.5363    0.6082 C   0  0  0  0  0  0  0  0  0  0  0  0
   -4.2285   -1.8413    1.0452 H   0  0  0  0  0  0  0  0  0  0  0  0
   -3.7155   -2.6583   -0.4538 H   0  0  0  0  0  0  0  0  0  0  0  0
   -2.1155   -1.9963    0.7922 C   0  0  0  0  0  0  0  0  0  0  0  0
   -1.2875   -2.6383    1.4252 O   0  0  0  0  0  0  0  0  0  0  0  0
   -1.8575   -0.8123    0.2402 N   0  0  0  0  0  0  0  0  0  0  0  0
   -2.6005   -0.3333   -0.2478 H   0  0  0  0  0  0  0  0  0  0  0  0
   -0.5675   -0.1203    0.3102 C   0  0  1  0  0  0  0  0  0  0  0  0
    0.1932   -0.7715   -0.1219 H   0  0  0  0  0  0  0  0  0  0  0  0
   -0.6568    1.1713   -0.5294 C   0  0  0  0  0  0  0  0  0  0  0  0
    0.0669    1.1080   -1.3444 H   0  0  0  0  0  0  0  0  0  0  0  0
   -1.6531    1.2160   -0.9746 H   0  0  0  0  0  0  0  0  0  0  0  0
   -0.4144    2.4853    0.2357 C   0  0  0  0  0  0  0  0  0  0  0  0
    0.0420    3.2193   -0.4285 H   0  0  0  0  0  0  0  0  0  0  0  0
   -1.7089    3.0692    0.8088 C   0  0  0  0  0  0  0  0  0  0  0  0
   -2.1865    2.3394    1.4639 H   0  0  0  0  0  0  0  0  0  0  0  0
   -1.4838    3.9690    1.3817 H   0  0  0  0  0  0  0  0  0  0  0  0
   -2.3979    3.3337    0.0095 H   0  0  0  0  0  0  0  0  0  0  0  0
    0.5468    2.2365    1.3975 C   0  0  0  0  0  0  0  0  0  0  0  0
    1.4914    1.8495    1.0155 H   0  0  0  0  0  0  0  0  0  0  0  0
    0.7416    3.1708    1.9240 H   0  0  0  0  0  0  0  0  0  0  0  0
    0.1168    1.5145    2.0926 H   0  0  0  0  0  0  0  0  0  0  0  0
   -0.1913    0.1554    1.7759 C   0  0  0  0  0  0  0  0  0  0  0  0
    0.9476   -0.0766    2.1748 O   0  0  0  0  0  0  0  0  0  0  0  0
   -1.1502    0.6393    2.5760 N   0  0  0  0  0  0  0  0  0  0  0  0
   -2.0581    0.8092    2.1736 H   0  0  0  0  0  0  0  0  0  0  0  0
   -0.9568    0.9369    3.9933 C   0  0  0  0  0  0  0  0  0  0  0  0
   -0.1600    1.6750    4.1097 H   0  0  0  0  0  0  0  0  0  0  0  0
   -1.8775    1.3307    4.4266 H   0  0  0  0  0  0  0  0  0  0  0  0
   -0.6678    0.0287    4.5244 H   0  0  0  0  0  0  0  0  0  0  0  0
  5  6  2  0  0  0  0
  5  7  1  0  0  0  0
  2  3  1  0  0  0  0
  2  4  1  0  0  0  0
  2  5  1  0  0  0  0
  1  2  1  0  0  0  0
 24 25  2  0  0  0  0
 24 26  1  0  0  0  0
 20 21  1  0  0  0  0
 20 22  1  0  0  0  0
 20 23  1  0  0  0  0
 16 17  1  0  0  0  0
 16 18  1  0  0  0  0
 16 19  1  0  0  0  0
 14 15  1  0  0  0  0
 14 16  1  0  0  0  0
 14 20  1  0  0  0  0
 11 12  1  0  0  0  0
 11 13  1  0  0  0  0
 11 14  1  0  0  0  0
  9 10  1  0  0  0  0
  9 11  1  0  0  0  0
  9 24  1  0  0  0  0
  7  8  1  0  0  0  0
  7  9  1  0  0  0  0
 28 29  1  0  0  0  0
 28 30  1  0  0  0  0
 28 31  1  0  0  0  0
 26 27  1  0  0  0  0
 26 28  1  0  0  0  0
M  END
$$$$
default_name
  -OEChem-02102213163D

 31 30  0     1  0  0  0  0  0999 V2000
   -3.5895   -3.5013    1.1082 H   0  0  0  0  0  0  0  0  0  0  0  0
   -3.5145   -2.5363    0.6082 C   0  0  0  0  0  0  0  0  0  0  0  0
   -4.2285   -1.8413    1.0452 H   0  0  0  0  0  0  0  0  0  0  0  0
   -3.7155   -2.6583   -0.4538 H   0  0  0  0  0  0  0  0  0  0  0  0
   -2.1155   -1.9963    0.7922 C   0  0  0  0  0  0  0  0  0  0  0  0
   -1.2875   -2.6383    1.4252 O   0  0  0  0  0  0  0  0  0  0  0  0
   -1.8575   -0.8123    0.2402 N   0  0  0  0  0  0  0  0  0  0  0  0
   -2.6005   -0.3333   -0.2478 H   0  0  0  0  0  0  0  0  0  0  0  0
   -0.5675   -0.1203    0.3102 C   0  0  1  0  0  0  0  0  0  0  0  0
    0.1932   -0.7715   -0.1219 H   0  0  0  0  0  0  0  0  0  0  0  0
   -0.6568    1.1713   -0.5294 C   0  0  0  0  0  0  0  0  0  0  0  0
    0.0669    1.1080   -1.3444 H   0  0  0  0  0  0  0  0  0  0  0  0
   -1.6531    1.2160   -0.9746 H   0  0  0  0  0  0  0  0  0  0  0  0
   -0.4144    2.4853    0.2357 C   0  0  0  0  0  0  0  0  0  0  0  0
   -0.2127    3.2907   -0.4705 H   0  0  0  0  0  0  0  0  0  0  0  0
   -1.6103    2.8763    1.1088 C   0  0  0  0  0  0  0  0  0  0  0  0
   -1.8349    2.0724    1.8110 H   0  0  0  0  0  0  0  0  0  0  0  0
   -1.3761    3.7827    1.6676 H   0  0  0  0  0  0  0  0  0  0  0  0
   -2.4878    3.0676    0.4949 H   0  0  0  0  0  0  0  0  0  0  0  0
    0.8054    2.3363    1.1442 C   0  0  0  0  0  0  0  0  0  0  0  0
    1.6812    2.0887    0.5445 H   0  0  0  0  0  0  0  0  0  0  0  0
    0.9956    3.2740    1.6663 H   0  0  0  0  0  0  0  0  0  0  0  0
    0.6347    1.5454    1.8755 H   0  0  0  0  0  0  0  0  0  0  0  0
   -0.1913    0.1554    1.7759 C   0  0  0  0  0  0  0  0  0  0  0  0
    0.9476   -0.0766    2.1748 O   0  0  0  0  0  0  0  0  0  0  0  0
   -1.1502    0.6393    2.5760 N   0  0  0  0  0  0  0  0  0  0  0  0
   -2.0581    0.8092    2.1736 H   0  0  0  0  0  0  0  0  0  0  0  0
   -0.9568    0.9369    3.9933 C   0  0  0  0  0  0  0  0  0  0  0  0
   -0.1600    1.6750    4.1097 H   0  0  0  0  0  0  0  0  0  0  0  0
   -1.8775    1.3307    4.4266 H   0  0  0  0  0  0  0  0  0  0  0  0
   -0.6678    0.0287    4.5244 H   0  0  0  0  0  0  0  0  0  0  0  0
  5  6  2  0  0  0  0
  5  7  1  0  0  0  0
  2  3  1  0  0  0  0
  2  4  1  0  0  0  0
  2  5  1  0  0  0  0
  1  2  1  0  0  0  0
 24 25  2  0  0  0  0
 24 26  1  0  0  0  0
 20 21  1  0  0  0  0
 20 22  1  0  0  0  0
 20 23  1  0  0  0  0
 16 17  1  0  0  0  0
 16 18  1  0  0  0  0
 16 19  1  0  0  0  0
 14 15  1  0  0  0  0
 14 16  1  0  0  0  0
 14 20  1  0  0  0  0
 11 12  1  0  0  0  0
 11 13  1  0  0  0  0
 11 14  1  0  0  0  0
  9 10  1  0  0  0  0
  9 11  1  0  0  0  0
  9 24  1  0  0  0  0
  7  8  1  0  0  0  0
  7  9  1  0  0  0  0
 28 29  1  0  0  0  0
 28 30  1  0  0  0  0
 28 31  1  0  0  0  0
 26 27  1  0  0  0  0
 26 28  1  0  0  0  0
M  END
$$$$
default_name
  -OEChem-02102213163D

 31 30  0     1  0  0  0  0  0999 V2000
   -3.5895   -3.5013    1.1082 H   0  0  0  0  0  0  0  0  0  0  0  0
   -3.5145   -2.5363    0.6082 C   0  0  0  0  0  0  0  0  0  0  0  0
   -4.2285   -1.8413    1.0452 H   0  0  0  0  0  0  0  0  0  0  0  0
   -3.7155   -2.6583   -0.4538 H   0  0  0  0  0  0  0  0  0  0  0  0
   -2.1155   -1.9963    0.7922 C   0  0  0  0  0  0  0  0  0  0  0  0
   -1.2875   -2.6383    1.4252 O   0  0  0  0  0  0  0  0  0  0  0  0
   -1.8575   -0.8123    0.2402 N   0  0  0  0  0  0  0  0  0  0  0  0
   -2.6005   -0.3333   -0.2478 H   0  0  0  0  0  0  0  0  0  0  0  0
   -0.5675   -0.1203    0.3102 C   0  0  1  0  0  0  0  0  0  0  0  0
    0.1932   -0.7715   -0.1219 H   0  0  0  0  0  0  0  0  0  0  0  0
   -0.6568    1.1713   -0.5294 C   0  0  0  0  0  0  0  0  0  0  0  0
    0.0669    1.1080   -1.3444 H   0  0  0  0  0  0  0  0  0  0  0  0
   -1.6531    1.2160   -0.9746 H   0  0  0  0  0  0  0  0  0  0  0  0
   -0.4144    2.4853    0.2357 C   0  0  0  0  0  0  0  0  0  0  0  0
   -0.4772    3.3287   -0.4520 H   0  0  0  0  0  0  0  0  0  0  0  0
   -1.4239    2.6905    1.3689 C   0  0  0  0  0  0  0  0  0  0  0  0
   -1.3844    1.8456    2.0578 H   0  0  0  0  0  0  0  0  0  0  0  0
   -1.1850    3.6050    1.9123 H   0  0  0  0  0  0  0  0  0  0  0  0
   -2.4332    2.7792    0.9729 H   0  0  0  0  0  0  0  0  0  0  0  0
    0.9864    2.4762    0.8465 C   0  0  0  0  0  0  0  0  0  0  0  0
    1.7298    2.3634    0.0574 H   0  0  0  0  0  0  0  0  0  0  0  0
    1.1707    3.4169    1.3654 H   0  0  0  0  0  0  0  0  0  0  0  0
    1.0830    1.6507    1.5526 H   0  0  0  0  0  0  0  0  0  0  0  0
   -0.1913    0.1554    1.7759 C   0  0  0  0  0  0  0  0  0  0  0  0
    0.9476   -0.0766    2.1748 O   0  0  0  0  0  0  0  0  0  0  0  0
   -1.1502    0.6393    2.5760 N   0  0  0  0  0  0  0  0  0  0  0  0
   -2.0581    0.8092    2.1736 H   0  0  0  0  0  0  0  0  0  0  0  0
   -0.9568    0.9369    3.9933 C   0  0  0  0  0  0  0  0  0  0  0  0
   -0.1600    1.6750    4.1097 H   0  0  0  0  0  0  0  0  0  0  0  0
   -1.8775    1.3307    4.4266 H   0  0  0  0  0  0  0  0  0  0  0  0
   -0.6678    0.0287    4.5244 H   0  0  0  0  0  0  0  0  0  0  0  0
  5  6  2  0  0  0  0
  5  7  1  0  0  0  0
  2  3  1  0  0  0  0
  2  4  1  0  0  0  0
  2  5  1  0  0  0  0
  1  2  1  0  0  0  0
 24 25  2  0  0  0  0
 24 26  1  0  0  0  0
 20 21  1  0  0  0  0
 20 22  1  0  0  0  0
 20 23  1  0  0  0  0
 16 17  1  0  0  0  0
 16 18  1  0  0  0  0
 16 19  1  0  0  0  0
 14 15  1  0  0  0  0
 14 16  1  0  0  0  0
 14 20  1  0  0  0  0
 11 12  1  0  0  0  0
 11 13  1  0  0  0  0
 11 14  1  0  0  0  0
  9 10  1  0  0  0  0
  9 11  1  0  0  0  0
  9 24  1  0  0  0  0
  7  8  1  0  0  0  0
  7  9  1  0  0  0  0
 28 29  1  0  0  0  0
 28 30  1  0  0  0  0
 28 31  1  0  0  0  0
 26 27  1  0  0  0  0
 26 28  1  0  0  0  0
M  END
$$$$
default_name
  -OEChem-02102213163D

 31 30  0     1  0  0  0  0  0999 V2000
   -3.5895   -3.5013    1.1082 H   0  0  0  0  0  0  0  0  0  0  0  0
   -3.5145   -2.5363    0.6082 C   0  0  0  0  0  0  0  0  0  0  0  0
   -4.2285   -1.8413    1.0452 H   0  0  0  0  0  0  0  0  0  0  0  0
   -3.7155   -2.6583   -0.4538 H   0  0  0  0  0  0  0  0  0  0  0  0
   -2.1155   -1.9963    0.7922 C   0  0  0  0  0  0  0  0  0  0  0  0
   -1.2875   -2.6383    1.4252 O   0  0  0  0  0  0  0  0  0  0  0  0
   -1.8575   -0.8123    0.2402 N   0  0  0  0  0  0  0  0  0  0  0  0
   -2.6005   -0.3333   -0.2478 H   0  0  0  0  0  0  0  0  0  0  0  0
   -0.5675   -0.1203    0.3102 C   0  0  1  0  0  0  0  0  0  0  0  0
    0.1932   -0.7715   -0.1219 H   0  0  0  0  0  0  0  0  0  0  0  0
   -0.6568    1.1713   -0.5294 C   0  0  0  0  0  0  0  0  0  0  0  0
    0.0669    1.1080   -1.3444 H   0  0  0  0  0  0  0  0  0  0  0  0
   -1.6531    1.2160   -0.9746 H   0  0  0  0  0  0  0  0  0  0  0  0
   -0.4144    2.4853    0.2357 C   0  0  0  0  0  0  0  0  0  0  0  0
   -0.7334    3.3306   -0.3741 H   0  0  0  0  0  0  0  0  0  0  0  0
   -1.1625    2.5243    1.5714 C   0  0  0  0  0  0  0  0  0  0  0  0
   -0.8655    1.6744    2.1874 H   0  0  0  0  0  0  0  0  0  0  0  0
   -0.9235    3.4479    2.0992 H   0  0  0  0  0  0  0  0  0  0  0  0
   -2.2378    2.4882    1.4107 H   0  0  0  0  0  0  0  0  0  0  0  0
    1.0775    2.6468    0.5247 C   0  0  0  0  0  0  0  0  0  0  0  0
    1.6338    2.6548   -0.4126 H   0  0  0  0  0  0  0  0  0  0  0  0
    1.2550    3.5897    1.0420 H   0  0  0  0  0  0  0  0  0  0  0  0
    1.4311    1.8233    1.1460 H   0  0  0  0  0  0  0  0  0  0  0  0
   -0.1913    0.1554    1.7759 C   0  0  0  0  0  0  0  0  0  0  0  0
    0.9476   -0.0766    2.1748 O   0  0  0  0  0  0  0  0  0  0  0  0
   -1.1502    0.6393    2.5760 N   0  0  0  0  0  0  0  0  0  0  0  0
   -2.0581    0.8092    2.1736 H   0  0  0  0  0  0  0  0  0  0  0  0
   -0.9568    0.9369    3.9933 C   0  0  0  0  0  0  0  0  0  0  0  0
   -0.1600    1.6750    4.1097 H   0  0  0  0  0  0  0  0  0  0  0  0
   -1.8775    1.3307    4.4266 H   0  0  0  0  0  0  0  0  0  0  0  0
   -0.6678    0.0287    4.5244 H   0  0  0  0  0  0  0  0  0  0  0  0
  5  6  2  0  0  0  0
  5  7  1  0  0  0  0
  2  3  1  0  0  0  0
  2  4  1  0  0  0  0
  2  5  1  0  0  0  0
  1  2  1  0  0  0  0
 24 25  2  0  0  0  0
 24 26  1  0  0  0  0
 20 21  1  0  0  0  0
 20 22  1  0  0  0  0
 20 23  1  0  0  0  0
 16 17  1  0  0  0  0
 16 18  1  0  0  0  0
 16 19  1  0  0  0  0
 14 15  1  0  0  0  0
 14 16  1  0  0  0  0
 14 20  1  0  0  0  0
 11 12  1  0  0  0  0
 11 13  1  0  0  0  0
 11 14  1  0  0  0  0
  9 10  1  0  0  0  0
  9 11  1  0  0  0  0
  9 24  1  0  0  0  0
  7  8  1  0  0  0  0
  7  9  1  0  0  0  0
 28 29  1  0  0  0  0
 28 30  1  0  0  0  0
 28 31  1  0  0  0  0
 26 27  1  0  0  0  0
 26 28  1  0  0  0  0
M  END
$$$$
default_name
  -OEChem-02102213163D

 31 30  0     1  0  0  0  0  0999 V2000
   -3.5895   -3.5013    1.1082 H   0  0  0  0  0  0  0  0  0  0  0  0
   -3.5145   -2.5363    0.6082 C   0  0  0  0  0  0  0  0  0  0  0  0
   -4.2285   -1.8413    1.0452 H   0  0  0  0  0  0  0  0  0  0  0  0
   -3.7155   -2.6583   -0.4538 H   0  0  0  0  0  0  0  0  0  0  0  0
   -2.1155   -1.9963    0.7922 C   0  0  0  0  0  0  0  0  0  0  0  0
   -1.2875   -2.6383    1.4252 O   0  0  0  0  0  0  0  0  0  0  0  0
   -1.8575   -0.8123    0.2402 N   0  0  0  0  0  0  0  0  0  0  0  0
   -2.6005   -0.3333   -0.2478 H   0  0  0  0  0  0  0  0  0  0  0  0
   -0.5675   -0.1203    0.3102 C   0  0  1  0  0  0  0  0  0  0  0  0
    0.1932   -0.7715   -0.1219 H   0  0  0  0  0  0  0  0  0  0  0  0
   -0.6568    1.1713   -0.5294 C   0  0  0  0  0  0  0  0  0  0  0  0
    0.0669    1.1080   -1.3444 H   0  0  0  0  0  0  0  0  0  0  0  0
   -1.6531    1.2160   -0.9746 H   0  0  0  0  0  0  0  0  0  0  0  0
   -0.4144    2.4853    0.2357 C   0  0  0  0  0  0  0  0  0  0  0  0
   -0.9640    3.2963   -0.2421 H   0  0  0  0  0  0  0  0  0  0  0  0
   -0.8439    2.3892    1.7025 C   0  0  0  0  0  0  0  0  0  0  0  0
   -0.3136    1.5705    2.1910 H   0  0  0  0  0  0  0  0  0  0  0  0
   -0.6094    3.3222    2.2156 H   0  0  0  0  0  0  0  0  0  0  0  0
   -1.9149    2.2144    1.7786 H   0  0  0  0  0  0  0  0  0  0  0  0
    1.0725    2.8364    0.2006 C   0  0  0  0  0  0  0  0  0  0  0  0
    1.3998    2.9430   -0.8336 H   0  0  0  0  0  0  0  0  0  0  0  0
    1.2428    3.7806    0.7180 H   0  0  0  0  0  0  0  0  0  0  0  0
    1.6554    2.0513    0.6834 H   0  0  0  0  0  0  0  0  0  0  0  0
   -0.1913    0.1554    1.7759 C   0  0  0  0  0  0  0  0  0  0  0  0
    0.9476   -0.0766    2.1748 O   0  0  0  0  0  0  0  0  0  0  0  0
   -1.1502    0.6393    2.5760 N   0  0  0  0  0  0  0  0  0  0  0  0
   -2.0581    0.8092    2.1736 H   0  0  0  0  0  0  0  0  0  0  0  0
   -0.9568    0.9369    3.9933 C   0  0  0  0  0  0  0  0  0  0  0  0
   -0.1600    1.6750    4.1097 H   0  0  0  0  0  0  0  0  0  0  0  0
   -1.8775    1.3307    4.4266 H   0  0  0  0  0  0  0  0  0  0  0  0
   -0.6678    0.0287    4.5244 H   0  0  0  0  0  0  0  0  0  0  0  0
  5  6  2  0  0  0  0
  5  7  1  0  0  0  0
  2  3  1  0  0  0  0
  2  4  1  0  0  0  0
  2  5  1  0  0  0  0
  1  2  1  0  0  0  0
 24 25  2  0  0  0  0
 24 26  1  0  0  0  0
 20 21  1  0  0  0  0
 20 22  1  0  0  0  0
 20 23  1  0  0  0  0
 16 17  1  0  0  0  0
 16 18  1  0  0  0  0
 16 19  1  0  0  0  0
 14 15  1  0  0  0  0
 14 16  1  0  0  0  0
 14 20  1  0  0  0  0
 11 12  1  0  0  0  0
 11 13  1  0  0  0  0
 11 14  1  0  0  0  0
  9 10  1  0  0  0  0
  9 11  1  0  0  0  0
  9 24  1  0  0  0  0
  7  8  1  0  0  0  0
  7  9  1  0  0  0  0
 28 29  1  0  0  0  0
 28 30  1  0  0  0  0
 28 31  1  0  0  0  0
 26 27  1  0  0  0  0
 26 28  1  0  0  0  0
M  END
$$$$
default_name
  -OEChem-02102213163D

 31 30  0     1  0  0  0  0  0999 V2000
   -3.5895   -3.5013    1.1082 H   0  0  0  0  0  0  0  0  0  0  0  0
   -3.5145   -2.5363    0.6082 C   0  0  0  0  0  0  0  0  0  0  0  0
   -4.2285   -1.8413    1.0452 H   0  0  0  0  0  0  0  0  0  0  0  0
   -3.7155   -2.6583   -0.4538 H   0  0  0  0  0  0  0  0  0  0  0  0
   -2.1155   -1.9963    0.7922 C   0  0  0  0  0  0  0  0  0  0  0  0
   -1.2875   -2.6383    1.4252 O   0  0  0  0  0  0  0  0  0  0  0  0
   -1.8575   -0.8123    0.2402 N   0  0  0  0  0  0  0  0  0  0  0  0
   -2.6005   -0.3333   -0.2478 H   0  0  0  0  0  0  0  0  0  0  0  0
   -0.5675   -0.1203    0.3102 C   0  0  1  0  0  0  0  0  0  0  0  0
    0.1932   -0.7715   -0.1219 H   0  0  0  0  0  0  0  0  0  0  0  0
   -0.6568    1.1713   -0.5294 C   0  0  0  0  0  0  0  0  0  0  0  0
    0.0669    1.1080   -1.3444 H   0  0  0  0  0  0  0  0  0  0  0  0
   -1.6531    1.2160   -0.9746 H   0  0  0  0  0  0  0  0  0  0  0  0
   -0.4144    2.4853    0.2357 C   0  0  0  0  0  0  0  0  0  0  0  0
   -1.1531    3.2282   -0.0652 H   0  0  0  0  0  0  0  0  0  0  0  0
   -0.4898    2.2943    1.7533 C   0  0  0  0  0  0  0  0  0  0  0  0
    0.2336    1.5410    2.0683 H   0  0  0  0  0  0  0  0  0  0  0  0
   -0.2641    3.2364    2.2535 H   0  0  0  0  0  0  0  0  0  0  0  0
   -1.4865    1.9765    2.0515 H   0  0  0  0  0  0  0  0  0  0  0  0
    0.9717    3.0322   -0.1036 C   0  0  0  0  0  0  0  0  0  0  0  0
    1.0437    3.2086   -1.1767 H   0  0  0  0  0  0  0  0  0  0  0  0
    1.1349    3.9767    0.4155 H   0  0  0  0  0  0  0  0  0  0  0  0
    1.7406    2.3192    0.1964 H   0  0  0  0  0  0  0  0  0  0  0  0
   -0.1913    0.1554    1.7759 C   0  0  0  0  0  0  0  0  0  0  0  0
    0.9476   -0.0766    2.1748 O   0  0  0  0  0  0  0  0  0  0  0  0
   -1.1502    0.6393    2.5760 N   0  0  0  0  0  0  0  0  0  0  0  0
   -2.0581    0.8092    2.1736 H   0  0  0  0  0  0  0  0  0  0  0  0
   -0.9568    0.9369    3.9933 C   0  0  0  0  0  0  0  0  0  0  0  0
   -0.1600    1.6750    4.1097 H   0  0  0  0  0  0  0  0  0  0  0  0
   -1.8775    1.3307    4.4266 H   0  0  0  0  0  0  0  0  0  0  0  0
   -0.6678    0.0287    4.5244 H   0  0  0  0  0  0  0  0  0  0  0  0
  5  6  2  0  0  0  0
  5  7  1  0  0  0  0
  2  3  1  0  0  0  0
  2  4  1  0  0  0  0
  2  5  1  0  0  0  0
  1  2  1  0  0  0  0
 24 25  2  0  0  0  0
 24 26  1  0  0  0  0
 20 21  1  0  0  0  0
 20 22  1  0  0  0  0
 20 23  1  0  0  0  0
 16 17  1  0  0  0  0
 16 18  1  0  0  0  0
 16 19  1  0  0  0  0
 14 15  1  0  0  0  0
 14 16  1  0  0  0  0
 14 20  1  0  0  0  0
 11 12  1  0  0  0  0
 11 13  1  0  0  0  0
 11 14  1  0  0  0  0
  9 10  1  0  0  0  0
  9 11  1  0  0  0  0
  9 24  1  0  0  0  0
  7  8  1  0  0  0  0
  7  9  1  0  0  0  0
 28 29  1  0  0  0  0
 28 30  1  0  0  0  0
 28 31  1  0  0  0  0
 26 27  1  0  0  0  0
 26 28  1  0  0  0  0
M  END
$$$$
default_name
  -OEChem-02102213163D

 31 30  0     1  0  0  0  0  0999 V2000
   -3.5895   -3.5013    1.1082 H   0  0  0  0  0  0  0  0  0  0  0  0
   -3.5145   -2.5363    0.6082 C   0  0  0  0  0  0  0  0  0  0  0  0
   -4.2285   -1.8413    1.0452 H   0  0  0  0  0  0  0  0  0  0  0  0
   -3.7155   -2.6583   -0.4538 H   0  0  0  0  0  0  0  0  0  0  0  0
   -2.1155   -1.9963    0.7922 C   0  0  0  0  0  0  0  0  0  0  0  0
   -1.2875   -2.6383    1.4252 O   0  0  0  0  0  0  0  0  0  0  0  0
   -1.8575   -0.8123    0.2402 N   0  0  0  0  0  0  0  0  0  0  0  0
   -2.6005   -0.3333   -0.2478 H   0  0  0  0  0  0  0  0  0  0  0  0
   -0.5675   -0.1203    0.3102 C   0  0  1  0  0  0  0  0  0  0  0  0
    0.1932   -0.7715   -0.1219 H   0  0  0  0  0  0  0  0  0  0  0  0
   -0.6568    1.1713   -0.5294 C   0  0  0  0  0  0  0  0  0  0  0  0
    0.0669    1.1080   -1.3444 H   0  0  0  0  0  0  0  0  0  0  0  0
   -1.6531    1.2160   -0.9746 H   0  0  0  0  0  0  0  0  0  0  0  0
   -0.4144    2.4853    0.2357 C   0  0  0  0  0  0  0  0  0  0  0  0
   -1.2880    3.1308    0.1447 H   0  0  0  0  0  0  0  0  0  0  0  0
   -0.1243    2.2462    1.7203 C   0  0  0  0  0  0  0  0  0  0  0  0
    0.7388    1.5879    1.8278 H   0  0  0  0  0  0  0  0  0  0  0  0
    0.0888    3.1964    2.2104 H   0  0  0  0  0  0  0  0  0  0  0  0
   -0.9819    1.7907    2.2108 H   0  0  0  0  0  0  0  0  0  0  0  0
    0.7820    3.2206   -0.3671 C   0  0  0  0  0  0  0  0  0  0  0  0
    0.5898    3.4332   -1.4187 H   0  0  0  0  0  0  0  0  0  0  0  0
    0.9386    4.1645    0.1551 H   0  0  0  0  0  0  0  0  0  0  0  0
    1.6808    2.6088   -0.2820 H   0  0  0  0  0  0  0  0  0  0  0  0
   -0.1913    0.1554    1.7759 C   0  0  0  0  0  0  0  0  0  0  0  0
    0.9476   -0.0766    2.1748 O   0  0  0  0  0  0  0  0  0  0  0  0
   -1.1502    0.6393    2.5760 N   0  0  0  0  0  0  0  0  0  0  0  0
   -2.0581    0.8092    2.1736 H   0  0  0  0  0  0  0  0  0  0  0  0
   -0.9568    0.9369    3.9933 C   0  0  0  0  0  0  0  0  0  0  0  0
   -0.1600    1.6750    4.1097 H   0  0  0  0  0  0  0  0  0  0  0  0
   -1.8775    1.3307    4.4266 H   0  0  0  0  0  0  0  0  0  0  0  0
   -0.6678    0.0287    4.5244 H   0  0  0  0  0  0  0  0  0  0  0  0
  5  6  2  0  0  0  0
  5  7  1  0  0  0  0
  2  3  1  0  0  0  0
  2  4  1  0  0  0  0
  2  5  1  0  0  0  0
  1  2  1  0  0  0  0
 24 25  2  0  0  0  0
 24 26  1  0  0  0  0
 20 21  1  0  0  0  0
 20 22  1  0  0  0  0
 20 23  1  0  0  0  0
 16 17  1  0  0  0  0
 16 18  1  0  0  0  0
 16 19  1  0  0  0  0
 14 15  1  0  0  0  0
 14 16  1  0  0  0  0
 14 20  1  0  0  0  0
 11 12  1  0  0  0  0
 11 13  1  0  0  0  0
 11 14  1  0  0  0  0
  9 10  1  0  0  0  0
  9 11  1  0  0  0  0
  9 24  1  0  0  0  0
  7  8  1  0  0  0  0
  7  9  1  0  0  0  0
 28 29  1  0  0  0  0
 28 30  1  0  0  0  0
 28 31  1  0  0  0  0
 26 27  1  0  0  0  0
 26 28  1  0  0  0  0
M  END
$$$$
default_name
  -OEChem-02102213163D

 31 30  0     1  0  0  0  0  0999 V2000
   -3.5895   -3.5013    1.1082 H   0  0  0  0  0  0  0  0  0  0  0  0
   -3.5145   -2.5363    0.6082 C   0  0  0  0  0  0  0  0  0  0  0  0
   -4.2285   -1.8413    1.0452 H   0  0  0  0  0  0  0  0  0  0  0  0
   -3.7155   -2.6583   -0.4538 H   0  0  0  0  0  0  0  0  0  0  0  0
   -2.1155   -1.9963    0.7922 C   0  0  0  0  0  0  0  0  0  0  0  0
   -1.2875   -2.6383    1.4252 O   0  0  0  0  0  0  0  0  0  0  0  0
   -1.8575   -0.8123    0.2402 N   0  0  0  0  0  0  0  0  0  0  0  0
   -2.6005   -0.3333   -0.2478 H   0  0  0  0  0  0  0  0  0  0  0  0
   -0.5675   -0.1203    0.3102 C   0  0  1  0  0  0  0  0  0  0  0  0
    0.1932   -0.7715   -0.1219 H   0  0  0  0  0  0  0  0  0  0  0  0
   -0.6568    1.1713   -0.5294 C   0  0  0  0  0  0  0  0  0  0  0  0
    0.0669    1.1080   -1.3444 H   0  0  0  0  0  0  0  0  0  0  0  0
   -1.6531    1.2160   -0.9746 H   0  0  0  0  0  0  0  0  0  0  0  0
   -0.4144    2.4853    0.2357 C   0  0  0  0  0  0  0  0  0  0  0  0
   -1.3594    3.0109    0.3733 H   0  0  0  0  0  0  0  0  0  0  0  0
    0.2276    2.2480    1.6057 C   0  0  0  0  0  0  0  0  0  0  0  0
    1.1677    1.7079    1.4858 H   0  0  0  0  0  0  0  0  0  0  0  0
    0.4253    3.2049    2.0892 H   0  0  0  0  0  0  0  0  0  0  0  0
   -0.4354    1.6696    2.2456 H   0  0  0  0  0  0  0  0  0  0  0  0
    0.5163    3.3890   -0.5721 C   0  0  0  0  0  0  0  0  0  0  0  0
    0.0690    3.6017   -1.5431 H   0  0  0  0  0  0  0  0  0  0  0  0
    0.6673    4.3313   -0.0454 H   0  0  0  0  0  0  0  0  0  0  0  0
    1.4801    2.9003   -0.7191 H   0  0  0  0  0  0  0  0  0  0  0  0
   -0.1913    0.1554    1.7759 C   0  0  0  0  0  0  0  0  0  0  0  0
    0.9476   -0.0766    2.1748 O   0  0  0  0  0  0  0  0  0  0  0  0
   -1.1502    0.6393    2.5760 N   0  0  0  0  0  0  0  0  0  0  0  0
   -2.0581    0.8092    2.1736 H   0  0  0  0  0  0  0  0  0  0  0  0
   -0.9568    0.9369    3.9933 C   0  0  0  0  0  0  0  0  0  0  0  0
   -0.1600    1.6750    4.1097 H   0  0  0  0  0  0  0  0  0  0  0  0
   -1.8775    1.3307    4.4266 H   0  0  0  0  0  0  0  0  0  0  0  0
   -0.6678    0.0287    4.5244 H   0  0  0  0  0  0  0  0  0  0  0  0
  5  6  2  0  0  0  0
  5  7  1  0  0  0  0
  2  3  1  0  0  0  0
  2  4  1  0  0  0  0
  2  5  1  0  0  0  0
  1  2  1  0  0  0  0
 24 25  2  0  0  0  0
 24 26  1  0  0  0  0
 20 21  1  0  0  0  0
 20 22  1  0  0  0  0
 20 23  1  0  0  0  0
 16 17  1  0  0  0  0
 16 18  1  0  0  0  0
 16 19  1  0  0  0  0
 14 15  1  0  0  0  0
 14 16  1  0  0  0  0
 14 20  1  0  0  0  0
 11 12  1  0  0  0  0
 11 13  1  0  0  0  0
 11 14  1  0  0  0  0
  9 10  1  0  0  0  0
  9 11  1  0  0  0  0
  9 24  1  0  0  0  0
  7  8  1  0  0  0  0
  7  9  1  0  0  0  0
 28 29  1  0  0  0  0
 28 30  1  0  0  0  0
 28 31  1  0  0  0  0
 26 27  1  0  0  0  0
 26 28  1  0  0  0  0
M  END
$$$$
default_name
  -OEChem-02102213163D

 31 30  0     1  0  0  0  0  0999 V2000
   -3.5895   -3.5013    1.1082 H   0  0  0  0  0  0  0  0  0  0  0  0
   -3.5145   -2.5363    0.6082 C   0  0  0  0  0  0  0  0  0  0  0  0
   -4.2285   -1.8413    1.0452 H   0  0  0  0  0  0  0  0  0  0  0  0
   -3.7155   -2.6583   -0.4538 H   0  0  0  0  0  0  0  0  0  0  0  0
   -2.1155   -1.9963    0.7922 C   0  0  0  0  0  0  0  0  0  0  0  0
   -1.2875   -2.6383    1.4252 O   0  0  0  0  0  0  0  0  0  0  0  0
   -1.8575   -0.8123    0.2402 N   0  0  0  0  0  0  0  0  0  0  0  0
   -2.6005   -0.3333   -0.2478 H   0  0  0  0  0  0  0  0  0  0  0  0
   -0.5675   -0.1203    0.3102 C   0  0  1  0  0  0  0  0  0  0  0  0
    0.1932   -0.7715   -0.1219 H   0  0  0  0  0  0  0  0  0  0  0  0
   -0.6568    1.1713   -0.5294 C   0  0  0  0  0  0  0  0  0  0  0  0
    0.0669    1.1080   -1.3444 H   0  0  0  0  0  0  0  0  0  0  0  0
   -1.6531    1.2160   -0.9746 H   0  0  0  0  0  0  0  0  0  0  0  0
   -0.4144    2.4853    0.2357 C   0  0  0  0  0  0  0  0  0  0  0  0
   -1.3624    2.8765    0.6050 H   0  0  0  0  0  0  0  0  0  0  0  0
    0.5419    2.2997    1.4174 C   0  0  0  0  0  0  0  0  0  0  0  0
    1.4910    1.8930    1.0656 H   0  0  0  0  0  0  0  0  0  0  0  0
    0.7225    3.2614    1.8982 H   0  0  0  0  0  0  0  0  0  0  0  0
    0.1158    1.6215    2.1536 H   0  0  0  0  0  0  0  0  0  0  0  0
    0.1927    3.5258   -0.7046 C   0  0  0  0  0  0  0  0  0  0  0  0
   -0.4831    3.7025   -1.5413 H   0  0  0  0  0  0  0  0  0  0  0  0
    0.3396    4.4656   -0.1723 H   0  0  0  0  0  0  0  0  0  0  0  0
    1.1522    3.1739   -1.0851 H   0  0  0  0  0  0  0  0  0  0  0  0
   -0.1913    0.1554    1.7759 C   0  0  0  0  0  0  0  0  0  0  0  0
    0.9476   -0.0766    2.1748 O   0  0  0  0  0  0  0  0  0  0  0  0
   -1.1502    0.6393    2.5760 N   0  0  0  0  0  0  0  0  0  0  0  0
   -2.0581    0.8092    2.1736 H   0  0  0  0  0  0  0  0  0  0  0  0
   -0.9568    0.9369    3.9933 C   0  0  0  0  0  0  0  0  0  0  0  0
   -0.1600    1.6750    4.1097 H   0  0  0  0  0  0  0  0  0  0  0  0
   -1.8775    1.3307    4.4266 H   0  0  0  0  0  0  0  0  0  0  0  0
   -0.6678    0.0287    4.5244 H   0  0  0  0  0  0  0  0  0  0  0  0
  5  6  2  0  0  0  0
  5  7  1  0  0  0  0
  2  3  1  0  0  0  0
  2  4  1  0  0  0  0
  2  5  1  0  0  0  0
  1  2  1  0  0  0  0
 24 25  2  0  0  0  0
 24 26  1  0  0  0  0
 20 21  1  0  0  0  0
 20 22  1  0  0  0  0
 20 23  1  0  0  0  0
 16 17  1  0  0  0  0
 16 18  1  0  0  0  0
 16 19  1  0  0  0  0
 14 15  1  0  0  0  0
 14 16  1  0  0  0  0
 14 20  1  0  0  0  0
 11 12  1  0  0  0  0
 11 13  1  0  0  0  0
 11 14  1  0  0  0  0
  9 10  1  0  0  0  0
  9 11  1  0  0  0  0
  9 24  1  0  0  0  0
  7  8  1  0  0  0  0
  7  9  1  0  0  0  0
 28 29  1  0  0  0  0
 28 30  1  0  0  0  0
 28 31  1  0  0  0  0
 26 27  1  0  0  0  0
 26 28  1  0  0  0  0
M  END
$$$$
default_name
  -OEChem-02102213163D

 31 30  0     1  0  0  0  0  0999 V2000
   -3.5895   -3.5013    1.1082 H   0  0  0  0  0  0  0  0  0  0  0  0
   -3.5145   -2.5363    0.6082 C   0  0  0  0  0  0  0  0  0  0  0  0
   -4.2285   -1.8413    1.0452 H   0  0  0  0  0  0  0  0  0  0  0  0
   -3.7155   -2.6583   -0.4538 H   0  0  0  0  0  0  0  0  0  0  0  0
   -2.1155   -1.9963    0.7922 C   0  0  0  0  0  0  0  0  0  0  0  0
   -1.2875   -2.6383    1.4252 O   0  0  0  0  0  0  0  0  0  0  0  0
   -1.8575   -0.8123    0.2402 N   0  0  0  0  0  0  0  0  0  0  0  0
   -2.6005   -0.3333   -0.2478 H   0  0  0  0  0  0  0  0  0  0  0  0
   -0.5675   -0.1203    0.3102 C   0  0  1  0  0  0  0  0  0  0  0  0
    0.1932   -0.7715   -0.1219 H   0  0  0  0  0  0  0  0  0  0  0  0
   -0.6568    1.1713   -0.5294 C   0  0  0  0  0  0  0  0  0  0  0  0
    0.0669    1.1080   -1.3444 H   0  0  0  0  0  0  0  0  0  0  0  0
   -1.6531    1.2160   -0.9746 H   0  0  0  0  0  0  0  0  0  0  0  0
   -0.4144    2.4853    0.2357 C   0  0  0  0  0  0  0  0  0  0  0  0
   -1.2969    2.7369    0.8240 H   0  0  0  0  0  0  0  0  0  0  0  0
    0.7973    2.3977    1.1681 C   0  0  0  0  0  0  0  0  0  0  0  0
    1.6867    2.1304    0.5958 H   0  0  0  0  0  0  0  0  0  0  0  0
    0.9600    3.3619    1.6503 H   0  0  0  0  0  0  0  0  0  0  0  0
    0.6340    1.6497    1.9410 H   0  0  0  0  0  0  0  0  0  0  0  0
   -0.1668    3.6218   -0.7555 C   0  0  0  0  0  0  0  0  0  0  0  0
   -1.0291    3.7288   -1.4135 H   0  0  0  0  0  0  0  0  0  0  0  0
   -0.0223    4.5584   -0.2171 H   0  0  0  0  0  0  0  0  0  0  0  0
    0.7195    3.4109   -1.3550 H   0  0  0  0  0  0  0  0  0  0  0  0
   -0.1913    0.1554    1.7759 C   0  0  0  0  0  0  0  0  0  0  0  0
    0.9476   -0.0766    2.1748 O   0  0  0  0  0  0  0  0  0  0  0  0
   -1.1502    0.6393    2.5760 N   0  0  0  0  0  0  0  0  0  0  0  0
   -2.0581    0.8092    2.1736 H   0  0  0  0  0  0  0  0  0  0  0  0
   -0.9568    0.9369    3.9933 C   0  0  0  0  0  0  0  0  0  0  0  0
   -0.1600    1.6750    4.1097 H   0  0  0  0  0  0  0  0  0  0  0  0
   -1.8775    1.3307    4.4266 H   0  0  0  0  0  0  0  0  0  0  0  0
   -0.6678    0.0287    4.5244 H   0  0  0  0  0  0  0  0  0  0  0  0
  5  6  2  0  0  0  0
  5  7  1  0  0  0  0
  2  3  1  0  0  0  0
  2  4  1  0  0  0  0
  2  5  1  0  0  0  0
  1  2  1  0  0  0  0
 24 25  2  0  0  0  0
 24 26  1  0  0  0  0
 20 21  1  0  0  0  0
 20 22  1  0  0  0  0
 20 23  1  0  0  0  0
 16 17  1  0  0  0  0
 16 18  1  0  0  0  0
 16 19  1  0  0  0  0
 14 15  1  0  0  0  0
 14 16  1  0  0  0  0
 14 20  1  0  0  0  0
 11 12  1  0  0  0  0
 11 13  1  0  0  0  0
 11 14  1  0  0  0  0
  9 10  1  0  0  0  0
  9 11  1  0  0  0  0
  9 24  1  0  0  0  0
  7  8  1  0  0  0  0
  7  9  1  0  0  0  0
 28 29  1  0  0  0  0
 28 30  1  0  0  0  0
 28 31  1  0  0  0  0
 26 27  1  0  0  0  0
 26 28  1  0  0  0  0
M  END
$$$$
default_name
  -OEChem-02102213163D

 31 30  0     1  0  0  0  0  0999 V2000
   -3.5895   -3.5013    1.1082 H   0  0  0  0  0  0  0  0  0  0  0  0
   -3.5145   -2.5363    0.6082 C   0  0  0  0  0  0  0  0  0  0  0  0
   -4.2285   -1.8413    1.0452 H   0  0  0  0  0  0  0  0  0  0  0  0
   -3.7155   -2.6583   -0.4538 H   0  0  0  0  0  0  0  0  0  0  0  0
   -2.1155   -1.9963    0.7922 C   0  0  0  0  0  0  0  0  0  0  0  0
   -1.2875   -2.6383    1.4252 O   0  0  0  0  0  0  0  0  0  0  0  0
   -1.8575   -0.8123    0.2402 N   0  0  0  0  0  0  0  0  0  0  0  0
   -2.6005   -0.3333   -0.2478 H   0  0  0  0  0  0  0  0  0  0  0  0
   -0.5675   -0.1203    0.3102 C   0  0  1  0  0  0  0  0  0  0  0  0
    0.1932   -0.7715   -0.1219 H   0  0  0  0  0  0  0  0  0  0  0  0
   -0.6568    1.1713   -0.5294 C   0  0  0  0  0  0  0  0  0  0  0  0
    0.0669    1.1080   -1.3444 H   0  0  0  0  0  0  0  0  0  0  0  0
   -1.6531    1.2160   -0.9746 H   0  0  0  0  0  0  0  0  0  0  0  0
   -0.4144    2.4853    0.2357 C   0  0  0  0  0  0  0  0  0  0  0  0
   -1.1672    2.6016    1.0153 H   0  0  0  0  0  0  0  0  0  0  0  0
    0.9763    2.5354    0.8750 C   0  0  0  0  0  0  0  0  0  0  0  0
    1.7414    2.4041    0.1085 H   0  0  0  0  0  0  0  0  0  0  0  0
    1.1218    3.4996    1.3624 H   0  0  0  0  0  0  0  0  0  0  0  0
    1.0840    1.7522    1.6223 H   0  0  0  0  0  0  0  0  0  0  0  0
   -0.5376    3.6703   -0.7214 C   0  0  0  0  0  0  0  0  0  0  0  0
   -1.5316    3.6788   -1.1685 H   0  0  0  0  0  0  0  0  0  0  0  0
   -0.3937    4.6034   -0.1766 H   0  0  0  0  0  0  0  0  0  0  0  0
    0.2114    3.5952   -1.5105 H   0  0  0  0  0  0  0  0  0  0  0  0
   -0.1913    0.1554    1.7759 C   0  0  0  0  0  0  0  0  0  0  0  0
    0.9476   -0.0766    2.1748 O   0  0  0  0  0  0  0  0  0  0  0  0
   -1.1502    0.6393    2.5760 N   0  0  0  0  0  0  0  0  0  0  0  0
   -2.0581    0.8092    2.1736 H   0  0  0  0  0  0  0  0  0  0  0  0
   -0.9568    0.9369    3.9933 C   0  0  0  0  0  0  0  0  0  0  0  0
   -0.1600    1.6750    4.1097 H   0  0  0  0  0  0  0  0  0  0  0  0
   -1.8775    1.3307    4.4266 H   0  0  0  0  0  0  0  0  0  0  0  0
   -0.6678    0.0287    4.5244 H   0  0  0  0  0  0  0  0  0  0  0  0
  5  6  2  0  0  0  0
  5  7  1  0  0  0  0
  2  3  1  0  0  0  0
  2  4  1  0  0  0  0
  2  5  1  0  0  0  0
  1  2  1  0  0  0  0
 24 25  2  0  0  0  0
 24 26  1  0  0  0  0
 20 21  1  0  0  0  0
 20 22  1  0  0  0  0
 20 23  1  0  0  0  0
 16 17  1  0  0  0  0
 16 18  1  0  0  0  0
 16 19  1  0  0  0  0
 14 15  1  0  0  0  0
 14 16  1  0  0  0  0
 14 20  1  0  0  0  0
 11 12  1  0  0  0  0
 11 13  1  0  0  0  0
 11 14  1  0  0  0  0
  9 10  1  0  0  0  0
  9 11  1  0  0  0  0
  9 24  1  0  0  0  0
  7  8  1  0  0  0  0
  7  9  1  0  0  0  0
 28 29  1  0  0  0  0
 28 30  1  0  0  0  0
 28 31  1  0  0  0  0
 26 27  1  0  0  0  0
 26 28  1  0  0  0  0
M  END
$$$$
default_name
  -OEChem-02102213163D

 31 30  0     1  0  0  0  0  0999 V2000
   -3.5895   -3.5013    1.1082 H   0  0  0  0  0  0  0  0  0  0  0  0
   -3.5145   -2.5363    0.6082 C   0  0  0  0  0  0  0  0  0  0  0  0
   -4.2285   -1.8413    1.0452 H   0  0  0  0  0  0  0  0  0  0  0  0
   -3.7155   -2.6583   -0.4538 H   0  0  0  0  0  0  0  0  0  0  0  0
   -2.1155   -1.9963    0.7922 C   0  0  0  0  0  0  0  0  0  0  0  0
   -1.2875   -2.6383    1.4252 O   0  0  0  0  0  0  0  0  0  0  0  0
   -1.8575   -0.8123    0.2402 N   0  0  0  0  0  0  0  0  0  0  0  0
   -2.6005   -0.3333   -0.2478 H   0  0  0  0  0  0  0  0  0  0  0  0
   -0.5675   -0.1203    0.3102 C   0  0  1  0  0  0  0  0  0  0  0  0
    0.1932   -0.7715   -0.1219 H   0  0  0  0  0  0  0  0  0  0  0  0
   -0.6568    1.1713   -0.5294 C   0  0  0  0  0  0  0  0  0  0  0  0
    0.0669    1.1080   -1.3444 H   0  0  0  0  0  0  0  0  0  0  0  0
   -1.6531    1.2160   -0.9746 H   0  0  0  0  0  0  0  0  0  0  0  0
   -0.4144    2.4853    0.2357 C   0  0  0  0  0  0  0  0  0  0  0  0
   -0.9824    2.4797    1.1660 H   0  0  0  0  0  0  0  0  0  0  0  0
    1.0668    2.7033    0.5579 C   0  0  0  0  0  0  0  0  0  0  0  0
    1.6514    2.6953   -0.3631 H   0  0  0  0  0  0  0  0  0  0  0  0
    1.1969    3.6652    1.0543 H   0  0  0  0  0  0  0  0  0  0  0  0
    1.4351    1.9221    1.2193 H   0  0  0  0  0  0  0  0  0  0  0  0
   -0.8944    3.6681   -0.6045 C   0  0  0  0  0  0  0  0  0  0  0  0
   -1.9564    3.5558   -0.8228 H   0  0  0  0  0  0  0  0  0  0  0  0
   -0.7493    4.5973   -0.0536 H   0  0  0  0  0  0  0  0  0  0  0  0
   -0.3374    3.7142   -1.5410 H   0  0  0  0  0  0  0  0  0  0  0  0
   -0.1913    0.1554    1.7759 C   0  0  0  0  0  0  0  0  0  0  0  0
    0.9476   -0.0766    2.1748 O   0  0  0  0  0  0  0  0  0  0  0  0
   -1.1502    0.6393    2.5760 N   0  0  0  0  0  0  0  0  0  0  0  0
   -2.0581    0.8092    2.1736 H   0  0  0  0  0  0  0  0  0  0  0  0
   -0.9568    0.9369    3.9933 C   0  0  0  0  0  0  0  0  0  0  0  0
   -0.1600    1.6750    4.1097 H   0  0  0  0  0  0  0  0  0  0  0  0
   -1.8775    1.3307    4.4266 H   0  0  0  0  0  0  0  0  0  0  0  0
   -0.6678    0.0287    4.5244 H   0  0  0  0  0  0  0  0  0  0  0  0
  5  6  2  0  0  0  0
  5  7  1  0  0  0  0
  2  3  1  0  0  0  0
  2  4  1  0  0  0  0
  2  5  1  0  0  0  0
  1  2  1  0  0  0  0
 24 25  2  0  0  0  0
 24 26  1  0  0  0  0
 20 21  1  0  0  0  0
 20 22  1  0  0  0  0
 20 23  1  0  0  0  0
 16 17  1  0  0  0  0
 16 18  1  0  0  0  0
 16 19  1  0  0  0  0
 14 15  1  0  0  0  0
 14 16  1  0  0  0  0
 14 20  1  0  0  0  0
 11 12  1  0  0  0  0
 11 13  1  0  0  0  0
 11 14  1  0  0  0  0
  9 10  1  0  0  0  0
  9 11  1  0  0  0  0
  9 24  1  0  0  0  0
  7  8  1  0  0  0  0
  7  9  1  0  0  0  0
 28 29  1  0  0  0  0
 28 30  1  0  0  0  0
 28 31  1  0  0  0  0
 26 27  1  0  0  0  0
 26 28  1  0  0  0  0
M  END
$$$$
default_name
  -OEChem-02102213163D

 31 30  0     1  0  0  0  0  0999 V2000
   -3.5895   -3.5013    1.1082 H   0  0  0  0  0  0  0  0  0  0  0  0
   -3.5145   -2.5363    0.6082 C   0  0  0  0  0  0  0  0  0  0  0  0
   -4.2285   -1.8413    1.0452 H   0  0  0  0  0  0  0  0  0  0  0  0
   -3.7155   -2.6583   -0.4538 H   0  0  0  0  0  0  0  0  0  0  0  0
   -2.1155   -1.9963    0.7922 C   0  0  0  0  0  0  0  0  0  0  0  0
   -1.2875   -2.6383    1.4252 O   0  0  0  0  0  0  0  0  0  0  0  0
   -1.8575   -0.8123    0.2402 N   0  0  0  0  0  0  0  0  0  0  0  0
   -2.6005   -0.3333   -0.2478 H   0  0  0  0  0  0  0  0  0  0  0  0
   -0.5675   -0.1203    0.3102 C   0  0  1  0  0  0  0  0  0  0  0  0
    0.1932   -0.7715   -0.1219 H   0  0  0  0  0  0  0  0  0  0  0  0
   -0.6568    1.1713   -0.5294 C   0  0  0  0  0  0  0  0  0  0  0  0
    0.0669    1.1080   -1.3444 H   0  0  0  0  0  0  0  0  0  0  0  0
   -1.6531    1.2160   -0.9746 H   0  0  0  0  0  0  0  0  0  0  0  0
   -0.4144    2.4853    0.2357 C   0  0  0  0  0  0  0  0  0  0  0  0
   -0.7548    2.3797    1.2658 H   0  0  0  0  0  0  0  0  0  0  0  0
    1.0626    2.8901    0.2384 C   0  0  0  0  0  0  0  0  0  0  0  0
    1.4228    2.9842   -0.7869 H   0  0  0  0  0  0  0  0  0  0  0  0
    1.1799    3.8474    0.7468 H   0  0  0  0  0  0  0  0  0  0  0  0
    1.6634    2.1478    0.7594 H   0  0  0  0  0  0  0  0  0  0  0  0
   -1.2130    3.6153   -0.4130 C   0  0  0  0  0  0  0  0  0  0  0  0
   -2.2745    3.3684   -0.4001 H   0  0  0  0  0  0  0  0  0  0  0  0
   -1.0648    4.5408    0.1435 H   0  0  0  0  0  0  0  0  0  0  0  0
   -0.8896    3.7598   -1.4444 H   0  0  0  0  0  0  0  0  0  0  0  0
   -0.1913    0.1554    1.7759 C   0  0  0  0  0  0  0  0  0  0  0  0
    0.9476   -0.0766    2.1748 O   0  0  0  0  0  0  0  0  0  0  0  0
   -1.1502    0.6393    2.5760 N   0  0  0  0  0  0  0  0  0  0  0  0
   -2.0581    0.8092    2.1736 H   0  0  0  0  0  0  0  0  0  0  0  0
   -0.9568    0.9369    3.9933 C   0  0  0  0  0  0  0  0  0  0  0  0
   -0.1600    1.6750    4.1097 H   0  0  0  0  0  0  0  0  0  0  0  0
   -1.8775    1.3307    4.4266 H   0  0  0  0  0  0  0  0  0  0  0  0
   -0.6678    0.0287    4.5244 H   0  0  0  0  0  0  0  0  0  0  0  0
  5  6  2  0  0  0  0
  5  7  1  0  0  0  0
  2  3  1  0  0  0  0
  2  4  1  0  0  0  0
  2  5  1  0  0  0  0
  1  2  1  0  0  0  0
 24 25  2  0  0  0  0
 24 26  1  0  0  0  0
 20 21  1  0  0  0  0
 20 22  1  0  0  0  0
 20 23  1  0  0  0  0
 16 17  1  0  0  0  0
 16 18  1  0  0  0  0
 16 19  1  0  0  0  0
 14 15  1  0  0  0  0
 14 16  1  0  0  0  0
 14 20  1  0  0  0  0
 11 12  1  0  0  0  0
 11 13  1  0  0  0  0
 11 14  1  0  0  0  0
  9 10  1  0  0  0  0
  9 11  1  0  0  0  0
  9 24  1  0  0  0  0
  7  8  1  0  0  0  0
  7  9  1  0  0  0  0
 28 29  1  0  0  0  0
 28 30  1  0  0  0  0
 28 31  1  0  0  0  0
 26 27  1  0  0  0  0
 26 28  1  0  0  0  0
M  END
$$$$
default_name
  -OEChem-02102213163D

 31 30  0     1  0  0  0  0  0999 V2000
   -3.5895   -3.5013    1.1082 H   0  0  0  0  0  0  0  0  0  0  0  0
   -3.5145   -2.5363    0.6082 C   0  0  0  0  0  0  0  0  0  0  0  0
   -4.2285   -1.8413    1.0452 H   0  0  0  0  0  0  0  0  0  0  0  0
   -3.7155   -2.6583   -0.4538 H   0  0  0  0  0  0  0  0  0  0  0  0
   -2.1155   -1.9963    0.7922 C   0  0  0  0  0  0  0  0  0  0  0  0
   -1.2875   -2.6383    1.4252 O   0  0  0  0  0  0  0  0  0  0  0  0
   -1.8575   -0.8123    0.2402 N   0  0  0  0  0  0  0  0  0  0  0  0
   -2.6005   -0.3333   -0.2478 H   0  0  0  0  0  0  0  0  0  0  0  0
   -0.5675   -0.1203    0.3102 C   0  0  1  0  0  0  0  0  0  0  0  0
    0.1932   -0.7715   -0.1219 H   0  0  0  0  0  0  0  0  0  0  0  0
   -0.6568    1.1713   -0.5294 C   0  0  0  0  0  0  0  0  0  0  0  0
    0.0669    1.1080   -1.3444 H   0  0  0  0  0  0  0  0  0  0  0  0
   -1.6531    1.2160   -0.9746 H   0  0  0  0  0  0  0  0  0  0  0  0
   -0.4144    2.4853    0.2357 C   0  0  0  0  0  0  0  0  0  0  0  0
   -0.5002    2.3082    1.3078 H   0  0  0  0  0  0  0  0  0  0  0  0
    0.9639    3.0830   -0.0616 C   0  0  0  0  0  0  0  0  0  0  0  0
    1.0713    3.2512   -1.1340 H   0  0  0  0  0  0  0  0  0  0  0  0
    1.0723    4.0337    0.4610 H   0  0  0  0  0  0  0  0  0  0  0  0
    1.7533    2.4139    0.2740 H   0  0  0  0  0  0  0  0  0  0  0  0
   -1.4716    3.5155   -0.1597 C   0  0  0  0  0  0  0  0  0  0  0  0
   -2.4644    3.1291    0.0709 H   0  0  0  0  0  0  0  0  0  0  0  0
   -1.3188    4.4376    0.4012 H   0  0  0  0  0  0  0  0  0  0  0  0
   -1.4074    3.7288   -1.2273 H   0  0  0  0  0  0  0  0  0  0  0  0
   -0.1913    0.1554    1.7759 C   0  0  0  0  0  0  0  0  0  0  0  0
    0.9476   -0.0766    2.1748 O   0  0  0  0  0  0  0  0  0  0  0  0
   -1.1502    0.6393    2.5760 N   0  0  0  0  0  0  0  0  0  0  0  0
   -2.0581    0.8092    2.1736 H   0  0  0  0  0  0  0  0  0  0  0  0
   -0.9568    0.9369    3.9933 C   0  0  0  0  0  0  0  0  0  0  0  0
   -0.1600    1.6750    4.1097 H   0  0  0  0  0  0  0  0  0  0  0  0
   -1.8775    1.3307    4.4266 H   0  0  0  0  0  0  0  0  0  0  0  0
   -0.6678    0.0287    4.5244 H   0  0  0  0  0  0  0  0  0  0  0  0
  5  6  2  0  0  0  0
  5  7  1  0  0  0  0
  2  3  1  0  0  0  0
  2  4  1  0  0  0  0
  2  5  1  0  0  0  0
  1  2  1  0  0  0  0
 24 25  2  0  0  0  0
 24 26  1  0  0  0  0
 20 21  1  0  0  0  0
 20 22  1  0  0  0  0
 20 23  1  0  0  0  0
 16 17  1  0  0  0  0
 16 18  1  0  0  0  0
 16 19  1  0  0  0  0
 14 15  1  0  0  0  0
 14 16  1  0  0  0  0
 14 20  1  0  0  0  0
 11 12  1  0  0  0  0
 11 13  1  0  0  0  0
 11 14  1  0  0  0  0
  9 10  1  0  0  0  0
  9 11  1  0  0  0  0
  9 24  1  0  0  0  0
  7  8  1  0  0  0  0
  7  9  1  0  0  0  0
 28 29  1  0  0  0  0
 28 30  1  0  0  0  0
 28 31  1  0  0  0  0
 26 27  1  0  0  0  0
 26 28  1  0  0  0  0
M  END
$$$$
default_name
  -OEChem-02102213163D

 31 30  0     1  0  0  0  0  0999 V2000
   -3.5895   -3.5013    1.1082 H   0  0  0  0  0  0  0  0  0  0  0  0
   -3.5145   -2.5363    0.6082 C   0  0  0  0  0  0  0  0  0  0  0  0
   -4.2285   -1.8413    1.0452 H   0  0  0  0  0  0  0  0  0  0  0  0
   -3.7155   -2.6583   -0.4538 H   0  0  0  0  0  0  0  0  0  0  0  0
   -2.1155   -1.9963    0.7922 C   0  0  0  0  0  0  0  0  0  0  0  0
   -1.2875   -2.6383    1.4252 O   0  0  0  0  0  0  0  0  0  0  0  0
   -1.8575   -0.8123    0.2402 N   0  0  0  0  0  0  0  0  0  0  0  0
   -2.6005   -0.3333   -0.2478 H   0  0  0  0  0  0  0  0  0  0  0  0
   -0.5675   -0.1203    0.3102 C   0  0  1  0  0  0  0  0  0  0  0  0
    0.1932   -0.7715   -0.1219 H   0  0  0  0  0  0  0  0  0  0  0  0
   -0.6568    1.1713   -0.5294 C   0  0  0  0  0  0  0  0  0  0  0  0
    0.0669    1.1080   -1.3444 H   0  0  0  0  0  0  0  0  0  0  0  0
   -1.6531    1.2160   -0.9746 H   0  0  0  0  0  0  0  0  0  0  0  0
   -0.4144    2.4853    0.2357 C   0  0  0  0  0  0  0  0  0  0  0  0
   -0.2357    2.2702    1.2893 H   0  0  0  0  0  0  0  0  0  0  0  0
    0.7775    3.2689   -0.3217 C   0  0  0  0  0  0  0  0  0  0  0  0
    0.6207    3.4780   -1.3808 H   0  0  0  0  0  0  0  0  0  0  0  0
    0.8812    4.2115    0.2163 H   0  0  0  0  0  0  0  0  0  0  0  0
    1.6987    2.7023   -0.2040 H   0  0  0  0  0  0  0  0  0  0  0  0
   -1.6527    3.3756    0.1380 C   0  0  0  0  0  0  0  0  0  0  0  0
   -2.5129    2.8545    0.5580 H   0  0  0  0  0  0  0  0  0  0  0  0
   -1.4939    4.2947    0.7020 H   0  0  0  0  0  0  0  0  0  0  0  0
   -1.8557    3.6235   -0.9044 H   0  0  0  0  0  0  0  0  0  0  0  0
   -0.1913    0.1554    1.7759 C   0  0  0  0  0  0  0  0  0  0  0  0
    0.9476   -0.0766    2.1748 O   0  0  0  0  0  0  0  0  0  0  0  0
   -1.1502    0.6393    2.5760 N   0  0  0  0  0  0  0  0  0  0  0  0
   -2.0581    0.8092    2.1736 H   0  0  0  0  0  0  0  0  0  0  0  0
   -0.9568    0.9369    3.9933 C   0  0  0  0  0  0  0  0  0  0  0  0
   -0.1600    1.6750    4.1097 H   0  0  0  0  0  0  0  0  0  0  0  0
   -1.8775    1.3307    4.4266 H   0  0  0  0  0  0  0  0  0  0  0  0
   -0.6678    0.0287    4.5244 H   0  0  0  0  0  0  0  0  0  0  0  0
  5  6  2  0  0  0  0
  5  7  1  0  0  0  0
  2  3  1  0  0  0  0
  2  4  1  0  0  0  0
  2  5  1  0  0  0  0
  1  2  1  0  0  0  0
 24 25  2  0  0  0  0
 24 26  1  0  0  0  0
 20 21  1  0  0  0  0
 20 22  1  0  0  0  0
 20 23  1  0  0  0  0
 16 17  1  0  0  0  0
 16 18  1  0  0  0  0
 16 19  1  0  0  0  0
 14 15  1  0  0  0  0
 14 16  1  0  0  0  0
 14 20  1  0  0  0  0
 11 12  1  0  0  0  0
 11 13  1  0  0  0  0
 11 14  1  0  0  0  0
  9 10  1  0  0  0  0
  9 11  1  0  0  0  0
  9 24  1  0  0  0  0
  7  8  1  0  0  0  0
  7  9  1  0  0  0  0
 28 29  1  0  0  0  0
 28 30  1  0  0  0  0
 28 31  1  0  0  0  0
 26 27  1  0  0  0  0
 26 28  1  0  0  0  0
M  END
$$$$
default_name
  -OEChem-02102213163D

 31 30  0     1  0  0  0  0  0999 V2000
   -3.5895   -3.5013    1.1082 H   0  0  0  0  0  0  0  0  0  0  0  0
   -3.5145   -2.5363    0.6082 C   0  0  0  0  0  0  0  0  0  0  0  0
   -4.2285   -1.8413    1.0452 H   0  0  0  0  0  0  0  0  0  0  0  0
   -3.7155   -2.6583   -0.4538 H   0  0  0  0  0  0  0  0  0  0  0  0
   -2.1155   -1.9963    0.7922 C   0  0  0  0  0  0  0  0  0  0  0  0
   -1.2875   -2.6383    1.4252 O   0  0  0  0  0  0  0  0  0  0  0  0
   -1.8575   -0.8123    0.2402 N   0  0  0  0  0  0  0  0  0  0  0  0
   -2.6005   -0.3333   -0.2478 H   0  0  0  0  0  0  0  0  0  0  0  0
   -0.5675   -0.1203    0.3102 C   0  0  1  0  0  0  0  0  0  0  0  0
    0.1932   -0.7715   -0.1219 H   0  0  0  0  0  0  0  0  0  0  0  0
   -0.6568    1.1713   -0.5294 C   0  0  0  0  0  0  0  0  0  0  0  0
    0.0669    1.1080   -1.3444 H   0  0  0  0  0  0  0  0  0  0  0  0
   -1.6531    1.2160   -0.9746 H   0  0  0  0  0  0  0  0  0  0  0  0
   -0.4144    2.4853    0.2357 C   0  0  0  0  0  0  0  0  0  0  0  0
    0.0206    2.2683    1.2114 H   0  0  0  0  0  0  0  0  0  0  0  0
    0.5161    3.4350   -0.5242 C   0  0  0  0  0  0  0  0  0  0  0  0
    0.1018    3.6492   -1.5104 H   0  0  0  0  0  0  0  0  0  0  0  0
    0.6197    4.3685    0.0293 H   0  0  0  0  0  0  0  0  0  0  0  0
    1.5033    2.9933   -0.6418 H   0  0  0  0  0  0  0  0  0  0  0  0
   -1.7438    3.2050    0.4599 C   0  0  0  0  0  0  0  0  0  0  0  0
   -2.4170    2.5631    1.0280 H   0  0  0  0  0  0  0  0  0  0  0  0
   -1.5782    4.1219    1.0255 H   0  0  0  0  0  0  0  0  0  0  0  0
   -2.2039    3.4510   -0.4978 H   0  0  0  0  0  0  0  0  0  0  0  0
   -0.1913    0.1554    1.7759 C   0  0  0  0  0  0  0  0  0  0  0  0
    0.9476   -0.0766    2.1748 O   0  0  0  0  0  0  0  0  0  0  0  0
   -1.1502    0.6393    2.5760 N   0  0  0  0  0  0  0  0  0  0  0  0
   -2.0581    0.8092    2.1736 H   0  0  0  0  0  0  0  0  0  0  0  0
   -0.9568    0.9369    3.9933 C   0  0  0  0  0  0  0  0  0  0  0  0
   -0.1600    1.6750    4.1097 H   0  0  0  0  0  0  0  0  0  0  0  0
   -1.8775    1.3307    4.4266 H   0  0  0  0  0  0  0  0  0  0  0  0
   -0.6678    0.0287    4.5244 H   0  0  0  0  0  0  0  0  0  0  0  0
  5  6  2  0  0  0  0
  5  7  1  0  0  0  0
  2  3  1  0  0  0  0
  2  4  1  0  0  0  0
  2  5  1  0  0  0  0
  1  2  1  0  0  0  0
 24 25  2  0  0  0  0
 24 26  1  0  0  0  0
 20 21  1  0  0  0  0
 20 22  1  0  0  0  0
 20 23  1  0  0  0  0
 16 17  1  0  0  0  0
 16 18  1  0  0  0  0
 16 19  1  0  0  0  0
 14 15  1  0  0  0  0
 14 16  1  0  0  0  0
 14 20  1  0  0  0  0
 11 12  1  0  0  0  0
 11 13  1  0  0  0  0
 11 14  1  0  0  0  0
  9 10  1  0  0  0  0
  9 11  1  0  0  0  0
  9 24  1  0  0  0  0
  7  8  1  0  0  0  0
  7  9  1  0  0  0  0
 28 29  1  0  0  0  0
 28 30  1  0  0  0  0
 28 31  1  0  0  0  0
 26 27  1  0  0  0  0
 26 28  1  0  0  0  0
M  END
$$$$
default_name
  -OEChem-02102213163D

 31 30  0     1  0  0  0  0  0999 V2000
   -3.5895   -3.5013    1.1082 H   0  0  0  0  0  0  0  0  0  0  0  0
   -3.5145   -2.5363    0.6082 C   0  0  0  0  0  0  0  0  0  0  0  0
   -4.2285   -1.8413    1.0452 H   0  0  0  0  0  0  0  0  0  0  0  0
   -3.7155   -2.6583   -0.4538 H   0  0  0  0  0  0  0  0  0  0  0  0
   -2.1155   -1.9963    0.7922 C   0  0  0  0  0  0  0  0  0  0  0  0
   -1.2875   -2.6383    1.4252 O   0  0  0  0  0  0  0  0  0  0  0  0
   -1.8575   -0.8123    0.2402 N   0  0  0  0  0  0  0  0  0  0  0  0
   -2.6005   -0.3333   -0.2478 H   0  0  0  0  0  0  0  0  0  0  0  0
   -0.5675   -0.1203    0.3102 C   0  0  1  0  0  0  0  0  0  0  0  0
    0.1932   -0.7715   -0.1219 H   0  0  0  0  0  0  0  0  0  0  0  0
   -0.6568    1.1713   -0.5294 C   0  0  0  0  0  0  0  0  0  0  0  0
    0.0669    1.1080   -1.3444 H   0  0  0  0  0  0  0  0  0  0  0  0
   -1.6531    1.2160   -0.9746 H   0  0  0  0  0  0  0  0  0  0  0  0
   -0.4144    2.4853    0.2357 C   0  0  0  0  0  0  0  0  0  0  0  0
    0.2511    2.3026    1.0794 H   0  0  0  0  0  0  0  0  0  0  0  0
    0.1975    3.5701   -0.6554 C   0  0  0  0  0  0  0  0  0  0  0  0
   -0.4500    3.7531   -1.5140 H   0  0  0  0  0  0  0  0  0  0  0  0
    0.3056    4.4943   -0.0871 H   0  0  0  0  0  0  0  0  0  0  0  0
    1.1804    3.2671   -1.0097 H   0  0  0  0  0  0  0  0  0  0  0  0
   -1.7387    3.0153    0.7839 C   0  0  0  0  0  0  0  0  0  0  0  0
   -2.1830    2.2748    1.4490 H   0  0  0  0  0  0  0  0  0  0  0  0
   -1.5660    3.9309    1.3495 H   0  0  0  0  0  0  0  0  0  0  0  0
   -2.4282    3.2230   -0.0352 H   0  0  0  0  0  0  0  0  0  0  0  0
   -0.1913    0.1554    1.7759 C   0  0  0  0  0  0  0  0  0  0  0  0
    0.9476   -0.0766    2.1748 O   0  0  0  0  0  0  0  0  0  0  0  0
   -1.1502    0.6393    2.5760 N   0  0  0  0  0  0  0  0  0  0  0  0
   -2.0581    0.8092    2.1736 H   0  0  0  0  0  0  0  0  0  0  0  0
   -0.9568    0.9369    3.9933 C   0  0  0  0  0  0  0  0  0  0  0  0
   -0.1600    1.6750    4.1097 H   0  0  0  0  0  0  0  0  0  0  0  0
   -1.8775    1.3307    4.4266 H   0  0  0  0  0  0  0  0  0  0  0  0
   -0.6678    0.0287    4.5244 H   0  0  0  0  0  0  0  0  0  0  0  0
  5  6  2  0  0  0  0
  5  7  1  0  0  0  0
  2  3  1  0  0  0  0
  2  4  1  0  0  0  0
  2  5  1  0  0  0  0
  1  2  1  0  0  0  0
 24 25  2  0  0  0  0
 24 26  1  0  0  0  0
 20 21  1  0  0  0  0
 20 22  1  0  0  0  0
 20 23  1  0  0  0  0
 16 17  1  0  0  0  0
 16 18  1  0  0  0  0
 16 19  1  0  0  0  0
 14 15  1  0  0  0  0
 14 16  1  0  0  0  0
 14 20  1  0  0  0  0
 11 12  1  0  0  0  0
 11 13  1  0  0  0  0
 11 14  1  0  0  0  0
  9 10  1  0  0  0  0
  9 11  1  0  0  0  0
  9 24  1  0  0  0  0
  7  8  1  0  0  0  0
  7  9  1  0  0  0  0
 28 29  1  0  0  0  0
 28 30  1  0  0  0  0
 28 31  1  0  0  0  0
 26 27  1  0  0  0  0
 26 28  1  0  0  0  0
M  END
$$$$
default_name
  -OEChem-02102213163D

 31 30  0     1  0  0  0  0  0999 V2000
   -3.5895   -3.5013    1.1082 H   0  0  0  0  0  0  0  0  0  0  0  0
   -3.5145   -2.5363    0.6082 C   0  0  0  0  0  0  0  0  0  0  0  0
   -4.2285   -1.8413    1.0452 H   0  0  0  0  0  0  0  0  0  0  0  0
   -3.7155   -2.6583   -0.4538 H   0  0  0  0  0  0  0  0  0  0  0  0
   -2.1155   -1.9963    0.7922 C   0  0  0  0  0  0  0  0  0  0  0  0
   -1.2875   -2.6383    1.4252 O   0  0  0  0  0  0  0  0  0  0  0  0
   -1.8575   -0.8123    0.2402 N   0  0  0  0  0  0  0  0  0  0  0  0
   -2.6005   -0.3333   -0.2478 H   0  0  0  0  0  0  0  0  0  0  0  0
   -0.5675   -0.1203    0.3102 C   0  0  1  0  0  0  0  0  0  0  0  0
    0.1932   -0.7715   -0.1219 H   0  0  0  0  0  0  0  0  0  0  0  0
   -0.6568    1.1713   -0.5294 C   0  0  0  0  0  0  0  0  0  0  0  0
    0.0669    1.1080   -1.3444 H   0  0  0  0  0  0  0  0  0  0  0  0
   -1.6531    1.2160   -0.9746 H   0  0  0  0  0  0  0  0  0  0  0  0
   -0.4144    2.4853    0.2357 C   0  0  0  0  0  0  0  0  0  0  0  0
    0.4403    2.3708    0.9025 H   0  0  0  0  0  0  0  0  0  0  0  0
   -0.1566    3.6650   -0.7061 C   0  0  0  0  0  0  0  0  0  0  0  0
   -0.9972    3.7826   -1.3914 H   0  0  0  0  0  0  0  0  0  0  0  0
   -0.0397    4.5800   -0.1250 H   0  0  0  0  0  0  0  0  0  0  0  0
    0.7520    3.5050   -1.2826 H   0  0  0  0  0  0  0  0  0  0  0  0
   -1.6379    2.8196    1.0881 C   0  0  0  0  0  0  0  0  0  0  0  0
   -1.8269    2.0093    1.7921 H   0  0  0  0  0  0  0  0  0  0  0  0
   -1.4580    3.7349    1.6520 H   0  0  0  0  0  0  0  0  0  0  0  0
   -2.5133    2.9551    0.4519 H   0  0  0  0  0  0  0  0  0  0  0  0
   -0.1913    0.1554    1.7759 C   0  0  0  0  0  0  0  0  0  0  0  0
    0.9476   -0.0766    2.1748 O   0  0  0  0  0  0  0  0  0  0  0  0
   -1.1502    0.6393    2.5760 N   0  0  0  0  0  0  0  0  0  0  0  0
   -2.0581    0.8092    2.1736 H   0  0  0  0  0  0  0  0  0  0  0  0
   -0.9568    0.9369    3.9933 C   0  0  0  0  0  0  0  0  0  0  0  0
   -0.1600    1.6750    4.1097 H   0  0  0  0  0  0  0  0  0  0  0  0
   -1.8775    1.3307    4.4266 H   0  0  0  0  0  0  0  0  0  0  0  0
   -0.6678    0.0287    4.5244 H   0  0  0  0  0  0  0  0  0  0  0  0
  5  6  2  0  0  0  0
  5  7  1  0  0  0  0
  2  3  1  0  0  0  0
  2  4  1  0  0  0  0
  2  5  1  0  0  0  0
  1  2  1  0  0  0  0
 24 25  2  0  0  0  0
 24 26  1  0  0  0  0
 20 21  1  0  0  0  0
 20 22  1  0  0  0  0
 20 23  1  0  0  0  0
 16 17  1  0  0  0  0
 16 18  1  0  0  0  0
 16 19  1  0  0  0  0
 14 15  1  0  0  0  0
 14 16  1  0  0  0  0
 14 20  1  0  0  0  0
 11 12  1  0  0  0  0
 11 13  1  0  0  0  0
 11 14  1  0  0  0  0
  9 10  1  0  0  0  0
  9 11  1  0  0  0  0
  9 24  1  0  0  0  0
  7  8  1  0  0  0  0
  7  9  1  0  0  0  0
 28 29  1  0  0  0  0
 28 30  1  0  0  0  0
 28 31  1  0  0  0  0
 26 27  1  0  0  0  0
 26 28  1  0  0  0  0
M  END
$$$$
default_name
  -OEChem-02102213163D

 31 30  0     1  0  0  0  0  0999 V2000
   -3.5895   -3.5013    1.1082 H   0  0  0  0  0  0  0  0  0  0  0  0
   -3.5145   -2.5363    0.6082 C   0  0  0  0  0  0  0  0  0  0  0  0
   -4.2285   -1.8413    1.0452 H   0  0  0  0  0  0  0  0  0  0  0  0
   -3.7155   -2.6583   -0.4538 H   0  0  0  0  0  0  0  0  0  0  0  0
   -2.1155   -1.9963    0.7922 C   0  0  0  0  0  0  0  0  0  0  0  0
   -1.2875   -2.6383    1.4252 O   0  0  0  0  0  0  0  0  0  0  0  0
   -1.8575   -0.8123    0.2402 N   0  0  0  0  0  0  0  0  0  0  0  0
   -2.6005   -0.3333   -0.2478 H   0  0  0  0  0  0  0  0  0  0  0  0
   -0.5675   -0.1203    0.3102 C   0  0  1  0  0  0  0  0  0  0  0  0
    0.1932   -0.7715   -0.1219 H   0  0  0  0  0  0  0  0  0  0  0  0
   -0.6568    1.1713   -0.5294 C   0  0  0  0  0  0  0  0  0  0  0  0
   -0.1439    1.0060   -1.4789 H   0  0  0  0  0  0  0  0  0  0  0  0
   -1.7100    1.3578   -0.7505 H   0  0  0  0  0  0  0  0  0  0  0  0
   -0.0732    2.4370    0.1250 C   0  0  0  0  0  0  0  0  0  0  0  0
    0.9798    2.2787    0.3582 H   0  0  0  0  0  0  0  0  0  0  0  0
   -0.2041    3.6682   -0.7762 C   0  0  0  0  0  0  0  0  0  0  0  0
   -1.2521    3.8304   -1.0318 H   0  0  0  0  0  0  0  0  0  0  0  0
    0.1758    4.5470   -0.2547 H   0  0  0  0  0  0  0  0  0  0  0  0
    0.3687    3.5368   -1.6917 H   0  0  0  0  0  0  0  0  0  0  0  0
   -0.8086    2.7280    1.4326 C   0  0  0  0  0  0  0  0  0  0  0  0
   -0.7052    1.8790    2.1083 H   0  0  0  0  0  0  0  0  0  0  0  0
   -0.3790    3.6077    1.9118 H   0  0  0  0  0  0  0  0  0  0  0  0
   -1.8667    2.9054    1.2370 H   0  0  0  0  0  0  0  0  0  0  0  0
   -0.1913    0.1554    1.7759 C   0  0  0  0  0  0  0  0  0  0  0  0
    0.9476   -0.0766    2.1748 O   0  0  0  0  0  0  0  0  0  0  0  0
   -1.1502    0.6393    2.5760 N   0  0  0  0  0  0  0  0  0  0  0  0
   -2.0581    0.8092    2.1736 H   0  0  0  0  0  0  0  0  0  0  0  0
   -0.9568    0.9369    3.9933 C   0  0  0  0  0  0  0  0  0  0  0  0
   -0.1600    1.6750    4.1097 H   0  0  0  0  0  0  0  0  0  0  0  0
   -1.8775    1.3307    4.4266 H   0  0  0  0  0  0  0  0  0  0  0  0
   -0.6678    0.0287    4.5244 H   0  0  0  0  0  0  0  0  0  0  0  0
  5  6  2  0  0  0  0
  5  7  1  0  0  0  0
  2  3  1  0  0  0  0
  2  4  1  0  0  0  0
  2  5  1  0  0  0  0
  1  2  1  0  0  0  0
 24 25  2  0  0  0  0
 24 26  1  0  0  0  0
 20 21  1  0  0  0  0
 20 22  1  0  0  0  0
 20 23  1  0  0  0  0
 16 17  1  0  0  0  0
 16 18  1  0  0  0  0
 16 19  1  0  0  0  0
 14 15  1  0  0  0  0
 14 16  1  0  0  0  0
 14 20  1  0  0  0  0
 11 12  1  0  0  0  0
 11 13  1  0  0  0  0
 11 14  1  0  0  0  0
  9 10  1  0  0  0  0
  9 11  1  0  0  0  0
  9 24  1  0  0  0  0
  7  8  1  0  0  0  0
  7  9  1  0  0  0  0
 28 29  1  0  0  0  0
 28 30  1  0  0  0  0
 28 31  1  0  0  0  0
 26 27  1  0  0  0  0
 26 28  1  0  0  0  0
M  END
$$$$
default_name
  -OEChem-02102213163D

 31 30  0     1  0  0  0  0  0999 V2000
   -3.5895   -3.5013    1.1082 H   0  0  0  0  0  0  0  0  0  0  0  0
   -3.5145   -2.5363    0.6082 C   0  0  0  0  0  0  0  0  0  0  0  0
   -4.2285   -1.8413    1.0452 H   0  0  0  0  0  0  0  0  0  0  0  0
   -3.7155   -2.6583   -0.4538 H   0  0  0  0  0  0  0  0  0  0  0  0
   -2.1155   -1.9963    0.7922 C   0  0  0  0  0  0  0  0  0  0  0  0
   -1.2875   -2.6383    1.4252 O   0  0  0  0  0  0  0  0  0  0  0  0
   -1.8575   -0.8123    0.2402 N   0  0  0  0  0  0  0  0  0  0  0  0
   -2.6005   -0.3333   -0.2478 H   0  0  0  0  0  0  0  0  0  0  0  0
   -0.5675   -0.1203    0.3102 C   0  0  1  0  0  0  0  0  0  0  0  0
    0.1932   -0.7715   -0.1219 H   0  0  0  0  0  0  0  0  0  0  0  0
   -0.6568    1.1713   -0.5294 C   0  0  0  0  0  0  0  0  0  0  0  0
   -0.1439    1.0060   -1.4789 H   0  0  0  0  0  0  0  0  0  0  0  0
   -1.7100    1.3578   -0.7505 H   0  0  0  0  0  0  0  0  0  0  0  0
   -0.0732    2.4370    0.1250 C   0  0  0  0  0  0  0  0  0  0  0  0
    1.0157    2.3874    0.1160 H   0  0  0  0  0  0  0  0  0  0  0  0
   -0.5194    3.7164   -0.5885 C   0  0  0  0  0  0  0  0  0  0  0  0
   -1.6087    3.7725   -0.6019 H   0  0  0  0  0  0  0  0  0  0  0  0
   -0.1240    4.5864   -0.0636 H   0  0  0  0  0  0  0  0  0  0  0  0
   -0.1500    3.7345   -1.6116 H   0  0  0  0  0  0  0  0  0  0  0  0
   -0.5307    2.5234    1.5806 C   0  0  0  0  0  0  0  0  0  0  0  0
   -0.1984    1.6380    2.1226 H   0  0  0  0  0  0  0  0  0  0  0  0
   -0.0965    3.4039    2.0541 H   0  0  0  0  0  0  0  0  0  0  0  0
   -1.6183    2.5880    1.6292 H   0  0  0  0  0  0  0  0  0  0  0  0
   -0.1913    0.1554    1.7759 C   0  0  0  0  0  0  0  0  0  0  0  0
    0.9476   -0.0766    2.1748 O   0  0  0  0  0  0  0  0  0  0  0  0
   -1.1502    0.6393    2.5760 N   0  0  0  0  0  0  0  0  0  0  0  0
   -2.0581    0.8092    2.1736 H   0  0  0  0  0  0  0  0  0  0  0  0
   -0.9568    0.9369    3.9933 C   0  0  0  0  0  0  0  0  0  0  0  0
   -0.1600    1.6750    4.1097 H   0  0  0  0  0  0  0  0  0  0  0  0
   -1.8775    1.3307    4.4266 H   0  0  0  0  0  0  0  0  0  0  0  0
   -0.6678    0.0287    4.5244 H   0  0  0  0  0  0  0  0  0  0  0  0
  5  6  2  0  0  0  0
  5  7  1  0  0  0  0
  2  3  1  0  0  0  0
  2  4  1  0  0  0  0
  2  5  1  0  0  0  0
  1  2  1  0  0  0  0
 24 25  2  0  0  0  0
 24 26  1  0  0  0  0
 20 21  1  0  0  0  0
 20 22  1  0  0  0  0
 20 23  1  0  0  0  0
 16 17  1  0  0  0  0
 16 18  1  0  0  0  0
 16 19  1  0  0  0  0
 14 15  1  0  0  0  0
 14 16  1  0  0  0  0
 14 20  1  0  0  0  0
 11 12  1  0  0  0  0
 11 13  1  0  0  0  0
 11 14  1  0  0  0  0
  9 10  1  0  0  0  0
  9 11  1  0  0  0  0
  9 24  1  0  0  0  0
  7  8  1  0  0  0  0
  7  9  1  0  0  0  0
 28 29  1  0  0  0  0
 28 30  1  0  0  0  0
 28 31  1  0  0  0  0
 26 27  1  0  0  0  0
 26 28  1  0  0  0  0
M  END
$$$$
default_name
  -OEChem-02102213163D

 31 30  0     1  0  0  0  0  0999 V2000
   -3.5895   -3.5013    1.1082 H   0  0  0  0  0  0  0  0  0  0  0  0
   -3.5145   -2.5363    0.6082 C   0  0  0  0  0  0  0  0  0  0  0  0
   -4.2285   -1.8413    1.0452 H   0  0  0  0  0  0  0  0  0  0  0  0
   -3.7155   -2.6583   -0.4538 H   0  0  0  0  0  0  0  0  0  0  0  0
   -2.1155   -1.9963    0.7922 C   0  0  0  0  0  0  0  0  0  0  0  0
   -1.2875   -2.6383    1.4252 O   0  0  0  0  0  0  0  0  0  0  0  0
   -1.8575   -0.8123    0.2402 N   0  0  0  0  0  0  0  0  0  0  0  0
   -2.6005   -0.3333   -0.2478 H   0  0  0  0  0  0  0  0  0  0  0  0
   -0.5675   -0.1203    0.3102 C   0  0  1  0  0  0  0  0  0  0  0  0
    0.1932   -0.7715   -0.1219 H   0  0  0  0  0  0  0  0  0  0  0  0
   -0.6568    1.1713   -0.5294 C   0  0  0  0  0  0  0  0  0  0  0  0
   -0.1439    1.0060   -1.4789 H   0  0  0  0  0  0  0  0  0  0  0  0
   -1.7100    1.3578   -0.7505 H   0  0  0  0  0  0  0  0  0  0  0  0
   -0.0732    2.4370    0.1250 C   0  0  0  0  0  0  0  0  0  0  0  0
    0.9869    2.5201   -0.1149 H   0  0  0  0  0  0  0  0  0  0  0  0
   -0.7892    3.7100   -0.3353 C   0  0  0  0  0  0  0  0  0  0  0  0
   -1.8553    3.6352   -0.1164 H   0  0  0  0  0  0  0  0  0  0  0  0
   -0.3774    4.5728    0.1886 H   0  0  0  0  0  0  0  0  0  0  0  0
   -0.6557    3.8606   -1.4044 H   0  0  0  0  0  0  0  0  0  0  0  0
   -0.2083    2.3417    1.6443 C   0  0  0  0  0  0  0  0  0  0  0  0
    0.3206    1.4596    2.0049 H   0  0  0  0  0  0  0  0  0  0  0  0
    0.2291    3.2241    2.1114 H   0  0  0  0  0  0  0  0  0  0  0  0
   -1.2600    2.2703    1.9241 H   0  0  0  0  0  0  0  0  0  0  0  0
   -0.1913    0.1554    1.7759 C   0  0  0  0  0  0  0  0  0  0  0  0
    0.9476   -0.0766    2.1748 O   0  0  0  0  0  0  0  0  0  0  0  0
   -1.1502    0.6393    2.5760 N   0  0  0  0  0  0  0  0  0  0  0  0
   -2.0581    0.8092    2.1736 H   0  0  0  0  0  0  0  0  0  0  0  0
   -0.9568    0.9369    3.9933 C   0  0  0  0  0  0  0  0  0  0  0  0
   -0.1600    1.6750    4.1097 H   0  0  0  0  0  0  0  0  0  0  0  0
   -1.8775    1.3307    4.4266 H   0  0  0  0  0  0  0  0  0  0  0  0
   -0.6678    0.0287    4.5244 H   0  0  0  0  0  0  0  0  0  0  0  0
  5  6  2  0  0  0  0
  5  7  1  0  0  0  0
  2  3  1  0  0  0  0
  2  4  1  0  0  0  0
  2  5  1  0  0  0  0
  1  2  1  0  0  0  0
 24 25  2  0  0  0  0
 24 26  1  0  0  0  0
 20 21  1  0  0  0  0
 20 22  1  0  0  0  0
 20 23  1  0  0  0  0
 16 17  1  0  0  0  0
 16 18  1  0  0  0  0
 16 19  1  0  0  0  0
 14 15  1  0  0  0  0
 14 16  1  0  0  0  0
 14 20  1  0  0  0  0
 11 12  1  0  0  0  0
 11 13  1  0  0  0  0
 11 14  1  0  0  0  0
  9 10  1  0  0  0  0
  9 11  1  0  0  0  0
  9 24  1  0  0  0  0
  7  8  1  0  0  0  0
  7  9  1  0  0  0  0
 28 29  1  0  0  0  0
 28 30  1  0  0  0  0
 28 31  1  0  0  0  0
 26 27  1  0  0  0  0
 26 28  1  0  0  0  0
M  END
$$$$
default_name
  -OEChem-02102213163D

 31 30  0     1  0  0  0  0  0999 V2000
   -3.5895   -3.5013    1.1082 H   0  0  0  0  0  0  0  0  0  0  0  0
   -3.5145   -2.5363    0.6082 C   0  0  0  0  0  0  0  0  0  0  0  0
   -4.2285   -1.8413    1.0452 H   0  0  0  0  0  0  0  0  0  0  0  0
   -3.7155   -2.6583   -0.4538 H   0  0  0  0  0  0  0  0  0  0  0  0
   -2.1155   -1.9963    0.7922 C   0  0  0  0  0  0  0  0  0  0  0  0
   -1.2875   -2.6383    1.4252 O   0  0  0  0  0  0  0  0  0  0  0  0
   -1.8575   -0.8123    0.2402 N   0  0  0  0  0  0  0  0  0  0  0  0
   -2.6005   -0.3333   -0.2478 H   0  0  0  0  0  0  0  0  0  0  0  0
   -0.5675   -0.1203    0.3102 C   0  0  1  0  0  0  0  0  0  0  0  0
    0.1932   -0.7715   -0.1219 H   0  0  0  0  0  0  0  0  0  0  0  0
   -0.6568    1.1713   -0.5294 C   0  0  0  0  0  0  0  0  0  0  0  0
   -0.1439    1.0060   -1.4789 H   0  0  0  0  0  0  0  0  0  0  0  0
   -1.7100    1.3578   -0.7505 H   0  0  0  0  0  0  0  0  0  0  0  0
   -0.0732    2.4370    0.1250 C   0  0  0  0  0  0  0  0  0  0  0  0
    0.8953    2.6677   -0.3187 H   0  0  0  0  0  0  0  0  0  0  0  0
   -0.9953    3.6492   -0.0340 C   0  0  0  0  0  0  0  0  0  0  0  0
   -1.9751    3.4278    0.3915 H   0  0  0  0  0  0  0  0  0  0  0  0
   -0.5669    4.5070    0.4849 H   0  0  0  0  0  0  0  0  0  0  0  0
   -1.1140    3.9064   -1.0844 H   0  0  0  0  0  0  0  0  0  0  0  0
    0.1367    2.1955    1.6194 C   0  0  0  0  0  0  0  0  0  0  0  0
    0.8165    1.3558    1.7633 H   0  0  0  0  0  0  0  0  0  0  0  0
    0.5755    3.0807    2.0799 H   0  0  0  0  0  0  0  0  0  0  0  0
   -0.8161    1.9740    2.1015 H   0  0  0  0  0  0  0  0  0  0  0  0
   -0.1913    0.1554    1.7759 C   0  0  0  0  0  0  0  0  0  0  0  0
    0.9476   -0.0766    2.1748 O   0  0  0  0  0  0  0  0  0  0  0  0
   -1.1502    0.6393    2.5760 N   0  0  0  0  0  0  0  0  0  0  0  0
   -2.0581    0.8092    2.1736 H   0  0  0  0  0  0  0  0  0  0  0  0
   -0.9568    0.9369    3.9933 C   0  0  0  0  0  0  0  0  0  0  0  0
   -0.1600    1.6750    4.1097 H   0  0  0  0  0  0  0  0  0  0  0  0
   -1.8775    1.3307    4.4266 H   0  0  0  0  0  0  0  0  0  0  0  0
   -0.6678    0.0287    4.5244 H   0  0  0  0  0  0  0  0  0  0  0  0
  5  6  2  0  0  0  0
  5  7  1  0  0  0  0
  2  3  1  0  0  0  0
  2  4  1  0  0  0  0
  2  5  1  0  0  0  0
  1  2  1  0  0  0  0
 24 25  2  0  0  0  0
 24 26  1  0  0  0  0
 20 21  1  0  0  0  0
 20 22  1  0  0  0  0
 20 23  1  0  0  0  0
 16 17  1  0  0  0  0
 16 18  1  0  0  0  0
 16 19  1  0  0  0  0
 14 15  1  0  0  0  0
 14 16  1  0  0  0  0
 14 20  1  0  0  0  0
 11 12  1  0  0  0  0
 11 13  1  0  0  0  0
 11 14  1  0  0  0  0
  9 10  1  0  0  0  0
  9 11  1  0  0  0  0
  9 24  1  0  0  0  0
  7  8  1  0  0  0  0
  7  9  1  0  0  0  0
 28 29  1  0  0  0  0
 28 30  1  0  0  0  0
 28 31  1  0  0  0  0
 26 27  1  0  0  0  0
 26 28  1  0  0  0  0
M  END
$$$$
default_name
  -OEChem-02102213163D

 31 30  0     1  0  0  0  0  0999 V2000
   -3.5895   -3.5013    1.1082 H   0  0  0  0  0  0  0  0  0  0  0  0
   -3.5145   -2.5363    0.6082 C   0  0  0  0  0  0  0  0  0  0  0  0
   -4.2285   -1.8413    1.0452 H   0  0  0  0  0  0  0  0  0  0  0  0
   -3.7155   -2.6583   -0.4538 H   0  0  0  0  0  0  0  0  0  0  0  0
   -2.1155   -1.9963    0.7922 C   0  0  0  0  0  0  0  0  0  0  0  0
   -1.2875   -2.6383    1.4252 O   0  0  0  0  0  0  0  0  0  0  0  0
   -1.8575   -0.8123    0.2402 N   0  0  0  0  0  0  0  0  0  0  0  0
   -2.6005   -0.3333   -0.2478 H   0  0  0  0  0  0  0  0  0  0  0  0
   -0.5675   -0.1203    0.3102 C   0  0  1  0  0  0  0  0  0  0  0  0
    0.1932   -0.7715   -0.1219 H   0  0  0  0  0  0  0  0  0  0  0  0
   -0.6568    1.1713   -0.5294 C   0  0  0  0  0  0  0  0  0  0  0  0
   -0.1439    1.0060   -1.4789 H   0  0  0  0  0  0  0  0  0  0  0  0
   -1.7100    1.3578   -0.7505 H   0  0  0  0  0  0  0  0  0  0  0  0
   -0.0732    2.4370    0.1250 C   0  0  0  0  0  0  0  0  0  0  0  0
    0.7473    2.8202   -0.4817 H   0  0  0  0  0  0  0  0  0  0  0  0
   -1.1236    3.5383    0.2949 C   0  0  0  0  0  0  0  0  0  0  0  0
   -1.9599    3.1644    0.8872 H   0  0  0  0  0  0  0  0  0  0  0  0
   -0.6797    4.3935    0.8049 H   0  0  0  0  0  0  0  0  0  0  0  0
   -1.4936    3.8689   -0.6732 H   0  0  0  0  0  0  0  0  0  0  0  0
    0.4807    2.0947    1.5076 C   0  0  0  0  0  0  0  0  0  0  0  0
    1.2555    1.3339    1.4142 H   0  0  0  0  0  0  0  0  0  0  0  0
    0.9192    2.9833    1.9617 H   0  0  0  0  0  0  0  0  0  0  0  0
   -0.3171    1.7191    2.1494 H   0  0  0  0  0  0  0  0  0  0  0  0
   -0.1913    0.1554    1.7759 C   0  0  0  0  0  0  0  0  0  0  0  0
    0.9476   -0.0766    2.1748 O   0  0  0  0  0  0  0  0  0  0  0  0
   -1.1502    0.6393    2.5760 N   0  0  0  0  0  0  0  0  0  0  0  0
   -2.0581    0.8092    2.1736 H   0  0  0  0  0  0  0  0  0  0  0  0
   -0.9568    0.9369    3.9933 C   0  0  0  0  0  0  0  0  0  0  0  0
   -0.1600    1.6750    4.1097 H   0  0  0  0  0  0  0  0  0  0  0  0
   -1.8775    1.3307    4.4266 H   0  0  0  0  0  0  0  0  0  0  0  0
   -0.6678    0.0287    4.5244 H   0  0  0  0  0  0  0  0  0  0  0  0
  5  6  2  0  0  0  0
  5  7  1  0  0  0  0
  2  3  1  0  0  0  0
  2  4  1  0  0  0  0
  2  5  1  0  0  0  0
  1  2  1  0  0  0  0
 24 25  2  0  0  0  0
 24 26  1  0  0  0  0
 20 21  1  0  0  0  0
 20 22  1  0  0  0  0
 20 23  1  0  0  0  0
 16 17  1  0  0  0  0
 16 18  1  0  0  0  0
 16 19  1  0  0  0  0
 14 15  1  0  0  0  0
 14 16  1  0  0  0  0
 14 20  1  0  0  0  0
 11 12  1  0  0  0  0
 11 13  1  0  0  0  0
 11 14  1  0  0  0  0
  9 10  1  0  0  0  0
  9 11  1  0  0  0  0
  9 24  1  0  0  0  0
  7  8  1  0  0  0  0
  7  9  1  0  0  0  0
 28 29  1  0  0  0  0
 28 30  1  0  0  0  0
 28 31  1  0  0  0  0
 26 27  1  0  0  0  0
 26 28  1  0  0  0  0
M  END
$$$$
default_name
  -OEChem-02102213163D

 31 30  0     1  0  0  0  0  0999 V2000
   -3.5895   -3.5013    1.1082 H   0  0  0  0  0  0  0  0  0  0  0  0
   -3.5145   -2.5363    0.6082 C   0  0  0  0  0  0  0  0  0  0  0  0
   -4.2285   -1.8413    1.0452 H   0  0  0  0  0  0  0  0  0  0  0  0
   -3.7155   -2.6583   -0.4538 H   0  0  0  0  0  0  0  0  0  0  0  0
   -2.1155   -1.9963    0.7922 C   0  0  0  0  0  0  0  0  0  0  0  0
   -1.2875   -2.6383    1.4252 O   0  0  0  0  0  0  0  0  0  0  0  0
   -1.8575   -0.8123    0.2402 N   0  0  0  0  0  0  0  0  0  0  0  0
   -2.6005   -0.3333   -0.2478 H   0  0  0  0  0  0  0  0  0  0  0  0
   -0.5675   -0.1203    0.3102 C   0  0  1  0  0  0  0  0  0  0  0  0
    0.1932   -0.7715   -0.1219 H   0  0  0  0  0  0  0  0  0  0  0  0
   -0.6568    1.1713   -0.5294 C   0  0  0  0  0  0  0  0  0  0  0  0
   -0.1439    1.0060   -1.4789 H   0  0  0  0  0  0  0  0  0  0  0  0
   -1.7100    1.3578   -0.7505 H   0  0  0  0  0  0  0  0  0  0  0  0
   -0.0732    2.4370    0.1250 C   0  0  0  0  0  0  0  0  0  0  0  0
    0.5528    2.9673   -0.5926 H   0  0  0  0  0  0  0  0  0  0  0  0
   -1.1654    3.3847    0.6290 C   0  0  0  0  0  0  0  0  0  0  0  0
   -1.8108    2.8631    1.3370 H   0  0  0  0  0  0  0  0  0  0  0  0
   -0.7082    4.2402    1.1268 H   0  0  0  0  0  0  0  0  0  0  0  0
   -1.7687    3.7505   -0.1990 H   0  0  0  0  0  0  0  0  0  0  0  0
    0.8002    2.0461    1.3166 C   0  0  0  0  0  0  0  0  0  0  0  0
    1.6077    1.3952    0.9815 H   0  0  0  0  0  0  0  0  0  0  0  0
    1.2368    2.9387    1.7648 H   0  0  0  0  0  0  0  0  0  0  0  0
    0.2032    1.5231    2.0645 H   0  0  0  0  0  0  0  0  0  0  0  0
   -0.1913    0.1554    1.7759 C   0  0  0  0  0  0  0  0  0  0  0  0
    0.9476   -0.0766    2.1748 O   0  0  0  0  0  0  0  0  0  0  0  0
   -1.1502    0.6393    2.5760 N   0  0  0  0  0  0  0  0  0  0  0  0
   -2.0581    0.8092    2.1736 H   0  0  0  0  0  0  0  0  0  0  0  0
   -0.9568    0.9369    3.9933 C   0  0  0  0  0  0  0  0  0  0  0  0
   -0.1600    1.6750    4.1097 H   0  0  0  0  0  0  0  0  0  0  0  0
   -1.8775    1.3307    4.4266 H   0  0  0  0  0  0  0  0  0  0  0  0
   -0.6678    0.0287    4.5244 H   0  0  0  0  0  0  0  0  0  0  0  0
  5  6  2  0  0  0  0
  5  7  1  0  0  0  0
  2  3  1  0  0  0  0
  2  4  1  0  0  0  0
  2  5  1  0  0  0  0
  1  2  1  0  0  0  0
 24 25  2  0  0  0  0
 24 26  1  0  0  0  0
 20 21  1  0  0  0  0
 20 22  1  0  0  0  0
 20 23  1  0  0  0  0
 16 17  1  0  0  0  0
 16 18  1  0  0  0  0
 16 19  1  0  0  0  0
 14 15  1  0  0  0  0
 14 16  1  0  0  0  0
 14 20  1  0  0  0  0
 11 12  1  0  0  0  0
 11 13  1  0  0  0  0
 11 14  1  0  0  0  0
  9 10  1  0  0  0  0
  9 11  1  0  0  0  0
  9 24  1  0  0  0  0
  7  8  1  0  0  0  0
  7  9  1  0  0  0  0
 28 29  1  0  0  0  0
 28 30  1  0  0  0  0
 28 31  1  0  0  0  0
 26 27  1  0  0  0  0
 26 28  1  0  0  0  0
M  END
$$$$
default_name
  -OEChem-02102213163D

 31 30  0     1  0  0  0  0  0999 V2000
   -3.5895   -3.5013    1.1082 H   0  0  0  0  0  0  0  0  0  0  0  0
   -3.5145   -2.5363    0.6082 C   0  0  0  0  0  0  0  0  0  0  0  0
   -4.2285   -1.8413    1.0452 H   0  0  0  0  0  0  0  0  0  0  0  0
   -3.7155   -2.6583   -0.4538 H   0  0  0  0  0  0  0  0  0  0  0  0
   -2.1155   -1.9963    0.7922 C   0  0  0  0  0  0  0  0  0  0  0  0
   -1.2875   -2.6383    1.4252 O   0  0  0  0  0  0  0  0  0  0  0  0
   -1.8575   -0.8123    0.2402 N   0  0  0  0  0  0  0  0  0  0  0  0
   -2.6005   -0.3333   -0.2478 H   0  0  0  0  0  0  0  0  0  0  0  0
   -0.5675   -0.1203    0.3102 C   0  0  1  0  0  0  0  0  0  0  0  0
    0.1932   -0.7715   -0.1219 H   0  0  0  0  0  0  0  0  0  0  0  0
   -0.6568    1.1713   -0.5294 C   0  0  0  0  0  0  0  0  0  0  0  0
   -0.1439    1.0060   -1.4789 H   0  0  0  0  0  0  0  0  0  0  0  0
   -1.7100    1.3578   -0.7505 H   0  0  0  0  0  0  0  0  0  0  0  0
   -0.0732    2.4370    0.1250 C   0  0  0  0  0  0  0  0  0  0  0  0
    0.3253    3.0988   -0.6440 H   0  0  0  0  0  0  0  0  0  0  0  0
   -1.1177    3.1991    0.9456 C   0  0  0  0  0  0  0  0  0  0  0  0
   -1.5380    2.5443    1.7102 H   0  0  0  0  0  0  0  0  0  0  0  0
   -0.6502    4.0573    1.4288 H   0  0  0  0  0  0  0  0  0  0  0  0
   -1.9205    3.5594    0.3060 H   0  0  0  0  0  0  0  0  0  0  0  0
    1.0736    2.0531    1.0593 C   0  0  0  0  0  0  0  0  0  0  0  0
    1.8491    1.5357    0.4947 H   0  0  0  0  0  0  0  0  0  0  0  0
    1.5066    2.9498    1.5027 H   0  0  0  0  0  0  0  0  0  0  0  0
    0.7092    1.3994    1.8525 H   0  0  0  0  0  0  0  0  0  0  0  0
   -0.1913    0.1554    1.7759 C   0  0  0  0  0  0  0  0  0  0  0  0
    0.9476   -0.0766    2.1748 O   0  0  0  0  0  0  0  0  0  0  0  0
   -1.1502    0.6393    2.5760 N   0  0  0  0  0  0  0  0  0  0  0  0
   -2.0581    0.8092    2.1736 H   0  0  0  0  0  0  0  0  0  0  0  0
   -0.9568    0.9369    3.9933 C   0  0  0  0  0  0  0  0  0  0  0  0
   -0.1600    1.6750    4.1097 H   0  0  0  0  0  0  0  0  0  0  0  0
   -1.8775    1.3307    4.4266 H   0  0  0  0  0  0  0  0  0  0  0  0
   -0.6678    0.0287    4.5244 H   0  0  0  0  0  0  0  0  0  0  0  0
  5  6  2  0  0  0  0
  5  7  1  0  0  0  0
  2  3  1  0  0  0  0
  2  4  1  0  0  0  0
  2  5  1  0  0  0  0
  1  2  1  0  0  0  0
 24 25  2  0  0  0  0
 24 26  1  0  0  0  0
 20 21  1  0  0  0  0
 20 22  1  0  0  0  0
 20 23  1  0  0  0  0
 16 17  1  0  0  0  0
 16 18  1  0  0  0  0
 16 19  1  0  0  0  0
 14 15  1  0  0  0  0
 14 16  1  0  0  0  0
 14 20  1  0  0  0  0
 11 12  1  0  0  0  0
 11 13  1  0  0  0  0
 11 14  1  0  0  0  0
  9 10  1  0  0  0  0
  9 11  1  0  0  0  0
  9 24  1  0  0  0  0
  7  8  1  0  0  0  0
  7  9  1  0  0  0  0
 28 29  1  0  0  0  0
 28 30  1  0  0  0  0
 28 31  1  0  0  0  0
 26 27  1  0  0  0  0
 26 28  1  0  0  0  0
M  END
$$$$
default_name
  -OEChem-02102213163D

 31 30  0     1  0  0  0  0  0999 V2000
   -3.5895   -3.5013    1.1082 H   0  0  0  0  0  0  0  0  0  0  0  0
   -3.5145   -2.5363    0.6082 C   0  0  0  0  0  0  0  0  0  0  0  0
   -4.2285   -1.8413    1.0452 H   0  0  0  0  0  0  0  0  0  0  0  0
   -3.7155   -2.6583   -0.4538 H   0  0  0  0  0  0  0  0  0  0  0  0
   -2.1155   -1.9963    0.7922 C   0  0  0  0  0  0  0  0  0  0  0  0
   -1.2875   -2.6383    1.4252 O   0  0  0  0  0  0  0  0  0  0  0  0
   -1.8575   -0.8123    0.2402 N   0  0  0  0  0  0  0  0  0  0  0  0
   -2.6005   -0.3333   -0.2478 H   0  0  0  0  0  0  0  0  0  0  0  0
   -0.5675   -0.1203    0.3102 C   0  0  1  0  0  0  0  0  0  0  0  0
    0.1932   -0.7715   -0.1219 H   0  0  0  0  0  0  0  0  0  0  0  0
   -0.6568    1.1713   -0.5294 C   0  0  0  0  0  0  0  0  0  0  0  0
   -0.1439    1.0060   -1.4789 H   0  0  0  0  0  0  0  0  0  0  0  0
   -1.7100    1.3578   -0.7505 H   0  0  0  0  0  0  0  0  0  0  0  0
   -0.0732    2.4370    0.1250 C   0  0  0  0  0  0  0  0  0  0  0  0
    0.0800    3.2058   -0.6323 H   0  0  0  0  0  0  0  0  0  0  0  0
   -0.9839    2.9939    1.2230 C   0  0  0  0  0  0  0  0  0  0  0  0
   -1.1600    2.2298    1.9814 H   0  0  0  0  0  0  0  0  0  0  0  0
   -0.5099    3.8574    1.6903 H   0  0  0  0  0  0  0  0  0  0  0  0
   -1.9387    3.3085    0.8073 H   0  0  0  0  0  0  0  0  0  0  0  0
    1.2822    2.1152    0.7533 C   0  0  0  0  0  0  0  0  0  0  0  0
    1.9633    1.7457   -0.0132 H   0  0  0  0  0  0  0  0  0  0  0  0
    1.7102    3.0159    1.1933 H   0  0  0  0  0  0  0  0  0  0  0  0
    1.1665    1.3563    1.5280 H   0  0  0  0  0  0  0  0  0  0  0  0
   -0.1913    0.1554    1.7759 C   0  0  0  0  0  0  0  0  0  0  0  0
    0.9476   -0.0766    2.1748 O   0  0  0  0  0  0  0  0  0  0  0  0
   -1.1502    0.6393    2.5760 N   0  0  0  0  0  0  0  0  0  0  0  0
   -2.0581    0.8092    2.1736 H   0  0  0  0  0  0  0  0  0  0  0  0
   -0.9568    0.9369    3.9933 C   0  0  0  0  0  0  0  0  0  0  0  0
   -0.1600    1.6750    4.1097 H   0  0  0  0  0  0  0  0  0  0  0  0
   -1.8775    1.3307    4.4266 H   0  0  0  0  0  0  0  0  0  0  0  0
   -0.6678    0.0287    4.5244 H   0  0  0  0  0  0  0  0  0  0  0  0
  5  6  2  0  0  0  0
  5  7  1  0  0  0  0
  2  3  1  0  0  0  0
  2  4  1  0  0  0  0
  2  5  1  0  0  0  0
  1  2  1  0  0  0  0
 24 25  2  0  0  0  0
 24 26  1  0  0  0  0
 20 21  1  0  0  0  0
 20 22  1  0  0  0  0
 20 23  1  0  0  0  0
 16 17  1  0  0  0  0
 16 18  1  0  0  0  0
 16 19  1  0  0  0  0
 14 15  1  0  0  0  0
 14 16  1  0  0  0  0
 14 20  1  0  0  0  0
 11 12  1  0  0  0  0
 11 13  1  0  0  0  0
 11 14  1  0  0  0  0
  9 10  1  0  0  0  0
  9 11  1  0  0  0  0
  9 24  1  0  0  0  0
  7  8  1  0  0  0  0
  7  9  1  0  0  0  0
 28 29  1  0  0  0  0
 28 30  1  0  0  0  0
 28 31  1  0  0  0  0
 26 27  1  0  0  0  0
 26 28  1  0  0  0  0
M  END
$$$$
default_name
  -OEChem-02102213163D

 31 30  0     1  0  0  0  0  0999 V2000
   -3.5895   -3.5013    1.1082 H   0  0  0  0  0  0  0  0  0  0  0  0
   -3.5145   -2.5363    0.6082 C   0  0  0  0  0  0  0  0  0  0  0  0
   -4.2285   -1.8413    1.0452 H   0  0  0  0  0  0  0  0  0  0  0  0
   -3.7155   -2.6583   -0.4538 H   0  0  0  0  0  0  0  0  0  0  0  0
   -2.1155   -1.9963    0.7922 C   0  0  0  0  0  0  0  0  0  0  0  0
   -1.2875   -2.6383    1.4252 O   0  0  0  0  0  0  0  0  0  0  0  0
   -1.8575   -0.8123    0.2402 N   0  0  0  0  0  0  0  0  0  0  0  0
   -2.6005   -0.3333   -0.2478 H   0  0  0  0  0  0  0  0  0  0  0  0
   -0.5675   -0.1203    0.3102 C   0  0  1  0  0  0  0  0  0  0  0  0
    0.1932   -0.7715   -0.1219 H   0  0  0  0  0  0  0  0  0  0  0  0
   -0.6568    1.1713   -0.5294 C   0  0  0  0  0  0  0  0  0  0  0  0
   -0.1439    1.0060   -1.4789 H   0  0  0  0  0  0  0  0  0  0  0  0
   -1.7100    1.3578   -0.7505 H   0  0  0  0  0  0  0  0  0  0  0  0
   -0.0732    2.4370    0.1250 C   0  0  0  0  0  0  0  0  0  0  0  0
   -0.1661    3.2811   -0.5583 H   0  0  0  0  0  0  0  0  0  0  0  0
   -0.7731    2.7833    1.4424 C   0  0  0  0  0  0  0  0  0  0  0  0
   -0.7025    1.9410    2.1320 H   0  0  0  0  0  0  0  0  0  0  0  0
   -0.2968    3.6541    1.8934 H   0  0  0  0  0  0  0  0  0  0  0  0
   -1.8220    3.0151    1.2707 H   0  0  0  0  0  0  0  0  0  0  0  0
    1.4118    2.2280    0.4195 C   0  0  0  0  0  0  0  0  0  0  0  0
    1.9424    2.0109   -0.5075 H   0  0  0  0  0  0  0  0  0  0  0  0
    1.8337    3.1326    0.8576 H   0  0  0  0  0  0  0  0  0  0  0  0
    1.5439    1.3969    1.1130 H   0  0  0  0  0  0  0  0  0  0  0  0
   -0.1913    0.1554    1.7759 C   0  0  0  0  0  0  0  0  0  0  0  0
    0.9476   -0.0766    2.1748 O   0  0  0  0  0  0  0  0  0  0  0  0
   -1.1502    0.6393    2.5760 N   0  0  0  0  0  0  0  0  0  0  0  0
   -2.0581    0.8092    2.1736 H   0  0  0  0  0  0  0  0  0  0  0  0
   -0.9568    0.9369    3.9933 C   0  0  0  0  0  0  0  0  0  0  0  0
   -0.1600    1.6750    4.1097 H   0  0  0  0  0  0  0  0  0  0  0  0
   -1.8775    1.3307    4.4266 H   0  0  0  0  0  0  0  0  0  0  0  0
   -0.6678    0.0287    4.5244 H   0  0  0  0  0  0  0  0  0  0  0  0
  5  6  2  0  0  0  0
  5  7  1  0  0  0  0
  2  3  1  0  0  0  0
  2  4  1  0  0  0  0
  2  5  1  0  0  0  0
  1  2  1  0  0  0  0
 24 25  2  0  0  0  0
 24 26  1  0  0  0  0
 20 21  1  0  0  0  0
 20 22  1  0  0  0  0
 20 23  1  0  0  0  0
 16 17  1  0  0  0  0
 16 18  1  0  0  0  0
 16 19  1  0  0  0  0
 14 15  1  0  0  0  0
 14 16  1  0  0  0  0
 14 20  1  0  0  0  0
 11 12  1  0  0  0  0
 11 13  1  0  0  0  0
 11 14  1  0  0  0  0
  9 10  1  0  0  0  0
  9 11  1  0  0  0  0
  9 24  1  0  0  0  0
  7  8  1  0  0  0  0
  7  9  1  0  0  0  0
 28 29  1  0  0  0  0
 28 30  1  0  0  0  0
 28 31  1  0  0  0  0
 26 27  1  0  0  0  0
 26 28  1  0  0  0  0
M  END
$$$$
default_name
  -OEChem-02102213163D

 31 30  0     1  0  0  0  0  0999 V2000
   -3.5895   -3.5013    1.1082 H   0  0  0  0  0  0  0  0  0  0  0  0
   -3.5145   -2.5363    0.6082 C   0  0  0  0  0  0  0  0  0  0  0  0
   -4.2285   -1.8413    1.0452 H   0  0  0  0  0  0  0  0  0  0  0  0
   -3.7155   -2.6583   -0.4538 H   0  0  0  0  0  0  0  0  0  0  0  0
   -2.1155   -1.9963    0.7922 C   0  0  0  0  0  0  0  0  0  0  0  0
   -1.2875   -2.6383    1.4252 O   0  0  0  0  0  0  0  0  0  0  0  0
   -1.8575   -0.8123    0.2402 N   0  0  0  0  0  0  0  0  0  0  0  0
   -2.6005   -0.3333   -0.2478 H   0  0  0  0  0  0  0  0  0  0  0  0
   -0.5675   -0.1203    0.3102 C   0  0  1  0  0  0  0  0  0  0  0  0
    0.1932   -0.7715   -0.1219 H   0  0  0  0  0  0  0  0  0  0  0  0
   -0.6568    1.1713   -0.5294 C   0  0  0  0  0  0  0  0  0  0  0  0
   -0.1439    1.0060   -1.4789 H   0  0  0  0  0  0  0  0  0  0  0  0
   -1.7100    1.3578   -0.7505 H   0  0  0  0  0  0  0  0  0  0  0  0
   -0.0732    2.4370    0.1250 C   0  0  0  0  0  0  0  0  0  0  0  0
   -0.3965    3.3194   -0.4271 H   0  0  0  0  0  0  0  0  0  0  0  0
   -0.4996    2.5814    1.5888 C   0  0  0  0  0  0  0  0  0  0  0  0
   -0.1969    1.6975    2.1519 H   0  0  0  0  0  0  0  0  0  0  0  0
   -0.0253    3.4612    2.0242 H   0  0  0  0  0  0  0  0  0  0  0  0
   -1.5784    2.6990    1.6648 H   0  0  0  0  0  0  0  0  0  0  0  0
    1.4535    2.3841    0.0805 C   0  0  0  0  0  0  0  0  0  0  0  0
    1.7879    2.3132   -0.9544 H   0  0  0  0  0  0  0  0  0  0  0  0
    1.8688    3.2918    0.5184 H   0  0  0  0  0  0  0  0  0  0  0  0
    1.8157    1.5183    0.6359 H   0  0  0  0  0  0  0  0  0  0  0  0
   -0.1913    0.1554    1.7759 C   0  0  0  0  0  0  0  0  0  0  0  0
    0.9476   -0.0766    2.1748 O   0  0  0  0  0  0  0  0  0  0  0  0
   -1.1502    0.6393    2.5760 N   0  0  0  0  0  0  0  0  0  0  0  0
   -2.0581    0.8092    2.1736 H   0  0  0  0  0  0  0  0  0  0  0  0
   -0.9568    0.9369    3.9933 C   0  0  0  0  0  0  0  0  0  0  0  0
   -0.1600    1.6750    4.1097 H   0  0  0  0  0  0  0  0  0  0  0  0
   -1.8775    1.3307    4.4266 H   0  0  0  0  0  0  0  0  0  0  0  0
   -0.6678    0.0287    4.5244 H   0  0  0  0  0  0  0  0  0  0  0  0
  5  6  2  0  0  0  0
  5  7  1  0  0  0  0
  2  3  1  0  0  0  0
  2  4  1  0  0  0  0
  2  5  1  0  0  0  0
  1  2  1  0  0  0  0
 24 25  2  0  0  0  0
 24 26  1  0  0  0  0
 20 21  1  0  0  0  0
 20 22  1  0  0  0  0
 20 23  1  0  0  0  0
 16 17  1  0  0  0  0
 16 18  1  0  0  0  0
 16 19  1  0  0  0  0
 14 15  1  0  0  0  0
 14 16  1  0  0  0  0
 14 20  1  0  0  0  0
 11 12  1  0  0  0  0
 11 13  1  0  0  0  0
 11 14  1  0  0  0  0
  9 10  1  0  0  0  0
  9 11  1  0  0  0  0
  9 24  1  0  0  0  0
  7  8  1  0  0  0  0
  7  9  1  0  0  0  0
 28 29  1  0  0  0  0
 28 30  1  0  0  0  0
 28 31  1  0  0  0  0
 26 27  1  0  0  0  0
 26 28  1  0  0  0  0
M  END
$$$$
default_name
  -OEChem-02102213163D

 31 30  0     1  0  0  0  0  0999 V2000
   -3.5895   -3.5013    1.1082 H   0  0  0  0  0  0  0  0  0  0  0  0
   -3.5145   -2.5363    0.6082 C   0  0  0  0  0  0  0  0  0  0  0  0
   -4.2285   -1.8413    1.0452 H   0  0  0  0  0  0  0  0  0  0  0  0
   -3.7155   -2.6583   -0.4538 H   0  0  0  0  0  0  0  0  0  0  0  0
   -2.1155   -1.9963    0.7922 C   0  0  0  0  0  0  0  0  0  0  0  0
   -1.2875   -2.6383    1.4252 O   0  0  0  0  0  0  0  0  0  0  0  0
   -1.8575   -0.8123    0.2402 N   0  0  0  0  0  0  0  0  0  0  0  0
   -2.6005   -0.3333   -0.2478 H   0  0  0  0  0  0  0  0  0  0  0  0
   -0.5675   -0.1203    0.3102 C   0  0  1  0  0  0  0  0  0  0  0  0
    0.1932   -0.7715   -0.1219 H   0  0  0  0  0  0  0  0  0  0  0  0
   -0.6568    1.1713   -0.5294 C   0  0  0  0  0  0  0  0  0  0  0  0
   -0.1439    1.0060   -1.4789 H   0  0  0  0  0  0  0  0  0  0  0  0
   -1.7100    1.3578   -0.7505 H   0  0  0  0  0  0  0  0  0  0  0  0
   -0.0732    2.4370    0.1250 C   0  0  0  0  0  0  0  0  0  0  0  0
   -0.5952    3.3182   -0.2476 H   0  0  0  0  0  0  0  0  0  0  0  0
   -0.1821    2.4022    1.6522 C   0  0  0  0  0  0  0  0  0  0  0  0
    0.3225    1.5161    2.0396 H   0  0  0  0  0  0  0  0  0  0  0  0
    0.2860    3.2920    2.0740 H   0  0  0  0  0  0  0  0  0  0  0  0
   -1.2245    2.3818    1.9626 H   0  0  0  0  0  0  0  0  0  0  0  0
    1.4045    2.5727   -0.2405 C   0  0  0  0  0  0  0  0  0  0  0  0
    1.5103    2.6321   -1.3236 H   0  0  0  0  0  0  0  0  0  0  0  0
    1.8130    3.4827    0.1990 H   0  0  0  0  0  0  0  0  0  0  0  0
    1.9634    1.7122    0.1291 H   0  0  0  0  0  0  0  0  0  0  0  0
   -0.1913    0.1554    1.7759 C   0  0  0  0  0  0  0  0  0  0  0  0
    0.9476   -0.0766    2.1748 O   0  0  0  0  0  0  0  0  0  0  0  0
   -1.1502    0.6393    2.5760 N   0  0  0  0  0  0  0  0  0  0  0  0
   -2.0581    0.8092    2.1736 H   0  0  0  0  0  0  0  0  0  0  0  0
   -0.9568    0.9369    3.9933 C   0  0  0  0  0  0  0  0  0  0  0  0
   -0.1600    1.6750    4.1097 H   0  0  0  0  0  0  0  0  0  0  0  0
   -1.8775    1.3307    4.4266 H   0  0  0  0  0  0  0  0  0  0  0  0
   -0.6678    0.0287    4.5244 H   0  0  0  0  0  0  0  0  0  0  0  0
  5  6  2  0  0  0  0
  5  7  1  0  0  0  0
  2  3  1  0  0  0  0
  2  4  1  0  0  0  0
  2  5  1  0  0  0  0
  1  2  1  0  0  0  0
 24 25  2  0  0  0  0
 24 26  1  0  0  0  0
 20 21  1  0  0  0  0
 20 22  1  0  0  0  0
 20 23  1  0  0  0  0
 16 17  1  0  0  0  0
 16 18  1  0  0  0  0
 16 19  1  0  0  0  0
 14 15  1  0  0  0  0
 14 16  1  0  0  0  0
 14 20  1  0  0  0  0
 11 12  1  0  0  0  0
 11 13  1  0  0  0  0
 11 14  1  0  0  0  0
  9 10  1  0  0  0  0
  9 11  1  0  0  0  0
  9 24  1  0  0  0  0
  7  8  1  0  0  0  0
  7  9  1  0  0  0  0
 28 29  1  0  0  0  0
 28 30  1  0  0  0  0
 28 31  1  0  0  0  0
 26 27  1  0  0  0  0
 26 28  1  0  0  0  0
M  END
$$$$
default_name
  -OEChem-02102213163D

 31 30  0     1  0  0  0  0  0999 V2000
   -3.5895   -3.5013    1.1082 H   0  0  0  0  0  0  0  0  0  0  0  0
   -3.5145   -2.5363    0.6082 C   0  0  0  0  0  0  0  0  0  0  0  0
   -4.2285   -1.8413    1.0452 H   0  0  0  0  0  0  0  0  0  0  0  0
   -3.7155   -2.6583   -0.4538 H   0  0  0  0  0  0  0  0  0  0  0  0
   -2.1155   -1.9963    0.7922 C   0  0  0  0  0  0  0  0  0  0  0  0
   -1.2875   -2.6383    1.4252 O   0  0  0  0  0  0  0  0  0  0  0  0
   -1.8575   -0.8123    0.2402 N   0  0  0  0  0  0  0  0  0  0  0  0
   -2.6005   -0.3333   -0.2478 H   0  0  0  0  0  0  0  0  0  0  0  0
   -0.5675   -0.1203    0.3102 C   0  0  1  0  0  0  0  0  0  0  0  0
    0.1932   -0.7715   -0.1219 H   0  0  0  0  0  0  0  0  0  0  0  0
   -0.6568    1.1713   -0.5294 C   0  0  0  0  0  0  0  0  0  0  0  0
   -0.1439    1.0060   -1.4789 H   0  0  0  0  0  0  0  0  0  0  0  0
   -1.7100    1.3578   -0.7505 H   0  0  0  0  0  0  0  0  0  0  0  0
   -0.0732    2.4370    0.1250 C   0  0  0  0  0  0  0  0  0  0  0  0
   -0.7489    3.2777   -0.0321 H   0  0  0  0  0  0  0  0  0  0  0  0
    0.1578    2.2579    1.6283 C   0  0  0  0  0  0  0  0  0  0  0  0
    0.8203    1.4090    1.8028 H   0  0  0  0  0  0  0  0  0  0  0  0
    0.6158    3.1579    2.0392 H   0  0  0  0  0  0  0  0  0  0  0  0
   -0.7844    2.0851    2.1439 H   0  0  0  0  0  0  0  0  0  0  0  0
    1.2681    2.7809   -0.5216 C   0  0  0  0  0  0  0  0  0  0  0  0
    1.1286    2.9458   -1.5899 H   0  0  0  0  0  0  0  0  0  0  0  0
    1.6702    3.6923   -0.0790 H   0  0  0  0  0  0  0  0  0  0  0  0
    1.9769    1.9656   -0.3728 H   0  0  0  0  0  0  0  0  0  0  0  0
   -0.1913    0.1554    1.7759 C   0  0  0  0  0  0  0  0  0  0  0  0
    0.9476   -0.0766    2.1748 O   0  0  0  0  0  0  0  0  0  0  0  0
   -1.1502    0.6393    2.5760 N   0  0  0  0  0  0  0  0  0  0  0  0
   -2.0581    0.8092    2.1736 H   0  0  0  0  0  0  0  0  0  0  0  0
   -0.9568    0.9369    3.9933 C   0  0  0  0  0  0  0  0  0  0  0  0
   -0.1600    1.6750    4.1097 H   0  0  0  0  0  0  0  0  0  0  0  0
   -1.8775    1.3307    4.4266 H   0  0  0  0  0  0  0  0  0  0  0  0
   -0.6678    0.0287    4.5244 H   0  0  0  0  0  0  0  0  0  0  0  0
  5  6  2  0  0  0  0
  5  7  1  0  0  0  0
  2  3  1  0  0  0  0
  2  4  1  0  0  0  0
  2  5  1  0  0  0  0
  1  2  1  0  0  0  0
 24 25  2  0  0  0  0
 24 26  1  0  0  0  0
 20 21  1  0  0  0  0
 20 22  1  0  0  0  0
 20 23  1  0  0  0  0
 16 17  1  0  0  0  0
 16 18  1  0  0  0  0
 16 19  1  0  0  0  0
 14 15  1  0  0  0  0
 14 16  1  0  0  0  0
 14 20  1  0  0  0  0
 11 12  1  0  0  0  0
 11 13  1  0  0  0  0
 11 14  1  0  0  0  0
  9 10  1  0  0  0  0
  9 11  1  0  0  0  0
  9 24  1  0  0  0  0
  7  8  1  0  0  0  0
  7  9  1  0  0  0  0
 28 29  1  0  0  0  0
 28 30  1  0  0  0  0
 28 31  1  0  0  0  0
 26 27  1  0  0  0  0
 26 28  1  0  0  0  0
M  END
$$$$
default_name
  -OEChem-02102213163D

 31 30  0     1  0  0  0  0  0999 V2000
   -3.5895   -3.5013    1.1082 H   0  0  0  0  0  0  0  0  0  0  0  0
   -3.5145   -2.5363    0.6082 C   0  0  0  0  0  0  0  0  0  0  0  0
   -4.2285   -1.8413    1.0452 H   0  0  0  0  0  0  0  0  0  0  0  0
   -3.7155   -2.6583   -0.4538 H   0  0  0  0  0  0  0  0  0  0  0  0
   -2.1155   -1.9963    0.7922 C   0  0  0  0  0  0  0  0  0  0  0  0
   -1.2875   -2.6383    1.4252 O   0  0  0  0  0  0  0  0  0  0  0  0
   -1.8575   -0.8123    0.2402 N   0  0  0  0  0  0  0  0  0  0  0  0
   -2.6005   -0.3333   -0.2478 H   0  0  0  0  0  0  0  0  0  0  0  0
   -0.5675   -0.1203    0.3102 C   0  0  1  0  0  0  0  0  0  0  0  0
    0.1932   -0.7715   -0.1219 H   0  0  0  0  0  0  0  0  0  0  0  0
   -0.6568    1.1713   -0.5294 C   0  0  0  0  0  0  0  0  0  0  0  0
   -0.1439    1.0060   -1.4789 H   0  0  0  0  0  0  0  0  0  0  0  0
   -1.7100    1.3578   -0.7505 H   0  0  0  0  0  0  0  0  0  0  0  0
   -0.0732    2.4370    0.1250 C   0  0  0  0  0  0  0  0  0  0  0  0
   -0.8471    3.2004    0.2049 H   0  0  0  0  0  0  0  0  0  0  0  0
    0.4970    2.1581    1.5188 C   0  0  0  0  0  0  0  0  0  0  0  0
    1.2626    1.3835    1.4577 H   0  0  0  0  0  0  0  0  0  0  0  0
    0.9418    3.0680    1.9222 H   0  0  0  0  0  0  0  0  0  0  0  0
   -0.2881    1.8292    2.1962 H   0  0  0  0  0  0  0  0  0  0  0  0
    1.0537    2.9947   -0.7437 C   0  0  0  0  0  0  0  0  0  0  0  0
    0.6687    3.2330   -1.7351 H   0  0  0  0  0  0  0  0  0  0  0  0
    1.4500    3.9063   -0.2965 H   0  0  0  0  0  0  0  0  0  0  0  0
    1.8553    2.2610   -0.8357 H   0  0  0  0  0  0  0  0  0  0  0  0
   -0.1913    0.1554    1.7759 C   0  0  0  0  0  0  0  0  0  0  0  0
    0.9476   -0.0766    2.1748 O   0  0  0  0  0  0  0  0  0  0  0  0
   -1.1502    0.6393    2.5760 N   0  0  0  0  0  0  0  0  0  0  0  0
   -2.0581    0.8092    2.1736 H   0  0  0  0  0  0  0  0  0  0  0  0
   -0.9568    0.9369    3.9933 C   0  0  0  0  0  0  0  0  0  0  0  0
   -0.1600    1.6750    4.1097 H   0  0  0  0  0  0  0  0  0  0  0  0
   -1.8775    1.3307    4.4266 H   0  0  0  0  0  0  0  0  0  0  0  0
   -0.6678    0.0287    4.5244 H   0  0  0  0  0  0  0  0  0  0  0  0
  5  6  2  0  0  0  0
  5  7  1  0  0  0  0
  2  3  1  0  0  0  0
  2  4  1  0  0  0  0
  2  5  1  0  0  0  0
  1  2  1  0  0  0  0
 24 25  2  0  0  0  0
 24 26  1  0  0  0  0
 20 21  1  0  0  0  0
 20 22  1  0  0  0  0
 20 23  1  0  0  0  0
 16 17  1  0  0  0  0
 16 18  1  0  0  0  0
 16 19  1  0  0  0  0
 14 15  1  0  0  0  0
 14 16  1  0  0  0  0
 14 20  1  0  0  0  0
 11 12  1  0  0  0  0
 11 13  1  0  0  0  0
 11 14  1  0  0  0  0
  9 10  1  0  0  0  0
  9 11  1  0  0  0  0
  9 24  1  0  0  0  0
  7  8  1  0  0  0  0
  7  9  1  0  0  0  0
 28 29  1  0  0  0  0
 28 30  1  0  0  0  0
 28 31  1  0  0  0  0
 26 27  1  0  0  0  0
 26 28  1  0  0  0  0
M  END
$$$$
default_name
  -OEChem-02102213163D

 31 30  0     1  0  0  0  0  0999 V2000
   -3.5895   -3.5013    1.1082 H   0  0  0  0  0  0  0  0  0  0  0  0
   -3.5145   -2.5363    0.6082 C   0  0  0  0  0  0  0  0  0  0  0  0
   -4.2285   -1.8413    1.0452 H   0  0  0  0  0  0  0  0  0  0  0  0
   -3.7155   -2.6583   -0.4538 H   0  0  0  0  0  0  0  0  0  0  0  0
   -2.1155   -1.9963    0.7922 C   0  0  0  0  0  0  0  0  0  0  0  0
   -1.2875   -2.6383    1.4252 O   0  0  0  0  0  0  0  0  0  0  0  0
   -1.8575   -0.8123    0.2402 N   0  0  0  0  0  0  0  0  0  0  0  0
   -2.6005   -0.3333   -0.2478 H   0  0  0  0  0  0  0  0  0  0  0  0
   -0.5675   -0.1203    0.3102 C   0  0  1  0  0  0  0  0  0  0  0  0
    0.1932   -0.7715   -0.1219 H   0  0  0  0  0  0  0  0  0  0  0  0
   -0.6568    1.1713   -0.5294 C   0  0  0  0  0  0  0  0  0  0  0  0
   -0.1439    1.0060   -1.4789 H   0  0  0  0  0  0  0  0  0  0  0  0
   -1.7100    1.3578   -0.7505 H   0  0  0  0  0  0  0  0  0  0  0  0
   -0.0732    2.4370    0.1250 C   0  0  0  0  0  0  0  0  0  0  0  0
   -0.8829    3.0917    0.4470 H   0  0  0  0  0  0  0  0  0  0  0  0
    0.8122    2.1099    1.3310 C   0  0  0  0  0  0  0  0  0  0  0  0
    1.6192    1.4414    1.0278 H   0  0  0  0  0  0  0  0  0  0  0  0
    1.2417    3.0286    1.7311 H   0  0  0  0  0  0  0  0  0  0  0  0
    0.2306    1.6315    2.1161 H   0  0  0  0  0  0  0  0  0  0  0  0
    0.7758    3.1993   -0.8916 C   0  0  0  0  0  0  0  0  0  0  0  0
    0.1619    3.4740   -1.7494 H   0  0  0  0  0  0  0  0  0  0  0  0
    1.1675    4.1101   -0.4388 H   0  0  0  0  0  0  0  0  0  0  0  0
    1.6068    2.5784   -1.2279 H   0  0  0  0  0  0  0  0  0  0  0  0
   -0.1913    0.1554    1.7759 C   0  0  0  0  0  0  0  0  0  0  0  0
    0.9476   -0.0766    2.1748 O   0  0  0  0  0  0  0  0  0  0  0  0
   -1.1502    0.6393    2.5760 N   0  0  0  0  0  0  0  0  0  0  0  0
   -2.0581    0.8092    2.1736 H   0  0  0  0  0  0  0  0  0  0  0  0
   -0.9568    0.9369    3.9933 C   0  0  0  0  0  0  0  0  0  0  0  0
   -0.1600    1.6750    4.1097 H   0  0  0  0  0  0  0  0  0  0  0  0
   -1.8775    1.3307    4.4266 H   0  0  0  0  0  0  0  0  0  0  0  0
   -0.6678    0.0287    4.5244 H   0  0  0  0  0  0  0  0  0  0  0  0
  5  6  2  0  0  0  0
  5  7  1  0  0  0  0
  2  3  1  0  0  0  0
  2  4  1  0  0  0  0
  2  5  1  0  0  0  0
  1  2  1  0  0  0  0
 24 25  2  0  0  0  0
 24 26  1  0  0  0  0
 20 21  1  0  0  0  0
 20 22  1  0  0  0  0
 20 23  1  0  0  0  0
 16 17  1  0  0  0  0
 16 18  1  0  0  0  0
 16 19  1  0  0  0  0
 14 15  1  0  0  0  0
 14 16  1  0  0  0  0
 14 20  1  0  0  0  0
 11 12  1  0  0  0  0
 11 13  1  0  0  0  0
 11 14  1  0  0  0  0
  9 10  1  0  0  0  0
  9 11  1  0  0  0  0
  9 24  1  0  0  0  0
  7  8  1  0  0  0  0
  7  9  1  0  0  0  0
 28 29  1  0  0  0  0
 28 30  1  0  0  0  0
 28 31  1  0  0  0  0
 26 27  1  0  0  0  0
 26 28  1  0  0  0  0
M  END
$$$$
default_name
  -OEChem-02102213163D

 31 30  0     1  0  0  0  0  0999 V2000
   -3.5895   -3.5013    1.1082 H   0  0  0  0  0  0  0  0  0  0  0  0
   -3.5145   -2.5363    0.6082 C   0  0  0  0  0  0  0  0  0  0  0  0
   -4.2285   -1.8413    1.0452 H   0  0  0  0  0  0  0  0  0  0  0  0
   -3.7155   -2.6583   -0.4538 H   0  0  0  0  0  0  0  0  0  0  0  0
   -2.1155   -1.9963    0.7922 C   0  0  0  0  0  0  0  0  0  0  0  0
   -1.2875   -2.6383    1.4252 O   0  0  0  0  0  0  0  0  0  0  0  0
   -1.8575   -0.8123    0.2402 N   0  0  0  0  0  0  0  0  0  0  0  0
   -2.6005   -0.3333   -0.2478 H   0  0  0  0  0  0  0  0  0  0  0  0
   -0.5675   -0.1203    0.3102 C   0  0  1  0  0  0  0  0  0  0  0  0
    0.1932   -0.7715   -0.1219 H   0  0  0  0  0  0  0  0  0  0  0  0
   -0.6568    1.1713   -0.5294 C   0  0  0  0  0  0  0  0  0  0  0  0
   -0.1439    1.0060   -1.4789 H   0  0  0  0  0  0  0  0  0  0  0  0
   -1.7100    1.3578   -0.7505 H   0  0  0  0  0  0  0  0  0  0  0  0
   -0.0732    2.4370    0.1250 C   0  0  0  0  0  0  0  0  0  0  0  0
   -0.8541    2.9590    0.6779 H   0  0  0  0  0  0  0  0  0  0  0  0
    1.0821    2.1163    1.0779 C   0  0  0  0  0  0  0  0  0  0  0  0
    1.8658    1.5787    0.5423 H   0  0  0  0  0  0  0  0  0  0  0  0
    1.4950    3.0422    1.4789 H   0  0  0  0  0  0  0  0  0  0  0  0
    0.7363    1.5054    1.9089 H   0  0  0  0  0  0  0  0  0  0  0  0
    0.4534    3.3809   -0.9553 C   0  0  0  0  0  0  0  0  0  0  0  0
   -0.3571    3.6525   -1.6317 H   0  0  0  0  0  0  0  0  0  0  0  0
    0.8420    4.2899   -0.4961 H   0  0  0  0  0  0  0  0  0  0  0  0
    1.2485    2.8961   -1.5228 H   0  0  0  0  0  0  0  0  0  0  0  0
   -0.1913    0.1554    1.7759 C   0  0  0  0  0  0  0  0  0  0  0  0
    0.9476   -0.0766    2.1748 O   0  0  0  0  0  0  0  0  0  0  0  0
   -1.1502    0.6393    2.5760 N   0  0  0  0  0  0  0  0  0  0  0  0
   -2.0581    0.8092    2.1736 H   0  0  0  0  0  0  0  0  0  0  0  0
   -0.9568    0.9369    3.9933 C   0  0  0  0  0  0  0  0  0  0  0  0
   -0.1600    1.6750    4.1097 H   0  0  0  0  0  0  0  0  0  0  0  0
   -1.8775    1.3307    4.4266 H   0  0  0  0  0  0  0  0  0  0  0  0
   -0.6678    0.0287    4.5244 H   0  0  0  0  0  0  0  0  0  0  0  0
  5  6  2  0  0  0  0
  5  7  1  0  0  0  0
  2  3  1  0  0  0  0
  2  4  1  0  0  0  0
  2  5  1  0  0  0  0
  1  2  1  0  0  0  0
 24 25  2  0  0  0  0
 24 26  1  0  0  0  0
 20 21  1  0  0  0  0
 20 22  1  0  0  0  0
 20 23  1  0  0  0  0
 16 17  1  0  0  0  0
 16 18  1  0  0  0  0
 16 19  1  0  0  0  0
 14 15  1  0  0  0  0
 14 16  1  0  0  0  0
 14 20  1  0  0  0  0
 11 12  1  0  0  0  0
 11 13  1  0  0  0  0
 11 14  1  0  0  0  0
  9 10  1  0  0  0  0
  9 11  1  0  0  0  0
  9 24  1  0  0  0  0
  7  8  1  0  0  0  0
  7  9  1  0  0  0  0
 28 29  1  0  0  0  0
 28 30  1  0  0  0  0
 28 31  1  0  0  0  0
 26 27  1  0  0  0  0
 26 28  1  0  0  0  0
M  END
$$$$
default_name
  -OEChem-02102213163D

 31 30  0     1  0  0  0  0  0999 V2000
   -3.5895   -3.5013    1.1082 H   0  0  0  0  0  0  0  0  0  0  0  0
   -3.5145   -2.5363    0.6082 C   0  0  0  0  0  0  0  0  0  0  0  0
   -4.2285   -1.8413    1.0452 H   0  0  0  0  0  0  0  0  0  0  0  0
   -3.7155   -2.6583   -0.4538 H   0  0  0  0  0  0  0  0  0  0  0  0
   -2.1155   -1.9963    0.7922 C   0  0  0  0  0  0  0  0  0  0  0  0
   -1.2875   -2.6383    1.4252 O   0  0  0  0  0  0  0  0  0  0  0  0
   -1.8575   -0.8123    0.2402 N   0  0  0  0  0  0  0  0  0  0  0  0
   -2.6005   -0.3333   -0.2478 H   0  0  0  0  0  0  0  0  0  0  0  0
   -0.5675   -0.1203    0.3102 C   0  0  1  0  0  0  0  0  0  0  0  0
    0.1932   -0.7715   -0.1219 H   0  0  0  0  0  0  0  0  0  0  0  0
   -0.6568    1.1713   -0.5294 C   0  0  0  0  0  0  0  0  0  0  0  0
   -0.1439    1.0060   -1.4789 H   0  0  0  0  0  0  0  0  0  0  0  0
   -1.7100    1.3578   -0.7505 H   0  0  0  0  0  0  0  0  0  0  0  0
   -0.0732    2.4370    0.1250 C   0  0  0  0  0  0  0  0  0  0  0  0
   -0.7626    2.8114    0.8817 H   0  0  0  0  0  0  0  0  0  0  0  0
    1.2882    2.1771    0.7766 C   0  0  0  0  0  0  0  0  0  0  0  0
    1.9855    1.7862    0.0344 H   0  0  0  0  0  0  0  0  0  0  0  0
    1.6845    3.1080    1.1826 H   0  0  0  0  0  0  0  0  0  0  0  0
    1.1946    1.4596    1.5889 H   0  0  0  0  0  0  0  0  0  0  0  0
    0.1084    3.5271   -0.9304 C   0  0  0  0  0  0  0  0  0  0  0  0
   -0.8530    3.7562   -1.3901 H   0  0  0  0  0  0  0  0  0  0  0  0
    0.4955    4.4333   -0.4646 H   0  0  0  0  0  0  0  0  0  0  0  0
    0.8047    3.1924   -1.7002 H   0  0  0  0  0  0  0  0  0  0  0  0
   -0.1913    0.1554    1.7759 C   0  0  0  0  0  0  0  0  0  0  0  0
    0.9476   -0.0766    2.1748 O   0  0  0  0  0  0  0  0  0  0  0  0
   -1.1502    0.6393    2.5760 N   0  0  0  0  0  0  0  0  0  0  0  0
   -2.0581    0.8092    2.1736 H   0  0  0  0  0  0  0  0  0  0  0  0
   -0.9568    0.9369    3.9933 C   0  0  0  0  0  0  0  0  0  0  0  0
   -0.1600    1.6750    4.1097 H   0  0  0  0  0  0  0  0  0  0  0  0
   -1.8775    1.3307    4.4266 H   0  0  0  0  0  0  0  0  0  0  0  0
   -0.6678    0.0287    4.5244 H   0  0  0  0  0  0  0  0  0  0  0  0
  5  6  2  0  0  0  0
  5  7  1  0  0  0  0
  2  3  1  0  0  0  0
  2  4  1  0  0  0  0
  2  5  1  0  0  0  0
  1  2  1  0  0  0  0
 24 25  2  0  0  0  0
 24 26  1  0  0  0  0
 20 21  1  0  0  0  0
 20 22  1  0  0  0  0
 20 23  1  0  0  0  0
 16 17  1  0  0  0  0
 16 18  1  0  0  0  0
 16 19  1  0  0  0  0
 14 15  1  0  0  0  0
 14 16  1  0  0  0  0
 14 20  1  0  0  0  0
 11 12  1  0  0  0  0
 11 13  1  0  0  0  0
 11 14  1  0  0  0  0
  9 10  1  0  0  0  0
  9 11  1  0  0  0  0
  9 24  1  0  0  0  0
  7  8  1  0  0  0  0
  7  9  1  0  0  0  0
 28 29  1  0  0  0  0
 28 30  1  0  0  0  0
 28 31  1  0  0  0  0
 26 27  1  0  0  0  0
 26 28  1  0  0  0  0
M  END
$$$$
default_name
  -OEChem-02102213163D

 31 30  0     1  0  0  0  0  0999 V2000
   -3.5895   -3.5013    1.1082 H   0  0  0  0  0  0  0  0  0  0  0  0
   -3.5145   -2.5363    0.6082 C   0  0  0  0  0  0  0  0  0  0  0  0
   -4.2285   -1.8413    1.0452 H   0  0  0  0  0  0  0  0  0  0  0  0
   -3.7155   -2.6583   -0.4538 H   0  0  0  0  0  0  0  0  0  0  0  0
   -2.1155   -1.9963    0.7922 C   0  0  0  0  0  0  0  0  0  0  0  0
   -1.2875   -2.6383    1.4252 O   0  0  0  0  0  0  0  0  0  0  0  0
   -1.8575   -0.8123    0.2402 N   0  0  0  0  0  0  0  0  0  0  0  0
   -2.6005   -0.3333   -0.2478 H   0  0  0  0  0  0  0  0  0  0  0  0
   -0.5675   -0.1203    0.3102 C   0  0  1  0  0  0  0  0  0  0  0  0
    0.1932   -0.7715   -0.1219 H   0  0  0  0  0  0  0  0  0  0  0  0
   -0.6568    1.1713   -0.5294 C   0  0  0  0  0  0  0  0  0  0  0  0
   -0.1439    1.0060   -1.4789 H   0  0  0  0  0  0  0  0  0  0  0  0
   -1.7100    1.3578   -0.7505 H   0  0  0  0  0  0  0  0  0  0  0  0
   -0.0732    2.4370    0.1250 C   0  0  0  0  0  0  0  0  0  0  0  0
   -0.6145    2.6589    1.0447 H   0  0  0  0  0  0  0  0  0  0  0  0
    1.4165    2.2880    0.4477 C   0  0  0  0  0  0  0  0  0  0  0  0
    1.9704    2.0495   -0.4613 H   0  0  0  0  0  0  0  0  0  0  0  0
    1.7974    3.2215    0.8626 H   0  0  0  0  0  0  0  0  0  0  0  0
    1.5742    1.4971    1.1778 H   0  0  0  0  0  0  0  0  0  0  0  0
   -0.2356    3.6279   -0.8187 C   0  0  0  0  0  0  0  0  0  0  0  0
   -1.2920    3.7782   -1.0410 H   0  0  0  0  0  0  0  0  0  0  0  0
    0.1518    4.5307   -0.3464 H   0  0  0  0  0  0  0  0  0  0  0  0
    0.3057    3.4473   -1.7481 H   0  0  0  0  0  0  0  0  0  0  0  0
   -0.1913    0.1554    1.7759 C   0  0  0  0  0  0  0  0  0  0  0  0
    0.9476   -0.0766    2.1748 O   0  0  0  0  0  0  0  0  0  0  0  0
   -1.1502    0.6393    2.5760 N   0  0  0  0  0  0  0  0  0  0  0  0
   -2.0581    0.8092    2.1736 H   0  0  0  0  0  0  0  0  0  0  0  0
   -0.9568    0.9369    3.9933 C   0  0  0  0  0  0  0  0  0  0  0  0
   -0.1600    1.6750    4.1097 H   0  0  0  0  0  0  0  0  0  0  0  0
   -1.8775    1.3307    4.4266 H   0  0  0  0  0  0  0  0  0  0  0  0
   -0.6678    0.0287    4.5244 H   0  0  0  0  0  0  0  0  0  0  0  0
  5  6  2  0  0  0  0
  5  7  1  0  0  0  0
  2  3  1  0  0  0  0
  2  4  1  0  0  0  0
  2  5  1  0  0  0  0
  1  2  1  0  0  0  0
 24 25  2  0  0  0  0
 24 26  1  0  0  0  0
 20 21  1  0  0  0  0
 20 22  1  0  0  0  0
 20 23  1  0  0  0  0
 16 17  1  0  0  0  0
 16 18  1  0  0  0  0
 16 19  1  0  0  0  0
 14 15  1  0  0  0  0
 14 16  1  0  0  0  0
 14 20  1  0  0  0  0
 11 12  1  0  0  0  0
 11 13  1  0  0  0  0
 11 14  1  0  0  0  0
  9 10  1  0  0  0  0
  9 11  1  0  0  0  0
  9 24  1  0  0  0  0
  7  8  1  0  0  0  0
  7  9  1  0  0  0  0
 28 29  1  0  0  0  0
 28 30  1  0  0  0  0
 28 31  1  0  0  0  0
 26 27  1  0  0  0  0
 26 28  1  0  0  0  0
M  END
$$$$
default_name
  -OEChem-02102213163D

 31 30  0     1  0  0  0  0  0999 V2000
   -3.5895   -3.5013    1.1082 H   0  0  0  0  0  0  0  0  0  0  0  0
   -3.5145   -2.5363    0.6082 C   0  0  0  0  0  0  0  0  0  0  0  0
   -4.2285   -1.8413    1.0452 H   0  0  0  0  0  0  0  0  0  0  0  0
   -3.7155   -2.6583   -0.4538 H   0  0  0  0  0  0  0  0  0  0  0  0
   -2.1155   -1.9963    0.7922 C   0  0  0  0  0  0  0  0  0  0  0  0
   -1.2875   -2.6383    1.4252 O   0  0  0  0  0  0  0  0  0  0  0  0
   -1.8575   -0.8123    0.2402 N   0  0  0  0  0  0  0  0  0  0  0  0
   -2.6005   -0.3333   -0.2478 H   0  0  0  0  0  0  0  0  0  0  0  0
   -0.5675   -0.1203    0.3102 C   0  0  1  0  0  0  0  0  0  0  0  0
    0.1932   -0.7715   -0.1219 H   0  0  0  0  0  0  0  0  0  0  0  0
   -0.6568    1.1713   -0.5294 C   0  0  0  0  0  0  0  0  0  0  0  0
   -0.1439    1.0060   -1.4789 H   0  0  0  0  0  0  0  0  0  0  0  0
   -1.7100    1.3578   -0.7505 H   0  0  0  0  0  0  0  0  0  0  0  0
   -0.0732    2.4370    0.1250 C   0  0  0  0  0  0  0  0  0  0  0  0
   -0.4201    2.5119    1.1556 H   0  0  0  0  0  0  0  0  0  0  0  0
    1.4582    2.4415    0.1135 C   0  0  0  0  0  0  0  0  0  0  0  0
    1.8213    2.3508   -0.9111 H   0  0  0  0  0  0  0  0  0  0  0  0
    1.8258    3.3749    0.5407 H   0  0  0  0  0  0  0  0  0  0  0  0
    1.8493    1.6155    0.7035 H   0  0  0  0  0  0  0  0  0  0  0  0
   -0.5552    3.6765   -0.6277 C   0  0  0  0  0  0  0  0  0  0  0  0
   -1.6442    3.7168   -0.6083 H   0  0  0  0  0  0  0  0  0  0  0  0
   -0.1658    4.5753   -0.1496 H   0  0  0  0  0  0  0  0  0  0  0  0
   -0.2146    3.6433   -1.6631 H   0  0  0  0  0  0  0  0  0  0  0  0
   -0.1913    0.1554    1.7759 C   0  0  0  0  0  0  0  0  0  0  0  0
    0.9476   -0.0766    2.1748 O   0  0  0  0  0  0  0  0  0  0  0  0
   -1.1502    0.6393    2.5760 N   0  0  0  0  0  0  0  0  0  0  0  0
   -2.0581    0.8092    2.1736 H   0  0  0  0  0  0  0  0  0  0  0  0
   -0.9568    0.9369    3.9933 C   0  0  0  0  0  0  0  0  0  0  0  0
   -0.1600    1.6750    4.1097 H   0  0  0  0  0  0  0  0  0  0  0  0
   -1.8775    1.3307    4.4266 H   0  0  0  0  0  0  0  0  0  0  0  0
   -0.6678    0.0287    4.5244 H   0  0  0  0  0  0  0  0  0  0  0  0
  5  6  2  0  0  0  0
  5  7  1  0  0  0  0
  2  3  1  0  0  0  0
  2  4  1  0  0  0  0
  2  5  1  0  0  0  0
  1  2  1  0  0  0  0
 24 25  2  0  0  0  0
 24 26  1  0  0  0  0
 20 21  1  0  0  0  0
 20 22  1  0  0  0  0
 20 23  1  0  0  0  0
 16 17  1  0  0  0  0
 16 18  1  0  0  0  0
 16 19  1  0  0  0  0
 14 15  1  0  0  0  0
 14 16  1  0  0  0  0
 14 20  1  0  0  0  0
 11 12  1  0  0  0  0
 11 13  1  0  0  0  0
 11 14  1  0  0  0  0
  9 10  1  0  0  0  0
  9 11  1  0  0  0  0
  9 24  1  0  0  0  0
  7  8  1  0  0  0  0
  7  9  1  0  0  0  0
 28 29  1  0  0  0  0
 28 30  1  0  0  0  0
 28 31  1  0  0  0  0
 26 27  1  0  0  0  0
 26 28  1  0  0  0  0
M  END
$$$$
default_name
  -OEChem-02102213163D

 31 30  0     1  0  0  0  0  0999 V2000
   -3.5895   -3.5013    1.1082 H   0  0  0  0  0  0  0  0  0  0  0  0
   -3.5145   -2.5363    0.6082 C   0  0  0  0  0  0  0  0  0  0  0  0
   -4.2285   -1.8413    1.0452 H   0  0  0  0  0  0  0  0  0  0  0  0
   -3.7155   -2.6583   -0.4538 H   0  0  0  0  0  0  0  0  0  0  0  0
   -2.1155   -1.9963    0.7922 C   0  0  0  0  0  0  0  0  0  0  0  0
   -1.2875   -2.6383    1.4252 O   0  0  0  0  0  0  0  0  0  0  0  0
   -1.8575   -0.8123    0.2402 N   0  0  0  0  0  0  0  0  0  0  0  0
   -2.6005   -0.3333   -0.2478 H   0  0  0  0  0  0  0  0  0  0  0  0
   -0.5675   -0.1203    0.3102 C   0  0  1  0  0  0  0  0  0  0  0  0
    0.1932   -0.7715   -0.1219 H   0  0  0  0  0  0  0  0  0  0  0  0
   -0.6568    1.1713   -0.5294 C   0  0  0  0  0  0  0  0  0  0  0  0
   -0.1439    1.0060   -1.4789 H   0  0  0  0  0  0  0  0  0  0  0  0
   -1.7100    1.3578   -0.7505 H   0  0  0  0  0  0  0  0  0  0  0  0
   -0.0732    2.4370    0.1250 C   0  0  0  0  0  0  0  0  0  0  0  0
   -0.1925    2.3803    1.2070 H   0  0  0  0  0  0  0  0  0  0  0  0
    1.4106    2.6272   -0.2030 C   0  0  0  0  0  0  0  0  0  0  0  0
    1.5484    2.6696   -1.2843 H   0  0  0  0  0  0  0  0  0  0  0  0
    1.7679    3.5577    0.2387 H   0  0  0  0  0  0  0  0  0  0  0  0
    2.0011    1.8066    0.1986 H   0  0  0  0  0  0  0  0  0  0  0  0
   -0.8286    3.6695   -0.3704 C   0  0  0  0  0  0  0  0  0  0  0  0
   -1.8856    3.5764   -0.1214 H   0  0  0  0  0  0  0  0  0  0  0  0
   -0.4355    4.5642    0.1125 H   0  0  0  0  0  0  0  0  0  0  0  0
   -0.7206    3.7670   -1.4512 H   0  0  0  0  0  0  0  0  0  0  0  0
   -0.1913    0.1554    1.7759 C   0  0  0  0  0  0  0  0  0  0  0  0
    0.9476   -0.0766    2.1748 O   0  0  0  0  0  0  0  0  0  0  0  0
   -1.1502    0.6393    2.5760 N   0  0  0  0  0  0  0  0  0  0  0  0
   -2.0581    0.8092    2.1736 H   0  0  0  0  0  0  0  0  0  0  0  0
   -0.9568    0.9369    3.9933 C   0  0  0  0  0  0  0  0  0  0  0  0
   -0.1600    1.6750    4.1097 H   0  0  0  0  0  0  0  0  0  0  0  0
   -1.8775    1.3307    4.4266 H   0  0  0  0  0  0  0  0  0  0  0  0
   -0.6678    0.0287    4.5244 H   0  0  0  0  0  0  0  0  0  0  0  0
  5  6  2  0  0  0  0
  5  7  1  0  0  0  0
  2  3  1  0  0  0  0
  2  4  1  0  0  0  0
  2  5  1  0  0  0  0
  1  2  1  0  0  0  0
 24 25  2  0  0  0  0
 24 26  1  0  0  0  0
 20 21  1  0  0  0  0
 20 22  1  0  0  0  0
 20 23  1  0  0  0  0
 16 17  1  0  0  0  0
 16 18  1  0  0  0  0
 16 19  1  0  0  0  0
 14 15  1  0  0  0  0
 14 16  1  0  0  0  0
 14 20  1  0  0  0  0
 11 12  1  0  0  0  0
 11 13  1  0  0  0  0
 11 14  1  0  0  0  0
  9 10  1  0  0  0  0
  9 11  1  0  0  0  0
  9 24  1  0  0  0  0
  7  8  1  0  0  0  0
  7  9  1  0  0  0  0
 28 29  1  0  0  0  0
 28 30  1  0  0  0  0
 28 31  1  0  0  0  0
 26 27  1  0  0  0  0
 26 28  1  0  0  0  0
M  END
$$$$
default_name
  -OEChem-02102213163D

 31 30  0     1  0  0  0  0  0999 V2000
   -3.5895   -3.5013    1.1082 H   0  0  0  0  0  0  0  0  0  0  0  0
   -3.5145   -2.5363    0.6082 C   0  0  0  0  0  0  0  0  0  0  0  0
   -4.2285   -1.8413    1.0452 H   0  0  0  0  0  0  0  0  0  0  0  0
   -3.7155   -2.6583   -0.4538 H   0  0  0  0  0  0  0  0  0  0  0  0
   -2.1155   -1.9963    0.7922 C   0  0  0  0  0  0  0  0  0  0  0  0
   -1.2875   -2.6383    1.4252 O   0  0  0  0  0  0  0  0  0  0  0  0
   -1.8575   -0.8123    0.2402 N   0  0  0  0  0  0  0  0  0  0  0  0
   -2.6005   -0.3333   -0.2478 H   0  0  0  0  0  0  0  0  0  0  0  0
   -0.5675   -0.1203    0.3102 C   0  0  1  0  0  0  0  0  0  0  0  0
    0.1932   -0.7715   -0.1219 H   0  0  0  0  0  0  0  0  0  0  0  0
   -0.6568    1.1713   -0.5294 C   0  0  0  0  0  0  0  0  0  0  0  0
   -0.1439    1.0060   -1.4789 H   0  0  0  0  0  0  0  0  0  0  0  0
   -1.7100    1.3578   -0.7505 H   0  0  0  0  0  0  0  0  0  0  0  0
   -0.0732    2.4370    0.1250 C   0  0  0  0  0  0  0  0  0  0  0  0
    0.0527    2.2733    1.1953 H   0  0  0  0  0  0  0  0  0  0  0  0
    1.2768    2.8324   -0.4805 C   0  0  0  0  0  0  0  0  0  0  0  0
    1.1704    2.9841   -1.5555 H   0  0  0  0  0  0  0  0  0  0  0  0
    1.6275    3.7576   -0.0228 H   0  0  0  0  0  0  0  0  0  0  0  0
    2.0193    2.0575   -0.3027 H   0  0  0  0  0  0  0  0  0  0  0  0
   -1.0372    3.6075   -0.0644 C   0  0  0  0  0  0  0  0  0  0  0  0
   -1.9998    3.3664    0.3864 H   0  0  0  0  0  0  0  0  0  0  0  0
   -0.6391    4.4981    0.4220 H   0  0  0  0  0  0  0  0  0  0  0  0
   -1.1779    3.8101   -1.1267 H   0  0  0  0  0  0  0  0  0  0  0  0
   -0.1913    0.1554    1.7759 C   0  0  0  0  0  0  0  0  0  0  0  0
    0.9476   -0.0766    2.1748 O   0  0  0  0  0  0  0  0  0  0  0  0
   -1.1502    0.6393    2.5760 N   0  0  0  0  0  0  0  0  0  0  0  0
   -2.0581    0.8092    2.1736 H   0  0  0  0  0  0  0  0  0  0  0  0
   -0.9568    0.9369    3.9933 C   0  0  0  0  0  0  0  0  0  0  0  0
   -0.1600    1.6750    4.1097 H   0  0  0  0  0  0  0  0  0  0  0  0
   -1.8775    1.3307    4.4266 H   0  0  0  0  0  0  0  0  0  0  0  0
   -0.6678    0.0287    4.5244 H   0  0  0  0  0  0  0  0  0  0  0  0
  5  6  2  0  0  0  0
  5  7  1  0  0  0  0
  2  3  1  0  0  0  0
  2  4  1  0  0  0  0
  2  5  1  0  0  0  0
  1  2  1  0  0  0  0
 24 25  2  0  0  0  0
 24 26  1  0  0  0  0
 20 21  1  0  0  0  0
 20 22  1  0  0  0  0
 20 23  1  0  0  0  0
 16 17  1  0  0  0  0
 16 18  1  0  0  0  0
 16 19  1  0  0  0  0
 14 15  1  0  0  0  0
 14 16  1  0  0  0  0
 14 20  1  0  0  0  0
 11 12  1  0  0  0  0
 11 13  1  0  0  0  0
 11 14  1  0  0  0  0
  9 10  1  0  0  0  0
  9 11  1  0  0  0  0
  9 24  1  0  0  0  0
  7  8  1  0  0  0  0
  7  9  1  0  0  0  0
 28 29  1  0  0  0  0
 28 30  1  0  0  0  0
 28 31  1  0  0  0  0
 26 27  1  0  0  0  0
 26 28  1  0  0  0  0
M  END
$$$$
default_name
  -OEChem-02102213163D

 31 30  0     1  0  0  0  0  0999 V2000
   -3.5895   -3.5013    1.1082 H   0  0  0  0  0  0  0  0  0  0  0  0
   -3.5145   -2.5363    0.6082 C   0  0  0  0  0  0  0  0  0  0  0  0
   -4.2285   -1.8413    1.0452 H   0  0  0  0  0  0  0  0  0  0  0  0
   -3.7155   -2.6583   -0.4538 H   0  0  0  0  0  0  0  0  0  0  0  0
   -2.1155   -1.9963    0.7922 C   0  0  0  0  0  0  0  0  0  0  0  0
   -1.2875   -2.6383    1.4252 O   0  0  0  0  0  0  0  0  0  0  0  0
   -1.8575   -0.8123    0.2402 N   0  0  0  0  0  0  0  0  0  0  0  0
   -2.6005   -0.3333   -0.2478 H   0  0  0  0  0  0  0  0  0  0  0  0
   -0.5675   -0.1203    0.3102 C   0  0  1  0  0  0  0  0  0  0  0  0
    0.1932   -0.7715   -0.1219 H   0  0  0  0  0  0  0  0  0  0  0  0
   -0.6568    1.1713   -0.5294 C   0  0  0  0  0  0  0  0  0  0  0  0
   -0.1439    1.0060   -1.4789 H   0  0  0  0  0  0  0  0  0  0  0  0
   -1.7100    1.3578   -0.7505 H   0  0  0  0  0  0  0  0  0  0  0  0
   -0.0732    2.4370    0.1250 C   0  0  0  0  0  0  0  0  0  0  0  0
    0.2989    2.1981    1.1213 H   0  0  0  0  0  0  0  0  0  0  0  0
    1.0659    3.0430   -0.6998 C   0  0  0  0  0  0  0  0  0  0  0  0
    0.7130    3.2729   -1.7061 H   0  0  0  0  0  0  0  0  0  0  0  0
    1.4144    3.9609   -0.2259 H   0  0  0  0  0  0  0  0  0  0  0  0
    1.9026    2.3509   -0.7662 H   0  0  0  0  0  0  0  0  0  0  0  0
   -1.1667    3.4946    0.2695 C   0  0  0  0  0  0  0  0  0  0  0  0
   -1.9789    3.1012    0.8807 H   0  0  0  0  0  0  0  0  0  0  0  0
   -0.7627    4.3814    0.7577 H   0  0  0  0  0  0  0  0  0  0  0  0
   -1.5554    3.7695   -0.7117 H   0  0  0  0  0  0  0  0  0  0  0  0
   -0.1913    0.1554    1.7759 C   0  0  0  0  0  0  0  0  0  0  0  0
    0.9476   -0.0766    2.1748 O   0  0  0  0  0  0  0  0  0  0  0  0
   -1.1502    0.6393    2.5760 N   0  0  0  0  0  0  0  0  0  0  0  0
   -2.0581    0.8092    2.1736 H   0  0  0  0  0  0  0  0  0  0  0  0
   -0.9568    0.9369    3.9933 C   0  0  0  0  0  0  0  0  0  0  0  0
   -0.1600    1.6750    4.1097 H   0  0  0  0  0  0  0  0  0  0  0  0
   -1.8775    1.3307    4.4266 H   0  0  0  0  0  0  0  0  0  0  0  0
   -0.6678    0.0287    4.5244 H   0  0  0  0  0  0  0  0  0  0  0  0
  5  6  2  0  0  0  0
  5  7  1  0  0  0  0
  2  3  1  0  0  0  0
  2  4  1  0  0  0  0
  2  5  1  0  0  0  0
  1  2  1  0  0  0  0
 24 25  2  0  0  0  0
 24 26  1  0  0  0  0
 20 21  1  0  0  0  0
 20 22  1  0  0  0  0
 20 23  1  0  0  0  0
 16 17  1  0  0  0  0
 16 18  1  0  0  0  0
 16 19  1  0  0  0  0
 14 15  1  0  0  0  0
 14 16  1  0  0  0  0
 14 20  1  0  0  0  0
 11 12  1  0  0  0  0
 11 13  1  0  0  0  0
 11 14  1  0  0  0  0
  9 10  1  0  0  0  0
  9 11  1  0  0  0  0
  9 24  1  0  0  0  0
  7  8  1  0  0  0  0
  7  9  1  0  0  0  0
 28 29  1  0  0  0  0
 28 30  1  0  0  0  0
 28 31  1  0  0  0  0
 26 27  1  0  0  0  0
 26 28  1  0  0  0  0
M  END
$$$$
default_name
  -OEChem-02102213163D

 31 30  0     1  0  0  0  0  0999 V2000
   -3.5895   -3.5013    1.1082 H   0  0  0  0  0  0  0  0  0  0  0  0
   -3.5145   -2.5363    0.6082 C   0  0  0  0  0  0  0  0  0  0  0  0
   -4.2285   -1.8413    1.0452 H   0  0  0  0  0  0  0  0  0  0  0  0
   -3.7155   -2.6583   -0.4538 H   0  0  0  0  0  0  0  0  0  0  0  0
   -2.1155   -1.9963    0.7922 C   0  0  0  0  0  0  0  0  0  0  0  0
   -1.2875   -2.6383    1.4252 O   0  0  0  0  0  0  0  0  0  0  0  0
   -1.8575   -0.8123    0.2402 N   0  0  0  0  0  0  0  0  0  0  0  0
   -2.6005   -0.3333   -0.2478 H   0  0  0  0  0  0  0  0  0  0  0  0
   -0.5675   -0.1203    0.3102 C   0  0  1  0  0  0  0  0  0  0  0  0
    0.1932   -0.7715   -0.1219 H   0  0  0  0  0  0  0  0  0  0  0  0
   -0.6568    1.1713   -0.5294 C   0  0  0  0  0  0  0  0  0  0  0  0
   -0.1439    1.0060   -1.4789 H   0  0  0  0  0  0  0  0  0  0  0  0
   -1.7100    1.3578   -0.7505 H   0  0  0  0  0  0  0  0  0  0  0  0
   -0.0732    2.4370    0.1250 C   0  0  0  0  0  0  0  0  0  0  0  0
    0.5292    2.1597    0.9901 H   0  0  0  0  0  0  0  0  0  0  0  0
    0.7924    3.2448   -0.8462 C   0  0  0  0  0  0  0  0  0  0  0  0
    0.2074    3.5164   -1.7260 H   0  0  0  0  0  0  0  0  0  0  0  0
    1.1429    4.1538   -0.3567 H   0  0  0  0  0  0  0  0  0  0  0  0
    1.6590    2.6670   -1.1603 H   0  0  0  0  0  0  0  0  0  0  0  0
   -1.2084    3.3385    0.6084 C   0  0  0  0  0  0  0  0  0  0  0  0
   -1.8244    2.7988    1.3276 H   0  0  0  0  0  0  0  0  0  0  0  0
   -0.7977    4.2222    1.0969 H   0  0  0  0  0  0  0  0  0  0  0  0
   -1.8272    3.6481   -0.2346 H   0  0  0  0  0  0  0  0  0  0  0  0
   -0.1913    0.1554    1.7759 C   0  0  0  0  0  0  0  0  0  0  0  0
    0.9476   -0.0766    2.1748 O   0  0  0  0  0  0  0  0  0  0  0  0
   -1.1502    0.6393    2.5760 N   0  0  0  0  0  0  0  0  0  0  0  0
   -2.0581    0.8092    2.1736 H   0  0  0  0  0  0  0  0  0  0  0  0
   -0.9568    0.9369    3.9933 C   0  0  0  0  0  0  0  0  0  0  0  0
   -0.1600    1.6750    4.1097 H   0  0  0  0  0  0  0  0  0  0  0  0
   -1.8775    1.3307    4.4266 H   0  0  0  0  0  0  0  0  0  0  0  0
   -0.6678    0.0287    4.5244 H   0  0  0  0  0  0  0  0  0  0  0  0
  5  6  2  0  0  0  0
  5  7  1  0  0  0  0
  2  3  1  0  0  0  0
  2  4  1  0  0  0  0
  2  5  1  0  0  0  0
  1  2  1  0  0  0  0
 24 25  2  0  0  0  0
 24 26  1  0  0  0  0
 20 21  1  0  0  0  0
 20 22  1  0  0  0  0
 20 23  1  0  0  0  0
 16 17  1  0  0  0  0
 16 18  1  0  0  0  0
 16 19  1  0  0  0  0
 14 15  1  0  0  0  0
 14 16  1  0  0  0  0
 14 20  1  0  0  0  0
 11 12  1  0  0  0  0
 11 13  1  0  0  0  0
 11 14  1  0  0  0  0
  9 10  1  0  0  0  0
  9 11  1  0  0  0  0
  9 24  1  0  0  0  0
  7  8  1  0  0  0  0
  7  9  1  0  0  0  0
 28 29  1  0  0  0  0
 28 30  1  0  0  0  0
 28 31  1  0  0  0  0
 26 27  1  0  0  0  0
 26 28  1  0  0  0  0
M  END
$$$$
default_name
  -OEChem-02102213163D

 31 30  0     1  0  0  0  0  0999 V2000
   -3.5895   -3.5013    1.1082 H   0  0  0  0  0  0  0  0  0  0  0  0
   -3.5145   -2.5363    0.6082 C   0  0  0  0  0  0  0  0  0  0  0  0
   -4.2285   -1.8413    1.0452 H   0  0  0  0  0  0  0  0  0  0  0  0
   -3.7155   -2.6583   -0.4538 H   0  0  0  0  0  0  0  0  0  0  0  0
   -2.1155   -1.9963    0.7922 C   0  0  0  0  0  0  0  0  0  0  0  0
   -1.2875   -2.6383    1.4252 O   0  0  0  0  0  0  0  0  0  0  0  0
   -1.8575   -0.8123    0.2402 N   0  0  0  0  0  0  0  0  0  0  0  0
   -2.6005   -0.3333   -0.2478 H   0  0  0  0  0  0  0  0  0  0  0  0
   -0.5675   -0.1203    0.3102 C   0  0  1  0  0  0  0  0  0  0  0  0
    0.1932   -0.7715   -0.1219 H   0  0  0  0  0  0  0  0  0  0  0  0
   -0.6568    1.1713   -0.5294 C   0  0  0  0  0  0  0  0  0  0  0  0
   -0.1439    1.0060   -1.4789 H   0  0  0  0  0  0  0  0  0  0  0  0
   -1.7100    1.3578   -0.7505 H   0  0  0  0  0  0  0  0  0  0  0  0
   -0.0732    2.4370    0.1250 C   0  0  0  0  0  0  0  0  0  0  0  0
    0.7280    2.1609    0.8106 H   0  0  0  0  0  0  0  0  0  0  0  0
    0.4749    3.4240   -0.9096 C   0  0  0  0  0  0  0  0  0  0  0  0
   -0.3121    3.6978   -1.6137 H   0  0  0  0  0  0  0  0  0  0  0  0
    0.8317    4.3230   -0.4065 H   0  0  0  0  0  0  0  0  0  0  0  0
    1.3051    2.9842   -1.4581 H   0  0  0  0  0  0  0  0  0  0  0  0
   -1.1594    3.1500    0.9294 C   0  0  0  0  0  0  0  0  0  0  0  0
   -1.5468    2.4799    1.6968 H   0  0  0  0  0  0  0  0  0  0  0  0
   -0.7420    4.0313    1.4163 H   0  0  0  0  0  0  0  0  0  0  0  0
   -1.9749    3.4542    0.2722 H   0  0  0  0  0  0  0  0  0  0  0  0
   -0.1913    0.1554    1.7759 C   0  0  0  0  0  0  0  0  0  0  0  0
    0.9476   -0.0766    2.1748 O   0  0  0  0  0  0  0  0  0  0  0  0
   -1.1502    0.6393    2.5760 N   0  0  0  0  0  0  0  0  0  0  0  0
   -2.0581    0.8092    2.1736 H   0  0  0  0  0  0  0  0  0  0  0  0
   -0.9568    0.9369    3.9933 C   0  0  0  0  0  0  0  0  0  0  0  0
   -0.1600    1.6750    4.1097 H   0  0  0  0  0  0  0  0  0  0  0  0
   -1.8775    1.3307    4.4266 H   0  0  0  0  0  0  0  0  0  0  0  0
   -0.6678    0.0287    4.5244 H   0  0  0  0  0  0  0  0  0  0  0  0
  5  6  2  0  0  0  0
  5  7  1  0  0  0  0
  2  3  1  0  0  0  0
  2  4  1  0  0  0  0
  2  5  1  0  0  0  0
  1  2  1  0  0  0  0
 24 25  2  0  0  0  0
 24 26  1  0  0  0  0
 20 21  1  0  0  0  0
 20 22  1  0  0  0  0
 20 23  1  0  0  0  0
 16 17  1  0  0  0  0
 16 18  1  0  0  0  0
 16 19  1  0  0  0  0
 14 15  1  0  0  0  0
 14 16  1  0  0  0  0
 14 20  1  0  0  0  0
 11 12  1  0  0  0  0
 11 13  1  0  0  0  0
 11 14  1  0  0  0  0
  9 10  1  0  0  0  0
  9 11  1  0  0  0  0
  9 24  1  0  0  0  0
  7  8  1  0  0  0  0
  7  9  1  0  0  0  0
 28 29  1  0  0  0  0
 28 30  1  0  0  0  0
 28 31  1  0  0  0  0
 26 27  1  0  0  0  0
 26 28  1  0  0  0  0
M  END
$$$$
default_name
  -OEChem-02102213163D

 31 30  0     1  0  0  0  0  0999 V2000
   -3.5895   -3.5013    1.1082 H   0  0  0  0  0  0  0  0  0  0  0  0
   -3.5145   -2.5363    0.6082 C   0  0  0  0  0  0  0  0  0  0  0  0
   -4.2285   -1.8413    1.0452 H   0  0  0  0  0  0  0  0  0  0  0  0
   -3.7155   -2.6583   -0.4538 H   0  0  0  0  0  0  0  0  0  0  0  0
   -2.1155   -1.9963    0.7922 C   0  0  0  0  0  0  0  0  0  0  0  0
   -1.2875   -2.6383    1.4252 O   0  0  0  0  0  0  0  0  0  0  0  0
   -1.8575   -0.8123    0.2402 N   0  0  0  0  0  0  0  0  0  0  0  0
   -2.6005   -0.3333   -0.2478 H   0  0  0  0  0  0  0  0  0  0  0  0
   -0.5675   -0.1203    0.3102 C   0  0  1  0  0  0  0  0  0  0  0  0
    0.1932   -0.7715   -0.1219 H   0  0  0  0  0  0  0  0  0  0  0  0
   -0.6568    1.1713   -0.5294 C   0  0  0  0  0  0  0  0  0  0  0  0
   -0.1439    1.0060   -1.4789 H   0  0  0  0  0  0  0  0  0  0  0  0
   -1.7100    1.3578   -0.7505 H   0  0  0  0  0  0  0  0  0  0  0  0
   -0.0732    2.4370    0.1250 C   0  0  0  0  0  0  0  0  0  0  0  0
    0.8817    2.2015    0.5951 H   0  0  0  0  0  0  0  0  0  0  0  0
    0.1350    3.5684   -0.8858 C   0  0  0  0  0  0  0  0  0  0  0  0
   -0.8099    3.8049   -1.3769 H   0  0  0  0  0  0  0  0  0  0  0  0
    0.5018    4.4571   -0.3717 H   0  0  0  0  0  0  0  0  0  0  0  0
    0.8650    3.2809   -1.6393 H   0  0  0  0  0  0  0  0  0  0  0  0
   -1.0231    2.9417    1.2105 C   0  0  0  0  0  0  0  0  0  0  0  0
   -1.1651    2.1662    1.9631 H   0  0  0  0  0  0  0  0  0  0  0  0
   -0.5991    3.8217    1.6942 H   0  0  0  0  0  0  0  0  0  0  0  0
   -1.9884    3.2008    0.7742 H   0  0  0  0  0  0  0  0  0  0  0  0
   -0.1913    0.1554    1.7759 C   0  0  0  0  0  0  0  0  0  0  0  0
    0.9476   -0.0766    2.1748 O   0  0  0  0  0  0  0  0  0  0  0  0
   -1.1502    0.6393    2.5760 N   0  0  0  0  0  0  0  0  0  0  0  0
   -2.0581    0.8092    2.1736 H   0  0  0  0  0  0  0  0  0  0  0  0
   -0.9568    0.9369    3.9933 C   0  0  0  0  0  0  0  0  0  0  0  0
   -0.1600    1.6750    4.1097 H   0  0  0  0  0  0  0  0  0  0  0  0
   -1.8775    1.3307    4.4266 H   0  0  0  0  0  0  0  0  0  0  0  0
   -0.6678    0.0287    4.5244 H   0  0  0  0  0  0  0  0  0  0  0  0
  5  6  2  0  0  0  0
  5  7  1  0  0  0  0
  2  3  1  0  0  0  0
  2  4  1  0  0  0  0
  2  5  1  0  0  0  0
  1  2  1  0  0  0  0
 24 25  2  0  0  0  0
 24 26  1  0  0  0  0
 20 21  1  0  0  0  0
 20 22  1  0  0  0  0
 20 23  1  0  0  0  0
 16 17  1  0  0  0  0
 16 18  1  0  0  0  0
 16 19  1  0  0  0  0
 14 15  1  0  0  0  0
 14 16  1  0  0  0  0
 14 20  1  0  0  0  0
 11 12  1  0  0  0  0
 11 13  1  0  0  0  0
 11 14  1  0  0  0  0
  9 10  1  0  0  0  0
  9 11  1  0  0  0  0
  9 24  1  0  0  0  0
  7  8  1  0  0  0  0
  7  9  1  0  0  0  0
 28 29  1  0  0  0  0
 28 30  1  0  0  0  0
 28 31  1  0  0  0  0
 26 27  1  0  0  0  0
 26 28  1  0  0  0  0
M  END
$$$$
default_name
  -OEChem-02102213163D

 31 30  0     1  0  0  0  0  0999 V2000
   -3.5895   -3.5013    1.1082 H   0  0  0  0  0  0  0  0  0  0  0  0
   -3.5145   -2.5363    0.6082 C   0  0  0  0  0  0  0  0  0  0  0  0
   -4.2285   -1.8413    1.0452 H   0  0  0  0  0  0  0  0  0  0  0  0
   -3.7155   -2.6583   -0.4538 H   0  0  0  0  0  0  0  0  0  0  0  0
   -2.1155   -1.9963    0.7922 C   0  0  0  0  0  0  0  0  0  0  0  0
   -1.2875   -2.6383    1.4252 O   0  0  0  0  0  0  0  0  0  0  0  0
   -1.8575   -0.8123    0.2402 N   0  0  0  0  0  0  0  0  0  0  0  0
   -2.6005   -0.3333   -0.2478 H   0  0  0  0  0  0  0  0  0  0  0  0
   -0.5675   -0.1203    0.3102 C   0  0  1  0  0  0  0  0  0  0  0  0
    0.1932   -0.7715   -0.1219 H   0  0  0  0  0  0  0  0  0  0  0  0
   -0.6568    1.1713   -0.5294 C   0  0  0  0  0  0  0  0  0  0  0  0
   -0.3911    0.9352   -1.5617 H   0  0  0  0  0  0  0  0  0  0  0  0
   -1.6964    1.5060   -0.5238 H   0  0  0  0  0  0  0  0  0  0  0  0
    0.2257    2.3405   -0.0551 C   0  0  0  0  0  0  0  0  0  0  0  0
    1.2716    2.0338   -0.0497 H   0  0  0  0  0  0  0  0  0  0  0  0
    0.0743    3.5783   -0.9440 C   0  0  0  0  0  0  0  0  0  0  0  0
   -0.9712    3.8884   -0.9725 H   0  0  0  0  0  0  0  0  0  0  0  0
    0.6772    4.3938   -0.5437 H   0  0  0  0  0  0  0  0  0  0  0  0
    0.4100    3.3672   -1.9570 H   0  0  0  0  0  0  0  0  0  0  0  0
   -0.1597    2.7327    1.3708 C   0  0  0  0  0  0  0  0  0  0  0  0
   -0.0308    1.8773    2.0339 H   0  0  0  0  0  0  0  0  0  0  0  0
    0.4822    3.5420    1.7190 H   0  0  0  0  0  0  0  0  0  0  0  0
   -1.1997    3.0592    1.4026 H   0  0  0  0  0  0  0  0  0  0  0  0
   -0.1913    0.1554    1.7759 C   0  0  0  0  0  0  0  0  0  0  0  0
    0.9476   -0.0766    2.1748 O   0  0  0  0  0  0  0  0  0  0  0  0
   -1.1502    0.6393    2.5760 N   0  0  0  0  0  0  0  0  0  0  0  0
   -2.0581    0.8092    2.1736 H   0  0  0  0  0  0  0  0  0  0  0  0
   -0.9568    0.9369    3.9933 C   0  0  0  0  0  0  0  0  0  0  0  0
   -0.1600    1.6750    4.1097 H   0  0  0  0  0  0  0  0  0  0  0  0
   -1.8775    1.3307    4.4266 H   0  0  0  0  0  0  0  0  0  0  0  0
   -0.6678    0.0287    4.5244 H   0  0  0  0  0  0  0  0  0  0  0  0
  5  6  2  0  0  0  0
  5  7  1  0  0  0  0
  2  3  1  0  0  0  0
  2  4  1  0  0  0  0
  2  5  1  0  0  0  0
  1  2  1  0  0  0  0
 24 25  2  0  0  0  0
 24 26  1  0  0  0  0
 20 21  1  0  0  0  0
 20 22  1  0  0  0  0
 20 23  1  0  0  0  0
 16 17  1  0  0  0  0
 16 18  1  0  0  0  0
 16 19  1  0  0  0  0
 14 15  1  0  0  0  0
 14 16  1  0  0  0  0
 14 20  1  0  0  0  0
 11 12  1  0  0  0  0
 11 13  1  0  0  0  0
 11 14  1  0  0  0  0
  9 10  1  0  0  0  0
  9 11  1  0  0  0  0
  9 24  1  0  0  0  0
  7  8  1  0  0  0  0
  7  9  1  0  0  0  0
 28 29  1  0  0  0  0
 28 30  1  0  0  0  0
 28 31  1  0  0  0  0
 26 27  1  0  0  0  0
 26 28  1  0  0  0  0
M  END
$$$$
default_name
  -OEChem-02102213163D

 31 30  0     1  0  0  0  0  0999 V2000
   -3.5895   -3.5013    1.1082 H   0  0  0  0  0  0  0  0  0  0  0  0
   -3.5145   -2.5363    0.6082 C   0  0  0  0  0  0  0  0  0  0  0  0
   -4.2285   -1.8413    1.0452 H   0  0  0  0  0  0  0  0  0  0  0  0
   -3.7155   -2.6583   -0.4538 H   0  0  0  0  0  0  0  0  0  0  0  0
   -2.1155   -1.9963    0.7922 C   0  0  0  0  0  0  0  0  0  0  0  0
   -1.2875   -2.6383    1.4252 O   0  0  0  0  0  0  0  0  0  0  0  0
   -1.8575   -0.8123    0.2402 N   0  0  0  0  0  0  0  0  0  0  0  0
   -2.6005   -0.3333   -0.2478 H   0  0  0  0  0  0  0  0  0  0  0  0
   -0.5675   -0.1203    0.3102 C   0  0  1  0  0  0  0  0  0  0  0  0
    0.1932   -0.7715   -0.1219 H   0  0  0  0  0  0  0  0  0  0  0  0
   -0.6568    1.1713   -0.5294 C   0  0  0  0  0  0  0  0  0  0  0  0
   -0.3911    0.9352   -1.5617 H   0  0  0  0  0  0  0  0  0  0  0  0
   -1.6964    1.5060   -0.5238 H   0  0  0  0  0  0  0  0  0  0  0  0
    0.2257    2.3405   -0.0551 C   0  0  0  0  0  0  0  0  0  0  0  0
    1.2687    2.1364   -0.2971 H   0  0  0  0  0  0  0  0  0  0  0  0
   -0.1827    3.6709   -0.6943 C   0  0  0  0  0  0  0  0  0  0  0  0
   -1.2301    3.8816   -0.4743 H   0  0  0  0  0  0  0  0  0  0  0  0
    0.4346    4.4754   -0.2938 H   0  0  0  0  0  0  0  0  0  0  0  0
   -0.0461    3.6368   -1.7730 H   0  0  0  0  0  0  0  0  0  0  0  0
    0.1125    2.4905    1.4616 C   0  0  0  0  0  0  0  0  0  0  0  0
    0.4283    1.5665    1.9459 H   0  0  0  0  0  0  0  0  0  0  0  0
    0.7577    3.2999    1.8032 H   0  0  0  0  0  0  0  0  0  0  0  0
   -0.9185    2.7094    1.7415 H   0  0  0  0  0  0  0  0  0  0  0  0
   -0.1913    0.1554    1.7759 C   0  0  0  0  0  0  0  0  0  0  0  0
    0.9476   -0.0766    2.1748 O   0  0  0  0  0  0  0  0  0  0  0  0
   -1.1502    0.6393    2.5760 N   0  0  0  0  0  0  0  0  0  0  0  0
   -2.0581    0.8092    2.1736 H   0  0  0  0  0  0  0  0  0  0  0  0
   -0.9568    0.9369    3.9933 C   0  0  0  0  0  0  0  0  0  0  0  0
   -0.1600    1.6750    4.1097 H   0  0  0  0  0  0  0  0  0  0  0  0
   -1.8775    1.3307    4.4266 H   0  0  0  0  0  0  0  0  0  0  0  0
   -0.6678    0.0287    4.5244 H   0  0  0  0  0  0  0  0  0  0  0  0
  5  6  2  0  0  0  0
  5  7  1  0  0  0  0
  2  3  1  0  0  0  0
  2  4  1  0  0  0  0
  2  5  1  0  0  0  0
  1  2  1  0  0  0  0
 24 25  2  0  0  0  0
 24 26  1  0  0  0  0
 20 21  1  0  0  0  0
 20 22  1  0  0  0  0
 20 23  1  0  0  0  0
 16 17  1  0  0  0  0
 16 18  1  0  0  0  0
 16 19  1  0  0  0  0
 14 15  1  0  0  0  0
 14 16  1  0  0  0  0
 14 20  1  0  0  0  0
 11 12  1  0  0  0  0
 11 13  1  0  0  0  0
 11 14  1  0  0  0  0
  9 10  1  0  0  0  0
  9 11  1  0  0  0  0
  9 24  1  0  0  0  0
  7  8  1  0  0  0  0
  7  9  1  0  0  0  0
 28 29  1  0  0  0  0
 28 30  1  0  0  0  0
 28 31  1  0  0  0  0
 26 27  1  0  0  0  0
 26 28  1  0  0  0  0
M  END
$$$$
default_name
  -OEChem-02102213163D

 31 30  0     1  0  0  0  0  0999 V2000
   -3.5895   -3.5013    1.1082 H   0  0  0  0  0  0  0  0  0  0  0  0
   -3.5145   -2.5363    0.6082 C   0  0  0  0  0  0  0  0  0  0  0  0
   -4.2285   -1.8413    1.0452 H   0  0  0  0  0  0  0  0  0  0  0  0
   -3.7155   -2.6583   -0.4538 H   0  0  0  0  0  0  0  0  0  0  0  0
   -2.1155   -1.9963    0.7922 C   0  0  0  0  0  0  0  0  0  0  0  0
   -1.2875   -2.6383    1.4252 O   0  0  0  0  0  0  0  0  0  0  0  0
   -1.8575   -0.8123    0.2402 N   0  0  0  0  0  0  0  0  0  0  0  0
   -2.6005   -0.3333   -0.2478 H   0  0  0  0  0  0  0  0  0  0  0  0
   -0.5675   -0.1203    0.3102 C   0  0  1  0  0  0  0  0  0  0  0  0
    0.1932   -0.7715   -0.1219 H   0  0  0  0  0  0  0  0  0  0  0  0
   -0.6568    1.1713   -0.5294 C   0  0  0  0  0  0  0  0  0  0  0  0
   -0.3911    0.9352   -1.5617 H   0  0  0  0  0  0  0  0  0  0  0  0
   -1.6964    1.5060   -0.5238 H   0  0  0  0  0  0  0  0  0  0  0  0
    0.2257    2.3405   -0.0551 C   0  0  0  0  0  0  0  0  0  0  0  0
    1.2090    2.2719   -0.5202 H   0  0  0  0  0  0  0  0  0  0  0  0
   -0.3892    3.7028   -0.3888 C   0  0  0  0  0  0  0  0  0  0  0  0
   -1.3818    3.7806    0.0569 H   0  0  0  0  0  0  0  0  0  0  0  0
    0.2429    4.4979    0.0075 H   0  0  0  0  0  0  0  0  0  0  0  0
   -0.4720    3.8335   -1.4657 H   0  0  0  0  0  0  0  0  0  0  0  0
    0.4126    2.2647    1.4598 C   0  0  0  0  0  0  0  0  0  0  0  0
    0.8792    1.3160    1.7246 H   0  0  0  0  0  0  0  0  0  0  0  0
    1.0596    3.0755    1.7945 H   0  0  0  0  0  0  0  0  0  0  0  0
   -0.5524    2.3437    1.9618 H   0  0  0  0  0  0  0  0  0  0  0  0
   -0.1913    0.1554    1.7759 C   0  0  0  0  0  0  0  0  0  0  0  0
    0.9476   -0.0766    2.1748 O   0  0  0  0  0  0  0  0  0  0  0  0
   -1.1502    0.6393    2.5760 N   0  0  0  0  0  0  0  0  0  0  0  0
   -2.0581    0.8092    2.1736 H   0  0  0  0  0  0  0  0  0  0  0  0
   -0.9568    0.9369    3.9933 C   0  0  0  0  0  0  0  0  0  0  0  0
   -0.1600    1.6750    4.1097 H   0  0  0  0  0  0  0  0  0  0  0  0
   -1.8775    1.3307    4.4266 H   0  0  0  0  0  0  0  0  0  0  0  0
   -0.6678    0.0287    4.5244 H   0  0  0  0  0  0  0  0  0  0  0  0
  5  6  2  0  0  0  0
  5  7  1  0  0  0  0
  2  3  1  0  0  0  0
  2  4  1  0  0  0  0
  2  5  1  0  0  0  0
  1  2  1  0  0  0  0
 24 25  2  0  0  0  0
 24 26  1  0  0  0  0
 20 21  1  0  0  0  0
 20 22  1  0  0  0  0
 20 23  1  0  0  0  0
 16 17  1  0  0  0  0
 16 18  1  0  0  0  0
 16 19  1  0  0  0  0
 14 15  1  0  0  0  0
 14 16  1  0  0  0  0
 14 20  1  0  0  0  0
 11 12  1  0  0  0  0
 11 13  1  0  0  0  0
 11 14  1  0  0  0  0
  9 10  1  0  0  0  0
  9 11  1  0  0  0  0
  9 24  1  0  0  0  0
  7  8  1  0  0  0  0
  7  9  1  0  0  0  0
 28 29  1  0  0  0  0
 28 30  1  0  0  0  0
 28 31  1  0  0  0  0
 26 27  1  0  0  0  0
 26 28  1  0  0  0  0
M  END
$$$$
default_name
  -OEChem-02102213163D

 31 30  0     1  0  0  0  0  0999 V2000
   -3.5895   -3.5013    1.1082 H   0  0  0  0  0  0  0  0  0  0  0  0
   -3.5145   -2.5363    0.6082 C   0  0  0  0  0  0  0  0  0  0  0  0
   -4.2285   -1.8413    1.0452 H   0  0  0  0  0  0  0  0  0  0  0  0
   -3.7155   -2.6583   -0.4538 H   0  0  0  0  0  0  0  0  0  0  0  0
   -2.1155   -1.9963    0.7922 C   0  0  0  0  0  0  0  0  0  0  0  0
   -1.2875   -2.6383    1.4252 O   0  0  0  0  0  0  0  0  0  0  0  0
   -1.8575   -0.8123    0.2402 N   0  0  0  0  0  0  0  0  0  0  0  0
   -2.6005   -0.3333   -0.2478 H   0  0  0  0  0  0  0  0  0  0  0  0
   -0.5675   -0.1203    0.3102 C   0  0  1  0  0  0  0  0  0  0  0  0
    0.1932   -0.7715   -0.1219 H   0  0  0  0  0  0  0  0  0  0  0  0
   -0.6568    1.1713   -0.5294 C   0  0  0  0  0  0  0  0  0  0  0  0
   -0.3911    0.9352   -1.5617 H   0  0  0  0  0  0  0  0  0  0  0  0
   -1.6964    1.5060   -0.5238 H   0  0  0  0  0  0  0  0  0  0  0  0
    0.2257    2.3405   -0.0551 C   0  0  0  0  0  0  0  0  0  0  0  0
    1.0968    2.4312   -0.7040 H   0  0  0  0  0  0  0  0  0  0  0  0
   -0.5311    3.6719   -0.0485 C   0  0  0  0  0  0  0  0  0  0  0  0
   -1.4158    3.5921    0.5848 H   0  0  0  0  0  0  0  0  0  0  0  0
    0.1151    4.4596    0.3394 H   0  0  0  0  0  0  0  0  0  0  0  0
   -0.8386    3.9440   -1.0559 H   0  0  0  0  0  0  0  0  0  0  0  0
    0.7201    2.0709    1.3656 C   0  0  0  0  0  0  0  0  0  0  0  0
    1.2913    1.1428    1.3851 H   0  0  0  0  0  0  0  0  0  0  0  0
    1.3675    2.8842    1.6934 H   0  0  0  0  0  0  0  0  0  0  0  0
   -0.1262    1.9871    2.0483 H   0  0  0  0  0  0  0  0  0  0  0  0
   -0.1913    0.1554    1.7759 C   0  0  0  0  0  0  0  0  0  0  0  0
    0.9476   -0.0766    2.1748 O   0  0  0  0  0  0  0  0  0  0  0  0
   -1.1502    0.6393    2.5760 N   0  0  0  0  0  0  0  0  0  0  0  0
   -2.0581    0.8092    2.1736 H   0  0  0  0  0  0  0  0  0  0  0  0
   -0.9568    0.9369    3.9933 C   0  0  0  0  0  0  0  0  0  0  0  0
   -0.1600    1.6750    4.1097 H   0  0  0  0  0  0  0  0  0  0  0  0
   -1.8775    1.3307    4.4266 H   0  0  0  0  0  0  0  0  0  0  0  0
   -0.6678    0.0287    4.5244 H   0  0  0  0  0  0  0  0  0  0  0  0
  5  6  2  0  0  0  0
  5  7  1  0  0  0  0
  2  3  1  0  0  0  0
  2  4  1  0  0  0  0
  2  5  1  0  0  0  0
  1  2  1  0  0  0  0
 24 25  2  0  0  0  0
 24 26  1  0  0  0  0
 20 21  1  0  0  0  0
 20 22  1  0  0  0  0
 20 23  1  0  0  0  0
 16 17  1  0  0  0  0
 16 18  1  0  0  0  0
 16 19  1  0  0  0  0
 14 15  1  0  0  0  0
 14 16  1  0  0  0  0
 14 20  1  0  0  0  0
 11 12  1  0  0  0  0
 11 13  1  0  0  0  0
 11 14  1  0  0  0  0
  9 10  1  0  0  0  0
  9 11  1  0  0  0  0
  9 24  1  0  0  0  0
  7  8  1  0  0  0  0
  7  9  1  0  0  0  0
 28 29  1  0  0  0  0
 28 30  1  0  0  0  0
 28 31  1  0  0  0  0
 26 27  1  0  0  0  0
 26 28  1  0  0  0  0
M  END
$$$$
default_name
  -OEChem-02102213163D

 31 30  0     1  0  0  0  0  0999 V2000
   -3.5895   -3.5013    1.1082 H   0  0  0  0  0  0  0  0  0  0  0  0
   -3.5145   -2.5363    0.6082 C   0  0  0  0  0  0  0  0  0  0  0  0
   -4.2285   -1.8413    1.0452 H   0  0  0  0  0  0  0  0  0  0  0  0
   -3.7155   -2.6583   -0.4538 H   0  0  0  0  0  0  0  0  0  0  0  0
   -2.1155   -1.9963    0.7922 C   0  0  0  0  0  0  0  0  0  0  0  0
   -1.2875   -2.6383    1.4252 O   0  0  0  0  0  0  0  0  0  0  0  0
   -1.8575   -0.8123    0.2402 N   0  0  0  0  0  0  0  0  0  0  0  0
   -2.6005   -0.3333   -0.2478 H   0  0  0  0  0  0  0  0  0  0  0  0
   -0.5675   -0.1203    0.3102 C   0  0  1  0  0  0  0  0  0  0  0  0
    0.1932   -0.7715   -0.1219 H   0  0  0  0  0  0  0  0  0  0  0  0
   -0.6568    1.1713   -0.5294 C   0  0  0  0  0  0  0  0  0  0  0  0
   -0.3911    0.9352   -1.5617 H   0  0  0  0  0  0  0  0  0  0  0  0
   -1.6964    1.5060   -0.5238 H   0  0  0  0  0  0  0  0  0  0  0  0
    0.2257    2.3405   -0.0551 C   0  0  0  0  0  0  0  0  0  0  0  0
    0.9395    2.6033   -0.8358 H   0  0  0  0  0  0  0  0  0  0  0  0
   -0.5989    3.5802    0.3036 C   0  0  0  0  0  0  0  0  0  0  0  0
   -1.3298    3.3290    1.0734 H   0  0  0  0  0  0  0  0  0  0  0  0
    0.0600    4.3632    0.6795 H   0  0  0  0  0  0  0  0  0  0  0  0
   -1.1211    3.9607   -0.5716 H   0  0  0  0  0  0  0  0  0  0  0  0
    1.0140    1.9221    1.1854 C   0  0  0  0  0  0  0  0  0  0  0  0
    1.6363    1.0587    0.9505 H   0  0  0  0  0  0  0  0  0  0  0  0
    1.6602    2.7389    1.5070 H   0  0  0  0  0  0  0  0  0  0  0  0
    0.3308    1.6637    1.9952 H   0  0  0  0  0  0  0  0  0  0  0  0
   -0.1913    0.1554    1.7759 C   0  0  0  0  0  0  0  0  0  0  0  0
    0.9476   -0.0766    2.1748 O   0  0  0  0  0  0  0  0  0  0  0  0
   -1.1502    0.6393    2.5760 N   0  0  0  0  0  0  0  0  0  0  0  0
   -2.0581    0.8092    2.1736 H   0  0  0  0  0  0  0  0  0  0  0  0
   -0.9568    0.9369    3.9933 C   0  0  0  0  0  0  0  0  0  0  0  0
   -0.1600    1.6750    4.1097 H   0  0  0  0  0  0  0  0  0  0  0  0
   -1.8775    1.3307    4.4266 H   0  0  0  0  0  0  0  0  0  0  0  0
   -0.6678    0.0287    4.5244 H   0  0  0  0  0  0  0  0  0  0  0  0
  5  6  2  0  0  0  0
  5  7  1  0  0  0  0
  2  3  1  0  0  0  0
  2  4  1  0  0  0  0
  2  5  1  0  0  0  0
  1  2  1  0  0  0  0
 24 25  2  0  0  0  0
 24 26  1  0  0  0  0
 20 21  1  0  0  0  0
 20 22  1  0  0  0  0
 20 23  1  0  0  0  0
 16 17  1  0  0  0  0
 16 18  1  0  0  0  0
 16 19  1  0  0  0  0
 14 15  1  0  0  0  0
 14 16  1  0  0  0  0
 14 20  1  0  0  0  0
 11 12  1  0  0  0  0
 11 13  1  0  0  0  0
 11 14  1  0  0  0  0
  9 10  1  0  0  0  0
  9 11  1  0  0  0  0
  9 24  1  0  0  0  0
  7  8  1  0  0  0  0
  7  9  1  0  0  0  0
 28 29  1  0  0  0  0
 28 30  1  0  0  0  0
 28 31  1  0  0  0  0
 26 27  1  0  0  0  0
 26 28  1  0  0  0  0
M  END
$$$$
default_name
  -OEChem-02102213163D

 31 30  0     1  0  0  0  0  0999 V2000
   -3.5895   -3.5013    1.1082 H   0  0  0  0  0  0  0  0  0  0  0  0
   -3.5145   -2.5363    0.6082 C   0  0  0  0  0  0  0  0  0  0  0  0
   -4.2285   -1.8413    1.0452 H   0  0  0  0  0  0  0  0  0  0  0  0
   -3.7155   -2.6583   -0.4538 H   0  0  0  0  0  0  0  0  0  0  0  0
   -2.1155   -1.9963    0.7922 C   0  0  0  0  0  0  0  0  0  0  0  0
   -1.2875   -2.6383    1.4252 O   0  0  0  0  0  0  0  0  0  0  0  0
   -1.8575   -0.8123    0.2402 N   0  0  0  0  0  0  0  0  0  0  0  0
   -2.6005   -0.3333   -0.2478 H   0  0  0  0  0  0  0  0  0  0  0  0
   -0.5675   -0.1203    0.3102 C   0  0  1  0  0  0  0  0  0  0  0  0
    0.1932   -0.7715   -0.1219 H   0  0  0  0  0  0  0  0  0  0  0  0
   -0.6568    1.1713   -0.5294 C   0  0  0  0  0  0  0  0  0  0  0  0
   -0.3911    0.9352   -1.5617 H   0  0  0  0  0  0  0  0  0  0  0  0
   -1.6964    1.5060   -0.5238 H   0  0  0  0  0  0  0  0  0  0  0  0
    0.2257    2.3405   -0.0551 C   0  0  0  0  0  0  0  0  0  0  0  0
    0.7480    2.7766   -0.9066 H   0  0  0  0  0  0  0  0  0  0  0  0
   -0.5879    3.4340    0.6434 C   0  0  0  0  0  0  0  0  0  0  0  0
   -1.1298    3.0092    1.4894 H   0  0  0  0  0  0  0  0  0  0  0  0
    0.0813    4.2153    1.0046 H   0  0  0  0  0  0  0  0  0  0  0  0
   -1.3001    3.8824   -0.0459 H   0  0  0  0  0  0  0  0  0  0  0  0
    1.2744    1.8286    0.9316 C   0  0  0  0  0  0  0  0  0  0  0  0
    1.8909    1.0695    0.4503 H   0  0  0  0  0  0  0  0  0  0  0  0
    1.9179    2.6496    1.2477 H   0  0  0  0  0  0  0  0  0  0  0  0
    0.7876    1.3956    1.8062 H   0  0  0  0  0  0  0  0  0  0  0  0
   -0.1913    0.1554    1.7759 C   0  0  0  0  0  0  0  0  0  0  0  0
    0.9476   -0.0766    2.1748 O   0  0  0  0  0  0  0  0  0  0  0  0
   -1.1502    0.6393    2.5760 N   0  0  0  0  0  0  0  0  0  0  0  0
   -2.0581    0.8092    2.1736 H   0  0  0  0  0  0  0  0  0  0  0  0
   -0.9568    0.9369    3.9933 C   0  0  0  0  0  0  0  0  0  0  0  0
   -0.1600    1.6750    4.1097 H   0  0  0  0  0  0  0  0  0  0  0  0
   -1.8775    1.3307    4.4266 H   0  0  0  0  0  0  0  0  0  0  0  0
   -0.6678    0.0287    4.5244 H   0  0  0  0  0  0  0  0  0  0  0  0
  5  6  2  0  0  0  0
  5  7  1  0  0  0  0
  2  3  1  0  0  0  0
  2  4  1  0  0  0  0
  2  5  1  0  0  0  0
  1  2  1  0  0  0  0
 24 25  2  0  0  0  0
 24 26  1  0  0  0  0
 20 21  1  0  0  0  0
 20 22  1  0  0  0  0
 20 23  1  0  0  0  0
 16 17  1  0  0  0  0
 16 18  1  0  0  0  0
 16 19  1  0  0  0  0
 14 15  1  0  0  0  0
 14 16  1  0  0  0  0
 14 20  1  0  0  0  0
 11 12  1  0  0  0  0
 11 13  1  0  0  0  0
 11 14  1  0  0  0  0
  9 10  1  0  0  0  0
  9 11  1  0  0  0  0
  9 24  1  0  0  0  0
  7  8  1  0  0  0  0
  7  9  1  0  0  0  0
 28 29  1  0  0  0  0
 28 30  1  0  0  0  0
 28 31  1  0  0  0  0
 26 27  1  0  0  0  0
 26 28  1  0  0  0  0
M  END
$$$$
default_name
  -OEChem-02102213163D

 31 30  0     1  0  0  0  0  0999 V2000
   -3.5895   -3.5013    1.1082 H   0  0  0  0  0  0  0  0  0  0  0  0
   -3.5145   -2.5363    0.6082 C   0  0  0  0  0  0  0  0  0  0  0  0
   -4.2285   -1.8413    1.0452 H   0  0  0  0  0  0  0  0  0  0  0  0
   -3.7155   -2.6583   -0.4538 H   0  0  0  0  0  0  0  0  0  0  0  0
   -2.1155   -1.9963    0.7922 C   0  0  0  0  0  0  0  0  0  0  0  0
   -1.2875   -2.6383    1.4252 O   0  0  0  0  0  0  0  0  0  0  0  0
   -1.8575   -0.8123    0.2402 N   0  0  0  0  0  0  0  0  0  0  0  0
   -2.6005   -0.3333   -0.2478 H   0  0  0  0  0  0  0  0  0  0  0  0
   -0.5675   -0.1203    0.3102 C   0  0  1  0  0  0  0  0  0  0  0  0
    0.1932   -0.7715   -0.1219 H   0  0  0  0  0  0  0  0  0  0  0  0
   -0.6568    1.1713   -0.5294 C   0  0  0  0  0  0  0  0  0  0  0  0
   -0.3911    0.9352   -1.5617 H   0  0  0  0  0  0  0  0  0  0  0  0
   -1.6964    1.5060   -0.5238 H   0  0  0  0  0  0  0  0  0  0  0  0
    0.2257    2.3405   -0.0551 C   0  0  0  0  0  0  0  0  0  0  0  0
    0.5352    2.9393   -0.9117 H   0  0  0  0  0  0  0  0  0  0  0  0
   -0.4987    3.2433    0.9477 C   0  0  0  0  0  0  0  0  0  0  0  0
   -0.8294    2.6546    1.8046 H   0  0  0  0  0  0  0  0  0  0  0  0
    0.1775    4.0259    1.2924 H   0  0  0  0  0  0  0  0  0  0  0  0
   -1.3634    3.7146    0.4855 H   0  0  0  0  0  0  0  0  0  0  0  0
    1.4835    1.7967    0.6213 C   0  0  0  0  0  0  0  0  0  0  0  0
    2.0377    1.1744   -0.0812 H   0  0  0  0  0  0  0  0  0  0  0  0
    2.1230    2.6223    0.9334 H   0  0  0  0  0  0  0  0  0  0  0  0
    1.2131    1.2011    1.4940 H   0  0  0  0  0  0  0  0  0  0  0  0
   -0.1913    0.1554    1.7759 C   0  0  0  0  0  0  0  0  0  0  0  0
    0.9476   -0.0766    2.1748 O   0  0  0  0  0  0  0  0  0  0  0  0
   -1.1502    0.6393    2.5760 N   0  0  0  0  0  0  0  0  0  0  0  0
   -2.0581    0.8092    2.1736 H   0  0  0  0  0  0  0  0  0  0  0  0
   -0.9568    0.9369    3.9933 C   0  0  0  0  0  0  0  0  0  0  0  0
   -0.1600    1.6750    4.1097 H   0  0  0  0  0  0  0  0  0  0  0  0
   -1.8775    1.3307    4.4266 H   0  0  0  0  0  0  0  0  0  0  0  0
   -0.6678    0.0287    4.5244 H   0  0  0  0  0  0  0  0  0  0  0  0
  5  6  2  0  0  0  0
  5  7  1  0  0  0  0
  2  3  1  0  0  0  0
  2  4  1  0  0  0  0
  2  5  1  0  0  0  0
  1  2  1  0  0  0  0
 24 25  2  0  0  0  0
 24 26  1  0  0  0  0
 20 21  1  0  0  0  0
 20 22  1  0  0  0  0
 20 23  1  0  0  0  0
 16 17  1  0  0  0  0
 16 18  1  0  0  0  0
 16 19  1  0  0  0  0
 14 15  1  0  0  0  0
 14 16  1  0  0  0  0
 14 20  1  0  0  0  0
 11 12  1  0  0  0  0
 11 13  1  0  0  0  0
 11 14  1  0  0  0  0
  9 10  1  0  0  0  0
  9 11  1  0  0  0  0
  9 24  1  0  0  0  0
  7  8  1  0  0  0  0
  7  9  1  0  0  0  0
 28 29  1  0  0  0  0
 28 30  1  0  0  0  0
 28 31  1  0  0  0  0
 26 27  1  0  0  0  0
 26 28  1  0  0  0  0
M  END
$$$$
default_name
  -OEChem-02102213163D

 31 30  0     1  0  0  0  0  0999 V2000
   -3.5895   -3.5013    1.1082 H   0  0  0  0  0  0  0  0  0  0  0  0
   -3.5145   -2.5363    0.6082 C   0  0  0  0  0  0  0  0  0  0  0  0
   -4.2285   -1.8413    1.0452 H   0  0  0  0  0  0  0  0  0  0  0  0
   -3.7155   -2.6583   -0.4538 H   0  0  0  0  0  0  0  0  0  0  0  0
   -2.1155   -1.9963    0.7922 C   0  0  0  0  0  0  0  0  0  0  0  0
   -1.2875   -2.6383    1.4252 O   0  0  0  0  0  0  0  0  0  0  0  0
   -1.8575   -0.8123    0.2402 N   0  0  0  0  0  0  0  0  0  0  0  0
   -2.6005   -0.3333   -0.2478 H   0  0  0  0  0  0  0  0  0  0  0  0
   -0.5675   -0.1203    0.3102 C   0  0  1  0  0  0  0  0  0  0  0  0
    0.1932   -0.7715   -0.1219 H   0  0  0  0  0  0  0  0  0  0  0  0
   -0.6568    1.1713   -0.5294 C   0  0  0  0  0  0  0  0  0  0  0  0
   -0.3911    0.9352   -1.5617 H   0  0  0  0  0  0  0  0  0  0  0  0
   -1.6964    1.5060   -0.5238 H   0  0  0  0  0  0  0  0  0  0  0  0
    0.2257    2.3405   -0.0551 C   0  0  0  0  0  0  0  0  0  0  0  0
    0.3158    3.0801   -0.8507 H   0  0  0  0  0  0  0  0  0  0  0  0
   -0.3376    3.0210    1.1959 C   0  0  0  0  0  0  0  0  0  0  0  0
   -0.4489    2.2893    1.9973 H   0  0  0  0  0  0  0  0  0  0  0  0
    0.3422    3.8079    1.5235 H   0  0  0  0  0  0  0  0  0  0  0  0
   -1.3067    3.4687    0.9864 H   0  0  0  0  0  0  0  0  0  0  0  0
    1.6270    1.8286    0.2758 C   0  0  0  0  0  0  0  0  0  0  0  0
    2.0666    1.3662   -0.6079 H   0  0  0  0  0  0  0  0  0  0  0  0
    2.2616    2.6590    0.5855 H   0  0  0  0  0  0  0  0  0  0  0  0
    1.5783    1.0935    1.0800 H   0  0  0  0  0  0  0  0  0  0  0  0
   -0.1913    0.1554    1.7759 C   0  0  0  0  0  0  0  0  0  0  0  0
    0.9476   -0.0766    2.1748 O   0  0  0  0  0  0  0  0  0  0  0  0
   -1.1502    0.6393    2.5760 N   0  0  0  0  0  0  0  0  0  0  0  0
   -2.0581    0.8092    2.1736 H   0  0  0  0  0  0  0  0  0  0  0  0
   -0.9568    0.9369    3.9933 C   0  0  0  0  0  0  0  0  0  0  0  0
   -0.1600    1.6750    4.1097 H   0  0  0  0  0  0  0  0  0  0  0  0
   -1.8775    1.3307    4.4266 H   0  0  0  0  0  0  0  0  0  0  0  0
   -0.6678    0.0287    4.5244 H   0  0  0  0  0  0  0  0  0  0  0  0
  5  6  2  0  0  0  0
  5  7  1  0  0  0  0
  2  3  1  0  0  0  0
  2  4  1  0  0  0  0
  2  5  1  0  0  0  0
  1  2  1  0  0  0  0
 24 25  2  0  0  0  0
 24 26  1  0  0  0  0
 20 21  1  0  0  0  0
 20 22  1  0  0  0  0
 20 23  1  0  0  0  0
 16 17  1  0  0  0  0
 16 18  1  0  0  0  0
 16 19  1  0  0  0  0
 14 15  1  0  0  0  0
 14 16  1  0  0  0  0
 14 20  1  0  0  0  0
 11 12  1  0  0  0  0
 11 13  1  0  0  0  0
 11 14  1  0  0  0  0
  9 10  1  0  0  0  0
  9 11  1  0  0  0  0
  9 24  1  0  0  0  0
  7  8  1  0  0  0  0
  7  9  1  0  0  0  0
 28 29  1  0  0  0  0
 28 30  1  0  0  0  0
 28 31  1  0  0  0  0
 26 27  1  0  0  0  0
 26 28  1  0  0  0  0
M  END
$$$$
default_name
  -OEChem-02102213163D

 31 30  0     1  0  0  0  0  0999 V2000
   -3.5895   -3.5013    1.1082 H   0  0  0  0  0  0  0  0  0  0  0  0
   -3.5145   -2.5363    0.6082 C   0  0  0  0  0  0  0  0  0  0  0  0
   -4.2285   -1.8413    1.0452 H   0  0  0  0  0  0  0  0  0  0  0  0
   -3.7155   -2.6583   -0.4538 H   0  0  0  0  0  0  0  0  0  0  0  0
   -2.1155   -1.9963    0.7922 C   0  0  0  0  0  0  0  0  0  0  0  0
   -1.2875   -2.6383    1.4252 O   0  0  0  0  0  0  0  0  0  0  0  0
   -1.8575   -0.8123    0.2402 N   0  0  0  0  0  0  0  0  0  0  0  0
   -2.6005   -0.3333   -0.2478 H   0  0  0  0  0  0  0  0  0  0  0  0
   -0.5675   -0.1203    0.3102 C   0  0  1  0  0  0  0  0  0  0  0  0
    0.1932   -0.7715   -0.1219 H   0  0  0  0  0  0  0  0  0  0  0  0
   -0.6568    1.1713   -0.5294 C   0  0  0  0  0  0  0  0  0  0  0  0
   -0.3911    0.9352   -1.5617 H   0  0  0  0  0  0  0  0  0  0  0  0
   -1.6964    1.5060   -0.5238 H   0  0  0  0  0  0  0  0  0  0  0  0
    0.2257    2.3405   -0.0551 C   0  0  0  0  0  0  0  0  0  0  0  0
    0.1045    3.1897   -0.7277 H   0  0  0  0  0  0  0  0  0  0  0  0
   -0.1155    2.7823    1.3710 C   0  0  0  0  0  0  0  0  0  0  0  0
   -0.0145    1.9382    2.0546 H   0  0  0  0  0  0  0  0  0  0  0  0
    0.5640    3.5762    1.6819 H   0  0  0  0  0  0  0  0  0  0  0  0
   -1.1339    3.1613    1.4225 H   0  0  0  0  0  0  0  0  0  0  0  0
    1.6952    1.9220   -0.0814 C   0  0  0  0  0  0  0  0  0  0  0  0
    1.9758    1.6320   -1.0939 H   0  0  0  0  0  0  0  0  0  0  0  0
    2.3241    2.7570    0.2276 H   0  0  0  0  0  0  0  0  0  0  0  0
    1.8582    1.0801    0.5924 H   0  0  0  0  0  0  0  0  0  0  0  0
   -0.1913    0.1554    1.7759 C   0  0  0  0  0  0  0  0  0  0  0  0
    0.9476   -0.0766    2.1748 O   0  0  0  0  0  0  0  0  0  0  0  0
   -1.1502    0.6393    2.5760 N   0  0  0  0  0  0  0  0  0  0  0  0
   -2.0581    0.8092    2.1736 H   0  0  0  0  0  0  0  0  0  0  0  0
   -0.9568    0.9369    3.9933 C   0  0  0  0  0  0  0  0  0  0  0  0
   -0.1600    1.6750    4.1097 H   0  0  0  0  0  0  0  0  0  0  0  0
   -1.8775    1.3307    4.4266 H   0  0  0  0  0  0  0  0  0  0  0  0
   -0.6678    0.0287    4.5244 H   0  0  0  0  0  0  0  0  0  0  0  0
  5  6  2  0  0  0  0
  5  7  1  0  0  0  0
  2  3  1  0  0  0  0
  2  4  1  0  0  0  0
  2  5  1  0  0  0  0
  1  2  1  0  0  0  0
 24 25  2  0  0  0  0
 24 26  1  0  0  0  0
 20 21  1  0  0  0  0
 20 22  1  0  0  0  0
 20 23  1  0  0  0  0
 16 17  1  0  0  0  0
 16 18  1  0  0  0  0
 16 19  1  0  0  0  0
 14 15  1  0  0  0  0
 14 16  1  0  0  0  0
 14 20  1  0  0  0  0
 11 12  1  0  0  0  0
 11 13  1  0  0  0  0
 11 14  1  0  0  0  0
  9 10  1  0  0  0  0
  9 11  1  0  0  0  0
  9 24  1  0  0  0  0
  7  8  1  0  0  0  0
  7  9  1  0  0  0  0
 28 29  1  0  0  0  0
 28 30  1  0  0  0  0
 28 31  1  0  0  0  0
 26 27  1  0  0  0  0
 26 28  1  0  0  0  0
M  END
$$$$
default_name
  -OEChem-02102213163D

 31 30  0     1  0  0  0  0  0999 V2000
   -3.5895   -3.5013    1.1082 H   0  0  0  0  0  0  0  0  0  0  0  0
   -3.5145   -2.5363    0.6082 C   0  0  0  0  0  0  0  0  0  0  0  0
   -4.2285   -1.8413    1.0452 H   0  0  0  0  0  0  0  0  0  0  0  0
   -3.7155   -2.6583   -0.4538 H   0  0  0  0  0  0  0  0  0  0  0  0
   -2.1155   -1.9963    0.7922 C   0  0  0  0  0  0  0  0  0  0  0  0
   -1.2875   -2.6383    1.4252 O   0  0  0  0  0  0  0  0  0  0  0  0
   -1.8575   -0.8123    0.2402 N   0  0  0  0  0  0  0  0  0  0  0  0
   -2.6005   -0.3333   -0.2478 H   0  0  0  0  0  0  0  0  0  0  0  0
   -0.5675   -0.1203    0.3102 C   0  0  1  0  0  0  0  0  0  0  0  0
    0.1932   -0.7715   -0.1219 H   0  0  0  0  0  0  0  0  0  0  0  0
   -0.6568    1.1713   -0.5294 C   0  0  0  0  0  0  0  0  0  0  0  0
   -0.3911    0.9352   -1.5617 H   0  0  0  0  0  0  0  0  0  0  0  0
   -1.6964    1.5060   -0.5238 H   0  0  0  0  0  0  0  0  0  0  0  0
    0.2257    2.3405   -0.0551 C   0  0  0  0  0  0  0  0  0  0  0  0
   -0.0841    3.2604   -0.5512 H   0  0  0  0  0  0  0  0  0  0  0  0
    0.1525    2.5435    1.4611 C   0  0  0  0  0  0  0  0  0  0  0  0
    0.4445    1.6252    1.9724 H   0  0  0  0  0  0  0  0  0  0  0  0
    0.8279    3.3465    1.7570 H   0  0  0  0  0  0  0  0  0  0  0  0
   -0.8568    2.8135    1.7643 H   0  0  0  0  0  0  0  0  0  0  0  0
    1.6834    2.0707   -0.4260 C   0  0  0  0  0  0  0  0  0  0  0  0
    1.7713    1.9535   -1.5060 H   0  0  0  0  0  0  0  0  0  0  0  0
    2.3063    2.9098   -0.1158 H   0  0  0  0  0  0  0  0  0  0  0  0
    2.0338    1.1618    0.0644 H   0  0  0  0  0  0  0  0  0  0  0  0
   -0.1913    0.1554    1.7759 C   0  0  0  0  0  0  0  0  0  0  0  0
    0.9476   -0.0766    2.1748 O   0  0  0  0  0  0  0  0  0  0  0  0
   -1.1502    0.6393    2.5760 N   0  0  0  0  0  0  0  0  0  0  0  0
   -2.0581    0.8092    2.1736 H   0  0  0  0  0  0  0  0  0  0  0  0
   -0.9568    0.9369    3.9933 C   0  0  0  0  0  0  0  0  0  0  0  0
   -0.1600    1.6750    4.1097 H   0  0  0  0  0  0  0  0  0  0  0  0
   -1.8775    1.3307    4.4266 H   0  0  0  0  0  0  0  0  0  0  0  0
   -0.6678    0.0287    4.5244 H   0  0  0  0  0  0  0  0  0  0  0  0
  5  6  2  0  0  0  0
  5  7  1  0  0  0  0
  2  3  1  0  0  0  0
  2  4  1  0  0  0  0
  2  5  1  0  0  0  0
  1  2  1  0  0  0  0
 24 25  2  0  0  0  0
 24 26  1  0  0  0  0
 20 21  1  0  0  0  0
 20 22  1  0  0  0  0
 20 23  1  0  0  0  0
 16 17  1  0  0  0  0
 16 18  1  0  0  0  0
 16 19  1  0  0  0  0
 14 15  1  0  0  0  0
 14 16  1  0  0  0  0
 14 20  1  0  0  0  0
 11 12  1  0  0  0  0
 11 13  1  0  0  0  0
 11 14  1  0  0  0  0
  9 10  1  0  0  0  0
  9 11  1  0  0  0  0
  9 24  1  0  0  0  0
  7  8  1  0  0  0  0
  7  9  1  0  0  0  0
 28 29  1  0  0  0  0
 28 30  1  0  0  0  0
 28 31  1  0  0  0  0
 26 27  1  0  0  0  0
 26 28  1  0  0  0  0
M  END
$$$$
default_name
  -OEChem-02102213163D

 31 30  0     1  0  0  0  0  0999 V2000
   -3.5895   -3.5013    1.1082 H   0  0  0  0  0  0  0  0  0  0  0  0
   -3.5145   -2.5363    0.6082 C   0  0  0  0  0  0  0  0  0  0  0  0
   -4.2285   -1.8413    1.0452 H   0  0  0  0  0  0  0  0  0  0  0  0
   -3.7155   -2.6583   -0.4538 H   0  0  0  0  0  0  0  0  0  0  0  0
   -2.1155   -1.9963    0.7922 C   0  0  0  0  0  0  0  0  0  0  0  0
   -1.2875   -2.6383    1.4252 O   0  0  0  0  0  0  0  0  0  0  0  0
   -1.8575   -0.8123    0.2402 N   0  0  0  0  0  0  0  0  0  0  0  0
   -2.6005   -0.3333   -0.2478 H   0  0  0  0  0  0  0  0  0  0  0  0
   -0.5675   -0.1203    0.3102 C   0  0  1  0  0  0  0  0  0  0  0  0
    0.1932   -0.7715   -0.1219 H   0  0  0  0  0  0  0  0  0  0  0  0
   -0.6568    1.1713   -0.5294 C   0  0  0  0  0  0  0  0  0  0  0  0
   -0.3911    0.9352   -1.5617 H   0  0  0  0  0  0  0  0  0  0  0  0
   -1.6964    1.5060   -0.5238 H   0  0  0  0  0  0  0  0  0  0  0  0
    0.2257    2.3405   -0.0551 C   0  0  0  0  0  0  0  0  0  0  0  0
   -0.2372    3.2874   -0.3331 H   0  0  0  0  0  0  0  0  0  0  0  0
    0.4481    2.3209    1.4600 C   0  0  0  0  0  0  0  0  0  0  0  0
    0.8966    1.3717    1.7563 H   0  0  0  0  0  0  0  0  0  0  0  0
    1.1159    3.1346    1.7436 H   0  0  0  0  0  0  0  0  0  0  0  0
   -0.4942    2.4490    1.9883 H   0  0  0  0  0  0  0  0  0  0  0  0
    1.5924    2.2646   -0.7345 C   0  0  0  0  0  0  0  0  0  0  0  0
    1.4671    2.3089   -1.8163 H   0  0  0  0  0  0  0  0  0  0  0  0
    2.2094    3.1068   -0.4214 H   0  0  0  0  0  0  0  0  0  0  0  0
    2.0931    1.3331   -0.4680 H   0  0  0  0  0  0  0  0  0  0  0  0
   -0.1913    0.1554    1.7759 C   0  0  0  0  0  0  0  0  0  0  0  0
    0.9476   -0.0766    2.1748 O   0  0  0  0  0  0  0  0  0  0  0  0
   -1.1502    0.6393    2.5760 N   0  0  0  0  0  0  0  0  0  0  0  0
   -2.0581    0.8092    2.1736 H   0  0  0  0  0  0  0  0  0  0  0  0
   -0.9568    0.9369    3.9933 C   0  0  0  0  0  0  0  0  0  0  0  0
   -0.1600    1.6750    4.1097 H   0  0  0  0  0  0  0  0  0  0  0  0
   -1.8775    1.3307    4.4266 H   0  0  0  0  0  0  0  0  0  0  0  0
   -0.6678    0.0287    4.5244 H   0  0  0  0  0  0  0  0  0  0  0  0
  5  6  2  0  0  0  0
  5  7  1  0  0  0  0
  2  3  1  0  0  0  0
  2  4  1  0  0  0  0
  2  5  1  0  0  0  0
  1  2  1  0  0  0  0
 24 25  2  0  0  0  0
 24 26  1  0  0  0  0
 20 21  1  0  0  0  0
 20 22  1  0  0  0  0
 20 23  1  0  0  0  0
 16 17  1  0  0  0  0
 16 18  1  0  0  0  0
 16 19  1  0  0  0  0
 14 15  1  0  0  0  0
 14 16  1  0  0  0  0
 14 20  1  0  0  0  0
 11 12  1  0  0  0  0
 11 13  1  0  0  0  0
 11 14  1  0  0  0  0
  9 10  1  0  0  0  0
  9 11  1  0  0  0  0
  9 24  1  0  0  0  0
  7  8  1  0  0  0  0
  7  9  1  0  0  0  0
 28 29  1  0  0  0  0
 28 30  1  0  0  0  0
 28 31  1  0  0  0  0
 26 27  1  0  0  0  0
 26 28  1  0  0  0  0
M  END
$$$$
default_name
  -OEChem-02102213163D

 31 30  0     1  0  0  0  0  0999 V2000
   -3.5895   -3.5013    1.1082 H   0  0  0  0  0  0  0  0  0  0  0  0
   -3.5145   -2.5363    0.6082 C   0  0  0  0  0  0  0  0  0  0  0  0
   -4.2285   -1.8413    1.0452 H   0  0  0  0  0  0  0  0  0  0  0  0
   -3.7155   -2.6583   -0.4538 H   0  0  0  0  0  0  0  0  0  0  0  0
   -2.1155   -1.9963    0.7922 C   0  0  0  0  0  0  0  0  0  0  0  0
   -1.2875   -2.6383    1.4252 O   0  0  0  0  0  0  0  0  0  0  0  0
   -1.8575   -0.8123    0.2402 N   0  0  0  0  0  0  0  0  0  0  0  0
   -2.6005   -0.3333   -0.2478 H   0  0  0  0  0  0  0  0  0  0  0  0
   -0.5675   -0.1203    0.3102 C   0  0  1  0  0  0  0  0  0  0  0  0
    0.1932   -0.7715   -0.1219 H   0  0  0  0  0  0  0  0  0  0  0  0
   -0.6568    1.1713   -0.5294 C   0  0  0  0  0  0  0  0  0  0  0  0
   -0.3911    0.9352   -1.5617 H   0  0  0  0  0  0  0  0  0  0  0  0
   -1.6964    1.5060   -0.5238 H   0  0  0  0  0  0  0  0  0  0  0  0
    0.2257    2.3405   -0.0551 C   0  0  0  0  0  0  0  0  0  0  0  0
   -0.3444    3.2690   -0.0883 H   0  0  0  0  0  0  0  0  0  0  0  0
    0.7512    2.1296    1.3678 C   0  0  0  0  0  0  0  0  0  0  0  0
    1.3110    1.1948    1.4212 H   0  0  0  0  0  0  0  0  0  0  0  0
    1.4083    2.9549    1.6427 H   0  0  0  0  0  0  0  0  0  0  0  0
   -0.0709    2.0925    2.0794 H   0  0  0  0  0  0  0  0  0  0  0  0
    1.4285    2.4903   -0.9858 C   0  0  0  0  0  0  0  0  0  0  0  0
    1.0840    2.6740   -2.0034 H   0  0  0  0  0  0  0  0  0  0  0  0
    2.0401    3.3348   -0.6683 H   0  0  0  0  0  0  0  0  0  0  0  0
    2.0321    1.5821   -0.9685 H   0  0  0  0  0  0  0  0  0  0  0  0
   -0.1913    0.1554    1.7759 C   0  0  0  0  0  0  0  0  0  0  0  0
    0.9476   -0.0766    2.1748 O   0  0  0  0  0  0  0  0  0  0  0  0
   -1.1502    0.6393    2.5760 N   0  0  0  0  0  0  0  0  0  0  0  0
   -2.0581    0.8092    2.1736 H   0  0  0  0  0  0  0  0  0  0  0  0
   -0.9568    0.9369    3.9933 C   0  0  0  0  0  0  0  0  0  0  0  0
   -0.1600    1.6750    4.1097 H   0  0  0  0  0  0  0  0  0  0  0  0
   -1.8775    1.3307    4.4266 H   0  0  0  0  0  0  0  0  0  0  0  0
   -0.6678    0.0287    4.5244 H   0  0  0  0  0  0  0  0  0  0  0  0
  5  6  2  0  0  0  0
  5  7  1  0  0  0  0
  2  3  1  0  0  0  0
  2  4  1  0  0  0  0
  2  5  1  0  0  0  0
  1  2  1  0  0  0  0
 24 25  2  0  0  0  0
 24 26  1  0  0  0  0
 20 21  1  0  0  0  0
 20 22  1  0  0  0  0
 20 23  1  0  0  0  0
 16 17  1  0  0  0  0
 16 18  1  0  0  0  0
 16 19  1  0  0  0  0
 14 15  1  0  0  0  0
 14 16  1  0  0  0  0
 14 20  1  0  0  0  0
 11 12  1  0  0  0  0
 11 13  1  0  0  0  0
 11 14  1  0  0  0  0
  9 10  1  0  0  0  0
  9 11  1  0  0  0  0
  9 24  1  0  0  0  0
  7  8  1  0  0  0  0
  7  9  1  0  0  0  0
 28 29  1  0  0  0  0
 28 30  1  0  0  0  0
 28 31  1  0  0  0  0
 26 27  1  0  0  0  0
 26 28  1  0  0  0  0
M  END
$$$$
default_name
  -OEChem-02102213163D

 31 30  0     1  0  0  0  0  0999 V2000
   -3.5895   -3.5013    1.1082 H   0  0  0  0  0  0  0  0  0  0  0  0
   -3.5145   -2.5363    0.6082 C   0  0  0  0  0  0  0  0  0  0  0  0
   -4.2285   -1.8413    1.0452 H   0  0  0  0  0  0  0  0  0  0  0  0
   -3.7155   -2.6583   -0.4538 H   0  0  0  0  0  0  0  0  0  0  0  0
   -2.1155   -1.9963    0.7922 C   0  0  0  0  0  0  0  0  0  0  0  0
   -1.2875   -2.6383    1.4252 O   0  0  0  0  0  0  0  0  0  0  0  0
   -1.8575   -0.8123    0.2402 N   0  0  0  0  0  0  0  0  0  0  0  0
   -2.6005   -0.3333   -0.2478 H   0  0  0  0  0  0  0  0  0  0  0  0
   -0.5675   -0.1203    0.3102 C   0  0  1  0  0  0  0  0  0  0  0  0
    0.1932   -0.7715   -0.1219 H   0  0  0  0  0  0  0  0  0  0  0  0
   -0.6568    1.1713   -0.5294 C   0  0  0  0  0  0  0  0  0  0  0  0
   -0.3911    0.9352   -1.5617 H   0  0  0  0  0  0  0  0  0  0  0  0
   -1.6964    1.5060   -0.5238 H   0  0  0  0  0  0  0  0  0  0  0  0
    0.2257    2.3405   -0.0551 C   0  0  0  0  0  0  0  0  0  0  0  0
   -0.3983    3.2064    0.1664 H   0  0  0  0  0  0  0  0  0  0  0  0
    1.0410    1.9826    1.1908 C   0  0  0  0  0  0  0  0  0  0  0  0
    1.6596    1.1068    0.9898 H   0  0  0  0  0  0  0  0  0  0  0  0
    1.6852    2.8196    1.4610 H   0  0  0  0  0  0  0  0  0  0  0  0
    0.3844    1.7685    2.0313 H   0  0  0  0  0  0  0  0  0  0  0  0
    1.2027    2.7325   -1.1628 C   0  0  0  0  0  0  0  0  0  0  0  0
    0.6481    3.0238   -2.0548 H   0  0  0  0  0  0  0  0  0  0  0  0
    1.8098    3.5781   -0.8396 H   0  0  0  0  0  0  0  0  0  0  0  0
    1.8550    1.8921   -1.4031 H   0  0  0  0  0  0  0  0  0  0  0  0
   -0.1913    0.1554    1.7759 C   0  0  0  0  0  0  0  0  0  0  0  0
    0.9476   -0.0766    2.1748 O   0  0  0  0  0  0  0  0  0  0  0  0
   -1.1502    0.6393    2.5760 N   0  0  0  0  0  0  0  0  0  0  0  0
   -2.0581    0.8092    2.1736 H   0  0  0  0  0  0  0  0  0  0  0  0
   -0.9568    0.9369    3.9933 C   0  0  0  0  0  0  0  0  0  0  0  0
   -0.1600    1.6750    4.1097 H   0  0  0  0  0  0  0  0  0  0  0  0
   -1.8775    1.3307    4.4266 H   0  0  0  0  0  0  0  0  0  0  0  0
   -0.6678    0.0287    4.5244 H   0  0  0  0  0  0  0  0  0  0  0  0
  5  6  2  0  0  0  0
  5  7  1  0  0  0  0
  2  3  1  0  0  0  0
  2  4  1  0  0  0  0
  2  5  1  0  0  0  0
  1  2  1  0  0  0  0
 24 25  2  0  0  0  0
 24 26  1  0  0  0  0
 20 21  1  0  0  0  0
 20 22  1  0  0  0  0
 20 23  1  0  0  0  0
 16 17  1  0  0  0  0
 16 18  1  0  0  0  0
 16 19  1  0  0  0  0
 14 15  1  0  0  0  0
 14 16  1  0  0  0  0
 14 20  1  0  0  0  0
 11 12  1  0  0  0  0
 11 13  1  0  0  0  0
 11 14  1  0  0  0  0
  9 10  1  0  0  0  0
  9 11  1  0  0  0  0
  9 24  1  0  0  0  0
  7  8  1  0  0  0  0
  7  9  1  0  0  0  0
 28 29  1  0  0  0  0
 28 30  1  0  0  0  0
 28 31  1  0  0  0  0
 26 27  1  0  0  0  0
 26 28  1  0  0  0  0
M  END
$$$$
default_name
  -OEChem-02102213163D

 31 30  0     1  0  0  0  0  0999 V2000
   -3.5895   -3.5013    1.1082 H   0  0  0  0  0  0  0  0  0  0  0  0
   -3.5145   -2.5363    0.6082 C   0  0  0  0  0  0  0  0  0  0  0  0
   -4.2285   -1.8413    1.0452 H   0  0  0  0  0  0  0  0  0  0  0  0
   -3.7155   -2.6583   -0.4538 H   0  0  0  0  0  0  0  0  0  0  0  0
   -2.1155   -1.9963    0.7922 C   0  0  0  0  0  0  0  0  0  0  0  0
   -1.2875   -2.6383    1.4252 O   0  0  0  0  0  0  0  0  0  0  0  0
   -1.8575   -0.8123    0.2402 N   0  0  0  0  0  0  0  0  0  0  0  0
   -2.6005   -0.3333   -0.2478 H   0  0  0  0  0  0  0  0  0  0  0  0
   -0.5675   -0.1203    0.3102 C   0  0  1  0  0  0  0  0  0  0  0  0
    0.1932   -0.7715   -0.1219 H   0  0  0  0  0  0  0  0  0  0  0  0
   -0.6568    1.1713   -0.5294 C   0  0  0  0  0  0  0  0  0  0  0  0
   -0.3911    0.9352   -1.5617 H   0  0  0  0  0  0  0  0  0  0  0  0
   -1.6964    1.5060   -0.5238 H   0  0  0  0  0  0  0  0  0  0  0  0
    0.2257    2.3405   -0.0551 C   0  0  0  0  0  0  0  0  0  0  0  0
   -0.3954    3.1038    0.4138 H   0  0  0  0  0  0  0  0  0  0  0  0
    1.2980    1.8900    0.9411 C   0  0  0  0  0  0  0  0  0  0  0  0
    1.9185    1.1136    0.4916 H   0  0  0  0  0  0  0  0  0  0  0  0
    1.9278    2.7380    1.2110 H   0  0  0  0  0  0  0  0  0  0  0  0
    0.8405    1.4989    1.8473 H   0  0  0  0  0  0  0  0  0  0  0  0
    0.9305    2.9747   -1.2536 C   0  0  0  0  0  0  0  0  0  0  0  0
    0.1890    3.3345   -1.9668 H   0  0  0  0  0  0  0  0  0  0  0  0
    1.5343    3.8202   -0.9238 H   0  0  0  0  0  0  0  0  0  0  0  0
    1.5737    2.2419   -1.7420 H   0  0  0  0  0  0  0  0  0  0  0  0
   -0.1913    0.1554    1.7759 C   0  0  0  0  0  0  0  0  0  0  0  0
    0.9476   -0.0766    2.1748 O   0  0  0  0  0  0  0  0  0  0  0  0
   -1.1502    0.6393    2.5760 N   0  0  0  0  0  0  0  0  0  0  0  0
   -2.0581    0.8092    2.1736 H   0  0  0  0  0  0  0  0  0  0  0  0
   -0.9568    0.9369    3.9933 C   0  0  0  0  0  0  0  0  0  0  0  0
   -0.1600    1.6750    4.1097 H   0  0  0  0  0  0  0  0  0  0  0  0
   -1.8775    1.3307    4.4266 H   0  0  0  0  0  0  0  0  0  0  0  0
   -0.6678    0.0287    4.5244 H   0  0  0  0  0  0  0  0  0  0  0  0
  5  6  2  0  0  0  0
  5  7  1  0  0  0  0
  2  3  1  0  0  0  0
  2  4  1  0  0  0  0
  2  5  1  0  0  0  0
  1  2  1  0  0  0  0
 24 25  2  0  0  0  0
 24 26  1  0  0  0  0
 20 21  1  0  0  0  0
 20 22  1  0  0  0  0
 20 23  1  0  0  0  0
 16 17  1  0  0  0  0
 16 18  1  0  0  0  0
 16 19  1  0  0  0  0
 14 15  1  0  0  0  0
 14 16  1  0  0  0  0
 14 20  1  0  0  0  0
 11 12  1  0  0  0  0
 11 13  1  0  0  0  0
 11 14  1  0  0  0  0
  9 10  1  0  0  0  0
  9 11  1  0  0  0  0
  9 24  1  0  0  0  0
  7  8  1  0  0  0  0
  7  9  1  0  0  0  0
 28 29  1  0  0  0  0
 28 30  1  0  0  0  0
 28 31  1  0  0  0  0
 26 27  1  0  0  0  0
 26 28  1  0  0  0  0
M  END
$$$$
default_name
  -OEChem-02102213163D

 31 30  0     1  0  0  0  0  0999 V2000
   -3.5895   -3.5013    1.1082 H   0  0  0  0  0  0  0  0  0  0  0  0
   -3.5145   -2.5363    0.6082 C   0  0  0  0  0  0  0  0  0  0  0  0
   -4.2285   -1.8413    1.0452 H   0  0  0  0  0  0  0  0  0  0  0  0
   -3.7155   -2.6583   -0.4538 H   0  0  0  0  0  0  0  0  0  0  0  0
   -2.1155   -1.9963    0.7922 C   0  0  0  0  0  0  0  0  0  0  0  0
   -1.2875   -2.6383    1.4252 O   0  0  0  0  0  0  0  0  0  0  0  0
   -1.8575   -0.8123    0.2402 N   0  0  0  0  0  0  0  0  0  0  0  0
   -2.6005   -0.3333   -0.2478 H   0  0  0  0  0  0  0  0  0  0  0  0
   -0.5675   -0.1203    0.3102 C   0  0  1  0  0  0  0  0  0  0  0  0
    0.1932   -0.7715   -0.1219 H   0  0  0  0  0  0  0  0  0  0  0  0
   -0.6568    1.1713   -0.5294 C   0  0  0  0  0  0  0  0  0  0  0  0
   -0.3911    0.9352   -1.5617 H   0  0  0  0  0  0  0  0  0  0  0  0
   -1.6964    1.5060   -0.5238 H   0  0  0  0  0  0  0  0  0  0  0  0
    0.2257    2.3405   -0.0551 C   0  0  0  0  0  0  0  0  0  0  0  0
   -0.3358    2.9683    0.6370 H   0  0  0  0  0  0  0  0  0  0  0  0
    1.5045    1.8581    0.6357 C   0  0  0  0  0  0  0  0  0  0  0  0
    2.0701    1.2146   -0.0396 H   0  0  0  0  0  0  0  0  0  0  0  0
    2.1195    2.7155    0.9098 H   0  0  0  0  0  0  0  0  0  0  0  0
    1.2664    1.3022    1.5400 H   0  0  0  0  0  0  0  0  0  0  0  0
    0.6305    3.2004   -1.2518 C   0  0  0  0  0  0  0  0  0  0  0  0
   -0.2619    3.5851   -1.7455 H   0  0  0  0  0  0  0  0  0  0  0  0
    1.2323    4.0445   -0.9151 H   0  0  0  0  0  0  0  0  0  0  0  0
    1.2076    2.6076   -1.9623 H   0  0  0  0  0  0  0  0  0  0  0  0
   -0.1913    0.1554    1.7759 C   0  0  0  0  0  0  0  0  0  0  0  0
    0.9476   -0.0766    2.1748 O   0  0  0  0  0  0  0  0  0  0  0  0
   -1.1502    0.6393    2.5760 N   0  0  0  0  0  0  0  0  0  0  0  0
   -2.0581    0.8092    2.1736 H   0  0  0  0  0  0  0  0  0  0  0  0
   -0.9568    0.9369    3.9933 C   0  0  0  0  0  0  0  0  0  0  0  0
   -0.1600    1.6750    4.1097 H   0  0  0  0  0  0  0  0  0  0  0  0
   -1.8775    1.3307    4.4266 H   0  0  0  0  0  0  0  0  0  0  0  0
   -0.6678    0.0287    4.5244 H   0  0  0  0  0  0  0  0  0  0  0  0
  5  6  2  0  0  0  0
  5  7  1  0  0  0  0
  2  3  1  0  0  0  0
  2  4  1  0  0  0  0
  2  5  1  0  0  0  0
  1  2  1  0  0  0  0
 24 25  2  0  0  0  0
 24 26  1  0  0  0  0
 20 21  1  0  0  0  0
 20 22  1  0  0  0  0
 20 23  1  0  0  0  0
 16 17  1  0  0  0  0
 16 18  1  0  0  0  0
 16 19  1  0  0  0  0
 14 15  1  0  0  0  0
 14 16  1  0  0  0  0
 14 20  1  0  0  0  0
 11 12  1  0  0  0  0
 11 13  1  0  0  0  0
 11 14  1  0  0  0  0
  9 10  1  0  0  0  0
  9 11  1  0  0  0  0
  9 24  1  0  0  0  0
  7  8  1  0  0  0  0
  7  9  1  0  0  0  0
 28 29  1  0  0  0  0
 28 30  1  0  0  0  0
 28 31  1  0  0  0  0
 26 27  1  0  0  0  0
 26 28  1  0  0  0  0
M  END
$$$$
default_name
  -OEChem-02102213163D

 31 30  0     1  0  0  0  0  0999 V2000
   -3.5895   -3.5013    1.1082 H   0  0  0  0  0  0  0  0  0  0  0  0
   -3.5145   -2.5363    0.6082 C   0  0  0  0  0  0  0  0  0  0  0  0
   -4.2285   -1.8413    1.0452 H   0  0  0  0  0  0  0  0  0  0  0  0
   -3.7155   -2.6583   -0.4538 H   0  0  0  0  0  0  0  0  0  0  0  0
   -2.1155   -1.9963    0.7922 C   0  0  0  0  0  0  0  0  0  0  0  0
   -1.2875   -2.6383    1.4252 O   0  0  0  0  0  0  0  0  0  0  0  0
   -1.8575   -0.8123    0.2402 N   0  0  0  0  0  0  0  0  0  0  0  0
   -2.6005   -0.3333   -0.2478 H   0  0  0  0  0  0  0  0  0  0  0  0
   -0.5675   -0.1203    0.3102 C   0  0  1  0  0  0  0  0  0  0  0  0
    0.1932   -0.7715   -0.1219 H   0  0  0  0  0  0  0  0  0  0  0  0
   -0.6568    1.1713   -0.5294 C   0  0  0  0  0  0  0  0  0  0  0  0
   -0.3911    0.9352   -1.5617 H   0  0  0  0  0  0  0  0  0  0  0  0
   -1.6964    1.5060   -0.5238 H   0  0  0  0  0  0  0  0  0  0  0  0
    0.2257    2.3405   -0.0551 C   0  0  0  0  0  0  0  0  0  0  0  0
   -0.2235    2.8090    0.8207 H   0  0  0  0  0  0  0  0  0  0  0  0
    1.6464    1.8890    0.2953 C   0  0  0  0  0  0  0  0  0  0  0  0
    2.1041    1.4031   -0.5675 H   0  0  0  0  0  0  0  0  0  0  0  0
    2.2473    2.7538    0.5778 H   0  0  0  0  0  0  0  0  0  0  0  0
    1.6330    1.1917    1.1302 H   0  0  0  0  0  0  0  0  0  0  0  0
    0.3230    3.3943   -1.1576 C   0  0  0  0  0  0  0  0  0  0  0  0
   -0.6739    3.7583   -1.4060 H   0  0  0  0  0  0  0  0  0  0  0  0
    0.9245    4.2358   -0.8141 H   0  0  0  0  0  0  0  0  0  0  0  0
    0.7815    2.9642   -2.0488 H   0  0  0  0  0  0  0  0  0  0  0  0
   -0.1913    0.1554    1.7759 C   0  0  0  0  0  0  0  0  0  0  0  0
    0.9476   -0.0766    2.1748 O   0  0  0  0  0  0  0  0  0  0  0  0
   -1.1502    0.6393    2.5760 N   0  0  0  0  0  0  0  0  0  0  0  0
   -2.0581    0.8092    2.1736 H   0  0  0  0  0  0  0  0  0  0  0  0
   -0.9568    0.9369    3.9933 C   0  0  0  0  0  0  0  0  0  0  0  0
   -0.1600    1.6750    4.1097 H   0  0  0  0  0  0  0  0  0  0  0  0
   -1.8775    1.3307    4.4266 H   0  0  0  0  0  0  0  0  0  0  0  0
   -0.6678    0.0287    4.5244 H   0  0  0  0  0  0  0  0  0  0  0  0
  5  6  2  0  0  0  0
  5  7  1  0  0  0  0
  2  3  1  0  0  0  0
  2  4  1  0  0  0  0
  2  5  1  0  0  0  0
  1  2  1  0  0  0  0
 24 25  2  0  0  0  0
 24 26  1  0  0  0  0
 20 21  1  0  0  0  0
 20 22  1  0  0  0  0
 20 23  1  0  0  0  0
 16 17  1  0  0  0  0
 16 18  1  0  0  0  0
 16 19  1  0  0  0  0
 14 15  1  0  0  0  0
 14 16  1  0  0  0  0
 14 20  1  0  0  0  0
 11 12  1  0  0  0  0
 11 13  1  0  0  0  0
 11 14  1  0  0  0  0
  9 10  1  0  0  0  0
  9 11  1  0  0  0  0
  9 24  1  0  0  0  0
  7  8  1  0  0  0  0
  7  9  1  0  0  0  0
 28 29  1  0  0  0  0
 28 30  1  0  0  0  0
 28 31  1  0  0  0  0
 26 27  1  0  0  0  0
 26 28  1  0  0  0  0
M  END
$$$$
default_name
  -OEChem-02102213163D

 31 30  0     1  0  0  0  0  0999 V2000
   -3.5895   -3.5013    1.1082 H   0  0  0  0  0  0  0  0  0  0  0  0
   -3.5145   -2.5363    0.6082 C   0  0  0  0  0  0  0  0  0  0  0  0
   -4.2285   -1.8413    1.0452 H   0  0  0  0  0  0  0  0  0  0  0  0
   -3.7155   -2.6583   -0.4538 H   0  0  0  0  0  0  0  0  0  0  0  0
   -2.1155   -1.9963    0.7922 C   0  0  0  0  0  0  0  0  0  0  0  0
   -1.2875   -2.6383    1.4252 O   0  0  0  0  0  0  0  0  0  0  0  0
   -1.8575   -0.8123    0.2402 N   0  0  0  0  0  0  0  0  0  0  0  0
   -2.6005   -0.3333   -0.2478 H   0  0  0  0  0  0  0  0  0  0  0  0
   -0.5675   -0.1203    0.3102 C   0  0  1  0  0  0  0  0  0  0  0  0
    0.1932   -0.7715   -0.1219 H   0  0  0  0  0  0  0  0  0  0  0  0
   -0.6568    1.1713   -0.5294 C   0  0  0  0  0  0  0  0  0  0  0  0
   -0.3911    0.9352   -1.5617 H   0  0  0  0  0  0  0  0  0  0  0  0
   -1.6964    1.5060   -0.5238 H   0  0  0  0  0  0  0  0  0  0  0  0
    0.2257    2.3405   -0.0551 C   0  0  0  0  0  0  0  0  0  0  0  0
   -0.0662    2.6368    0.9525 H   0  0  0  0  0  0  0  0  0  0  0  0
    1.7142    1.9807   -0.0568 C   0  0  0  0  0  0  0  0  0  0  0  0
    2.0182    1.6662   -1.0561 H   0  0  0  0  0  0  0  0  0  0  0  0
    2.3024    2.8501    0.2377 H   0  0  0  0  0  0  0  0  0  0  0  0
    1.9155    1.1750    0.6459 H   0  0  0  0  0  0  0  0  0  0  0  0
    0.0290    3.5430   -0.9774 C   0  0  0  0  0  0  0  0  0  0  0  0
   -1.0190    3.8424   -0.9713 H   0  0  0  0  0  0  0  0  0  0  0  0
    0.6317    4.3811   -0.6276 H   0  0  0  0  0  0  0  0  0  0  0  0
    0.3244    3.2876   -1.9957 H   0  0  0  0  0  0  0  0  0  0  0  0
   -0.1913    0.1554    1.7759 C   0  0  0  0  0  0  0  0  0  0  0  0
    0.9476   -0.0766    2.1748 O   0  0  0  0  0  0  0  0  0  0  0  0
   -1.1502    0.6393    2.5760 N   0  0  0  0  0  0  0  0  0  0  0  0
   -2.0581    0.8092    2.1736 H   0  0  0  0  0  0  0  0  0  0  0  0
   -0.9568    0.9369    3.9933 C   0  0  0  0  0  0  0  0  0  0  0  0
   -0.1600    1.6750    4.1097 H   0  0  0  0  0  0  0  0  0  0  0  0
   -1.8775    1.3307    4.4266 H   0  0  0  0  0  0  0  0  0  0  0  0
   -0.6678    0.0287    4.5244 H   0  0  0  0  0  0  0  0  0  0  0  0
  5  6  2  0  0  0  0
  5  7  1  0  0  0  0
  2  3  1  0  0  0  0
  2  4  1  0  0  0  0
  2  5  1  0  0  0  0
  1  2  1  0  0  0  0
 24 25  2  0  0  0  0
 24 26  1  0  0  0  0
 20 21  1  0  0  0  0
 20 22  1  0  0  0  0
 20 23  1  0  0  0  0
 16 17  1  0  0  0  0
 16 18  1  0  0  0  0
 16 19  1  0  0  0  0
 14 15  1  0  0  0  0
 14 16  1  0  0  0  0
 14 20  1  0  0  0  0
 11 12  1  0  0  0  0
 11 13  1  0  0  0  0
 11 14  1  0  0  0  0
  9 10  1  0  0  0  0
  9 11  1  0  0  0  0
  9 24  1  0  0  0  0
  7  8  1  0  0  0  0
  7  9  1  0  0  0  0
 28 29  1  0  0  0  0
 28 30  1  0  0  0  0
 28 31  1  0  0  0  0
 26 27  1  0  0  0  0
 26 28  1  0  0  0  0
M  END
$$$$
default_name
  -OEChem-02102213163D

 31 30  0     1  0  0  0  0  0999 V2000
   -3.5895   -3.5013    1.1082 H   0  0  0  0  0  0  0  0  0  0  0  0
   -3.5145   -2.5363    0.6082 C   0  0  0  0  0  0  0  0  0  0  0  0
   -4.2285   -1.8413    1.0452 H   0  0  0  0  0  0  0  0  0  0  0  0
   -3.7155   -2.6583   -0.4538 H   0  0  0  0  0  0  0  0  0  0  0  0
   -2.1155   -1.9963    0.7922 C   0  0  0  0  0  0  0  0  0  0  0  0
   -1.2875   -2.6383    1.4252 O   0  0  0  0  0  0  0  0  0  0  0  0
   -1.8575   -0.8123    0.2402 N   0  0  0  0  0  0  0  0  0  0  0  0
   -2.6005   -0.3333   -0.2478 H   0  0  0  0  0  0  0  0  0  0  0  0
   -0.5675   -0.1203    0.3102 C   0  0  1  0  0  0  0  0  0  0  0  0
    0.1932   -0.7715   -0.1219 H   0  0  0  0  0  0  0  0  0  0  0  0
   -0.6568    1.1713   -0.5294 C   0  0  0  0  0  0  0  0  0  0  0  0
   -0.3911    0.9352   -1.5617 H   0  0  0  0  0  0  0  0  0  0  0  0
   -1.6964    1.5060   -0.5238 H   0  0  0  0  0  0  0  0  0  0  0  0
    0.2257    2.3405   -0.0551 C   0  0  0  0  0  0  0  0  0  0  0  0
    0.1253    2.4636    1.0233 H   0  0  0  0  0  0  0  0  0  0  0  0
    1.7032    2.1269   -0.3965 C   0  0  0  0  0  0  0  0  0  0  0  0
    1.8182    1.9859   -1.4721 H   0  0  0  0  0  0  0  0  0  0  0  0
    2.2811    2.9981   -0.0873 H   0  0  0  0  0  0  0  0  0  0  0  0
    2.0945    1.2532    0.1202 H   0  0  0  0  0  0  0  0  0  0  0  0
   -0.2314    3.6365   -0.7236 C   0  0  0  0  0  0  0  0  0  0  0  0
   -1.2736    3.8316   -0.4712 H   0  0  0  0  0  0  0  0  0  0  0  0
    0.3740    4.4704   -0.3683 H   0  0  0  0  0  0  0  0  0  0  0  0
   -0.1324    3.5557   -1.8066 H   0  0  0  0  0  0  0  0  0  0  0  0
   -0.1913    0.1554    1.7759 C   0  0  0  0  0  0  0  0  0  0  0  0
    0.9476   -0.0766    2.1748 O   0  0  0  0  0  0  0  0  0  0  0  0
   -1.1502    0.6393    2.5760 N   0  0  0  0  0  0  0  0  0  0  0  0
   -2.0581    0.8092    2.1736 H   0  0  0  0  0  0  0  0  0  0  0  0
   -0.9568    0.9369    3.9933 C   0  0  0  0  0  0  0  0  0  0  0  0
   -0.1600    1.6750    4.1097 H   0  0  0  0  0  0  0  0  0  0  0  0
   -1.8775    1.3307    4.4266 H   0  0  0  0  0  0  0  0  0  0  0  0
   -0.6678    0.0287    4.5244 H   0  0  0  0  0  0  0  0  0  0  0  0
  5  6  2  0  0  0  0
  5  7  1  0  0  0  0
  2  3  1  0  0  0  0
  2  4  1  0  0  0  0
  2  5  1  0  0  0  0
  1  2  1  0  0  0  0
 24 25  2  0  0  0  0
 24 26  1  0  0  0  0
 20 21  1  0  0  0  0
 20 22  1  0  0  0  0
 20 23  1  0  0  0  0
 16 17  1  0  0  0  0
 16 18  1  0  0  0  0
 16 19  1  0  0  0  0
 14 15  1  0  0  0  0
 14 16  1  0  0  0  0
 14 20  1  0  0  0  0
 11 12  1  0  0  0  0
 11 13  1  0  0  0  0
 11 14  1  0  0  0  0
  9 10  1  0  0  0  0
  9 11  1  0  0  0  0
  9 24  1  0  0  0  0
  7  8  1  0  0  0  0
  7  9  1  0  0  0  0
 28 29  1  0  0  0  0
 28 30  1  0  0  0  0
 28 31  1  0  0  0  0
 26 27  1  0  0  0  0
 26 28  1  0  0  0  0
M  END
$$$$
default_name
  -OEChem-02102213163D

 31 30  0     1  0  0  0  0  0999 V2000
   -3.5895   -3.5013    1.1082 H   0  0  0  0  0  0  0  0  0  0  0  0
   -3.5145   -2.5363    0.6082 C   0  0  0  0  0  0  0  0  0  0  0  0
   -4.2285   -1.8413    1.0452 H   0  0  0  0  0  0  0  0  0  0  0  0
   -3.7155   -2.6583   -0.4538 H   0  0  0  0  0  0  0  0  0  0  0  0
   -2.1155   -1.9963    0.7922 C   0  0  0  0  0  0  0  0  0  0  0  0
   -1.2875   -2.6383    1.4252 O   0  0  0  0  0  0  0  0  0  0  0  0
   -1.8575   -0.8123    0.2402 N   0  0  0  0  0  0  0  0  0  0  0  0
   -2.6005   -0.3333   -0.2478 H   0  0  0  0  0  0  0  0  0  0  0  0
   -0.5675   -0.1203    0.3102 C   0  0  1  0  0  0  0  0  0  0  0  0
    0.1932   -0.7715   -0.1219 H   0  0  0  0  0  0  0  0  0  0  0  0
   -0.6568    1.1713   -0.5294 C   0  0  0  0  0  0  0  0  0  0  0  0
   -0.3911    0.9352   -1.5617 H   0  0  0  0  0  0  0  0  0  0  0  0
   -1.6964    1.5060   -0.5238 H   0  0  0  0  0  0  0  0  0  0  0  0
    0.2257    2.3405   -0.0551 C   0  0  0  0  0  0  0  0  0  0  0  0
    0.3380    2.3009    1.0284 H   0  0  0  0  0  0  0  0  0  0  0  0
    1.6140    2.3176   -0.7009 C   0  0  0  0  0  0  0  0  0  0  0  0
    1.5177    2.3405   -1.7873 H   0  0  0  0  0  0  0  0  0  0  0  0
    2.1849    3.1875   -0.3752 H   0  0  0  0  0  0  0  0  0  0  0  0
    2.1578    1.4211   -0.4112 H   0  0  0  0  0  0  0  0  0  0  0  0
   -0.4404    3.6685   -0.4133 C   0  0  0  0  0  0  0  0  0  0  0  0
   -1.4204    3.7267    0.0603 H   0  0  0  0  0  0  0  0  0  0  0  0
    0.1689    4.4977   -0.0540 H   0  0  0  0  0  0  0  0  0  0  0  0
   -0.5579    3.7501   -1.4945 H   0  0  0  0  0  0  0  0  0  0  0  0
   -0.1913    0.1554    1.7759 C   0  0  0  0  0  0  0  0  0  0  0  0
    0.9476   -0.0766    2.1748 O   0  0  0  0  0  0  0  0  0  0  0  0
   -1.1502    0.6393    2.5760 N   0  0  0  0  0  0  0  0  0  0  0  0
   -2.0581    0.8092    2.1736 H   0  0  0  0  0  0  0  0  0  0  0  0
   -0.9568    0.9369    3.9933 C   0  0  0  0  0  0  0  0  0  0  0  0
   -0.1600    1.6750    4.1097 H   0  0  0  0  0  0  0  0  0  0  0  0
   -1.8775    1.3307    4.4266 H   0  0  0  0  0  0  0  0  0  0  0  0
   -0.6678    0.0287    4.5244 H   0  0  0  0  0  0  0  0  0  0  0  0
  5  6  2  0  0  0  0
  5  7  1  0  0  0  0
  2  3  1  0  0  0  0
  2  4  1  0  0  0  0
  2  5  1  0  0  0  0
  1  2  1  0  0  0  0
 24 25  2  0  0  0  0
 24 26  1  0  0  0  0
 20 21  1  0  0  0  0
 20 22  1  0  0  0  0
 20 23  1  0  0  0  0
 16 17  1  0  0  0  0
 16 18  1  0  0  0  0
 16 19  1  0  0  0  0
 14 15  1  0  0  0  0
 14 16  1  0  0  0  0
 14 20  1  0  0  0  0
 11 12  1  0  0  0  0
 11 13  1  0  0  0  0
 11 14  1  0  0  0  0
  9 10  1  0  0  0  0
  9 11  1  0  0  0  0
  9 24  1  0  0  0  0
  7  8  1  0  0  0  0
  7  9  1  0  0  0  0
 28 29  1  0  0  0  0
 28 30  1  0  0  0  0
 28 31  1  0  0  0  0
 26 27  1  0  0  0  0
 26 28  1  0  0  0  0
M  END
$$$$
default_name
  -OEChem-02102213163D

 31 30  0     1  0  0  0  0  0999 V2000
   -3.5895   -3.5013    1.1082 H   0  0  0  0  0  0  0  0  0  0  0  0
   -3.5145   -2.5363    0.6082 C   0  0  0  0  0  0  0  0  0  0  0  0
   -4.2285   -1.8413    1.0452 H   0  0  0  0  0  0  0  0  0  0  0  0
   -3.7155   -2.6583   -0.4538 H   0  0  0  0  0  0  0  0  0  0  0  0
   -2.1155   -1.9963    0.7922 C   0  0  0  0  0  0  0  0  0  0  0  0
   -1.2875   -2.6383    1.4252 O   0  0  0  0  0  0  0  0  0  0  0  0
   -1.8575   -0.8123    0.2402 N   0  0  0  0  0  0  0  0  0  0  0  0
   -2.6005   -0.3333   -0.2478 H   0  0  0  0  0  0  0  0  0  0  0  0
   -0.5675   -0.1203    0.3102 C   0  0  1  0  0  0  0  0  0  0  0  0
    0.1932   -0.7715   -0.1219 H   0  0  0  0  0  0  0  0  0  0  0  0
   -0.6568    1.1713   -0.5294 C   0  0  0  0  0  0  0  0  0  0  0  0
   -0.3911    0.9352   -1.5617 H   0  0  0  0  0  0  0  0  0  0  0  0
   -1.6964    1.5060   -0.5238 H   0  0  0  0  0  0  0  0  0  0  0  0
    0.2257    2.3405   -0.0551 C   0  0  0  0  0  0  0  0  0  0  0  0
    0.5575    2.1601    0.9674 H   0  0  0  0  0  0  0  0  0  0  0  0
    1.4529    2.5399   -0.9491 C   0  0  0  0  0  0  0  0  0  0  0  0
    1.1373    2.7059   -1.9800 H   0  0  0  0  0  0  0  0  0  0  0  0
    2.0202    3.4055   -0.6062 H   0  0  0  0  0  0  0  0  0  0  0  0
    2.1011    1.6670   -0.9120 H   0  0  0  0  0  0  0  0  0  0  0  0
   -0.5840    3.6366   -0.0678 C   0  0  0  0  0  0  0  0  0  0  0  0
   -1.4493    3.5348    0.5870 H   0  0  0  0  0  0  0  0  0  0  0  0
    0.0304    4.4611    0.2939 H   0  0  0  0  0  0  0  0  0  0  0  0
   -0.9230    3.8577   -1.0805 H   0  0  0  0  0  0  0  0  0  0  0  0
   -0.1913    0.1554    1.7759 C   0  0  0  0  0  0  0  0  0  0  0  0
    0.9476   -0.0766    2.1748 O   0  0  0  0  0  0  0  0  0  0  0  0
   -1.1502    0.6393    2.5760 N   0  0  0  0  0  0  0  0  0  0  0  0
   -2.0581    0.8092    2.1736 H   0  0  0  0  0  0  0  0  0  0  0  0
   -0.9568    0.9369    3.9933 C   0  0  0  0  0  0  0  0  0  0  0  0
   -0.1600    1.6750    4.1097 H   0  0  0  0  0  0  0  0  0  0  0  0
   -1.8775    1.3307    4.4266 H   0  0  0  0  0  0  0  0  0  0  0  0
   -0.6678    0.0287    4.5244 H   0  0  0  0  0  0  0  0  0  0  0  0
  5  6  2  0  0  0  0
  5  7  1  0  0  0  0
  2  3  1  0  0  0  0
  2  4  1  0  0  0  0
  2  5  1  0  0  0  0
  1  2  1  0  0  0  0
 24 25  2  0  0  0  0
 24 26  1  0  0  0  0
 20 21  1  0  0  0  0
 20 22  1  0  0  0  0
 20 23  1  0  0  0  0
 16 17  1  0  0  0  0
 16 18  1  0  0  0  0
 16 19  1  0  0  0  0
 14 15  1  0  0  0  0
 14 16  1  0  0  0  0
 14 20  1  0  0  0  0
 11 12  1  0  0  0  0
 11 13  1  0  0  0  0
 11 14  1  0  0  0  0
  9 10  1  0  0  0  0
  9 11  1  0  0  0  0
  9 24  1  0  0  0  0
  7  8  1  0  0  0  0
  7  9  1  0  0  0  0
 28 29  1  0  0  0  0
 28 30  1  0  0  0  0
 28 31  1  0  0  0  0
 26 27  1  0  0  0  0
 26 28  1  0  0  0  0
M  END
$$$$
default_name
  -OEChem-02102213163D

 31 30  0     1  0  0  0  0  0999 V2000
   -3.5895   -3.5013    1.1082 H   0  0  0  0  0  0  0  0  0  0  0  0
   -3.5145   -2.5363    0.6082 C   0  0  0  0  0  0  0  0  0  0  0  0
   -4.2285   -1.8413    1.0452 H   0  0  0  0  0  0  0  0  0  0  0  0
   -3.7155   -2.6583   -0.4538 H   0  0  0  0  0  0  0  0  0  0  0  0
   -2.1155   -1.9963    0.7922 C   0  0  0  0  0  0  0  0  0  0  0  0
   -1.2875   -2.6383    1.4252 O   0  0  0  0  0  0  0  0  0  0  0  0
   -1.8575   -0.8123    0.2402 N   0  0  0  0  0  0  0  0  0  0  0  0
   -2.6005   -0.3333   -0.2478 H   0  0  0  0  0  0  0  0  0  0  0  0
   -0.5675   -0.1203    0.3102 C   0  0  1  0  0  0  0  0  0  0  0  0
    0.1932   -0.7715   -0.1219 H   0  0  0  0  0  0  0  0  0  0  0  0
   -0.6568    1.1713   -0.5294 C   0  0  0  0  0  0  0  0  0  0  0  0
   -0.3911    0.9352   -1.5617 H   0  0  0  0  0  0  0  0  0  0  0  0
   -1.6964    1.5060   -0.5238 H   0  0  0  0  0  0  0  0  0  0  0  0
    0.2257    2.3405   -0.0551 C   0  0  0  0  0  0  0  0  0  0  0  0
    0.7687    2.0505    0.8444 H   0  0  0  0  0  0  0  0  0  0  0  0
    1.2308    2.7786   -1.1242 C   0  0  0  0  0  0  0  0  0  0  0  0
    0.7028    3.0570   -2.0372 H   0  0  0  0  0  0  0  0  0  0  0  0
    1.7984    3.6372   -0.7647 H   0  0  0  0  0  0  0  0  0  0  0  0
    1.9283    1.9744   -1.3482 H   0  0  0  0  0  0  0  0  0  0  0  0
   -0.6522    3.5431    0.2894 C   0  0  0  0  0  0  0  0  0  0  0  0
   -1.3584    3.2691    1.0730 H   0  0  0  0  0  0  0  0  0  0  0  0
   -0.0321    4.3631    0.6518 H   0  0  0  0  0  0  0  0  0  0  0  0
   -1.2029    3.8712   -0.5929 H   0  0  0  0  0  0  0  0  0  0  0  0
   -0.1913    0.1554    1.7759 C   0  0  0  0  0  0  0  0  0  0  0  0
    0.9476   -0.0766    2.1748 O   0  0  0  0  0  0  0  0  0  0  0  0
   -1.1502    0.6393    2.5760 N   0  0  0  0  0  0  0  0  0  0  0  0
   -2.0581    0.8092    2.1736 H   0  0  0  0  0  0  0  0  0  0  0  0
   -0.9568    0.9369    3.9933 C   0  0  0  0  0  0  0  0  0  0  0  0
   -0.1600    1.6750    4.1097 H   0  0  0  0  0  0  0  0  0  0  0  0
   -1.8775    1.3307    4.4266 H   0  0  0  0  0  0  0  0  0  0  0  0
   -0.6678    0.0287    4.5244 H   0  0  0  0  0  0  0  0  0  0  0  0
  5  6  2  0  0  0  0
  5  7  1  0  0  0  0
  2  3  1  0  0  0  0
  2  4  1  0  0  0  0
  2  5  1  0  0  0  0
  1  2  1  0  0  0  0
 24 25  2  0  0  0  0
 24 26  1  0  0  0  0
 20 21  1  0  0  0  0
 20 22  1  0  0  0  0
 20 23  1  0  0  0  0
 16 17  1  0  0  0  0
 16 18  1  0  0  0  0
 16 19  1  0  0  0  0
 14 15  1  0  0  0  0
 14 16  1  0  0  0  0
 14 20  1  0  0  0  0
 11 12  1  0  0  0  0
 11 13  1  0  0  0  0
 11 14  1  0  0  0  0
  9 10  1  0  0  0  0
  9 11  1  0  0  0  0
  9 24  1  0  0  0  0
  7  8  1  0  0  0  0
  7  9  1  0  0  0  0
 28 29  1  0  0  0  0
 28 30  1  0  0  0  0
 28 31  1  0  0  0  0
 26 27  1  0  0  0  0
 26 28  1  0  0  0  0
M  END
$$$$
default_name
  -OEChem-02102213163D

 31 30  0     1  0  0  0  0  0999 V2000
   -3.5895   -3.5013    1.1082 H   0  0  0  0  0  0  0  0  0  0  0  0
   -3.5145   -2.5363    0.6082 C   0  0  0  0  0  0  0  0  0  0  0  0
   -4.2285   -1.8413    1.0452 H   0  0  0  0  0  0  0  0  0  0  0  0
   -3.7155   -2.6583   -0.4538 H   0  0  0  0  0  0  0  0  0  0  0  0
   -2.1155   -1.9963    0.7922 C   0  0  0  0  0  0  0  0  0  0  0  0
   -1.2875   -2.6383    1.4252 O   0  0  0  0  0  0  0  0  0  0  0  0
   -1.8575   -0.8123    0.2402 N   0  0  0  0  0  0  0  0  0  0  0  0
   -2.6005   -0.3333   -0.2478 H   0  0  0  0  0  0  0  0  0  0  0  0
   -0.5675   -0.1203    0.3102 C   0  0  1  0  0  0  0  0  0  0  0  0
    0.1932   -0.7715   -0.1219 H   0  0  0  0  0  0  0  0  0  0  0  0
   -0.6568    1.1713   -0.5294 C   0  0  0  0  0  0  0  0  0  0  0  0
   -0.3911    0.9352   -1.5617 H   0  0  0  0  0  0  0  0  0  0  0  0
   -1.6964    1.5060   -0.5238 H   0  0  0  0  0  0  0  0  0  0  0  0
    0.2257    2.3405   -0.0551 C   0  0  0  0  0  0  0  0  0  0  0  0
    0.9573    1.9798    0.6679 H   0  0  0  0  0  0  0  0  0  0  0  0
    0.9628    3.0174   -1.2143 C   0  0  0  0  0  0  0  0  0  0  0  0
    0.2439    3.3700   -1.9550 H   0  0  0  0  0  0  0  0  0  0  0  0
    1.5345    3.8668   -0.8398 H   0  0  0  0  0  0  0  0  0  0  0  0
    1.6512    2.3222   -1.6900 H   0  0  0  0  0  0  0  0  0  0  0  0
   -0.6404    3.3944    0.6340 C   0  0  0  0  0  0  0  0  0  0  0  0
   -1.1540    2.9476    1.4852 H   0  0  0  0  0  0  0  0  0  0  0  0
   -0.0143    4.2103    0.9952 H   0  0  0  0  0  0  0  0  0  0  0  0
   -1.3785    3.7895   -0.0649 H   0  0  0  0  0  0  0  0  0  0  0  0
   -0.1913    0.1554    1.7759 C   0  0  0  0  0  0  0  0  0  0  0  0
    0.9476   -0.0766    2.1748 O   0  0  0  0  0  0  0  0  0  0  0  0
   -1.1502    0.6393    2.5760 N   0  0  0  0  0  0  0  0  0  0  0  0
   -2.0581    0.8092    2.1736 H   0  0  0  0  0  0  0  0  0  0  0  0
   -0.9568    0.9369    3.9933 C   0  0  0  0  0  0  0  0  0  0  0  0
   -0.1600    1.6750    4.1097 H   0  0  0  0  0  0  0  0  0  0  0  0
   -1.8775    1.3307    4.4266 H   0  0  0  0  0  0  0  0  0  0  0  0
   -0.6678    0.0287    4.5244 H   0  0  0  0  0  0  0  0  0  0  0  0
  5  6  2  0  0  0  0
  5  7  1  0  0  0  0
  2  3  1  0  0  0  0
  2  4  1  0  0  0  0
  2  5  1  0  0  0  0
  1  2  1  0  0  0  0
 24 25  2  0  0  0  0
 24 26  1  0  0  0  0
 20 21  1  0  0  0  0
 20 22  1  0  0  0  0
 20 23  1  0  0  0  0
 16 17  1  0  0  0  0
 16 18  1  0  0  0  0
 16 19  1  0  0  0  0
 14 15  1  0  0  0  0
 14 16  1  0  0  0  0
 14 20  1  0  0  0  0
 11 12  1  0  0  0  0
 11 13  1  0  0  0  0
 11 14  1  0  0  0  0
  9 10  1  0  0  0  0
  9 11  1  0  0  0  0
  9 24  1  0  0  0  0
  7  8  1  0  0  0  0
  7  9  1  0  0  0  0
 28 29  1  0  0  0  0
 28 30  1  0  0  0  0
 28 31  1  0  0  0  0
 26 27  1  0  0  0  0
 26 28  1  0  0  0  0
M  END
$$$$
default_name
  -OEChem-02102213163D

 31 30  0     1  0  0  0  0  0999 V2000
   -3.5895   -3.5013    1.1082 H   0  0  0  0  0  0  0  0  0  0  0  0
   -3.5145   -2.5363    0.6082 C   0  0  0  0  0  0  0  0  0  0  0  0
   -4.2285   -1.8413    1.0452 H   0  0  0  0  0  0  0  0  0  0  0  0
   -3.7155   -2.6583   -0.4538 H   0  0  0  0  0  0  0  0  0  0  0  0
   -2.1155   -1.9963    0.7922 C   0  0  0  0  0  0  0  0  0  0  0  0
   -1.2875   -2.6383    1.4252 O   0  0  0  0  0  0  0  0  0  0  0  0
   -1.8575   -0.8123    0.2402 N   0  0  0  0  0  0  0  0  0  0  0  0
   -2.6005   -0.3333   -0.2478 H   0  0  0  0  0  0  0  0  0  0  0  0
   -0.5675   -0.1203    0.3102 C   0  0  1  0  0  0  0  0  0  0  0  0
    0.1932   -0.7715   -0.1219 H   0  0  0  0  0  0  0  0  0  0  0  0
   -0.6568    1.1713   -0.5294 C   0  0  0  0  0  0  0  0  0  0  0  0
   -0.3911    0.9352   -1.5617 H   0  0  0  0  0  0  0  0  0  0  0  0
   -1.6964    1.5060   -0.5238 H   0  0  0  0  0  0  0  0  0  0  0  0
    0.2257    2.3405   -0.0551 C   0  0  0  0  0  0  0  0  0  0  0  0
    1.1104    1.9528    0.4498 H   0  0  0  0  0  0  0  0  0  0  0  0
    0.6672    3.2400   -1.2132 C   0  0  0  0  0  0  0  0  0  0  0  0
   -0.2082    3.6235   -1.7390 H   0  0  0  0  0  0  0  0  0  0  0  0
    1.2465    4.0787   -0.8264 H   0  0  0  0  0  0  0  0  0  0  0  0
    1.2886    2.6867   -1.9140 H   0  0  0  0  0  0  0  0  0  0  0  0
   -0.5494    3.2006    0.9424 C   0  0  0  0  0  0  0  0  0  0  0  0
   -0.8498    2.5922    1.7954 H   0  0  0  0  0  0  0  0  0  0  0  0
    0.0826    4.0132    1.3008 H   0  0  0  0  0  0  0  0  0  0  0  0
   -1.4379    3.6182    0.4675 H   0  0  0  0  0  0  0  0  0  0  0  0
   -0.1913    0.1554    1.7759 C   0  0  0  0  0  0  0  0  0  0  0  0
    0.9476   -0.0766    2.1748 O   0  0  0  0  0  0  0  0  0  0  0  0
   -1.1502    0.6393    2.5760 N   0  0  0  0  0  0  0  0  0  0  0  0
   -2.0581    0.8092    2.1736 H   0  0  0  0  0  0  0  0  0  0  0  0
   -0.9568    0.9369    3.9933 C   0  0  0  0  0  0  0  0  0  0  0  0
   -0.1600    1.6750    4.1097 H   0  0  0  0  0  0  0  0  0  0  0  0
   -1.8775    1.3307    4.4266 H   0  0  0  0  0  0  0  0  0  0  0  0
   -0.6678    0.0287    4.5244 H   0  0  0  0  0  0  0  0  0  0  0  0
  5  6  2  0  0  0  0
  5  7  1  0  0  0  0
  2  3  1  0  0  0  0
  2  4  1  0  0  0  0
  2  5  1  0  0  0  0
  1  2  1  0  0  0  0
 24 25  2  0  0  0  0
 24 26  1  0  0  0  0
 20 21  1  0  0  0  0
 20 22  1  0  0  0  0
 20 23  1  0  0  0  0
 16 17  1  0  0  0  0
 16 18  1  0  0  0  0
 16 19  1  0  0  0  0
 14 15  1  0  0  0  0
 14 16  1  0  0  0  0
 14 20  1  0  0  0  0
 11 12  1  0  0  0  0
 11 13  1  0  0  0  0
 11 14  1  0  0  0  0
  9 10  1  0  0  0  0
  9 11  1  0  0  0  0
  9 24  1  0  0  0  0
  7  8  1  0  0  0  0
  7  9  1  0  0  0  0
 28 29  1  0  0  0  0
 28 30  1  0  0  0  0
 28 31  1  0  0  0  0
 26 27  1  0  0  0  0
 26 28  1  0  0  0  0
M  END
$$$$
default_name
  -OEChem-02102213163D

 31 30  0     1  0  0  0  0  0999 V2000
   -3.5895   -3.5013    1.1082 H   0  0  0  0  0  0  0  0  0  0  0  0
   -3.5145   -2.5363    0.6082 C   0  0  0  0  0  0  0  0  0  0  0  0
   -4.2285   -1.8413    1.0452 H   0  0  0  0  0  0  0  0  0  0  0  0
   -3.7155   -2.6583   -0.4538 H   0  0  0  0  0  0  0  0  0  0  0  0
   -2.1155   -1.9963    0.7922 C   0  0  0  0  0  0  0  0  0  0  0  0
   -1.2875   -2.6383    1.4252 O   0  0  0  0  0  0  0  0  0  0  0  0
   -1.8575   -0.8123    0.2402 N   0  0  0  0  0  0  0  0  0  0  0  0
   -2.6005   -0.3333   -0.2478 H   0  0  0  0  0  0  0  0  0  0  0  0
   -0.5675   -0.1203    0.3102 C   0  0  1  0  0  0  0  0  0  0  0  0
    0.1932   -0.7715   -0.1219 H   0  0  0  0  0  0  0  0  0  0  0  0
   -0.6568    1.1713   -0.5294 C   0  0  0  0  0  0  0  0  0  0  0  0
   -0.3911    0.9352   -1.5617 H   0  0  0  0  0  0  0  0  0  0  0  0
   -1.6964    1.5060   -0.5238 H   0  0  0  0  0  0  0  0  0  0  0  0
    0.2257    2.3405   -0.0551 C   0  0  0  0  0  0  0  0  0  0  0  0
    1.2176    1.9712    0.2051 H   0  0  0  0  0  0  0  0  0  0  0  0
    0.3641    3.4314   -1.1210 C   0  0  0  0  0  0  0  0  0  0  0  0
   -0.6227    3.8003   -1.4039 H   0  0  0  0  0  0  0  0  0  0  0  0
    0.9541    4.2585   -0.7254 H   0  0  0  0  0  0  0  0  0  0  0  0
    0.8653    3.0432   -2.0051 H   0  0  0  0  0  0  0  0  0  0  0  0
   -0.3854    2.9749    1.1938 C   0  0  0  0  0  0  0  0  0  0  0  0
   -0.4667    2.2271    1.9826 H   0  0  0  0  0  0  0  0  0  0  0  0
    0.2519    3.7853    1.5477 H   0  0  0  0  0  0  0  0  0  0  0  0
   -1.3769    3.3692    0.9680 H   0  0  0  0  0  0  0  0  0  0  0  0
   -0.1913    0.1554    1.7759 C   0  0  0  0  0  0  0  0  0  0  0  0
    0.9476   -0.0766    2.1748 O   0  0  0  0  0  0  0  0  0  0  0  0
   -1.1502    0.6393    2.5760 N   0  0  0  0  0  0  0  0  0  0  0  0
   -2.0581    0.8092    2.1736 H   0  0  0  0  0  0  0  0  0  0  0  0
   -0.9568    0.9369    3.9933 C   0  0  0  0  0  0  0  0  0  0  0  0
   -0.1600    1.6750    4.1097 H   0  0  0  0  0  0  0  0  0  0  0  0
   -1.8775    1.3307    4.4266 H   0  0  0  0  0  0  0  0  0  0  0  0
   -0.6678    0.0287    4.5244 H   0  0  0  0  0  0  0  0  0  0  0  0
  5  6  2  0  0  0  0
  5  7  1  0  0  0  0
  2  3  1  0  0  0  0
  2  4  1  0  0  0  0
  2  5  1  0  0  0  0
  1  2  1  0  0  0  0
 24 25  2  0  0  0  0
 24 26  1  0  0  0  0
 20 21  1  0  0  0  0
 20 22  1  0  0  0  0
 20 23  1  0  0  0  0
 16 17  1  0  0  0  0
 16 18  1  0  0  0  0
 16 19  1  0  0  0  0
 14 15  1  0  0  0  0
 14 16  1  0  0  0  0
 14 20  1  0  0  0  0
 11 12  1  0  0  0  0
 11 13  1  0  0  0  0
 11 14  1  0  0  0  0
  9 10  1  0  0  0  0
  9 11  1  0  0  0  0
  9 24  1  0  0  0  0
  7  8  1  0  0  0  0
  7  9  1  0  0  0  0
 28 29  1  0  0  0  0
 28 30  1  0  0  0  0
 28 31  1  0  0  0  0
 26 27  1  0  0  0  0
 26 28  1  0  0  0  0
M  END
$$$$
default_name
  -OEChem-02102213163D

 31 30  0     1  0  0  0  0  0999 V2000
   -3.5895   -3.5013    1.1082 H   0  0  0  0  0  0  0  0  0  0  0  0
   -3.5145   -2.5363    0.6082 C   0  0  0  0  0  0  0  0  0  0  0  0
   -4.2285   -1.8413    1.0452 H   0  0  0  0  0  0  0  0  0  0  0  0
   -3.7155   -2.6583   -0.4538 H   0  0  0  0  0  0  0  0  0  0  0  0
   -2.1155   -1.9963    0.7922 C   0  0  0  0  0  0  0  0  0  0  0  0
   -1.2875   -2.6383    1.4252 O   0  0  0  0  0  0  0  0  0  0  0  0
   -1.8575   -0.8123    0.2402 N   0  0  0  0  0  0  0  0  0  0  0  0
   -2.6005   -0.3333   -0.2478 H   0  0  0  0  0  0  0  0  0  0  0  0
   -0.5675   -0.1203    0.3102 C   0  0  1  0  0  0  0  0  0  0  0  0
    0.1932   -0.7715   -0.1219 H   0  0  0  0  0  0  0  0  0  0  0  0
   -0.6568    1.1713   -0.5294 C   0  0  0  0  0  0  0  0  0  0  0  0
   -0.6577    0.9003   -1.5870 H   0  0  0  0  0  0  0  0  0  0  0  0
   -1.6133    1.6507   -0.3101 H   0  0  0  0  0  0  0  0  0  0  0  0
    0.4617    2.2026   -0.2923 C   0  0  0  0  0  0  0  0  0  0  0  0
    1.4306    1.7500   -0.5032 H   0  0  0  0  0  0  0  0  0  0  0  0
    0.2942    3.4498   -1.1651 C   0  0  0  0  0  0  0  0  0  0  0  0
   -0.6789    3.9057   -0.9770 H   0  0  0  0  0  0  0  0  0  0  0  0
    1.0772    4.1708   -0.9292 H   0  0  0  0  0  0  0  0  0  0  0  0
    0.3686    3.1936   -2.2197 H   0  0  0  0  0  0  0  0  0  0  0  0
    0.4545    2.6449    1.1705 C   0  0  0  0  0  0  0  0  0  0  0  0
    0.6043    1.7795    1.8160 H   0  0  0  0  0  0  0  0  0  0  0  0
    1.2629    3.3543    1.3473 H   0  0  0  0  0  0  0  0  0  0  0  0
   -0.4979    3.1162    1.4157 H   0  0  0  0  0  0  0  0  0  0  0  0
   -0.1913    0.1554    1.7759 C   0  0  0  0  0  0  0  0  0  0  0  0
    0.9476   -0.0766    2.1748 O   0  0  0  0  0  0  0  0  0  0  0  0
   -1.1502    0.6393    2.5760 N   0  0  0  0  0  0  0  0  0  0  0  0
   -2.0581    0.8092    2.1736 H   0  0  0  0  0  0  0  0  0  0  0  0
   -0.9568    0.9369    3.9933 C   0  0  0  0  0  0  0  0  0  0  0  0
   -0.1600    1.6750    4.1097 H   0  0  0  0  0  0  0  0  0  0  0  0
   -1.8775    1.3307    4.4266 H   0  0  0  0  0  0  0  0  0  0  0  0
   -0.6678    0.0287    4.5244 H   0  0  0  0  0  0  0  0  0  0  0  0
  5  6  2  0  0  0  0
  5  7  1  0  0  0  0
  2  3  1  0  0  0  0
  2  4  1  0  0  0  0
  2  5  1  0  0  0  0
  1  2  1  0  0  0  0
 24 25  2  0  0  0  0
 24 26  1  0  0  0  0
 20 21  1  0  0  0  0
 20 22  1  0  0  0  0
 20 23  1  0  0  0  0
 16 17  1  0  0  0  0
 16 18  1  0  0  0  0
 16 19  1  0  0  0  0
 14 15  1  0  0  0  0
 14 16  1  0  0  0  0
 14 20  1  0  0  0  0
 11 12  1  0  0  0  0
 11 13  1  0  0  0  0
 11 14  1  0  0  0  0
  9 10  1  0  0  0  0
  9 11  1  0  0  0  0
  9 24  1  0  0  0  0
  7  8  1  0  0  0  0
  7  9  1  0  0  0  0
 28 29  1  0  0  0  0
 28 30  1  0  0  0  0
 28 31  1  0  0  0  0
 26 27  1  0  0  0  0
 26 28  1  0  0  0  0
M  END
$$$$
default_name
  -OEChem-02102213163D

 31 30  0     1  0  0  0  0  0999 V2000
   -3.5895   -3.5013    1.1082 H   0  0  0  0  0  0  0  0  0  0  0  0
   -3.5145   -2.5363    0.6082 C   0  0  0  0  0  0  0  0  0  0  0  0
   -4.2285   -1.8413    1.0452 H   0  0  0  0  0  0  0  0  0  0  0  0
   -3.7155   -2.6583   -0.4538 H   0  0  0  0  0  0  0  0  0  0  0  0
   -2.1155   -1.9963    0.7922 C   0  0  0  0  0  0  0  0  0  0  0  0
   -1.2875   -2.6383    1.4252 O   0  0  0  0  0  0  0  0  0  0  0  0
   -1.8575   -0.8123    0.2402 N   0  0  0  0  0  0  0  0  0  0  0  0
   -2.6005   -0.3333   -0.2478 H   0  0  0  0  0  0  0  0  0  0  0  0
   -0.5675   -0.1203    0.3102 C   0  0  1  0  0  0  0  0  0  0  0  0
    0.1932   -0.7715   -0.1219 H   0  0  0  0  0  0  0  0  0  0  0  0
   -0.6568    1.1713   -0.5294 C   0  0  0  0  0  0  0  0  0  0  0  0
   -0.6577    0.9003   -1.5870 H   0  0  0  0  0  0  0  0  0  0  0  0
   -1.6133    1.6507   -0.3101 H   0  0  0  0  0  0  0  0  0  0  0  0
    0.4617    2.2026   -0.2923 C   0  0  0  0  0  0  0  0  0  0  0  0
    1.3882    1.8521   -0.7471 H   0  0  0  0  0  0  0  0  0  0  0  0
    0.1132    3.5780   -0.8688 C   0  0  0  0  0  0  0  0  0  0  0  0
   -0.8214    3.9356   -0.4346 H   0  0  0  0  0  0  0  0  0  0  0  0
    0.9086    4.2861   -0.6354 H   0  0  0  0  0  0  0  0  0  0  0  0
    0.0056    3.5253   -1.9500 H   0  0  0  0  0  0  0  0  0  0  0  0
    0.7035    2.3663    1.2077 C   0  0  0  0  0  0  0  0  0  0  0  0
    0.9854    1.4066    1.6406 H   0  0  0  0  0  0  0  0  0  0  0  0
    1.5137    3.0754    1.3775 H   0  0  0  0  0  0  0  0  0  0  0  0
   -0.2011    2.7298    1.6966 H   0  0  0  0  0  0  0  0  0  0  0  0
   -0.1913    0.1554    1.7759 C   0  0  0  0  0  0  0  0  0  0  0  0
    0.9476   -0.0766    2.1748 O   0  0  0  0  0  0  0  0  0  0  0  0
   -1.1502    0.6393    2.5760 N   0  0  0  0  0  0  0  0  0  0  0  0
   -2.0581    0.8092    2.1736 H   0  0  0  0  0  0  0  0  0  0  0  0
   -0.9568    0.9369    3.9933 C   0  0  0  0  0  0  0  0  0  0  0  0
   -0.1600    1.6750    4.1097 H   0  0  0  0  0  0  0  0  0  0  0  0
   -1.8775    1.3307    4.4266 H   0  0  0  0  0  0  0  0  0  0  0  0
   -0.6678    0.0287    4.5244 H   0  0  0  0  0  0  0  0  0  0  0  0
  5  6  2  0  0  0  0
  5  7  1  0  0  0  0
  2  3  1  0  0  0  0
  2  4  1  0  0  0  0
  2  5  1  0  0  0  0
  1  2  1  0  0  0  0
 24 25  2  0  0  0  0
 24 26  1  0  0  0  0
 20 21  1  0  0  0  0
 20 22  1  0  0  0  0
 20 23  1  0  0  0  0
 16 17  1  0  0  0  0
 16 18  1  0  0  0  0
 16 19  1  0  0  0  0
 14 15  1  0  0  0  0
 14 16  1  0  0  0  0
 14 20  1  0  0  0  0
 11 12  1  0  0  0  0
 11 13  1  0  0  0  0
 11 14  1  0  0  0  0
  9 10  1  0  0  0  0
  9 11  1  0  0  0  0
  9 24  1  0  0  0  0
  7  8  1  0  0  0  0
  7  9  1  0  0  0  0
 28 29  1  0  0  0  0
 28 30  1  0  0  0  0
 28 31  1  0  0  0  0
 26 27  1  0  0  0  0
 26 28  1  0  0  0  0
M  END
$$$$
default_name
  -OEChem-02102213163D

 31 30  0     1  0  0  0  0  0999 V2000
   -3.5895   -3.5013    1.1082 H   0  0  0  0  0  0  0  0  0  0  0  0
   -3.5145   -2.5363    0.6082 C   0  0  0  0  0  0  0  0  0  0  0  0
   -4.2285   -1.8413    1.0452 H   0  0  0  0  0  0  0  0  0  0  0  0
   -3.7155   -2.6583   -0.4538 H   0  0  0  0  0  0  0  0  0  0  0  0
   -2.1155   -1.9963    0.7922 C   0  0  0  0  0  0  0  0  0  0  0  0
   -1.2875   -2.6383    1.4252 O   0  0  0  0  0  0  0  0  0  0  0  0
   -1.8575   -0.8123    0.2402 N   0  0  0  0  0  0  0  0  0  0  0  0
   -2.6005   -0.3333   -0.2478 H   0  0  0  0  0  0  0  0  0  0  0  0
   -0.5675   -0.1203    0.3102 C   0  0  1  0  0  0  0  0  0  0  0  0
    0.1932   -0.7715   -0.1219 H   0  0  0  0  0  0  0  0  0  0  0  0
   -0.6568    1.1713   -0.5294 C   0  0  0  0  0  0  0  0  0  0  0  0
   -0.6577    0.9003   -1.5870 H   0  0  0  0  0  0  0  0  0  0  0  0
   -1.6133    1.6507   -0.3101 H   0  0  0  0  0  0  0  0  0  0  0  0
    0.4617    2.2026   -0.2923 C   0  0  0  0  0  0  0  0  0  0  0  0
    1.3008    1.9949   -0.9562 H   0  0  0  0  0  0  0  0  0  0  0  0
   -0.0153    3.6388   -0.5271 C   0  0  0  0  0  0  0  0  0  0  0  0
   -0.8664    3.8569    0.1195 H   0  0  0  0  0  0  0  0  0  0  0  0
    0.7922    4.3355   -0.3008 H   0  0  0  0  0  0  0  0  0  0  0  0
   -0.3116    3.7805   -1.5642 H   0  0  0  0  0  0  0  0  0  0  0  0
    0.9615    2.1002    1.1482 C   0  0  0  0  0  0  0  0  0  0  0  0
    1.3379    1.0945    1.3351 H   0  0  0  0  0  0  0  0  0  0  0  0
    1.7723    2.8103    1.3107 H   0  0  0  0  0  0  0  0  0  0  0  0
    0.1496    2.3156    1.8437 H   0  0  0  0  0  0  0  0  0  0  0  0
   -0.1913    0.1554    1.7759 C   0  0  0  0  0  0  0  0  0  0  0  0
    0.9476   -0.0766    2.1748 O   0  0  0  0  0  0  0  0  0  0  0  0
   -1.1502    0.6393    2.5760 N   0  0  0  0  0  0  0  0  0  0  0  0
   -2.0581    0.8092    2.1736 H   0  0  0  0  0  0  0  0  0  0  0  0
   -0.9568    0.9369    3.9933 C   0  0  0  0  0  0  0  0  0  0  0  0
   -0.1600    1.6750    4.1097 H   0  0  0  0  0  0  0  0  0  0  0  0
   -1.8775    1.3307    4.4266 H   0  0  0  0  0  0  0  0  0  0  0  0
   -0.6678    0.0287    4.5244 H   0  0  0  0  0  0  0  0  0  0  0  0
  5  6  2  0  0  0  0
  5  7  1  0  0  0  0
  2  3  1  0  0  0  0
  2  4  1  0  0  0  0
  2  5  1  0  0  0  0
  1  2  1  0  0  0  0
 24 25  2  0  0  0  0
 24 26  1  0  0  0  0
 20 21  1  0  0  0  0
 20 22  1  0  0  0  0
 20 23  1  0  0  0  0
 16 17  1  0  0  0  0
 16 18  1  0  0  0  0
 16 19  1  0  0  0  0
 14 15  1  0  0  0  0
 14 16  1  0  0  0  0
 14 20  1  0  0  0  0
 11 12  1  0  0  0  0
 11 13  1  0  0  0  0
 11 14  1  0  0  0  0
  9 10  1  0  0  0  0
  9 11  1  0  0  0  0
  9 24  1  0  0  0  0
  7  8  1  0  0  0  0
  7  9  1  0  0  0  0
 28 29  1  0  0  0  0
 28 30  1  0  0  0  0
 28 31  1  0  0  0  0
 26 27  1  0  0  0  0
 26 28  1  0  0  0  0
M  END
$$$$
default_name
  -OEChem-02102213163D

 31 30  0     1  0  0  0  0  0999 V2000
   -3.5895   -3.5013    1.1082 H   0  0  0  0  0  0  0  0  0  0  0  0
   -3.5145   -2.5363    0.6082 C   0  0  0  0  0  0  0  0  0  0  0  0
   -4.2285   -1.8413    1.0452 H   0  0  0  0  0  0  0  0  0  0  0  0
   -3.7155   -2.6583   -0.4538 H   0  0  0  0  0  0  0  0  0  0  0  0
   -2.1155   -1.9963    0.7922 C   0  0  0  0  0  0  0  0  0  0  0  0
   -1.2875   -2.6383    1.4252 O   0  0  0  0  0  0  0  0  0  0  0  0
   -1.8575   -0.8123    0.2402 N   0  0  0  0  0  0  0  0  0  0  0  0
   -2.6005   -0.3333   -0.2478 H   0  0  0  0  0  0  0  0  0  0  0  0
   -0.5675   -0.1203    0.3102 C   0  0  1  0  0  0  0  0  0  0  0  0
    0.1932   -0.7715   -0.1219 H   0  0  0  0  0  0  0  0  0  0  0  0
   -0.6568    1.1713   -0.5294 C   0  0  0  0  0  0  0  0  0  0  0  0
   -0.6577    0.9003   -1.5870 H   0  0  0  0  0  0  0  0  0  0  0  0
   -1.6133    1.6507   -0.3101 H   0  0  0  0  0  0  0  0  0  0  0  0
    0.4617    2.2026   -0.2923 C   0  0  0  0  0  0  0  0  0  0  0  0
    1.1745    2.1686   -1.1162 H   0  0  0  0  0  0  0  0  0  0  0  0
   -0.0827    3.6282   -0.1634 C   0  0  0  0  0  0  0  0  0  0  0  0
   -0.8105    3.6749    0.6478 H   0  0  0  0  0  0  0  0  0  0  0  0
    0.7357    4.3156    0.0519 H   0  0  0  0  0  0  0  0  0  0  0  0
   -0.5612    3.9419   -1.0886 H   0  0  0  0  0  0  0  0  0  0  0  0
    1.2111    1.8645    0.9959 C   0  0  0  0  0  0  0  0  0  0  0  0
    1.6380    0.8645    0.9201 H   0  0  0  0  0  0  0  0  0  0  0  0
    2.0211    2.5771    1.1515 H   0  0  0  0  0  0  0  0  0  0  0  0
    0.5305    1.9018    1.8472 H   0  0  0  0  0  0  0  0  0  0  0  0
   -0.1913    0.1554    1.7759 C   0  0  0  0  0  0  0  0  0  0  0  0
    0.9476   -0.0766    2.1748 O   0  0  0  0  0  0  0  0  0  0  0  0
   -1.1502    0.6393    2.5760 N   0  0  0  0  0  0  0  0  0  0  0  0
   -2.0581    0.8092    2.1736 H   0  0  0  0  0  0  0  0  0  0  0  0
   -0.9568    0.9369    3.9933 C   0  0  0  0  0  0  0  0  0  0  0  0
   -0.1600    1.6750    4.1097 H   0  0  0  0  0  0  0  0  0  0  0  0
   -1.8775    1.3307    4.4266 H   0  0  0  0  0  0  0  0  0  0  0  0
   -0.6678    0.0287    4.5244 H   0  0  0  0  0  0  0  0  0  0  0  0
  5  6  2  0  0  0  0
  5  7  1  0  0  0  0
  2  3  1  0  0  0  0
  2  4  1  0  0  0  0
  2  5  1  0  0  0  0
  1  2  1  0  0  0  0
 24 25  2  0  0  0  0
 24 26  1  0  0  0  0
 20 21  1  0  0  0  0
 20 22  1  0  0  0  0
 20 23  1  0  0  0  0
 16 17  1  0  0  0  0
 16 18  1  0  0  0  0
 16 19  1  0  0  0  0
 14 15  1  0  0  0  0
 14 16  1  0  0  0  0
 14 20  1  0  0  0  0
 11 12  1  0  0  0  0
 11 13  1  0  0  0  0
 11 14  1  0  0  0  0
  9 10  1  0  0  0  0
  9 11  1  0  0  0  0
  9 24  1  0  0  0  0
  7  8  1  0  0  0  0
  7  9  1  0  0  0  0
 28 29  1  0  0  0  0
 28 30  1  0  0  0  0
 28 31  1  0  0  0  0
 26 27  1  0  0  0  0
 26 28  1  0  0  0  0
M  END
$$$$
default_name
  -OEChem-02102213163D

 31 30  0     1  0  0  0  0  0999 V2000
   -3.5895   -3.5013    1.1082 H   0  0  0  0  0  0  0  0  0  0  0  0
   -3.5145   -2.5363    0.6082 C   0  0  0  0  0  0  0  0  0  0  0  0
   -4.2285   -1.8413    1.0452 H   0  0  0  0  0  0  0  0  0  0  0  0
   -3.7155   -2.6583   -0.4538 H   0  0  0  0  0  0  0  0  0  0  0  0
   -2.1155   -1.9963    0.7922 C   0  0  0  0  0  0  0  0  0  0  0  0
   -1.2875   -2.6383    1.4252 O   0  0  0  0  0  0  0  0  0  0  0  0
   -1.8575   -0.8123    0.2402 N   0  0  0  0  0  0  0  0  0  0  0  0
   -2.6005   -0.3333   -0.2478 H   0  0  0  0  0  0  0  0  0  0  0  0
   -0.5675   -0.1203    0.3102 C   0  0  1  0  0  0  0  0  0  0  0  0
    0.1932   -0.7715   -0.1219 H   0  0  0  0  0  0  0  0  0  0  0  0
   -0.6568    1.1713   -0.5294 C   0  0  0  0  0  0  0  0  0  0  0  0
   -0.6577    0.9003   -1.5870 H   0  0  0  0  0  0  0  0  0  0  0  0
   -1.6133    1.6507   -0.3101 H   0  0  0  0  0  0  0  0  0  0  0  0
    0.4617    2.2026   -0.2923 C   0  0  0  0  0  0  0  0  0  0  0  0
    1.0179    2.3615   -1.2162 H   0  0  0  0  0  0  0  0  0  0  0  0
   -0.0843    3.5469    0.1977 C   0  0  0  0  0  0  0  0  0  0  0  0
   -0.6578    3.4020    1.1142 H   0  0  0  0  0  0  0  0  0  0  0  0
    0.7431    4.2279    0.3987 H   0  0  0  0  0  0  0  0  0  0  0  0
   -0.7263    3.9984   -0.5556 H   0  0  0  0  0  0  0  0  0  0  0  0
    1.4351    1.6755    0.7612 C   0  0  0  0  0  0  0  0  0  0  0  0
    1.8650    0.7324    0.4241 H   0  0  0  0  0  0  0  0  0  0  0  0
    2.2431    2.3917    0.9108 H   0  0  0  0  0  0  0  0  0  0  0  0
    0.9154    1.5166    1.7068 H   0  0  0  0  0  0  0  0  0  0  0  0
   -0.1913    0.1554    1.7759 C   0  0  0  0  0  0  0  0  0  0  0  0
    0.9476   -0.0766    2.1748 O   0  0  0  0  0  0  0  0  0  0  0  0
   -1.1502    0.6393    2.5760 N   0  0  0  0  0  0  0  0  0  0  0  0
   -2.0581    0.8092    2.1736 H   0  0  0  0  0  0  0  0  0  0  0  0
   -0.9568    0.9369    3.9933 C   0  0  0  0  0  0  0  0  0  0  0  0
   -0.1600    1.6750    4.1097 H   0  0  0  0  0  0  0  0  0  0  0  0
   -1.8775    1.3307    4.4266 H   0  0  0  0  0  0  0  0  0  0  0  0
   -0.6678    0.0287    4.5244 H   0  0  0  0  0  0  0  0  0  0  0  0
  5  6  2  0  0  0  0
  5  7  1  0  0  0  0
  2  3  1  0  0  0  0
  2  4  1  0  0  0  0
  2  5  1  0  0  0  0
  1  2  1  0  0  0  0
 24 25  2  0  0  0  0
 24 26  1  0  0  0  0
 20 21  1  0  0  0  0
 20 22  1  0  0  0  0
 20 23  1  0  0  0  0
 16 17  1  0  0  0  0
 16 18  1  0  0  0  0
 16 19  1  0  0  0  0
 14 15  1  0  0  0  0
 14 16  1  0  0  0  0
 14 20  1  0  0  0  0
 11 12  1  0  0  0  0
 11 13  1  0  0  0  0
 11 14  1  0  0  0  0
  9 10  1  0  0  0  0
  9 11  1  0  0  0  0
  9 24  1  0  0  0  0
  7  8  1  0  0  0  0
  7  9  1  0  0  0  0
 28 29  1  0  0  0  0
 28 30  1  0  0  0  0
 28 31  1  0  0  0  0
 26 27  1  0  0  0  0
 26 28  1  0  0  0  0
M  END
$$$$
default_name
  -OEChem-02102213163D

 31 30  0     1  0  0  0  0  0999 V2000
   -3.5895   -3.5013    1.1082 H   0  0  0  0  0  0  0  0  0  0  0  0
   -3.5145   -2.5363    0.6082 C   0  0  0  0  0  0  0  0  0  0  0  0
   -4.2285   -1.8413    1.0452 H   0  0  0  0  0  0  0  0  0  0  0  0
   -3.7155   -2.6583   -0.4538 H   0  0  0  0  0  0  0  0  0  0  0  0
   -2.1155   -1.9963    0.7922 C   0  0  0  0  0  0  0  0  0  0  0  0
   -1.2875   -2.6383    1.4252 O   0  0  0  0  0  0  0  0  0  0  0  0
   -1.8575   -0.8123    0.2402 N   0  0  0  0  0  0  0  0  0  0  0  0
   -2.6005   -0.3333   -0.2478 H   0  0  0  0  0  0  0  0  0  0  0  0
   -0.5675   -0.1203    0.3102 C   0  0  1  0  0  0  0  0  0  0  0  0
    0.1932   -0.7715   -0.1219 H   0  0  0  0  0  0  0  0  0  0  0  0
   -0.6568    1.1713   -0.5294 C   0  0  0  0  0  0  0  0  0  0  0  0
   -0.6577    0.9003   -1.5870 H   0  0  0  0  0  0  0  0  0  0  0  0
   -1.6133    1.6507   -0.3101 H   0  0  0  0  0  0  0  0  0  0  0  0
    0.4617    2.2026   -0.2923 C   0  0  0  0  0  0  0  0  0  0  0  0
    0.8416    2.5603   -1.2493 H   0  0  0  0  0  0  0  0  0  0  0  0
   -0.0200    3.4005    0.5314 C   0  0  0  0  0  0  0  0  0  0  0  0
   -0.4185    3.0568    1.4869 H   0  0  0  0  0  0  0  0  0  0  0  0
    0.8138    4.0782    0.7159 H   0  0  0  0  0  0  0  0  0  0  0  0
   -0.7956    3.9462   -0.0015 H   0  0  0  0  0  0  0  0  0  0  0  0
    1.6184    1.5460    0.4602 C   0  0  0  0  0  0  0  0  0  0  0  0
    2.0035    0.7070   -0.1193 H   0  0  0  0  0  0  0  0  0  0  0  0
    2.4231    2.2667    0.6050 H   0  0  0  0  0  0  0  0  0  0  0  0
    1.2783    1.1863    1.4319 H   0  0  0  0  0  0  0  0  0  0  0  0
   -0.1913    0.1554    1.7759 C   0  0  0  0  0  0  0  0  0  0  0  0
    0.9476   -0.0766    2.1748 O   0  0  0  0  0  0  0  0  0  0  0  0
   -1.1502    0.6393    2.5760 N   0  0  0  0  0  0  0  0  0  0  0  0
   -2.0581    0.8092    2.1736 H   0  0  0  0  0  0  0  0  0  0  0  0
   -0.9568    0.9369    3.9933 C   0  0  0  0  0  0  0  0  0  0  0  0
   -0.1600    1.6750    4.1097 H   0  0  0  0  0  0  0  0  0  0  0  0
   -1.8775    1.3307    4.4266 H   0  0  0  0  0  0  0  0  0  0  0  0
   -0.6678    0.0287    4.5244 H   0  0  0  0  0  0  0  0  0  0  0  0
  5  6  2  0  0  0  0
  5  7  1  0  0  0  0
  2  3  1  0  0  0  0
  2  4  1  0  0  0  0
  2  5  1  0  0  0  0
  1  2  1  0  0  0  0
 24 25  2  0  0  0  0
 24 26  1  0  0  0  0
 20 21  1  0  0  0  0
 20 22  1  0  0  0  0
 20 23  1  0  0  0  0
 16 17  1  0  0  0  0
 16 18  1  0  0  0  0
 16 19  1  0  0  0  0
 14 15  1  0  0  0  0
 14 16  1  0  0  0  0
 14 20  1  0  0  0  0
 11 12  1  0  0  0  0
 11 13  1  0  0  0  0
 11 14  1  0  0  0  0
  9 10  1  0  0  0  0
  9 11  1  0  0  0  0
  9 24  1  0  0  0  0
  7  8  1  0  0  0  0
  7  9  1  0  0  0  0
 28 29  1  0  0  0  0
 28 30  1  0  0  0  0
 28 31  1  0  0  0  0
 26 27  1  0  0  0  0
 26 28  1  0  0  0  0
M  END
$$$$
default_name
  -OEChem-02102213163D

 31 30  0     1  0  0  0  0  0999 V2000
   -3.5895   -3.5013    1.1082 H   0  0  0  0  0  0  0  0  0  0  0  0
   -3.5145   -2.5363    0.6082 C   0  0  0  0  0  0  0  0  0  0  0  0
   -4.2285   -1.8413    1.0452 H   0  0  0  0  0  0  0  0  0  0  0  0
   -3.7155   -2.6583   -0.4538 H   0  0  0  0  0  0  0  0  0  0  0  0
   -2.1155   -1.9963    0.7922 C   0  0  0  0  0  0  0  0  0  0  0  0
   -1.2875   -2.6383    1.4252 O   0  0  0  0  0  0  0  0  0  0  0  0
   -1.8575   -0.8123    0.2402 N   0  0  0  0  0  0  0  0  0  0  0  0
   -2.6005   -0.3333   -0.2478 H   0  0  0  0  0  0  0  0  0  0  0  0
   -0.5675   -0.1203    0.3102 C   0  0  1  0  0  0  0  0  0  0  0  0
    0.1932   -0.7715   -0.1219 H   0  0  0  0  0  0  0  0  0  0  0  0
   -0.6568    1.1713   -0.5294 C   0  0  0  0  0  0  0  0  0  0  0  0
   -0.6577    0.9003   -1.5870 H   0  0  0  0  0  0  0  0  0  0  0  0
   -1.6133    1.6507   -0.3101 H   0  0  0  0  0  0  0  0  0  0  0  0
    0.4617    2.2026   -0.2923 C   0  0  0  0  0  0  0  0  0  0  0  0
    0.6576    2.7516   -1.2134 H   0  0  0  0  0  0  0  0  0  0  0  0
    0.1058    3.1988    0.8151 C   0  0  0  0  0  0  0  0  0  0  0  0
   -0.1089    2.6628    1.7406 H   0  0  0  0  0  0  0  0  0  0  0  0
    0.9431    3.8769    0.9819 H   0  0  0  0  0  0  0  0  0  0  0  0
   -0.7645    3.7888    0.5359 H   0  0  0  0  0  0  0  0  0  0  0  0
    1.7484    1.4848    0.1133 C   0  0  0  0  0  0  0  0  0  0  0  0
    2.0442    0.7902   -0.6729 H   0  0  0  0  0  0  0  0  0  0  0  0
    2.5491    2.2107    0.2549 H   0  0  0  0  0  0  0  0  0  0  0  0
    1.5943    0.9333    1.0415 H   0  0  0  0  0  0  0  0  0  0  0  0
   -0.1913    0.1554    1.7759 C   0  0  0  0  0  0  0  0  0  0  0  0
    0.9476   -0.0766    2.1748 O   0  0  0  0  0  0  0  0  0  0  0  0
   -1.1502    0.6393    2.5760 N   0  0  0  0  0  0  0  0  0  0  0  0
   -2.0581    0.8092    2.1736 H   0  0  0  0  0  0  0  0  0  0  0  0
   -0.9568    0.9369    3.9933 C   0  0  0  0  0  0  0  0  0  0  0  0
   -0.1600    1.6750    4.1097 H   0  0  0  0  0  0  0  0  0  0  0  0
   -1.8775    1.3307    4.4266 H   0  0  0  0  0  0  0  0  0  0  0  0
   -0.6678    0.0287    4.5244 H   0  0  0  0  0  0  0  0  0  0  0  0
  5  6  2  0  0  0  0
  5  7  1  0  0  0  0
  2  3  1  0  0  0  0
  2  4  1  0  0  0  0
  2  5  1  0  0  0  0
  1  2  1  0  0  0  0
 24 25  2  0  0  0  0
 24 26  1  0  0  0  0
 20 21  1  0  0  0  0
 20 22  1  0  0  0  0
 20 23  1  0  0  0  0
 16 17  1  0  0  0  0
 16 18  1  0  0  0  0
 16 19  1  0  0  0  0
 14 15  1  0  0  0  0
 14 16  1  0  0  0  0
 14 20  1  0  0  0  0
 11 12  1  0  0  0  0
 11 13  1  0  0  0  0
 11 14  1  0  0  0  0
  9 10  1  0  0  0  0
  9 11  1  0  0  0  0
  9 24  1  0  0  0  0
  7  8  1  0  0  0  0
  7  9  1  0  0  0  0
 28 29  1  0  0  0  0
 28 30  1  0  0  0  0
 28 31  1  0  0  0  0
 26 27  1  0  0  0  0
 26 28  1  0  0  0  0
M  END
$$$$
default_name
  -OEChem-02102213163D

 31 30  0     1  0  0  0  0  0999 V2000
   -3.5895   -3.5013    1.1082 H   0  0  0  0  0  0  0  0  0  0  0  0
   -3.5145   -2.5363    0.6082 C   0  0  0  0  0  0  0  0  0  0  0  0
   -4.2285   -1.8413    1.0452 H   0  0  0  0  0  0  0  0  0  0  0  0
   -3.7155   -2.6583   -0.4538 H   0  0  0  0  0  0  0  0  0  0  0  0
   -2.1155   -1.9963    0.7922 C   0  0  0  0  0  0  0  0  0  0  0  0
   -1.2875   -2.6383    1.4252 O   0  0  0  0  0  0  0  0  0  0  0  0
   -1.8575   -0.8123    0.2402 N   0  0  0  0  0  0  0  0  0  0  0  0
   -2.6005   -0.3333   -0.2478 H   0  0  0  0  0  0  0  0  0  0  0  0
   -0.5675   -0.1203    0.3102 C   0  0  1  0  0  0  0  0  0  0  0  0
    0.1932   -0.7715   -0.1219 H   0  0  0  0  0  0  0  0  0  0  0  0
   -0.6568    1.1713   -0.5294 C   0  0  0  0  0  0  0  0  0  0  0  0
   -0.6577    0.9003   -1.5870 H   0  0  0  0  0  0  0  0  0  0  0  0
   -1.6133    1.6507   -0.3101 H   0  0  0  0  0  0  0  0  0  0  0  0
    0.4617    2.2026   -0.2923 C   0  0  0  0  0  0  0  0  0  0  0  0
    0.4784    2.9223   -1.1108 H   0  0  0  0  0  0  0  0  0  0  0  0
    0.2846    2.9557    1.0293 C   0  0  0  0  0  0  0  0  0  0  0  0
    0.2497    2.2469    1.8578 H   0  0  0  0  0  0  0  0  0  0  0  0
    1.1221    3.6375    1.1785 H   0  0  0  0  0  0  0  0  0  0  0  0
   -0.6349    3.5370    1.0201 H   0  0  0  0  0  0  0  0  0  0  0  0
    1.8162    1.4961   -0.2558 C   0  0  0  0  0  0  0  0  0  0  0  0
    1.9842    0.9763   -1.1990 H   0  0  0  0  0  0  0  0  0  0  0  0
    2.6122    2.2274   -0.1157 H   0  0  0  0  0  0  0  0  0  0  0  0
    1.8419    0.7750    0.5620 H   0  0  0  0  0  0  0  0  0  0  0  0
   -0.1913    0.1554    1.7759 C   0  0  0  0  0  0  0  0  0  0  0  0
    0.9476   -0.0766    2.1748 O   0  0  0  0  0  0  0  0  0  0  0  0
   -1.1502    0.6393    2.5760 N   0  0  0  0  0  0  0  0  0  0  0  0
   -2.0581    0.8092    2.1736 H   0  0  0  0  0  0  0  0  0  0  0  0
   -0.9568    0.9369    3.9933 C   0  0  0  0  0  0  0  0  0  0  0  0
   -0.1600    1.6750    4.1097 H   0  0  0  0  0  0  0  0  0  0  0  0
   -1.8775    1.3307    4.4266 H   0  0  0  0  0  0  0  0  0  0  0  0
   -0.6678    0.0287    4.5244 H   0  0  0  0  0  0  0  0  0  0  0  0
  5  6  2  0  0  0  0
  5  7  1  0  0  0  0
  2  3  1  0  0  0  0
  2  4  1  0  0  0  0
  2  5  1  0  0  0  0
  1  2  1  0  0  0  0
 24 25  2  0  0  0  0
 24 26  1  0  0  0  0
 20 21  1  0  0  0  0
 20 22  1  0  0  0  0
 20 23  1  0  0  0  0
 16 17  1  0  0  0  0
 16 18  1  0  0  0  0
 16 19  1  0  0  0  0
 14 15  1  0  0  0  0
 14 16  1  0  0  0  0
 14 20  1  0  0  0  0
 11 12  1  0  0  0  0
 11 13  1  0  0  0  0
 11 14  1  0  0  0  0
  9 10  1  0  0  0  0
  9 11  1  0  0  0  0
  9 24  1  0  0  0  0
  7  8  1  0  0  0  0
  7  9  1  0  0  0  0
 28 29  1  0  0  0  0
 28 30  1  0  0  0  0
 28 31  1  0  0  0  0
 26 27  1  0  0  0  0
 26 28  1  0  0  0  0
M  END
$$$$
default_name
  -OEChem-02102213163D

 31 30  0     1  0  0  0  0  0999 V2000
   -3.5895   -3.5013    1.1082 H   0  0  0  0  0  0  0  0  0  0  0  0
   -3.5145   -2.5363    0.6082 C   0  0  0  0  0  0  0  0  0  0  0  0
   -4.2285   -1.8413    1.0452 H   0  0  0  0  0  0  0  0  0  0  0  0
   -3.7155   -2.6583   -0.4538 H   0  0  0  0  0  0  0  0  0  0  0  0
   -2.1155   -1.9963    0.7922 C   0  0  0  0  0  0  0  0  0  0  0  0
   -1.2875   -2.6383    1.4252 O   0  0  0  0  0  0  0  0  0  0  0  0
   -1.8575   -0.8123    0.2402 N   0  0  0  0  0  0  0  0  0  0  0  0
   -2.6005   -0.3333   -0.2478 H   0  0  0  0  0  0  0  0  0  0  0  0
   -0.5675   -0.1203    0.3102 C   0  0  1  0  0  0  0  0  0  0  0  0
    0.1932   -0.7715   -0.1219 H   0  0  0  0  0  0  0  0  0  0  0  0
   -0.6568    1.1713   -0.5294 C   0  0  0  0  0  0  0  0  0  0  0  0
   -0.6577    0.9003   -1.5870 H   0  0  0  0  0  0  0  0  0  0  0  0
   -1.6133    1.6507   -0.3101 H   0  0  0  0  0  0  0  0  0  0  0  0
    0.4617    2.2026   -0.2923 C   0  0  0  0  0  0  0  0  0  0  0  0
    0.3164    3.0607   -0.9486 H   0  0  0  0  0  0  0  0  0  0  0  0
    0.5041    2.6877    1.1596 C   0  0  0  0  0  0  0  0  0  0  0  0
    0.6330    1.8375    1.8307 H   0  0  0  0  0  0  0  0  0  0  0  0
    1.3387    3.3765    1.2924 H   0  0  0  0  0  0  0  0  0  0  0  0
   -0.4158    3.2079    1.4179 H   0  0  0  0  0  0  0  0  0  0  0  0
    1.8174    1.5790   -0.6220 C   0  0  0  0  0  0  0  0  0  0  0  0
    1.8276    1.2525   -1.6619 H   0  0  0  0  0  0  0  0  0  0  0  0
    2.6083    2.3157   -0.4815 H   0  0  0  0  0  0  0  0  0  0  0  0
    2.0043    0.7222    0.0261 H   0  0  0  0  0  0  0  0  0  0  0  0
   -0.1913    0.1554    1.7759 C   0  0  0  0  0  0  0  0  0  0  0  0
    0.9476   -0.0766    2.1748 O   0  0  0  0  0  0  0  0  0  0  0  0
   -1.1502    0.6393    2.5760 N   0  0  0  0  0  0  0  0  0  0  0  0
   -2.0581    0.8092    2.1736 H   0  0  0  0  0  0  0  0  0  0  0  0
   -0.9568    0.9369    3.9933 C   0  0  0  0  0  0  0  0  0  0  0  0
   -0.1600    1.6750    4.1097 H   0  0  0  0  0  0  0  0  0  0  0  0
   -1.8775    1.3307    4.4266 H   0  0  0  0  0  0  0  0  0  0  0  0
   -0.6678    0.0287    4.5244 H   0  0  0  0  0  0  0  0  0  0  0  0
  5  6  2  0  0  0  0
  5  7  1  0  0  0  0
  2  3  1  0  0  0  0
  2  4  1  0  0  0  0
  2  5  1  0  0  0  0
  1  2  1  0  0  0  0
 24 25  2  0  0  0  0
 24 26  1  0  0  0  0
 20 21  1  0  0  0  0
 20 22  1  0  0  0  0
 20 23  1  0  0  0  0
 16 17  1  0  0  0  0
 16 18  1  0  0  0  0
 16 19  1  0  0  0  0
 14 15  1  0  0  0  0
 14 16  1  0  0  0  0
 14 20  1  0  0  0  0
 11 12  1  0  0  0  0
 11 13  1  0  0  0  0
 11 14  1  0  0  0  0
  9 10  1  0  0  0  0
  9 11  1  0  0  0  0
  9 24  1  0  0  0  0
  7  8  1  0  0  0  0
  7  9  1  0  0  0  0
 28 29  1  0  0  0  0
 28 30  1  0  0  0  0
 28 31  1  0  0  0  0
 26 27  1  0  0  0  0
 26 28  1  0  0  0  0
M  END
$$$$
default_name
  -OEChem-02102213163D

 31 30  0     1  0  0  0  0  0999 V2000
   -3.5895   -3.5013    1.1082 H   0  0  0  0  0  0  0  0  0  0  0  0
   -3.5145   -2.5363    0.6082 C   0  0  0  0  0  0  0  0  0  0  0  0
   -4.2285   -1.8413    1.0452 H   0  0  0  0  0  0  0  0  0  0  0  0
   -3.7155   -2.6583   -0.4538 H   0  0  0  0  0  0  0  0  0  0  0  0
   -2.1155   -1.9963    0.7922 C   0  0  0  0  0  0  0  0  0  0  0  0
   -1.2875   -2.6383    1.4252 O   0  0  0  0  0  0  0  0  0  0  0  0
   -1.8575   -0.8123    0.2402 N   0  0  0  0  0  0  0  0  0  0  0  0
   -2.6005   -0.3333   -0.2478 H   0  0  0  0  0  0  0  0  0  0  0  0
   -0.5675   -0.1203    0.3102 C   0  0  1  0  0  0  0  0  0  0  0  0
    0.1932   -0.7715   -0.1219 H   0  0  0  0  0  0  0  0  0  0  0  0
   -0.6568    1.1713   -0.5294 C   0  0  0  0  0  0  0  0  0  0  0  0
   -0.6577    0.9003   -1.5870 H   0  0  0  0  0  0  0  0  0  0  0  0
   -1.6133    1.6507   -0.3101 H   0  0  0  0  0  0  0  0  0  0  0  0
    0.4617    2.2026   -0.2923 C   0  0  0  0  0  0  0  0  0  0  0  0
    0.1825    3.1575   -0.7378 H   0  0  0  0  0  0  0  0  0  0  0  0
    0.7493    2.4132    1.1971 C   0  0  0  0  0  0  0  0  0  0  0  0
    1.0149    1.4623    1.6611 H   0  0  0  0  0  0  0  0  0  0  0  0
    1.5780    3.1116    1.3158 H   0  0  0  0  0  0  0  0  0  0  0  0
   -0.1221    2.8240    1.7023 H   0  0  0  0  0  0  0  0  0  0  0  0
    1.7516    1.7281   -0.9604 C   0  0  0  0  0  0  0  0  0  0  0  0
    1.5851    1.6001   -2.0299 H   0  0  0  0  0  0  0  0  0  0  0  0
    2.5376    2.4696   -0.8175 H   0  0  0  0  0  0  0  0  0  0  0  0
    2.0703    0.7783   -0.5295 H   0  0  0  0  0  0  0  0  0  0  0  0
   -0.1913    0.1554    1.7759 C   0  0  0  0  0  0  0  0  0  0  0  0
    0.9476   -0.0766    2.1748 O   0  0  0  0  0  0  0  0  0  0  0  0
   -1.1502    0.6393    2.5760 N   0  0  0  0  0  0  0  0  0  0  0  0
   -2.0581    0.8092    2.1736 H   0  0  0  0  0  0  0  0  0  0  0  0
   -0.9568    0.9369    3.9933 C   0  0  0  0  0  0  0  0  0  0  0  0
   -0.1600    1.6750    4.1097 H   0  0  0  0  0  0  0  0  0  0  0  0
   -1.8775    1.3307    4.4266 H   0  0  0  0  0  0  0  0  0  0  0  0
   -0.6678    0.0287    4.5244 H   0  0  0  0  0  0  0  0  0  0  0  0
  5  6  2  0  0  0  0
  5  7  1  0  0  0  0
  2  3  1  0  0  0  0
  2  4  1  0  0  0  0
  2  5  1  0  0  0  0
  1  2  1  0  0  0  0
 24 25  2  0  0  0  0
 24 26  1  0  0  0  0
 20 21  1  0  0  0  0
 20 22  1  0  0  0  0
 20 23  1  0  0  0  0
 16 17  1  0  0  0  0
 16 18  1  0  0  0  0
 16 19  1  0  0  0  0
 14 15  1  0  0  0  0
 14 16  1  0  0  0  0
 14 20  1  0  0  0  0
 11 12  1  0  0  0  0
 11 13  1  0  0  0  0
 11 14  1  0  0  0  0
  9 10  1  0  0  0  0
  9 11  1  0  0  0  0
  9 24  1  0  0  0  0
  7  8  1  0  0  0  0
  7  9  1  0  0  0  0
 28 29  1  0  0  0  0
 28 30  1  0  0  0  0
 28 31  1  0  0  0  0
 26 27  1  0  0  0  0
 26 28  1  0  0  0  0
M  END
$$$$
default_name
  -OEChem-02102213163D

 31 30  0     1  0  0  0  0  0999 V2000
   -3.5895   -3.5013    1.1082 H   0  0  0  0  0  0  0  0  0  0  0  0
   -3.5145   -2.5363    0.6082 C   0  0  0  0  0  0  0  0  0  0  0  0
   -4.2285   -1.8413    1.0452 H   0  0  0  0  0  0  0  0  0  0  0  0
   -3.7155   -2.6583   -0.4538 H   0  0  0  0  0  0  0  0  0  0  0  0
   -2.1155   -1.9963    0.7922 C   0  0  0  0  0  0  0  0  0  0  0  0
   -1.2875   -2.6383    1.4252 O   0  0  0  0  0  0  0  0  0  0  0  0
   -1.8575   -0.8123    0.2402 N   0  0  0  0  0  0  0  0  0  0  0  0
   -2.6005   -0.3333   -0.2478 H   0  0  0  0  0  0  0  0  0  0  0  0
   -0.5675   -0.1203    0.3102 C   0  0  1  0  0  0  0  0  0  0  0  0
    0.1932   -0.7715   -0.1219 H   0  0  0  0  0  0  0  0  0  0  0  0
   -0.6568    1.1713   -0.5294 C   0  0  0  0  0  0  0  0  0  0  0  0
   -0.6577    0.9003   -1.5870 H   0  0  0  0  0  0  0  0  0  0  0  0
   -1.6133    1.6507   -0.3101 H   0  0  0  0  0  0  0  0  0  0  0  0
    0.4617    2.2026   -0.2923 C   0  0  0  0  0  0  0  0  0  0  0  0
    0.0858    3.2060   -0.4928 H   0  0  0  0  0  0  0  0  0  0  0  0
    1.0037    2.1507    1.1391 C   0  0  0  0  0  0  0  0  0  0  0  0
    1.3693    1.1471    1.3606 H   0  0  0  0  0  0  0  0  0  0  0  0
    1.8238    2.8608    1.2471 H   0  0  0  0  0  0  0  0  0  0  0  0
    0.2262    2.4114    1.8539 H   0  0  0  0  0  0  0  0  0  0  0  0
    1.6236    1.9331   -1.2477 C   0  0  0  0  0  0  0  0  0  0  0  0
    1.2732    1.9954   -2.2779 H   0  0  0  0  0  0  0  0  0  0  0  0
    2.4050    2.6787   -1.1008 H   0  0  0  0  0  0  0  0  0  0  0  0
    2.0356    0.9396   -1.0672 H   0  0  0  0  0  0  0  0  0  0  0  0
   -0.1913    0.1554    1.7759 C   0  0  0  0  0  0  0  0  0  0  0  0
    0.9476   -0.0766    2.1748 O   0  0  0  0  0  0  0  0  0  0  0  0
   -1.1502    0.6393    2.5760 N   0  0  0  0  0  0  0  0  0  0  0  0
   -2.0581    0.8092    2.1736 H   0  0  0  0  0  0  0  0  0  0  0  0
   -0.9568    0.9369    3.9933 C   0  0  0  0  0  0  0  0  0  0  0  0
   -0.1600    1.6750    4.1097 H   0  0  0  0  0  0  0  0  0  0  0  0
   -1.8775    1.3307    4.4266 H   0  0  0  0  0  0  0  0  0  0  0  0
   -0.6678    0.0287    4.5244 H   0  0  0  0  0  0  0  0  0  0  0  0
  5  6  2  0  0  0  0
  5  7  1  0  0  0  0
  2  3  1  0  0  0  0
  2  4  1  0  0  0  0
  2  5  1  0  0  0  0
  1  2  1  0  0  0  0
 24 25  2  0  0  0  0
 24 26  1  0  0  0  0
 20 21  1  0  0  0  0
 20 22  1  0  0  0  0
 20 23  1  0  0  0  0
 16 17  1  0  0  0  0
 16 18  1  0  0  0  0
 16 19  1  0  0  0  0
 14 15  1  0  0  0  0
 14 16  1  0  0  0  0
 14 20  1  0  0  0  0
 11 12  1  0  0  0  0
 11 13  1  0  0  0  0
 11 14  1  0  0  0  0
  9 10  1  0  0  0  0
  9 11  1  0  0  0  0
  9 24  1  0  0  0  0
  7  8  1  0  0  0  0
  7  9  1  0  0  0  0
 28 29  1  0  0  0  0
 28 30  1  0  0  0  0
 28 31  1  0  0  0  0
 26 27  1  0  0  0  0
 26 28  1  0  0  0  0
M  END
$$$$
default_name
  -OEChem-02102213163D

 31 30  0     1  0  0  0  0  0999 V2000
   -3.5895   -3.5013    1.1082 H   0  0  0  0  0  0  0  0  0  0  0  0
   -3.5145   -2.5363    0.6082 C   0  0  0  0  0  0  0  0  0  0  0  0
   -4.2285   -1.8413    1.0452 H   0  0  0  0  0  0  0  0  0  0  0  0
   -3.7155   -2.6583   -0.4538 H   0  0  0  0  0  0  0  0  0  0  0  0
   -2.1155   -1.9963    0.7922 C   0  0  0  0  0  0  0  0  0  0  0  0
   -1.2875   -2.6383    1.4252 O   0  0  0  0  0  0  0  0  0  0  0  0
   -1.8575   -0.8123    0.2402 N   0  0  0  0  0  0  0  0  0  0  0  0
   -2.6005   -0.3333   -0.2478 H   0  0  0  0  0  0  0  0  0  0  0  0
   -0.5675   -0.1203    0.3102 C   0  0  1  0  0  0  0  0  0  0  0  0
    0.1932   -0.7715   -0.1219 H   0  0  0  0  0  0  0  0  0  0  0  0
   -0.6568    1.1713   -0.5294 C   0  0  0  0  0  0  0  0  0  0  0  0
   -0.6577    0.9003   -1.5870 H   0  0  0  0  0  0  0  0  0  0  0  0
   -1.6133    1.6507   -0.3101 H   0  0  0  0  0  0  0  0  0  0  0  0
    0.4617    2.2026   -0.2923 C   0  0  0  0  0  0  0  0  0  0  0  0
    0.0330    3.2029   -0.2302 H   0  0  0  0  0  0  0  0  0  0  0  0
    1.2498    1.9182    0.9896 C   0  0  0  0  0  0  0  0  0  0  0  0
    1.6721    0.9132    0.9495 H   0  0  0  0  0  0  0  0  0  0  0  0
    2.0593    2.6413    1.0910 H   0  0  0  0  0  0  0  0  0  0  0  0
    0.6054    1.9983    1.8624 H   0  0  0  0  0  0  0  0  0  0  0  0
    1.4419    2.1800   -1.4646 C   0  0  0  0  0  0  0  0  0  0  0  0
    0.9131    2.4114   -2.3892 H   0  0  0  0  0  0  0  0  0  0  0  0
    2.2194    2.9286   -1.3122 H   0  0  0  0  0  0  0  0  0  0  0  0
    1.9024    1.1951   -1.5502 H   0  0  0  0  0  0  0  0  0  0  0  0
   -0.1913    0.1554    1.7759 C   0  0  0  0  0  0  0  0  0  0  0  0
    0.9476   -0.0766    2.1748 O   0  0  0  0  0  0  0  0  0  0  0  0
   -1.1502    0.6393    2.5760 N   0  0  0  0  0  0  0  0  0  0  0  0
   -2.0581    0.8092    2.1736 H   0  0  0  0  0  0  0  0  0  0  0  0
   -0.9568    0.9369    3.9933 C   0  0  0  0  0  0  0  0  0  0  0  0
   -0.1600    1.6750    4.1097 H   0  0  0  0  0  0  0  0  0  0  0  0
   -1.8775    1.3307    4.4266 H   0  0  0  0  0  0  0  0  0  0  0  0
   -0.6678    0.0287    4.5244 H   0  0  0  0  0  0  0  0  0  0  0  0
  5  6  2  0  0  0  0
  5  7  1  0  0  0  0
  2  3  1  0  0  0  0
  2  4  1  0  0  0  0
  2  5  1  0  0  0  0
  1  2  1  0  0  0  0
 24 25  2  0  0  0  0
 24 26  1  0  0  0  0
 20 21  1  0  0  0  0
 20 22  1  0  0  0  0
 20 23  1  0  0  0  0
 16 17  1  0  0  0  0
 16 18  1  0  0  0  0
 16 19  1  0  0  0  0
 14 15  1  0  0  0  0
 14 16  1  0  0  0  0
 14 20  1  0  0  0  0
 11 12  1  0  0  0  0
 11 13  1  0  0  0  0
 11 14  1  0  0  0  0
  9 10  1  0  0  0  0
  9 11  1  0  0  0  0
  9 24  1  0  0  0  0
  7  8  1  0  0  0  0
  7  9  1  0  0  0  0
 28 29  1  0  0  0  0
 28 30  1  0  0  0  0
 28 31  1  0  0  0  0
 26 27  1  0  0  0  0
 26 28  1  0  0  0  0
M  END
$$$$
default_name
  -OEChem-02102213163D

 31 30  0     1  0  0  0  0  0999 V2000
   -3.5895   -3.5013    1.1082 H   0  0  0  0  0  0  0  0  0  0  0  0
   -3.5145   -2.5363    0.6082 C   0  0  0  0  0  0  0  0  0  0  0  0
   -4.2285   -1.8413    1.0452 H   0  0  0  0  0  0  0  0  0  0  0  0
   -3.7155   -2.6583   -0.4538 H   0  0  0  0  0  0  0  0  0  0  0  0
   -2.1155   -1.9963    0.7922 C   0  0  0  0  0  0  0  0  0  0  0  0
   -1.2875   -2.6383    1.4252 O   0  0  0  0  0  0  0  0  0  0  0  0
   -1.8575   -0.8123    0.2402 N   0  0  0  0  0  0  0  0  0  0  0  0
   -2.6005   -0.3333   -0.2478 H   0  0  0  0  0  0  0  0  0  0  0  0
   -0.5675   -0.1203    0.3102 C   0  0  1  0  0  0  0  0  0  0  0  0
    0.1932   -0.7715   -0.1219 H   0  0  0  0  0  0  0  0  0  0  0  0
   -0.6568    1.1713   -0.5294 C   0  0  0  0  0  0  0  0  0  0  0  0
   -0.6577    0.9003   -1.5870 H   0  0  0  0  0  0  0  0  0  0  0  0
   -1.6133    1.6507   -0.3101 H   0  0  0  0  0  0  0  0  0  0  0  0
    0.4617    2.2026   -0.2923 C   0  0  0  0  0  0  0  0  0  0  0  0
    0.0276    3.1484    0.0319 H   0  0  0  0  0  0  0  0  0  0  0  0
    1.4708    1.7315    0.7589 C   0  0  0  0  0  0  0  0  0  0  0  0
    1.9027    0.7766    0.4560 H   0  0  0  0  0  0  0  0  0  0  0  0
    2.2684    2.4681    0.8581 H   0  0  0  0  0  0  0  0  0  0  0  0
    0.9896    1.6127    1.7273 H   0  0  0  0  0  0  0  0  0  0  0  0
    1.2189    2.4520   -1.5961 C   0  0  0  0  0  0  0  0  0  0  0  0
    0.5295    2.8198   -2.3560 H   0  0  0  0  0  0  0  0  0  0  0  0
    1.9935    3.2023   -1.4373 H   0  0  0  0  0  0  0  0  0  0  0  0
    1.6798    1.5274   -1.9455 H   0  0  0  0  0  0  0  0  0  0  0  0
   -0.1913    0.1554    1.7759 C   0  0  0  0  0  0  0  0  0  0  0  0
    0.9476   -0.0766    2.1748 O   0  0  0  0  0  0  0  0  0  0  0  0
   -1.1502    0.6393    2.5760 N   0  0  0  0  0  0  0  0  0  0  0  0
   -2.0581    0.8092    2.1736 H   0  0  0  0  0  0  0  0  0  0  0  0
   -0.9568    0.9369    3.9933 C   0  0  0  0  0  0  0  0  0  0  0  0
   -0.1600    1.6750    4.1097 H   0  0  0  0  0  0  0  0  0  0  0  0
   -1.8775    1.3307    4.4266 H   0  0  0  0  0  0  0  0  0  0  0  0
   -0.6678    0.0287    4.5244 H   0  0  0  0  0  0  0  0  0  0  0  0
  5  6  2  0  0  0  0
  5  7  1  0  0  0  0
  2  3  1  0  0  0  0
  2  4  1  0  0  0  0
  2  5  1  0  0  0  0
  1  2  1  0  0  0  0
 24 25  2  0  0  0  0
 24 26  1  0  0  0  0
 20 21  1  0  0  0  0
 20 22  1  0  0  0  0
 20 23  1  0  0  0  0
 16 17  1  0  0  0  0
 16 18  1  0  0  0  0
 16 19  1  0  0  0  0
 14 15  1  0  0  0  0
 14 16  1  0  0  0  0
 14 20  1  0  0  0  0
 11 12  1  0  0  0  0
 11 13  1  0  0  0  0
 11 14  1  0  0  0  0
  9 10  1  0  0  0  0
  9 11  1  0  0  0  0
  9 24  1  0  0  0  0
  7  8  1  0  0  0  0
  7  9  1  0  0  0  0
 28 29  1  0  0  0  0
 28 30  1  0  0  0  0
 28 31  1  0  0  0  0
 26 27  1  0  0  0  0
 26 28  1  0  0  0  0
M  END
$$$$
default_name
  -OEChem-02102213163D

 31 30  0     1  0  0  0  0  0999 V2000
   -3.5895   -3.5013    1.1082 H   0  0  0  0  0  0  0  0  0  0  0  0
   -3.5145   -2.5363    0.6082 C   0  0  0  0  0  0  0  0  0  0  0  0
   -4.2285   -1.8413    1.0452 H   0  0  0  0  0  0  0  0  0  0  0  0
   -3.7155   -2.6583   -0.4538 H   0  0  0  0  0  0  0  0  0  0  0  0
   -2.1155   -1.9963    0.7922 C   0  0  0  0  0  0  0  0  0  0  0  0
   -1.2875   -2.6383    1.4252 O   0  0  0  0  0  0  0  0  0  0  0  0
   -1.8575   -0.8123    0.2402 N   0  0  0  0  0  0  0  0  0  0  0  0
   -2.6005   -0.3333   -0.2478 H   0  0  0  0  0  0  0  0  0  0  0  0
   -0.5675   -0.1203    0.3102 C   0  0  1  0  0  0  0  0  0  0  0  0
    0.1932   -0.7715   -0.1219 H   0  0  0  0  0  0  0  0  0  0  0  0
   -0.6568    1.1713   -0.5294 C   0  0  0  0  0  0  0  0  0  0  0  0
   -0.6577    0.9003   -1.5870 H   0  0  0  0  0  0  0  0  0  0  0  0
   -1.6133    1.6507   -0.3101 H   0  0  0  0  0  0  0  0  0  0  0  0
    0.4617    2.2026   -0.2923 C   0  0  0  0  0  0  0  0  0  0  0  0
    0.0700    3.0464    0.2759 H   0  0  0  0  0  0  0  0  0  0  0  0
    1.6518    1.6034    0.4626 C   0  0  0  0  0  0  0  0  0  0  0  0
    2.0453    0.7467   -0.0863 H   0  0  0  0  0  0  0  0  0  0  0  0
    2.4370    2.3528    0.5644 H   0  0  0  0  0  0  0  0  0  0  0  0
    1.3527    1.2810    1.4576 H   0  0  0  0  0  0  0  0  0  0  0  0
    0.9699    2.7306   -1.6334 C   0  0  0  0  0  0  0  0  0  0  0  0
    0.1484    3.1928   -2.1806 H   0  0  0  0  0  0  0  0  0  0  0  0
    1.7427    3.4812   -1.4675 H   0  0  0  0  0  0  0  0  0  0  0  0
    1.3830    1.9138   -2.2264 H   0  0  0  0  0  0  0  0  0  0  0  0
   -0.1913    0.1554    1.7759 C   0  0  0  0  0  0  0  0  0  0  0  0
    0.9476   -0.0766    2.1748 O   0  0  0  0  0  0  0  0  0  0  0  0
   -1.1502    0.6393    2.5760 N   0  0  0  0  0  0  0  0  0  0  0  0
   -2.0581    0.8092    2.1736 H   0  0  0  0  0  0  0  0  0  0  0  0
   -0.9568    0.9369    3.9933 C   0  0  0  0  0  0  0  0  0  0  0  0
   -0.1600    1.6750    4.1097 H   0  0  0  0  0  0  0  0  0  0  0  0
   -1.8775    1.3307    4.4266 H   0  0  0  0  0  0  0  0  0  0  0  0
   -0.6678    0.0287    4.5244 H   0  0  0  0  0  0  0  0  0  0  0  0
  5  6  2  0  0  0  0
  5  7  1  0  0  0  0
  2  3  1  0  0  0  0
  2  4  1  0  0  0  0
  2  5  1  0  0  0  0
  1  2  1  0  0  0  0
 24 25  2  0  0  0  0
 24 26  1  0  0  0  0
 20 21  1  0  0  0  0
 20 22  1  0  0  0  0
 20 23  1  0  0  0  0
 16 17  1  0  0  0  0
 16 18  1  0  0  0  0
 16 19  1  0  0  0  0
 14 15  1  0  0  0  0
 14 16  1  0  0  0  0
 14 20  1  0  0  0  0
 11 12  1  0  0  0  0
 11 13  1  0  0  0  0
 11 14  1  0  0  0  0
  9 10  1  0  0  0  0
  9 11  1  0  0  0  0
  9 24  1  0  0  0  0
  7  8  1  0  0  0  0
  7  9  1  0  0  0  0
 28 29  1  0  0  0  0
 28 30  1  0  0  0  0
 28 31  1  0  0  0  0
 26 27  1  0  0  0  0
 26 28  1  0  0  0  0
M  END
$$$$
default_name
  -OEChem-02102213163D

 31 30  0     1  0  0  0  0  0999 V2000
   -3.5895   -3.5013    1.1082 H   0  0  0  0  0  0  0  0  0  0  0  0
   -3.5145   -2.5363    0.6082 C   0  0  0  0  0  0  0  0  0  0  0  0
   -4.2285   -1.8413    1.0452 H   0  0  0  0  0  0  0  0  0  0  0  0
   -3.7155   -2.6583   -0.4538 H   0  0  0  0  0  0  0  0  0  0  0  0
   -2.1155   -1.9963    0.7922 C   0  0  0  0  0  0  0  0  0  0  0  0
   -1.2875   -2.6383    1.4252 O   0  0  0  0  0  0  0  0  0  0  0  0
   -1.8575   -0.8123    0.2402 N   0  0  0  0  0  0  0  0  0  0  0  0
   -2.6005   -0.3333   -0.2478 H   0  0  0  0  0  0  0  0  0  0  0  0
   -0.5675   -0.1203    0.3102 C   0  0  1  0  0  0  0  0  0  0  0  0
    0.1932   -0.7715   -0.1219 H   0  0  0  0  0  0  0  0  0  0  0  0
   -0.6568    1.1713   -0.5294 C   0  0  0  0  0  0  0  0  0  0  0  0
   -0.6577    0.9003   -1.5870 H   0  0  0  0  0  0  0  0  0  0  0  0
   -1.6133    1.6507   -0.3101 H   0  0  0  0  0  0  0  0  0  0  0  0
    0.4617    2.2026   -0.2923 C   0  0  0  0  0  0  0  0  0  0  0  0
    0.1574    2.9036    0.4850 H   0  0  0  0  0  0  0  0  0  0  0  0
    1.7803    1.5425    0.1209 C   0  0  0  0  0  0  0  0  0  0  0  0
    2.0902    0.8254   -0.6405 H   0  0  0  0  0  0  0  0  0  0  0  0
    2.5535    2.3034    0.2297 H   0  0  0  0  0  0  0  0  0  0  0  0
    1.6698    1.0257    1.0718 H   0  0  0  0  0  0  0  0  0  0  0  0
    0.7119    2.9967   -1.5738 C   0  0  0  0  0  0  0  0  0  0  0  0
   -0.2041    3.5048   -1.8751 H   0  0  0  0  0  0  0  0  0  0  0  0
    1.4841    3.7463   -1.4007 H   0  0  0  0  0  0  0  0  0  0  0  0
    1.0322    2.3281   -2.3736 H   0  0  0  0  0  0  0  0  0  0  0  0
   -0.1913    0.1554    1.7759 C   0  0  0  0  0  0  0  0  0  0  0  0
    0.9476   -0.0766    2.1748 O   0  0  0  0  0  0  0  0  0  0  0  0
   -1.1502    0.6393    2.5760 N   0  0  0  0  0  0  0  0  0  0  0  0
   -2.0581    0.8092    2.1736 H   0  0  0  0  0  0  0  0  0  0  0  0
   -0.9568    0.9369    3.9933 C   0  0  0  0  0  0  0  0  0  0  0  0
   -0.1600    1.6750    4.1097 H   0  0  0  0  0  0  0  0  0  0  0  0
   -1.8775    1.3307    4.4266 H   0  0  0  0  0  0  0  0  0  0  0  0
   -0.6678    0.0287    4.5244 H   0  0  0  0  0  0  0  0  0  0  0  0
  5  6  2  0  0  0  0
  5  7  1  0  0  0  0
  2  3  1  0  0  0  0
  2  4  1  0  0  0  0
  2  5  1  0  0  0  0
  1  2  1  0  0  0  0
 24 25  2  0  0  0  0
 24 26  1  0  0  0  0
 20 21  1  0  0  0  0
 20 22  1  0  0  0  0
 20 23  1  0  0  0  0
 16 17  1  0  0  0  0
 16 18  1  0  0  0  0
 16 19  1  0  0  0  0
 14 15  1  0  0  0  0
 14 16  1  0  0  0  0
 14 20  1  0  0  0  0
 11 12  1  0  0  0  0
 11 13  1  0  0  0  0
 11 14  1  0  0  0  0
  9 10  1  0  0  0  0
  9 11  1  0  0  0  0
  9 24  1  0  0  0  0
  7  8  1  0  0  0  0
  7  9  1  0  0  0  0
 28 29  1  0  0  0  0
 28 30  1  0  0  0  0
 28 31  1  0  0  0  0
 26 27  1  0  0  0  0
 26 28  1  0  0  0  0
M  END
$$$$
default_name
  -OEChem-02102213163D

 31 30  0     1  0  0  0  0  0999 V2000
   -3.5895   -3.5013    1.1082 H   0  0  0  0  0  0  0  0  0  0  0  0
   -3.5145   -2.5363    0.6082 C   0  0  0  0  0  0  0  0  0  0  0  0
   -4.2285   -1.8413    1.0452 H   0  0  0  0  0  0  0  0  0  0  0  0
   -3.7155   -2.6583   -0.4538 H   0  0  0  0  0  0  0  0  0  0  0  0
   -2.1155   -1.9963    0.7922 C   0  0  0  0  0  0  0  0  0  0  0  0
   -1.2875   -2.6383    1.4252 O   0  0  0  0  0  0  0  0  0  0  0  0
   -1.8575   -0.8123    0.2402 N   0  0  0  0  0  0  0  0  0  0  0  0
   -2.6005   -0.3333   -0.2478 H   0  0  0  0  0  0  0  0  0  0  0  0
   -0.5675   -0.1203    0.3102 C   0  0  1  0  0  0  0  0  0  0  0  0
    0.1932   -0.7715   -0.1219 H   0  0  0  0  0  0  0  0  0  0  0  0
   -0.6568    1.1713   -0.5294 C   0  0  0  0  0  0  0  0  0  0  0  0
   -0.6577    0.9003   -1.5870 H   0  0  0  0  0  0  0  0  0  0  0  0
   -1.6133    1.6507   -0.3101 H   0  0  0  0  0  0  0  0  0  0  0  0
    0.4617    2.2026   -0.2923 C   0  0  0  0  0  0  0  0  0  0  0  0
    0.2836    2.7298    0.6450 H   0  0  0  0  0  0  0  0  0  0  0  0
    1.8477    1.5531   -0.2428 C   0  0  0  0  0  0  0  0  0  0  0  0
    2.0344    1.0074   -1.1688 H   0  0  0  0  0  0  0  0  0  0  0  0
    2.6100    2.3233   -0.1230 H   0  0  0  0  0  0  0  0  0  0  0  0
    1.9194    0.8644    0.5962 H   0  0  0  0  0  0  0  0  0  0  0  0
    0.4623    3.2323   -1.4215 C   0  0  0  0  0  0  0  0  0  0  0  0
   -0.5041    3.7348   -1.4601 H   0  0  0  0  0  0  0  0  0  0  0  0
    1.2353    3.9794   -1.2415 H   0  0  0  0  0  0  0  0  0  0  0  0
    0.6514    2.7419   -2.3770 H   0  0  0  0  0  0  0  0  0  0  0  0
   -0.1913    0.1554    1.7759 C   0  0  0  0  0  0  0  0  0  0  0  0
    0.9476   -0.0766    2.1748 O   0  0  0  0  0  0  0  0  0  0  0  0
   -1.1502    0.6393    2.5760 N   0  0  0  0  0  0  0  0  0  0  0  0
   -2.0581    0.8092    2.1736 H   0  0  0  0  0  0  0  0  0  0  0  0
   -0.9568    0.9369    3.9933 C   0  0  0  0  0  0  0  0  0  0  0  0
   -0.1600    1.6750    4.1097 H   0  0  0  0  0  0  0  0  0  0  0  0
   -1.8775    1.3307    4.4266 H   0  0  0  0  0  0  0  0  0  0  0  0
   -0.6678    0.0287    4.5244 H   0  0  0  0  0  0  0  0  0  0  0  0
  5  6  2  0  0  0  0
  5  7  1  0  0  0  0
  2  3  1  0  0  0  0
  2  4  1  0  0  0  0
  2  5  1  0  0  0  0
  1  2  1  0  0  0  0
 24 25  2  0  0  0  0
 24 26  1  0  0  0  0
 20 21  1  0  0  0  0
 20 22  1  0  0  0  0
 20 23  1  0  0  0  0
 16 17  1  0  0  0  0
 16 18  1  0  0  0  0
 16 19  1  0  0  0  0
 14 15  1  0  0  0  0
 14 16  1  0  0  0  0
 14 20  1  0  0  0  0
 11 12  1  0  0  0  0
 11 13  1  0  0  0  0
 11 14  1  0  0  0  0
  9 10  1  0  0  0  0
  9 11  1  0  0  0  0
  9 24  1  0  0  0  0
  7  8  1  0  0  0  0
  7  9  1  0  0  0  0
 28 29  1  0  0  0  0
 28 30  1  0  0  0  0
 28 31  1  0  0  0  0
 26 27  1  0  0  0  0
 26 28  1  0  0  0  0
M  END
$$$$
default_name
  -OEChem-02102213163D

 31 30  0     1  0  0  0  0  0999 V2000
   -3.5895   -3.5013    1.1082 H   0  0  0  0  0  0  0  0  0  0  0  0
   -3.5145   -2.5363    0.6082 C   0  0  0  0  0  0  0  0  0  0  0  0
   -4.2285   -1.8413    1.0452 H   0  0  0  0  0  0  0  0  0  0  0  0
   -3.7155   -2.6583   -0.4538 H   0  0  0  0  0  0  0  0  0  0  0  0
   -2.1155   -1.9963    0.7922 C   0  0  0  0  0  0  0  0  0  0  0  0
   -1.2875   -2.6383    1.4252 O   0  0  0  0  0  0  0  0  0  0  0  0
   -1.8575   -0.8123    0.2402 N   0  0  0  0  0  0  0  0  0  0  0  0
   -2.6005   -0.3333   -0.2478 H   0  0  0  0  0  0  0  0  0  0  0  0
   -0.5675   -0.1203    0.3102 C   0  0  1  0  0  0  0  0  0  0  0  0
    0.1932   -0.7715   -0.1219 H   0  0  0  0  0  0  0  0  0  0  0  0
   -0.6568    1.1713   -0.5294 C   0  0  0  0  0  0  0  0  0  0  0  0
   -0.6577    0.9003   -1.5870 H   0  0  0  0  0  0  0  0  0  0  0  0
   -1.6133    1.6507   -0.3101 H   0  0  0  0  0  0  0  0  0  0  0  0
    0.4617    2.2026   -0.2923 C   0  0  0  0  0  0  0  0  0  0  0  0
    0.4403    2.5370    0.7449 H   0  0  0  0  0  0  0  0  0  0  0  0
    1.8492    1.6344   -0.6039 C   0  0  0  0  0  0  0  0  0  0  0  0
    1.8816    1.2803   -1.6352 H   0  0  0  0  0  0  0  0  0  0  0  0
    2.6026    2.4110   -0.4698 H   0  0  0  0  0  0  0  0  0  0  0  0
    2.0845    0.8079    0.0632 H   0  0  0  0  0  0  0  0  0  0  0  0
    0.2383    3.4214   -1.1869 C   0  0  0  0  0  0  0  0  0  0  0  0
   -0.7312    3.8670   -0.9641 H   0  0  0  0  0  0  0  0  0  0  0  0
    1.0133    4.1649   -1.0008 H   0  0  0  0  0  0  0  0  0  0  0  0
    0.2664    3.1270   -2.2366 H   0  0  0  0  0  0  0  0  0  0  0  0
   -0.1913    0.1554    1.7759 C   0  0  0  0  0  0  0  0  0  0  0  0
    0.9476   -0.0766    2.1748 O   0  0  0  0  0  0  0  0  0  0  0  0
   -1.1502    0.6393    2.5760 N   0  0  0  0  0  0  0  0  0  0  0  0
   -2.0581    0.8092    2.1736 H   0  0  0  0  0  0  0  0  0  0  0  0
   -0.9568    0.9369    3.9933 C   0  0  0  0  0  0  0  0  0  0  0  0
   -0.1600    1.6750    4.1097 H   0  0  0  0  0  0  0  0  0  0  0  0
   -1.8775    1.3307    4.4266 H   0  0  0  0  0  0  0  0  0  0  0  0
   -0.6678    0.0287    4.5244 H   0  0  0  0  0  0  0  0  0  0  0  0
  5  6  2  0  0  0  0
  5  7  1  0  0  0  0
  2  3  1  0  0  0  0
  2  4  1  0  0  0  0
  2  5  1  0  0  0  0
  1  2  1  0  0  0  0
 24 25  2  0  0  0  0
 24 26  1  0  0  0  0
 20 21  1  0  0  0  0
 20 22  1  0  0  0  0
 20 23  1  0  0  0  0
 16 17  1  0  0  0  0
 16 18  1  0  0  0  0
 16 19  1  0  0  0  0
 14 15  1  0  0  0  0
 14 16  1  0  0  0  0
 14 20  1  0  0  0  0
 11 12  1  0  0  0  0
 11 13  1  0  0  0  0
 11 14  1  0  0  0  0
  9 10  1  0  0  0  0
  9 11  1  0  0  0  0
  9 24  1  0  0  0  0
  7  8  1  0  0  0  0
  7  9  1  0  0  0  0
 28 29  1  0  0  0  0
 28 30  1  0  0  0  0
 28 31  1  0  0  0  0
 26 27  1  0  0  0  0
 26 28  1  0  0  0  0
M  END
$$$$
default_name
  -OEChem-02102213163D

 31 30  0     1  0  0  0  0  0999 V2000
   -3.5895   -3.5013    1.1082 H   0  0  0  0  0  0  0  0  0  0  0  0
   -3.5145   -2.5363    0.6082 C   0  0  0  0  0  0  0  0  0  0  0  0
   -4.2285   -1.8413    1.0452 H   0  0  0  0  0  0  0  0  0  0  0  0
   -3.7155   -2.6583   -0.4538 H   0  0  0  0  0  0  0  0  0  0  0  0
   -2.1155   -1.9963    0.7922 C   0  0  0  0  0  0  0  0  0  0  0  0
   -1.2875   -2.6383    1.4252 O   0  0  0  0  0  0  0  0  0  0  0  0
   -1.8575   -0.8123    0.2402 N   0  0  0  0  0  0  0  0  0  0  0  0
   -2.6005   -0.3333   -0.2478 H   0  0  0  0  0  0  0  0  0  0  0  0
   -0.5675   -0.1203    0.3102 C   0  0  1  0  0  0  0  0  0  0  0  0
    0.1932   -0.7715   -0.1219 H   0  0  0  0  0  0  0  0  0  0  0  0
   -0.6568    1.1713   -0.5294 C   0  0  0  0  0  0  0  0  0  0  0  0
   -0.6577    0.9003   -1.5870 H   0  0  0  0  0  0  0  0  0  0  0  0
   -1.6133    1.6507   -0.3101 H   0  0  0  0  0  0  0  0  0  0  0  0
    0.4617    2.2026   -0.2923 C   0  0  0  0  0  0  0  0  0  0  0  0
    0.6166    2.3381    0.7781 H   0  0  0  0  0  0  0  0  0  0  0  0
    1.7849    1.7809   -0.9376 C   0  0  0  0  0  0  0  0  0  0  0  0
    1.6423    1.6255   -2.0079 H   0  0  0  0  0  0  0  0  0  0  0  0
    2.5318    2.5607   -0.7870 H   0  0  0  0  0  0  0  0  0  0  0  0
    2.1539    0.8601   -0.4909 H   0  0  0  0  0  0  0  0  0  0  0  0
    0.0550    3.5509   -0.8858 C   0  0  0  0  0  0  0  0  0  0  0  0
   -0.8697    3.8923   -0.4207 H   0  0  0  0  0  0  0  0  0  0  0  0
    0.8332    4.2898   -0.6950 H   0  0  0  0  0  0  0  0  0  0  0  0
   -0.0964    3.4574   -1.9618 H   0  0  0  0  0  0  0  0  0  0  0  0
   -0.1913    0.1554    1.7759 C   0  0  0  0  0  0  0  0  0  0  0  0
    0.9476   -0.0766    2.1748 O   0  0  0  0  0  0  0  0  0  0  0  0
   -1.1502    0.6393    2.5760 N   0  0  0  0  0  0  0  0  0  0  0  0
   -2.0581    0.8092    2.1736 H   0  0  0  0  0  0  0  0  0  0  0  0
   -0.9568    0.9369    3.9933 C   0  0  0  0  0  0  0  0  0  0  0  0
   -0.1600    1.6750    4.1097 H   0  0  0  0  0  0  0  0  0  0  0  0
   -1.8775    1.3307    4.4266 H   0  0  0  0  0  0  0  0  0  0  0  0
   -0.6678    0.0287    4.5244 H   0  0  0  0  0  0  0  0  0  0  0  0
  5  6  2  0  0  0  0
  5  7  1  0  0  0  0
  2  3  1  0  0  0  0
  2  4  1  0  0  0  0
  2  5  1  0  0  0  0
  1  2  1  0  0  0  0
 24 25  2  0  0  0  0
 24 26  1  0  0  0  0
 20 21  1  0  0  0  0
 20 22  1  0  0  0  0
 20 23  1  0  0  0  0
 16 17  1  0  0  0  0
 16 18  1  0  0  0  0
 16 19  1  0  0  0  0
 14 15  1  0  0  0  0
 14 16  1  0  0  0  0
 14 20  1  0  0  0  0
 11 12  1  0  0  0  0
 11 13  1  0  0  0  0
 11 14  1  0  0  0  0
  9 10  1  0  0  0  0
  9 11  1  0  0  0  0
  9 24  1  0  0  0  0
  7  8  1  0  0  0  0
  7  9  1  0  0  0  0
 28 29  1  0  0  0  0
 28 30  1  0  0  0  0
 28 31  1  0  0  0  0
 26 27  1  0  0  0  0
 26 28  1  0  0  0  0
M  END
$$$$
default_name
  -OEChem-02102213163D

 31 30  0     1  0  0  0  0  0999 V2000
   -3.5895   -3.5013    1.1082 H   0  0  0  0  0  0  0  0  0  0  0  0
   -3.5145   -2.5363    0.6082 C   0  0  0  0  0  0  0  0  0  0  0  0
   -4.2285   -1.8413    1.0452 H   0  0  0  0  0  0  0  0  0  0  0  0
   -3.7155   -2.6583   -0.4538 H   0  0  0  0  0  0  0  0  0  0  0  0
   -2.1155   -1.9963    0.7922 C   0  0  0  0  0  0  0  0  0  0  0  0
   -1.2875   -2.6383    1.4252 O   0  0  0  0  0  0  0  0  0  0  0  0
   -1.8575   -0.8123    0.2402 N   0  0  0  0  0  0  0  0  0  0  0  0
   -2.6005   -0.3333   -0.2478 H   0  0  0  0  0  0  0  0  0  0  0  0
   -0.5675   -0.1203    0.3102 C   0  0  1  0  0  0  0  0  0  0  0  0
    0.1932   -0.7715   -0.1219 H   0  0  0  0  0  0  0  0  0  0  0  0
   -0.6568    1.1713   -0.5294 C   0  0  0  0  0  0  0  0  0  0  0  0
   -0.6577    0.9003   -1.5870 H   0  0  0  0  0  0  0  0  0  0  0  0
   -1.6133    1.6507   -0.3101 H   0  0  0  0  0  0  0  0  0  0  0  0
    0.4617    2.2026   -0.2923 C   0  0  0  0  0  0  0  0  0  0  0  0
    0.8006    2.1468    0.7422 H   0  0  0  0  0  0  0  0  0  0  0  0
    1.6591    1.9825   -1.2213 C   0  0  0  0  0  0  0  0  0  0  0  0
    1.3328    2.0195   -2.2615 H   0  0  0  0  0  0  0  0  0  0  0  0
    2.4025    2.7620   -1.0529 H   0  0  0  0  0  0  0  0  0  0  0  0
    2.1227    1.0175   -1.0284 H   0  0  0  0  0  0  0  0  0  0  0  0
   -0.0750    3.6121   -0.5389 C   0  0  0  0  0  0  0  0  0  0  0  0
   -0.9104    3.8091    0.1329 H   0  0  0  0  0  0  0  0  0  0  0  0
    0.7073    4.3459   -0.3449 H   0  0  0  0  0  0  0  0  0  0  0  0
   -0.4124    3.7103   -1.5713 H   0  0  0  0  0  0  0  0  0  0  0  0
   -0.1913    0.1554    1.7759 C   0  0  0  0  0  0  0  0  0  0  0  0
    0.9476   -0.0766    2.1748 O   0  0  0  0  0  0  0  0  0  0  0  0
   -1.1502    0.6393    2.5760 N   0  0  0  0  0  0  0  0  0  0  0  0
   -2.0581    0.8092    2.1736 H   0  0  0  0  0  0  0  0  0  0  0  0
   -0.9568    0.9369    3.9933 C   0  0  0  0  0  0  0  0  0  0  0  0
   -0.1600    1.6750    4.1097 H   0  0  0  0  0  0  0  0  0  0  0  0
   -1.8775    1.3307    4.4266 H   0  0  0  0  0  0  0  0  0  0  0  0
   -0.6678    0.0287    4.5244 H   0  0  0  0  0  0  0  0  0  0  0  0
  5  6  2  0  0  0  0
  5  7  1  0  0  0  0
  2  3  1  0  0  0  0
  2  4  1  0  0  0  0
  2  5  1  0  0  0  0
  1  2  1  0  0  0  0
 24 25  2  0  0  0  0
 24 26  1  0  0  0  0
 20 21  1  0  0  0  0
 20 22  1  0  0  0  0
 20 23  1  0  0  0  0
 16 17  1  0  0  0  0
 16 18  1  0  0  0  0
 16 19  1  0  0  0  0
 14 15  1  0  0  0  0
 14 16  1  0  0  0  0
 14 20  1  0  0  0  0
 11 12  1  0  0  0  0
 11 13  1  0  0  0  0
 11 14  1  0  0  0  0
  9 10  1  0  0  0  0
  9 11  1  0  0  0  0
  9 24  1  0  0  0  0
  7  8  1  0  0  0  0
  7  9  1  0  0  0  0
 28 29  1  0  0  0  0
 28 30  1  0  0  0  0
 28 31  1  0  0  0  0
 26 27  1  0  0  0  0
 26 28  1  0  0  0  0
M  END
$$$$
default_name
  -OEChem-02102213163D

 31 30  0     1  0  0  0  0  0999 V2000
   -3.5895   -3.5013    1.1082 H   0  0  0  0  0  0  0  0  0  0  0  0
   -3.5145   -2.5363    0.6082 C   0  0  0  0  0  0  0  0  0  0  0  0
   -4.2285   -1.8413    1.0452 H   0  0  0  0  0  0  0  0  0  0  0  0
   -3.7155   -2.6583   -0.4538 H   0  0  0  0  0  0  0  0  0  0  0  0
   -2.1155   -1.9963    0.7922 C   0  0  0  0  0  0  0  0  0  0  0  0
   -1.2875   -2.6383    1.4252 O   0  0  0  0  0  0  0  0  0  0  0  0
   -1.8575   -0.8123    0.2402 N   0  0  0  0  0  0  0  0  0  0  0  0
   -2.6005   -0.3333   -0.2478 H   0  0  0  0  0  0  0  0  0  0  0  0
   -0.5675   -0.1203    0.3102 C   0  0  1  0  0  0  0  0  0  0  0  0
    0.1932   -0.7715   -0.1219 H   0  0  0  0  0  0  0  0  0  0  0  0
   -0.6568    1.1713   -0.5294 C   0  0  0  0  0  0  0  0  0  0  0  0
   -0.6577    0.9003   -1.5870 H   0  0  0  0  0  0  0  0  0  0  0  0
   -1.6133    1.6507   -0.3101 H   0  0  0  0  0  0  0  0  0  0  0  0
    0.4617    2.2026   -0.2923 C   0  0  0  0  0  0  0  0  0  0  0  0
    0.9798    1.9762    0.6396 H   0  0  0  0  0  0  0  0  0  0  0  0
    1.4804    2.2256   -1.4355 C   0  0  0  0  0  0  0  0  0  0  0  0
    0.9741    2.4354   -2.3787 H   0  0  0  0  0  0  0  0  0  0  0  0
    2.2235    3.0014   -1.2496 H   0  0  0  0  0  0  0  0  0  0  0  0
    1.9931    1.2693   -1.5125 H   0  0  0  0  0  0  0  0  0  0  0  0
   -0.1428    3.6008   -0.1698 C   0  0  0  0  0  0  0  0  0  0  0  0
   -0.8504    3.6231    0.6590 H   0  0  0  0  0  0  0  0  0  0  0  0
    0.6442    4.3292    0.0257 H   0  0  0  0  0  0  0  0  0  0  0  0
   -0.6601    3.8686   -1.0918 H   0  0  0  0  0  0  0  0  0  0  0  0
   -0.1913    0.1554    1.7759 C   0  0  0  0  0  0  0  0  0  0  0  0
    0.9476   -0.0766    2.1748 O   0  0  0  0  0  0  0  0  0  0  0  0
   -1.1502    0.6393    2.5760 N   0  0  0  0  0  0  0  0  0  0  0  0
   -2.0581    0.8092    2.1736 H   0  0  0  0  0  0  0  0  0  0  0  0
   -0.9568    0.9369    3.9933 C   0  0  0  0  0  0  0  0  0  0  0  0
   -0.1600    1.6750    4.1097 H   0  0  0  0  0  0  0  0  0  0  0  0
   -1.8775    1.3307    4.4266 H   0  0  0  0  0  0  0  0  0  0  0  0
   -0.6678    0.0287    4.5244 H   0  0  0  0  0  0  0  0  0  0  0  0
  5  6  2  0  0  0  0
  5  7  1  0  0  0  0
  2  3  1  0  0  0  0
  2  4  1  0  0  0  0
  2  5  1  0  0  0  0
  1  2  1  0  0  0  0
 24 25  2  0  0  0  0
 24 26  1  0  0  0  0
 20 21  1  0  0  0  0
 20 22  1  0  0  0  0
 20 23  1  0  0  0  0
 16 17  1  0  0  0  0
 16 18  1  0  0  0  0
 16 19  1  0  0  0  0
 14 15  1  0  0  0  0
 14 16  1  0  0  0  0
 14 20  1  0  0  0  0
 11 12  1  0  0  0  0
 11 13  1  0  0  0  0
 11 14  1  0  0  0  0
  9 10  1  0  0  0  0
  9 11  1  0  0  0  0
  9 24  1  0  0  0  0
  7  8  1  0  0  0  0
  7  9  1  0  0  0  0
 28 29  1  0  0  0  0
 28 30  1  0  0  0  0
 28 31  1  0  0  0  0
 26 27  1  0  0  0  0
 26 28  1  0  0  0  0
M  END
$$$$
default_name
  -OEChem-02102213163D

 31 30  0     1  0  0  0  0  0999 V2000
   -3.5895   -3.5013    1.1082 H   0  0  0  0  0  0  0  0  0  0  0  0
   -3.5145   -2.5363    0.6082 C   0  0  0  0  0  0  0  0  0  0  0  0
   -4.2285   -1.8413    1.0452 H   0  0  0  0  0  0  0  0  0  0  0  0
   -3.7155   -2.6583   -0.4538 H   0  0  0  0  0  0  0  0  0  0  0  0
   -2.1155   -1.9963    0.7922 C   0  0  0  0  0  0  0  0  0  0  0  0
   -1.2875   -2.6383    1.4252 O   0  0  0  0  0  0  0  0  0  0  0  0
   -1.8575   -0.8123    0.2402 N   0  0  0  0  0  0  0  0  0  0  0  0
   -2.6005   -0.3333   -0.2478 H   0  0  0  0  0  0  0  0  0  0  0  0
   -0.5675   -0.1203    0.3102 C   0  0  1  0  0  0  0  0  0  0  0  0
    0.1932   -0.7715   -0.1219 H   0  0  0  0  0  0  0  0  0  0  0  0
   -0.6568    1.1713   -0.5294 C   0  0  0  0  0  0  0  0  0  0  0  0
   -0.6577    0.9003   -1.5870 H   0  0  0  0  0  0  0  0  0  0  0  0
   -1.6133    1.6507   -0.3101 H   0  0  0  0  0  0  0  0  0  0  0  0
    0.4617    2.2026   -0.2923 C   0  0  0  0  0  0  0  0  0  0  0  0
    1.1418    1.8377    0.4774 H   0  0  0  0  0  0  0  0  0  0  0  0
    1.2609    2.4936   -1.5658 C   0  0  0  0  0  0  0  0  0  0  0  0
    0.5908    2.8449   -2.3517 H   0  0  0  0  0  0  0  0  0  0  0  0
    2.0070    3.2624   -1.3635 H   0  0  0  0  0  0  0  0  0  0  0  0
    1.7740    1.5983   -1.9103 H   0  0  0  0  0  0  0  0  0  0  0  0
   -0.1440    3.5178    0.1964 C   0  0  0  0  0  0  0  0  0  0  0  0
   -0.6938    3.3468    1.1219 H   0  0  0  0  0  0  0  0  0  0  0  0
    0.6481    4.2409    0.3915 H   0  0  0  0  0  0  0  0  0  0  0  0
   -0.8224    3.9215   -0.5560 H   0  0  0  0  0  0  0  0  0  0  0  0
   -0.1913    0.1554    1.7759 C   0  0  0  0  0  0  0  0  0  0  0  0
    0.9476   -0.0766    2.1748 O   0  0  0  0  0  0  0  0  0  0  0  0
   -1.1502    0.6393    2.5760 N   0  0  0  0  0  0  0  0  0  0  0  0
   -2.0581    0.8092    2.1736 H   0  0  0  0  0  0  0  0  0  0  0  0
   -0.9568    0.9369    3.9933 C   0  0  0  0  0  0  0  0  0  0  0  0
   -0.1600    1.6750    4.1097 H   0  0  0  0  0  0  0  0  0  0  0  0
   -1.8775    1.3307    4.4266 H   0  0  0  0  0  0  0  0  0  0  0  0
   -0.6678    0.0287    4.5244 H   0  0  0  0  0  0  0  0  0  0  0  0
  5  6  2  0  0  0  0
  5  7  1  0  0  0  0
  2  3  1  0  0  0  0
  2  4  1  0  0  0  0
  2  5  1  0  0  0  0
  1  2  1  0  0  0  0
 24 25  2  0  0  0  0
 24 26  1  0  0  0  0
 20 21  1  0  0  0  0
 20 22  1  0  0  0  0
 20 23  1  0  0  0  0
 16 17  1  0  0  0  0
 16 18  1  0  0  0  0
 16 19  1  0  0  0  0
 14 15  1  0  0  0  0
 14 16  1  0  0  0  0
 14 20  1  0  0  0  0
 11 12  1  0  0  0  0
 11 13  1  0  0  0  0
 11 14  1  0  0  0  0
  9 10  1  0  0  0  0
  9 11  1  0  0  0  0
  9 24  1  0  0  0  0
  7  8  1  0  0  0  0
  7  9  1  0  0  0  0
 28 29  1  0  0  0  0
 28 30  1  0  0  0  0
 28 31  1  0  0  0  0
 26 27  1  0  0  0  0
 26 28  1  0  0  0  0
M  END
$$$$
default_name
  -OEChem-02102213163D

 31 30  0     1  0  0  0  0  0999 V2000
   -3.5895   -3.5013    1.1082 H   0  0  0  0  0  0  0  0  0  0  0  0
   -3.5145   -2.5363    0.6082 C   0  0  0  0  0  0  0  0  0  0  0  0
   -4.2285   -1.8413    1.0452 H   0  0  0  0  0  0  0  0  0  0  0  0
   -3.7155   -2.6583   -0.4538 H   0  0  0  0  0  0  0  0  0  0  0  0
   -2.1155   -1.9963    0.7922 C   0  0  0  0  0  0  0  0  0  0  0  0
   -1.2875   -2.6383    1.4252 O   0  0  0  0  0  0  0  0  0  0  0  0
   -1.8575   -0.8123    0.2402 N   0  0  0  0  0  0  0  0  0  0  0  0
   -2.6005   -0.3333   -0.2478 H   0  0  0  0  0  0  0  0  0  0  0  0
   -0.5675   -0.1203    0.3102 C   0  0  1  0  0  0  0  0  0  0  0  0
    0.1932   -0.7715   -0.1219 H   0  0  0  0  0  0  0  0  0  0  0  0
   -0.6568    1.1713   -0.5294 C   0  0  0  0  0  0  0  0  0  0  0  0
   -0.6577    0.9003   -1.5870 H   0  0  0  0  0  0  0  0  0  0  0  0
   -1.6133    1.6507   -0.3101 H   0  0  0  0  0  0  0  0  0  0  0  0
    0.4617    2.2026   -0.2923 C   0  0  0  0  0  0  0  0  0  0  0  0
    1.2757    1.7410    0.2666 H   0  0  0  0  0  0  0  0  0  0  0  0
    1.0157    2.7682   -1.6032 C   0  0  0  0  0  0  0  0  0  0  0  0
    0.2089    3.2200   -2.1820 H   0  0  0  0  0  0  0  0  0  0  0  0
    1.7677    3.5273   -1.3869 H   0  0  0  0  0  0  0  0  0  0  0  0
    1.4803    1.9822   -2.1947 H   0  0  0  0  0  0  0  0  0  0  0  0
   -0.0782    3.3688    0.5347 C   0  0  0  0  0  0  0  0  0  0  0  0
   -0.4513    2.9992    1.4899 H   0  0  0  0  0  0  0  0  0  0  0  0
    0.7188    4.0869    0.7275 H   0  0  0  0  0  0  0  0  0  0  0  0
   -0.8885    3.8653   -0.0003 H   0  0  0  0  0  0  0  0  0  0  0  0
   -0.1913    0.1554    1.7759 C   0  0  0  0  0  0  0  0  0  0  0  0
    0.9476   -0.0766    2.1748 O   0  0  0  0  0  0  0  0  0  0  0  0
   -1.1502    0.6393    2.5760 N   0  0  0  0  0  0  0  0  0  0  0  0
   -2.0581    0.8092    2.1736 H   0  0  0  0  0  0  0  0  0  0  0  0
   -0.9568    0.9369    3.9933 C   0  0  0  0  0  0  0  0  0  0  0  0
   -0.1600    1.6750    4.1097 H   0  0  0  0  0  0  0  0  0  0  0  0
   -1.8775    1.3307    4.4266 H   0  0  0  0  0  0  0  0  0  0  0  0
   -0.6678    0.0287    4.5244 H   0  0  0  0  0  0  0  0  0  0  0  0
  5  6  2  0  0  0  0
  5  7  1  0  0  0  0
  2  3  1  0  0  0  0
  2  4  1  0  0  0  0
  2  5  1  0  0  0  0
  1  2  1  0  0  0  0
 24 25  2  0  0  0  0
 24 26  1  0  0  0  0
 20 21  1  0  0  0  0
 20 22  1  0  0  0  0
 20 23  1  0  0  0  0
 16 17  1  0  0  0  0
 16 18  1  0  0  0  0
 16 19  1  0  0  0  0
 14 15  1  0  0  0  0
 14 16  1  0  0  0  0
 14 20  1  0  0  0  0
 11 12  1  0  0  0  0
 11 13  1  0  0  0  0
 11 14  1  0  0  0  0
  9 10  1  0  0  0  0
  9 11  1  0  0  0  0
  9 24  1  0  0  0  0
  7  8  1  0  0  0  0
  7  9  1  0  0  0  0
 28 29  1  0  0  0  0
 28 30  1  0  0  0  0
 28 31  1  0  0  0  0
 26 27  1  0  0  0  0
 26 28  1  0  0  0  0
M  END
$$$$
default_name
  -OEChem-02102213163D

 31 30  0     1  0  0  0  0  0999 V2000
   -3.5895   -3.5013    1.1082 H   0  0  0  0  0  0  0  0  0  0  0  0
   -3.5145   -2.5363    0.6082 C   0  0  0  0  0  0  0  0  0  0  0  0
   -4.2285   -1.8413    1.0452 H   0  0  0  0  0  0  0  0  0  0  0  0
   -3.7155   -2.6583   -0.4538 H   0  0  0  0  0  0  0  0  0  0  0  0
   -2.1155   -1.9963    0.7922 C   0  0  0  0  0  0  0  0  0  0  0  0
   -1.2875   -2.6383    1.4252 O   0  0  0  0  0  0  0  0  0  0  0  0
   -1.8575   -0.8123    0.2402 N   0  0  0  0  0  0  0  0  0  0  0  0
   -2.6005   -0.3333   -0.2478 H   0  0  0  0  0  0  0  0  0  0  0  0
   -0.5675   -0.1203    0.3102 C   0  0  1  0  0  0  0  0  0  0  0  0
    0.1932   -0.7715   -0.1219 H   0  0  0  0  0  0  0  0  0  0  0  0
   -0.6568    1.1713   -0.5294 C   0  0  0  0  0  0  0  0  0  0  0  0
   -0.6577    0.9003   -1.5870 H   0  0  0  0  0  0  0  0  0  0  0  0
   -1.6133    1.6507   -0.3101 H   0  0  0  0  0  0  0  0  0  0  0  0
    0.4617    2.2026   -0.2923 C   0  0  0  0  0  0  0  0  0  0  0  0
    1.3724    1.6925    0.0216 H   0  0  0  0  0  0  0  0  0  0  0  0
    0.7613    3.0307   -1.5453 C   0  0  0  0  0  0  0  0  0  0  0  0
   -0.1455    3.5353   -1.8815 H   0  0  0  0  0  0  0  0  0  0  0  0
    1.5219    3.7781   -1.3182 H   0  0  0  0  0  0  0  0  0  0  0  0
    1.1320    2.3948   -2.3464 H   0  0  0  0  0  0  0  0  0  0  0  0
    0.0498    3.1638    0.8221 C   0  0  0  0  0  0  0  0  0  0  0  0
   -0.1394    2.6039    1.7379 H   0  0  0  0  0  0  0  0  0  0  0  0
    0.8514    3.8779    1.0108 H   0  0  0  0  0  0  0  0  0  0  0  0
   -0.8537    3.7040    0.5374 H   0  0  0  0  0  0  0  0  0  0  0  0
   -0.1913    0.1554    1.7759 C   0  0  0  0  0  0  0  0  0  0  0  0
    0.9476   -0.0766    2.1748 O   0  0  0  0  0  0  0  0  0  0  0  0
   -1.1502    0.6393    2.5760 N   0  0  0  0  0  0  0  0  0  0  0  0
   -2.0581    0.8092    2.1736 H   0  0  0  0  0  0  0  0  0  0  0  0
   -0.9568    0.9369    3.9933 C   0  0  0  0  0  0  0  0  0  0  0  0
   -0.1600    1.6750    4.1097 H   0  0  0  0  0  0  0  0  0  0  0  0
   -1.8775    1.3307    4.4266 H   0  0  0  0  0  0  0  0  0  0  0  0
   -0.6678    0.0287    4.5244 H   0  0  0  0  0  0  0  0  0  0  0  0
  5  6  2  0  0  0  0
  5  7  1  0  0  0  0
  2  3  1  0  0  0  0
  2  4  1  0  0  0  0
  2  5  1  0  0  0  0
  1  2  1  0  0  0  0
 24 25  2  0  0  0  0
 24 26  1  0  0  0  0
 20 21  1  0  0  0  0
 20 22  1  0  0  0  0
 20 23  1  0  0  0  0
 16 17  1  0  0  0  0
 16 18  1  0  0  0  0
 16 19  1  0  0  0  0
 14 15  1  0  0  0  0
 14 16  1  0  0  0  0
 14 20  1  0  0  0  0
 11 12  1  0  0  0  0
 11 13  1  0  0  0  0
 11 14  1  0  0  0  0
  9 10  1  0  0  0  0
  9 11  1  0  0  0  0
  9 24  1  0  0  0  0
  7  8  1  0  0  0  0
  7  9  1  0  0  0  0
 28 29  1  0  0  0  0
 28 30  1  0  0  0  0
 28 31  1  0  0  0  0
 26 27  1  0  0  0  0
 26 28  1  0  0  0  0
M  END
$$$$
default_name
  -OEChem-02102213163D

 31 30  0     1  0  0  0  0  0999 V2000
   -3.5895   -3.5013    1.1082 H   0  0  0  0  0  0  0  0  0  0  0  0
   -3.5145   -2.5363    0.6082 C   0  0  0  0  0  0  0  0  0  0  0  0
   -4.2285   -1.8413    1.0452 H   0  0  0  0  0  0  0  0  0  0  0  0
   -3.7155   -2.6583   -0.4538 H   0  0  0  0  0  0  0  0  0  0  0  0
   -2.1155   -1.9963    0.7922 C   0  0  0  0  0  0  0  0  0  0  0  0
   -1.2875   -2.6383    1.4252 O   0  0  0  0  0  0  0  0  0  0  0  0
   -1.8575   -0.8123    0.2402 N   0  0  0  0  0  0  0  0  0  0  0  0
   -2.6005   -0.3333   -0.2478 H   0  0  0  0  0  0  0  0  0  0  0  0
   -0.5675   -0.1203    0.3102 C   0  0  1  0  0  0  0  0  0  0  0  0
    0.1932   -0.7715   -0.1219 H   0  0  0  0  0  0  0  0  0  0  0  0
   -0.6568    1.1713   -0.5294 C   0  0  0  0  0  0  0  0  0  0  0  0
   -0.6577    0.9003   -1.5870 H   0  0  0  0  0  0  0  0  0  0  0  0
   -1.6133    1.6507   -0.3101 H   0  0  0  0  0  0  0  0  0  0  0  0
    0.4617    2.2026   -0.2923 C   0  0  0  0  0  0  0  0  0  0  0  0
    1.4252    1.6956   -0.2410 H   0  0  0  0  0  0  0  0  0  0  0  0
    0.5152    3.2632   -1.3958 C   0  0  0  0  0  0  0  0  0  0  0  0
   -0.4483    3.7691   -1.4705 H   0  0  0  0  0  0  0  0  0  0  0  0
    1.2864    3.9976   -1.1621 H   0  0  0  0  0  0  0  0  0  0  0  0
    0.7528    2.8080   -2.3549 H   0  0  0  0  0  0  0  0  0  0  0  0
    0.2315    2.9169    1.0389 C   0  0  0  0  0  0  0  0  0  0  0  0
    0.2207    2.1879    1.8491 H   0  0  0  0  0  0  0  0  0  0  0  0
    1.0370    3.6280    1.2222 H   0  0  0  0  0  0  0  0  0  0  0  0
   -0.7205    3.4485    1.0203 H   0  0  0  0  0  0  0  0  0  0  0  0
   -0.1913    0.1554    1.7759 C   0  0  0  0  0  0  0  0  0  0  0  0
    0.9476   -0.0766    2.1748 O   0  0  0  0  0  0  0  0  0  0  0  0
   -1.1502    0.6393    2.5760 N   0  0  0  0  0  0  0  0  0  0  0  0
   -2.0581    0.8092    2.1736 H   0  0  0  0  0  0  0  0  0  0  0  0
   -0.9568    0.9369    3.9933 C   0  0  0  0  0  0  0  0  0  0  0  0
   -0.1600    1.6750    4.1097 H   0  0  0  0  0  0  0  0  0  0  0  0
   -1.8775    1.3307    4.4266 H   0  0  0  0  0  0  0  0  0  0  0  0
   -0.6678    0.0287    4.5244 H   0  0  0  0  0  0  0  0  0  0  0  0
  5  6  2  0  0  0  0
  5  7  1  0  0  0  0
  2  3  1  0  0  0  0
  2  4  1  0  0  0  0
  2  5  1  0  0  0  0
  1  2  1  0  0  0  0
 24 25  2  0  0  0  0
 24 26  1  0  0  0  0
 20 21  1  0  0  0  0
 20 22  1  0  0  0  0
 20 23  1  0  0  0  0
 16 17  1  0  0  0  0
 16 18  1  0  0  0  0
 16 19  1  0  0  0  0
 14 15  1  0  0  0  0
 14 16  1  0  0  0  0
 14 20  1  0  0  0  0
 11 12  1  0  0  0  0
 11 13  1  0  0  0  0
 11 14  1  0  0  0  0
  9 10  1  0  0  0  0
  9 11  1  0  0  0  0
  9 24  1  0  0  0  0
  7  8  1  0  0  0  0
  7  9  1  0  0  0  0
 28 29  1  0  0  0  0
 28 30  1  0  0  0  0
 28 31  1  0  0  0  0
 26 27  1  0  0  0  0
 26 28  1  0  0  0  0
M  END
$$$$
