@<TRIPOS>MOLECULE
default_name
   30    29     1     0     0
SMALL
No Charge or Current Charge


@<TRIPOS>ATOM
      1 N           27.4520    25.6010    24.0420 N.4        1 NLY       0.000000
      2 H1          27.7700    25.0630    24.8410 H          1 NLY       0.000000
      3 H2          27.7220    25.0860    23.2130 H          1 NLY       0.000000
      4 H3          26.4450    25.6860    24.0700 H          1 NLY       0.000000
      5 CA          28.1120    26.9350    24.0640 C.3        1 NLY       0.000000
      6 HA          27.8820    27.4700    23.1430 H          1 NLY       0.000000
      7 CB          27.6210    27.7730    25.2700 C.3        1 NLY       0.000000
      8 HB2         26.5360    27.8730    25.2010 H          1 NLY       0.000000
      9 HB3         27.8510    27.2320    26.1910 H          1 NLY       0.000000
     10 CG          28.2330    29.1870    25.3650 C.3        1 NLY       0.000000
     11 HG2         29.3170    29.1070    25.4570 H          1 NLY       0.000000
     12 HG3         27.9980    29.7400    24.4540 H          1 NLY       0.000000
     13 CD          27.7000    29.9690    26.5840 C.3        1 NLY       0.000000
     14 HD2         26.6180    30.0850    26.4920 H          1 NLY       0.000000
     15 HD3         27.9170    29.4020    27.4920 H          1 NLY       0.000000
     16 CE          28.3580    31.3570    26.6830 C.3        1 NLY       0.000000
     17 HE2         29.4450    31.2260    26.7350 H          1 NLY       0.000000
     18 HE3         28.1370    31.9180    25.7690 H          1 NLY       0.000000
     19 NZ          27.8900    32.1240    27.8710 N.4        1 NLY       0.000000
     20 HZ1         28.1090    31.6350    28.7310 H          1 NLY       0.000000
     21 HZ2         28.3410    33.0310    27.9110 H          1 NLY       0.000000
     22 HZ3         26.8900    32.2790    27.8360 H          1 NLY       0.000000
     23 C           29.6190    26.7070    24.1230 C.2        1 NLY       0.000000
     24 O           30.0090    25.7940    24.8350 O.2        1 NLY       0.000000
     25 N           30.4300    27.4820    23.3930 N.am       2 NME      -0.415700
     26 H           30.0430    28.2060    22.8070 H          2 NME       0.271900
     27 CH3         31.8860    27.3200    23.3660 C.3        2 NME      -0.149000
     28 HH31        32.1490    26.3200    23.0110 H          2 NME       0.097600
     29 HH32        32.3420    28.0560    22.7000 H          2 NME       0.097600
     30 HH33        32.3010    27.4460    24.3690 H          2 NME       0.097600
@<TRIPOS>BOND
     1    23    24 2   
     2    23    25 am  
     3    19    20 1   
     4    19    21 1   
     5    19    22 1   
     6    16    17 1   
     7    16    18 1   
     8    16    19 1   
     9    13    14 1   
    10    13    15 1   
    11    13    16 1   
    12    10    11 1   
    13    10    12 1   
    14    10    13 1   
    15     7     8 1   
    16     7     9 1   
    17     7    10 1   
    18     5     6 1   
    19     5     7 1   
    20     5    23 1   
    21     1     2 1   
    22     1     3 1   
    23     1     4 1   
    24     1     5 1   
    25    27    28 1   
    26    27    29 1   
    27    27    30 1   
    28    25    26 1   
    29    25    27 1   
@<TRIPOS>SUBSTRUCTURE
     1 NLY         1 TEMP              0 ****  ****    0 ROOT
