
  -OEChem-02062319083D

 39 38  0     1  0  0  0  0  0999 V2000
   -1.3687   -3.7756   -0.3457 C   0  0  0  0  0  0  0  0  0  0  0  0
   -0.7264   -3.5742    0.6749 O   0  0  0  0  0  0  0  0  0  0  0  0
   -2.2842   -4.9803   -0.4508 C   0  0  0  0  0  0  0  0  0  0  0  0
   -2.0260   -5.5711   -1.3332 H   0  0  0  0  0  0  0  0  0  0  0  0
   -2.1800   -5.6113    0.4366 H   0  0  0  0  0  0  0  0  0  0  0  0
   -3.3242   -4.6538   -0.5307 H   0  0  0  0  0  0  0  0  0  0  0  0
   -1.2983   -2.8648   -1.3799 N   0  0  0  0  0  0  0  0  0  0  0  0
   -0.3934   -1.7039   -1.3997 C   0  0  2  0  0  0  0  0  0  0  0  0
   -0.8845   -0.5341   -0.5105 C   0  0  0  0  0  0  0  0  0  0  0  0
   -1.0862    0.5816   -0.9696 O   0  0  0  0  0  0  0  0  0  0  0  0
   -0.2089   -1.2947   -2.8667 C   0  0  0  0  0  0  0  0  0  0  0  0
   -1.8820   -3.0372   -2.1939 H   0  0  0  0  0  0  0  0  0  0  0  0
    0.5874   -2.0049   -1.0154 H   0  0  0  0  0  0  0  0  0  0  0  0
   -1.1598   -0.9664   -3.2988 H   0  0  0  0  0  0  0  0  0  0  0  0
    0.5075   -0.4698   -2.9420 H   0  0  0  0  0  0  0  0  0  0  0  0
    0.1729   -2.1354   -3.4540 H   0  0  0  0  0  0  0  0  0  0  0  0
   -1.0909   -0.7444    0.8414 N   0  0  0  0  0  0  0  0  0  0  0  0
   -1.5550    0.2861    1.7881 C   0  0  0  0  0  0  0  0  0  0  0  0
   -0.6151    1.4963    1.8835 C   0  0  0  0  0  0  0  0  0  0  0  0
   -1.0581    2.6371    1.8732 O   0  0  0  0  0  0  0  0  0  0  0  0
   -0.9702   -1.7104    1.1632 H   0  0  0  0  0  0  0  0  0  0  0  0
   -1.6514   -0.1504    2.7856 H   0  0  0  0  0  0  0  0  0  0  0  0
   -2.5457    0.6388    1.4835 H   0  0  0  0  0  0  0  0  0  0  0  0
    0.7497    1.2978    1.9791 N   0  0  0  0  0  0  0  0  0  0  0  0
    1.7311    2.3798    1.8154 C   0  0  2  0  0  0  0  0  0  0  0  0
    1.9207    2.7493    0.3242 C   0  0  0  0  0  0  0  0  0  0  0  0
    2.9830    2.5515   -0.2555 O   0  0  0  0  0  0  0  0  0  0  0  0
    3.0314    1.9326    2.4944 C   0  0  0  0  0  0  0  0  0  0  0  0
    1.0640    0.3459    1.8145 H   0  0  0  0  0  0  0  0  0  0  0  0
    1.3797    3.2800    2.3311 H   0  0  0  0  0  0  0  0  0  0  0  0
    3.4285    1.0321    2.0151 H   0  0  0  0  0  0  0  0  0  0  0  0
    3.7857    2.7227    2.4244 H   0  0  0  0  0  0  0  0  0  0  0  0
    2.8538    1.7177    3.5525 H   0  0  0  0  0  0  0  0  0  0  0  0
    0.8446    3.2480   -0.3823 N   0  0  0  0  0  0  0  0  0  0  0  0
    0.8352    3.3875   -1.8312 C   0  0  0  0  0  0  0  0  0  0  0  0
   -0.0529    3.2229    0.1082 H   0  0  0  0  0  0  0  0  0  0  0  0
    1.6584    4.0293   -2.1618 H   0  0  0  0  0  0  0  0  0  0  0  0
    0.9350    2.4075   -2.3090 H   0  0  0  0  0  0  0  0  0  0  0  0
   -0.1066    3.8383   -2.1584 H   0  0  0  0  0  0  0  0  0  0  0  0
  1  2  2  0  0  0  0
  1  3  1  0  0  0  0
  1  7  1  0  0  0  0
  3  4  1  0  0  0  0
  3  5  1  0  0  0  0
  3  6  1  0  0  0  0
  7  8  1  0  0  0  0
  7 12  1  0  0  0  0
  8  9  1  0  0  0  0
  8 11  1  0  0  0  0
  8 13  1  0  0  0  0
  9 10  2  0  0  0  0
  9 17  1  0  0  0  0
 11 14  1  0  0  0  0
 11 15  1  0  0  0  0
 11 16  1  0  0  0  0
 17 18  1  0  0  0  0
 17 21  1  0  0  0  0
 18 19  1  0  0  0  0
 18 22  1  0  0  0  0
 18 23  1  0  0  0  0
 19 20  2  0  0  0  0
 19 24  1  0  0  0  0
 24 25  1  0  0  0  0
 24 29  1  0  0  0  0
 25 26  1  0  0  0  0
 25 28  1  0  0  0  0
 25 30  1  0  0  0  0
 26 27  2  0  0  0  0
 26 34  1  0  0  0  0
 28 31  1  0  0  0  0
 28 32  1  0  0  0  0
 28 33  1  0  0  0  0
 34 35  1  0  0  0  0
 34 36  1  0  0  0  0
 35 37  1  0  0  0  0
 35 38  1  0  0  0  0
 35 39  1  0  0  0  0
M  END
$$$$

  -OEChem-02062319083D

 39 38  0     1  0  0  0  0  0999 V2000
   -1.3614   -3.7343   -0.5683 C   0  0  0  0  0  0  0  0  0  0  0  0
   -0.6508   -3.8304    0.4217 O   0  0  0  0  0  0  0  0  0  0  0  0
   -2.3028   -4.8615   -0.9477 C   0  0  0  0  0  0  0  0  0  0  0  0
   -2.0915   -5.1991   -1.9655 H   0  0  0  0  0  0  0  0  0  0  0  0
   -2.1744   -5.7059   -0.2643 H   0  0  0  0  0  0  0  0  0  0  0  0
   -3.3389   -4.5183   -0.8922 H   0  0  0  0  0  0  0  0  0  0  0  0
   -1.3356   -2.5732   -1.3131 N   0  0  0  0  0  0  0  0  0  0  0  0
   -0.4303   -1.4433   -1.0494 C   0  0  2  0  0  0  0  0  0  0  0  0
   -0.8823   -0.5755    0.1501 C   0  0  0  0  0  0  0  0  0  0  0  0
   -1.3216    0.5561   -0.0116 O   0  0  0  0  0  0  0  0  0  0  0  0
   -0.3050   -0.6386   -2.3491 C   0  0  0  0  0  0  0  0  0  0  0  0
   -1.9938   -2.4961   -2.0833 H   0  0  0  0  0  0  0  0  0  0  0  0
    0.5668   -1.8257   -0.8041 H   0  0  0  0  0  0  0  0  0  0  0  0
   -1.2733   -0.2184   -2.6397 H   0  0  0  0  0  0  0  0  0  0  0  0
    0.4034    0.1851   -2.2136 H   0  0  0  0  0  0  0  0  0  0  0  0
    0.0594   -1.2759   -3.1604 H   0  0  0  0  0  0  0  0  0  0  0  0
   -0.9222   -1.1467    1.4113 N   0  0  0  0  0  0  0  0  0  0  0  0
   -1.6158   -0.5563    2.5721 C   0  0  0  0  0  0  0  0  0  0  0  0
   -1.0717    0.8297    2.9430 C   0  0  0  0  0  0  0  0  0  0  0  0
   -1.8278    1.7472    3.2336 O   0  0  0  0  0  0  0  0  0  0  0  0
   -0.7088   -2.1493    1.4276 H   0  0  0  0  0  0  0  0  0  0  0  0
   -1.5051   -1.2116    3.4402 H   0  0  0  0  0  0  0  0  0  0  0  0
   -2.6846   -0.4651    2.3540 H   0  0  0  0  0  0  0  0  0  0  0  0
    0.2973    1.0104    2.9808 N   0  0  0  0  0  0  0  0  0  0  0  0
    0.8897    2.3105    2.6556 C   0  0  2  0  0  0  0  0  0  0  0  0
    1.3406    2.3163    1.1795 C   0  0  0  0  0  0  0  0  0  0  0  0
    1.9674    1.3597    0.7300 O   0  0  0  0  0  0  0  0  0  0  0  0
    2.0739    2.5483    3.5940 C   0  0  0  0  0  0  0  0  0  0  0  0
    0.8086    0.2144    2.6034 H   0  0  0  0  0  0  0  0  0  0  0  0
    0.1673    3.1204    2.8004 H   0  0  0  0  0  0  0  0  0  0  0  0
    2.8246    1.7605    3.4739 H   0  0  0  0  0  0  0  0  0  0  0  0
    2.5433    3.5126    3.3769 H   0  0  0  0  0  0  0  0  0  0  0  0
    1.7354    2.5527    4.6348 H   0  0  0  0  0  0  0  0  0  0  0  0
    1.0316    3.3833    0.3575 N   0  0  0  0  0  0  0  0  0  0  0  0
    1.2556    3.3481   -1.0819 C   0  0  0  0  0  0  0  0  0  0  0  0
    0.3467    4.0414    0.7192 H   0  0  0  0  0  0  0  0  0  0  0  0
    2.3005    3.1073   -1.3043 H   0  0  0  0  0  0  0  0  0  0  0  0
    0.6122    2.5950   -1.5483 H   0  0  0  0  0  0  0  0  0  0  0  0
    1.0277    4.3230   -1.5231 H   0  0  0  0  0  0  0  0  0  0  0  0
  1  2  2  0  0  0  0
  1  3  1  0  0  0  0
  1  7  1  0  0  0  0
  3  4  1  0  0  0  0
  3  5  1  0  0  0  0
  3  6  1  0  0  0  0
  7  8  1  0  0  0  0
  7 12  1  0  0  0  0
  8  9  1  0  0  0  0
  8 11  1  0  0  0  0
  8 13  1  0  0  0  0
  9 10  2  0  0  0  0
  9 17  1  0  0  0  0
 11 14  1  0  0  0  0
 11 15  1  0  0  0  0
 11 16  1  0  0  0  0
 17 18  1  0  0  0  0
 17 21  1  0  0  0  0
 18 19  1  0  0  0  0
 18 22  1  0  0  0  0
 18 23  1  0  0  0  0
 19 20  2  0  0  0  0
 19 24  1  0  0  0  0
 24 25  1  0  0  0  0
 24 29  1  0  0  0  0
 25 26  1  0  0  0  0
 25 28  1  0  0  0  0
 25 30  1  0  0  0  0
 26 27  2  0  0  0  0
 26 34  1  0  0  0  0
 28 31  1  0  0  0  0
 28 32  1  0  0  0  0
 28 33  1  0  0  0  0
 34 35  1  0  0  0  0
 34 36  1  0  0  0  0
 35 37  1  0  0  0  0
 35 38  1  0  0  0  0
 35 39  1  0  0  0  0
M  END
$$$$

  -OEChem-02062319083D

 39 38  0     1  0  0  0  0  0999 V2000
   -1.4373   -3.9795   -0.6232 C   0  0  0  0  0  0  0  0  0  0  0  0
   -0.5766   -4.1805    0.2213 O   0  0  0  0  0  0  0  0  0  0  0  0
   -2.4732   -5.0435   -0.9309 C   0  0  0  0  0  0  0  0  0  0  0  0
   -2.4337   -5.3075   -1.9906 H   0  0  0  0  0  0  0  0  0  0  0  0
   -2.2794   -5.9415   -0.3372 H   0  0  0  0  0  0  0  0  0  0  0  0
   -3.4729   -4.6726   -0.6913 H   0  0  0  0  0  0  0  0  0  0  0  0
   -1.4967   -2.7529   -1.2519 N   0  0  0  0  0  0  0  0  0  0  0  0
   -0.5483   -1.6547   -1.0078 C   0  0  2  0  0  0  0  0  0  0  0  0
   -0.8249   -0.9112    0.3221 C   0  0  0  0  0  0  0  0  0  0  0  0
   -1.3178    0.2087    0.3264 O   0  0  0  0  0  0  0  0  0  0  0  0
   -0.5950   -0.7264   -2.2280 C   0  0  0  0  0  0  0  0  0  0  0  0
   -2.2808   -2.5849   -1.8762 H   0  0  0  0  0  0  0  0  0  0  0  0
    0.4677   -2.0592   -0.9419 H   0  0  0  0  0  0  0  0  0  0  0  0
   -1.5945   -0.2966   -2.3502 H   0  0  0  0  0  0  0  0  0  0  0  0
    0.1205    0.0933   -2.1064 H   0  0  0  0  0  0  0  0  0  0  0  0
   -0.3364   -1.2776   -3.1372 H   0  0  0  0  0  0  0  0  0  0  0  0
   -0.7255   -1.6159    1.5102 N   0  0  0  0  0  0  0  0  0  0  0  0
   -1.5165   -1.3013    2.7162 C   0  0  0  0  0  0  0  0  0  0  0  0
   -1.2902    0.1142    3.2649 C   0  0  0  0  0  0  0  0  0  0  0  0
   -2.2240    0.7580    3.7257 O   0  0  0  0  0  0  0  0  0  0  0  0
   -0.4683   -2.5986    1.3714 H   0  0  0  0  0  0  0  0  0  0  0  0
   -1.2647   -2.0113    3.5084 H   0  0  0  0  0  0  0  0  0  0  0  0
   -2.5813   -1.4151    2.4903 H   0  0  0  0  0  0  0  0  0  0  0  0
    0.0016    0.5912    3.3641 N   0  0  0  0  0  0  0  0  0  0  0  0
    0.3049    2.0216    3.4666 C   0  0  2  0  0  0  0  0  0  0  0  0
    1.1124    2.4872    2.2373 C   0  0  0  0  0  0  0  0  0  0  0  0
    1.9060    1.7215    1.6976 O   0  0  0  0  0  0  0  0  0  0  0  0
    1.0952    2.2513    4.7555 C   0  0  0  0  0  0  0  0  0  0  0  0
    0.6766    0.0503    2.8241 H   0  0  0  0  0  0  0  0  0  0  0  0
   -0.6162    2.6123    3.5046 H   0  0  0  0  0  0  0  0  0  0  0  0
    2.0315    1.6844    4.7366 H   0  0  0  0  0  0  0  0  0  0  0  0
    1.3320    3.3127    4.8741 H   0  0  0  0  0  0  0  0  0  0  0  0
    0.5081    1.9276    5.6206 H   0  0  0  0  0  0  0  0  0  0  0  0
    0.9667    3.7731    1.7505 N   0  0  0  0  0  0  0  0  0  0  0  0
    1.6156    4.2363    0.5303 C   0  0  0  0  0  0  0  0  0  0  0  0
    0.2180    4.3332    2.1478 H   0  0  0  0  0  0  0  0  0  0  0  0
    2.6997    4.0930    0.5922 H   0  0  0  0  0  0  0  0  0  0  0  0
    1.2359    3.6850   -0.3365 H   0  0  0  0  0  0  0  0  0  0  0  0
    1.4188    5.3020    0.3786 H   0  0  0  0  0  0  0  0  0  0  0  0
  1  2  2  0  0  0  0
  1  3  1  0  0  0  0
  1  7  1  0  0  0  0
  3  4  1  0  0  0  0
  3  5  1  0  0  0  0
  3  6  1  0  0  0  0
  7  8  1  0  0  0  0
  7 12  1  0  0  0  0
  8  9  1  0  0  0  0
  8 11  1  0  0  0  0
  8 13  1  0  0  0  0
  9 10  2  0  0  0  0
  9 17  1  0  0  0  0
 11 14  1  0  0  0  0
 11 15  1  0  0  0  0
 11 16  1  0  0  0  0
 17 18  1  0  0  0  0
 17 21  1  0  0  0  0
 18 19  1  0  0  0  0
 18 22  1  0  0  0  0
 18 23  1  0  0  0  0
 19 20  2  0  0  0  0
 19 24  1  0  0  0  0
 24 25  1  0  0  0  0
 24 29  1  0  0  0  0
 25 26  1  0  0  0  0
 25 28  1  0  0  0  0
 25 30  1  0  0  0  0
 26 27  2  0  0  0  0
 26 34  1  0  0  0  0
 28 31  1  0  0  0  0
 28 32  1  0  0  0  0
 28 33  1  0  0  0  0
 34 35  1  0  0  0  0
 34 36  1  0  0  0  0
 35 37  1  0  0  0  0
 35 38  1  0  0  0  0
 35 39  1  0  0  0  0
M  END
$$$$

  -OEChem-02062319083D

 39 38  0     1  0  0  0  0  0999 V2000
   -1.4601   -4.0774   -0.7354 C   0  0  0  0  0  0  0  0  0  0  0  0
   -0.5037   -4.3806   -0.0370 O   0  0  0  0  0  0  0  0  0  0  0  0
   -2.5392   -5.0972   -1.0447 C   0  0  0  0  0  0  0  0  0  0  0  0
   -2.6418   -5.2162   -2.1261 H   0  0  0  0  0  0  0  0  0  0  0  0
   -2.2788   -6.0657   -0.6082 H   0  0  0  0  0  0  0  0  0  0  0  0
   -3.4951   -4.7690   -0.6287 H   0  0  0  0  0  0  0  0  0  0  0  0
   -1.5778   -2.7816   -1.1938 N   0  0  0  0  0  0  0  0  0  0  0  0
   -0.5801   -1.7276   -0.9510 C   0  0  2  0  0  0  0  0  0  0  0  0
   -0.6621   -1.1371    0.4795 C   0  0  0  0  0  0  0  0  0  0  0  0
   -1.1228   -0.0191    0.6647 O   0  0  0  0  0  0  0  0  0  0  0  0
   -0.7598   -0.6672   -2.0454 C   0  0  0  0  0  0  0  0  0  0  0  0
   -2.4229   -2.5400   -1.7040 H   0  0  0  0  0  0  0  0  0  0  0  0
    0.4254   -2.1477   -1.0632 H   0  0  0  0  0  0  0  0  0  0  0  0
   -1.7531   -0.2108   -1.9833 H   0  0  0  0  0  0  0  0  0  0  0  0
   -0.0097    0.1224   -1.9336 H   0  0  0  0  0  0  0  0  0  0  0  0
   -0.6418   -1.1162   -3.0363 H   0  0  0  0  0  0  0  0  0  0  0  0
   -0.4966   -1.9886    1.5595 N   0  0  0  0  0  0  0  0  0  0  0  0
   -1.3733   -1.9504    2.7472 C   0  0  0  0  0  0  0  0  0  0  0  0
   -1.3884   -0.6164    3.5077 C   0  0  0  0  0  0  0  0  0  0  0  0
   -2.4284   -0.2073    4.0085 O   0  0  0  0  0  0  0  0  0  0  0  0
   -0.2170   -2.9282    1.2604 H   0  0  0  0  0  0  0  0  0  0  0  0
   -1.0541   -2.7253    3.4496 H   0  0  0  0  0  0  0  0  0  0  0  0
   -2.3993   -2.1787    2.4428 H   0  0  0  0  0  0  0  0  0  0  0  0
   -0.1943    0.0260    3.7662 N   0  0  0  0  0  0  0  0  0  0  0  0
   -0.1191    1.4219    4.2076 C   0  0  2  0  0  0  0  0  0  0  0  0
    0.8560    2.2233    3.3214 C   0  0  0  0  0  0  0  0  0  0  0  0
    1.8215    1.6673    2.8070 O   0  0  0  0  0  0  0  0  0  0  0  0
    0.3353    1.4404    5.6681 C   0  0  0  0  0  0  0  0  0  0  0  0
    0.5837   -0.2887    3.1864 H   0  0  0  0  0  0  0  0  0  0  0  0
   -1.1014    1.8996    4.1308 H   0  0  0  0  0  0  0  0  0  0  0  0
    1.3169    0.9665    5.7700 H   0  0  0  0  0  0  0  0  0  0  0  0
    0.4048    2.4690    6.0345 H   0  0  0  0  0  0  0  0  0  0  0  0
   -0.3814    0.8972    6.2921 H   0  0  0  0  0  0  0  0  0  0  0  0
    0.6596    3.5763    3.1140 N   0  0  0  0  0  0  0  0  0  0  0  0
    1.4862    4.3698    2.2132 C   0  0  0  0  0  0  0  0  0  0  0  0
   -0.2002    3.9802    3.4737 H   0  0  0  0  0  0  0  0  0  0  0  0
    2.5374    4.3250    2.5166 H   0  0  0  0  0  0  0  0  0  0  0  0
    1.3993    3.9972    1.1872 H   0  0  0  0  0  0  0  0  0  0  0  0
    1.1675    5.4164    2.2310 H   0  0  0  0  0  0  0  0  0  0  0  0
  1  2  2  0  0  0  0
  1  3  1  0  0  0  0
  1  7  1  0  0  0  0
  3  4  1  0  0  0  0
  3  5  1  0  0  0  0
  3  6  1  0  0  0  0
  7  8  1  0  0  0  0
  7 12  1  0  0  0  0
  8  9  1  0  0  0  0
  8 11  1  0  0  0  0
  8 13  1  0  0  0  0
  9 10  2  0  0  0  0
  9 17  1  0  0  0  0
 11 14  1  0  0  0  0
 11 15  1  0  0  0  0
 11 16  1  0  0  0  0
 17 18  1  0  0  0  0
 17 21  1  0  0  0  0
 18 19  1  0  0  0  0
 18 22  1  0  0  0  0
 18 23  1  0  0  0  0
 19 20  2  0  0  0  0
 19 24  1  0  0  0  0
 24 25  1  0  0  0  0
 24 29  1  0  0  0  0
 25 26  1  0  0  0  0
 25 28  1  0  0  0  0
 25 30  1  0  0  0  0
 26 27  2  0  0  0  0
 26 34  1  0  0  0  0
 28 31  1  0  0  0  0
 28 32  1  0  0  0  0
 28 33  1  0  0  0  0
 34 35  1  0  0  0  0
 34 36  1  0  0  0  0
 35 37  1  0  0  0  0
 35 38  1  0  0  0  0
 35 39  1  0  0  0  0
M  END
$$$$

  -OEChem-02062319083D

 39 38  0     1  0  0  0  0  0999 V2000
   -1.4350   -4.1189   -0.8703 C   0  0  0  0  0  0  0  0  0  0  0  0
   -0.3851   -4.4997   -0.3734 O   0  0  0  0  0  0  0  0  0  0  0  0
   -2.5584   -5.1020   -1.1388 C   0  0  0  0  0  0  0  0  0  0  0  0
   -2.8012   -5.1098   -2.2043 H   0  0  0  0  0  0  0  0  0  0  0  0
   -2.2567   -6.1102   -0.8403 H   0  0  0  0  0  0  0  0  0  0  0  0
   -3.4485   -4.8189   -0.5711 H   0  0  0  0  0  0  0  0  0  0  0  0
   -1.6120   -2.7741   -1.1225 N   0  0  0  0  0  0  0  0  0  0  0  0
   -0.5819   -1.7487   -0.8884 C   0  0  2  0  0  0  0  0  0  0  0  0
   -0.4532   -1.3507    0.6044 C   0  0  0  0  0  0  0  0  0  0  0  0
   -0.8449   -0.2566    0.9864 O   0  0  0  0  0  0  0  0  0  0  0  0
   -0.9085   -0.5567   -1.7982 C   0  0  0  0  0  0  0  0  0  0  0  0
   -2.5286   -2.4744   -1.4436 H   0  0  0  0  0  0  0  0  0  0  0  0
    0.3942   -2.1382   -1.1971 H   0  0  0  0  0  0  0  0  0  0  0  0
   -1.8834   -0.1289   -1.5422 H   0  0  0  0  0  0  0  0  0  0  0  0
   -0.1495    0.2245   -1.6854 H   0  0  0  0  0  0  0  0  0  0  0  0
   -0.9272   -0.8698   -2.8465 H   0  0  0  0  0  0  0  0  0  0  0  0
   -0.2371   -2.3479    1.5411 N   0  0  0  0  0  0  0  0  0  0  0  0
   -1.1859   -2.5823    2.6483 C   0  0  0  0  0  0  0  0  0  0  0  0
   -1.4071   -1.4016    3.6049 C   0  0  0  0  0  0  0  0  0  0  0  0
   -2.5231   -1.1926    4.0642 O   0  0  0  0  0  0  0  0  0  0  0  0
    0.0698   -3.2116    1.0827 H   0  0  0  0  0  0  0  0  0  0  0  0
   -0.8273   -3.4234    3.2475 H   0  0  0  0  0  0  0  0  0  0  0  0
   -2.1580   -2.8625    2.2317 H   0  0  0  0  0  0  0  0  0  0  0  0
   -0.3223   -0.6838    4.0660 N   0  0  0  0  0  0  0  0  0  0  0  0
   -0.4502    0.5965    4.7684 C   0  0  2  0  0  0  0  0  0  0  0  0
    0.5957    1.6129    4.2664 C   0  0  0  0  0  0  0  0  0  0  0  0
    1.6698    1.2263    3.8171 O   0  0  0  0  0  0  0  0  0  0  0  0
   -0.2828    0.3441    6.2680 C   0  0  0  0  0  0  0  0  0  0  0  0
    0.5294   -0.8008    3.5160 H   0  0  0  0  0  0  0  0  0  0  0  0
   -1.4398    1.0269    4.5823 H   0  0  0  0  0  0  0  0  0  0  0  0
    0.7036   -0.0829    6.4759 H   0  0  0  0  0  0  0  0  0  0  0  0
   -0.3838    1.2789    6.8271 H   0  0  0  0  0  0  0  0  0  0  0  0
   -1.0478   -0.3550    6.6203 H   0  0  0  0  0  0  0  0  0  0  0  0
    0.3379    2.9698    4.3361 N   0  0  0  0  0  0  0  0  0  0  0  0
    1.2486    3.9804    3.8136 C   0  0  0  0  0  0  0  0  0  0  0  0
   -0.5887    3.2530    4.6406 H   0  0  0  0  0  0  0  0  0  0  0  0
    2.2162    3.9246    4.3233 H   0  0  0  0  0  0  0  0  0  0  0  0
    1.4074    3.8341    2.7399 H   0  0  0  0  0  0  0  0  0  0  0  0
    0.8336    4.9809    3.9698 H   0  0  0  0  0  0  0  0  0  0  0  0
  1  2  2  0  0  0  0
  1  3  1  0  0  0  0
  1  7  1  0  0  0  0
  3  4  1  0  0  0  0
  3  5  1  0  0  0  0
  3  6  1  0  0  0  0
  7  8  1  0  0  0  0
  7 12  1  0  0  0  0
  8  9  1  0  0  0  0
  8 11  1  0  0  0  0
  8 13  1  0  0  0  0
  9 10  2  0  0  0  0
  9 17  1  0  0  0  0
 11 14  1  0  0  0  0
 11 15  1  0  0  0  0
 11 16  1  0  0  0  0
 17 18  1  0  0  0  0
 17 21  1  0  0  0  0
 18 19  1  0  0  0  0
 18 22  1  0  0  0  0
 18 23  1  0  0  0  0
 19 20  2  0  0  0  0
 19 24  1  0  0  0  0
 24 25  1  0  0  0  0
 24 29  1  0  0  0  0
 25 26  1  0  0  0  0
 25 28  1  0  0  0  0
 25 30  1  0  0  0  0
 26 27  2  0  0  0  0
 26 34  1  0  0  0  0
 28 31  1  0  0  0  0
 28 32  1  0  0  0  0
 28 33  1  0  0  0  0
 34 35  1  0  0  0  0
 34 36  1  0  0  0  0
 35 37  1  0  0  0  0
 35 38  1  0  0  0  0
 35 39  1  0  0  0  0
M  END
$$$$

  -OEChem-02062319083D

 39 38  0     1  0  0  0  0  0999 V2000
   -1.3343   -4.0711   -1.0651 C   0  0  0  0  0  0  0  0  0  0  0  0
   -0.2066   -4.4444   -0.7779 O   0  0  0  0  0  0  0  0  0  0  0  0
   -2.4136   -5.0776   -1.4151 C   0  0  0  0  0  0  0  0  0  0  0  0
   -2.7853   -4.8911   -2.4259 H   0  0  0  0  0  0  0  0  0  0  0  0
   -2.0109   -6.0936   -1.3703 H   0  0  0  0  0  0  0  0  0  0  0  0
   -3.2436   -4.9973   -0.7086 H   0  0  0  0  0  0  0  0  0  0  0  0
   -1.6351   -2.7268   -0.9928 N   0  0  0  0  0  0  0  0  0  0  0  0
   -0.6448   -1.6742   -0.7092 C   0  0  2  0  0  0  0  0  0  0  0  0
   -0.2715   -1.5589    0.7930 C   0  0  0  0  0  0  0  0  0  0  0  0
   -0.4908   -0.5234    1.4060 O   0  0  0  0  0  0  0  0  0  0  0  0
   -1.2035   -0.3672   -1.2878 C   0  0  0  0  0  0  0  0  0  0  0  0
   -2.5962   -2.4516   -1.1772 H   0  0  0  0  0  0  0  0  0  0  0  0
    0.2835   -1.9012   -1.2447 H   0  0  0  0  0  0  0  0  0  0  0  0
   -2.1299   -0.0842   -0.7774 H   0  0  0  0  0  0  0  0  0  0  0  0
   -0.4784    0.4433   -1.1613 H   0  0  0  0  0  0  0  0  0  0  0  0
   -1.4109   -0.4785   -2.3564 H   0  0  0  0  0  0  0  0  0  0  0  0
   -0.0373   -2.7099    1.5260 N   0  0  0  0  0  0  0  0  0  0  0  0
   -1.0481   -3.1853    2.4915 C   0  0  0  0  0  0  0  0  0  0  0  0
   -1.3981   -2.2150    3.6293 C   0  0  0  0  0  0  0  0  0  0  0  0
   -2.5615   -2.1122    3.9979 O   0  0  0  0  0  0  0  0  0  0  0  0
    0.2748   -3.4589    0.9001 H   0  0  0  0  0  0  0  0  0  0  0  0
   -0.6857   -4.1084    2.9517 H   0  0  0  0  0  0  0  0  0  0  0  0
   -1.9725   -3.4236    1.9572 H   0  0  0  0  0  0  0  0  0  0  0  0
   -0.3927   -1.5530    4.3040 N   0  0  0  0  0  0  0  0  0  0  0  0
   -0.6412   -0.4216    5.2025 C   0  0  2  0  0  0  0  0  0  0  0  0
    0.4180    0.6830    5.0105 C   0  0  0  0  0  0  0  0  0  0  0  0
    1.5779    0.3876    4.7430 O   0  0  0  0  0  0  0  0  0  0  0  0
   -0.6302   -0.9352    6.6438 C   0  0  0  0  0  0  0  0  0  0  0  0
    0.5075   -1.5448    3.8226 H   0  0  0  0  0  0  0  0  0  0  0  0
   -1.6192    0.0196    4.9842 H   0  0  0  0  0  0  0  0  0  0  0  0
    0.3420   -1.3776    6.8841 H   0  0  0  0  0  0  0  0  0  0  0  0
   -0.8237   -0.1164    7.3431 H   0  0  0  0  0  0  0  0  0  0  0  0
   -1.4039   -1.6975    6.7790 H   0  0  0  0  0  0  0  0  0  0  0  0
    0.0747    2.0141    5.1617 N   0  0  0  0  0  0  0  0  0  0  0  0
    1.0054    3.1068    4.9080 C   0  0  0  0  0  0  0  0  0  0  0  0
   -0.9108    2.2274    5.2830 H   0  0  0  0  0  0  0  0  0  0  0  0
    1.8768    3.0290    5.5666 H   0  0  0  0  0  0  0  0  0  0  0  0
    1.3467    3.0846    3.8677 H   0  0  0  0  0  0  0  0  0  0  0  0
    0.5186    4.0690    5.0930 H   0  0  0  0  0  0  0  0  0  0  0  0
  1  2  2  0  0  0  0
  1  3  1  0  0  0  0
  1  7  1  0  0  0  0
  3  4  1  0  0  0  0
  3  5  1  0  0  0  0
  3  6  1  0  0  0  0
  7  8  1  0  0  0  0
  7 12  1  0  0  0  0
  8  9  1  0  0  0  0
  8 11  1  0  0  0  0
  8 13  1  0  0  0  0
  9 10  2  0  0  0  0
  9 17  1  0  0  0  0
 11 14  1  0  0  0  0
 11 15  1  0  0  0  0
 11 16  1  0  0  0  0
 17 18  1  0  0  0  0
 17 21  1  0  0  0  0
 18 19  1  0  0  0  0
 18 22  1  0  0  0  0
 18 23  1  0  0  0  0
 19 20  2  0  0  0  0
 19 24  1  0  0  0  0
 24 25  1  0  0  0  0
 24 29  1  0  0  0  0
 25 26  1  0  0  0  0
 25 28  1  0  0  0  0
 25 30  1  0  0  0  0
 26 27  2  0  0  0  0
 26 34  1  0  0  0  0
 28 31  1  0  0  0  0
 28 32  1  0  0  0  0
 28 33  1  0  0  0  0
 34 35  1  0  0  0  0
 34 36  1  0  0  0  0
 35 37  1  0  0  0  0
 35 38  1  0  0  0  0
 35 39  1  0  0  0  0
M  END
$$$$

  -OEChem-02062319083D

 39 38  0     1  0  0  0  0  0999 V2000
   -2.4284   -3.7530   -0.5591 C   0  0  0  0  0  0  0  0  0  0  0  0
   -1.6790   -4.7031   -0.7188 O   0  0  0  0  0  0  0  0  0  0  0  0
   -3.8696   -3.9830   -0.1462 C   0  0  0  0  0  0  0  0  0  0  0  0
   -4.5453   -3.5108   -0.8633 H   0  0  0  0  0  0  0  0  0  0  0  0
   -4.0847   -5.0549   -0.1125 H   0  0  0  0  0  0  0  0  0  0  0  0
   -4.0436   -3.5590    0.8462 H   0  0  0  0  0  0  0  0  0  0  0  0
   -1.9556   -2.4658   -0.7205 N   0  0  0  0  0  0  0  0  0  0  0  0
   -0.5297   -2.1432   -0.8742 C   0  0  2  0  0  0  0  0  0  0  0  0
    0.1076   -1.8407    0.4986 C   0  0  0  0  0  0  0  0  0  0  0  0
    0.0630   -0.7246    0.9918 O   0  0  0  0  0  0  0  0  0  0  0  0
   -0.4112   -0.9653   -1.8478 C   0  0  0  0  0  0  0  0  0  0  0  0
   -2.5846   -1.7146   -0.4500 H   0  0  0  0  0  0  0  0  0  0  0  0
    0.0115   -2.9893   -1.3120 H   0  0  0  0  0  0  0  0  0  0  0  0
   -0.9489   -0.0908   -1.4676 H   0  0  0  0  0  0  0  0  0  0  0  0
    0.6398   -0.6930   -1.9858 H   0  0  0  0  0  0  0  0  0  0  0  0
   -0.8297   -1.2356   -2.8222 H   0  0  0  0  0  0  0  0  0  0  0  0
    1.0993   -2.6298    1.0280 N   0  0  0  0  0  0  0  0  0  0  0  0
    0.6278   -3.7521    1.8585 C   0  0  0  0  0  0  0  0  0  0  0  0
   -0.1990   -3.3352    3.0878 C   0  0  0  0  0  0  0  0  0  0  0  0
   -1.2599   -3.8954    3.3246 O   0  0  0  0  0  0  0  0  0  0  0  0
    1.7750   -2.0347    1.5014 H   0  0  0  0  0  0  0  0  0  0  0  0
    1.4919   -4.3215    2.2117 H   0  0  0  0  0  0  0  0  0  0  0  0
    0.0261   -4.4352    1.2507 H   0  0  0  0  0  0  0  0  0  0  0  0
    0.2134   -2.2938    3.8968 N   0  0  0  0  0  0  0  0  0  0  0  0
   -0.5788   -1.7192    4.9904 C   0  0  2  0  0  0  0  0  0  0  0  0
   -0.1037   -0.2890    5.3244 C   0  0  0  0  0  0  0  0  0  0  0  0
    1.0122    0.0842    4.9782 O   0  0  0  0  0  0  0  0  0  0  0  0
   -0.4559   -2.6165    6.2276 C   0  0  0  0  0  0  0  0  0  0  0  0
    0.9985   -1.7299    3.5717 H   0  0  0  0  0  0  0  0  0  0  0  0
   -1.6289   -1.6603    4.6860 H   0  0  0  0  0  0  0  0  0  0  0  0
    0.5907   -2.6966    6.5383 H   0  0  0  0  0  0  0  0  0  0  0  0
   -1.0362   -2.2054    7.0593 H   0  0  0  0  0  0  0  0  0  0  0  0
   -0.8319   -3.6213    6.0110 H   0  0  0  0  0  0  0  0  0  0  0  0
   -0.9235    0.5796    6.0217 N   0  0  0  0  0  0  0  0  0  0  0  0
   -0.5412    1.9477    6.3505 C   0  0  0  0  0  0  0  0  0  0  0  0
   -1.8516    0.2528    6.2732 H   0  0  0  0  0  0  0  0  0  0  0  0
    0.3574    1.9552    6.9765 H   0  0  0  0  0  0  0  0  0  0  0  0
   -0.3400    2.5191    5.4381 H   0  0  0  0  0  0  0  0  0  0  0  0
   -1.3472    2.4454    6.8983 H   0  0  0  0  0  0  0  0  0  0  0  0
  1  2  2  0  0  0  0
  1  3  1  0  0  0  0
  1  7  1  0  0  0  0
  3  4  1  0  0  0  0
  3  5  1  0  0  0  0
  3  6  1  0  0  0  0
  7  8  1  0  0  0  0
  7 12  1  0  0  0  0
  8  9  1  0  0  0  0
  8 11  1  0  0  0  0
  8 13  1  0  0  0  0
  9 10  2  0  0  0  0
  9 17  1  0  0  0  0
 11 14  1  0  0  0  0
 11 15  1  0  0  0  0
 11 16  1  0  0  0  0
 17 18  1  0  0  0  0
 17 21  1  0  0  0  0
 18 19  1  0  0  0  0
 18 22  1  0  0  0  0
 18 23  1  0  0  0  0
 19 20  2  0  0  0  0
 19 24  1  0  0  0  0
 24 25  1  0  0  0  0
 24 29  1  0  0  0  0
 25 26  1  0  0  0  0
 25 28  1  0  0  0  0
 25 30  1  0  0  0  0
 26 27  2  0  0  0  0
 26 34  1  0  0  0  0
 28 31  1  0  0  0  0
 28 32  1  0  0  0  0
 28 33  1  0  0  0  0
 34 35  1  0  0  0  0
 34 36  1  0  0  0  0
 35 37  1  0  0  0  0
 35 38  1  0  0  0  0
 35 39  1  0  0  0  0
M  END
$$$$

  -OEChem-02062319083D

 39 38  0     1  0  0  0  0  0999 V2000
   -2.1879   -3.9547   -0.6795 C   0  0  0  0  0  0  0  0  0  0  0  0
   -1.4206   -4.6761   -1.2968 O   0  0  0  0  0  0  0  0  0  0  0  0
   -3.4904   -4.5153   -0.1411 C   0  0  0  0  0  0  0  0  0  0  0  0
   -4.3339   -3.9312   -0.5166 H   0  0  0  0  0  0  0  0  0  0  0  0
   -3.6129   -5.5550   -0.4576 H   0  0  0  0  0  0  0  0  0  0  0  0
   -3.4865   -4.4797    0.9515 H   0  0  0  0  0  0  0  0  0  0  0  0
   -1.8627   -2.6325   -0.4495 N   0  0  0  0  0  0  0  0  0  0  0  0
   -0.5472   -2.0403   -0.7402 C   0  0  2  0  0  0  0  0  0  0  0  0
    0.2702   -1.8719    0.5597 C   0  0  0  0  0  0  0  0  0  0  0  0
    0.3232   -0.8108    1.1605 O   0  0  0  0  0  0  0  0  0  0  0  0
   -0.7840   -0.7110   -1.4653 C   0  0  0  0  0  0  0  0  0  0  0  0
   -2.4942   -2.1120    0.1533 H   0  0  0  0  0  0  0  0  0  0  0  0
    0.0322   -2.6851   -1.4097 H   0  0  0  0  0  0  0  0  0  0  0  0
   -1.3677   -0.0269   -0.8408 H   0  0  0  0  0  0  0  0  0  0  0  0
    0.1717   -0.2333   -1.7024 H   0  0  0  0  0  0  0  0  0  0  0  0
   -1.3274   -0.8812   -2.3997 H   0  0  0  0  0  0  0  0  0  0  0  0
    1.2609   -2.7493    0.9302 N   0  0  0  0  0  0  0  0  0  0  0  0
    0.8036   -4.0510    1.4451 C   0  0  0  0  0  0  0  0  0  0  0  0
   -0.0796   -3.9458    2.6995 C   0  0  0  0  0  0  0  0  0  0  0  0
   -1.1774   -4.4856    2.7114 O   0  0  0  0  0  0  0  0  0  0  0  0
    1.9338   -2.2688    1.5233 H   0  0  0  0  0  0  0  0  0  0  0  0
    1.6762   -4.6590    1.6992 H   0  0  0  0  0  0  0  0  0  0  0  0
    0.2584   -4.5936    0.6682 H   0  0  0  0  0  0  0  0  0  0  0  0
    0.2747   -3.1098    3.7402 N   0  0  0  0  0  0  0  0  0  0  0  0
   -0.6105   -2.7263    4.8456 C   0  0  2  0  0  0  0  0  0  0  0  0
   -0.1477   -1.3993    5.4832 C   0  0  0  0  0  0  0  0  0  0  0  0
    1.0030   -1.0085    5.3176 O   0  0  0  0  0  0  0  0  0  0  0  0
   -0.6183   -3.8426    5.8952 C   0  0  0  0  0  0  0  0  0  0  0  0
    1.1110   -2.5382    3.6211 H   0  0  0  0  0  0  0  0  0  0  0  0
   -1.6261   -2.5773    4.4646 H   0  0  0  0  0  0  0  0  0  0  0  0
    0.3921   -4.0096    6.2820 H   0  0  0  0  0  0  0  0  0  0  0  0
   -1.2725   -3.5782    6.7314 H   0  0  0  0  0  0  0  0  0  0  0  0
   -0.9827   -4.7772    5.4574 H   0  0  0  0  0  0  0  0  0  0  0  0
   -1.0201   -0.6415    6.2426 N   0  0  0  0  0  0  0  0  0  0  0  0
   -0.6555    0.6389    6.8370 C   0  0  0  0  0  0  0  0  0  0  0  0
   -1.9737   -0.9766    6.3408 H   0  0  0  0  0  0  0  0  0  0  0  0
   -0.3480    1.3488    6.0614 H   0  0  0  0  0  0  0  0  0  0  0  0
   -1.5088    1.0631    7.3750 H   0  0  0  0  0  0  0  0  0  0  0  0
    0.1702    0.5107    7.5448 H   0  0  0  0  0  0  0  0  0  0  0  0
  1  2  2  0  0  0  0
  1  3  1  0  0  0  0
  1  7  1  0  0  0  0
  3  4  1  0  0  0  0
  3  5  1  0  0  0  0
  3  6  1  0  0  0  0
  7  8  1  0  0  0  0
  7 12  1  0  0  0  0
  8  9  1  0  0  0  0
  8 11  1  0  0  0  0
  8 13  1  0  0  0  0
  9 10  2  0  0  0  0
  9 17  1  0  0  0  0
 11 14  1  0  0  0  0
 11 15  1  0  0  0  0
 11 16  1  0  0  0  0
 17 18  1  0  0  0  0
 17 21  1  0  0  0  0
 18 19  1  0  0  0  0
 18 22  1  0  0  0  0
 18 23  1  0  0  0  0
 19 20  2  0  0  0  0
 19 24  1  0  0  0  0
 24 25  1  0  0  0  0
 24 29  1  0  0  0  0
 25 26  1  0  0  0  0
 25 28  1  0  0  0  0
 25 30  1  0  0  0  0
 26 27  2  0  0  0  0
 26 34  1  0  0  0  0
 28 31  1  0  0  0  0
 28 32  1  0  0  0  0
 28 33  1  0  0  0  0
 34 35  1  0  0  0  0
 34 36  1  0  0  0  0
 35 37  1  0  0  0  0
 35 38  1  0  0  0  0
 35 39  1  0  0  0  0
M  END
$$$$

  -OEChem-02062319083D

 39 38  0     1  0  0  0  0  0999 V2000
   -2.4197   -4.7032   -1.1360 C   0  0  0  0  0  0  0  0  0  0  0  0
   -1.5529   -5.5617   -1.1614 O   0  0  0  0  0  0  0  0  0  0  0  0
   -3.8633   -5.0698   -1.4240 C   0  0  0  0  0  0  0  0  0  0  0  0
   -4.2310   -4.4959   -2.2780 H   0  0  0  0  0  0  0  0  0  0  0  0
   -3.9426   -6.1358   -1.6558 H   0  0  0  0  0  0  0  0  0  0  0  0
   -4.4847   -4.8519   -0.5522 H   0  0  0  0  0  0  0  0  0  0  0  0
   -2.0886   -3.3970   -0.8432 N   0  0  0  0  0  0  0  0  0  0  0  0
   -0.7471   -2.9475   -0.4485 C   0  0  2  0  0  0  0  0  0  0  0  0
   -0.8180   -1.7291    0.4985 C   0  0  0  0  0  0  0  0  0  0  0  0
   -1.8308   -1.0515    0.5922 O   0  0  0  0  0  0  0  0  0  0  0  0
    0.0414   -2.6074   -1.7177 C   0  0  0  0  0  0  0  0  0  0  0  0
   -2.8509   -2.7273   -0.7491 H   0  0  0  0  0  0  0  0  0  0  0  0
   -0.2333   -3.7521    0.0891 H   0  0  0  0  0  0  0  0  0  0  0  0
   -0.4478   -1.7972   -2.2677 H   0  0  0  0  0  0  0  0  0  0  0  0
    1.0588   -2.2938   -1.4652 H   0  0  0  0  0  0  0  0  0  0  0  0
    0.1052   -3.4834   -2.3711 H   0  0  0  0  0  0  0  0  0  0  0  0
    0.2900   -1.1179    1.0372 N   0  0  0  0  0  0  0  0  0  0  0  0
    1.2074   -1.8945    1.8857 C   0  0  0  0  0  0  0  0  0  0  0  0
    0.5429   -2.4845    3.1399 C   0  0  0  0  0  0  0  0  0  0  0  0
    0.8039   -3.6341    3.4581 O   0  0  0  0  0  0  0  0  0  0  0  0
    0.0642   -0.1782    1.3556 H   0  0  0  0  0  0  0  0  0  0  0  0
    2.0308   -1.2506    2.2084 H   0  0  0  0  0  0  0  0  0  0  0  0
    1.6484   -2.7118    1.3050 H   0  0  0  0  0  0  0  0  0  0  0  0
   -0.3048   -1.7094    3.9144 N   0  0  0  0  0  0  0  0  0  0  0  0
   -1.0996   -2.1552    5.0784 C   0  0  2  0  0  0  0  0  0  0  0  0
   -0.2771   -2.5353    6.3324 C   0  0  0  0  0  0  0  0  0  0  0  0
   -0.5244   -1.9888    7.3992 O   0  0  0  0  0  0  0  0  0  0  0  0
   -2.0597   -3.2872    4.6863 C   0  0  0  0  0  0  0  0  0  0  0  0
   -0.5147   -0.7859    3.5463 H   0  0  0  0  0  0  0  0  0  0  0  0
   -1.7211   -1.3050    5.3789 H   0  0  0  0  0  0  0  0  0  0  0  0
   -1.5171   -4.2084    4.4542 H   0  0  0  0  0  0  0  0  0  0  0  0
   -2.7476   -3.4961    5.5116 H   0  0  0  0  0  0  0  0  0  0  0  0
   -2.6490   -2.9992    3.8105 H   0  0  0  0  0  0  0  0  0  0  0  0
    0.7308   -3.4770    6.2765 N   0  0  0  0  0  0  0  0  0  0  0  0
    1.5580   -3.8594    7.4125 C   0  0  0  0  0  0  0  0  0  0  0  0
    0.9285   -3.8724    5.3532 H   0  0  0  0  0  0  0  0  0  0  0  0
    2.2651   -4.6406    7.1171 H   0  0  0  0  0  0  0  0  0  0  0  0
    2.1259   -2.9986    7.7803 H   0  0  0  0  0  0  0  0  0  0  0  0
    0.9360   -4.2460    8.2266 H   0  0  0  0  0  0  0  0  0  0  0  0
  1  2  2  0  0  0  0
  1  3  1  0  0  0  0
  1  7  1  0  0  0  0
  3  4  1  0  0  0  0
  3  5  1  0  0  0  0
  3  6  1  0  0  0  0
  7  8  1  0  0  0  0
  7 12  1  0  0  0  0
  8  9  1  0  0  0  0
  8 11  1  0  0  0  0
  8 13  1  0  0  0  0
  9 10  2  0  0  0  0
  9 17  1  0  0  0  0
 11 14  1  0  0  0  0
 11 15  1  0  0  0  0
 11 16  1  0  0  0  0
 17 18  1  0  0  0  0
 17 21  1  0  0  0  0
 18 19  1  0  0  0  0
 18 22  1  0  0  0  0
 18 23  1  0  0  0  0
 19 20  2  0  0  0  0
 19 24  1  0  0  0  0
 24 25  1  0  0  0  0
 24 29  1  0  0  0  0
 25 26  1  0  0  0  0
 25 28  1  0  0  0  0
 25 30  1  0  0  0  0
 26 27  2  0  0  0  0
 26 34  1  0  0  0  0
 28 31  1  0  0  0  0
 28 32  1  0  0  0  0
 28 33  1  0  0  0  0
 34 35  1  0  0  0  0
 34 36  1  0  0  0  0
 35 37  1  0  0  0  0
 35 38  1  0  0  0  0
 35 39  1  0  0  0  0
M  END
$$$$

  -OEChem-02062319083D

 39 38  0     1  0  0  0  0  0999 V2000
   -2.6598   -4.3169   -0.4639 C   0  0  0  0  0  0  0  0  0  0  0  0
   -2.2280   -4.8440    0.5486 O   0  0  0  0  0  0  0  0  0  0  0  0
   -4.1162   -4.4914   -0.8502 C   0  0  0  0  0  0  0  0  0  0  0  0
   -4.1897   -4.8989   -1.8613 H   0  0  0  0  0  0  0  0  0  0  0  0
   -4.6103   -5.1784   -0.1574 H   0  0  0  0  0  0  0  0  0  0  0  0
   -4.6283   -3.5267   -0.8144 H   0  0  0  0  0  0  0  0  0  0  0  0
   -1.8368   -3.5187   -1.2318 N   0  0  0  0  0  0  0  0  0  0  0  0
   -0.5184   -3.0755   -0.7566 C   0  0  2  0  0  0  0  0  0  0  0  0
   -0.6273   -1.8726    0.2093 C   0  0  0  0  0  0  0  0  0  0  0  0
   -1.5614   -1.0875    0.1497 O   0  0  0  0  0  0  0  0  0  0  0  0
    0.3235   -2.7137   -1.9819 C   0  0  0  0  0  0  0  0  0  0  0  0
   -2.3103   -2.9268   -1.9083 H   0  0  0  0  0  0  0  0  0  0  0  0
   -0.0230   -3.8973   -0.2280 H   0  0  0  0  0  0  0  0  0  0  0  0
   -0.1358   -1.8873   -2.5337 H   0  0  0  0  0  0  0  0  0  0  0  0
    1.3302   -2.4108   -1.6777 H   0  0  0  0  0  0  0  0  0  0  0  0
    0.4105   -3.5763   -2.6498 H   0  0  0  0  0  0  0  0  0  0  0  0
    0.4275   -1.3808    0.9425 N   0  0  0  0  0  0  0  0  0  0  0  0
    1.3562   -2.2611    1.6674 C   0  0  0  0  0  0  0  0  0  0  0  0
    0.6927   -3.1426    2.7353 C   0  0  0  0  0  0  0  0  0  0  0  0
    1.0993   -4.2859    2.8746 O   0  0  0  0  0  0  0  0  0  0  0  0
    0.2140   -0.4744    1.3532 H   0  0  0  0  0  0  0  0  0  0  0  0
    2.1150   -1.6482    2.1625 H   0  0  0  0  0  0  0  0  0  0  0  0
    1.8811   -2.9080    0.9570 H   0  0  0  0  0  0  0  0  0  0  0  0
   -0.2400   -2.6040    3.6064 N   0  0  0  0  0  0  0  0  0  0  0  0
   -1.0174   -3.3342    4.6304 C   0  0  2  0  0  0  0  0  0  0  0  0
   -0.1981   -3.8493    5.8368 C   0  0  0  0  0  0  0  0  0  0  0  0
   -0.5499   -3.5548    6.9720 O   0  0  0  0  0  0  0  0  0  0  0  0
   -1.8321   -4.4700    3.9964 C   0  0  0  0  0  0  0  0  0  0  0  0
   -0.5524   -1.6636    3.3825 H   0  0  0  0  0  0  0  0  0  0  0  0
   -1.7395   -2.6229    5.0448 H   0  0  0  0  0  0  0  0  0  0  0  0
   -1.1822   -5.2574    3.6035 H   0  0  0  0  0  0  0  0  0  0  0  0
   -2.4966   -4.9169    4.7423 H   0  0  0  0  0  0  0  0  0  0  0  0
   -2.4442   -4.0849    3.1757 H   0  0  0  0  0  0  0  0  0  0  0  0
    0.9224   -4.6361    5.6639 N   0  0  0  0  0  0  0  0  0  0  0  0
    1.7312   -5.1627    6.7537 C   0  0  0  0  0  0  0  0  0  0  0  0
    1.1854   -4.8381    4.6952 H   0  0  0  0  0  0  0  0  0  0  0  0
    2.1311   -4.3460    7.3638 H   0  0  0  0  0  0  0  0  0  0  0  0
    1.1316   -5.8198    7.3919 H   0  0  0  0  0  0  0  0  0  0  0  0
    2.5703   -5.7401    6.3539 H   0  0  0  0  0  0  0  0  0  0  0  0
  1  2  2  0  0  0  0
  1  3  1  0  0  0  0
  1  7  1  0  0  0  0
  3  4  1  0  0  0  0
  3  5  1  0  0  0  0
  3  6  1  0  0  0  0
  7  8  1  0  0  0  0
  7 12  1  0  0  0  0
  8  9  1  0  0  0  0
  8 11  1  0  0  0  0
  8 13  1  0  0  0  0
  9 10  2  0  0  0  0
  9 17  1  0  0  0  0
 11 14  1  0  0  0  0
 11 15  1  0  0  0  0
 11 16  1  0  0  0  0
 17 18  1  0  0  0  0
 17 21  1  0  0  0  0
 18 19  1  0  0  0  0
 18 22  1  0  0  0  0
 18 23  1  0  0  0  0
 19 20  2  0  0  0  0
 19 24  1  0  0  0  0
 24 25  1  0  0  0  0
 24 29  1  0  0  0  0
 25 26  1  0  0  0  0
 25 28  1  0  0  0  0
 25 30  1  0  0  0  0
 26 27  2  0  0  0  0
 26 34  1  0  0  0  0
 28 31  1  0  0  0  0
 28 32  1  0  0  0  0
 28 33  1  0  0  0  0
 34 35  1  0  0  0  0
 34 36  1  0  0  0  0
 35 37  1  0  0  0  0
 35 38  1  0  0  0  0
 35 39  1  0  0  0  0
M  END
$$$$

  -OEChem-02062319083D

 39 38  0     1  0  0  0  0  0999 V2000
   -2.7753   -4.1936   -0.8208 C   0  0  0  0  0  0  0  0  0  0  0  0
   -2.4101   -4.8988    0.1055 O   0  0  0  0  0  0  0  0  0  0  0  0
   -4.2180   -4.2372   -1.2870 C   0  0  0  0  0  0  0  0  0  0  0  0
   -4.2616   -4.5251   -2.3401 H   0  0  0  0  0  0  0  0  0  0  0  0
   -4.7833   -4.9657   -0.6989 H   0  0  0  0  0  0  0  0  0  0  0  0
   -4.6781   -3.2536   -1.1649 H   0  0  0  0  0  0  0  0  0  0  0  0
   -1.8898   -3.3248   -1.4236 N   0  0  0  0  0  0  0  0  0  0  0  0
   -0.5687   -3.0217   -0.8553 C   0  0  2  0  0  0  0  0  0  0  0  0
   -0.6318   -1.8702    0.1769 C   0  0  0  0  0  0  0  0  0  0  0  0
   -1.5342   -1.0466    0.1636 O   0  0  0  0  0  0  0  0  0  0  0  0
    0.3554   -2.6530   -2.0188 C   0  0  0  0  0  0  0  0  0  0  0  0
   -2.3123   -2.6149   -2.0150 H   0  0  0  0  0  0  0  0  0  0  0  0
   -0.1629   -3.9108   -0.3608 H   0  0  0  0  0  0  0  0  0  0  0  0
   -0.0108   -1.7576   -2.5311 H   0  0  0  0  0  0  0  0  0  0  0  0
    1.3691   -2.4546   -1.6578 H   0  0  0  0  0  0  0  0  0  0  0  0
    0.4025   -3.4746   -2.7404 H   0  0  0  0  0  0  0  0  0  0  0  0
    0.4033   -1.5240    1.0164 N   0  0  0  0  0  0  0  0  0  0  0  0
    1.4072   -2.4721    1.5245 C   0  0  0  0  0  0  0  0  0  0  0  0
    0.8331   -3.6301    2.3536 C   0  0  0  0  0  0  0  0  0  0  0  0
    1.3234   -4.7410    2.2193 O   0  0  0  0  0  0  0  0  0  0  0  0
    0.2177   -0.6751    1.5465 H   0  0  0  0  0  0  0  0  0  0  0  0
    2.1212   -1.9326    2.1532 H   0  0  0  0  0  0  0  0  0  0  0  0
    1.9726   -2.8919    0.6864 H   0  0  0  0  0  0  0  0  0  0  0  0
   -0.1274   -3.3815    3.3196 N   0  0  0  0  0  0  0  0  0  0  0  0
   -0.7542   -4.3675    4.2240 C   0  0  2  0  0  0  0  0  0  0  0  0
    0.2076   -4.9995    5.2570 C   0  0  0  0  0  0  0  0  0  0  0  0
    0.0135   -4.8146    6.4516 O   0  0  0  0  0  0  0  0  0  0  0  0
   -1.5036   -5.4457    3.4300 C   0  0  0  0  0  0  0  0  0  0  0  0
   -0.5042   -2.4381    3.3339 H   0  0  0  0  0  0  0  0  0  0  0  0
   -1.5071   -3.8296    4.8095 H   0  0  0  0  0  0  0  0  0  0  0  0
   -0.8191   -6.0516    2.8296 H   0  0  0  0  0  0  0  0  0  0  0  0
   -2.0394   -6.1125    4.1128 H   0  0  0  0  0  0  0  0  0  0  0  0
   -2.2328   -4.9811    2.7604 H   0  0  0  0  0  0  0  0  0  0  0  0
    1.2993   -5.7455    4.8596 N   0  0  0  0  0  0  0  0  0  0  0  0
    2.3011   -6.2714    5.7763 C   0  0  0  0  0  0  0  0  0  0  0  0
    1.4876   -5.7546    3.8532 H   0  0  0  0  0  0  0  0  0  0  0  0
    2.8379   -5.4533    6.2669 H   0  0  0  0  0  0  0  0  0  0  0  0
    1.8301   -6.8950    6.5433 H   0  0  0  0  0  0  0  0  0  0  0  0
    3.0243   -6.8852    5.2315 H   0  0  0  0  0  0  0  0  0  0  0  0
  1  2  2  0  0  0  0
  1  3  1  0  0  0  0
  1  7  1  0  0  0  0
  3  4  1  0  0  0  0
  3  5  1  0  0  0  0
  3  6  1  0  0  0  0
  7  8  1  0  0  0  0
  7 12  1  0  0  0  0
  8  9  1  0  0  0  0
  8 11  1  0  0  0  0
  8 13  1  0  0  0  0
  9 10  2  0  0  0  0
  9 17  1  0  0  0  0
 11 14  1  0  0  0  0
 11 15  1  0  0  0  0
 11 16  1  0  0  0  0
 17 18  1  0  0  0  0
 17 21  1  0  0  0  0
 18 19  1  0  0  0  0
 18 22  1  0  0  0  0
 18 23  1  0  0  0  0
 19 20  2  0  0  0  0
 19 24  1  0  0  0  0
 24 25  1  0  0  0  0
 24 29  1  0  0  0  0
 25 26  1  0  0  0  0
 25 28  1  0  0  0  0
 25 30  1  0  0  0  0
 26 27  2  0  0  0  0
 26 34  1  0  0  0  0
 28 31  1  0  0  0  0
 28 32  1  0  0  0  0
 28 33  1  0  0  0  0
 34 35  1  0  0  0  0
 34 36  1  0  0  0  0
 35 37  1  0  0  0  0
 35 38  1  0  0  0  0
 35 39  1  0  0  0  0
M  END
$$$$

  -OEChem-02062319083D

 39 38  0     1  0  0  0  0  0999 V2000
   -2.8772   -4.0807   -1.1168 C   0  0  0  0  0  0  0  0  0  0  0  0
   -2.4825   -5.0262   -0.4549 O   0  0  0  0  0  0  0  0  0  0  0  0
   -4.3410   -3.9830   -1.5026 C   0  0  0  0  0  0  0  0  0  0  0  0
   -4.4448   -4.0332   -2.5891 H   0  0  0  0  0  0  0  0  0  0  0  0
   -4.9047   -4.8068   -1.0561 H   0  0  0  0  0  0  0  0  0  0  0  0
   -4.7586   -3.0380   -1.1467 H   0  0  0  0  0  0  0  0  0  0  0  0
   -2.0074   -3.0795   -1.4942 N   0  0  0  0  0  0  0  0  0  0  0  0
   -0.6501   -2.9327   -0.9470 C   0  0  2  0  0  0  0  0  0  0  0  0
   -0.5950   -1.8370    0.1455 C   0  0  0  0  0  0  0  0  0  0  0  0
   -1.4555   -0.9727    0.2196 O   0  0  0  0  0  0  0  0  0  0  0  0
    0.2645   -2.5719   -2.1205 C   0  0  0  0  0  0  0  0  0  0  0  0
   -2.4476   -2.2326   -1.8455 H   0  0  0  0  0  0  0  0  0  0  0  0
   -0.3051   -3.8780   -0.5160 H   0  0  0  0  0  0  0  0  0  0  0  0
   -0.0442   -1.6226   -2.5703 H   0  0  0  0  0  0  0  0  0  0  0  0
    1.3021   -2.4761   -1.7887 H   0  0  0  0  0  0  0  0  0  0  0  0
    0.2201   -3.3521   -2.8870 H   0  0  0  0  0  0  0  0  0  0  0  0
    0.4462   -1.6380    1.0263 N   0  0  0  0  0  0  0  0  0  0  0  0
    1.5383   -2.5829    1.3100 C   0  0  0  0  0  0  0  0  0  0  0  0
    1.0883   -3.9399    1.8692 C   0  0  0  0  0  0  0  0  0  0  0  0
    1.6428   -4.9519    1.4684 O   0  0  0  0  0  0  0  0  0  0  0  0
    0.3327   -0.8145    1.6139 H   0  0  0  0  0  0  0  0  0  0  0  0
    2.2161   -2.1325    2.0408 H   0  0  0  0  0  0  0  0  0  0  0  0
    2.1197   -2.7569    0.3996 H   0  0  0  0  0  0  0  0  0  0  0  0
    0.1357   -3.9919    2.8728 N   0  0  0  0  0  0  0  0  0  0  0  0
   -0.3750   -5.1985    3.5573 C   0  0  2  0  0  0  0  0  0  0  0  0
    0.6731   -5.9595    4.4028 C   0  0  0  0  0  0  0  0  0  0  0  0
    0.5031   -6.0788    5.6093 O   0  0  0  0  0  0  0  0  0  0  0  0
   -1.0732   -6.1395    2.5671 C   0  0  0  0  0  0  0  0  0  0  0  0
   -0.2853   -3.1024    3.1273 H   0  0  0  0  0  0  0  0  0  0  0  0
   -1.1402   -4.8634    4.2651 H   0  0  0  0  0  0  0  0  0  0  0  0
   -0.3724   -6.5383    1.8281 H   0  0  0  0  0  0  0  0  0  0  0  0
   -1.5227   -6.9823    3.1013 H   0  0  0  0  0  0  0  0  0  0  0  0
   -1.8681   -5.6056    2.0395 H   0  0  0  0  0  0  0  0  0  0  0  0
    1.8082   -6.4931    3.8264 N   0  0  0  0  0  0  0  0  0  0  0  0
    2.8645   -7.1640    4.5707 C   0  0  0  0  0  0  0  0  0  0  0  0
    1.9547   -6.2689    2.8384 H   0  0  0  0  0  0  0  0  0  0  0  0
    3.3283   -6.4743    5.2831 H   0  0  0  0  0  0  0  0  0  0  0  0
    2.4614   -8.0215    5.1195 H   0  0  0  0  0  0  0  0  0  0  0  0
    3.6365   -7.5254    3.8845 H   0  0  0  0  0  0  0  0  0  0  0  0
  1  2  2  0  0  0  0
  1  3  1  0  0  0  0
  1  7  1  0  0  0  0
  3  4  1  0  0  0  0
  3  5  1  0  0  0  0
  3  6  1  0  0  0  0
  7  8  1  0  0  0  0
  7 12  1  0  0  0  0
  8  9  1  0  0  0  0
  8 11  1  0  0  0  0
  8 13  1  0  0  0  0
  9 10  2  0  0  0  0
  9 17  1  0  0  0  0
 11 14  1  0  0  0  0
 11 15  1  0  0  0  0
 11 16  1  0  0  0  0
 17 18  1  0  0  0  0
 17 21  1  0  0  0  0
 18 19  1  0  0  0  0
 18 22  1  0  0  0  0
 18 23  1  0  0  0  0
 19 20  2  0  0  0  0
 19 24  1  0  0  0  0
 24 25  1  0  0  0  0
 24 29  1  0  0  0  0
 25 26  1  0  0  0  0
 25 28  1  0  0  0  0
 25 30  1  0  0  0  0
 26 27  2  0  0  0  0
 26 34  1  0  0  0  0
 28 31  1  0  0  0  0
 28 32  1  0  0  0  0
 28 33  1  0  0  0  0
 34 35  1  0  0  0  0
 34 36  1  0  0  0  0
 35 37  1  0  0  0  0
 35 38  1  0  0  0  0
 35 39  1  0  0  0  0
M  END
$$$$

  -OEChem-02062319083D

 39 38  0     1  0  0  0  0  0999 V2000
   -3.0775   -3.5877   -0.8889 C   0  0  0  0  0  0  0  0  0  0  0  0
   -2.7683   -4.2830    0.0666 O   0  0  0  0  0  0  0  0  0  0  0  0
   -4.5380   -3.3892   -1.2458 C   0  0  0  0  0  0  0  0  0  0  0  0
   -4.7061   -3.6473   -2.2941 H   0  0  0  0  0  0  0  0  0  0  0  0
   -5.1691   -4.0273   -0.6210 H   0  0  0  0  0  0  0  0  0  0  0  0
   -4.8209   -2.3463   -1.0832 H   0  0  0  0  0  0  0  0  0  0  0  0
   -2.0995   -2.9437   -1.6193 N   0  0  0  0  0  0  0  0  0  0  0  0
   -0.7127   -2.8589   -1.1399 C   0  0  2  0  0  0  0  0  0  0  0  0
   -0.5685   -1.8452    0.0236 C   0  0  0  0  0  0  0  0  0  0  0  0
   -1.3484   -0.9135    0.1528 O   0  0  0  0  0  0  0  0  0  0  0  0
    0.1654   -2.4577   -2.3276 C   0  0  0  0  0  0  0  0  0  0  0  0
   -2.4298   -2.2000   -2.2272 H   0  0  0  0  0  0  0  0  0  0  0  0
   -0.3954   -3.8470   -0.7942 H   0  0  0  0  0  0  0  0  0  0  0  0
   -0.1168   -1.4667   -2.6972 H   0  0  0  0  0  0  0  0  0  0  0  0
    1.2191   -2.4320   -2.0355 H   0  0  0  0  0  0  0  0  0  0  0  0
    0.0541   -3.1806   -3.1422 H   0  0  0  0  0  0  0  0  0  0  0  0
    0.4590   -1.8100    0.9417 N   0  0  0  0  0  0  0  0  0  0  0  0
    1.6213   -2.7101    1.0145 C   0  0  0  0  0  0  0  0  0  0  0  0
    1.3070   -4.1995    1.2121 C   0  0  0  0  0  0  0  0  0  0  0  0
    1.9891   -5.0199    0.6154 O   0  0  0  0  0  0  0  0  0  0  0  0
    0.4106   -1.0107    1.5705 H   0  0  0  0  0  0  0  0  0  0  0  0
    2.2521   -2.3985    1.8520 H   0  0  0  0  0  0  0  0  0  0  0  0
    2.2197   -2.6008    0.1049 H   0  0  0  0  0  0  0  0  0  0  0  0
    0.3659   -4.5999    2.1439 N   0  0  0  0  0  0  0  0  0  0  0  0
    0.0239   -5.9865    2.5271 C   0  0  2  0  0  0  0  0  0  0  0  0
    1.1481   -6.7366    3.2783 C   0  0  0  0  0  0  0  0  0  0  0  0
    0.9275   -7.2094    4.3857 O   0  0  0  0  0  0  0  0  0  0  0  0
   -0.4622   -6.8065    1.3237 C   0  0  0  0  0  0  0  0  0  0  0  0
   -0.2019   -3.8565    2.5440 H   0  0  0  0  0  0  0  0  0  0  0  0
   -0.8177   -5.9239    3.2249 H   0  0  0  0  0  0  0  0  0  0  0  0
    0.3440   -6.9843    0.6068 H   0  0  0  0  0  0  0  0  0  0  0  0
   -0.8379   -7.7774    1.6616 H   0  0  0  0  0  0  0  0  0  0  0  0
   -1.2737   -6.2846    0.8110 H   0  0  0  0  0  0  0  0  0  0  0  0
    2.4059   -6.8763    2.7258 N   0  0  0  0  0  0  0  0  0  0  0  0
    3.5173   -7.5521    3.3804 C   0  0  0  0  0  0  0  0  0  0  0  0
    2.5514   -6.4281    1.8174 H   0  0  0  0  0  0  0  0  0  0  0  0
    3.7600   -7.0608    4.3284 H   0  0  0  0  0  0  0  0  0  0  0  0
    3.2650   -8.5988    3.5791 H   0  0  0  0  0  0  0  0  0  0  0  0
    4.4041   -7.5261    2.7396 H   0  0  0  0  0  0  0  0  0  0  0  0
  1  2  2  0  0  0  0
  1  3  1  0  0  0  0
  1  7  1  0  0  0  0
  3  4  1  0  0  0  0
  3  5  1  0  0  0  0
  3  6  1  0  0  0  0
  7  8  1  0  0  0  0
  7 12  1  0  0  0  0
  8  9  1  0  0  0  0
  8 11  1  0  0  0  0
  8 13  1  0  0  0  0
  9 10  2  0  0  0  0
  9 17  1  0  0  0  0
 11 14  1  0  0  0  0
 11 15  1  0  0  0  0
 11 16  1  0  0  0  0
 17 18  1  0  0  0  0
 17 21  1  0  0  0  0
 18 19  1  0  0  0  0
 18 22  1  0  0  0  0
 18 23  1  0  0  0  0
 19 20  2  0  0  0  0
 19 24  1  0  0  0  0
 24 25  1  0  0  0  0
 24 29  1  0  0  0  0
 25 26  1  0  0  0  0
 25 28  1  0  0  0  0
 25 30  1  0  0  0  0
 26 27  2  0  0  0  0
 26 34  1  0  0  0  0
 28 31  1  0  0  0  0
 28 32  1  0  0  0  0
 28 33  1  0  0  0  0
 34 35  1  0  0  0  0
 34 36  1  0  0  0  0
 35 37  1  0  0  0  0
 35 38  1  0  0  0  0
 35 39  1  0  0  0  0
M  END
$$$$

  -OEChem-02062319083D

 39 38  0     1  0  0  0  0  0999 V2000
   -2.7976   -3.5685   -0.5605 C   0  0  0  0  0  0  0  0  0  0  0  0
   -2.1912   -4.1244    0.3449 O   0  0  0  0  0  0  0  0  0  0  0  0
   -4.3136   -3.5922   -0.5861 C   0  0  0  0  0  0  0  0  0  0  0  0
   -4.6649   -4.0317   -1.5228 H   0  0  0  0  0  0  0  0  0  0  0  0
   -4.6957   -4.1881    0.2478 H   0  0  0  0  0  0  0  0  0  0  0  0
   -4.7038   -2.5751   -0.4982 H   0  0  0  0  0  0  0  0  0  0  0  0
   -2.1020   -2.8767   -1.5336 N   0  0  0  0  0  0  0  0  0  0  0  0
   -0.6688   -2.5869   -1.3880 C   0  0  2  0  0  0  0  0  0  0  0  0
   -0.4105   -1.6543   -0.1781 C   0  0  0  0  0  0  0  0  0  0  0  0
   -1.1427   -0.7008    0.0397 O   0  0  0  0  0  0  0  0  0  0  0  0
   -0.1661   -1.9417   -2.6808 C   0  0  0  0  0  0  0  0  0  0  0  0
   -2.6552   -2.2425   -2.1026 H   0  0  0  0  0  0  0  0  0  0  0  0
   -0.1380   -3.5304   -1.2515 H   0  0  0  0  0  0  0  0  0  0  0  0
   -0.6777   -0.9910   -2.8625 H   0  0  0  0  0  0  0  0  0  0  0  0
    0.9096   -1.7501   -2.6159 H   0  0  0  0  0  0  0  0  0  0  0  0
   -0.3473   -2.6054   -3.5321 H   0  0  0  0  0  0  0  0  0  0  0  0
    0.5814   -1.7950    0.7679 N   0  0  0  0  0  0  0  0  0  0  0  0
    1.7825   -2.6447    0.6996 C   0  0  0  0  0  0  0  0  0  0  0  0
    1.5644   -4.1574    0.5455 C   0  0  0  0  0  0  0  0  0  0  0  0
    2.3632   -4.7814   -0.1386 O   0  0  0  0  0  0  0  0  0  0  0  0
    0.5533   -1.0591    1.4709 H   0  0  0  0  0  0  0  0  0  0  0  0
    2.3607   -2.4997    1.6169 H   0  0  0  0  0  0  0  0  0  0  0  0
    2.4066   -2.3044   -0.1331 H   0  0  0  0  0  0  0  0  0  0  0  0
    0.6193   -4.8217    1.3058 N   0  0  0  0  0  0  0  0  0  0  0  0
    0.3464   -6.2755    1.3078 C   0  0  2  0  0  0  0  0  0  0  0  0
    1.4489   -7.1381    1.9631 C   0  0  0  0  0  0  0  0  0  0  0  0
    1.1435   -7.9967    2.7806 O   0  0  0  0  0  0  0  0  0  0  0  0
    0.0226   -6.8008   -0.0989 C   0  0  0  0  0  0  0  0  0  0  0  0
   -0.1227   -4.2282    1.6777 H   0  0  0  0  0  0  0  0  0  0  0  0
   -0.5540   -6.4208    1.9138 H   0  0  0  0  0  0  0  0  0  0  0  0
    0.9092   -6.7989   -0.7392 H   0  0  0  0  0  0  0  0  0  0  0  0
   -0.3474   -7.8289   -0.0352 H   0  0  0  0  0  0  0  0  0  0  0  0
   -0.7494   -6.1864   -0.5698 H   0  0  0  0  0  0  0  0  0  0  0  0
    2.7774   -6.9770    1.6231 N   0  0  0  0  0  0  0  0  0  0  0  0
    3.8609   -7.7952    2.1491 C   0  0  0  0  0  0  0  0  0  0  0  0
    2.9721   -6.2871    0.8931 H   0  0  0  0  0  0  0  0  0  0  0  0
    3.8997   -7.7228    3.2410 H   0  0  0  0  0  0  0  0  0  0  0  0
    3.7190   -8.8443    1.8698 H   0  0  0  0  0  0  0  0  0  0  0  0
    4.8195   -7.4557    1.7456 H   0  0  0  0  0  0  0  0  0  0  0  0
  1  2  2  0  0  0  0
  1  3  1  0  0  0  0
  1  7  1  0  0  0  0
  3  4  1  0  0  0  0
  3  5  1  0  0  0  0
  3  6  1  0  0  0  0
  7  8  1  0  0  0  0
  7 12  1  0  0  0  0
  8  9  1  0  0  0  0
  8 11  1  0  0  0  0
  8 13  1  0  0  0  0
  9 10  2  0  0  0  0
  9 17  1  0  0  0  0
 11 14  1  0  0  0  0
 11 15  1  0  0  0  0
 11 16  1  0  0  0  0
 17 18  1  0  0  0  0
 17 21  1  0  0  0  0
 18 19  1  0  0  0  0
 18 22  1  0  0  0  0
 18 23  1  0  0  0  0
 19 20  2  0  0  0  0
 19 24  1  0  0  0  0
 24 25  1  0  0  0  0
 24 29  1  0  0  0  0
 25 26  1  0  0  0  0
 25 28  1  0  0  0  0
 25 30  1  0  0  0  0
 26 27  2  0  0  0  0
 26 34  1  0  0  0  0
 28 31  1  0  0  0  0
 28 32  1  0  0  0  0
 28 33  1  0  0  0  0
 34 35  1  0  0  0  0
 34 36  1  0  0  0  0
 35 37  1  0  0  0  0
 35 38  1  0  0  0  0
 35 39  1  0  0  0  0
M  END
$$$$

  -OEChem-02062319083D

 39 38  0     1  0  0  0  0  0999 V2000
   -2.6706   -3.5883   -0.5031 C   0  0  0  0  0  0  0  0  0  0  0  0
   -1.9241   -4.1772    0.2670 O   0  0  0  0  0  0  0  0  0  0  0  0
   -4.1739   -3.7358   -0.3666 C   0  0  0  0  0  0  0  0  0  0  0  0
   -4.6176   -3.9701   -1.3372 H   0  0  0  0  0  0  0  0  0  0  0  0
   -4.4120   -4.5432    0.3317 H   0  0  0  0  0  0  0  0  0  0  0  0
   -4.6059   -2.8048    0.0095 H   0  0  0  0  0  0  0  0  0  0  0  0
   -2.1452   -2.7496   -1.4665 N   0  0  0  0  0  0  0  0  0  0  0  0
   -0.7294   -2.3566   -1.4599 C   0  0  2  0  0  0  0  0  0  0  0  0
   -0.3933   -1.4992   -0.2140 C   0  0  0  0  0  0  0  0  0  0  0  0
   -1.1239   -0.5743    0.1082 O   0  0  0  0  0  0  0  0  0  0  0  0
   -0.4405   -1.5732   -2.7412 C   0  0  0  0  0  0  0  0  0  0  0  0
   -2.8063   -2.1206   -1.9137 H   0  0  0  0  0  0  0  0  0  0  0  0
   -0.1175   -3.2581   -1.4742 H   0  0  0  0  0  0  0  0  0  0  0  0
   -1.0422   -0.6591   -2.7789 H   0  0  0  0  0  0  0  0  0  0  0  0
    0.6171   -1.2947   -2.7846 H   0  0  0  0  0  0  0  0  0  0  0  0
   -0.6737   -2.1826   -3.6199 H   0  0  0  0  0  0  0  0  0  0  0  0
    0.5805   -1.7570    0.7274 N   0  0  0  0  0  0  0  0  0  0  0  0
    1.8598   -2.4606    0.5255 C   0  0  0  0  0  0  0  0  0  0  0  0
    1.8039   -3.9139    0.0315 C   0  0  0  0  0  0  0  0  0  0  0  0
    2.6523   -4.2819   -0.7684 O   0  0  0  0  0  0  0  0  0  0  0  0
    0.5338   -1.0911    1.4963 H   0  0  0  0  0  0  0  0  0  0  0  0
    2.3976   -2.4722    1.4778 H   0  0  0  0  0  0  0  0  0  0  0  0
    2.4669   -1.8869   -0.1826 H   0  0  0  0  0  0  0  0  0  0  0  0
    0.9156   -4.8196    0.5831 N   0  0  0  0  0  0  0  0  0  0  0  0
    0.7497   -6.2400    0.2064 C   0  0  2  0  0  0  0  0  0  0  0  0
    1.9195   -7.1713    0.6015 C   0  0  0  0  0  0  0  0  0  0  0  0
    1.6810   -8.2593    1.1100 O   0  0  0  0  0  0  0  0  0  0  0  0
    0.4194   -6.3913   -1.2855 C   0  0  0  0  0  0  0  0  0  0  0  0
    0.1146   -4.3953    1.0573 H   0  0  0  0  0  0  0  0  0  0  0  0
   -0.1209   -6.6049    0.7614 H   0  0  0  0  0  0  0  0  0  0  0  0
    1.2771   -6.1303   -1.9117 H   0  0  0  0  0  0  0  0  0  0  0  0
    0.1433   -7.4279   -1.5028 H   0  0  0  0  0  0  0  0  0  0  0  0
   -0.4219   -5.7472   -1.5567 H   0  0  0  0  0  0  0  0  0  0  0  0
    3.2325   -6.8207    0.3581 N   0  0  0  0  0  0  0  0  0  0  0  0
    4.3721   -7.6846    0.6322 C   0  0  0  0  0  0  0  0  0  0  0  0
    3.3755   -5.9399   -0.1418 H   0  0  0  0  0  0  0  0  0  0  0  0
    4.3991   -7.9576    1.6925 H   0  0  0  0  0  0  0  0  0  0  0  0
    4.3118   -8.5999    0.0341 H   0  0  0  0  0  0  0  0  0  0  0  0
    5.3050   -7.1689    0.3851 H   0  0  0  0  0  0  0  0  0  0  0  0
  1  2  2  0  0  0  0
  1  3  1  0  0  0  0
  1  7  1  0  0  0  0
  3  4  1  0  0  0  0
  3  5  1  0  0  0  0
  3  6  1  0  0  0  0
  7  8  1  0  0  0  0
  7 12  1  0  0  0  0
  8  9  1  0  0  0  0
  8 11  1  0  0  0  0
  8 13  1  0  0  0  0
  9 10  2  0  0  0  0
  9 17  1  0  0  0  0
 11 14  1  0  0  0  0
 11 15  1  0  0  0  0
 11 16  1  0  0  0  0
 17 18  1  0  0  0  0
 17 21  1  0  0  0  0
 18 19  1  0  0  0  0
 18 22  1  0  0  0  0
 18 23  1  0  0  0  0
 19 20  2  0  0  0  0
 19 24  1  0  0  0  0
 24 25  1  0  0  0  0
 24 29  1  0  0  0  0
 25 26  1  0  0  0  0
 25 28  1  0  0  0  0
 25 30  1  0  0  0  0
 26 27  2  0  0  0  0
 26 34  1  0  0  0  0
 28 31  1  0  0  0  0
 28 32  1  0  0  0  0
 28 33  1  0  0  0  0
 34 35  1  0  0  0  0
 34 36  1  0  0  0  0
 35 37  1  0  0  0  0
 35 38  1  0  0  0  0
 35 39  1  0  0  0  0
M  END
$$$$

  -OEChem-02062319083D

 39 38  0     1  0  0  0  0  0999 V2000
   -2.5464   -3.5871   -0.4925 C   0  0  0  0  0  0  0  0  0  0  0  0
   -1.6833   -4.2197    0.1001 O   0  0  0  0  0  0  0  0  0  0  0  0
   -4.0132   -3.8843   -0.2473 C   0  0  0  0  0  0  0  0  0  0  0  0
   -4.5032   -4.1516   -1.1870 H   0  0  0  0  0  0  0  0  0  0  0  0
   -4.1174   -4.7175    0.4535 H   0  0  0  0  0  0  0  0  0  0  0  0
   -4.5056   -3.0051    0.1757 H   0  0  0  0  0  0  0  0  0  0  0  0
   -2.1860   -2.5772   -1.3620 N   0  0  0  0  0  0  0  0  0  0  0  0
   -0.8044   -2.0870   -1.4606 C   0  0  2  0  0  0  0  0  0  0  0  0
   -0.3792   -1.3316   -0.1767 C   0  0  0  0  0  0  0  0  0  0  0  0
   -1.0899   -0.4395    0.2611 O   0  0  0  0  0  0  0  0  0  0  0  0
   -0.7047   -1.1685   -2.6807 C   0  0  0  0  0  0  0  0  0  0  0  0
   -2.9313   -1.9478   -1.6468 H   0  0  0  0  0  0  0  0  0  0  0  0
   -0.1418   -2.9323   -1.6345 H   0  0  0  0  0  0  0  0  0  0  0  0
   -1.3642   -0.3020   -2.5670 H   0  0  0  0  0  0  0  0  0  0  0  0
    0.3224   -0.8094   -2.8019 H   0  0  0  0  0  0  0  0  0  0  0  0
   -0.9898   -1.7090   -3.5887 H   0  0  0  0  0  0  0  0  0  0  0  0
    0.5714   -1.7333    0.7385 N   0  0  0  0  0  0  0  0  0  0  0  0
    1.9060   -2.2754    0.4225 C   0  0  0  0  0  0  0  0  0  0  0  0
    1.9832   -3.5670   -0.4057 C   0  0  0  0  0  0  0  0  0  0  0  0
    2.8352   -3.6489   -1.2788 O   0  0  0  0  0  0  0  0  0  0  0  0
    0.5033   -1.1740    1.5866 H   0  0  0  0  0  0  0  0  0  0  0  0
    2.4246   -2.4763    1.3642 H   0  0  0  0  0  0  0  0  0  0  0  0
    2.4787   -1.5050   -0.1043 H   0  0  0  0  0  0  0  0  0  0  0  0
    1.1615   -4.6431   -0.1180 N   0  0  0  0  0  0  0  0  0  0  0  0
    1.1070   -5.9424   -0.8214 C   0  0  2  0  0  0  0  0  0  0  0  0
    2.3683   -6.8283   -0.6866 C   0  0  0  0  0  0  0  0  0  0  0  0
    2.2495   -8.0038   -0.3650 O   0  0  0  0  0  0  0  0  0  0  0  0
    0.7275   -5.7621   -2.2973 C   0  0  0  0  0  0  0  0  0  0  0  0
    0.3473   -4.4219    0.4636 H   0  0  0  0  0  0  0  0  0  0  0  0
    0.2958   -6.5107   -0.3537 H   0  0  0  0  0  0  0  0  0  0  0  0
    1.5114   -5.2355   -2.8489 H   0  0  0  0  0  0  0  0  0  0  0  0
    0.5783   -6.7402   -2.7654 H   0  0  0  0  0  0  0  0  0  0  0  0
   -0.2044   -5.1962   -2.3825 H   0  0  0  0  0  0  0  0  0  0  0  0
    3.6283   -6.3372   -0.9647 N   0  0  0  0  0  0  0  0  0  0  0  0
    4.8496   -7.1271   -0.8936 C   0  0  0  0  0  0  0  0  0  0  0  0
    3.6781   -5.3527   -1.2391 H   0  0  0  0  0  0  0  0  0  0  0  0
    5.0264   -7.4664    0.1322 H   0  0  0  0  0  0  0  0  0  0  0  0
    4.7788   -8.0024   -1.5478 H   0  0  0  0  0  0  0  0  0  0  0  0
    5.7063   -6.5257   -1.2127 H   0  0  0  0  0  0  0  0  0  0  0  0
  1  2  2  0  0  0  0
  1  3  1  0  0  0  0
  1  7  1  0  0  0  0
  3  4  1  0  0  0  0
  3  5  1  0  0  0  0
  3  6  1  0  0  0  0
  7  8  1  0  0  0  0
  7 12  1  0  0  0  0
  8  9  1  0  0  0  0
  8 11  1  0  0  0  0
  8 13  1  0  0  0  0
  9 10  2  0  0  0  0
  9 17  1  0  0  0  0
 11 14  1  0  0  0  0
 11 15  1  0  0  0  0
 11 16  1  0  0  0  0
 17 18  1  0  0  0  0
 17 21  1  0  0  0  0
 18 19  1  0  0  0  0
 18 22  1  0  0  0  0
 18 23  1  0  0  0  0
 19 20  2  0  0  0  0
 19 24  1  0  0  0  0
 24 25  1  0  0  0  0
 24 29  1  0  0  0  0
 25 26  1  0  0  0  0
 25 28  1  0  0  0  0
 25 30  1  0  0  0  0
 26 27  2  0  0  0  0
 26 34  1  0  0  0  0
 28 31  1  0  0  0  0
 28 32  1  0  0  0  0
 28 33  1  0  0  0  0
 34 35  1  0  0  0  0
 34 36  1  0  0  0  0
 35 37  1  0  0  0  0
 35 38  1  0  0  0  0
 35 39  1  0  0  0  0
M  END
$$$$

  -OEChem-02062319083D

 39 38  0     1  0  0  0  0  0999 V2000
   -2.4006   -3.6525   -0.5183 C   0  0  0  0  0  0  0  0  0  0  0  0
   -1.4099   -4.2853   -0.1812 O   0  0  0  0  0  0  0  0  0  0  0  0
   -3.7855   -4.1542   -0.1566 C   0  0  0  0  0  0  0  0  0  0  0  0
   -4.3770   -4.3041   -1.0633 H   0  0  0  0  0  0  0  0  0  0  0  0
   -3.7147   -5.1051    0.3789 H   0  0  0  0  0  0  0  0  0  0  0  0
   -4.2905   -3.4267    0.4837 H   0  0  0  0  0  0  0  0  0  0  0  0
   -2.2578   -2.4625   -1.2023 N   0  0  0  0  0  0  0  0  0  0  0  0
   -0.9542   -1.8165   -1.4054 C   0  0  2  0  0  0  0  0  0  0  0  0
   -0.4207   -1.1846   -0.0973 C   0  0  0  0  0  0  0  0  0  0  0  0
   -1.0998   -0.3499    0.4807 O   0  0  0  0  0  0  0  0  0  0  0  0
   -1.1137   -0.7526   -2.4942 C   0  0  0  0  0  0  0  0  0  0  0  0
   -3.0875   -1.8786   -1.2638 H   0  0  0  0  0  0  0  0  0  0  0  0
   -0.2414   -2.5494   -1.7754 H   0  0  0  0  0  0  0  0  0  0  0  0
   -0.1559   -0.2568   -2.6814 H   0  0  0  0  0  0  0  0  0  0  0  0
   -1.8432    0.0057   -2.1922 H   0  0  0  0  0  0  0  0  0  0  0  0
   -1.4527   -1.2120   -3.4279 H   0  0  0  0  0  0  0  0  0  0  0  0
    0.5266   -1.7349    0.7400 N   0  0  0  0  0  0  0  0  0  0  0  0
    1.9034   -2.0704    0.3310 C   0  0  0  0  0  0  0  0  0  0  0  0
    2.0986   -3.0926   -0.7999 C   0  0  0  0  0  0  0  0  0  0  0  0
    2.9552   -2.8726   -1.6438 O   0  0  0  0  0  0  0  0  0  0  0  0
    0.4417   -1.3168    1.6645 H   0  0  0  0  0  0  0  0  0  0  0  0
    2.4298   -2.4669    1.2039 H   0  0  0  0  0  0  0  0  0  0  0  0
    2.4134   -1.1466    0.0377 H   0  0  0  0  0  0  0  0  0  0  0  0
    1.3724   -4.2711   -0.8249 N   0  0  0  0  0  0  0  0  0  0  0  0
    1.4383   -5.3501   -1.8339 C   0  0  2  0  0  0  0  0  0  0  0  0
    2.7726   -6.1313   -1.8988 C   0  0  0  0  0  0  0  0  0  0  0  0
    2.7510   -7.3498   -2.0172 O   0  0  0  0  0  0  0  0  0  0  0  0
    1.0488   -4.8357   -3.2261 C   0  0  0  0  0  0  0  0  0  0  0  0
    0.5636   -4.2987   -0.1940 H   0  0  0  0  0  0  0  0  0  0  0  0
    0.6811   -6.0866   -1.5440 H   0  0  0  0  0  0  0  0  0  0  0  0
    1.7783   -4.1112   -3.5994 H   0  0  0  0  0  0  0  0  0  0  0  0
    1.0041   -5.6705   -3.9330 H   0  0  0  0  0  0  0  0  0  0  0  0
    0.0638   -4.3619   -3.1947 H   0  0  0  0  0  0  0  0  0  0  0  0
    3.9925   -5.4847   -1.8837 N   0  0  0  0  0  0  0  0  0  0  0  0
    5.2731   -6.1542   -2.0625 C   0  0  0  0  0  0  0  0  0  0  0  0
    3.9561   -4.4623   -1.8843 H   0  0  0  0  0  0  0  0  0  0  0  0
    5.4050   -6.9378   -1.3088 H   0  0  0  0  0  0  0  0  0  0  0  0
    5.3322   -6.6071   -3.0575 H   0  0  0  0  0  0  0  0  0  0  0  0
    6.0910   -5.4351   -1.9589 H   0  0  0  0  0  0  0  0  0  0  0  0
  1  2  2  0  0  0  0
  1  3  1  0  0  0  0
  1  7  1  0  0  0  0
  3  4  1  0  0  0  0
  3  5  1  0  0  0  0
  3  6  1  0  0  0  0
  7  8  1  0  0  0  0
  7 12  1  0  0  0  0
  8  9  1  0  0  0  0
  8 11  1  0  0  0  0
  8 13  1  0  0  0  0
  9 10  2  0  0  0  0
  9 17  1  0  0  0  0
 11 14  1  0  0  0  0
 11 15  1  0  0  0  0
 11 16  1  0  0  0  0
 17 18  1  0  0  0  0
 17 21  1  0  0  0  0
 18 19  1  0  0  0  0
 18 22  1  0  0  0  0
 18 23  1  0  0  0  0
 19 20  2  0  0  0  0
 19 24  1  0  0  0  0
 24 25  1  0  0  0  0
 24 29  1  0  0  0  0
 25 26  1  0  0  0  0
 25 28  1  0  0  0  0
 25 30  1  0  0  0  0
 26 27  2  0  0  0  0
 26 34  1  0  0  0  0
 28 31  1  0  0  0  0
 28 32  1  0  0  0  0
 28 33  1  0  0  0  0
 34 35  1  0  0  0  0
 34 36  1  0  0  0  0
 35 37  1  0  0  0  0
 35 38  1  0  0  0  0
 35 39  1  0  0  0  0
M  END
$$$$

  -OEChem-02062319083D

 39 38  0     1  0  0  0  0  0999 V2000
   -1.8156   -4.7419   -1.0867 C   0  0  0  0  0  0  0  0  0  0  0  0
   -1.0588   -5.0677   -1.9889 O   0  0  0  0  0  0  0  0  0  0  0  0
   -2.8346   -5.7323   -0.5555 C   0  0  0  0  0  0  0  0  0  0  0  0
   -2.6938   -5.8726    0.5188 H   0  0  0  0  0  0  0  0  0  0  0  0
   -3.8462   -5.3613   -0.7381 H   0  0  0  0  0  0  0  0  0  0  0  0
   -2.7171   -6.6979   -1.0546 H   0  0  0  0  0  0  0  0  0  0  0  0
   -1.7585   -3.4696   -0.5576 N   0  0  0  0  0  0  0  0  0  0  0  0
   -0.7692   -2.4520   -0.9341 C   0  0  2  0  0  0  0  0  0  0  0  0
   -0.6396   -1.3454    0.1404 C   0  0  0  0  0  0  0  0  0  0  0  0
   -1.5678   -1.1666    0.9160 O   0  0  0  0  0  0  0  0  0  0  0  0
   -1.2043   -1.8330   -2.2692 C   0  0  0  0  0  0  0  0  0  0  0  0
   -2.3873   -3.2432    0.2118 H   0  0  0  0  0  0  0  0  0  0  0  0
    0.2013   -2.9386   -1.0442 H   0  0  0  0  0  0  0  0  0  0  0  0
   -2.2073   -1.4042   -2.1792 H   0  0  0  0  0  0  0  0  0  0  0  0
   -0.5196   -1.0395   -2.5763 H   0  0  0  0  0  0  0  0  0  0  0  0
   -1.2204   -2.5915   -3.0577 H   0  0  0  0  0  0  0  0  0  0  0  0
    0.5453   -0.8878    0.6801 N   0  0  0  0  0  0  0  0  0  0  0  0
    1.4466   -0.0053   -0.0881 C   0  0  0  0  0  0  0  0  0  0  0  0
    1.9913   -0.5841   -1.4004 C   0  0  0  0  0  0  0  0  0  0  0  0
    1.8840    0.0432   -2.4427 O   0  0  0  0  0  0  0  0  0  0  0  0
    0.3599   -0.5628    1.6275 H   0  0  0  0  0  0  0  0  0  0  0  0
    2.3082    0.2484    0.5358 H   0  0  0  0  0  0  0  0  0  0  0  0
    0.9232    0.9286   -0.3189 H   0  0  0  0  0  0  0  0  0  0  0  0
    2.4715   -1.8764   -1.4190 N   0  0  0  0  0  0  0  0  0  0  0  0
    2.6843   -2.6882   -2.6220 C   0  0  2  0  0  0  0  0  0  0  0  0
    2.5763   -4.1897   -2.2760 C   0  0  0  0  0  0  0  0  0  0  0  0
    2.6980   -4.5491   -1.1082 O   0  0  0  0  0  0  0  0  0  0  0  0
    4.0642   -2.3691   -3.2040 C   0  0  0  0  0  0  0  0  0  0  0  0
    2.4645   -2.3852   -0.5332 H   0  0  0  0  0  0  0  0  0  0  0  0
    1.9137   -2.4570   -3.3651 H   0  0  0  0  0  0  0  0  0  0  0  0
    4.8482   -2.5928   -2.4733 H   0  0  0  0  0  0  0  0  0  0  0  0
    4.2467   -2.9632   -4.1046 H   0  0  0  0  0  0  0  0  0  0  0  0
    4.1288   -1.3098   -3.4714 H   0  0  0  0  0  0  0  0  0  0  0  0
    2.3211   -5.1258   -3.2598 N   0  0  0  0  0  0  0  0  0  0  0  0
    2.0361   -6.5229   -2.9553 C   0  0  0  0  0  0  0  0  0  0  0  0
    2.0629   -4.7720   -4.1758 H   0  0  0  0  0  0  0  0  0  0  0  0
    2.8778   -6.9805   -2.4251 H   0  0  0  0  0  0  0  0  0  0  0  0
    1.1410   -6.6049   -2.3304 H   0  0  0  0  0  0  0  0  0  0  0  0
    1.8652   -7.0835   -3.8792 H   0  0  0  0  0  0  0  0  0  0  0  0
  1  2  2  0  0  0  0
  1  3  1  0  0  0  0
  1  7  1  0  0  0  0
  3  4  1  0  0  0  0
  3  5  1  0  0  0  0
  3  6  1  0  0  0  0
  7  8  1  0  0  0  0
  7 12  1  0  0  0  0
  8  9  1  0  0  0  0
  8 11  1  0  0  0  0
  8 13  1  0  0  0  0
  9 10  2  0  0  0  0
  9 17  1  0  0  0  0
 11 14  1  0  0  0  0
 11 15  1  0  0  0  0
 11 16  1  0  0  0  0
 17 18  1  0  0  0  0
 17 21  1  0  0  0  0
 18 19  1  0  0  0  0
 18 22  1  0  0  0  0
 18 23  1  0  0  0  0
 19 20  2  0  0  0  0
 19 24  1  0  0  0  0
 24 25  1  0  0  0  0
 24 29  1  0  0  0  0
 25 26  1  0  0  0  0
 25 28  1  0  0  0  0
 25 30  1  0  0  0  0
 26 27  2  0  0  0  0
 26 34  1  0  0  0  0
 28 31  1  0  0  0  0
 28 32  1  0  0  0  0
 28 33  1  0  0  0  0
 34 35  1  0  0  0  0
 34 36  1  0  0  0  0
 35 37  1  0  0  0  0
 35 38  1  0  0  0  0
 35 39  1  0  0  0  0
M  END
$$$$

  -OEChem-02062319083D

 39 38  0     1  0  0  0  0  0999 V2000
   -2.0029   -3.6888   -0.6807 C   0  0  0  0  0  0  0  0  0  0  0  0
   -0.8302   -4.0057   -0.5353 O   0  0  0  0  0  0  0  0  0  0  0  0
   -3.0995   -4.7315   -0.5788 C   0  0  0  0  0  0  0  0  0  0  0  0
   -3.6694   -4.7677   -1.5108 H   0  0  0  0  0  0  0  0  0  0  0  0
   -2.6662   -5.7188   -0.3942 H   0  0  0  0  0  0  0  0  0  0  0  0
   -3.7759   -4.4856    0.2437 H   0  0  0  0  0  0  0  0  0  0  0  0
   -2.3204   -2.3640   -0.8978 N   0  0  0  0  0  0  0  0  0  0  0  0
   -1.3367   -1.2882   -1.1073 C   0  0  2  0  0  0  0  0  0  0  0  0
   -0.5944   -0.8915    0.1983 C   0  0  0  0  0  0  0  0  0  0  0  0
   -0.4586    0.2903    0.4777 O   0  0  0  0  0  0  0  0  0  0  0  0
   -2.0935   -0.1142   -1.7437 C   0  0  0  0  0  0  0  0  0  0  0  0
   -3.3072   -2.1347   -0.9880 H   0  0  0  0  0  0  0  0  0  0  0  0
   -0.5917   -1.6152   -1.8328 H   0  0  0  0  0  0  0  0  0  0  0  0
   -1.3980    0.6922   -1.9988 H   0  0  0  0  0  0  0  0  0  0  0  0
   -2.8427    0.2832   -1.0514 H   0  0  0  0  0  0  0  0  0  0  0  0
   -2.5961   -0.4338   -2.6617 H   0  0  0  0  0  0  0  0  0  0  0  0
    0.3199   -1.7447    0.7919 N   0  0  0  0  0  0  0  0  0  0  0  0
    1.7452   -1.6574    0.4136 C   0  0  0  0  0  0  0  0  0  0  0  0
    2.1091   -1.9048   -1.0600 C   0  0  0  0  0  0  0  0  0  0  0  0
    2.9584   -1.2063   -1.5935 O   0  0  0  0  0  0  0  0  0  0  0  0
   -0.0232   -2.7059    0.7358 H   0  0  0  0  0  0  0  0  0  0  0  0
    2.3072   -2.3775    1.0143 H   0  0  0  0  0  0  0  0  0  0  0  0
    2.1125   -0.6613    0.6847 H   0  0  0  0  0  0  0  0  0  0  0  0
    1.5555   -2.9693   -1.7534 N   0  0  0  0  0  0  0  0  0  0  0  0
    1.8151   -3.3653   -3.1537 C   0  0  2  0  0  0  0  0  0  0  0  0
    3.2393   -3.8994   -3.4327 C   0  0  0  0  0  0  0  0  0  0  0  0
    3.3772   -4.9449   -4.0547 O   0  0  0  0  0  0  0  0  0  0  0  0
    1.4645   -2.2348   -4.1319 C   0  0  0  0  0  0  0  0  0  0  0  0
    0.8644   -3.5233   -1.2393 H   0  0  0  0  0  0  0  0  0  0  0  0
    1.1366   -4.1964   -3.3717 H   0  0  0  0  0  0  0  0  0  0  0  0
    2.1568   -1.3935   -4.0316 H   0  0  0  0  0  0  0  0  0  0  0  0
    1.5231   -2.6009   -5.1619 H   0  0  0  0  0  0  0  0  0  0  0  0
    0.4481   -1.8743   -3.9525 H   0  0  0  0  0  0  0  0  0  0  0  0
    4.3604   -3.2024   -3.0289 N   0  0  0  0  0  0  0  0  0  0  0  0
    5.7269   -3.6101   -3.3214 C   0  0  0  0  0  0  0  0  0  0  0  0
    4.1908   -2.3149   -2.5476 H   0  0  0  0  0  0  0  0  0  0  0  0
    6.4336   -2.8884   -2.9007 H   0  0  0  0  0  0  0  0  0  0  0  0
    5.9346   -4.5929   -2.8858 H   0  0  0  0  0  0  0  0  0  0  0  0
    5.8869   -3.6620   -4.4033 H   0  0  0  0  0  0  0  0  0  0  0  0
  1  2  2  0  0  0  0
  1  3  1  0  0  0  0
  1  7  1  0  0  0  0
  3  4  1  0  0  0  0
  3  5  1  0  0  0  0
  3  6  1  0  0  0  0
  7  8  1  0  0  0  0
  7 12  1  0  0  0  0
  8  9  1  0  0  0  0
  8 11  1  0  0  0  0
  8 13  1  0  0  0  0
  9 10  2  0  0  0  0
  9 17  1  0  0  0  0
 11 14  1  0  0  0  0
 11 15  1  0  0  0  0
 11 16  1  0  0  0  0
 17 18  1  0  0  0  0
 17 21  1  0  0  0  0
 18 19  1  0  0  0  0
 18 22  1  0  0  0  0
 18 23  1  0  0  0  0
 19 20  2  0  0  0  0
 19 24  1  0  0  0  0
 24 25  1  0  0  0  0
 24 29  1  0  0  0  0
 25 26  1  0  0  0  0
 25 28  1  0  0  0  0
 25 30  1  0  0  0  0
 26 27  2  0  0  0  0
 26 34  1  0  0  0  0
 28 31  1  0  0  0  0
 28 32  1  0  0  0  0
 28 33  1  0  0  0  0
 34 35  1  0  0  0  0
 34 36  1  0  0  0  0
 35 37  1  0  0  0  0
 35 38  1  0  0  0  0
 35 39  1  0  0  0  0
M  END
$$$$

  -OEChem-02062319083D

 39 38  0     1  0  0  0  0  0999 V2000
   -0.2917   -3.6838    0.1674 C   0  0  0  0  0  0  0  0  0  0  0  0
    0.5968   -2.8952    0.4598 O   0  0  0  0  0  0  0  0  0  0  0  0
   -0.4457   -4.9825    0.9351 C   0  0  0  0  0  0  0  0  0  0  0  0
   -0.3129   -5.8319    0.2603 H   0  0  0  0  0  0  0  0  0  0  0  0
    0.3048   -5.0440    1.7285 H   0  0  0  0  0  0  0  0  0  0  0  0
   -1.4395   -5.0368    1.3867 H   0  0  0  0  0  0  0  0  0  0  0  0
   -1.1851   -3.3584   -0.8322 N   0  0  0  0  0  0  0  0  0  0  0  0
   -0.9974   -2.2562   -1.7922 C   0  0  2  0  0  0  0  0  0  0  0  0
   -1.3206   -0.8527   -1.2105 C   0  0  0  0  0  0  0  0  0  0  0  0
   -1.8309   -0.0016   -1.9247 O   0  0  0  0  0  0  0  0  0  0  0  0
   -1.8548   -2.5950   -3.0186 C   0  0  0  0  0  0  0  0  0  0  0  0
   -1.8838   -4.0618   -1.0576 H   0  0  0  0  0  0  0  0  0  0  0  0
    0.0439   -2.2422   -2.1211 H   0  0  0  0  0  0  0  0  0  0  0  0
   -1.6963   -1.8562   -3.8106 H   0  0  0  0  0  0  0  0  0  0  0  0
   -2.9178   -2.5980   -2.7570 H   0  0  0  0  0  0  0  0  0  0  0  0
   -1.5848   -3.5791   -3.4142 H   0  0  0  0  0  0  0  0  0  0  0  0
   -0.6380   -0.3933   -0.0973 N   0  0  0  0  0  0  0  0  0  0  0  0
    0.4012    0.6413   -0.2689 C   0  0  0  0  0  0  0  0  0  0  0  0
    1.5681    0.2382   -1.1835 C   0  0  0  0  0  0  0  0  0  0  0  0
    1.9789    1.0019   -2.0473 O   0  0  0  0  0  0  0  0  0  0  0  0
   -0.3227   -1.1784    0.4760 H   0  0  0  0  0  0  0  0  0  0  0  0
    0.8126    0.8995    0.7106 H   0  0  0  0  0  0  0  0  0  0  0  0
   -0.0575    1.5489   -0.6759 H   0  0  0  0  0  0  0  0  0  0  0  0
    2.1580   -1.0060   -1.0594 N   0  0  0  0  0  0  0  0  0  0  0  0
    3.1476   -1.5445   -2.0016 C   0  0  2  0  0  0  0  0  0  0  0  0
    2.5028   -1.9457   -3.3510 C   0  0  0  0  0  0  0  0  0  0  0  0
    2.3144   -3.1190   -3.6536 O   0  0  0  0  0  0  0  0  0  0  0  0
    3.8431   -2.7197   -1.3046 C   0  0  0  0  0  0  0  0  0  0  0  0
    1.7289   -1.6571   -0.3960 H   0  0  0  0  0  0  0  0  0  0  0  0
    3.9055   -0.7827   -2.2132 H   0  0  0  0  0  0  0  0  0  0  0  0
    3.1215   -3.5064   -1.0613 H   0  0  0  0  0  0  0  0  0  0  0  0
    4.6129   -3.1446   -1.9563 H   0  0  0  0  0  0  0  0  0  0  0  0
    4.3195   -2.3857   -0.3780 H   0  0  0  0  0  0  0  0  0  0  0  0
    2.0462   -0.9532   -4.1952 N   0  0  0  0  0  0  0  0  0  0  0  0
    1.3043   -1.2042   -5.4230 C   0  0  0  0  0  0  0  0  0  0  0  0
    2.0557   -0.0047   -3.8087 H   0  0  0  0  0  0  0  0  0  0  0  0
    1.8669   -1.8734   -6.0824 H   0  0  0  0  0  0  0  0  0  0  0  0
    0.3355   -1.6610   -5.1993 H   0  0  0  0  0  0  0  0  0  0  0  0
    1.1310   -0.2644   -5.9561 H   0  0  0  0  0  0  0  0  0  0  0  0
  1  2  2  0  0  0  0
  1  3  1  0  0  0  0
  1  7  1  0  0  0  0
  3  4  1  0  0  0  0
  3  5  1  0  0  0  0
  3  6  1  0  0  0  0
  7  8  1  0  0  0  0
  7 12  1  0  0  0  0
  8  9  1  0  0  0  0
  8 11  1  0  0  0  0
  8 13  1  0  0  0  0
  9 10  2  0  0  0  0
  9 17  1  0  0  0  0
 11 14  1  0  0  0  0
 11 15  1  0  0  0  0
 11 16  1  0  0  0  0
 17 18  1  0  0  0  0
 17 21  1  0  0  0  0
 18 19  1  0  0  0  0
 18 22  1  0  0  0  0
 18 23  1  0  0  0  0
 19 20  2  0  0  0  0
 19 24  1  0  0  0  0
 24 25  1  0  0  0  0
 24 29  1  0  0  0  0
 25 26  1  0  0  0  0
 25 28  1  0  0  0  0
 25 30  1  0  0  0  0
 26 27  2  0  0  0  0
 26 34  1  0  0  0  0
 28 31  1  0  0  0  0
 28 32  1  0  0  0  0
 28 33  1  0  0  0  0
 34 35  1  0  0  0  0
 34 36  1  0  0  0  0
 35 37  1  0  0  0  0
 35 38  1  0  0  0  0
 35 39  1  0  0  0  0
M  END
$$$$

  -OEChem-02062319083D

 39 38  0     1  0  0  0  0  0999 V2000
   -0.5142   -3.4209   -0.0828 C   0  0  0  0  0  0  0  0  0  0  0  0
    0.3185   -2.6283    0.3355 O   0  0  0  0  0  0  0  0  0  0  0  0
   -0.7672   -4.7238    0.6511 C   0  0  0  0  0  0  0  0  0  0  0  0
   -0.5973   -5.5696   -0.0199 H   0  0  0  0  0  0  0  0  0  0  0  0
   -0.0905   -4.8133    1.5058 H   0  0  0  0  0  0  0  0  0  0  0  0
   -1.7976   -4.7563    1.0144 H   0  0  0  0  0  0  0  0  0  0  0  0
   -1.2766   -3.0813   -1.1818 N   0  0  0  0  0  0  0  0  0  0  0  0
   -0.9574   -1.9726   -2.1005 C   0  0  2  0  0  0  0  0  0  0  0  0
   -1.3594   -0.5680   -1.5764 C   0  0  0  0  0  0  0  0  0  0  0  0
   -1.6180    0.3311   -2.3639 O   0  0  0  0  0  0  0  0  0  0  0  0
   -1.6290   -2.3039   -3.4393 C   0  0  0  0  0  0  0  0  0  0  0  0
   -1.9344   -3.7849   -1.5075 H   0  0  0  0  0  0  0  0  0  0  0  0
    0.1234   -1.9516   -2.2701 H   0  0  0  0  0  0  0  0  0  0  0  0
   -2.7183   -2.3142   -3.3325 H   0  0  0  0  0  0  0  0  0  0  0  0
   -1.3645   -1.5579   -4.1953 H   0  0  0  0  0  0  0  0  0  0  0  0
   -1.2994   -3.2830   -3.8003 H   0  0  0  0  0  0  0  0  0  0  0  0
   -1.0444   -0.2137   -0.2760 N   0  0  0  0  0  0  0  0  0  0  0  0
   -0.1829    0.9570   -0.0265 C   0  0  0  0  0  0  0  0  0  0  0  0
    1.2077    0.8248   -0.6646 C   0  0  0  0  0  0  0  0  0  0  0  0
    1.6937    1.7490   -1.3034 O   0  0  0  0  0  0  0  0  0  0  0  0
   -0.7978   -1.0346    0.2796 H   0  0  0  0  0  0  0  0  0  0  0  0
   -0.0578    1.0951    1.0506 H   0  0  0  0  0  0  0  0  0  0  0  0
   -0.6646    1.8598   -0.4177 H   0  0  0  0  0  0  0  0  0  0  0  0
    1.9145   -0.3592   -0.5534 N   0  0  0  0  0  0  0  0  0  0  0  0
    3.0931   -0.6744   -1.3717 C   0  0  2  0  0  0  0  0  0  0  0  0
    2.7061   -0.9546   -2.8449 C   0  0  0  0  0  0  0  0  0  0  0  0
    2.7239   -2.0875   -3.3139 O   0  0  0  0  0  0  0  0  0  0  0  0
    3.8019   -1.8610   -0.7085 C   0  0  0  0  0  0  0  0  0  0  0  0
    1.4254   -1.1433   -0.1128 H   0  0  0  0  0  0  0  0  0  0  0  0
    3.7835    0.1759   -1.3683 H   0  0  0  0  0  0  0  0  0  0  0  0
    3.1436   -2.7355   -0.6780 H   0  0  0  0  0  0  0  0  0  0  0  0
    4.7039   -2.1258   -1.2692 H   0  0  0  0  0  0  0  0  0  0  0  0
    4.0924   -1.6067    0.3153 H   0  0  0  0  0  0  0  0  0  0  0  0
    2.2317    0.0839   -3.6212 N   0  0  0  0  0  0  0  0  0  0  0  0
    1.6813   -0.0850   -4.9585 C   0  0  0  0  0  0  0  0  0  0  0  0
    2.0696    0.9677   -3.1293 H   0  0  0  0  0  0  0  0  0  0  0  0
    2.4425   -0.4814   -5.6384 H   0  0  0  0  0  0  0  0  0  0  0  0
    0.8305   -0.7730   -4.9399 H   0  0  0  0  0  0  0  0  0  0  0  0
    1.3382    0.8785   -5.3477 H   0  0  0  0  0  0  0  0  0  0  0  0
  1  2  2  0  0  0  0
  1  3  1  0  0  0  0
  1  7  1  0  0  0  0
  3  4  1  0  0  0  0
  3  5  1  0  0  0  0
  3  6  1  0  0  0  0
  7  8  1  0  0  0  0
  7 12  1  0  0  0  0
  8  9  1  0  0  0  0
  8 11  1  0  0  0  0
  8 13  1  0  0  0  0
  9 10  2  0  0  0  0
  9 17  1  0  0  0  0
 11 14  1  0  0  0  0
 11 15  1  0  0  0  0
 11 16  1  0  0  0  0
 17 18  1  0  0  0  0
 17 21  1  0  0  0  0
 18 19  1  0  0  0  0
 18 22  1  0  0  0  0
 18 23  1  0  0  0  0
 19 20  2  0  0  0  0
 19 24  1  0  0  0  0
 24 25  1  0  0  0  0
 24 29  1  0  0  0  0
 25 26  1  0  0  0  0
 25 28  1  0  0  0  0
 25 30  1  0  0  0  0
 26 27  2  0  0  0  0
 26 34  1  0  0  0  0
 28 31  1  0  0  0  0
 28 32  1  0  0  0  0
 28 33  1  0  0  0  0
 34 35  1  0  0  0  0
 34 36  1  0  0  0  0
 35 37  1  0  0  0  0
 35 38  1  0  0  0  0
 35 39  1  0  0  0  0
M  END
$$$$

  -OEChem-02062319083D

 39 38  0     1  0  0  0  0  0999 V2000
   -2.3241   -4.6124   -0.5972 C   0  0  0  0  0  0  0  0  0  0  0  0
   -1.5877   -5.2643    0.1266 O   0  0  0  0  0  0  0  0  0  0  0  0
   -3.7259   -5.1080   -0.8985 C   0  0  0  0  0  0  0  0  0  0  0  0
   -3.8731   -5.1787   -1.9790 H   0  0  0  0  0  0  0  0  0  0  0  0
   -3.8790   -6.0968   -0.4572 H   0  0  0  0  0  0  0  0  0  0  0  0
   -4.4630   -4.4175   -0.4813 H   0  0  0  0  0  0  0  0  0  0  0  0
   -1.8948   -3.4127   -1.1261 N   0  0  0  0  0  0  0  0  0  0  0  0
   -0.6614   -2.7380   -0.6982 C   0  0  2  0  0  0  0  0  0  0  0  0
   -0.9632   -1.6207    0.3245 C   0  0  0  0  0  0  0  0  0  0  0  0
   -1.9438   -0.9100    0.1441 O   0  0  0  0  0  0  0  0  0  0  0  0
    0.0142   -2.1866   -1.9531 C   0  0  0  0  0  0  0  0  0  0  0  0
   -2.6199   -2.8219   -1.5274 H   0  0  0  0  0  0  0  0  0  0  0  0
    0.0230   -3.4522   -0.2286 H   0  0  0  0  0  0  0  0  0  0  0  0
   -0.5892   -1.3912   -2.4028 H   0  0  0  0  0  0  0  0  0  0  0  0
    0.9961   -1.7836   -1.7012 H   0  0  0  0  0  0  0  0  0  0  0  0
    0.1531   -2.9820   -2.6921 H   0  0  0  0  0  0  0  0  0  0  0  0
    0.0047   -1.1810    1.2131 N   0  0  0  0  0  0  0  0  0  0  0  0
    0.2272    0.2574    1.4716 C   0  0  0  0  0  0  0  0  0  0  0  0
    0.6283    1.1215    0.2648 C   0  0  0  0  0  0  0  0  0  0  0  0
    0.1919    2.2581    0.1571 O   0  0  0  0  0  0  0  0  0  0  0  0
    0.8078   -1.7969    1.3086 H   0  0  0  0  0  0  0  0  0  0  0  0
    1.0077    0.3643    2.2296 H   0  0  0  0  0  0  0  0  0  0  0  0
   -0.6894    0.6828    1.8955 H   0  0  0  0  0  0  0  0  0  0  0  0
    1.5913    0.6934   -0.6302 N   0  0  0  0  0  0  0  0  0  0  0  0
    2.0824    1.4819   -1.7690 C   0  0  2  0  0  0  0  0  0  0  0  0
    2.7063    0.5857   -2.8587 C   0  0  0  0  0  0  0  0  0  0  0  0
    3.0862   -0.5467   -2.5789 O   0  0  0  0  0  0  0  0  0  0  0  0
    3.1229    2.4892   -1.2657 C   0  0  0  0  0  0  0  0  0  0  0  0
    1.9510   -0.2534   -0.5325 H   0  0  0  0  0  0  0  0  0  0  0  0
    1.2444    2.0216   -2.2230 H   0  0  0  0  0  0  0  0  0  0  0  0
    3.9679    1.9680   -0.8046 H   0  0  0  0  0  0  0  0  0  0  0  0
    3.4984    3.0985   -2.0931 H   0  0  0  0  0  0  0  0  0  0  0  0
    2.6801    3.1590   -0.5220 H   0  0  0  0  0  0  0  0  0  0  0  0
    2.8417    1.0466   -4.1551 N   0  0  0  0  0  0  0  0  0  0  0  0
    3.4170    0.2505   -5.2329 C   0  0  0  0  0  0  0  0  0  0  0  0
    2.5108    1.9856   -4.3590 H   0  0  0  0  0  0  0  0  0  0  0  0
    4.4480   -0.0312   -4.9937 H   0  0  0  0  0  0  0  0  0  0  0  0
    2.8303   -0.6607   -5.3916 H   0  0  0  0  0  0  0  0  0  0  0  0
    3.4238    0.8237   -6.1651 H   0  0  0  0  0  0  0  0  0  0  0  0
  1  2  2  0  0  0  0
  1  3  1  0  0  0  0
  1  7  1  0  0  0  0
  3  4  1  0  0  0  0
  3  5  1  0  0  0  0
  3  6  1  0  0  0  0
  7  8  1  0  0  0  0
  7 12  1  0  0  0  0
  8  9  1  0  0  0  0
  8 11  1  0  0  0  0
  8 13  1  0  0  0  0
  9 10  2  0  0  0  0
  9 17  1  0  0  0  0
 11 14  1  0  0  0  0
 11 15  1  0  0  0  0
 11 16  1  0  0  0  0
 17 18  1  0  0  0  0
 17 21  1  0  0  0  0
 18 19  1  0  0  0  0
 18 22  1  0  0  0  0
 18 23  1  0  0  0  0
 19 20  2  0  0  0  0
 19 24  1  0  0  0  0
 24 25  1  0  0  0  0
 24 29  1  0  0  0  0
 25 26  1  0  0  0  0
 25 28  1  0  0  0  0
 25 30  1  0  0  0  0
 26 27  2  0  0  0  0
 26 34  1  0  0  0  0
 28 31  1  0  0  0  0
 28 32  1  0  0  0  0
 28 33  1  0  0  0  0
 34 35  1  0  0  0  0
 34 36  1  0  0  0  0
 35 37  1  0  0  0  0
 35 38  1  0  0  0  0
 35 39  1  0  0  0  0
M  END
$$$$

  -OEChem-02062319083D

 39 38  0     1  0  0  0  0  0999 V2000
   -2.2463   -4.4867   -0.7536 C   0  0  0  0  0  0  0  0  0  0  0  0
   -1.5940   -5.1293    0.0544 O   0  0  0  0  0  0  0  0  0  0  0  0
   -3.6285   -4.9606   -1.1613 C   0  0  0  0  0  0  0  0  0  0  0  0
   -3.6662   -5.1167   -2.2421 H   0  0  0  0  0  0  0  0  0  0  0  0
   -3.8664   -5.9032   -0.6604 H   0  0  0  0  0  0  0  0  0  0  0  0
   -4.3768   -4.2150   -0.8810 H   0  0  0  0  0  0  0  0  0  0  0  0
   -1.7415   -3.3139   -1.2766 N   0  0  0  0  0  0  0  0  0  0  0  0
   -0.5474   -2.6523   -0.7341 C   0  0  2  0  0  0  0  0  0  0  0  0
   -0.9227   -1.5856    0.3161 C   0  0  0  0  0  0  0  0  0  0  0  0
   -1.8878   -0.8598    0.1151 O   0  0  0  0  0  0  0  0  0  0  0  0
    0.2114   -2.0254   -1.9042 C   0  0  0  0  0  0  0  0  0  0  0  0
   -2.4136   -2.7198   -1.7567 H   0  0  0  0  0  0  0  0  0  0  0  0
    0.1107   -3.3863   -0.2576 H   0  0  0  0  0  0  0  0  0  0  0  0
   -0.3798   -1.2294   -2.3689 H   0  0  0  0  0  0  0  0  0  0  0  0
    1.1554   -1.6005   -1.5546 H   0  0  0  0  0  0  0  0  0  0  0  0
    0.4365   -2.7821   -2.6622 H   0  0  0  0  0  0  0  0  0  0  0  0
   -0.0454   -1.2596    1.3365 N   0  0  0  0  0  0  0  0  0  0  0  0
    0.0037    0.0806    1.9544 C   0  0  0  0  0  0  0  0  0  0  0  0
    0.3347    1.2354    0.9960 C   0  0  0  0  0  0  0  0  0  0  0  0
   -0.1910    2.3286    1.1485 O   0  0  0  0  0  0  0  0  0  0  0  0
    0.7621   -1.8679    1.4431 H   0  0  0  0  0  0  0  0  0  0  0  0
    0.7496    0.0823    2.7536 H   0  0  0  0  0  0  0  0  0  0  0  0
   -0.9664    0.2935    2.4162 H   0  0  0  0  0  0  0  0  0  0  0  0
    1.3604    1.1113    0.0779 N   0  0  0  0  0  0  0  0  0  0  0  0
    1.7307    2.1470   -0.8948 C   0  0  2  0  0  0  0  0  0  0  0  0
    2.3296    1.5309   -2.1758 C   0  0  0  0  0  0  0  0  0  0  0  0
    2.7387    0.3743   -2.1675 O   0  0  0  0  0  0  0  0  0  0  0  0
    2.7386    3.0963   -0.2387 C   0  0  0  0  0  0  0  0  0  0  0  0
    1.7428    0.1808   -0.0756 H   0  0  0  0  0  0  0  0  0  0  0  0
    0.8378    2.7111   -1.1862 H   0  0  0  0  0  0  0  0  0  0  0  0
    3.6388    2.5503    0.0618 H   0  0  0  0  0  0  0  0  0  0  0  0
    3.0273    3.8905   -0.9338 H   0  0  0  0  0  0  0  0  0  0  0  0
    2.3003    3.5612    0.6501 H   0  0  0  0  0  0  0  0  0  0  0  0
    2.4037    2.2672   -3.3435 N   0  0  0  0  0  0  0  0  0  0  0  0
    2.9453    1.7395   -4.5901 C   0  0  0  0  0  0  0  0  0  0  0  0
    2.0390    3.2155   -3.3267 H   0  0  0  0  0  0  0  0  0  0  0  0
    3.9930    1.4488   -4.4597 H   0  0  0  0  0  0  0  0  0  0  0  0
    2.3744    0.8638   -4.9167 H   0  0  0  0  0  0  0  0  0  0  0  0
    2.8930    2.4983   -5.3769 H   0  0  0  0  0  0  0  0  0  0  0  0
  1  2  2  0  0  0  0
  1  3  1  0  0  0  0
  1  7  1  0  0  0  0
  3  4  1  0  0  0  0
  3  5  1  0  0  0  0
  3  6  1  0  0  0  0
  7  8  1  0  0  0  0
  7 12  1  0  0  0  0
  8  9  1  0  0  0  0
  8 11  1  0  0  0  0
  8 13  1  0  0  0  0
  9 10  2  0  0  0  0
  9 17  1  0  0  0  0
 11 14  1  0  0  0  0
 11 15  1  0  0  0  0
 11 16  1  0  0  0  0
 17 18  1  0  0  0  0
 17 21  1  0  0  0  0
 18 19  1  0  0  0  0
 18 22  1  0  0  0  0
 18 23  1  0  0  0  0
 19 20  2  0  0  0  0
 19 24  1  0  0  0  0
 24 25  1  0  0  0  0
 24 29  1  0  0  0  0
 25 26  1  0  0  0  0
 25 28  1  0  0  0  0
 25 30  1  0  0  0  0
 26 27  2  0  0  0  0
 26 34  1  0  0  0  0
 28 31  1  0  0  0  0
 28 32  1  0  0  0  0
 28 33  1  0  0  0  0
 34 35  1  0  0  0  0
 34 36  1  0  0  0  0
 35 37  1  0  0  0  0
 35 38  1  0  0  0  0
 35 39  1  0  0  0  0
M  END
$$$$

  -OEChem-02062319083D

 39 38  0     1  0  0  0  0  0999 V2000
   -2.0754   -4.3314   -0.7559 C   0  0  0  0  0  0  0  0  0  0  0  0
   -1.3946   -4.8025    0.1425 O   0  0  0  0  0  0  0  0  0  0  0  0
   -3.3938   -4.9796   -1.1340 C   0  0  0  0  0  0  0  0  0  0  0  0
   -3.4086   -5.2006   -2.2040 H   0  0  0  0  0  0  0  0  0  0  0  0
   -3.5265   -5.9132   -0.5801 H   0  0  0  0  0  0  0  0  0  0  0  0
   -4.2225   -4.3079   -0.8960 H   0  0  0  0  0  0  0  0  0  0  0  0
   -1.6583   -3.1880   -1.4053 N   0  0  0  0  0  0  0  0  0  0  0  0
   -0.5188   -2.3896   -0.9374 C   0  0  2  0  0  0  0  0  0  0  0  0
   -0.9475   -1.3870    0.1545 C   0  0  0  0  0  0  0  0  0  0  0  0
   -1.8240   -0.5662   -0.0815 O   0  0  0  0  0  0  0  0  0  0  0  0
    0.0838   -1.6697   -2.1460 C   0  0  0  0  0  0  0  0  0  0  0  0
   -2.3523   -2.7189   -1.9817 H   0  0  0  0  0  0  0  0  0  0  0  0
    0.2533   -3.0453   -0.5213 H   0  0  0  0  0  0  0  0  0  0  0  0
   -0.6422   -0.9805   -2.5891 H   0  0  0  0  0  0  0  0  0  0  0  0
    0.9653   -1.0973   -1.8441 H   0  0  0  0  0  0  0  0  0  0  0  0
    0.3891   -2.3938   -2.9074 H   0  0  0  0  0  0  0  0  0  0  0  0
   -0.2457   -1.2999    1.3440 N   0  0  0  0  0  0  0  0  0  0  0  0
   -0.3734   -0.1830    2.3002 C   0  0  0  0  0  0  0  0  0  0  0  0
   -0.0054    1.1919    1.7238 C   0  0  0  0  0  0  0  0  0  0  0  0
   -0.6136    2.1931    2.0762 O   0  0  0  0  0  0  0  0  0  0  0  0
    0.4211   -2.0432    1.5382 H   0  0  0  0  0  0  0  0  0  0  0  0
    0.2688   -0.3693    3.1652 H   0  0  0  0  0  0  0  0  0  0  0  0
   -1.4064   -0.1368    2.6602 H   0  0  0  0  0  0  0  0  0  0  0  0
    1.1351    1.3304    0.9572 N   0  0  0  0  0  0  0  0  0  0  0  0
    1.4655    2.5489    0.2098 C   0  0  2  0  0  0  0  0  0  0  0  0
    2.0121    2.2097   -1.1916 C   0  0  0  0  0  0  0  0  0  0  0  0
    2.4343    1.0824   -1.4315 O   0  0  0  0  0  0  0  0  0  0  0  0
    2.4927    3.3447    1.0179 C   0  0  0  0  0  0  0  0  0  0  0  0
    1.5382    0.4661    0.5999 H   0  0  0  0  0  0  0  0  0  0  0  0
    0.5661    3.1584    0.0696 H   0  0  0  0  0  0  0  0  0  0  0  0
    3.4029    2.7551    1.1672 H   0  0  0  0  0  0  0  0  0  0  0  0
    2.7575    4.2708    0.4988 H   0  0  0  0  0  0  0  0  0  0  0  0
    2.0798    3.6036    1.9981 H   0  0  0  0  0  0  0  0  0  0  0  0
    2.0146    3.1636   -2.1920 N   0  0  0  0  0  0  0  0  0  0  0  0
    2.4619    2.8952   -3.5532 C   0  0  0  0  0  0  0  0  0  0  0  0
    1.6113    4.0710   -1.9760 H   0  0  0  0  0  0  0  0  0  0  0  0
    3.5107    2.5795   -3.5576 H   0  0  0  0  0  0  0  0  0  0  0  0
    1.8539    2.1059   -4.0080 H   0  0  0  0  0  0  0  0  0  0  0  0
    2.3705    3.7977   -4.1653 H   0  0  0  0  0  0  0  0  0  0  0  0
  1  2  2  0  0  0  0
  1  3  1  0  0  0  0
  1  7  1  0  0  0  0
  3  4  1  0  0  0  0
  3  5  1  0  0  0  0
  3  6  1  0  0  0  0
  7  8  1  0  0  0  0
  7 12  1  0  0  0  0
  8  9  1  0  0  0  0
  8 11  1  0  0  0  0
  8 13  1  0  0  0  0
  9 10  2  0  0  0  0
  9 17  1  0  0  0  0
 11 14  1  0  0  0  0
 11 15  1  0  0  0  0
 11 16  1  0  0  0  0
 17 18  1  0  0  0  0
 17 21  1  0  0  0  0
 18 19  1  0  0  0  0
 18 22  1  0  0  0  0
 18 23  1  0  0  0  0
 19 20  2  0  0  0  0
 19 24  1  0  0  0  0
 24 25  1  0  0  0  0
 24 29  1  0  0  0  0
 25 26  1  0  0  0  0
 25 28  1  0  0  0  0
 25 30  1  0  0  0  0
 26 27  2  0  0  0  0
 26 34  1  0  0  0  0
 28 31  1  0  0  0  0
 28 32  1  0  0  0  0
 28 33  1  0  0  0  0
 34 35  1  0  0  0  0
 34 36  1  0  0  0  0
 35 37  1  0  0  0  0
 35 38  1  0  0  0  0
 35 39  1  0  0  0  0
M  END
$$$$
