
  -OEChem-02062319033D

 39 38  0     1  0  0  0  0  0999 V2000
   -3.5200   -4.0268   -1.6943 C   0  0  0  0  0  0  0  0  0  0  0  0
   -2.8702   -4.8827   -1.1054 O   0  0  0  0  0  0  0  0  0  0  0  0
   -4.9704   -4.2579   -1.9614 C   0  0  0  0  0  0  0  0  0  0  0  0
   -5.1456   -4.7573   -2.9278 H   0  0  0  0  0  0  0  0  0  0  0  0
   -5.4379   -4.9112   -1.2072 H   0  0  0  0  0  0  0  0  0  0  0  0
   -5.5954   -3.3510   -1.9864 H   0  0  0  0  0  0  0  0  0  0  0  0
   -3.0424   -2.8131   -2.1606 N   0  0  0  0  0  0  0  0  0  0  0  0
   -1.6755   -2.3891   -2.0077 C   0  0  2  0  0  0  0  0  0  0  0  0
   -1.5782   -1.5673   -0.7292 C   0  0  0  0  0  0  0  0  0  0  0  0
   -2.5448   -1.0064   -0.2171 O   0  0  0  0  0  0  0  0  0  0  0  0
   -1.2087   -1.5823   -3.2094 C   0  0  0  0  0  0  0  0  0  0  0  0
   -3.6915   -2.1888   -2.6360 H   0  0  0  0  0  0  0  0  0  0  0  0
   -1.0721   -3.2977   -1.9053 H   0  0  0  0  0  0  0  0  0  0  0  0
   -1.8017   -0.6681   -3.3281 H   0  0  0  0  0  0  0  0  0  0  0  0
   -0.1601   -1.2849   -3.1045 H   0  0  0  0  0  0  0  0  0  0  0  0
   -1.3074   -2.1646   -4.1319 H   0  0  0  0  0  0  0  0  0  0  0  0
   -0.2835   -1.5112   -0.2725 N   0  0  0  0  0  0  0  0  0  0  0  0
    0.0749   -0.7760    0.9492 C   0  0  0  0  0  0  0  0  0  0  0  0
   -0.2900    0.6779    0.7899 C   0  0  0  0  0  0  0  0  0  0  0  0
   -0.8632    1.3299    1.6587 O   0  0  0  0  0  0  0  0  0  0  0  0
    0.4602   -2.0030   -0.7339 H   0  0  0  0  0  0  0  0  0  0  0  0
    1.1511   -0.8688    1.1228 H   0  0  0  0  0  0  0  0  0  0  0  0
   -0.4670   -1.2036    1.7978 H   0  0  0  0  0  0  0  0  0  0  0  0
    0.0997    1.1706   -0.4510 N   0  0  0  0  0  0  0  0  0  0  0  0
   -0.1264    2.5279   -0.8727 C   0  0  2  0  0  0  0  0  0  0  0  0
    1.2233    3.1454   -1.2141 C   0  0  0  0  0  0  0  0  0  0  0  0
    2.2872    2.7206   -0.7684 O   0  0  0  0  0  0  0  0  0  0  0  0
   -0.8346    3.3320    0.2064 C   0  0  0  0  0  0  0  0  0  0  0  0
    0.5701    0.5373   -1.0954 H   0  0  0  0  0  0  0  0  0  0  0  0
   -0.7454    2.4797   -1.7753 H   0  0  0  0  0  0  0  0  0  0  0  0
   -0.2296    3.3913    1.1185 H   0  0  0  0  0  0  0  0  0  0  0  0
   -1.0314    4.3563   -0.1268 H   0  0  0  0  0  0  0  0  0  0  0  0
   -1.7916    2.8699    0.4719 H   0  0  0  0  0  0  0  0  0  0  0  0
    1.0964    4.2531   -2.0406 N   0  0  0  0  0  0  0  0  0  0  0  0
    2.2322    5.0206   -2.4955 C   0  0  0  0  0  0  0  0  0  0  0  0
    0.1767    4.5227   -2.3772 H   0  0  0  0  0  0  0  0  0  0  0  0
    2.4125    5.8555   -1.8023 H   0  0  0  0  0  0  0  0  0  0  0  0
    3.1215    4.3741   -2.5298 H   0  0  0  0  0  0  0  0  0  0  0  0
    2.0278    5.4168   -3.5011 H   0  0  0  0  0  0  0  0  0  0  0  0
  1  3  1  0  0  0  0
  1  7  1  0  0  0  0
  1  2  2  0  0  0  0
 18 19  1  0  0  0  0
 19 24  1  0  0  0  0
 19 20  2  0  0  0  0
 25 26  1  0  0  0  0
 26 34  1  0  0  0  0
 26 27  2  0  0  0  0
  8  9  1  0  0  0  0
  9 17  1  0  0  0  0
  9 10  2  0  0  0  0
 25 28  1  0  0  0  0
  8 11  1  0  0  0  0
 34 35  1  0  0  0  0
 17 18  1  0  0  0  0
 24 25  1  0  0  0  0
  7  8  1  0  0  0  0
  3  4  1  0  0  0  0
  3  5  1  0  0  0  0
  3  6  1  0  0  0  0
 28 31  1  0  0  0  0
 28 32  1  0  0  0  0
 28 33  1  0  0  0  0
 11 14  1  0  0  0  0
 11 15  1  0  0  0  0
 11 16  1  0  0  0  0
 35 37  1  0  0  0  0
 35 38  1  0  0  0  0
 35 39  1  0  0  0  0
 18 22  1  0  0  0  0
 18 23  1  0  0  0  0
 25 30  1  0  0  0  0
  8 13  1  0  0  0  0
 34 36  1  0  0  0  0
 17 21  1  0  0  0  0
  7 12  1  0  0  0  0
 24 29  1  0  0  0  0
M  END
$$$$

  -OEChem-02062319033D

 39 38  0     1  0  0  0  0  0999 V2000
   -3.5200   -4.0268   -1.6943 C   0  0  0  0  0  0  0  0  0  0  0  0
   -2.8702   -4.8827   -1.1054 O   0  0  0  0  0  0  0  0  0  0  0  0
   -4.9704   -4.2579   -1.9614 C   0  0  0  0  0  0  0  0  0  0  0  0
   -5.1456   -4.7573   -2.9278 H   0  0  0  0  0  0  0  0  0  0  0  0
   -5.4379   -4.9112   -1.2072 H   0  0  0  0  0  0  0  0  0  0  0  0
   -5.5954   -3.3510   -1.9864 H   0  0  0  0  0  0  0  0  0  0  0  0
   -3.0424   -2.8131   -2.1606 N   0  0  0  0  0  0  0  0  0  0  0  0
   -1.6755   -2.3891   -2.0077 C   0  0  2  0  0  0  0  0  0  0  0  0
   -1.5782   -1.5673   -0.7292 C   0  0  0  0  0  0  0  0  0  0  0  0
   -2.5448   -1.0064   -0.2171 O   0  0  0  0  0  0  0  0  0  0  0  0
   -1.2087   -1.5823   -3.2094 C   0  0  0  0  0  0  0  0  0  0  0  0
   -3.6915   -2.1888   -2.6360 H   0  0  0  0  0  0  0  0  0  0  0  0
   -1.0721   -3.2977   -1.9053 H   0  0  0  0  0  0  0  0  0  0  0  0
   -1.8017   -0.6681   -3.3281 H   0  0  0  0  0  0  0  0  0  0  0  0
   -0.1601   -1.2849   -3.1045 H   0  0  0  0  0  0  0  0  0  0  0  0
   -1.3074   -2.1646   -4.1319 H   0  0  0  0  0  0  0  0  0  0  0  0
   -0.2835   -1.5112   -0.2725 N   0  0  0  0  0  0  0  0  0  0  0  0
    0.0372   -1.0670    1.0919 C   0  0  0  0  0  0  0  0  0  0  0  0
   -0.4529    0.3442    1.2926 C   0  0  0  0  0  0  0  0  0  0  0  0
   -1.0607    0.7125    2.2942 O   0  0  0  0  0  0  0  0  0  0  0  0
    0.4892   -1.8090   -0.8400 H   0  0  0  0  0  0  0  0  0  0  0  0
    1.1208   -1.1050    1.2376 H   0  0  0  0  0  0  0  0  0  0  0  0
   -0.4484   -1.7340    1.8102 H   0  0  0  0  0  0  0  0  0  0  0  0
   -0.1328    1.1563    0.2098 N   0  0  0  0  0  0  0  0  0  0  0  0
   -0.4820    2.5504    0.1324 C   0  0  2  0  0  0  0  0  0  0  0  0
    0.8030    3.3478   -0.0476 C   0  0  0  0  0  0  0  0  0  0  0  0
    1.9083    2.9219    0.2809 O   0  0  0  0  0  0  0  0  0  0  0  0
   -1.2327    3.0026    1.3752 C   0  0  0  0  0  0  0  0  0  0  0  0
    0.3758    0.7425   -0.5698 H   0  0  0  0  0  0  0  0  0  0  0  0
   -1.1137    2.6694   -0.7547 H   0  0  0  0  0  0  0  0  0  0  0  0
   -0.6157    2.8907    2.2742 H   0  0  0  0  0  0  0  0  0  0  0  0
   -1.5226    4.0560    1.3023 H   0  0  0  0  0  0  0  0  0  0  0  0
   -2.1413    2.4080    1.5196 H   0  0  0  0  0  0  0  0  0  0  0  0
    0.5652    4.6079   -0.5785 N   0  0  0  0  0  0  0  0  0  0  0  0
    1.6219    5.5593   -0.8318 C   0  0  0  0  0  0  0  0  0  0  0  0
   -0.3809    4.8699   -0.8391 H   0  0  0  0  0  0  0  0  0  0  0  0
    1.7455    6.2127    0.0443 H   0  0  0  0  0  0  0  0  0  0  0  0
    2.5619    5.0208   -1.0230 H   0  0  0  0  0  0  0  0  0  0  0  0
    1.3635    6.1689   -1.7102 H   0  0  0  0  0  0  0  0  0  0  0  0
  1  3  1  0  0  0  0
  1  7  1  0  0  0  0
  1  2  2  0  0  0  0
 18 19  1  0  0  0  0
 19 24  1  0  0  0  0
 19 20  2  0  0  0  0
 25 26  1  0  0  0  0
 26 34  1  0  0  0  0
 26 27  2  0  0  0  0
  8  9  1  0  0  0  0
  9 17  1  0  0  0  0
  9 10  2  0  0  0  0
 25 28  1  0  0  0  0
  8 11  1  0  0  0  0
 34 35  1  0  0  0  0
 17 18  1  0  0  0  0
 24 25  1  0  0  0  0
  7  8  1  0  0  0  0
  3  4  1  0  0  0  0
  3  5  1  0  0  0  0
  3  6  1  0  0  0  0
 28 31  1  0  0  0  0
 28 32  1  0  0  0  0
 28 33  1  0  0  0  0
 11 14  1  0  0  0  0
 11 15  1  0  0  0  0
 11 16  1  0  0  0  0
 35 37  1  0  0  0  0
 35 38  1  0  0  0  0
 35 39  1  0  0  0  0
 18 22  1  0  0  0  0
 18 23  1  0  0  0  0
 25 30  1  0  0  0  0
  8 13  1  0  0  0  0
 34 36  1  0  0  0  0
 17 21  1  0  0  0  0
  7 12  1  0  0  0  0
 24 29  1  0  0  0  0
M  END
$$$$

  -OEChem-02062319033D

 39 38  0     1  0  0  0  0  0999 V2000
   -3.5200   -4.0268   -1.6943 C   0  0  0  0  0  0  0  0  0  0  0  0
   -2.8702   -4.8827   -1.1054 O   0  0  0  0  0  0  0  0  0  0  0  0
   -4.9704   -4.2579   -1.9614 C   0  0  0  0  0  0  0  0  0  0  0  0
   -5.1456   -4.7573   -2.9278 H   0  0  0  0  0  0  0  0  0  0  0  0
   -5.4379   -4.9112   -1.2072 H   0  0  0  0  0  0  0  0  0  0  0  0
   -5.5954   -3.3510   -1.9864 H   0  0  0  0  0  0  0  0  0  0  0  0
   -3.0424   -2.8131   -2.1606 N   0  0  0  0  0  0  0  0  0  0  0  0
   -1.6755   -2.3891   -2.0077 C   0  0  2  0  0  0  0  0  0  0  0  0
   -1.5782   -1.5673   -0.7292 C   0  0  0  0  0  0  0  0  0  0  0  0
   -2.5448   -1.0064   -0.2171 O   0  0  0  0  0  0  0  0  0  0  0  0
   -1.2087   -1.5823   -3.2094 C   0  0  0  0  0  0  0  0  0  0  0  0
   -3.6915   -2.1888   -2.6360 H   0  0  0  0  0  0  0  0  0  0  0  0
   -1.0721   -3.2977   -1.9053 H   0  0  0  0  0  0  0  0  0  0  0  0
   -1.8017   -0.6681   -3.3281 H   0  0  0  0  0  0  0  0  0  0  0  0
   -0.1601   -1.2849   -3.1045 H   0  0  0  0  0  0  0  0  0  0  0  0
   -1.3074   -2.1646   -4.1319 H   0  0  0  0  0  0  0  0  0  0  0  0
   -0.2835   -1.5112   -0.2725 N   0  0  0  0  0  0  0  0  0  0  0  0
    0.0273   -1.3862    1.1591 C   0  0  0  0  0  0  0  0  0  0  0  0
   -0.5763   -0.1146    1.6985 C   0  0  0  0  0  0  0  0  0  0  0  0
   -1.1916   -0.0558    2.7597 O   0  0  0  0  0  0  0  0  0  0  0  0
    0.4994   -1.5933   -0.8954 H   0  0  0  0  0  0  0  0  0  0  0  0
    1.1131   -1.3637    1.2912 H   0  0  0  0  0  0  0  0  0  0  0  0
   -0.3847   -2.2477    1.6926 H   0  0  0  0  0  0  0  0  0  0  0  0
   -0.3491    0.9614    0.8469 N   0  0  0  0  0  0  0  0  0  0  0  0
   -0.8168    2.2963    1.1125 C   0  0  2  0  0  0  0  0  0  0  0  0
    0.3919    3.2227    1.1329 C   0  0  0  0  0  0  0  0  0  0  0  0
    1.5361    2.8279    1.3476 O   0  0  0  0  0  0  0  0  0  0  0  0
   -1.5766    2.3650    2.4280 C   0  0  0  0  0  0  0  0  0  0  0  0
    0.1760    0.7958   -0.0101 H   0  0  0  0  0  0  0  0  0  0  0  0
   -1.4749    2.5721    0.2813 H   0  0  0  0  0  0  0  0  0  0  0  0
   -0.9333    2.0920    3.2725 H   0  0  0  0  0  0  0  0  0  0  0  0
   -1.9562    3.3750    2.6147 H   0  0  0  0  0  0  0  0  0  0  0  0
   -2.4282    1.6762    2.4227 H   0  0  0  0  0  0  0  0  0  0  0  0
    0.0370    4.5484    0.9260 N   0  0  0  0  0  0  0  0  0  0  0  0
    1.0037    5.6213    0.9129 C   0  0  0  0  0  0  0  0  0  0  0  0
   -0.9333    4.7823    0.7372 H   0  0  0  0  0  0  0  0  0  0  0  0
    1.0901    6.0501    1.9222 H   0  0  0  0  0  0  0  0  0  0  0  0
    1.9816    5.2298    0.5961 H   0  0  0  0  0  0  0  0  0  0  0  0
    0.6759    6.4015    0.2100 H   0  0  0  0  0  0  0  0  0  0  0  0
  1  3  1  0  0  0  0
  1  7  1  0  0  0  0
  1  2  2  0  0  0  0
 18 19  1  0  0  0  0
 19 24  1  0  0  0  0
 19 20  2  0  0  0  0
 25 26  1  0  0  0  0
 26 34  1  0  0  0  0
 26 27  2  0  0  0  0
  8  9  1  0  0  0  0
  9 17  1  0  0  0  0
  9 10  2  0  0  0  0
 25 28  1  0  0  0  0
  8 11  1  0  0  0  0
 34 35  1  0  0  0  0
 17 18  1  0  0  0  0
 24 25  1  0  0  0  0
  7  8  1  0  0  0  0
  3  4  1  0  0  0  0
  3  5  1  0  0  0  0
  3  6  1  0  0  0  0
 28 31  1  0  0  0  0
 28 32  1  0  0  0  0
 28 33  1  0  0  0  0
 11 14  1  0  0  0  0
 11 15  1  0  0  0  0
 11 16  1  0  0  0  0
 35 37  1  0  0  0  0
 35 38  1  0  0  0  0
 35 39  1  0  0  0  0
 18 22  1  0  0  0  0
 18 23  1  0  0  0  0
 25 30  1  0  0  0  0
  8 13  1  0  0  0  0
 34 36  1  0  0  0  0
 17 21  1  0  0  0  0
  7 12  1  0  0  0  0
 24 29  1  0  0  0  0
M  END
$$$$

  -OEChem-02062319033D

 39 38  0     1  0  0  0  0  0999 V2000
   -3.5200   -4.0268   -1.6943 C   0  0  0  0  0  0  0  0  0  0  0  0
   -2.8702   -4.8827   -1.1054 O   0  0  0  0  0  0  0  0  0  0  0  0
   -4.9704   -4.2579   -1.9614 C   0  0  0  0  0  0  0  0  0  0  0  0
   -5.1456   -4.7573   -2.9278 H   0  0  0  0  0  0  0  0  0  0  0  0
   -5.4379   -4.9112   -1.2072 H   0  0  0  0  0  0  0  0  0  0  0  0
   -5.5954   -3.3510   -1.9864 H   0  0  0  0  0  0  0  0  0  0  0  0
   -3.0424   -2.8131   -2.1606 N   0  0  0  0  0  0  0  0  0  0  0  0
   -1.6755   -2.3891   -2.0077 C   0  0  2  0  0  0  0  0  0  0  0  0
   -1.5782   -1.5673   -0.7292 C   0  0  0  0  0  0  0  0  0  0  0  0
   -2.5448   -1.0064   -0.2171 O   0  0  0  0  0  0  0  0  0  0  0  0
   -1.2087   -1.5823   -3.2094 C   0  0  0  0  0  0  0  0  0  0  0  0
   -3.6915   -2.1888   -2.6360 H   0  0  0  0  0  0  0  0  0  0  0  0
   -1.0721   -3.2977   -1.9053 H   0  0  0  0  0  0  0  0  0  0  0  0
   -1.8017   -0.6681   -3.3281 H   0  0  0  0  0  0  0  0  0  0  0  0
   -0.1601   -1.2849   -3.1045 H   0  0  0  0  0  0  0  0  0  0  0  0
   -1.3074   -2.1646   -4.1319 H   0  0  0  0  0  0  0  0  0  0  0  0
   -0.2835   -1.5112   -0.2725 N   0  0  0  0  0  0  0  0  0  0  0  0
    0.0459   -1.7118    1.1463 C   0  0  0  0  0  0  0  0  0  0  0  0
   -0.6516   -0.6674    1.9799 C   0  0  0  0  0  0  0  0  0  0  0  0
   -1.2471   -0.9226    3.0233 O   0  0  0  0  0  0  0  0  0  0  0  0
    0.4901   -1.3704   -0.8965 H   0  0  0  0  0  0  0  0  0  0  0  0
    1.1284   -1.6273    1.2801 H   0  0  0  0  0  0  0  0  0  0  0  0
   -0.2802   -2.7099    1.4531 H   0  0  0  0  0  0  0  0  0  0  0  0
   -0.5346    0.5990    1.4171 N   0  0  0  0  0  0  0  0  0  0  0  0
   -1.1079    1.7831    2.0007 C   0  0  2  0  0  0  0  0  0  0  0  0
    0.0181    2.7786    2.2470 C   0  0  0  0  0  0  0  0  0  0  0  0
    1.1959    2.4449    2.3589 O   0  0  0  0  0  0  0  0  0  0  0  0
   -1.8427    1.4629    3.2931 C   0  0  0  0  0  0  0  0  0  0  0  0
   -0.0156    0.6936    0.5457 H   0  0  0  0  0  0  0  0  0  0  0  0
   -1.8046    2.1943    1.2621 H   0  0  0  0  0  0  0  0  0  0  0  0
   -1.1609    1.0498    4.0454 H   0  0  0  0  0  0  0  0  0  0  0  0
   -2.3025    2.3599    3.7209 H   0  0  0  0  0  0  0  0  0  0  0  0
   -2.6328    0.7244    3.1195 H   0  0  0  0  0  0  0  0  0  0  0  0
   -0.4522    4.0785    2.3703 N   0  0  0  0  0  0  0  0  0  0  0  0
    0.4196    5.2026    2.6198 C   0  0  0  0  0  0  0  0  0  0  0  0
   -1.4426    4.2656    2.2443 H   0  0  0  0  0  0  0  0  0  0  0  0
    0.4908    5.3787    3.7033 H   0  0  0  0  0  0  0  0  0  0  0  0
    1.4203    4.9869    2.2171 H   0  0  0  0  0  0  0  0  0  0  0  0
    0.0121    6.0986    2.1289 H   0  0  0  0  0  0  0  0  0  0  0  0
  1  3  1  0  0  0  0
  1  7  1  0  0  0  0
  1  2  2  0  0  0  0
 18 19  1  0  0  0  0
 19 24  1  0  0  0  0
 19 20  2  0  0  0  0
 25 26  1  0  0  0  0
 26 34  1  0  0  0  0
 26 27  2  0  0  0  0
  8  9  1  0  0  0  0
  9 17  1  0  0  0  0
  9 10  2  0  0  0  0
 25 28  1  0  0  0  0
  8 11  1  0  0  0  0
 34 35  1  0  0  0  0
 17 18  1  0  0  0  0
 24 25  1  0  0  0  0
  7  8  1  0  0  0  0
  3  4  1  0  0  0  0
  3  5  1  0  0  0  0
  3  6  1  0  0  0  0
 28 31  1  0  0  0  0
 28 32  1  0  0  0  0
 28 33  1  0  0  0  0
 11 14  1  0  0  0  0
 11 15  1  0  0  0  0
 11 16  1  0  0  0  0
 35 37  1  0  0  0  0
 35 38  1  0  0  0  0
 35 39  1  0  0  0  0
 18 22  1  0  0  0  0
 18 23  1  0  0  0  0
 25 30  1  0  0  0  0
  8 13  1  0  0  0  0
 34 36  1  0  0  0  0
 17 21  1  0  0  0  0
  7 12  1  0  0  0  0
 24 29  1  0  0  0  0
M  END
$$$$

  -OEChem-02062319033D

 39 38  0     1  0  0  0  0  0999 V2000
   -3.5200   -4.0268   -1.6943 C   0  0  0  0  0  0  0  0  0  0  0  0
   -2.8702   -4.8827   -1.1054 O   0  0  0  0  0  0  0  0  0  0  0  0
   -4.9704   -4.2579   -1.9614 C   0  0  0  0  0  0  0  0  0  0  0  0
   -5.1456   -4.7573   -2.9278 H   0  0  0  0  0  0  0  0  0  0  0  0
   -5.4379   -4.9112   -1.2072 H   0  0  0  0  0  0  0  0  0  0  0  0
   -5.5954   -3.3510   -1.9864 H   0  0  0  0  0  0  0  0  0  0  0  0
   -3.0424   -2.8131   -2.1606 N   0  0  0  0  0  0  0  0  0  0  0  0
   -1.6755   -2.3891   -2.0077 C   0  0  2  0  0  0  0  0  0  0  0  0
   -1.5782   -1.5673   -0.7292 C   0  0  0  0  0  0  0  0  0  0  0  0
   -2.5448   -1.0064   -0.2171 O   0  0  0  0  0  0  0  0  0  0  0  0
   -1.2087   -1.5823   -3.2094 C   0  0  0  0  0  0  0  0  0  0  0  0
   -3.6915   -2.1888   -2.6360 H   0  0  0  0  0  0  0  0  0  0  0  0
   -1.0721   -3.2977   -1.9053 H   0  0  0  0  0  0  0  0  0  0  0  0
   -1.8017   -0.6681   -3.3281 H   0  0  0  0  0  0  0  0  0  0  0  0
   -0.1601   -1.2849   -3.1045 H   0  0  0  0  0  0  0  0  0  0  0  0
   -1.3074   -2.1646   -4.1319 H   0  0  0  0  0  0  0  0  0  0  0  0
   -0.2835   -1.5112   -0.2725 N   0  0  0  0  0  0  0  0  0  0  0  0
    0.0918   -2.0215    1.0543 C   0  0  0  0  0  0  0  0  0  0  0  0
   -0.6739   -1.2765    2.1178 C   0  0  0  0  0  0  0  0  0  0  0  0
   -1.2233   -1.8291    3.0671 O   0  0  0  0  0  0  0  0  0  0  0  0
    0.4620   -1.1557   -0.8431 H   0  0  0  0  0  0  0  0  0  0  0  0
    1.1658   -1.8779    1.2048 H   0  0  0  0  0  0  0  0  0  0  0  0
   -0.1420   -3.0888    1.1079 H   0  0  0  0  0  0  0  0  0  0  0  0
   -0.6766    0.0941    1.8815 N   0  0  0  0  0  0  0  0  0  0  0  0
   -1.3356    1.0457    2.7367 C   0  0  2  0  0  0  0  0  0  0  0  0
   -0.2930    2.0457    3.2189 C   0  0  0  0  0  0  0  0  0  0  0  0
    0.9109    1.7990    3.2459 O   0  0  0  0  0  0  0  0  0  0  0  0
   -2.0130    0.3576    3.9116 C   0  0  0  0  0  0  0  0  0  0  0  0
   -0.1861    0.4428    1.0596 H   0  0  0  0  0  0  0  0  0  0  0  0
   -2.0802    1.5619    2.1208 H   0  0  0  0  0  0  0  0  0  0  0  0
   -1.2828   -0.1649    4.5402 H   0  0  0  0  0  0  0  0  0  0  0  0
   -2.5380    1.0799    4.5455 H   0  0  0  0  0  0  0  0  0  0  0  0
   -2.7413   -0.3825    3.5627 H   0  0  0  0  0  0  0  0  0  0  0  0
   -0.8690    3.2304    3.6559 N   0  0  0  0  0  0  0  0  0  0  0  0
   -0.0905    4.3316    4.1727 C   0  0  0  0  0  0  0  0  0  0  0  0
   -1.8742    3.3553    3.5793 H   0  0  0  0  0  0  0  0  0  0  0  0
   -0.0115    4.2442    5.2663 H   0  0  0  0  0  0  0  0  0  0  0  0
    0.9160    4.3087    3.7295 H   0  0  0  0  0  0  0  0  0  0  0  0
   -0.5828    5.2811    3.9155 H   0  0  0  0  0  0  0  0  0  0  0  0
  1  3  1  0  0  0  0
  1  7  1  0  0  0  0
  1  2  2  0  0  0  0
 18 19  1  0  0  0  0
 19 24  1  0  0  0  0
 19 20  2  0  0  0  0
 25 26  1  0  0  0  0
 26 34  1  0  0  0  0
 26 27  2  0  0  0  0
  8  9  1  0  0  0  0
  9 17  1  0  0  0  0
  9 10  2  0  0  0  0
 25 28  1  0  0  0  0
  8 11  1  0  0  0  0
 34 35  1  0  0  0  0
 17 18  1  0  0  0  0
 24 25  1  0  0  0  0
  7  8  1  0  0  0  0
  3  4  1  0  0  0  0
  3  5  1  0  0  0  0
  3  6  1  0  0  0  0
 28 31  1  0  0  0  0
 28 32  1  0  0  0  0
 28 33  1  0  0  0  0
 11 14  1  0  0  0  0
 11 15  1  0  0  0  0
 11 16  1  0  0  0  0
 35 37  1  0  0  0  0
 35 38  1  0  0  0  0
 35 39  1  0  0  0  0
 18 22  1  0  0  0  0
 18 23  1  0  0  0  0
 25 30  1  0  0  0  0
  8 13  1  0  0  0  0
 34 36  1  0  0  0  0
 17 21  1  0  0  0  0
  7 12  1  0  0  0  0
 24 29  1  0  0  0  0
M  END
$$$$

  -OEChem-02062319033D

 39 38  0     1  0  0  0  0  0999 V2000
   -3.5200   -4.0268   -1.6943 C   0  0  0  0  0  0  0  0  0  0  0  0
   -2.8702   -4.8827   -1.1054 O   0  0  0  0  0  0  0  0  0  0  0  0
   -4.9704   -4.2579   -1.9614 C   0  0  0  0  0  0  0  0  0  0  0  0
   -5.1456   -4.7573   -2.9278 H   0  0  0  0  0  0  0  0  0  0  0  0
   -5.4379   -4.9112   -1.2072 H   0  0  0  0  0  0  0  0  0  0  0  0
   -5.5954   -3.3510   -1.9864 H   0  0  0  0  0  0  0  0  0  0  0  0
   -3.0424   -2.8131   -2.1606 N   0  0  0  0  0  0  0  0  0  0  0  0
   -1.6755   -2.3891   -2.0077 C   0  0  2  0  0  0  0  0  0  0  0  0
   -1.5782   -1.5673   -0.7292 C   0  0  0  0  0  0  0  0  0  0  0  0
   -2.5448   -1.0064   -0.2171 O   0  0  0  0  0  0  0  0  0  0  0  0
   -1.2087   -1.5823   -3.2094 C   0  0  0  0  0  0  0  0  0  0  0  0
   -3.6915   -2.1888   -2.6360 H   0  0  0  0  0  0  0  0  0  0  0  0
   -1.0721   -3.2977   -1.9053 H   0  0  0  0  0  0  0  0  0  0  0  0
   -1.8017   -0.6681   -3.3281 H   0  0  0  0  0  0  0  0  0  0  0  0
   -0.1601   -1.2849   -3.1045 H   0  0  0  0  0  0  0  0  0  0  0  0
   -1.3074   -2.1646   -4.1319 H   0  0  0  0  0  0  0  0  0  0  0  0
   -0.2835   -1.5112   -0.2725 N   0  0  0  0  0  0  0  0  0  0  0  0
    0.1617   -2.2943    0.8895 C   0  0  0  0  0  0  0  0  0  0  0  0
   -0.6415   -1.9004    2.1026 C   0  0  0  0  0  0  0  0  0  0  0  0
   -1.1219   -2.7132    2.8881 O   0  0  0  0  0  0  0  0  0  0  0  0
    0.4169   -0.9638   -0.7389 H   0  0  0  0  0  0  0  0  0  0  0  0
    1.2227   -2.0984    1.0706 H   0  0  0  0  0  0  0  0  0  0  0  0
    0.0204   -3.3588    0.6807 H   0  0  0  0  0  0  0  0  0  0  0  0
   -0.7653   -0.5192    2.2084 N   0  0  0  0  0  0  0  0  0  0  0  0
   -1.4844    0.1344    3.2701 C   0  0  2  0  0  0  0  0  0  0  0  0
   -0.5202    1.0741    3.9821 C   0  0  0  0  0  0  0  0  0  0  0  0
    0.7006    0.9344    3.9482 O   0  0  0  0  0  0  0  0  0  0  0  0
   -2.0759   -0.8754    4.2412 C   0  0  0  0  0  0  0  0  0  0  0  0
   -0.3237    0.0606    1.4967 H   0  0  0  0  0  0  0  0  0  0  0  0
   -2.2829    0.7179    2.7989 H   0  0  0  0  0  0  0  0  0  0  0  0
   -1.2909   -1.4695    4.7231 H   0  0  0  0  0  0  0  0  0  0  0  0
   -2.6466   -0.3779    5.0323 H   0  0  0  0  0  0  0  0  0  0  0  0
   -2.7461   -1.5691    3.7220 H   0  0  0  0  0  0  0  0  0  0  0  0
   -1.1851    2.0617    4.6953 N   0  0  0  0  0  0  0  0  0  0  0  0
   -0.4919    3.0678    5.4656 C   0  0  0  0  0  0  0  0  0  0  0  0
   -2.1986    2.1133    4.6515 H   0  0  0  0  0  0  0  0  0  0  0  0
   -0.3826    2.7240    6.5047 H   0  0  0  0  0  0  0  0  0  0  0  0
    0.5033    3.2414    5.0304 H   0  0  0  0  0  0  0  0  0  0  0  0
   -1.0683    4.0045    5.4481 H   0  0  0  0  0  0  0  0  0  0  0  0
  1  3  1  0  0  0  0
  1  7  1  0  0  0  0
  1  2  2  0  0  0  0
 18 19  1  0  0  0  0
 19 24  1  0  0  0  0
 19 20  2  0  0  0  0
 25 26  1  0  0  0  0
 26 34  1  0  0  0  0
 26 27  2  0  0  0  0
  8  9  1  0  0  0  0
  9 17  1  0  0  0  0
  9 10  2  0  0  0  0
 25 28  1  0  0  0  0
  8 11  1  0  0  0  0
 34 35  1  0  0  0  0
 17 18  1  0  0  0  0
 24 25  1  0  0  0  0
  7  8  1  0  0  0  0
  3  4  1  0  0  0  0
  3  5  1  0  0  0  0
  3  6  1  0  0  0  0
 28 31  1  0  0  0  0
 28 32  1  0  0  0  0
 28 33  1  0  0  0  0
 11 14  1  0  0  0  0
 11 15  1  0  0  0  0
 11 16  1  0  0  0  0
 35 37  1  0  0  0  0
 35 38  1  0  0  0  0
 35 39  1  0  0  0  0
 18 22  1  0  0  0  0
 18 23  1  0  0  0  0
 25 30  1  0  0  0  0
  8 13  1  0  0  0  0
 34 36  1  0  0  0  0
 17 21  1  0  0  0  0
  7 12  1  0  0  0  0
 24 29  1  0  0  0  0
M  END
$$$$

  -OEChem-02062319033D

 39 38  0     1  0  0  0  0  0999 V2000
   -3.5200   -4.0268   -1.6943 C   0  0  0  0  0  0  0  0  0  0  0  0
   -2.8702   -4.8827   -1.1054 O   0  0  0  0  0  0  0  0  0  0  0  0
   -4.9704   -4.2579   -1.9614 C   0  0  0  0  0  0  0  0  0  0  0  0
   -5.1456   -4.7573   -2.9278 H   0  0  0  0  0  0  0  0  0  0  0  0
   -5.4379   -4.9112   -1.2072 H   0  0  0  0  0  0  0  0  0  0  0  0
   -5.5954   -3.3510   -1.9864 H   0  0  0  0  0  0  0  0  0  0  0  0
   -3.0424   -2.8131   -2.1606 N   0  0  0  0  0  0  0  0  0  0  0  0
   -1.6755   -2.3891   -2.0077 C   0  0  2  0  0  0  0  0  0  0  0  0
   -1.5782   -1.5673   -0.7292 C   0  0  0  0  0  0  0  0  0  0  0  0
   -2.5448   -1.0064   -0.2171 O   0  0  0  0  0  0  0  0  0  0  0  0
   -1.2087   -1.5823   -3.2094 C   0  0  0  0  0  0  0  0  0  0  0  0
   -3.6915   -2.1888   -2.6360 H   0  0  0  0  0  0  0  0  0  0  0  0
   -1.0721   -3.2977   -1.9053 H   0  0  0  0  0  0  0  0  0  0  0  0
   -1.8017   -0.6681   -3.3281 H   0  0  0  0  0  0  0  0  0  0  0  0
   -0.1601   -1.2849   -3.1045 H   0  0  0  0  0  0  0  0  0  0  0  0
   -1.3074   -2.1646   -4.1319 H   0  0  0  0  0  0  0  0  0  0  0  0
   -0.2835   -1.5112   -0.2725 N   0  0  0  0  0  0  0  0  0  0  0  0
    0.2511   -2.5116    0.6630 C   0  0  0  0  0  0  0  0  0  0  0  0
   -0.5568   -2.4966    1.9355 C   0  0  0  0  0  0  0  0  0  0  0  0
   -0.9497   -3.5149    2.4986 O   0  0  0  0  0  0  0  0  0  0  0  0
    0.3580   -0.8077   -0.5909 H   0  0  0  0  0  0  0  0  0  0  0  0
    1.2952   -2.2738    0.8866 H   0  0  0  0  0  0  0  0  0  0  0  0
    0.1960   -3.5014    0.2004 H   0  0  0  0  0  0  0  0  0  0  0  0
   -0.7949   -1.1988    2.3755 N   0  0  0  0  0  0  0  0  0  0  0  0
   -1.5440   -0.8888    3.5647 C   0  0  2  0  0  0  0  0  0  0  0  0
   -0.6481   -0.0701    4.4848 C   0  0  0  0  0  0  0  0  0  0  0  0
    0.5792   -0.0902    4.4179 O   0  0  0  0  0  0  0  0  0  0  0  0
   -2.0271   -2.1523    4.2595 C   0  0  0  0  0  0  0  0  0  0  0  0
   -0.4192   -0.4270    1.8271 H   0  0  0  0  0  0  0  0  0  0  0  0
   -2.3989   -0.2802    3.2502 H   0  0  0  0  0  0  0  0  0  0  0  0
   -1.1845   -2.7749    4.5818 H   0  0  0  0  0  0  0  0  0  0  0  0
   -2.6209   -1.9141    5.1482 H   0  0  0  0  0  0  0  0  0  0  0  0
   -2.6469   -2.7545    3.5865 H   0  0  0  0  0  0  0  0  0  0  0  0
   -1.3789    0.6522    5.4176 N   0  0  0  0  0  0  0  0  0  0  0  0
   -0.7572    1.4971    6.4104 C   0  0  0  0  0  0  0  0  0  0  0  0
   -2.3939    0.6242    5.3876 H   0  0  0  0  0  0  0  0  0  0  0  0
   -0.5972    0.9216    7.3341 H   0  0  0  0  0  0  0  0  0  0  0  0
    0.2102    1.8577    6.0310 H   0  0  0  0  0  0  0  0  0  0  0  0
   -1.4111    2.3559    6.6223 H   0  0  0  0  0  0  0  0  0  0  0  0
  1  3  1  0  0  0  0
  1  7  1  0  0  0  0
  1  2  2  0  0  0  0
 18 19  1  0  0  0  0
 19 24  1  0  0  0  0
 19 20  2  0  0  0  0
 25 26  1  0  0  0  0
 26 34  1  0  0  0  0
 26 27  2  0  0  0  0
  8  9  1  0  0  0  0
  9 17  1  0  0  0  0
  9 10  2  0  0  0  0
 25 28  1  0  0  0  0
  8 11  1  0  0  0  0
 34 35  1  0  0  0  0
 17 18  1  0  0  0  0
 24 25  1  0  0  0  0
  7  8  1  0  0  0  0
  3  4  1  0  0  0  0
  3  5  1  0  0  0  0
  3  6  1  0  0  0  0
 28 31  1  0  0  0  0
 28 32  1  0  0  0  0
 28 33  1  0  0  0  0
 11 14  1  0  0  0  0
 11 15  1  0  0  0  0
 11 16  1  0  0  0  0
 35 37  1  0  0  0  0
 35 38  1  0  0  0  0
 35 39  1  0  0  0  0
 18 22  1  0  0  0  0
 18 23  1  0  0  0  0
 25 30  1  0  0  0  0
  8 13  1  0  0  0  0
 34 36  1  0  0  0  0
 17 21  1  0  0  0  0
  7 12  1  0  0  0  0
 24 29  1  0  0  0  0
M  END
$$$$

  -OEChem-02062319033D

 39 38  0     1  0  0  0  0  0999 V2000
   -3.5200   -4.0268   -1.6943 C   0  0  0  0  0  0  0  0  0  0  0  0
   -2.8702   -4.8827   -1.1054 O   0  0  0  0  0  0  0  0  0  0  0  0
   -4.9704   -4.2579   -1.9614 C   0  0  0  0  0  0  0  0  0  0  0  0
   -5.1456   -4.7573   -2.9278 H   0  0  0  0  0  0  0  0  0  0  0  0
   -5.4379   -4.9112   -1.2072 H   0  0  0  0  0  0  0  0  0  0  0  0
   -5.5954   -3.3510   -1.9864 H   0  0  0  0  0  0  0  0  0  0  0  0
   -3.0424   -2.8131   -2.1606 N   0  0  0  0  0  0  0  0  0  0  0  0
   -1.6755   -2.3891   -2.0077 C   0  0  2  0  0  0  0  0  0  0  0  0
   -1.5782   -1.5673   -0.7292 C   0  0  0  0  0  0  0  0  0  0  0  0
   -2.5448   -1.0064   -0.2171 O   0  0  0  0  0  0  0  0  0  0  0  0
   -1.2087   -1.5823   -3.2094 C   0  0  0  0  0  0  0  0  0  0  0  0
   -3.6915   -2.1888   -2.6360 H   0  0  0  0  0  0  0  0  0  0  0  0
   -1.0721   -3.2977   -1.9053 H   0  0  0  0  0  0  0  0  0  0  0  0
   -1.8017   -0.6681   -3.3281 H   0  0  0  0  0  0  0  0  0  0  0  0
   -0.1601   -1.2849   -3.1045 H   0  0  0  0  0  0  0  0  0  0  0  0
   -1.3074   -2.1646   -4.1319 H   0  0  0  0  0  0  0  0  0  0  0  0
   -0.2835   -1.5112   -0.2725 N   0  0  0  0  0  0  0  0  0  0  0  0
    0.3536   -2.6586    0.3902 C   0  0  0  0  0  0  0  0  0  0  0  0
   -0.4253   -3.0244    1.6278 C   0  0  0  0  0  0  0  0  0  0  0  0
   -0.7186   -4.1794    1.9249 O   0  0  0  0  0  0  0  0  0  0  0  0
    0.2892   -0.6981   -0.4093 H   0  0  0  0  0  0  0  0  0  0  0  0
    1.3784   -2.3921    0.6653 H   0  0  0  0  0  0  0  0  0  0  0  0
    0.3729   -3.5069   -0.3002 H   0  0  0  0  0  0  0  0  0  0  0  0
   -0.7632   -1.8987    2.3715 N   0  0  0  0  0  0  0  0  0  0  0  0
   -1.5104   -1.9540    3.6003 C   0  0  2  0  0  0  0  0  0  0  0  0
   -0.6678   -1.3090    4.6927 C   0  0  0  0  0  0  0  0  0  0  0  0
    0.5551   -1.2049    4.6231 O   0  0  0  0  0  0  0  0  0  0  0  0
   -1.8699   -3.3859    3.9653 C   0  0  0  0  0  0  0  0  0  0  0  0
   -0.4660   -0.9868    2.0284 H   0  0  0  0  0  0  0  0  0  0  0  0
   -2.4203   -1.3643    3.4440 H   0  0  0  0  0  0  0  0  0  0  0  0
   -0.9709   -3.9921    4.1258 H   0  0  0  0  0  0  0  0  0  0  0  0
   -2.4628   -3.4240    4.8852 H   0  0  0  0  0  0  0  0  0  0  0  0
   -2.4506   -3.8579    3.1655 H   0  0  0  0  0  0  0  0  0  0  0  0
   -1.4372   -0.9021    5.7736 N   0  0  0  0  0  0  0  0  0  0  0  0
   -0.8684   -0.2733    6.9429 C   0  0  0  0  0  0  0  0  0  0  0  0
   -2.4465   -1.0105    5.7375 H   0  0  0  0  0  0  0  0  0  0  0  0
   -0.6406   -1.0400    7.6980 H   0  0  0  0  0  0  0  0  0  0  0  0
    0.0567    0.2519    6.6631 H   0  0  0  0  0  0  0  0  0  0  0  0
   -1.5881    0.4476    7.3581 H   0  0  0  0  0  0  0  0  0  0  0  0
  1  3  1  0  0  0  0
  1  7  1  0  0  0  0
  1  2  2  0  0  0  0
 18 19  1  0  0  0  0
 19 24  1  0  0  0  0
 19 20  2  0  0  0  0
 25 26  1  0  0  0  0
 26 34  1  0  0  0  0
 26 27  2  0  0  0  0
  8  9  1  0  0  0  0
  9 17  1  0  0  0  0
  9 10  2  0  0  0  0
 25 28  1  0  0  0  0
  8 11  1  0  0  0  0
 34 35  1  0  0  0  0
 17 18  1  0  0  0  0
 24 25  1  0  0  0  0
  7  8  1  0  0  0  0
  3  4  1  0  0  0  0
  3  5  1  0  0  0  0
  3  6  1  0  0  0  0
 28 31  1  0  0  0  0
 28 32  1  0  0  0  0
 28 33  1  0  0  0  0
 11 14  1  0  0  0  0
 11 15  1  0  0  0  0
 11 16  1  0  0  0  0
 35 37  1  0  0  0  0
 35 38  1  0  0  0  0
 35 39  1  0  0  0  0
 18 22  1  0  0  0  0
 18 23  1  0  0  0  0
 25 30  1  0  0  0  0
  8 13  1  0  0  0  0
 34 36  1  0  0  0  0
 17 21  1  0  0  0  0
  7 12  1  0  0  0  0
 24 29  1  0  0  0  0
M  END
$$$$

  -OEChem-02062319033D

 39 38  0     1  0  0  0  0  0999 V2000
   -3.5200   -4.0268   -1.6943 C   0  0  0  0  0  0  0  0  0  0  0  0
   -2.8702   -4.8827   -1.1054 O   0  0  0  0  0  0  0  0  0  0  0  0
   -4.9704   -4.2579   -1.9614 C   0  0  0  0  0  0  0  0  0  0  0  0
   -5.1456   -4.7573   -2.9278 H   0  0  0  0  0  0  0  0  0  0  0  0
   -5.4379   -4.9112   -1.2072 H   0  0  0  0  0  0  0  0  0  0  0  0
   -5.5954   -3.3510   -1.9864 H   0  0  0  0  0  0  0  0  0  0  0  0
   -3.0424   -2.8131   -2.1606 N   0  0  0  0  0  0  0  0  0  0  0  0
   -1.6755   -2.3891   -2.0077 C   0  0  2  0  0  0  0  0  0  0  0  0
   -1.5782   -1.5673   -0.7292 C   0  0  0  0  0  0  0  0  0  0  0  0
   -2.5448   -1.0064   -0.2171 O   0  0  0  0  0  0  0  0  0  0  0  0
   -1.2087   -1.5823   -3.2094 C   0  0  0  0  0  0  0  0  0  0  0  0
   -3.6915   -2.1888   -2.6360 H   0  0  0  0  0  0  0  0  0  0  0  0
   -1.0721   -3.2977   -1.9053 H   0  0  0  0  0  0  0  0  0  0  0  0
   -1.8017   -0.6681   -3.3281 H   0  0  0  0  0  0  0  0  0  0  0  0
   -0.1601   -1.2849   -3.1045 H   0  0  0  0  0  0  0  0  0  0  0  0
   -1.3074   -2.1646   -4.1319 H   0  0  0  0  0  0  0  0  0  0  0  0
   -0.2835   -1.5112   -0.2725 N   0  0  0  0  0  0  0  0  0  0  0  0
    0.4625   -2.7252    0.0899 C   0  0  0  0  0  0  0  0  0  0  0  0
   -0.2562   -3.4478    1.2005 C   0  0  0  0  0  0  0  0  0  0  0  0
   -0.4442   -4.6615    1.2064 O   0  0  0  0  0  0  0  0  0  0  0  0
    0.2152   -0.6424   -0.2064 H   0  0  0  0  0  0  0  0  0  0  0  0
    1.4666   -2.4452    0.4218 H   0  0  0  0  0  0  0  0  0  0  0  0
    0.5389   -3.3749   -0.7869 H   0  0  0  0  0  0  0  0  0  0  0  0
   -0.6724   -2.5710    2.1967 N   0  0  0  0  0  0  0  0  0  0  0  0
   -1.3860   -2.9888    3.3746 C   0  0  2  0  0  0  0  0  0  0  0  0
   -0.5780   -2.5580    4.5916 C   0  0  0  0  0  0  0  0  0  0  0  0
    0.6299   -2.3337    4.5496 O   0  0  0  0  0  0  0  0  0  0  0  0
   -1.6150   -4.4922    3.3787 C   0  0  0  0  0  0  0  0  0  0  0  0
   -0.4608   -1.5806    2.0868 H   0  0  0  0  0  0  0  0  0  0  0  0
   -2.3457   -2.4606    3.3670 H   0  0  0  0  0  0  0  0  0  0  0  0
   -0.6647   -5.0384    3.3863 H   0  0  0  0  0  0  0  0  0  0  0  0
   -2.1829   -4.8047    4.2612 H   0  0  0  0  0  0  0  0  0  0  0  0
   -2.1705   -4.8042    2.4877 H   0  0  0  0  0  0  0  0  0  0  0  0
   -1.3561   -2.4952    5.7391 N   0  0  0  0  0  0  0  0  0  0  0  0
   -0.8179   -2.1228    7.0266 C   0  0  0  0  0  0  0  0  0  0  0  0
   -2.3531   -2.6794    5.6775 H   0  0  0  0  0  0  0  0  0  0  0  0
   -0.5099   -3.0273    7.5715 H   0  0  0  0  0  0  0  0  0  0  0  0
    0.0533   -1.4665    6.8837 H   0  0  0  0  0  0  0  0  0  0  0  0
   -1.5871   -1.5903    7.6052 H   0  0  0  0  0  0  0  0  0  0  0  0
  1  3  1  0  0  0  0
  1  7  1  0  0  0  0
  1  2  2  0  0  0  0
 18 19  1  0  0  0  0
 19 24  1  0  0  0  0
 19 20  2  0  0  0  0
 25 26  1  0  0  0  0
 26 34  1  0  0  0  0
 26 27  2  0  0  0  0
  8  9  1  0  0  0  0
  9 17  1  0  0  0  0
  9 10  2  0  0  0  0
 25 28  1  0  0  0  0
  8 11  1  0  0  0  0
 34 35  1  0  0  0  0
 17 18  1  0  0  0  0
 24 25  1  0  0  0  0
  7  8  1  0  0  0  0
  3  4  1  0  0  0  0
  3  5  1  0  0  0  0
  3  6  1  0  0  0  0
 28 31  1  0  0  0  0
 28 32  1  0  0  0  0
 28 33  1  0  0  0  0
 11 14  1  0  0  0  0
 11 15  1  0  0  0  0
 11 16  1  0  0  0  0
 35 37  1  0  0  0  0
 35 38  1  0  0  0  0
 35 39  1  0  0  0  0
 18 22  1  0  0  0  0
 18 23  1  0  0  0  0
 25 30  1  0  0  0  0
  8 13  1  0  0  0  0
 34 36  1  0  0  0  0
 17 21  1  0  0  0  0
  7 12  1  0  0  0  0
 24 29  1  0  0  0  0
M  END
$$$$

  -OEChem-02062319033D

 39 38  0     1  0  0  0  0  0999 V2000
   -3.5200   -4.0268   -1.6943 C   0  0  0  0  0  0  0  0  0  0  0  0
   -2.8702   -4.8827   -1.1054 O   0  0  0  0  0  0  0  0  0  0  0  0
   -4.9704   -4.2579   -1.9614 C   0  0  0  0  0  0  0  0  0  0  0  0
   -5.1456   -4.7573   -2.9278 H   0  0  0  0  0  0  0  0  0  0  0  0
   -5.4379   -4.9112   -1.2072 H   0  0  0  0  0  0  0  0  0  0  0  0
   -5.5954   -3.3510   -1.9864 H   0  0  0  0  0  0  0  0  0  0  0  0
   -3.0424   -2.8131   -2.1606 N   0  0  0  0  0  0  0  0  0  0  0  0
   -1.6755   -2.3891   -2.0077 C   0  0  2  0  0  0  0  0  0  0  0  0
   -1.5782   -1.5673   -0.7292 C   0  0  0  0  0  0  0  0  0  0  0  0
   -2.5448   -1.0064   -0.2171 O   0  0  0  0  0  0  0  0  0  0  0  0
   -1.2087   -1.5823   -3.2094 C   0  0  0  0  0  0  0  0  0  0  0  0
   -3.6915   -2.1888   -2.6360 H   0  0  0  0  0  0  0  0  0  0  0  0
   -1.0721   -3.2977   -1.9053 H   0  0  0  0  0  0  0  0  0  0  0  0
   -1.8017   -0.6681   -3.3281 H   0  0  0  0  0  0  0  0  0  0  0  0
   -0.1601   -1.2849   -3.1045 H   0  0  0  0  0  0  0  0  0  0  0  0
   -1.3074   -2.1646   -4.1319 H   0  0  0  0  0  0  0  0  0  0  0  0
   -0.2835   -1.5112   -0.2725 N   0  0  0  0  0  0  0  0  0  0  0  0
    0.5702   -2.7069   -0.2176 C   0  0  0  0  0  0  0  0  0  0  0  0
   -0.0610   -3.7381    0.6827 C   0  0  0  0  0  0  0  0  0  0  0  0
   -0.1453   -4.9283    0.3918 O   0  0  0  0  0  0  0  0  0  0  0  0
    0.1411   -0.6445    0.0039 H   0  0  0  0  0  0  0  0  0  0  0  0
    1.5538   -2.4296    0.1728 H   0  0  0  0  0  0  0  0  0  0  0  0
    0.6827   -3.1145   -1.2265 H   0  0  0  0  0  0  0  0  0  0  0  0
   -0.5287   -3.1699    1.8629 N   0  0  0  0  0  0  0  0  0  0  0  0
   -1.1792   -3.9226    2.9029 C   0  0  2  0  0  0  0  0  0  0  0  0
   -0.3849   -3.7320    4.1884 C   0  0  0  0  0  0  0  0  0  0  0  0
    0.7985   -3.3996    4.2026 O   0  0  0  0  0  0  0  0  0  0  0  0
   -1.2798   -5.3958    2.5395 C   0  0  0  0  0  0  0  0  0  0  0  0
   -0.4042   -2.1680    1.9983 H   0  0  0  0  0  0  0  0  0  0  0  0
   -2.1801   -3.4943    3.0245 H   0  0  0  0  0  0  0  0  0  0  0  0
   -0.2867   -5.8423    2.4135 H   0  0  0  0  0  0  0  0  0  0  0  0
   -1.8003   -5.9621    3.3189 H   0  0  0  0  0  0  0  0  0  0  0  0
   -1.8257   -5.5289    1.5992 H   0  0  0  0  0  0  0  0  0  0  0  0
   -1.1410   -4.0187    5.3163 N   0  0  0  0  0  0  0  0  0  0  0  0
   -0.6090   -3.9253    6.6559 C   0  0  0  0  0  0  0  0  0  0  0  0
   -2.1199   -4.2687    5.2115 H   0  0  0  0  0  0  0  0  0  0  0  0
   -0.2141   -4.9048    6.9633 H   0  0  0  0  0  0  0  0  0  0  0  0
    0.2002   -3.1805    6.6778 H   0  0  0  0  0  0  0  0  0  0  0  0
   -1.4081   -3.6190    7.3470 H   0  0  0  0  0  0  0  0  0  0  0  0
  1  3  1  0  0  0  0
  1  7  1  0  0  0  0
  1  2  2  0  0  0  0
 18 19  1  0  0  0  0
 19 24  1  0  0  0  0
 19 20  2  0  0  0  0
 25 26  1  0  0  0  0
 26 34  1  0  0  0  0
 26 27  2  0  0  0  0
  8  9  1  0  0  0  0
  9 17  1  0  0  0  0
  9 10  2  0  0  0  0
 25 28  1  0  0  0  0
  8 11  1  0  0  0  0
 34 35  1  0  0  0  0
 17 18  1  0  0  0  0
 24 25  1  0  0  0  0
  7  8  1  0  0  0  0
  3  4  1  0  0  0  0
  3  5  1  0  0  0  0
  3  6  1  0  0  0  0
 28 31  1  0  0  0  0
 28 32  1  0  0  0  0
 28 33  1  0  0  0  0
 11 14  1  0  0  0  0
 11 15  1  0  0  0  0
 11 16  1  0  0  0  0
 35 37  1  0  0  0  0
 35 38  1  0  0  0  0
 35 39  1  0  0  0  0
 18 22  1  0  0  0  0
 18 23  1  0  0  0  0
 25 30  1  0  0  0  0
  8 13  1  0  0  0  0
 34 36  1  0  0  0  0
 17 21  1  0  0  0  0
  7 12  1  0  0  0  0
 24 29  1  0  0  0  0
M  END
$$$$

  -OEChem-02062319033D

 39 38  0     1  0  0  0  0  0999 V2000
   -3.5200   -4.0268   -1.6943 C   0  0  0  0  0  0  0  0  0  0  0  0
   -2.8702   -4.8827   -1.1054 O   0  0  0  0  0  0  0  0  0  0  0  0
   -4.9704   -4.2579   -1.9614 C   0  0  0  0  0  0  0  0  0  0  0  0
   -5.1456   -4.7573   -2.9278 H   0  0  0  0  0  0  0  0  0  0  0  0
   -5.4379   -4.9112   -1.2072 H   0  0  0  0  0  0  0  0  0  0  0  0
   -5.5954   -3.3510   -1.9864 H   0  0  0  0  0  0  0  0  0  0  0  0
   -3.0424   -2.8131   -2.1606 N   0  0  0  0  0  0  0  0  0  0  0  0
   -1.6755   -2.3891   -2.0077 C   0  0  2  0  0  0  0  0  0  0  0  0
   -1.5782   -1.5673   -0.7292 C   0  0  0  0  0  0  0  0  0  0  0  0
   -2.5448   -1.0064   -0.2171 O   0  0  0  0  0  0  0  0  0  0  0  0
   -1.2087   -1.5823   -3.2094 C   0  0  0  0  0  0  0  0  0  0  0  0
   -3.6915   -2.1888   -2.6360 H   0  0  0  0  0  0  0  0  0  0  0  0
   -1.0721   -3.2977   -1.9053 H   0  0  0  0  0  0  0  0  0  0  0  0
   -1.8017   -0.6681   -3.3281 H   0  0  0  0  0  0  0  0  0  0  0  0
   -0.1601   -1.2849   -3.1045 H   0  0  0  0  0  0  0  0  0  0  0  0
   -1.3074   -2.1646   -4.1319 H   0  0  0  0  0  0  0  0  0  0  0  0
   -0.2835   -1.5112   -0.2725 N   0  0  0  0  0  0  0  0  0  0  0  0
    0.6694   -2.6050   -0.5113 C   0  0  0  0  0  0  0  0  0  0  0  0
    0.1471   -3.8754    0.1096 C   0  0  0  0  0  0  0  0  0  0  0  0
    0.1578   -4.9617   -0.4632 O   0  0  0  0  0  0  0  0  0  0  0  0
    0.0719   -0.7042    0.2073 H   0  0  0  0  0  0  0  0  0  0  0  0
    1.6340   -2.3462   -0.0649 H   0  0  0  0  0  0  0  0  0  0  0  0
    0.7946   -2.7433   -1.5892 H   0  0  0  0  0  0  0  0  0  0  0  0
   -0.3419   -3.6546    1.3928 N   0  0  0  0  0  0  0  0  0  0  0  0
   -0.9040   -4.6917    2.2174 C   0  0  2  0  0  0  0  0  0  0  0  0
   -0.1016   -4.7511    3.5105 C   0  0  0  0  0  0  0  0  0  0  0  0
    1.0494   -4.3302    3.6057 O   0  0  0  0  0  0  0  0  0  0  0  0
   -0.8872   -6.0352    1.5050 C   0  0  0  0  0  0  0  0  0  0  0  0
   -0.2999   -2.7089    1.7690 H   0  0  0  0  0  0  0  0  0  0  0  0
   -1.9348   -4.3950    2.4398 H   0  0  0  0  0  0  0  0  0  0  0  0
    0.1373   -6.3490    1.2739 H   0  0  0  0  0  0  0  0  0  0  0  0
   -1.3411   -6.8173    2.1224 H   0  0  0  0  0  0  0  0  0  0  0  0
   -1.4397   -5.9825    0.5607 H   0  0  0  0  0  0  0  0  0  0  0  0
   -0.8066   -5.3687    4.5342 N   0  0  0  0  0  0  0  0  0  0  0  0
   -0.2562   -5.5580    5.8560 C   0  0  0  0  0  0  0  0  0  0  0  0
   -1.7628   -5.6701    4.3713 H   0  0  0  0  0  0  0  0  0  0  0  0
    0.2268   -6.5446    5.9148 H   0  0  0  0  0  0  0  0  0  0  0  0
    0.4873   -4.7732    6.0593 H   0  0  0  0  0  0  0  0  0  0  0  0
   -1.0635   -5.5002    6.6009 H   0  0  0  0  0  0  0  0  0  0  0  0
  1  3  1  0  0  0  0
  1  7  1  0  0  0  0
  1  2  2  0  0  0  0
 18 19  1  0  0  0  0
 19 24  1  0  0  0  0
 19 20  2  0  0  0  0
 25 26  1  0  0  0  0
 26 34  1  0  0  0  0
 26 27  2  0  0  0  0
  8  9  1  0  0  0  0
  9 17  1  0  0  0  0
  9 10  2  0  0  0  0
 25 28  1  0  0  0  0
  8 11  1  0  0  0  0
 34 35  1  0  0  0  0
 17 18  1  0  0  0  0
 24 25  1  0  0  0  0
  7  8  1  0  0  0  0
  3  4  1  0  0  0  0
  3  5  1  0  0  0  0
  3  6  1  0  0  0  0
 28 31  1  0  0  0  0
 28 32  1  0  0  0  0
 28 33  1  0  0  0  0
 11 14  1  0  0  0  0
 11 15  1  0  0  0  0
 11 16  1  0  0  0  0
 35 37  1  0  0  0  0
 35 38  1  0  0  0  0
 35 39  1  0  0  0  0
 18 22  1  0  0  0  0
 18 23  1  0  0  0  0
 25 30  1  0  0  0  0
  8 13  1  0  0  0  0
 34 36  1  0  0  0  0
 17 21  1  0  0  0  0
  7 12  1  0  0  0  0
 24 29  1  0  0  0  0
M  END
$$$$

  -OEChem-02062319033D

 39 38  0     1  0  0  0  0  0999 V2000
   -3.5200   -4.0268   -1.6943 C   0  0  0  0  0  0  0  0  0  0  0  0
   -2.8702   -4.8827   -1.1054 O   0  0  0  0  0  0  0  0  0  0  0  0
   -4.9704   -4.2579   -1.9614 C   0  0  0  0  0  0  0  0  0  0  0  0
   -5.1456   -4.7573   -2.9278 H   0  0  0  0  0  0  0  0  0  0  0  0
   -5.4379   -4.9112   -1.2072 H   0  0  0  0  0  0  0  0  0  0  0  0
   -5.5954   -3.3510   -1.9864 H   0  0  0  0  0  0  0  0  0  0  0  0
   -3.0424   -2.8131   -2.1606 N   0  0  0  0  0  0  0  0  0  0  0  0
   -1.6755   -2.3891   -2.0077 C   0  0  2  0  0  0  0  0  0  0  0  0
   -1.5782   -1.5673   -0.7292 C   0  0  0  0  0  0  0  0  0  0  0  0
   -2.5448   -1.0064   -0.2171 O   0  0  0  0  0  0  0  0  0  0  0  0
   -1.2087   -1.5823   -3.2094 C   0  0  0  0  0  0  0  0  0  0  0  0
   -3.6915   -2.1888   -2.6360 H   0  0  0  0  0  0  0  0  0  0  0  0
   -1.0721   -3.2977   -1.9053 H   0  0  0  0  0  0  0  0  0  0  0  0
   -1.8017   -0.6681   -3.3281 H   0  0  0  0  0  0  0  0  0  0  0  0
   -0.1601   -1.2849   -3.1045 H   0  0  0  0  0  0  0  0  0  0  0  0
   -1.3074   -2.1646   -4.1319 H   0  0  0  0  0  0  0  0  0  0  0  0
   -0.2835   -1.5112   -0.2725 N   0  0  0  0  0  0  0  0  0  0  0  0
    0.7534   -2.4264   -0.7712 C   0  0  0  0  0  0  0  0  0  0  0  0
    0.3539   -3.8503   -0.4795 C   0  0  0  0  0  0  0  0  0  0  0  0
    0.4444   -4.7593   -1.3005 O   0  0  0  0  0  0  0  0  0  0  0  0
    0.0123   -0.8174    0.3900 H   0  0  0  0  0  0  0  0  0  0  0  0
    1.7019   -2.2008   -0.2750 H   0  0  0  0  0  0  0  0  0  0  0  0
    0.8669   -2.2867   -1.8503 H   0  0  0  0  0  0  0  0  0  0  0  0
   -0.1247   -3.9922    0.8186 N   0  0  0  0  0  0  0  0  0  0  0  0
   -0.5793   -5.2437    1.3648 C   0  0  2  0  0  0  0  0  0  0  0  0
    0.2525   -5.5459    2.6043 C   0  0  0  0  0  0  0  0  0  0  0  0
    1.3655   -5.0618    2.7996 O   0  0  0  0  0  0  0  0  0  0  0  0
   -0.4638   -6.3666    0.3457 C   0  0  0  0  0  0  0  0  0  0  0  0
   -0.1550   -3.1665    1.4145 H   0  0  0  0  0  0  0  0  0  0  0  0
   -1.6266   -5.1013    1.6528 H   0  0  0  0  0  0  0  0  0  0  0  0
    0.5784   -6.5241    0.0450 H   0  0  0  0  0  0  0  0  0  0  0  0
   -0.8367   -7.3121    0.7532 H   0  0  0  0  0  0  0  0  0  0  0  0
   -1.0387   -6.1342   -0.5572 H   0  0  0  0  0  0  0  0  0  0  0  0
   -0.3757   -6.4531    3.4459 N   0  0  0  0  0  0  0  0  0  0  0  0
    0.2167   -6.9097    4.6815 C   0  0  0  0  0  0  0  0  0  0  0  0
   -1.3062   -6.7882    3.2142 H   0  0  0  0  0  0  0  0  0  0  0  0
    0.7827   -7.8348    4.4975 H   0  0  0  0  0  0  0  0  0  0  0  0
    0.8952   -6.1361    5.0705 H   0  0  0  0  0  0  0  0  0  0  0  0
   -0.5766   -7.1056    5.4179 H   0  0  0  0  0  0  0  0  0  0  0  0
  1  3  1  0  0  0  0
  1  7  1  0  0  0  0
  1  2  2  0  0  0  0
 18 19  1  0  0  0  0
 19 24  1  0  0  0  0
 19 20  2  0  0  0  0
 25 26  1  0  0  0  0
 26 34  1  0  0  0  0
 26 27  2  0  0  0  0
  8  9  1  0  0  0  0
  9 17  1  0  0  0  0
  9 10  2  0  0  0  0
 25 28  1  0  0  0  0
  8 11  1  0  0  0  0
 34 35  1  0  0  0  0
 17 18  1  0  0  0  0
 24 25  1  0  0  0  0
  7  8  1  0  0  0  0
  3  4  1  0  0  0  0
  3  5  1  0  0  0  0
  3  6  1  0  0  0  0
 28 31  1  0  0  0  0
 28 32  1  0  0  0  0
 28 33  1  0  0  0  0
 11 14  1  0  0  0  0
 11 15  1  0  0  0  0
 11 16  1  0  0  0  0
 35 37  1  0  0  0  0
 35 38  1  0  0  0  0
 35 39  1  0  0  0  0
 18 22  1  0  0  0  0
 18 23  1  0  0  0  0
 25 30  1  0  0  0  0
  8 13  1  0  0  0  0
 34 36  1  0  0  0  0
 17 21  1  0  0  0  0
  7 12  1  0  0  0  0
 24 29  1  0  0  0  0
M  END
$$$$

  -OEChem-02062319033D

 39 38  0     1  0  0  0  0  0999 V2000
   -3.5200   -4.0268   -1.6943 C   0  0  0  0  0  0  0  0  0  0  0  0
   -2.8702   -4.8827   -1.1054 O   0  0  0  0  0  0  0  0  0  0  0  0
   -4.9704   -4.2579   -1.9614 C   0  0  0  0  0  0  0  0  0  0  0  0
   -5.1456   -4.7573   -2.9278 H   0  0  0  0  0  0  0  0  0  0  0  0
   -5.4379   -4.9112   -1.2072 H   0  0  0  0  0  0  0  0  0  0  0  0
   -5.5954   -3.3510   -1.9864 H   0  0  0  0  0  0  0  0  0  0  0  0
   -3.0424   -2.8131   -2.1606 N   0  0  0  0  0  0  0  0  0  0  0  0
   -1.6755   -2.3891   -2.0077 C   0  0  2  0  0  0  0  0  0  0  0  0
   -1.5782   -1.5673   -0.7292 C   0  0  0  0  0  0  0  0  0  0  0  0
   -2.5448   -1.0064   -0.2171 O   0  0  0  0  0  0  0  0  0  0  0  0
   -1.2087   -1.5823   -3.2094 C   0  0  0  0  0  0  0  0  0  0  0  0
   -3.6915   -2.1888   -2.6360 H   0  0  0  0  0  0  0  0  0  0  0  0
   -1.0721   -3.2977   -1.9053 H   0  0  0  0  0  0  0  0  0  0  0  0
   -1.8017   -0.6681   -3.3281 H   0  0  0  0  0  0  0  0  0  0  0  0
   -0.1601   -1.2849   -3.1045 H   0  0  0  0  0  0  0  0  0  0  0  0
   -1.3074   -2.1646   -4.1319 H   0  0  0  0  0  0  0  0  0  0  0  0
   -0.2835   -1.5112   -0.2725 N   0  0  0  0  0  0  0  0  0  0  0  0
    0.8164   -2.1833   -0.9796 C   0  0  0  0  0  0  0  0  0  0  0  0
    0.5452   -3.6647   -1.0447 C   0  0  0  0  0  0  0  0  0  0  0  0
    0.6950   -4.3350   -2.0629 O   0  0  0  0  0  0  0  0  0  0  0  0
   -0.0335   -0.9764    0.5395 H   0  0  0  0  0  0  0  0  0  0  0  0
    1.7527   -2.0033   -0.4432 H   0  0  0  0  0  0  0  0  0  0  0  0
    0.8947   -1.7758   -1.9918 H   0  0  0  0  0  0  0  0  0  0  0  0
    0.1081   -4.1595    0.1794 N   0  0  0  0  0  0  0  0  0  0  0  0
   -0.2272   -5.5411    0.4031 C   0  0  2  0  0  0  0  0  0  0  0  0
    0.6534   -6.0620    1.5313 C   0  0  0  0  0  0  0  0  0  0  0  0
    1.7252   -5.5448    1.8391 O   0  0  0  0  0  0  0  0  0  0  0  0
   -0.0386   -6.3677   -0.8594 C   0  0  0  0  0  0  0  0  0  0  0  0
    0.0206   -3.5096    0.9589 H   0  0  0  0  0  0  0  0  0  0  0  0
   -1.2764   -5.5651    0.7172 H   0  0  0  0  0  0  0  0  0  0  0  0
    1.0066   -6.3555   -1.1893 H   0  0  0  0  0  0  0  0  0  0  0  0
   -0.3213   -7.4128   -0.6953 H   0  0  0  0  0  0  0  0  0  0  0  0
   -0.6502   -5.9735   -1.6782 H   0  0  0  0  0  0  0  0  0  0  0  0
    0.1223   -7.1982    2.1257 N   0  0  0  0  0  0  0  0  0  0  0  0
    0.7774   -7.8882    3.2124 C   0  0  0  0  0  0  0  0  0  0  0  0
   -0.7811   -7.5467    1.8191 H   0  0  0  0  0  0  0  0  0  0  0  0
    1.4157   -8.6876    2.8080 H   0  0  0  0  0  0  0  0  0  0  0  0
    1.3960   -7.1764    3.7787 H   0  0  0  0  0  0  0  0  0  0  0  0
    0.0194   -8.3260    3.8785 H   0  0  0  0  0  0  0  0  0  0  0  0
  1  3  1  0  0  0  0
  1  7  1  0  0  0  0
  1  2  2  0  0  0  0
 18 19  1  0  0  0  0
 19 24  1  0  0  0  0
 19 20  2  0  0  0  0
 25 26  1  0  0  0  0
 26 34  1  0  0  0  0
 26 27  2  0  0  0  0
  8  9  1  0  0  0  0
  9 17  1  0  0  0  0
  9 10  2  0  0  0  0
 25 28  1  0  0  0  0
  8 11  1  0  0  0  0
 34 35  1  0  0  0  0
 17 18  1  0  0  0  0
 24 25  1  0  0  0  0
  7  8  1  0  0  0  0
  3  4  1  0  0  0  0
  3  5  1  0  0  0  0
  3  6  1  0  0  0  0
 28 31  1  0  0  0  0
 28 32  1  0  0  0  0
 28 33  1  0  0  0  0
 11 14  1  0  0  0  0
 11 15  1  0  0  0  0
 11 16  1  0  0  0  0
 35 37  1  0  0  0  0
 35 38  1  0  0  0  0
 35 39  1  0  0  0  0
 18 22  1  0  0  0  0
 18 23  1  0  0  0  0
 25 30  1  0  0  0  0
  8 13  1  0  0  0  0
 34 36  1  0  0  0  0
 17 21  1  0  0  0  0
  7 12  1  0  0  0  0
 24 29  1  0  0  0  0
M  END
$$$$

  -OEChem-02062319033D

 39 38  0     1  0  0  0  0  0999 V2000
   -3.5200   -4.0268   -1.6943 C   0  0  0  0  0  0  0  0  0  0  0  0
   -2.8702   -4.8827   -1.1054 O   0  0  0  0  0  0  0  0  0  0  0  0
   -4.9704   -4.2579   -1.9614 C   0  0  0  0  0  0  0  0  0  0  0  0
   -5.1456   -4.7573   -2.9278 H   0  0  0  0  0  0  0  0  0  0  0  0
   -5.4379   -4.9112   -1.2072 H   0  0  0  0  0  0  0  0  0  0  0  0
   -5.5954   -3.3510   -1.9864 H   0  0  0  0  0  0  0  0  0  0  0  0
   -3.0424   -2.8131   -2.1606 N   0  0  0  0  0  0  0  0  0  0  0  0
   -1.6755   -2.3891   -2.0077 C   0  0  2  0  0  0  0  0  0  0  0  0
   -1.5782   -1.5673   -0.7292 C   0  0  0  0  0  0  0  0  0  0  0  0
   -2.5448   -1.0064   -0.2171 O   0  0  0  0  0  0  0  0  0  0  0  0
   -1.2087   -1.5823   -3.2094 C   0  0  0  0  0  0  0  0  0  0  0  0
   -3.6915   -2.1888   -2.6360 H   0  0  0  0  0  0  0  0  0  0  0  0
   -1.0721   -3.2977   -1.9053 H   0  0  0  0  0  0  0  0  0  0  0  0
   -1.8017   -0.6681   -3.3281 H   0  0  0  0  0  0  0  0  0  0  0  0
   -0.1601   -1.2849   -3.1045 H   0  0  0  0  0  0  0  0  0  0  0  0
   -1.3074   -2.1646   -4.1319 H   0  0  0  0  0  0  0  0  0  0  0  0
   -0.2835   -1.5112   -0.2725 N   0  0  0  0  0  0  0  0  0  0  0  0
    0.8541   -1.8922   -1.1223 C   0  0  0  0  0  0  0  0  0  0  0  0
    0.7081   -3.3311   -1.5474 C   0  0  0  0  0  0  0  0  0  0  0  0
    0.8925   -3.7177   -2.6984 O   0  0  0  0  0  0  0  0  0  0  0  0
   -0.0626   -1.1704    0.6456 H   0  0  0  0  0  0  0  0  0  0  0  0
    1.7829   -1.7672   -0.5580 H   0  0  0  0  0  0  0  0  0  0  0  0
    0.8761   -1.2454   -2.0042 H   0  0  0  0  0  0  0  0  0  0  0  0
    0.3406   -4.1452   -0.4813 N   0  0  0  0  0  0  0  0  0  0  0  0
    0.1284   -5.5636   -0.6020 C   0  0  2  0  0  0  0  0  0  0  0  0
    1.0737   -6.2644    0.3649 C   0  0  0  0  0  0  0  0  0  0  0  0
    2.1041   -5.7461    0.7898 O   0  0  0  0  0  0  0  0  0  0  0  0
    0.3594   -6.0382   -2.0282 C   0  0  0  0  0  0  0  0  0  0  0  0
    0.2149   -3.7147    0.4334 H   0  0  0  0  0  0  0  0  0  0  0  0
   -0.9081   -5.7548   -0.3035 H   0  0  0  0  0  0  0  0  0  0  0  0
    1.3926   -5.8549   -2.3450 H   0  0  0  0  0  0  0  0  0  0  0  0
    0.1699   -7.1124   -2.1244 H   0  0  0  0  0  0  0  0  0  0  0  0
   -0.3005   -5.5116   -2.7259 H   0  0  0  0  0  0  0  0  0  0  0  0
    0.6536   -7.5530    0.6636 N   0  0  0  0  0  0  0  0  0  0  0  0
    1.3876   -8.4268    1.5488 C   0  0  0  0  0  0  0  0  0  0  0  0
   -0.2234   -7.8940    0.2810 H   0  0  0  0  0  0  0  0  0  0  0  0
    2.0826   -9.0449    0.9614 H   0  0  0  0  0  0  0  0  0  0  0  0
    1.9556   -7.8230    2.2719 H   0  0  0  0  0  0  0  0  0  0  0  0
    0.6838   -9.0781    2.0876 H   0  0  0  0  0  0  0  0  0  0  0  0
  1  3  1  0  0  0  0
  1  7  1  0  0  0  0
  1  2  2  0  0  0  0
 18 19  1  0  0  0  0
 19 24  1  0  0  0  0
 19 20  2  0  0  0  0
 25 26  1  0  0  0  0
 26 34  1  0  0  0  0
 26 27  2  0  0  0  0
  8  9  1  0  0  0  0
  9 17  1  0  0  0  0
  9 10  2  0  0  0  0
 25 28  1  0  0  0  0
  8 11  1  0  0  0  0
 34 35  1  0  0  0  0
 17 18  1  0  0  0  0
 24 25  1  0  0  0  0
  7  8  1  0  0  0  0
  3  4  1  0  0  0  0
  3  5  1  0  0  0  0
  3  6  1  0  0  0  0
 28 31  1  0  0  0  0
 28 32  1  0  0  0  0
 28 33  1  0  0  0  0
 11 14  1  0  0  0  0
 11 15  1  0  0  0  0
 11 16  1  0  0  0  0
 35 37  1  0  0  0  0
 35 38  1  0  0  0  0
 35 39  1  0  0  0  0
 18 22  1  0  0  0  0
 18 23  1  0  0  0  0
 25 30  1  0  0  0  0
  8 13  1  0  0  0  0
 34 36  1  0  0  0  0
 17 21  1  0  0  0  0
  7 12  1  0  0  0  0
 24 29  1  0  0  0  0
M  END
$$$$

  -OEChem-02062319033D

 39 38  0     1  0  0  0  0  0999 V2000
   -3.5200   -4.0268   -1.6943 C   0  0  0  0  0  0  0  0  0  0  0  0
   -2.8702   -4.8827   -1.1054 O   0  0  0  0  0  0  0  0  0  0  0  0
   -4.9704   -4.2579   -1.9614 C   0  0  0  0  0  0  0  0  0  0  0  0
   -5.1456   -4.7573   -2.9278 H   0  0  0  0  0  0  0  0  0  0  0  0
   -5.4379   -4.9112   -1.2072 H   0  0  0  0  0  0  0  0  0  0  0  0
   -5.5954   -3.3510   -1.9864 H   0  0  0  0  0  0  0  0  0  0  0  0
   -3.0424   -2.8131   -2.1606 N   0  0  0  0  0  0  0  0  0  0  0  0
   -1.6755   -2.3891   -2.0077 C   0  0  2  0  0  0  0  0  0  0  0  0
   -1.5782   -1.5673   -0.7292 C   0  0  0  0  0  0  0  0  0  0  0  0
   -2.5448   -1.0064   -0.2171 O   0  0  0  0  0  0  0  0  0  0  0  0
   -1.2087   -1.5823   -3.2094 C   0  0  0  0  0  0  0  0  0  0  0  0
   -3.6915   -2.1888   -2.6360 H   0  0  0  0  0  0  0  0  0  0  0  0
   -1.0721   -3.2977   -1.9053 H   0  0  0  0  0  0  0  0  0  0  0  0
   -1.8017   -0.6681   -3.3281 H   0  0  0  0  0  0  0  0  0  0  0  0
   -0.1601   -1.2849   -3.1045 H   0  0  0  0  0  0  0  0  0  0  0  0
   -1.3074   -2.1646   -4.1319 H   0  0  0  0  0  0  0  0  0  0  0  0
   -0.2835   -1.5112   -0.2725 N   0  0  0  0  0  0  0  0  0  0  0  0
    0.8640   -1.5731   -1.1895 C   0  0  0  0  0  0  0  0  0  0  0  0
    0.8315   -2.8722   -1.9533 C   0  0  0  0  0  0  0  0  0  0  0  0
    1.0235   -2.9494   -3.1639 O   0  0  0  0  0  0  0  0  0  0  0  0
   -0.0728   -1.3861    0.7011 H   0  0  0  0  0  0  0  0  0  0  0  0
    1.7907   -1.5085   -0.6117 H   0  0  0  0  0  0  0  0  0  0  0  0
    0.8124   -0.7316   -1.8866 H   0  0  0  0  0  0  0  0  0  0  0  0
    0.5569   -3.9502   -1.1185 N   0  0  0  0  0  0  0  0  0  0  0  0
    0.4632   -5.3095   -1.5821 C   0  0  2  0  0  0  0  0  0  0  0  0
    1.4847   -6.1393   -0.8157 C   0  0  0  0  0  0  0  0  0  0  0  0
    2.4764   -5.6520   -0.2769 O   0  0  0  0  0  0  0  0  0  0  0  0
    0.7033   -5.4007   -3.0810 C   0  0  0  0  0  0  0  0  0  0  0  0
    0.4147   -3.7681   -0.1264 H   0  0  0  0  0  0  0  0  0  0  0  0
   -0.5468   -5.6575   -1.3395 H   0  0  0  0  0  0  0  0  0  0  0  0
    1.7103   -5.0563   -3.3433 H   0  0  0  0  0  0  0  0  0  0  0  0
    0.6034   -6.4315   -3.4368 H   0  0  0  0  0  0  0  0  0  0  0  0
   -0.0136   -4.7798   -3.6290 H   0  0  0  0  0  0  0  0  0  0  0  0
    1.1818   -7.4935   -0.8409 N   0  0  0  0  0  0  0  0  0  0  0  0
    2.0059   -8.4889   -0.1960 C   0  0  0  0  0  0  0  0  0  0  0  0
    0.3289   -7.8063   -1.2953 H   0  0  0  0  0  0  0  0  0  0  0  0
    2.7381   -8.8822   -0.9165 H   0  0  0  0  0  0  0  0  0  0  0  0
    2.5358   -8.0321    0.6528 H   0  0  0  0  0  0  0  0  0  0  0  0
    1.3713   -9.3107    0.1674 H   0  0  0  0  0  0  0  0  0  0  0  0
  1  3  1  0  0  0  0
  1  7  1  0  0  0  0
  1  2  2  0  0  0  0
 18 19  1  0  0  0  0
 19 24  1  0  0  0  0
 19 20  2  0  0  0  0
 25 26  1  0  0  0  0
 26 34  1  0  0  0  0
 26 27  2  0  0  0  0
  8  9  1  0  0  0  0
  9 17  1  0  0  0  0
  9 10  2  0  0  0  0
 25 28  1  0  0  0  0
  8 11  1  0  0  0  0
 34 35  1  0  0  0  0
 17 18  1  0  0  0  0
 24 25  1  0  0  0  0
  7  8  1  0  0  0  0
  3  4  1  0  0  0  0
  3  5  1  0  0  0  0
  3  6  1  0  0  0  0
 28 31  1  0  0  0  0
 28 32  1  0  0  0  0
 28 33  1  0  0  0  0
 11 14  1  0  0  0  0
 11 15  1  0  0  0  0
 11 16  1  0  0  0  0
 35 37  1  0  0  0  0
 35 38  1  0  0  0  0
 35 39  1  0  0  0  0
 18 22  1  0  0  0  0
 18 23  1  0  0  0  0
 25 30  1  0  0  0  0
  8 13  1  0  0  0  0
 34 36  1  0  0  0  0
 17 21  1  0  0  0  0
  7 12  1  0  0  0  0
 24 29  1  0  0  0  0
M  END
$$$$

  -OEChem-02062319033D

 39 38  0     1  0  0  0  0  0999 V2000
   -3.5200   -4.0268   -1.6943 C   0  0  0  0  0  0  0  0  0  0  0  0
   -2.8702   -4.8827   -1.1054 O   0  0  0  0  0  0  0  0  0  0  0  0
   -4.9704   -4.2579   -1.9614 C   0  0  0  0  0  0  0  0  0  0  0  0
   -5.1456   -4.7573   -2.9278 H   0  0  0  0  0  0  0  0  0  0  0  0
   -5.4379   -4.9112   -1.2072 H   0  0  0  0  0  0  0  0  0  0  0  0
   -5.5954   -3.3510   -1.9864 H   0  0  0  0  0  0  0  0  0  0  0  0
   -3.0424   -2.8131   -2.1606 N   0  0  0  0  0  0  0  0  0  0  0  0
   -1.6755   -2.3891   -2.0077 C   0  0  2  0  0  0  0  0  0  0  0  0
   -1.5782   -1.5673   -0.7292 C   0  0  0  0  0  0  0  0  0  0  0  0
   -2.5448   -1.0064   -0.2171 O   0  0  0  0  0  0  0  0  0  0  0  0
   -1.2087   -1.5823   -3.2094 C   0  0  0  0  0  0  0  0  0  0  0  0
   -3.6915   -2.1888   -2.6360 H   0  0  0  0  0  0  0  0  0  0  0  0
   -1.0721   -3.2977   -1.9053 H   0  0  0  0  0  0  0  0  0  0  0  0
   -1.8017   -0.6681   -3.3281 H   0  0  0  0  0  0  0  0  0  0  0  0
   -0.1601   -1.2849   -3.1045 H   0  0  0  0  0  0  0  0  0  0  0  0
   -1.3074   -2.1646   -4.1319 H   0  0  0  0  0  0  0  0  0  0  0  0
   -0.2835   -1.5112   -0.2725 N   0  0  0  0  0  0  0  0  0  0  0  0
    0.8454   -1.2475   -1.1767 C   0  0  0  0  0  0  0  0  0  0  0  0
    0.9068   -2.3194   -2.2347 C   0  0  0  0  0  0  0  0  0  0  0  0
    1.0790   -2.0825   -3.4275 O   0  0  0  0  0  0  0  0  0  0  0  0
   -0.0635   -1.6090    0.7022 H   0  0  0  0  0  0  0  0  0  0  0  0
    1.7753   -1.2448   -0.6005 H   0  0  0  0  0  0  0  0  0  0  0  0
    0.7079   -0.2695   -1.6471 H   0  0  0  0  0  0  0  0  0  0  0  0
    0.7424   -3.5879   -1.6887 N   0  0  0  0  0  0  0  0  0  0  0  0
    0.7543   -4.7963   -2.4703 C   0  0  2  0  0  0  0  0  0  0  0  0
    1.8586   -5.6952   -1.9298 C   0  0  0  0  0  0  0  0  0  0  0  0
    2.8166   -5.2690   -1.2882 O   0  0  0  0  0  0  0  0  0  0  0  0
    0.9694   -4.4986   -3.9461 C   0  0  0  0  0  0  0  0  0  0  0  0
    0.6063   -3.6659   -0.6821 H   0  0  0  0  0  0  0  0  0  0  0  0
   -0.2172   -5.2797   -2.3202 H   0  0  0  0  0  0  0  0  0  0  0  0
    1.9378   -4.0140   -4.1162 H   0  0  0  0  0  0  0  0  0  0  0  0
    0.9497   -5.4164   -4.5430 H   0  0  0  0  0  0  0  0  0  0  0  0
    0.1910   -3.8280   -4.3259 H   0  0  0  0  0  0  0  0  0  0  0  0
    1.6709   -7.0236   -2.2851 N   0  0  0  0  0  0  0  0  0  0  0  0
    2.5899   -8.0702   -1.9029 C   0  0  0  0  0  0  0  0  0  0  0  0
    0.8382   -7.2897   -2.8023 H   0  0  0  0  0  0  0  0  0  0  0  0
    3.3374   -8.2108   -2.6976 H   0  0  0  0  0  0  0  0  0  0  0  0
    3.0972   -7.7892   -0.9682 H   0  0  0  0  0  0  0  0  0  0  0  0
    2.0352   -9.0079   -1.7515 H   0  0  0  0  0  0  0  0  0  0  0  0
  1  3  1  0  0  0  0
  1  7  1  0  0  0  0
  1  2  2  0  0  0  0
 18 19  1  0  0  0  0
 19 24  1  0  0  0  0
 19 20  2  0  0  0  0
 25 26  1  0  0  0  0
 26 34  1  0  0  0  0
 26 27  2  0  0  0  0
  8  9  1  0  0  0  0
  9 17  1  0  0  0  0
  9 10  2  0  0  0  0
 25 28  1  0  0  0  0
  8 11  1  0  0  0  0
 34 35  1  0  0  0  0
 17 18  1  0  0  0  0
 24 25  1  0  0  0  0
  7  8  1  0  0  0  0
  3  4  1  0  0  0  0
  3  5  1  0  0  0  0
  3  6  1  0  0  0  0
 28 31  1  0  0  0  0
 28 32  1  0  0  0  0
 28 33  1  0  0  0  0
 11 14  1  0  0  0  0
 11 15  1  0  0  0  0
 11 16  1  0  0  0  0
 35 37  1  0  0  0  0
 35 38  1  0  0  0  0
 35 39  1  0  0  0  0
 18 22  1  0  0  0  0
 18 23  1  0  0  0  0
 25 30  1  0  0  0  0
  8 13  1  0  0  0  0
 34 36  1  0  0  0  0
 17 21  1  0  0  0  0
  7 12  1  0  0  0  0
 24 29  1  0  0  0  0
M  END
$$$$

  -OEChem-02062319033D

 39 38  0     1  0  0  0  0  0999 V2000
   -3.5200   -4.0268   -1.6943 C   0  0  0  0  0  0  0  0  0  0  0  0
   -2.8702   -4.8827   -1.1054 O   0  0  0  0  0  0  0  0  0  0  0  0
   -4.9704   -4.2579   -1.9614 C   0  0  0  0  0  0  0  0  0  0  0  0
   -5.1456   -4.7573   -2.9278 H   0  0  0  0  0  0  0  0  0  0  0  0
   -5.4379   -4.9112   -1.2072 H   0  0  0  0  0  0  0  0  0  0  0  0
   -5.5954   -3.3510   -1.9864 H   0  0  0  0  0  0  0  0  0  0  0  0
   -3.0424   -2.8131   -2.1606 N   0  0  0  0  0  0  0  0  0  0  0  0
   -1.6755   -2.3891   -2.0077 C   0  0  2  0  0  0  0  0  0  0  0  0
   -1.5782   -1.5673   -0.7292 C   0  0  0  0  0  0  0  0  0  0  0  0
   -2.5448   -1.0064   -0.2171 O   0  0  0  0  0  0  0  0  0  0  0  0
   -1.2087   -1.5823   -3.2094 C   0  0  0  0  0  0  0  0  0  0  0  0
   -3.6915   -2.1888   -2.6360 H   0  0  0  0  0  0  0  0  0  0  0  0
   -1.0721   -3.2977   -1.9053 H   0  0  0  0  0  0  0  0  0  0  0  0
   -1.8017   -0.6681   -3.3281 H   0  0  0  0  0  0  0  0  0  0  0  0
   -0.1601   -1.2849   -3.1045 H   0  0  0  0  0  0  0  0  0  0  0  0
   -1.3074   -2.1646   -4.1319 H   0  0  0  0  0  0  0  0  0  0  0  0
   -0.2835   -1.5112   -0.2725 N   0  0  0  0  0  0  0  0  0  0  0  0
    0.7995   -0.9378   -1.0847 C   0  0  0  0  0  0  0  0  0  0  0  0
    0.9291   -1.7103   -2.3726 C   0  0  0  0  0  0  0  0  0  0  0  0
    1.0552   -1.1761   -3.4713 O   0  0  0  0  0  0  0  0  0  0  0  0
   -0.0354   -1.8236    0.6488 H   0  0  0  0  0  0  0  0  0  0  0  0
    1.7379   -0.9942   -0.5252 H   0  0  0  0  0  0  0  0  0  0  0  0
    0.5697    0.1095   -1.3019 H   0  0  0  0  0  0  0  0  0  0  0  0
    0.8844   -3.0829   -2.1530 N   0  0  0  0  0  0  0  0  0  0  0  0
    0.9821   -4.0589   -3.2063 C   0  0  2  0  0  0  0  0  0  0  0  0
    2.1697   -4.9623   -2.9016 C   0  0  0  0  0  0  0  0  0  0  0  0
    3.1015   -4.6232   -2.1752 O   0  0  0  0  0  0  0  0  0  0  0  0
    1.1397   -3.3933   -4.5645 C   0  0  0  0  0  0  0  0  0  0  0  0
    0.7768   -3.4151   -1.1961 H   0  0  0  0  0  0  0  0  0  0  0  0
    0.0584   -4.6473   -3.1789 H   0  0  0  0  0  0  0  0  0  0  0  0
    2.0598   -2.7993   -4.6109 H   0  0  0  0  0  0  0  0  0  0  0  0
    1.1852   -4.1363   -5.3676 H   0  0  0  0  0  0  0  0  0  0  0  0
    0.2994   -2.7211   -4.7690 H   0  0  0  0  0  0  0  0  0  0  0  0
    2.0878   -6.1755   -3.5708 N   0  0  0  0  0  0  0  0  0  0  0  0
    3.1001   -7.1992   -3.4557 C   0  0  0  0  0  0  0  0  0  0  0  0
    1.2698   -6.3793   -4.1374 H   0  0  0  0  0  0  0  0  0  0  0  0
    3.8397   -7.0763   -4.2606 H   0  0  0  0  0  0  0  0  0  0  0  0
    3.6014   -7.1110   -2.4806 H   0  0  0  0  0  0  0  0  0  0  0  0
    2.6301   -8.1903   -3.5381 H   0  0  0  0  0  0  0  0  0  0  0  0
  1  3  1  0  0  0  0
  1  7  1  0  0  0  0
  1  2  2  0  0  0  0
 18 19  1  0  0  0  0
 19 24  1  0  0  0  0
 19 20  2  0  0  0  0
 25 26  1  0  0  0  0
 26 34  1  0  0  0  0
 26 27  2  0  0  0  0
  8  9  1  0  0  0  0
  9 17  1  0  0  0  0
  9 10  2  0  0  0  0
 25 28  1  0  0  0  0
  8 11  1  0  0  0  0
 34 35  1  0  0  0  0
 17 18  1  0  0  0  0
 24 25  1  0  0  0  0
  7  8  1  0  0  0  0
  3  4  1  0  0  0  0
  3  5  1  0  0  0  0
  3  6  1  0  0  0  0
 28 31  1  0  0  0  0
 28 32  1  0  0  0  0
 28 33  1  0  0  0  0
 11 14  1  0  0  0  0
 11 15  1  0  0  0  0
 11 16  1  0  0  0  0
 35 37  1  0  0  0  0
 35 38  1  0  0  0  0
 35 39  1  0  0  0  0
 18 22  1  0  0  0  0
 18 23  1  0  0  0  0
 25 30  1  0  0  0  0
  8 13  1  0  0  0  0
 34 36  1  0  0  0  0
 17 21  1  0  0  0  0
  7 12  1  0  0  0  0
 24 29  1  0  0  0  0
M  END
$$$$

  -OEChem-02062319033D

 39 38  0     1  0  0  0  0  0999 V2000
   -3.5200   -4.0268   -1.6943 C   0  0  0  0  0  0  0  0  0  0  0  0
   -2.8702   -4.8827   -1.1054 O   0  0  0  0  0  0  0  0  0  0  0  0
   -4.9704   -4.2579   -1.9614 C   0  0  0  0  0  0  0  0  0  0  0  0
   -5.1456   -4.7573   -2.9278 H   0  0  0  0  0  0  0  0  0  0  0  0
   -5.4379   -4.9112   -1.2072 H   0  0  0  0  0  0  0  0  0  0  0  0
   -5.5954   -3.3510   -1.9864 H   0  0  0  0  0  0  0  0  0  0  0  0
   -3.0424   -2.8131   -2.1606 N   0  0  0  0  0  0  0  0  0  0  0  0
   -1.6755   -2.3891   -2.0077 C   0  0  2  0  0  0  0  0  0  0  0  0
   -1.5782   -1.5673   -0.7292 C   0  0  0  0  0  0  0  0  0  0  0  0
   -2.5448   -1.0064   -0.2171 O   0  0  0  0  0  0  0  0  0  0  0  0
   -1.2087   -1.5823   -3.2094 C   0  0  0  0  0  0  0  0  0  0  0  0
   -3.6915   -2.1888   -2.6360 H   0  0  0  0  0  0  0  0  0  0  0  0
   -1.0721   -3.2977   -1.9053 H   0  0  0  0  0  0  0  0  0  0  0  0
   -1.8017   -0.6681   -3.3281 H   0  0  0  0  0  0  0  0  0  0  0  0
   -0.1601   -1.2849   -3.1045 H   0  0  0  0  0  0  0  0  0  0  0  0
   -1.3074   -2.1646   -4.1319 H   0  0  0  0  0  0  0  0  0  0  0  0
   -0.2835   -1.5112   -0.2725 N   0  0  0  0  0  0  0  0  0  0  0  0
    0.7295   -0.6650   -0.9199 C   0  0  0  0  0  0  0  0  0  0  0  0
    0.8967   -1.0864   -2.3574 C   0  0  0  0  0  0  0  0  0  0  0  0
    0.9537   -0.2919   -3.2923 O   0  0  0  0  0  0  0  0  0  0  0  0
    0.0097   -2.0156    0.5445 H   0  0  0  0  0  0  0  0  0  0  0  0
    1.6810   -0.7737   -0.3910 H   0  0  0  0  0  0  0  0  0  0  0  0
    0.4073    0.3794   -0.8746 H   0  0  0  0  0  0  0  0  0  0  0  0
    0.9731   -2.4697   -2.4799 N   0  0  0  0  0  0  0  0  0  0  0  0
    1.1308   -3.1476   -3.7397 C   0  0  2  0  0  0  0  0  0  0  0  0
    2.3969   -3.9907   -3.6649 C   0  0  0  0  0  0  0  0  0  0  0  0
    3.3119   -3.7585   -2.8775 O   0  0  0  0  0  0  0  0  0  0  0  0
    1.2026   -2.1603   -4.8941 C   0  0  0  0  0  0  0  0  0  0  0  0
    0.9144   -3.0329   -1.6332 H   0  0  0  0  0  0  0  0  0  0  0  0
    0.2611   -3.8033   -3.8570 H   0  0  0  0  0  0  0  0  0  0  0  0
    2.0678   -1.4948   -4.7939 H   0  0  0  0  0  0  0  0  0  0  0  0
    1.2939   -2.6785   -5.8544 H   0  0  0  0  0  0  0  0  0  0  0  0
    0.3042   -1.5345   -4.9283 H   0  0  0  0  0  0  0  0  0  0  0  0
    2.4039   -5.0068   -4.6102 N   0  0  0  0  0  0  0  0  0  0  0  0
    3.5015   -5.9353   -4.7486 C   0  0  0  0  0  0  0  0  0  0  0  0
    1.5943   -5.1373   -5.2095 H   0  0  0  0  0  0  0  0  0  0  0  0
    4.2108   -5.5561   -5.4990 H   0  0  0  0  0  0  0  0  0  0  0  0
    4.0141   -6.0437   -3.7815 H   0  0  0  0  0  0  0  0  0  0  0  0
    3.1155   -6.9137   -5.0707 H   0  0  0  0  0  0  0  0  0  0  0  0
  1  3  1  0  0  0  0
  1  7  1  0  0  0  0
  1  2  2  0  0  0  0
 18 19  1  0  0  0  0
 19 24  1  0  0  0  0
 19 20  2  0  0  0  0
 25 26  1  0  0  0  0
 26 34  1  0  0  0  0
 26 27  2  0  0  0  0
  8  9  1  0  0  0  0
  9 17  1  0  0  0  0
  9 10  2  0  0  0  0
 25 28  1  0  0  0  0
  8 11  1  0  0  0  0
 34 35  1  0  0  0  0
 17 18  1  0  0  0  0
 24 25  1  0  0  0  0
  7  8  1  0  0  0  0
  3  4  1  0  0  0  0
  3  5  1  0  0  0  0
  3  6  1  0  0  0  0
 28 31  1  0  0  0  0
 28 32  1  0  0  0  0
 28 33  1  0  0  0  0
 11 14  1  0  0  0  0
 11 15  1  0  0  0  0
 11 16  1  0  0  0  0
 35 37  1  0  0  0  0
 35 38  1  0  0  0  0
 35 39  1  0  0  0  0
 18 22  1  0  0  0  0
 18 23  1  0  0  0  0
 25 30  1  0  0  0  0
  8 13  1  0  0  0  0
 34 36  1  0  0  0  0
 17 21  1  0  0  0  0
  7 12  1  0  0  0  0
 24 29  1  0  0  0  0
M  END
$$$$

  -OEChem-02062319033D

 39 38  0     1  0  0  0  0  0999 V2000
   -3.5200   -4.0268   -1.6943 C   0  0  0  0  0  0  0  0  0  0  0  0
   -2.8702   -4.8827   -1.1054 O   0  0  0  0  0  0  0  0  0  0  0  0
   -4.9704   -4.2579   -1.9614 C   0  0  0  0  0  0  0  0  0  0  0  0
   -5.1456   -4.7573   -2.9278 H   0  0  0  0  0  0  0  0  0  0  0  0
   -5.4379   -4.9112   -1.2072 H   0  0  0  0  0  0  0  0  0  0  0  0
   -5.5954   -3.3510   -1.9864 H   0  0  0  0  0  0  0  0  0  0  0  0
   -3.0424   -2.8131   -2.1606 N   0  0  0  0  0  0  0  0  0  0  0  0
   -1.6755   -2.3891   -2.0077 C   0  0  2  0  0  0  0  0  0  0  0  0
   -1.5782   -1.5673   -0.7292 C   0  0  0  0  0  0  0  0  0  0  0  0
   -2.5448   -1.0064   -0.2171 O   0  0  0  0  0  0  0  0  0  0  0  0
   -1.2087   -1.5823   -3.2094 C   0  0  0  0  0  0  0  0  0  0  0  0
   -3.6915   -2.1888   -2.6360 H   0  0  0  0  0  0  0  0  0  0  0  0
   -1.0721   -3.2977   -1.9053 H   0  0  0  0  0  0  0  0  0  0  0  0
   -1.8017   -0.6681   -3.3281 H   0  0  0  0  0  0  0  0  0  0  0  0
   -0.1601   -1.2849   -3.1045 H   0  0  0  0  0  0  0  0  0  0  0  0
   -1.3074   -2.1646   -4.1319 H   0  0  0  0  0  0  0  0  0  0  0  0
   -0.2835   -1.5112   -0.2725 N   0  0  0  0  0  0  0  0  0  0  0  0
    0.6402   -0.4477   -0.6934 C   0  0  0  0  0  0  0  0  0  0  0  0
    0.8120   -0.4902   -2.1903 C   0  0  0  0  0  0  0  0  0  0  0  0
    0.7816    0.5097   -2.9027 O   0  0  0  0  0  0  0  0  0  0  0  0
    0.0686   -2.1717    0.3966 H   0  0  0  0  0  0  0  0  0  0  0  0
    1.6085   -0.5983   -0.2070 H   0  0  0  0  0  0  0  0  0  0  0  0
    0.2316    0.5220   -0.3944 H   0  0  0  0  0  0  0  0  0  0  0  0
    1.0027   -1.7900   -2.6471 N   0  0  0  0  0  0  0  0  0  0  0  0
    1.1904   -2.1244   -4.0343 C   0  0  2  0  0  0  0  0  0  0  0  0
    2.5247   -2.8465   -4.1676 C   0  0  0  0  0  0  0  0  0  0  0  0
    3.4332   -2.7339   -3.3472 O   0  0  0  0  0  0  0  0  0  0  0  0
    1.1538   -0.8834   -4.9125 C   0  0  0  0  0  0  0  0  0  0  0  0
    1.0099   -2.5453   -1.9636 H   0  0  0  0  0  0  0  0  0  0  0  0
    0.3771   -2.8052   -4.3084 H   0  0  0  0  0  0  0  0  0  0  0  0
    1.9614   -0.1894   -4.6526 H   0  0  0  0  0  0  0  0  0  0  0  0
    1.2682   -1.1423   -5.9702 H   0  0  0  0  0  0  0  0  0  0  0  0
    0.2051   -0.3491   -4.7928 H   0  0  0  0  0  0  0  0  0  0  0  0
    2.5977   -3.5973   -5.3325 N   0  0  0  0  0  0  0  0  0  0  0  0
    3.7668   -4.3647   -5.6935 C   0  0  0  0  0  0  0  0  0  0  0  0
    1.7895   -3.6482   -5.9457 H   0  0  0  0  0  0  0  0  0  0  0  0
    4.4254   -3.7537   -6.3284 H   0  0  0  0  0  0  0  0  0  0  0  0
    4.3072   -4.6600   -4.7821 H   0  0  0  0  0  0  0  0  0  0  0  0
    3.4584   -5.2651   -6.2449 H   0  0  0  0  0  0  0  0  0  0  0  0
  1  3  1  0  0  0  0
  1  7  1  0  0  0  0
  1  2  2  0  0  0  0
 18 19  1  0  0  0  0
 19 24  1  0  0  0  0
 19 20  2  0  0  0  0
 25 26  1  0  0  0  0
 26 34  1  0  0  0  0
 26 27  2  0  0  0  0
  8  9  1  0  0  0  0
  9 17  1  0  0  0  0
  9 10  2  0  0  0  0
 25 28  1  0  0  0  0
  8 11  1  0  0  0  0
 34 35  1  0  0  0  0
 17 18  1  0  0  0  0
 24 25  1  0  0  0  0
  7  8  1  0  0  0  0
  3  4  1  0  0  0  0
  3  5  1  0  0  0  0
  3  6  1  0  0  0  0
 28 31  1  0  0  0  0
 28 32  1  0  0  0  0
 28 33  1  0  0  0  0
 11 14  1  0  0  0  0
 11 15  1  0  0  0  0
 11 16  1  0  0  0  0
 35 37  1  0  0  0  0
 35 38  1  0  0  0  0
 35 39  1  0  0  0  0
 18 22  1  0  0  0  0
 18 23  1  0  0  0  0
 25 30  1  0  0  0  0
  8 13  1  0  0  0  0
 34 36  1  0  0  0  0
 17 21  1  0  0  0  0
  7 12  1  0  0  0  0
 24 29  1  0  0  0  0
M  END
$$$$

  -OEChem-02062319033D

 39 38  0     1  0  0  0  0  0999 V2000
   -3.5200   -4.0268   -1.6943 C   0  0  0  0  0  0  0  0  0  0  0  0
   -2.8702   -4.8827   -1.1054 O   0  0  0  0  0  0  0  0  0  0  0  0
   -4.9704   -4.2579   -1.9614 C   0  0  0  0  0  0  0  0  0  0  0  0
   -5.1456   -4.7573   -2.9278 H   0  0  0  0  0  0  0  0  0  0  0  0
   -5.4379   -4.9112   -1.2072 H   0  0  0  0  0  0  0  0  0  0  0  0
   -5.5954   -3.3510   -1.9864 H   0  0  0  0  0  0  0  0  0  0  0  0
   -3.0424   -2.8131   -2.1606 N   0  0  0  0  0  0  0  0  0  0  0  0
   -1.6755   -2.3891   -2.0077 C   0  0  2  0  0  0  0  0  0  0  0  0
   -1.5782   -1.5673   -0.7292 C   0  0  0  0  0  0  0  0  0  0  0  0
   -2.5448   -1.0064   -0.2171 O   0  0  0  0  0  0  0  0  0  0  0  0
   -1.2087   -1.5823   -3.2094 C   0  0  0  0  0  0  0  0  0  0  0  0
   -3.6915   -2.1888   -2.6360 H   0  0  0  0  0  0  0  0  0  0  0  0
   -1.0721   -3.2977   -1.9053 H   0  0  0  0  0  0  0  0  0  0  0  0
   -1.8017   -0.6681   -3.3281 H   0  0  0  0  0  0  0  0  0  0  0  0
   -0.1601   -1.2849   -3.1045 H   0  0  0  0  0  0  0  0  0  0  0  0
   -1.3074   -2.1646   -4.1319 H   0  0  0  0  0  0  0  0  0  0  0  0
   -0.2835   -1.5112   -0.2725 N   0  0  0  0  0  0  0  0  0  0  0  0
    0.5376   -0.3007   -0.4207 C   0  0  0  0  0  0  0  0  0  0  0  0
    0.6806    0.0375   -1.8826 C   0  0  0  0  0  0  0  0  0  0  0  0
    0.5504    1.1742   -2.3291 O   0  0  0  0  0  0  0  0  0  0  0  0
    0.1375   -2.2813    0.2150 H   0  0  0  0  0  0  0  0  0  0  0  0
    1.5253   -0.4801    0.0143 H   0  0  0  0  0  0  0  0  0  0  0  0
    0.0548    0.5275    0.1062 H   0  0  0  0  0  0  0  0  0  0  0  0
    0.9710   -1.0902   -2.6431 N   0  0  0  0  0  0  0  0  0  0  0  0
    1.1569   -1.0592   -4.0699 C   0  0  2  0  0  0  0  0  0  0  0  0
    2.5444   -1.6076   -4.3755 C   0  0  0  0  0  0  0  0  0  0  0  0
    3.4573   -1.6193   -3.5523 O   0  0  0  0  0  0  0  0  0  0  0  0
    0.9966    0.3502   -4.6183 C   0  0  0  0  0  0  0  0  0  0  0  0
    1.0566   -1.9855   -2.1648 H   0  0  0  0  0  0  0  0  0  0  0  0
    0.3985   -1.7211   -4.5021 H   0  0  0  0  0  0  0  0  0  0  0  0
    1.7479    1.0279   -4.1966 H   0  0  0  0  0  0  0  0  0  0  0  0
    1.1100    0.3675   -5.7073 H   0  0  0  0  0  0  0  0  0  0  0  0
    0.0088    0.7543   -4.3718 H   0  0  0  0  0  0  0  0  0  0  0  0
    2.6560   -2.0430   -5.6885 N   0  0  0  0  0  0  0  0  0  0  0  0
    3.8780   -2.5943   -6.2259 C   0  0  0  0  0  0  0  0  0  0  0  0
    1.8422   -2.0135   -6.2956 H   0  0  0  0  0  0  0  0  0  0  0  0
    4.4688   -1.7921   -6.6922 H   0  0  0  0  0  0  0  0  0  0  0  0
    4.4607   -3.0542   -5.4142 H   0  0  0  0  0  0  0  0  0  0  0  0
    3.6353   -3.3568   -6.9807 H   0  0  0  0  0  0  0  0  0  0  0  0
  1  3  1  0  0  0  0
  1  7  1  0  0  0  0
  1  2  2  0  0  0  0
 18 19  1  0  0  0  0
 19 24  1  0  0  0  0
 19 20  2  0  0  0  0
 25 26  1  0  0  0  0
 26 34  1  0  0  0  0
 26 27  2  0  0  0  0
  8  9  1  0  0  0  0
  9 17  1  0  0  0  0
  9 10  2  0  0  0  0
 25 28  1  0  0  0  0
  8 11  1  0  0  0  0
 34 35  1  0  0  0  0
 17 18  1  0  0  0  0
 24 25  1  0  0  0  0
  7  8  1  0  0  0  0
  3  4  1  0  0  0  0
  3  5  1  0  0  0  0
  3  6  1  0  0  0  0
 28 31  1  0  0  0  0
 28 32  1  0  0  0  0
 28 33  1  0  0  0  0
 11 14  1  0  0  0  0
 11 15  1  0  0  0  0
 11 16  1  0  0  0  0
 35 37  1  0  0  0  0
 35 38  1  0  0  0  0
 35 39  1  0  0  0  0
 18 22  1  0  0  0  0
 18 23  1  0  0  0  0
 25 30  1  0  0  0  0
  8 13  1  0  0  0  0
 34 36  1  0  0  0  0
 17 21  1  0  0  0  0
  7 12  1  0  0  0  0
 24 29  1  0  0  0  0
M  END
$$$$

  -OEChem-02062319033D

 39 38  0     1  0  0  0  0  0999 V2000
   -3.5200   -4.0268   -1.6943 C   0  0  0  0  0  0  0  0  0  0  0  0
   -2.8702   -4.8827   -1.1054 O   0  0  0  0  0  0  0  0  0  0  0  0
   -4.9704   -4.2579   -1.9614 C   0  0  0  0  0  0  0  0  0  0  0  0
   -5.1456   -4.7573   -2.9278 H   0  0  0  0  0  0  0  0  0  0  0  0
   -5.4379   -4.9112   -1.2072 H   0  0  0  0  0  0  0  0  0  0  0  0
   -5.5954   -3.3510   -1.9864 H   0  0  0  0  0  0  0  0  0  0  0  0
   -3.0424   -2.8131   -2.1606 N   0  0  0  0  0  0  0  0  0  0  0  0
   -1.6755   -2.3891   -2.0077 C   0  0  2  0  0  0  0  0  0  0  0  0
   -1.5782   -1.5673   -0.7292 C   0  0  0  0  0  0  0  0  0  0  0  0
   -2.5448   -1.0064   -0.2171 O   0  0  0  0  0  0  0  0  0  0  0  0
   -1.2087   -1.5823   -3.2094 C   0  0  0  0  0  0  0  0  0  0  0  0
   -3.6915   -2.1888   -2.6360 H   0  0  0  0  0  0  0  0  0  0  0  0
   -1.0721   -3.2977   -1.9053 H   0  0  0  0  0  0  0  0  0  0  0  0
   -1.8017   -0.6681   -3.3281 H   0  0  0  0  0  0  0  0  0  0  0  0
   -0.1601   -1.2849   -3.1045 H   0  0  0  0  0  0  0  0  0  0  0  0
   -1.3074   -2.1646   -4.1319 H   0  0  0  0  0  0  0  0  0  0  0  0
   -0.2835   -1.5112   -0.2725 N   0  0  0  0  0  0  0  0  0  0  0  0
    0.4288   -0.2341   -0.1203 C   0  0  0  0  0  0  0  0  0  0  0  0
    0.5115    0.4610   -1.4553 C   0  0  0  0  0  0  0  0  0  0  0  0
    0.2760    1.6563   -1.6105 O   0  0  0  0  0  0  0  0  0  0  0  0
    0.2115   -2.3370    0.0121 H   0  0  0  0  0  0  0  0  0  0  0  0
    1.4371   -0.4269    0.2578 H   0  0  0  0  0  0  0  0  0  0  0  0
   -0.1112    0.3956    0.5929 H   0  0  0  0  0  0  0  0  0  0  0  0
    0.8802   -0.4179   -2.4682 N   0  0  0  0  0  0  0  0  0  0  0  0
    1.0324   -0.0244   -3.8442 C   0  0  2  0  0  0  0  0  0  0  0  0
    2.4547   -0.3586   -4.2743 C   0  0  0  0  0  0  0  0  0  0  0  0
    3.3825   -0.4905   -3.4789 O   0  0  0  0  0  0  0  0  0  0  0  0
    0.7417    1.4565   -4.0316 C   0  0  0  0  0  0  0  0  0  0  0  0
    1.0515   -1.3917   -2.2232 H   0  0  0  0  0  0  0  0  0  0  0  0
    0.3239   -0.6249   -4.4251 H   0  0  0  0  0  0  0  0  0  0  0  0
    1.4416    2.0742   -3.4570 H   0  0  0  0  0  0  0  0  0  0  0  0
    0.8301    1.7482   -5.0833 H   0  0  0  0  0  0  0  0  0  0  0  0
   -0.2713    1.7006   -3.6940 H   0  0  0  0  0  0  0  0  0  0  0  0
    2.5748   -0.4499   -5.6540 N   0  0  0  0  0  0  0  0  0  0  0  0
    3.8275   -0.7448   -6.3097 C   0  0  0  0  0  0  0  0  0  0  0  0
    1.7487   -0.3447   -6.2355 H   0  0  0  0  0  0  0  0  0  0  0  0
    4.3381    0.1952   -6.5657 H   0  0  0  0  0  0  0  0  0  0  0  0
    4.4642   -1.3358   -5.6348 H   0  0  0  0  0  0  0  0  0  0  0  0
    3.6343   -1.3189   -7.2278 H   0  0  0  0  0  0  0  0  0  0  0  0
  1  3  1  0  0  0  0
  1  7  1  0  0  0  0
  1  2  2  0  0  0  0
 18 19  1  0  0  0  0
 19 24  1  0  0  0  0
 19 20  2  0  0  0  0
 25 26  1  0  0  0  0
 26 34  1  0  0  0  0
 26 27  2  0  0  0  0
  8  9  1  0  0  0  0
  9 17  1  0  0  0  0
  9 10  2  0  0  0  0
 25 28  1  0  0  0  0
  8 11  1  0  0  0  0
 34 35  1  0  0  0  0
 17 18  1  0  0  0  0
 24 25  1  0  0  0  0
  7  8  1  0  0  0  0
  3  4  1  0  0  0  0
  3  5  1  0  0  0  0
  3  6  1  0  0  0  0
 28 31  1  0  0  0  0
 28 32  1  0  0  0  0
 28 33  1  0  0  0  0
 11 14  1  0  0  0  0
 11 15  1  0  0  0  0
 11 16  1  0  0  0  0
 35 37  1  0  0  0  0
 35 38  1  0  0  0  0
 35 39  1  0  0  0  0
 18 22  1  0  0  0  0
 18 23  1  0  0  0  0
 25 30  1  0  0  0  0
  8 13  1  0  0  0  0
 34 36  1  0  0  0  0
 17 21  1  0  0  0  0
  7 12  1  0  0  0  0
 24 29  1  0  0  0  0
M  END
$$$$

  -OEChem-02062319033D

 39 38  0     1  0  0  0  0  0999 V2000
   -3.5200   -4.0268   -1.6943 C   0  0  0  0  0  0  0  0  0  0  0  0
   -2.8702   -4.8827   -1.1054 O   0  0  0  0  0  0  0  0  0  0  0  0
   -4.9704   -4.2579   -1.9614 C   0  0  0  0  0  0  0  0  0  0  0  0
   -5.1456   -4.7573   -2.9278 H   0  0  0  0  0  0  0  0  0  0  0  0
   -5.4379   -4.9112   -1.2072 H   0  0  0  0  0  0  0  0  0  0  0  0
   -5.5954   -3.3510   -1.9864 H   0  0  0  0  0  0  0  0  0  0  0  0
   -3.0424   -2.8131   -2.1606 N   0  0  0  0  0  0  0  0  0  0  0  0
   -1.6755   -2.3891   -2.0077 C   0  0  2  0  0  0  0  0  0  0  0  0
   -1.5782   -1.5673   -0.7292 C   0  0  0  0  0  0  0  0  0  0  0  0
   -2.5448   -1.0064   -0.2171 O   0  0  0  0  0  0  0  0  0  0  0  0
   -1.2087   -1.5823   -3.2094 C   0  0  0  0  0  0  0  0  0  0  0  0
   -3.6915   -2.1888   -2.6360 H   0  0  0  0  0  0  0  0  0  0  0  0
   -1.0721   -3.2977   -1.9053 H   0  0  0  0  0  0  0  0  0  0  0  0
   -1.8017   -0.6681   -3.3281 H   0  0  0  0  0  0  0  0  0  0  0  0
   -0.1601   -1.2849   -3.1045 H   0  0  0  0  0  0  0  0  0  0  0  0
   -1.3074   -2.1646   -4.1319 H   0  0  0  0  0  0  0  0  0  0  0  0
   -0.2835   -1.5112   -0.2725 N   0  0  0  0  0  0  0  0  0  0  0  0
    0.3211   -0.2524    0.1872 C   0  0  0  0  0  0  0  0  0  0  0  0
    0.3162    0.7513   -0.9375 C   0  0  0  0  0  0  0  0  0  0  0  0
   -0.0229    1.9232   -0.7960 O   0  0  0  0  0  0  0  0  0  0  0  0
    0.2856   -2.3349   -0.1983 H   0  0  0  0  0  0  0  0  0  0  0  0
    1.3499   -0.4426    0.5068 H   0  0  0  0  0  0  0  0  0  0  0  0
   -0.2550    0.1351    1.0326 H   0  0  0  0  0  0  0  0  0  0  0  0
    0.7365    0.1810   -2.1344 N   0  0  0  0  0  0  0  0  0  0  0  0
    0.8256    0.9094   -3.3725 C   0  0  2  0  0  0  0  0  0  0  0  0
    2.2616    0.8154   -3.8711 C   0  0  0  0  0  0  0  0  0  0  0  0
    3.2140    0.5755   -3.1319 O   0  0  0  0  0  0  0  0  0  0  0  0
    0.4066    2.3601   -3.1924 C   0  0  0  0  0  0  0  0  0  0  0  0
    0.9949   -0.8043   -2.1347 H   0  0  0  0  0  0  0  0  0  0  0  0
    0.1583    0.4089   -4.0826 H   0  0  0  0  0  0  0  0  0  0  0  0
    1.0637    2.8780   -2.4843 H   0  0  0  0  0  0  0  0  0  0  0  0
    0.4476    2.9056   -4.1410 H   0  0  0  0  0  0  0  0  0  0  0  0
   -0.6161    2.4253   -2.8055 H   0  0  0  0  0  0  0  0  0  0  0  0
    2.3597    1.0736   -5.2312 N   0  0  0  0  0  0  0  0  0  0  0  0
    3.6186    1.0577   -5.9389 C   0  0  0  0  0  0  0  0  0  0  0  0
    1.5155    1.2446   -5.7696 H   0  0  0  0  0  0  0  0  0  0  0  0
    4.0422    2.0727   -5.9575 H   0  0  0  0  0  0  0  0  0  0  0  0
    4.3173    0.3782   -5.4289 H   0  0  0  0  0  0  0  0  0  0  0  0
    3.4553    0.7098   -6.9696 H   0  0  0  0  0  0  0  0  0  0  0  0
  1  3  1  0  0  0  0
  1  7  1  0  0  0  0
  1  2  2  0  0  0  0
 18 19  1  0  0  0  0
 19 24  1  0  0  0  0
 19 20  2  0  0  0  0
 25 26  1  0  0  0  0
 26 34  1  0  0  0  0
 26 27  2  0  0  0  0
  8  9  1  0  0  0  0
  9 17  1  0  0  0  0
  9 10  2  0  0  0  0
 25 28  1  0  0  0  0
  8 11  1  0  0  0  0
 34 35  1  0  0  0  0
 17 18  1  0  0  0  0
 24 25  1  0  0  0  0
  7  8  1  0  0  0  0
  3  4  1  0  0  0  0
  3  5  1  0  0  0  0
  3  6  1  0  0  0  0
 28 31  1  0  0  0  0
 28 32  1  0  0  0  0
 28 33  1  0  0  0  0
 11 14  1  0  0  0  0
 11 15  1  0  0  0  0
 11 16  1  0  0  0  0
 35 37  1  0  0  0  0
 35 38  1  0  0  0  0
 35 39  1  0  0  0  0
 18 22  1  0  0  0  0
 18 23  1  0  0  0  0
 25 30  1  0  0  0  0
  8 13  1  0  0  0  0
 34 36  1  0  0  0  0
 17 21  1  0  0  0  0
  7 12  1  0  0  0  0
 24 29  1  0  0  0  0
M  END
$$$$

  -OEChem-02062319033D

 39 38  0     1  0  0  0  0  0999 V2000
   -3.5200   -4.0268   -1.6943 C   0  0  0  0  0  0  0  0  0  0  0  0
   -2.8702   -4.8827   -1.1054 O   0  0  0  0  0  0  0  0  0  0  0  0
   -4.9704   -4.2579   -1.9614 C   0  0  0  0  0  0  0  0  0  0  0  0
   -5.1456   -4.7573   -2.9278 H   0  0  0  0  0  0  0  0  0  0  0  0
   -5.4379   -4.9112   -1.2072 H   0  0  0  0  0  0  0  0  0  0  0  0
   -5.5954   -3.3510   -1.9864 H   0  0  0  0  0  0  0  0  0  0  0  0
   -3.0424   -2.8131   -2.1606 N   0  0  0  0  0  0  0  0  0  0  0  0
   -1.6755   -2.3891   -2.0077 C   0  0  2  0  0  0  0  0  0  0  0  0
   -1.5782   -1.5673   -0.7292 C   0  0  0  0  0  0  0  0  0  0  0  0
   -2.5448   -1.0064   -0.2171 O   0  0  0  0  0  0  0  0  0  0  0  0
   -1.2087   -1.5823   -3.2094 C   0  0  0  0  0  0  0  0  0  0  0  0
   -3.6915   -2.1888   -2.6360 H   0  0  0  0  0  0  0  0  0  0  0  0
   -1.0721   -3.2977   -1.9053 H   0  0  0  0  0  0  0  0  0  0  0  0
   -1.8017   -0.6681   -3.3281 H   0  0  0  0  0  0  0  0  0  0  0  0
   -0.1601   -1.2849   -3.1045 H   0  0  0  0  0  0  0  0  0  0  0  0
   -1.3074   -2.1646   -4.1319 H   0  0  0  0  0  0  0  0  0  0  0  0
   -0.2835   -1.5112   -0.2725 N   0  0  0  0  0  0  0  0  0  0  0  0
    0.2219   -0.3543    0.4809 C   0  0  0  0  0  0  0  0  0  0  0  0
    0.1081    0.8885   -0.3645 C   0  0  0  0  0  0  0  0  0  0  0  0
   -0.3260    1.9565    0.0591 O   0  0  0  0  0  0  0  0  0  0  0  0
    0.3548   -2.2752   -0.4017 H   0  0  0  0  0  0  0  0  0  0  0  0
    1.2697   -0.5259    0.7445 H   0  0  0  0  0  0  0  0  0  0  0  0
   -0.3669   -0.2360    1.3953 H   0  0  0  0  0  0  0  0  0  0  0  0
    0.5497    0.6658   -1.6644 N   0  0  0  0  0  0  0  0  0  0  0  0
    0.5504    1.6785   -2.6870 C   0  0  2  0  0  0  0  0  0  0  0  0
    1.9783    1.8345   -3.1933 C   0  0  0  0  0  0  0  0  0  0  0  0
    2.9631    1.5060   -2.5350 O   0  0  0  0  0  0  0  0  0  0  0  0
    0.0139    2.9995   -2.1580 C   0  0  0  0  0  0  0  0  0  0  0  0
    0.8906   -0.2634   -1.9054 H   0  0  0  0  0  0  0  0  0  0  0  0
   -0.0870    1.3096   -3.4980 H   0  0  0  0  0  0  0  0  0  0  0  0
    0.6397    3.3848   -1.3447 H   0  0  0  0  0  0  0  0  0  0  0  0
   -0.0116    3.7609   -2.9445 H   0  0  0  0  0  0  0  0  0  0  0  0
   -1.0022    2.8789   -1.7670 H   0  0  0  0  0  0  0  0  0  0  0  0
    2.0253    2.4236   -4.4491 N   0  0  0  0  0  0  0  0  0  0  0  0
    3.2657    2.6905   -5.1391 C   0  0  0  0  0  0  0  0  0  0  0  0
    1.1584    2.6461   -4.9294 H   0  0  0  0  0  0  0  0  0  0  0  0
    3.6013    3.7124   -4.9091 H   0  0  0  0  0  0  0  0  0  0  0  0
    4.0301    1.9710   -4.8104 H   0  0  0  0  0  0  0  0  0  0  0  0
    3.1107    2.5909   -6.2235 H   0  0  0  0  0  0  0  0  0  0  0  0
  1  3  1  0  0  0  0
  1  7  1  0  0  0  0
  1  2  2  0  0  0  0
 18 19  1  0  0  0  0
 19 24  1  0  0  0  0
 19 20  2  0  0  0  0
 25 26  1  0  0  0  0
 26 34  1  0  0  0  0
 26 27  2  0  0  0  0
  8  9  1  0  0  0  0
  9 17  1  0  0  0  0
  9 10  2  0  0  0  0
 25 28  1  0  0  0  0
  8 11  1  0  0  0  0
 34 35  1  0  0  0  0
 17 18  1  0  0  0  0
 24 25  1  0  0  0  0
  7  8  1  0  0  0  0
  3  4  1  0  0  0  0
  3  5  1  0  0  0  0
  3  6  1  0  0  0  0
 28 31  1  0  0  0  0
 28 32  1  0  0  0  0
 28 33  1  0  0  0  0
 11 14  1  0  0  0  0
 11 15  1  0  0  0  0
 11 16  1  0  0  0  0
 35 37  1  0  0  0  0
 35 38  1  0  0  0  0
 35 39  1  0  0  0  0
 18 22  1  0  0  0  0
 18 23  1  0  0  0  0
 25 30  1  0  0  0  0
  8 13  1  0  0  0  0
 34 36  1  0  0  0  0
 17 21  1  0  0  0  0
  7 12  1  0  0  0  0
 24 29  1  0  0  0  0
M  END
$$$$

  -OEChem-02062319033D

 39 38  0     1  0  0  0  0  0999 V2000
   -3.5200   -4.0268   -1.6943 C   0  0  0  0  0  0  0  0  0  0  0  0
   -2.8702   -4.8827   -1.1054 O   0  0  0  0  0  0  0  0  0  0  0  0
   -4.9704   -4.2579   -1.9614 C   0  0  0  0  0  0  0  0  0  0  0  0
   -5.1456   -4.7573   -2.9278 H   0  0  0  0  0  0  0  0  0  0  0  0
   -5.4379   -4.9112   -1.2072 H   0  0  0  0  0  0  0  0  0  0  0  0
   -5.5954   -3.3510   -1.9864 H   0  0  0  0  0  0  0  0  0  0  0  0
   -3.0424   -2.8131   -2.1606 N   0  0  0  0  0  0  0  0  0  0  0  0
   -1.6755   -2.3891   -2.0077 C   0  0  2  0  0  0  0  0  0  0  0  0
   -1.5782   -1.5673   -0.7292 C   0  0  0  0  0  0  0  0  0  0  0  0
   -2.5448   -1.0064   -0.2171 O   0  0  0  0  0  0  0  0  0  0  0  0
   -1.2087   -1.5823   -3.2094 C   0  0  0  0  0  0  0  0  0  0  0  0
   -3.6915   -2.1888   -2.6360 H   0  0  0  0  0  0  0  0  0  0  0  0
   -1.0721   -3.2977   -1.9053 H   0  0  0  0  0  0  0  0  0  0  0  0
   -1.8017   -0.6681   -3.3281 H   0  0  0  0  0  0  0  0  0  0  0  0
   -0.1601   -1.2849   -3.1045 H   0  0  0  0  0  0  0  0  0  0  0  0
   -1.3074   -2.1646   -4.1319 H   0  0  0  0  0  0  0  0  0  0  0  0
   -0.2835   -1.5112   -0.2725 N   0  0  0  0  0  0  0  0  0  0  0  0
    0.1379   -0.5328    0.7408 C   0  0  0  0  0  0  0  0  0  0  0  0
   -0.0987    0.8635    0.2247 C   0  0  0  0  0  0  0  0  0  0  0  0
   -0.6126    1.7542    0.8963 O   0  0  0  0  0  0  0  0  0  0  0  0
    0.4143   -2.1620   -0.5844 H   0  0  0  0  0  0  0  0  0  0  0  0
    1.2019   -0.6713    0.9546 H   0  0  0  0  0  0  0  0  0  0  0  0
   -0.4392   -0.6926    1.6563 H   0  0  0  0  0  0  0  0  0  0  0  0
    0.3325    1.0033   -1.0902 N   0  0  0  0  0  0  0  0  0  0  0  0
    0.2257    2.2306   -1.8344 C   0  0  2  0  0  0  0  0  0  0  0  0
    1.6242    2.6292   -2.2870 C   0  0  0  0  0  0  0  0  0  0  0  0
    2.6470    2.2377   -1.7288 O   0  0  0  0  0  0  0  0  0  0  0  0
   -0.4094    3.3310   -0.9987 C   0  0  0  0  0  0  0  0  0  0  0  0
    0.7457    0.1942   -1.5509 H   0  0  0  0  0  0  0  0  0  0  0  0
   -0.3952    2.0159   -2.7110 H   0  0  0  0  0  0  0  0  0  0  0  0
    0.1985    3.5598   -0.1158 H   0  0  0  0  0  0  0  0  0  0  0  0
   -0.5161    4.2557   -1.5753 H   0  0  0  0  0  0  0  0  0  0  0  0
   -1.4031    3.0306   -0.6491 H   0  0  0  0  0  0  0  0  0  0  0  0
    1.5944    3.5080   -3.3608 N   0  0  0  0  0  0  0  0  0  0  0  0
    2.7928    4.0421   -3.9646 C   0  0  0  0  0  0  0  0  0  0  0  0
    0.7018    3.7642   -3.7723 H   0  0  0  0  0  0  0  0  0  0  0  0
    3.0455    5.0027   -3.4918 H   0  0  0  0  0  0  0  0  0  0  0  0
    3.6223    3.3339   -3.8216 H   0  0  0  0  0  0  0  0  0  0  0  0
    2.6238    4.1964   -5.0405 H   0  0  0  0  0  0  0  0  0  0  0  0
  1  3  1  0  0  0  0
  1  7  1  0  0  0  0
  1  2  2  0  0  0  0
 18 19  1  0  0  0  0
 19 24  1  0  0  0  0
 19 20  2  0  0  0  0
 25 26  1  0  0  0  0
 26 34  1  0  0  0  0
 26 27  2  0  0  0  0
  8  9  1  0  0  0  0
  9 17  1  0  0  0  0
  9 10  2  0  0  0  0
 25 28  1  0  0  0  0
  8 11  1  0  0  0  0
 34 35  1  0  0  0  0
 17 18  1  0  0  0  0
 24 25  1  0  0  0  0
  7  8  1  0  0  0  0
  3  4  1  0  0  0  0
  3  5  1  0  0  0  0
  3  6  1  0  0  0  0
 28 31  1  0  0  0  0
 28 32  1  0  0  0  0
 28 33  1  0  0  0  0
 11 14  1  0  0  0  0
 11 15  1  0  0  0  0
 11 16  1  0  0  0  0
 35 37  1  0  0  0  0
 35 38  1  0  0  0  0
 35 39  1  0  0  0  0
 18 22  1  0  0  0  0
 18 23  1  0  0  0  0
 25 30  1  0  0  0  0
  8 13  1  0  0  0  0
 34 36  1  0  0  0  0
 17 21  1  0  0  0  0
  7 12  1  0  0  0  0
 24 29  1  0  0  0  0
M  END
$$$$
