@<TRIPOS>MOLECULE
default_name
   36    35     1     0     0
SMALL
No Charge or Current Charge


@<TRIPOS>ATOM
      1 H1          26.1380    25.2140    24.5830 H          1 ACE       0.112300
      2 CH3         26.1240    26.2090    24.1390 C.3        1 ACE      -0.366200
      3 H2          25.4130    26.8350    24.6760 H          1 ACE       0.112300
      4 H3          25.8370    26.1350    23.0920 H          1 ACE       0.112300
      5 C           27.5060    26.8110    24.2430 C.2        1 ACE       0.597200
      6 O           28.4180    26.1820    24.7650 O.2        1 ACE      -0.567900
      7 N           27.6710    28.0390    23.7420 N.am       2 ARG      -0.347900
      8 H           26.8710    28.4900    23.3200 H          2 ARG       0.274700
      9 CA          28.9420    28.7800    23.7680 C.3        2 ARG      -0.263700
     10 HA          29.4760    28.5150    24.6820 H          2 ARG       0.156000
     11 CB          29.7870    28.3420    22.5550 C.3        2 ARG      -0.000700
     12 HB2         29.8880    27.2550    22.5750 H          2 ARG       0.032700
     13 HB3         29.2630    28.6170    21.6370 H          2 ARG       0.032700
     14 CG          31.1940    28.9570    22.5360 C.3        2 ARG       0.039000
     15 HG2         31.1210    30.0430    22.4630 H          2 ARG       0.028500
     16 HG3         31.7160    28.6920    23.4560 H          2 ARG       0.028500
     17 CD          31.9810    28.4240    21.3310 C.3        2 ARG       0.048600
     18 HD2         32.0420    27.3360    21.4080 H          2 ARG       0.068700
     19 HD3         31.4380    28.6830    20.4190 H          2 ARG       0.068700
     20 NE          33.3440    28.9910    21.2720 N.3        2 ARG      -0.529500
     21 HE          33.6000    29.6290    22.0060 H          2 ARG       0.345600
     22 CZ          34.2560    28.7390    20.3480 C.cat      2 ARG       0.807600
     23 NH1         34.0290    27.9280    19.3530 N.3        2 ARG      -0.862700
     24 HH11        33.1320    27.4800    19.2890 H          2 ARG       0.447800
     25 HH12        34.7320    27.7480    18.6600 H          2 ARG       0.447800
     26 NH2         35.4280    29.3050    20.4060 N.3        2 ARG      -0.862700
     27 HH21        35.6500    29.9380    21.1550 H          2 ARG       0.447800
     28 HH22        36.1170    29.1110    19.7030 H          2 ARG       0.447800
     29 C           28.6830    30.2880    23.7680 C.2        2 ARG       0.734100
     30 O           28.0080    30.7860    22.8750 O.2        2 ARG      -0.589400
     31 N           29.2500    31.0040    24.7440 N.am       3 NME      -0.415700
     32 H           29.7580    30.5080    25.4580 H          3 NME       0.271900
     33 CH3         29.1010    32.4530    24.8890 C.3        3 NME      -0.149000
     34 HH31        28.0550    32.6990    25.0840 H          3 NME       0.097600
     35 HH32        29.7120    32.8170    25.7160 H          3 NME       0.097600
     36 HH33        29.4070    32.9540    23.9680 H          3 NME       0.097600
@<TRIPOS>BOND
     1     5     6 2   
     2     5     7 am  
     3     2     3 1   
     4     2     4 1   
     5     2     5 1   
     6     1     2 1   
     7    29    30 2   
     8    29    31 am  
     9    26    27 1   
    10    26    28 1   
    11    23    24 1   
    12    23    25 1   
    13    22    23 1   
    14    22    26 1   
    15    20    21 1   
    16    20    22 2   
    17    17    18 1   
    18    17    19 1   
    19    17    20 1   
    20    14    15 1   
    21    14    16 1   
    22    14    17 1   
    23    11    12 1   
    24    11    13 1   
    25    11    14 1   
    26     9    10 1   
    27     9    11 1   
    28     9    29 1   
    29     7     8 1   
    30     7     9 1   
    31    33    34 1   
    32    33    35 1   
    33    33    36 1   
    34    31    32 1   
    35    31    33 1   
@<TRIPOS>SUBSTRUCTURE
     1 ACE         1 TEMP              0 ****  ****    0 ROOT
