@<TRIPOS>MOLECULE
default_name
   21    20     1     0     0
SMALL
No Charge or Current Charge


@<TRIPOS>ATOM
      1 H1          25.7280    25.2060    24.6240 H          1 ACE       0.112300
      2 CH3         25.8580    26.1880    24.1740 C.3        1 ACE      -0.366200
      3 H2          25.2100    26.9110    24.6650 H          1 ACE       0.112300
      4 H3          25.6280    26.1450    23.1110 H          1 ACE       0.112300
      5 C           27.2960    26.6220    24.3480 C.2        1 ACE       0.597200
      6 O           28.0840    25.8810    24.9270 O.2        1 ACE      -0.567900
      7 N           27.6060    27.8150    23.8410 N.am       2 CTH      -0.567900
      8 H           26.8790    28.3500    23.3920 H          2 CTH      -0.567900
      9 CA          28.9240    28.4790    23.8650 C.3        2 CTH      -0.567900
     10 HA          29.4750    28.1860    24.7570 H          2 CTH      -0.567900
     11 CB          29.7620    28.1520    22.6230 C.3        2 CTH      -0.567900
     12 HB          30.6870    28.7260    22.6750 H          2 CTH      -0.567900
     13 CG2         30.1230    26.6740    22.4820 C.3        2 CTH      -0.567900
     14 HG21        29.2260    26.0840    22.3000 H          2 CTH      -0.567900
     15 HG22        30.8080    26.5500    21.6440 H          2 CTH      -0.567900
     16 HG23        30.6040    26.3290    23.3970 H          2 CTH      -0.567900
     17 OG1         29.0470    28.5530    21.4790 O.3        2 CTH      -0.567900
     18 HG1         28.6030    29.3760    21.7750 H          2 CTH      -0.567900
     19 C           28.7400    29.9890    23.9250 C.2        2 CTH      -0.567900
     20 O           28.0230    30.4850    23.0250 O.co2      2 CTH      -0.567900
     21 OXT         29.3180    30.6060    24.8410 O.co2      2 CTH      -0.567900
@<TRIPOS>BOND
     1     5     6 2   
     2     5     7 am  
     3     2     3 1   
     4     2     4 1   
     5     2     5 1   
     6     1     2 1   
     7    19    20 1   
     8    19    21 1   
     9    17    18 1   
    10    13    14 1   
    11    13    15 1   
    12    13    16 1   
    13    11    12 1   
    14    11    13 1   
    15    11    17 1   
    16     9    10 1   
    17     9    11 1   
    18     9    19 1   
    19     7     8 1   
    20     7     9 1   
@<TRIPOS>SUBSTRUCTURE
     1 ACE         1 TEMP              0 ****  ****    0 ROOT
