@<TRIPOS>MOLECULE
default_name
   29    29     1     0     0
SMALL
No Charge or Current Charge


@<TRIPOS>ATOM
      1 N           27.4570    25.5330    23.8890 N.4        1 NTY       0.000000
      2 H1          27.9500    24.9060    23.2670 H          1 NTY       0.000000
      3 H2          26.5050    25.6560    23.5760 H          1 NTY       0.000000
      4 H3          27.4660    25.1120    24.8100 H          1 NTY       0.000000
      5 CA          28.1660    26.8310    23.9500 C.3        1 NTY       0.000000
      6 HA          28.2230    27.2510    22.9470 H          1 NTY       0.000000
      7 CB          27.4090    27.8220    24.8460 C.3        1 NTY       0.000000
      8 HB2         26.3920    27.9310    24.4670 H          1 NTY       0.000000
      9 HB3         27.3440    27.4110    25.8550 H          1 NTY       0.000000
     10 CG          28.0440    29.1960    24.9020 C.ar       1 NTY       0.000000
     11 CD1         28.7370    29.6120    26.0580 C.ar       1 NTY       0.000000
     12 HD1         28.7850    28.9750    26.9330 H          1 NTY       0.000000
     13 CE1         29.3740    30.8670    26.0880 C.ar       1 NTY       0.000000
     14 HE1         29.9000    31.1880    26.9750 H          1 NTY       0.000000
     15 CZ          29.3250    31.7100    24.9560 C.ar       1 NTY       0.000000
     16 OH          29.9420    32.9190    24.9640 O.3        1 NTY       0.000000
     17 HH          30.2650    33.1700    25.8310 H          1 NTY       0.000000
     18 CE2         28.6350    31.2900    23.8000 C.ar       1 NTY       0.000000
     19 HE2         28.6000    31.9510    22.9450 H          1 NTY       0.000000
     20 CD2         27.9910    30.0390    23.7730 C.ar       1 NTY       0.000000
     21 HD2         27.4460    29.7480    22.8850 H          1 NTY       0.000000
     22 C           29.5950    26.5850    24.4310 C.2        1 NTY       0.000000
     23 O           29.8480    25.4900    24.9180 O.2        1 NTY       0.000000
     24 N           30.5140    27.5450    24.2710 N.am       2 NME      -0.415700
     25 H           30.2270    28.4500    23.9170 H          2 NME       0.271900
     26 CH3         31.9140    27.4070    24.6730 C.3        2 NME      -0.149000
     27 HH31        32.3280    26.4720    24.2880 H          2 NME       0.097600
     28 HH32        32.5030    28.2400    24.2850 H          2 NME       0.097600
     29 HH33        31.9910    27.3980    25.7630 H          2 NME       0.097600
@<TRIPOS>BOND
     1    22    23 2   
     2    22    24 am  
     3    20    21 1   
     4    18    19 1   
     5    18    20 ar  
     6    16    17 1   
     7    15    16 1   
     8    15    18 ar  
     9    13    14 1   
    10    13    15 ar  
    11    11    12 1   
    12    11    13 ar  
    13    10    11 ar  
    14    10    20 ar  
    15     7     8 1   
    16     7     9 1   
    17     7    10 1   
    18     5     6 1   
    19     5     7 1   
    20     5    22 1   
    21     1     2 1   
    22     1     3 1   
    23     1     4 1   
    24     1     5 1   
    25    26    27 1   
    26    26    28 1   
    27    26    29 1   
    28    24    25 1   
    29    24    26 1   
@<TRIPOS>SUBSTRUCTURE
     1 NTY         1 TEMP              0 ****  ****    0 ROOT
