@<TRIPOS>MOLECULE
default_name
   40    39     1     0     0
SMALL
No Charge or Current Charge


@<TRIPOS>ATOM
      1 N           27.6840    25.3390    24.4340 N.4        1 NCY       0.000000
      2 H1          28.0140    25.0330    23.5290 H          1 NCY       0.000000
      3 H2          26.6740    25.2820    24.4580 H          1 NCY       0.000000
      4 H3          28.0920    24.7480    25.1450 H          1 NCY       0.000000
      5 CA          28.0930    26.7390    24.6570 C.3        1 NCY       0.000000
      6 HA          27.6050    27.3700    23.9150 H          1 NCY       0.000000
      7 CB          27.6870    27.2130    26.0600 C.3        1 NCY       0.000000
      8 HB2         28.1150    26.5400    26.8060 H          1 NCY       0.000000
      9 HB3         28.1260    28.1970    26.2280 H          1 NCY       0.000000
     10 SG          25.9090    27.3750    26.3880 S.3        1 NCY       0.000000
     11 C           29.6010    26.8480    24.4560 C.2        1 NCY       0.000000
     12 O           30.2560    25.8120    24.4660 O.2        1 NCY       0.000000
     13 N           30.1410    28.0610    24.2680 N.am       2 NME      -0.415700
     14 H           29.5430    28.8750    24.2700 H          2 NME       0.271900
     15 CH3         31.5730    28.3040    24.0690 C.3        2 NME      -0.149000
     16 HH31        32.1040    27.3750    23.8480 H          2 NME       0.097600
     17 HH32        31.7260    28.9920    23.2350 H          2 NME       0.097600
     18 HH33        32.0090    28.7430    24.9690 H          2 NME       0.097600
     19 H1          22.6200    20.9390    23.6150 H          3 ACE       0.112300
     20 CH3         23.3900    21.6880    23.4270 C.3        3 ACE      -0.366200
     21 H2          23.5450    21.7790    22.3540 H          3 ACE       0.112300
     22 H3          24.3120    21.3840    23.9180 H          3 ACE       0.112300
     23 C           22.9230    23.0110    23.9890 C.2        3 ACE       0.597200
     24 O           21.8430    23.0970    24.5510 O.2        3 ACE      -0.567900
     25 N           23.7410    24.0530    23.8410 N.am       4 CYX      -0.415700
     26 H           24.5850    23.9200    23.3110 H          4 CYX       0.271900
     27 CA          23.3870    25.4180    24.2470 C.3        4 CYX       0.042900
     28 HA          22.3400    25.5840    23.9870 H          4 CYX       0.076600
     29 CB          23.5160    25.5630    25.7750 C.3        4 CYX      -0.079000
     30 HB2         23.0710    26.5140    26.0710 H          4 CYX       0.091000
     31 HB3         22.9060    24.7830    26.2350 H          4 CYX       0.091000
     32 SG          25.1740    25.4730    26.5220 S.3        4 CYX      -0.108100
     33 C           24.2270    26.4690    23.5060 C.2        4 CYX       0.597300
     34 O           25.4060    26.2270    23.2230 O.2        4 CYX      -0.567900
     35 N           23.6420    27.6420    23.2340 N.am       5 NME      -0.415700
     36 H           22.6750    27.7600    23.5000 H          5 NME       0.271900
     37 CH3         24.2840    28.7600    22.5420 C.3        5 NME      -0.149000
     38 HH31        25.0710    28.3990    21.8770 H          5 NME       0.097600
     39 HH32        23.5460    29.2980    21.9430 H          5 NME       0.097600
     40 HH33        24.7170    29.4510    23.2690 H          5 NME       0.097600
@<TRIPOS>BOND
     1    11    12 2   
     2    11    13 am  
     3    10    32 1   
     4     7     8 1   
     5     7     9 1   
     6     7    10 1   
     7     5     6 1   
     8     5     7 1   
     9     5    11 1   
    10     1     2 1   
    11     1     3 1   
    12     1     4 1   
    13     1     5 1   
    14    15    16 1   
    15    15    17 1   
    16    15    18 1   
    17    13    14 1   
    18    13    15 1   
    19    23    24 2   
    20    23    25 am  
    21    20    21 1   
    22    20    22 1   
    23    20    23 1   
    24    19    20 1   
    25    33    34 2   
    26    33    35 am  
    27    29    30 1   
    28    29    31 1   
    29    29    32 1   
    30    27    28 1   
    31    27    29 1   
    32    27    33 1   
    33    25    26 1   
    34    25    27 1   
    35    37    38 1   
    36    37    39 1   
    37    37    40 1   
    38    35    36 1   
    39    35    37 1   
@<TRIPOS>SUBSTRUCTURE
     1 NCY         1 TEMP              0 ****  ****    0 ROOT
