
  -OEChem-04042215573D

 44 43  0     1  0  0  0  0  0999 V2000
    1.9828   -6.9892    1.5876 H   0  0  0  0  0  0  0  0  0  0  0  0
    1.9497   -5.9729    1.9906 C   0  0  0  0  0  0  0  0  0  0  0  0
    2.8932   -5.7659    2.5014 H   0  0  0  0  0  0  0  0  0  0  0  0
    1.1299   -5.9052    2.7096 H   0  0  0  0  0  0  0  0  0  0  0  0
    1.7388   -4.9745    0.8687 C   0  0  0  0  0  0  0  0  0  0  0  0
    1.6279   -5.3645   -0.2820 O   0  0  0  0  0  0  0  0  0  0  0  0
    1.6861   -3.6251    1.1456 N   0  0  0  0  0  0  0  0  0  0  0  0
    1.9050   -3.3348    2.0982 H   0  0  0  0  0  0  0  0  0  0  0  0
    1.6803   -2.5707    0.1198 C   0  0  1  0  0  0  0  0  0  0  0  0
    2.0172   -2.9694   -0.8429 H   0  0  0  0  0  0  0  0  0  0  0  0
    0.2468   -2.0467   -0.0383 C   0  0  0  0  0  0  0  0  0  0  0  0
   -0.1192   -1.6670    0.9212 H   0  0  0  0  0  0  0  0  0  0  0  0
   -0.3990   -2.8782   -0.3386 H   0  0  0  0  0  0  0  0  0  0  0  0
    0.1295   -0.7185   -1.3094 S   0  0  0  0  0  0  0  0  0  0  0  0
    2.6617   -1.4553    0.5313 C   0  0  0  0  0  0  0  0  0  0  0  0
    2.7493   -1.1377    1.7135 O   0  0  0  0  0  0  0  0  0  0  0  0
    3.5402   -0.9093   -0.3864 N   0  0  0  0  0  0  0  0  0  0  0  0
    3.4120   -1.1625   -1.3622 H   0  0  0  0  0  0  0  0  0  0  0  0
    4.4607    0.1711   -0.0552 C   0  0  0  0  0  0  0  0  0  0  0  0
    3.9106    1.0473    0.3046 H   0  0  0  0  0  0  0  0  0  0  0  0
    5.1626   -0.1478    0.7223 H   0  0  0  0  0  0  0  0  0  0  0  0
    5.0352    0.4631   -0.9393 H   0  0  0  0  0  0  0  0  0  0  0  0
   -3.6580    5.5879    2.7411 H   0  0  0  0  0  0  0  0  0  0  0  0
   -3.9543    4.7910    2.0527 C   0  0  0  0  0  0  0  0  0  0  0  0
   -4.5987    5.2154    1.2787 H   0  0  0  0  0  0  0  0  0  0  0  0
   -4.5129    4.0343    2.6090 H   0  0  0  0  0  0  0  0  0  0  0  0
   -2.7261    4.1657    1.4193 C   0  0  0  0  0  0  0  0  0  0  0  0
   -1.6155    4.5945    1.6861 O   0  0  0  0  0  0  0  0  0  0  0  0
   -2.8652    3.1178    0.5345 N   0  0  0  0  0  0  0  0  0  0  0  0
   -3.8118    2.8924    0.2281 H   0  0  0  0  0  0  0  0  0  0  0  0
   -1.7701    2.5840   -0.2907 C   0  0  1  0  0  0  0  0  0  0  0  0
   -1.0397    3.3766   -0.4863 H   0  0  0  0  0  0  0  0  0  0  0  0
   -1.0836    1.4508    0.4860 C   0  0  0  0  0  0  0  0  0  0  0  0
   -0.9176    1.7775    1.5179 H   0  0  0  0  0  0  0  0  0  0  0  0
   -1.7279    0.5667    0.5164 H   0  0  0  0  0  0  0  0  0  0  0  0
    0.5520    1.0282   -0.2419 S   0  0  0  0  0  0  0  0  0  0  0  0
   -2.3066    2.1030   -1.6576 C   0  0  0  0  0  0  0  0  0  0  0  0
   -3.5161    1.9720   -1.8237 O   0  0  0  0  0  0  0  0  0  0  0  0
   -1.4513    1.8702   -2.7179 N   0  0  0  0  0  0  0  0  0  0  0  0
   -0.4576    1.8395   -2.5001 H   0  0  0  0  0  0  0  0  0  0  0  0
   -1.8992    1.3401   -4.0000 C   0  0  0  0  0  0  0  0  0  0  0  0
   -2.3135    0.3343   -3.8753 H   0  0  0  0  0  0  0  0  0  0  0  0
   -2.6679    1.9863   -4.4369 H   0  0  0  0  0  0  0  0  0  0  0  0
   -1.0598    1.2856   -4.6997 H   0  0  0  0  0  0  0  0  0  0  0  0
  1  2  1  0  0  0  0
  2  3  1  0  0  0  0
  2  4  1  0  0  0  0
  2  5  1  0  0  0  0
  5  6  2  0  0  0  0
  5  7  1  0  0  0  0
  7  8  1  0  0  0  0
  7  9  1  0  0  0  0
  9 10  1  0  0  0  0
  9 11  1  0  0  0  0
  9 15  1  0  0  0  0
 11 12  1  0  0  0  0
 11 13  1  0  0  0  0
 11 14  1  0  0  0  0
 14 36  1  0  0  0  0
 15 16  2  0  0  0  0
 15 17  1  0  0  0  0
 17 18  1  0  0  0  0
 17 19  1  0  0  0  0
 19 20  1  0  0  0  0
 19 21  1  0  0  0  0
 19 22  1  0  0  0  0
 23 24  1  0  0  0  0
 24 25  1  0  0  0  0
 24 26  1  0  0  0  0
 24 27  1  0  0  0  0
 27 28  2  0  0  0  0
 27 29  1  0  0  0  0
 29 30  1  0  0  0  0
 29 31  1  0  0  0  0
 31 32  1  0  0  0  0
 31 33  1  0  0  0  0
 31 37  1  0  0  0  0
 33 34  1  0  0  0  0
 33 35  1  0  0  0  0
 33 36  1  0  0  0  0
 37 38  2  0  0  0  0
 37 39  1  0  0  0  0
 39 40  1  0  0  0  0
 39 41  1  0  0  0  0
 41 42  1  0  0  0  0
 41 43  1  0  0  0  0
 41 44  1  0  0  0  0
M  END
$$$$

  -OEChem-04042215573D

 44 43  0     1  0  0  0  0  0999 V2000
    1.6980   -6.9551    1.6463 H   0  0  0  0  0  0  0  0  0  0  0  0
    1.6849   -5.9344    2.0388 C   0  0  0  0  0  0  0  0  0  0  0  0
    2.5984   -5.7674    2.6145 H   0  0  0  0  0  0  0  0  0  0  0  0
    0.8204   -5.8212    2.6971 H   0  0  0  0  0  0  0  0  0  0  0  0
    1.5999   -4.9371    0.8992 C   0  0  0  0  0  0  0  0  0  0  0  0
    1.5444   -5.3306   -0.2543 O   0  0  0  0  0  0  0  0  0  0  0  0
    1.5830   -3.5849    1.1682 N   0  0  0  0  0  0  0  0  0  0  0  0
    1.7480   -3.2994    2.1328 H   0  0  0  0  0  0  0  0  0  0  0  0
    1.6695   -2.5316    0.1448 C   0  0  1  0  0  0  0  0  0  0  0  0
    2.0374   -2.9527   -0.7968 H   0  0  0  0  0  0  0  0  0  0  0  0
    0.2635   -1.9618   -0.0837 C   0  0  0  0  0  0  0  0  0  0  0  0
   -0.0445   -1.3546    0.7736 H   0  0  0  0  0  0  0  0  0  0  0  0
   -0.4424   -2.7938   -0.1738 H   0  0  0  0  0  0  0  0  0  0  0  0
    0.1730   -0.9682   -1.6303 S   0  0  0  0  0  0  0  0  0  0  0  0
    2.6646   -1.4421    0.5906 C   0  0  0  0  0  0  0  0  0  0  0  0
    2.6818   -1.0928    1.7665 O   0  0  0  0  0  0  0  0  0  0  0  0
    3.6024   -0.9299   -0.2870 N   0  0  0  0  0  0  0  0  0  0  0  0
    3.5040   -1.1819   -1.2667 H   0  0  0  0  0  0  0  0  0  0  0  0
    4.5094    0.1556    0.0685 C   0  0  0  0  0  0  0  0  0  0  0  0
    3.9446    1.0545    0.3384 H   0  0  0  0  0  0  0  0  0  0  0  0
    5.1402   -0.1314    0.9165 H   0  0  0  0  0  0  0  0  0  0  0  0
    5.1604    0.3977   -0.7771 H   0  0  0  0  0  0  0  0  0  0  0  0
   -2.4263    6.4040    1.3604 H   0  0  0  0  0  0  0  0  0  0  0  0
   -2.8875    5.5590    0.8420 C   0  0  0  0  0  0  0  0  0  0  0  0
   -3.5474    5.9426    0.0605 H   0  0  0  0  0  0  0  0  0  0  0  0
   -3.4776    4.9851    1.5601 H   0  0  0  0  0  0  0  0  0  0  0  0
   -1.8179    4.6755    0.2296 C   0  0  0  0  0  0  0  0  0  0  0  0
   -0.6396    4.9692    0.3468 O   0  0  0  0  0  0  0  0  0  0  0  0
   -2.1768    3.5394   -0.4635 N   0  0  0  0  0  0  0  0  0  0  0  0
   -3.1697    3.3989   -0.6513 H   0  0  0  0  0  0  0  0  0  0  0  0
   -1.2413    2.7107   -1.2401 C   0  0  1  0  0  0  0  0  0  0  0  0
   -0.4559    3.3479   -1.6610 H   0  0  0  0  0  0  0  0  0  0  0  0
   -0.6017    1.6815   -0.2959 C   0  0  0  0  0  0  0  0  0  0  0  0
   -0.2871    2.1871    0.6230 H   0  0  0  0  0  0  0  0  0  0  0  0
   -1.3324    0.9151   -0.0188 H   0  0  0  0  0  0  0  0  0  0  0  0
    0.8868    0.9088   -1.0510 S   0  0  0  0  0  0  0  0  0  0  0  0
   -1.9689    2.0291   -2.4216 C   0  0  0  0  0  0  0  0  0  0  0  0
   -3.1956    2.0449   -2.4686 O   0  0  0  0  0  0  0  0  0  0  0  0
   -1.2623    1.4395   -3.4530 N   0  0  0  0  0  0  0  0  0  0  0  0
   -0.2648    1.3077   -3.2995 H   0  0  0  0  0  0  0  0  0  0  0  0
   -1.9022    0.6954   -4.5311 C   0  0  0  0  0  0  0  0  0  0  0  0
   -2.3994   -0.1973   -4.1375 H   0  0  0  0  0  0  0  0  0  0  0  0
   -2.6452    1.3180   -5.0405 H   0  0  0  0  0  0  0  0  0  0  0  0
   -1.1567    0.3810   -5.2676 H   0  0  0  0  0  0  0  0  0  0  0  0
  1  2  1  0  0  0  0
  2  3  1  0  0  0  0
  2  4  1  0  0  0  0
  2  5  1  0  0  0  0
  5  6  2  0  0  0  0
  5  7  1  0  0  0  0
  7  8  1  0  0  0  0
  7  9  1  0  0  0  0
  9 10  1  0  0  0  0
  9 11  1  0  0  0  0
  9 15  1  0  0  0  0
 11 12  1  0  0  0  0
 11 13  1  0  0  0  0
 11 14  1  0  0  0  0
 14 36  1  0  0  0  0
 15 16  2  0  0  0  0
 15 17  1  0  0  0  0
 17 18  1  0  0  0  0
 17 19  1  0  0  0  0
 19 20  1  0  0  0  0
 19 21  1  0  0  0  0
 19 22  1  0  0  0  0
 23 24  1  0  0  0  0
 24 25  1  0  0  0  0
 24 26  1  0  0  0  0
 24 27  1  0  0  0  0
 27 28  2  0  0  0  0
 27 29  1  0  0  0  0
 29 30  1  0  0  0  0
 29 31  1  0  0  0  0
 31 32  1  0  0  0  0
 31 33  1  0  0  0  0
 31 37  1  0  0  0  0
 33 34  1  0  0  0  0
 33 35  1  0  0  0  0
 33 36  1  0  0  0  0
 37 38  2  0  0  0  0
 37 39  1  0  0  0  0
 39 40  1  0  0  0  0
 39 41  1  0  0  0  0
 41 42  1  0  0  0  0
 41 43  1  0  0  0  0
 41 44  1  0  0  0  0
M  END
$$$$

  -OEChem-04042215573D

 44 43  0     1  0  0  0  0  0999 V2000
    1.8405   -6.9277    1.5560 H   0  0  0  0  0  0  0  0  0  0  0  0
    1.7025   -5.9222    1.9631 C   0  0  0  0  0  0  0  0  0  0  0  0
    2.5180   -5.7080    2.6577 H   0  0  0  0  0  0  0  0  0  0  0  0
    0.7535   -5.8881    2.5032 H   0  0  0  0  0  0  0  0  0  0  0  0
    1.6965   -4.9037    0.8400 C   0  0  0  0  0  0  0  0  0  0  0  0
    1.8458   -5.2691   -0.3140 O   0  0  0  0  0  0  0  0  0  0  0  0
    1.5140   -3.5668    1.1233 N   0  0  0  0  0  0  0  0  0  0  0  0
    1.5053   -3.2940    2.1053 H   0  0  0  0  0  0  0  0  0  0  0  0
    1.6335   -2.4835    0.1346 C   0  0  1  0  0  0  0  0  0  0  0  0
    2.1572   -2.8445   -0.7570 H   0  0  0  0  0  0  0  0  0  0  0  0
    0.2149   -2.0409   -0.2583 C   0  0  0  0  0  0  0  0  0  0  0  0
   -0.1523   -1.2845    0.4431 H   0  0  0  0  0  0  0  0  0  0  0  0
   -0.4566   -2.9030   -0.1933 H   0  0  0  0  0  0  0  0  0  0  0  0
    0.1203   -1.4071   -1.9847 S   0  0  0  0  0  0  0  0  0  0  0  0
    2.4520   -1.3197    0.7292 C   0  0  0  0  0  0  0  0  0  0  0  0
    2.2504   -0.9812    1.8910 O   0  0  0  0  0  0  0  0  0  0  0  0
    3.4474   -0.6951    0.0016 N   0  0  0  0  0  0  0  0  0  0  0  0
    3.5080   -0.9276   -0.9865 H   0  0  0  0  0  0  0  0  0  0  0  0
    4.1564    0.4857    0.4805 C   0  0  0  0  0  0  0  0  0  0  0  0
    3.4636    1.3252    0.6026 H   0  0  0  0  0  0  0  0  0  0  0  0
    4.6382    0.2825    1.4428 H   0  0  0  0  0  0  0  0  0  0  0  0
    4.9307    0.7768   -0.2359 H   0  0  0  0  0  0  0  0  0  0  0  0
   -0.7946    6.7844   -0.5029 H   0  0  0  0  0  0  0  0  0  0  0  0
   -1.4662    5.9343   -0.6521 C   0  0  0  0  0  0  0  0  0  0  0  0
   -2.2472    6.2227   -1.3596 H   0  0  0  0  0  0  0  0  0  0  0  0
   -1.9269    5.6764    0.3042 H   0  0  0  0  0  0  0  0  0  0  0  0
   -0.6910    4.7466   -1.1893 C   0  0  0  0  0  0  0  0  0  0  0  0
    0.5225    4.8081   -1.3026 O   0  0  0  0  0  0  0  0  0  0  0  0
   -1.3555    3.5942   -1.5508 N   0  0  0  0  0  0  0  0  0  0  0  0
   -2.3750    3.6252   -1.5650 H   0  0  0  0  0  0  0  0  0  0  0  0
   -0.7252    2.4589   -2.2422 C   0  0  1  0  0  0  0  0  0  0  0  0
    0.0612    2.8324   -2.9069 H   0  0  0  0  0  0  0  0  0  0  0  0
   -0.0973    1.5355   -1.1881 C   0  0  0  0  0  0  0  0  0  0  0  0
    0.4148    2.1449   -0.4361 H   0  0  0  0  0  0  0  0  0  0  0  0
   -0.8745    0.9614   -0.6739 H   0  0  0  0  0  0  0  0  0  0  0  0
    1.1460    0.4095   -1.9410 S   0  0  0  0  0  0  0  0  0  0  0  0
   -1.7520    1.7090   -3.1209 C   0  0  0  0  0  0  0  0  0  0  0  0
   -2.9456    1.9795   -3.0249 O   0  0  0  0  0  0  0  0  0  0  0  0
   -1.3466    0.7661   -4.0466 N   0  0  0  0  0  0  0  0  0  0  0  0
   -0.3782    0.4574   -3.9857 H   0  0  0  0  0  0  0  0  0  0  0  0
   -2.2794   -0.0293   -4.8357 C   0  0  0  0  0  0  0  0  0  0  0  0
   -2.9054   -0.6466   -4.1829 H   0  0  0  0  0  0  0  0  0  0  0  0
   -2.9267    0.6194   -5.4356 H   0  0  0  0  0  0  0  0  0  0  0  0
   -1.7308   -0.6897   -5.5145 H   0  0  0  0  0  0  0  0  0  0  0  0
  1  2  1  0  0  0  0
  2  3  1  0  0  0  0
  2  4  1  0  0  0  0
  2  5  1  0  0  0  0
  5  6  2  0  0  0  0
  5  7  1  0  0  0  0
  7  8  1  0  0  0  0
  7  9  1  0  0  0  0
  9 10  1  0  0  0  0
  9 11  1  0  0  0  0
  9 15  1  0  0  0  0
 11 12  1  0  0  0  0
 11 13  1  0  0  0  0
 11 14  1  0  0  0  0
 14 36  1  0  0  0  0
 15 16  2  0  0  0  0
 15 17  1  0  0  0  0
 17 18  1  0  0  0  0
 17 19  1  0  0  0  0
 19 20  1  0  0  0  0
 19 21  1  0  0  0  0
 19 22  1  0  0  0  0
 23 24  1  0  0  0  0
 24 25  1  0  0  0  0
 24 26  1  0  0  0  0
 24 27  1  0  0  0  0
 27 28  2  0  0  0  0
 27 29  1  0  0  0  0
 29 30  1  0  0  0  0
 29 31  1  0  0  0  0
 31 32  1  0  0  0  0
 31 33  1  0  0  0  0
 31 37  1  0  0  0  0
 33 34  1  0  0  0  0
 33 35  1  0  0  0  0
 33 36  1  0  0  0  0
 37 38  2  0  0  0  0
 37 39  1  0  0  0  0
 39 40  1  0  0  0  0
 39 41  1  0  0  0  0
 41 42  1  0  0  0  0
 41 43  1  0  0  0  0
 41 44  1  0  0  0  0
M  END
$$$$

  -OEChem-04042215573D

 44 43  0     1  0  0  0  0  0999 V2000
    1.9529   -6.8891    1.5712 H   0  0  0  0  0  0  0  0  0  0  0  0
    1.8109   -5.8884    1.9895 C   0  0  0  0  0  0  0  0  0  0  0  0
    2.6544   -5.6577    2.6447 H   0  0  0  0  0  0  0  0  0  0  0  0
    0.8888   -5.8803    2.5757 H   0  0  0  0  0  0  0  0  0  0  0  0
    1.7250   -4.8644    0.8736 C   0  0  0  0  0  0  0  0  0  0  0  0
    1.8455   -5.2180   -0.2874 O   0  0  0  0  0  0  0  0  0  0  0  0
    1.5125   -3.5357    1.1751 N   0  0  0  0  0  0  0  0  0  0  0  0
    1.5298   -3.2720    2.1592 H   0  0  0  0  0  0  0  0  0  0  0  0
    1.5314   -2.4396    0.1926 C   0  0  1  0  0  0  0  0  0  0  0  0
    2.0194   -2.7774   -0.7280 H   0  0  0  0  0  0  0  0  0  0  0  0
    0.0811   -2.0288   -0.1232 C   0  0  0  0  0  0  0  0  0  0  0  0
   -0.1774   -1.1070    0.4082 H   0  0  0  0  0  0  0  0  0  0  0  0
   -0.6053   -2.8069    0.2252 H   0  0  0  0  0  0  0  0  0  0  0  0
   -0.1987   -1.8081   -1.9295 S   0  0  0  0  0  0  0  0  0  0  0  0
    2.3410   -1.2471    0.7413 C   0  0  0  0  0  0  0  0  0  0  0  0
    2.2023   -0.9191    1.9150 O   0  0  0  0  0  0  0  0  0  0  0  0
    3.2620   -0.5816   -0.0451 N   0  0  0  0  0  0  0  0  0  0  0  0
    3.2865   -0.8220   -1.0336 H   0  0  0  0  0  0  0  0  0  0  0  0
    4.0048    0.5883    0.4076 C   0  0  0  0  0  0  0  0  0  0  0  0
    3.3214    1.4140    0.6319 H   0  0  0  0  0  0  0  0  0  0  0  0
    4.5815    0.3529    1.3084 H   0  0  0  0  0  0  0  0  0  0  0  0
    4.7014    0.9170   -0.3699 H   0  0  0  0  0  0  0  0  0  0  0  0
    0.3570    6.5311   -2.2473 H   0  0  0  0  0  0  0  0  0  0  0  0
   -0.4497    5.7932   -2.2335 C   0  0  0  0  0  0  0  0  0  0  0  0
   -1.1826    6.0596   -2.9989 H   0  0  0  0  0  0  0  0  0  0  0  0
   -0.9317    5.8149   -1.2534 H   0  0  0  0  0  0  0  0  0  0  0  0
    0.1049    4.4082   -2.5057 C   0  0  0  0  0  0  0  0  0  0  0  0
    1.3090    4.2376   -2.6081 O   0  0  0  0  0  0  0  0  0  0  0  0
   -0.7521    3.3374   -2.6406 N   0  0  0  0  0  0  0  0  0  0  0  0
   -1.7515    3.5404   -2.6756 H   0  0  0  0  0  0  0  0  0  0  0  0
   -0.3434    2.0032   -3.1069 C   0  0  1  0  0  0  0  0  0  0  0  0
    0.4607    2.1080   -3.8433 H   0  0  0  0  0  0  0  0  0  0  0  0
    0.1777    1.2036   -1.9039 C   0  0  0  0  0  0  0  0  0  0  0  0
    0.8495    1.8357   -1.3137 H   0  0  0  0  0  0  0  0  0  0  0  0
   -0.6553    0.9114   -1.2564 H   0  0  0  0  0  0  0  0  0  0  0  0
    1.1233   -0.2781   -2.4455 S   0  0  0  0  0  0  0  0  0  0  0  0
   -1.5220    1.2864   -3.8063 C   0  0  0  0  0  0  0  0  0  0  0  0
   -2.6426    1.7862   -3.7656 O   0  0  0  0  0  0  0  0  0  0  0  0
   -1.3338    0.1161   -4.5178 N   0  0  0  0  0  0  0  0  0  0  0  0
   -0.4342   -0.3470   -4.4038 H   0  0  0  0  0  0  0  0  0  0  0  0
   -2.4301   -0.6356   -5.1165 C   0  0  0  0  0  0  0  0  0  0  0  0
   -3.1106   -1.0028   -4.3412 H   0  0  0  0  0  0  0  0  0  0  0  0
   -2.9948   -0.0052   -5.8116 H   0  0  0  0  0  0  0  0  0  0  0  0
   -2.0409   -1.4944   -5.6719 H   0  0  0  0  0  0  0  0  0  0  0  0
  1  2  1  0  0  0  0
  2  3  1  0  0  0  0
  2  4  1  0  0  0  0
  2  5  1  0  0  0  0
  5  6  2  0  0  0  0
  5  7  1  0  0  0  0
  7  8  1  0  0  0  0
  7  9  1  0  0  0  0
  9 10  1  0  0  0  0
  9 11  1  0  0  0  0
  9 15  1  0  0  0  0
 11 12  1  0  0  0  0
 11 13  1  0  0  0  0
 11 14  1  0  0  0  0
 14 36  1  0  0  0  0
 15 16  2  0  0  0  0
 15 17  1  0  0  0  0
 17 18  1  0  0  0  0
 17 19  1  0  0  0  0
 19 20  1  0  0  0  0
 19 21  1  0  0  0  0
 19 22  1  0  0  0  0
 23 24  1  0  0  0  0
 24 25  1  0  0  0  0
 24 26  1  0  0  0  0
 24 27  1  0  0  0  0
 27 28  2  0  0  0  0
 27 29  1  0  0  0  0
 29 30  1  0  0  0  0
 29 31  1  0  0  0  0
 31 32  1  0  0  0  0
 31 33  1  0  0  0  0
 31 37  1  0  0  0  0
 33 34  1  0  0  0  0
 33 35  1  0  0  0  0
 33 36  1  0  0  0  0
 37 38  2  0  0  0  0
 37 39  1  0  0  0  0
 39 40  1  0  0  0  0
 39 41  1  0  0  0  0
 41 42  1  0  0  0  0
 41 43  1  0  0  0  0
 41 44  1  0  0  0  0
M  END
$$$$

  -OEChem-04042215573D

 44 43  0     1  0  0  0  0  0999 V2000
    1.7343   -6.8712    1.5380 H   0  0  0  0  0  0  0  0  0  0  0  0
    1.6361   -5.8706    1.9680 C   0  0  0  0  0  0  0  0  0  0  0  0
    2.4825   -5.6888    2.6343 H   0  0  0  0  0  0  0  0  0  0  0  0
    0.7096   -5.8254    2.5451 H   0  0  0  0  0  0  0  0  0  0  0  0
    1.6094   -4.8288    0.8661 C   0  0  0  0  0  0  0  0  0  0  0  0
    1.6893   -5.1742   -0.3008 O   0  0  0  0  0  0  0  0  0  0  0  0
    1.4872   -3.4941    1.1909 N   0  0  0  0  0  0  0  0  0  0  0  0
    1.5359   -3.2478    2.1780 H   0  0  0  0  0  0  0  0  0  0  0  0
    1.5283   -2.3852    0.2241 C   0  0  1  0  0  0  0  0  0  0  0  0
    1.9704   -2.7421   -0.7120 H   0  0  0  0  0  0  0  0  0  0  0  0
    0.0994   -1.8782   -0.0486 C   0  0  0  0  0  0  0  0  0  0  0  0
    0.0010   -0.8299    0.2514 H   0  0  0  0  0  0  0  0  0  0  0  0
   -0.6218   -2.4518    0.5418 H   0  0  0  0  0  0  0  0  0  0  0  0
   -0.3370   -2.0411   -1.8273 S   0  0  0  0  0  0  0  0  0  0  0  0
    2.4204   -1.2351    0.7279 C   0  0  0  0  0  0  0  0  0  0  0  0
    2.3494   -0.8875    1.9015 O   0  0  0  0  0  0  0  0  0  0  0  0
    3.3285   -0.6217   -0.1144 N   0  0  0  0  0  0  0  0  0  0  0  0
    3.3144   -0.8948   -1.0947 H   0  0  0  0  0  0  0  0  0  0  0  0
    4.1613    0.5048    0.2888 C   0  0  0  0  0  0  0  0  0  0  0  0
    3.5386    1.3619    0.5664 H   0  0  0  0  0  0  0  0  0  0  0  0
    4.7884    0.2324    1.1445 H   0  0  0  0  0  0  0  0  0  0  0  0
    4.8156    0.8049   -0.5357 H   0  0  0  0  0  0  0  0  0  0  0  0
    1.0346    5.9025   -4.0583 H   0  0  0  0  0  0  0  0  0  0  0  0
    0.1633    5.2806   -3.8352 C   0  0  0  0  0  0  0  0  0  0  0  0
   -0.5913    5.4428   -4.6086 H   0  0  0  0  0  0  0  0  0  0  0  0
   -0.2461    5.5808   -2.8679 H   0  0  0  0  0  0  0  0  0  0  0  0
    0.5632    3.8178   -3.7985 C   0  0  0  0  0  0  0  0  0  0  0  0
    1.7386    3.5006   -3.8846 O   0  0  0  0  0  0  0  0  0  0  0  0
   -0.4013    2.8413   -3.6720 N   0  0  0  0  0  0  0  0  0  0  0  0
   -1.3764    3.1366   -3.7302 H   0  0  0  0  0  0  0  0  0  0  0  0
   -0.1477    1.4013   -3.8353 C   0  0  1  0  0  0  0  0  0  0  0  0
    0.6210    1.2544   -4.6017 H   0  0  0  0  0  0  0  0  0  0  0  0
    0.3597    0.8384   -2.4995 C   0  0  0  0  0  0  0  0  0  0  0  0
    1.1276    1.5060   -2.0956 H   0  0  0  0  0  0  0  0  0  0  0  0
   -0.4586    0.7972   -1.7738 H   0  0  0  0  0  0  0  0  0  0  0  0
    1.1115   -0.8258   -2.7170 S   0  0  0  0  0  0  0  0  0  0  0  0
   -1.4248    0.6741   -4.3162 C   0  0  0  0  0  0  0  0  0  0  0  0
   -2.4921    1.2803   -4.3458 O   0  0  0  0  0  0  0  0  0  0  0  0
   -1.3792   -0.6343   -4.7592 N   0  0  0  0  0  0  0  0  0  0  0  0
   -0.5193   -1.1464   -4.5716 H   0  0  0  0  0  0  0  0  0  0  0  0
   -2.5671   -1.3927   -5.1306 C   0  0  0  0  0  0  0  0  0  0  0  0
   -3.2198   -1.5311   -4.2626 H   0  0  0  0  0  0  0  0  0  0  0  0
   -3.1277   -0.8729   -5.9147 H   0  0  0  0  0  0  0  0  0  0  0  0
   -2.2804   -2.3783   -5.5099 H   0  0  0  0  0  0  0  0  0  0  0  0
  1  2  1  0  0  0  0
  2  3  1  0  0  0  0
  2  4  1  0  0  0  0
  2  5  1  0  0  0  0
  5  6  2  0  0  0  0
  5  7  1  0  0  0  0
  7  8  1  0  0  0  0
  7  9  1  0  0  0  0
  9 10  1  0  0  0  0
  9 11  1  0  0  0  0
  9 15  1  0  0  0  0
 11 12  1  0  0  0  0
 11 13  1  0  0  0  0
 11 14  1  0  0  0  0
 14 36  1  0  0  0  0
 15 16  2  0  0  0  0
 15 17  1  0  0  0  0
 17 18  1  0  0  0  0
 17 19  1  0  0  0  0
 19 20  1  0  0  0  0
 19 21  1  0  0  0  0
 19 22  1  0  0  0  0
 23 24  1  0  0  0  0
 24 25  1  0  0  0  0
 24 26  1  0  0  0  0
 24 27  1  0  0  0  0
 27 28  2  0  0  0  0
 27 29  1  0  0  0  0
 29 30  1  0  0  0  0
 29 31  1  0  0  0  0
 31 32  1  0  0  0  0
 31 33  1  0  0  0  0
 31 37  1  0  0  0  0
 33 34  1  0  0  0  0
 33 35  1  0  0  0  0
 33 36  1  0  0  0  0
 37 38  2  0  0  0  0
 37 39  1  0  0  0  0
 39 40  1  0  0  0  0
 39 41  1  0  0  0  0
 41 42  1  0  0  0  0
 41 43  1  0  0  0  0
 41 44  1  0  0  0  0
M  END
$$$$

  -OEChem-04042215573D

 44 43  0     1  0  0  0  0  0999 V2000
    1.4560   -6.8422    1.5115 H   0  0  0  0  0  0  0  0  0  0  0  0
    1.3914   -5.8407    1.9463 C   0  0  0  0  0  0  0  0  0  0  0  0
    2.2090   -5.7135    2.6597 H   0  0  0  0  0  0  0  0  0  0  0  0
    0.4384   -5.7459    2.4718 H   0  0  0  0  0  0  0  0  0  0  0  0
    1.4864   -4.7910    0.8558 C   0  0  0  0  0  0  0  0  0  0  0  0
    1.6198   -5.1333   -0.3071 O   0  0  0  0  0  0  0  0  0  0  0  0
    1.4428   -3.4535    1.1890 N   0  0  0  0  0  0  0  0  0  0  0  0
    1.4414   -3.2172    2.1795 H   0  0  0  0  0  0  0  0  0  0  0  0
    1.5999   -2.3450    0.2344 C   0  0  1  0  0  0  0  0  0  0  0  0
    2.0521   -2.7170   -0.6900 H   0  0  0  0  0  0  0  0  0  0  0  0
    0.2238   -1.7265   -0.0732 C   0  0  0  0  0  0  0  0  0  0  0  0
    0.2815   -0.6334   -0.0413 H   0  0  0  0  0  0  0  0  0  0  0  0
   -0.5060   -2.0342    0.6820 H   0  0  0  0  0  0  0  0  0  0  0  0
   -0.3668   -2.2283   -1.7393 S   0  0  0  0  0  0  0  0  0  0  0  0
    2.5482   -1.2664    0.7878 C   0  0  0  0  0  0  0  0  0  0  0  0
    2.4525   -0.9197    1.9597 O   0  0  0  0  0  0  0  0  0  0  0  0
    3.5309   -0.7149   -0.0125 N   0  0  0  0  0  0  0  0  0  0  0  0
    3.5811   -1.0269   -0.9797 H   0  0  0  0  0  0  0  0  0  0  0  0
    4.4574    0.3120    0.4481 C   0  0  0  0  0  0  0  0  0  0  0  0
    3.9110    1.2100    0.7553 H   0  0  0  0  0  0  0  0  0  0  0  0
    5.0435   -0.0525    1.2985 H   0  0  0  0  0  0  0  0  0  0  0  0
    5.1487    0.5856   -0.3551 H   0  0  0  0  0  0  0  0  0  0  0  0
    1.3892    4.8867   -5.7784 H   0  0  0  0  0  0  0  0  0  0  0  0
    0.4793    4.3956   -5.4228 C   0  0  0  0  0  0  0  0  0  0  0  0
   -0.2698    4.4256   -6.2176 H   0  0  0  0  0  0  0  0  0  0  0  0
    0.1012    4.9380   -4.5531 H   0  0  0  0  0  0  0  0  0  0  0  0
    0.7757    2.9570   -5.0460 C   0  0  0  0  0  0  0  0  0  0  0  0
    1.9200    2.5347   -5.0854 O   0  0  0  0  0  0  0  0  0  0  0  0
   -0.2506    2.1220   -4.6600 N   0  0  0  0  0  0  0  0  0  0  0  0
   -1.2026    2.4748   -4.7629 H   0  0  0  0  0  0  0  0  0  0  0  0
   -0.1139    0.6670   -4.4905 C   0  0  1  0  0  0  0  0  0  0  0  0
    0.5992    0.2827   -5.2280 H   0  0  0  0  0  0  0  0  0  0  0  0
    0.4205    0.3857   -3.0783 C   0  0  0  0  0  0  0  0  0  0  0  0
    1.2364    1.0807   -2.8548 H   0  0  0  0  0  0  0  0  0  0  0  0
   -0.3680    0.5510   -2.3372 H   0  0  0  0  0  0  0  0  0  0  0  0
    1.0815   -1.3254   -2.9474 S   0  0  0  0  0  0  0  0  0  0  0  0
   -1.4665   -0.0395   -4.7436 C   0  0  0  0  0  0  0  0  0  0  0  0
   -2.4765    0.6359   -4.9213 O   0  0  0  0  0  0  0  0  0  0  0  0
   -1.5588   -1.4170   -4.8113 N   0  0  0  0  0  0  0  0  0  0  0  0
   -0.7406   -1.9434   -4.5091 H   0  0  0  0  0  0  0  0  0  0  0  0
   -2.8264   -2.1247   -4.9431 C   0  0  0  0  0  0  0  0  0  0  0  0
   -3.4575   -1.9451   -4.0665 H   0  0  0  0  0  0  0  0  0  0  0  0
   -3.3625   -1.7922   -5.8384 H   0  0  0  0  0  0  0  0  0  0  0  0
   -2.6503   -3.2014   -5.0293 H   0  0  0  0  0  0  0  0  0  0  0  0
  1  2  1  0  0  0  0
  2  3  1  0  0  0  0
  2  4  1  0  0  0  0
  2  5  1  0  0  0  0
  5  6  2  0  0  0  0
  5  7  1  0  0  0  0
  7  8  1  0  0  0  0
  7  9  1  0  0  0  0
  9 10  1  0  0  0  0
  9 11  1  0  0  0  0
  9 15  1  0  0  0  0
 11 12  1  0  0  0  0
 11 13  1  0  0  0  0
 11 14  1  0  0  0  0
 14 36  1  0  0  0  0
 15 16  2  0  0  0  0
 15 17  1  0  0  0  0
 17 18  1  0  0  0  0
 17 19  1  0  0  0  0
 19 20  1  0  0  0  0
 19 21  1  0  0  0  0
 19 22  1  0  0  0  0
 23 24  1  0  0  0  0
 24 25  1  0  0  0  0
 24 26  1  0  0  0  0
 24 27  1  0  0  0  0
 27 28  2  0  0  0  0
 27 29  1  0  0  0  0
 29 30  1  0  0  0  0
 29 31  1  0  0  0  0
 31 32  1  0  0  0  0
 31 33  1  0  0  0  0
 31 37  1  0  0  0  0
 33 34  1  0  0  0  0
 33 35  1  0  0  0  0
 33 36  1  0  0  0  0
 37 38  2  0  0  0  0
 37 39  1  0  0  0  0
 39 40  1  0  0  0  0
 39 41  1  0  0  0  0
 41 42  1  0  0  0  0
 41 43  1  0  0  0  0
 41 44  1  0  0  0  0
M  END
$$$$

  -OEChem-04042215573D

 44 43  0     1  0  0  0  0  0999 V2000
    1.1923   -6.7671    1.4953 H   0  0  0  0  0  0  0  0  0  0  0  0
    1.1465   -5.7640    1.9288 C   0  0  0  0  0  0  0  0  0  0  0  0
    1.9190   -5.6770    2.6965 H   0  0  0  0  0  0  0  0  0  0  0  0
    0.1656   -5.6239    2.3888 H   0  0  0  0  0  0  0  0  0  0  0  0
    1.3679   -4.7198    0.8513 C   0  0  0  0  0  0  0  0  0  0  0  0
    1.5711   -5.0696   -0.2993 O   0  0  0  0  0  0  0  0  0  0  0  0
    1.3802   -3.3820    1.1862 N   0  0  0  0  0  0  0  0  0  0  0  0
    1.3149   -3.1448    2.1741 H   0  0  0  0  0  0  0  0  0  0  0  0
    1.6652   -2.2857    0.2476 C   0  0  1  0  0  0  0  0  0  0  0  0
    2.1459   -2.6726   -0.6558 H   0  0  0  0  0  0  0  0  0  0  0  0
    0.3540   -1.5729   -0.1218 C   0  0  0  0  0  0  0  0  0  0  0  0
    0.5517   -0.5202   -0.3487 H   0  0  0  0  0  0  0  0  0  0  0  0
   -0.3398   -1.6005    0.7240 H   0  0  0  0  0  0  0  0  0  0  0  0
   -0.4254   -2.3401   -1.5981 S   0  0  0  0  0  0  0  0  0  0  0  0
    2.6369   -1.2710    0.8765 C   0  0  0  0  0  0  0  0  0  0  0  0
    2.4777   -0.9180    2.0397 O   0  0  0  0  0  0  0  0  0  0  0  0
    3.7062   -0.7782    0.1519 N   0  0  0  0  0  0  0  0  0  0  0  0
    3.8268   -1.1156   -0.8003 H   0  0  0  0  0  0  0  0  0  0  0  0
    4.6852    0.1525    0.7009 C   0  0  0  0  0  0  0  0  0  0  0  0
    4.1956    1.0767    1.0263 H   0  0  0  0  0  0  0  0  0  0  0  0
    5.2006   -0.2944    1.5579 H   0  0  0  0  0  0  0  0  0  0  0  0
    5.4325    0.4066   -0.0574 H   0  0  0  0  0  0  0  0  0  0  0  0
    1.5321    3.5235   -7.1938 H   0  0  0  0  0  0  0  0  0  0  0  0
    0.5883    3.1499   -6.7872 C   0  0  0  0  0  0  0  0  0  0  0  0
   -0.1278    3.0380   -7.6048 H   0  0  0  0  0  0  0  0  0  0  0  0
    0.2017    3.8771   -6.0693 H   0  0  0  0  0  0  0  0  0  0  0  0
    0.8064    1.8132   -6.1051 C   0  0  0  0  0  0  0  0  0  0  0  0
    1.9205    1.3159   -6.0742 O   0  0  0  0  0  0  0  0  0  0  0  0
   -0.2550    1.1582   -5.5182 N   0  0  0  0  0  0  0  0  0  0  0  0
   -1.1873    1.5418   -5.6765 H   0  0  0  0  0  0  0  0  0  0  0  0
   -0.1974   -0.2178   -4.9997 C   0  0  1  0  0  0  0  0  0  0  0  0
    0.4458   -0.8208   -5.6501 H   0  0  0  0  0  0  0  0  0  0  0  0
    0.4029   -0.1898   -3.5860 C   0  0  0  0  0  0  0  0  0  0  0  0
    1.2694    0.4788   -3.5725 H   0  0  0  0  0  0  0  0  0  0  0  0
   -0.3297    0.2013   -2.8731 H   0  0  0  0  0  0  0  0  0  0  0  0
    0.9702   -1.8637   -3.0791 S   0  0  0  0  0  0  0  0  0  0  0  0
   -1.6031   -0.8638   -5.0077 C   0  0  0  0  0  0  0  0  0  0  0  0
   -2.5798   -0.1839   -5.3108 O   0  0  0  0  0  0  0  0  0  0  0  0
   -1.7822   -2.2015   -4.7100 N   0  0  0  0  0  0  0  0  0  0  0  0
   -0.9785   -2.6935   -4.3223 H   0  0  0  0  0  0  0  0  0  0  0  0
   -3.0943   -2.8265   -4.6015 C   0  0  0  0  0  0  0  0  0  0  0  0
   -3.6831   -2.3489   -3.8114 H   0  0  0  0  0  0  0  0  0  0  0  0
   -3.6390   -2.7424   -5.5475 H   0  0  0  0  0  0  0  0  0  0  0  0
   -2.9871   -3.8882   -4.3595 H   0  0  0  0  0  0  0  0  0  0  0  0
  1  2  1  0  0  0  0
  2  3  1  0  0  0  0
  2  4  1  0  0  0  0
  2  5  1  0  0  0  0
  5  6  2  0  0  0  0
  5  7  1  0  0  0  0
  7  8  1  0  0  0  0
  7  9  1  0  0  0  0
  9 10  1  0  0  0  0
  9 11  1  0  0  0  0
  9 15  1  0  0  0  0
 11 12  1  0  0  0  0
 11 13  1  0  0  0  0
 11 14  1  0  0  0  0
 14 36  1  0  0  0  0
 15 16  2  0  0  0  0
 15 17  1  0  0  0  0
 17 18  1  0  0  0  0
 17 19  1  0  0  0  0
 19 20  1  0  0  0  0
 19 21  1  0  0  0  0
 19 22  1  0  0  0  0
 23 24  1  0  0  0  0
 24 25  1  0  0  0  0
 24 26  1  0  0  0  0
 24 27  1  0  0  0  0
 27 28  2  0  0  0  0
 27 29  1  0  0  0  0
 29 30  1  0  0  0  0
 29 31  1  0  0  0  0
 31 32  1  0  0  0  0
 31 33  1  0  0  0  0
 31 37  1  0  0  0  0
 33 34  1  0  0  0  0
 33 35  1  0  0  0  0
 33 36  1  0  0  0  0
 37 38  2  0  0  0  0
 37 39  1  0  0  0  0
 39 40  1  0  0  0  0
 39 41  1  0  0  0  0
 41 42  1  0  0  0  0
 41 43  1  0  0  0  0
 41 44  1  0  0  0  0
M  END
$$$$

  -OEChem-04042215573D

 44 43  0     1  0  0  0  0  0999 V2000
    0.8789   -6.6522    1.5220 H   0  0  0  0  0  0  0  0  0  0  0  0
    0.8708   -5.6399    1.9353 C   0  0  0  0  0  0  0  0  0  0  0  0
    1.5593   -5.6001    2.7826 H   0  0  0  0  0  0  0  0  0  0  0  0
   -0.1391   -5.4104    2.2828 H   0  0  0  0  0  0  0  0  0  0  0  0
    1.2927   -4.6405    0.8752 C   0  0  0  0  0  0  0  0  0  0  0  0
    1.6236   -5.0335   -0.2313 O   0  0  0  0  0  0  0  0  0  0  0  0
    1.3334   -3.2962    1.1820 N   0  0  0  0  0  0  0  0  0  0  0  0
    1.1445   -3.0280    2.1456 H   0  0  0  0  0  0  0  0  0  0  0  0
    1.7279   -2.2305    0.2476 C   0  0  1  0  0  0  0  0  0  0  0  0
    2.2455   -2.6514   -0.6194 H   0  0  0  0  0  0  0  0  0  0  0  0
    0.4755   -1.4700   -0.2146 C   0  0  0  0  0  0  0  0  0  0  0  0
    0.7685   -0.5239   -0.6807 H   0  0  0  0  0  0  0  0  0  0  0  0
   -0.1504   -1.2318    0.6513 H   0  0  0  0  0  0  0  0  0  0  0  0
   -0.4982   -2.4445   -1.4314 S   0  0  0  0  0  0  0  0  0  0  0  0
    2.6897   -1.2378    0.9239 C   0  0  0  0  0  0  0  0  0  0  0  0
    2.4486   -0.8334    2.0558 O   0  0  0  0  0  0  0  0  0  0  0  0
    3.8257   -0.8010    0.2682 N   0  0  0  0  0  0  0  0  0  0  0  0
    4.0257   -1.2018   -0.6449 H   0  0  0  0  0  0  0  0  0  0  0  0
    4.7972    0.1047    0.8691 C   0  0  0  0  0  0  0  0  0  0  0  0
    4.3161    1.0428    1.1659 H   0  0  0  0  0  0  0  0  0  0  0  0
    5.2514   -0.3538    1.7537 H   0  0  0  0  0  0  0  0  0  0  0  0
    5.5914    0.3373    0.1530 H   0  0  0  0  0  0  0  0  0  0  0  0
    1.4223    1.8398   -8.3268 H   0  0  0  0  0  0  0  0  0  0  0  0
    0.4876    1.6233   -7.8021 C   0  0  0  0  0  0  0  0  0  0  0  0
   -0.2810    1.3779   -8.5389 H   0  0  0  0  0  0  0  0  0  0  0  0
    0.1810    2.5125   -7.2464 H   0  0  0  0  0  0  0  0  0  0  0  0
    0.6807    0.4594   -6.8494 C   0  0  0  0  0  0  0  0  0  0  0  0
    1.7628   -0.0996   -6.7777 O   0  0  0  0  0  0  0  0  0  0  0  0
   -0.3672    0.0337   -6.0621 N   0  0  0  0  0  0  0  0  0  0  0  0
   -1.2843    0.4432   -6.2429 H   0  0  0  0  0  0  0  0  0  0  0  0
   -0.3549   -1.1966   -5.2558 C   0  0  1  0  0  0  0  0  0  0  0  0
    0.2042   -1.9734   -5.7888 H   0  0  0  0  0  0  0  0  0  0  0  0
    0.3416   -0.9037   -3.9184 C   0  0  0  0  0  0  0  0  0  0  0  0
    1.2561   -0.3317   -4.1041 H   0  0  0  0  0  0  0  0  0  0  0  0
   -0.3077   -0.2953   -3.2812 H   0  0  0  0  0  0  0  0  0  0  0  0
    0.8096   -2.4619   -3.0616 S   0  0  0  0  0  0  0  0  0  0  0  0
   -1.7951   -1.7205   -5.0466 C   0  0  0  0  0  0  0  0  0  0  0  0
   -2.7467   -1.0495   -5.4376 O   0  0  0  0  0  0  0  0  0  0  0  0
   -2.0359   -2.9437   -4.4507 N   0  0  0  0  0  0  0  0  0  0  0  0
   -1.2398   -3.3931   -3.9999 H   0  0  0  0  0  0  0  0  0  0  0  0
   -3.3740   -3.4209   -4.1264 C   0  0  0  0  0  0  0  0  0  0  0  0
   -3.8535   -2.7518   -3.4043 H   0  0  0  0  0  0  0  0  0  0  0  0
   -3.9941   -3.4711   -5.0277 H   0  0  0  0  0  0  0  0  0  0  0  0
   -3.3209   -4.4229   -3.6897 H   0  0  0  0  0  0  0  0  0  0  0  0
  1  2  1  0  0  0  0
  2  3  1  0  0  0  0
  2  4  1  0  0  0  0
  2  5  1  0  0  0  0
  5  6  2  0  0  0  0
  5  7  1  0  0  0  0
  7  8  1  0  0  0  0
  7  9  1  0  0  0  0
  9 10  1  0  0  0  0
  9 11  1  0  0  0  0
  9 15  1  0  0  0  0
 11 12  1  0  0  0  0
 11 13  1  0  0  0  0
 11 14  1  0  0  0  0
 14 36  1  0  0  0  0
 15 16  2  0  0  0  0
 15 17  1  0  0  0  0
 17 18  1  0  0  0  0
 17 19  1  0  0  0  0
 19 20  1  0  0  0  0
 19 21  1  0  0  0  0
 19 22  1  0  0  0  0
 23 24  1  0  0  0  0
 24 25  1  0  0  0  0
 24 26  1  0  0  0  0
 24 27  1  0  0  0  0
 27 28  2  0  0  0  0
 27 29  1  0  0  0  0
 29 30  1  0  0  0  0
 29 31  1  0  0  0  0
 31 32  1  0  0  0  0
 31 33  1  0  0  0  0
 31 37  1  0  0  0  0
 33 34  1  0  0  0  0
 33 35  1  0  0  0  0
 33 36  1  0  0  0  0
 37 38  2  0  0  0  0
 37 39  1  0  0  0  0
 39 40  1  0  0  0  0
 39 41  1  0  0  0  0
 41 42  1  0  0  0  0
 41 43  1  0  0  0  0
 41 44  1  0  0  0  0
M  END
$$$$

  -OEChem-04042215573D

 44 43  0     1  0  0  0  0  0999 V2000
    0.4580   -6.4387    1.6821 H   0  0  0  0  0  0  0  0  0  0  0  0
    0.5225   -5.4098    2.0469 C   0  0  0  0  0  0  0  0  0  0  0  0
    1.1282   -5.3937    2.9559 H   0  0  0  0  0  0  0  0  0  0  0  0
   -0.4846   -5.0569    2.2809 H   0  0  0  0  0  0  0  0  0  0  0  0
    1.1506   -4.5212    0.9906 C   0  0  0  0  0  0  0  0  0  0  0  0
    1.6017   -5.0169   -0.0286 O   0  0  0  0  0  0  0  0  0  0  0  0
    1.2403   -3.1619    1.2072 N   0  0  0  0  0  0  0  0  0  0  0  0
    0.9236   -2.8083    2.1072 H   0  0  0  0  0  0  0  0  0  0  0  0
    1.7740   -2.1836    0.2459 C   0  0  1  0  0  0  0  0  0  0  0  0
    2.3359   -2.6964   -0.5413 H   0  0  0  0  0  0  0  0  0  0  0  0
    0.6162   -1.3981   -0.3925 C   0  0  0  0  0  0  0  0  0  0  0  0
    1.0128   -0.6514   -1.0873 H   0  0  0  0  0  0  0  0  0  0  0  0
    0.0671   -0.8643    0.3903 H   0  0  0  0  0  0  0  0  0  0  0  0
   -0.5509   -2.4977   -1.2917 S   0  0  0  0  0  0  0  0  0  0  0  0
    2.7274   -1.1906    0.9337 C   0  0  0  0  0  0  0  0  0  0  0  0
    2.4112   -0.6869    2.0055 O   0  0  0  0  0  0  0  0  0  0  0  0
    3.9368   -0.8574    0.3525 N   0  0  0  0  0  0  0  0  0  0  0  0
    4.1982   -1.3442   -0.5011 H   0  0  0  0  0  0  0  0  0  0  0  0
    4.8996    0.0457    0.9720 C   0  0  0  0  0  0  0  0  0  0  0  0
    4.4393    1.0183    1.1766 H   0  0  0  0  0  0  0  0  0  0  0  0
    5.2688   -0.3741    1.9136 H   0  0  0  0  0  0  0  0  0  0  0  0
    5.7525    0.2040    0.3050 H   0  0  0  0  0  0  0  0  0  0  0  0
    1.0232    0.0999   -9.0286 H   0  0  0  0  0  0  0  0  0  0  0  0
    0.1217    0.0220   -8.4143 C   0  0  0  0  0  0  0  0  0  0  0  0
   -0.7002   -0.3387   -9.0375 H   0  0  0  0  0  0  0  0  0  0  0  0
   -0.1285    1.0133   -8.0293 H   0  0  0  0  0  0  0  0  0  0  0  0
    0.3553   -0.9374   -7.2632 C   0  0  0  0  0  0  0  0  0  0  0  0
    1.4141   -1.5363   -7.1706 O   0  0  0  0  0  0  0  0  0  0  0  0
   -0.6315   -1.1339   -6.3214 N   0  0  0  0  0  0  0  0  0  0  0  0
   -1.5433   -0.7143   -6.5054 H   0  0  0  0  0  0  0  0  0  0  0  0
   -0.5965   -2.1760   -5.2833 C   0  0  1  0  0  0  0  0  0  0  0  0
   -0.1209   -3.0760   -5.6881 H   0  0  0  0  0  0  0  0  0  0  0  0
    0.2315   -1.6607   -4.0969 C   0  0  0  0  0  0  0  0  0  0  0  0
    1.1716   -1.2402   -4.4678 H   0  0  0  0  0  0  0  0  0  0  0  0
   -0.3103   -0.8623   -3.5807 H   0  0  0  0  0  0  0  0  0  0  0  0
    0.6360   -3.0210   -2.9279 S   0  0  0  0  0  0  0  0  0  0  0  0
   -2.0327   -2.5613   -4.8562 C   0  0  0  0  0  0  0  0  0  0  0  0
   -2.9845   -1.9067   -5.2736 O   0  0  0  0  0  0  0  0  0  0  0  0
   -2.2749   -3.6576   -4.0499 N   0  0  0  0  0  0  0  0  0  0  0  0
   -1.4627   -4.0757   -3.5982 H   0  0  0  0  0  0  0  0  0  0  0  0
   -3.5988   -3.9973   -3.5447 C   0  0  0  0  0  0  0  0  0  0  0  0
   -3.9760   -3.2011   -2.8948 H   0  0  0  0  0  0  0  0  0  0  0  0
   -4.3017   -4.1408   -4.3722 H   0  0  0  0  0  0  0  0  0  0  0  0
   -3.5546   -4.9255   -2.9671 H   0  0  0  0  0  0  0  0  0  0  0  0
  1  2  1  0  0  0  0
  2  3  1  0  0  0  0
  2  4  1  0  0  0  0
  2  5  1  0  0  0  0
  5  6  2  0  0  0  0
  5  7  1  0  0  0  0
  7  8  1  0  0  0  0
  7  9  1  0  0  0  0
  9 10  1  0  0  0  0
  9 11  1  0  0  0  0
  9 15  1  0  0  0  0
 11 12  1  0  0  0  0
 11 13  1  0  0  0  0
 11 14  1  0  0  0  0
 14 36  1  0  0  0  0
 15 16  2  0  0  0  0
 15 17  1  0  0  0  0
 17 18  1  0  0  0  0
 17 19  1  0  0  0  0
 19 20  1  0  0  0  0
 19 21  1  0  0  0  0
 19 22  1  0  0  0  0
 23 24  1  0  0  0  0
 24 25  1  0  0  0  0
 24 26  1  0  0  0  0
 24 27  1  0  0  0  0
 27 28  2  0  0  0  0
 27 29  1  0  0  0  0
 29 30  1  0  0  0  0
 29 31  1  0  0  0  0
 31 32  1  0  0  0  0
 31 33  1  0  0  0  0
 31 37  1  0  0  0  0
 33 34  1  0  0  0  0
 33 35  1  0  0  0  0
 33 36  1  0  0  0  0
 37 38  2  0  0  0  0
 37 39  1  0  0  0  0
 39 40  1  0  0  0  0
 39 41  1  0  0  0  0
 41 42  1  0  0  0  0
 41 43  1  0  0  0  0
 41 44  1  0  0  0  0
M  END
$$$$

  -OEChem-04042215573D

 44 43  0     1  0  0  0  0  0999 V2000
    0.5581   -6.4057    1.8689 H   0  0  0  0  0  0  0  0  0  0  0  0
    0.4860   -5.3456    2.1270 C   0  0  0  0  0  0  0  0  0  0  0  0
    0.9285   -5.1919    3.1139 H   0  0  0  0  0  0  0  0  0  0  0  0
   -0.5686   -5.0620    2.1580 H   0  0  0  0  0  0  0  0  0  0  0  0
    1.2161   -4.5080    1.0949 C   0  0  0  0  0  0  0  0  0  0  0  0
    1.8103   -5.0550    0.1805 O   0  0  0  0  0  0  0  0  0  0  0  0
    1.2411   -3.1344    1.2222 N   0  0  0  0  0  0  0  0  0  0  0  0
    0.7850   -2.7315    2.0374 H   0  0  0  0  0  0  0  0  0  0  0  0
    1.8129   -2.2009    0.2371 C   0  0  1  0  0  0  0  0  0  0  0  0
    2.4485   -2.7504   -0.4651 H   0  0  0  0  0  0  0  0  0  0  0  0
    0.6956   -1.4984   -0.5599 C   0  0  0  0  0  0  0  0  0  0  0  0
    1.1282   -0.9803   -1.4211 H   0  0  0  0  0  0  0  0  0  0  0  0
    0.2264   -0.7420    0.0783 H   0  0  0  0  0  0  0  0  0  0  0  0
   -0.6253   -2.6441   -1.1335 S   0  0  0  0  0  0  0  0  0  0  0  0
    2.6768   -1.1250    0.9217 C   0  0  0  0  0  0  0  0  0  0  0  0
    2.2597   -0.5573    1.9249 O   0  0  0  0  0  0  0  0  0  0  0  0
    3.9150   -0.7825    0.4096 N   0  0  0  0  0  0  0  0  0  0  0  0
    4.2658   -1.3259   -0.3748 H   0  0  0  0  0  0  0  0  0  0  0  0
    4.7951    0.1964    1.0373 C   0  0  0  0  0  0  0  0  0  0  0  0
    4.2922    1.1654    1.1250 H   0  0  0  0  0  0  0  0  0  0  0  0
    5.0898   -0.1394    2.0372 H   0  0  0  0  0  0  0  0  0  0  0  0
    5.6997    0.3322    0.4365 H   0  0  0  0  0  0  0  0  0  0  0  0
    0.5098   -2.0127   -9.3668 H   0  0  0  0  0  0  0  0  0  0  0  0
   -0.2864   -1.7552   -8.6625 C   0  0  0  0  0  0  0  0  0  0  0  0
   -1.2484   -2.0307   -9.1014 H   0  0  0  0  0  0  0  0  0  0  0  0
   -0.2669   -0.6768   -8.4885 H   0  0  0  0  0  0  0  0  0  0  0  0
   -0.0840   -2.4938   -7.3535 C   0  0  0  0  0  0  0  0  0  0  0  0
    0.8665   -3.2462   -7.2175 O   0  0  0  0  0  0  0  0  0  0  0  0
   -0.9706   -2.3110   -6.3141 N   0  0  0  0  0  0  0  0  0  0  0  0
   -1.8180   -1.7775   -6.5097 H   0  0  0  0  0  0  0  0  0  0  0  0
   -0.9740   -3.1063   -5.0762 C   0  0  1  0  0  0  0  0  0  0  0  0
   -0.6720   -4.1345   -5.3029 H   0  0  0  0  0  0  0  0  0  0  0  0
    0.0377   -2.4920   -4.0975 C   0  0  0  0  0  0  0  0  0  0  0  0
    0.9815   -2.3151   -4.6233 H   0  0  0  0  0  0  0  0  0  0  0  0
   -0.3286   -1.5267   -3.7347 H   0  0  0  0  0  0  0  0  0  0  0  0
    0.3769   -3.6195   -2.6843 S   0  0  0  0  0  0  0  0  0  0  0  0
   -2.3959   -3.1626   -4.4715 C   0  0  0  0  0  0  0  0  0  0  0  0
   -3.2798   -2.4442   -4.9308 O   0  0  0  0  0  0  0  0  0  0  0  0
   -2.7047   -4.0391   -3.4487 N   0  0  0  0  0  0  0  0  0  0  0  0
   -1.9168   -4.4988   -2.9950 H   0  0  0  0  0  0  0  0  0  0  0  0
   -3.9962   -4.0503   -2.7740 C   0  0  0  0  0  0  0  0  0  0  0  0
   -4.1854   -3.0847   -2.2933 H   0  0  0  0  0  0  0  0  0  0  0  0
   -4.8011   -4.2536   -3.4883 H   0  0  0  0  0  0  0  0  0  0  0  0
   -4.0126   -4.8293   -2.0056 H   0  0  0  0  0  0  0  0  0  0  0  0
  1  2  1  0  0  0  0
  2  3  1  0  0  0  0
  2  4  1  0  0  0  0
  2  5  1  0  0  0  0
  5  6  2  0  0  0  0
  5  7  1  0  0  0  0
  7  8  1  0  0  0  0
  7  9  1  0  0  0  0
  9 10  1  0  0  0  0
  9 11  1  0  0  0  0
  9 15  1  0  0  0  0
 11 12  1  0  0  0  0
 11 13  1  0  0  0  0
 11 14  1  0  0  0  0
 14 36  1  0  0  0  0
 15 16  2  0  0  0  0
 15 17  1  0  0  0  0
 17 18  1  0  0  0  0
 17 19  1  0  0  0  0
 19 20  1  0  0  0  0
 19 21  1  0  0  0  0
 19 22  1  0  0  0  0
 23 24  1  0  0  0  0
 24 25  1  0  0  0  0
 24 26  1  0  0  0  0
 24 27  1  0  0  0  0
 27 28  2  0  0  0  0
 27 29  1  0  0  0  0
 29 30  1  0  0  0  0
 29 31  1  0  0  0  0
 31 32  1  0  0  0  0
 31 33  1  0  0  0  0
 31 37  1  0  0  0  0
 33 34  1  0  0  0  0
 33 35  1  0  0  0  0
 33 36  1  0  0  0  0
 37 38  2  0  0  0  0
 37 39  1  0  0  0  0
 39 40  1  0  0  0  0
 39 41  1  0  0  0  0
 41 42  1  0  0  0  0
 41 43  1  0  0  0  0
 41 44  1  0  0  0  0
M  END
$$$$

  -OEChem-04042215573D

 44 43  0     1  0  0  0  0  0999 V2000
    0.5034   -6.2506    2.1630 H   0  0  0  0  0  0  0  0  0  0  0  0
    0.4232   -5.1728    2.3292 C   0  0  0  0  0  0  0  0  0  0  0  0
    0.7899   -4.9412    3.3320 H   0  0  0  0  0  0  0  0  0  0  0  0
   -0.6276   -4.8829    2.2552 H   0  0  0  0  0  0  0  0  0  0  0  0
    1.2388   -4.4243    1.2929 C   0  0  0  0  0  0  0  0  0  0  0  0
    1.9281   -5.0429    0.4985 O   0  0  0  0  0  0  0  0  0  0  0  0
    1.2277   -3.0451    1.2797 N   0  0  0  0  0  0  0  0  0  0  0  0
    0.6694   -2.5748    1.9880 H   0  0  0  0  0  0  0  0  0  0  0  0
    1.8454   -2.2060    0.2396 C   0  0  1  0  0  0  0  0  0  0  0  0
    2.5425   -2.8130   -0.3472 H   0  0  0  0  0  0  0  0  0  0  0  0
    0.7837   -1.6288   -0.7248 C   0  0  0  0  0  0  0  0  0  0  0  0
    1.2432   -1.4290   -1.6974 H   0  0  0  0  0  0  0  0  0  0  0  0
    0.4295   -0.6715   -0.3276 H   0  0  0  0  0  0  0  0  0  0  0  0
   -0.7015   -2.6960   -0.9511 S   0  0  0  0  0  0  0  0  0  0  0  0
    2.6420   -1.0444    0.8635 C   0  0  0  0  0  0  0  0  0  0  0  0
    2.1507   -0.3850    1.7726 O   0  0  0  0  0  0  0  0  0  0  0  0
    3.9053   -0.7272    0.3988 N   0  0  0  0  0  0  0  0  0  0  0  0
    4.3223   -1.3508   -0.2871 H   0  0  0  0  0  0  0  0  0  0  0  0
    4.7327    0.3152    0.9952 C   0  0  0  0  0  0  0  0  0  0  0  0
    4.2188    1.2817    0.9564 H   0  0  0  0  0  0  0  0  0  0  0  0
    4.9554    0.0762    2.0406 H   0  0  0  0  0  0  0  0  0  0  0  0
    5.6782    0.4066    0.4517 H   0  0  0  0  0  0  0  0  0  0  0  0
   -0.2268   -3.8568   -9.1725 H   0  0  0  0  0  0  0  0  0  0  0  0
   -0.9102   -3.3640   -8.4756 C   0  0  0  0  0  0  0  0  0  0  0  0
   -1.9378   -3.5668   -8.7863 H   0  0  0  0  0  0  0  0  0  0  0  0
   -0.7316   -2.2867   -8.5086 H   0  0  0  0  0  0  0  0  0  0  0  0
   -0.6831   -3.8834   -7.0694 C   0  0  0  0  0  0  0  0  0  0  0  0
    0.1611   -4.7391   -6.8615 O   0  0  0  0  0  0  0  0  0  0  0  0
   -1.4303   -3.3858   -6.0239 N   0  0  0  0  0  0  0  0  0  0  0  0
   -2.2081   -2.7679   -6.2564 H   0  0  0  0  0  0  0  0  0  0  0  0
   -1.4145   -3.9287   -4.6564 C   0  0  1  0  0  0  0  0  0  0  0  0
   -1.2648   -5.0132   -4.6958 H   0  0  0  0  0  0  0  0  0  0  0  0
   -0.2448   -3.2888   -3.8939 C   0  0  0  0  0  0  0  0  0  0  0  0
    0.6662   -3.3825   -4.4938 H   0  0  0  0  0  0  0  0  0  0  0  0
   -0.4355   -2.2220   -3.7414 H   0  0  0  0  0  0  0  0  0  0  0  0
    0.0501   -4.1205   -2.2800 S   0  0  0  0  0  0  0  0  0  0  0  0
   -2.7680   -3.6722   -3.9543 C   0  0  0  0  0  0  0  0  0  0  0  0
   -3.5794   -2.9037   -4.4632 O   0  0  0  0  0  0  0  0  0  0  0  0
   -3.1057   -4.3324   -2.7878 N   0  0  0  0  0  0  0  0  0  0  0  0
   -2.3529   -4.8329   -2.3190 H   0  0  0  0  0  0  0  0  0  0  0  0
   -4.3240   -4.0519   -2.0390 C   0  0  0  0  0  0  0  0  0  0  0  0
   -4.3304   -3.0127   -1.6941 H   0  0  0  0  0  0  0  0  0  0  0  0
   -5.2073   -4.2224   -2.6635 H   0  0  0  0  0  0  0  0  0  0  0  0
   -4.3895   -4.7079   -1.1656 H   0  0  0  0  0  0  0  0  0  0  0  0
  1  2  1  0  0  0  0
  2  3  1  0  0  0  0
  2  4  1  0  0  0  0
  2  5  1  0  0  0  0
  5  6  2  0  0  0  0
  5  7  1  0  0  0  0
  7  8  1  0  0  0  0
  7  9  1  0  0  0  0
  9 10  1  0  0  0  0
  9 11  1  0  0  0  0
  9 15  1  0  0  0  0
 11 12  1  0  0  0  0
 11 13  1  0  0  0  0
 11 14  1  0  0  0  0
 14 36  1  0  0  0  0
 15 16  2  0  0  0  0
 15 17  1  0  0  0  0
 17 18  1  0  0  0  0
 17 19  1  0  0  0  0
 19 20  1  0  0  0  0
 19 21  1  0  0  0  0
 19 22  1  0  0  0  0
 23 24  1  0  0  0  0
 24 25  1  0  0  0  0
 24 26  1  0  0  0  0
 24 27  1  0  0  0  0
 27 28  2  0  0  0  0
 27 29  1  0  0  0  0
 29 30  1  0  0  0  0
 29 31  1  0  0  0  0
 31 32  1  0  0  0  0
 31 33  1  0  0  0  0
 31 37  1  0  0  0  0
 33 34  1  0  0  0  0
 33 35  1  0  0  0  0
 33 36  1  0  0  0  0
 37 38  2  0  0  0  0
 37 39  1  0  0  0  0
 39 40  1  0  0  0  0
 39 41  1  0  0  0  0
 41 42  1  0  0  0  0
 41 43  1  0  0  0  0
 41 44  1  0  0  0  0
M  END
$$$$

  -OEChem-04042215573D

 44 43  0     1  0  0  0  0  0999 V2000
    0.7933   -6.3023    2.2866 H   0  0  0  0  0  0  0  0  0  0  0  0
    0.6035   -5.2312    2.3982 C   0  0  0  0  0  0  0  0  0  0  0  0
    0.8790   -4.9267    3.4105 H   0  0  0  0  0  0  0  0  0  0  0  0
   -0.4620   -5.0452    2.2439 H   0  0  0  0  0  0  0  0  0  0  0  0
    1.4156   -4.4507    1.3835 C   0  0  0  0  0  0  0  0  0  0  0  0
    2.1921   -5.0356    0.6453 O   0  0  0  0  0  0  0  0  0  0  0  0
    1.2969   -3.0781    1.3186 N   0  0  0  0  0  0  0  0  0  0  0  0
    0.6459   -2.6334    1.9614 H   0  0  0  0  0  0  0  0  0  0  0  0
    1.8779   -2.2391    0.2579 C   0  0  1  0  0  0  0  0  0  0  0  0
    2.6409   -2.8128   -0.2780 H   0  0  0  0  0  0  0  0  0  0  0  0
    0.8115   -1.7860   -0.7717 C   0  0  0  0  0  0  0  0  0  0  0  0
    1.2318   -1.8586   -1.7791 H   0  0  0  0  0  0  0  0  0  0  0  0
    0.5700   -0.7320   -0.5968 H   0  0  0  0  0  0  0  0  0  0  0  0
   -0.7828   -2.7120   -0.7107 S   0  0  0  0  0  0  0  0  0  0  0  0
    2.5681   -0.9963    0.8544 C   0  0  0  0  0  0  0  0  0  0  0  0
    1.9981   -0.3306    1.7112 O   0  0  0  0  0  0  0  0  0  0  0  0
    3.8172   -0.6038    0.4086 N   0  0  0  0  0  0  0  0  0  0  0  0
    4.3040   -1.2284   -0.2288 H   0  0  0  0  0  0  0  0  0  0  0  0
    4.5405    0.5332    0.9663 C   0  0  0  0  0  0  0  0  0  0  0  0
    3.9411    1.4466    0.8888 H   0  0  0  0  0  0  0  0  0  0  0  0
    4.7779    0.3565    2.0206 H   0  0  0  0  0  0  0  0  0  0  0  0
    5.4762    0.6903    0.4214 H   0  0  0  0  0  0  0  0  0  0  0  0
   -1.2646   -5.8308   -8.4576 H   0  0  0  0  0  0  0  0  0  0  0  0
   -1.7179   -5.0191   -7.8817 C   0  0  0  0  0  0  0  0  0  0  0  0
   -2.7953   -5.0200   -8.0628 H   0  0  0  0  0  0  0  0  0  0  0  0
   -1.2980   -4.0687   -8.2196 H   0  0  0  0  0  0  0  0  0  0  0  0
   -1.4403   -5.2107   -6.4030 C   0  0  0  0  0  0  0  0  0  0  0  0
   -0.7675   -6.1553   -6.0249 O   0  0  0  0  0  0  0  0  0  0  0  0
   -1.9523   -4.3211   -5.4833 N   0  0  0  0  0  0  0  0  0  0  0  0
   -2.6169   -3.6266   -5.8251 H   0  0  0  0  0  0  0  0  0  0  0  0
   -1.9149   -4.5244   -4.0264 C   0  0  1  0  0  0  0  0  0  0  0  0
   -1.9589   -5.5965   -3.8049 H   0  0  0  0  0  0  0  0  0  0  0  0
   -0.5930   -3.9557   -3.4899 C   0  0  0  0  0  0  0  0  0  0  0  0
    0.2320   -4.3407   -4.0980 H   0  0  0  0  0  0  0  0  0  0  0  0
   -0.5895   -2.8648   -3.5759 H   0  0  0  0  0  0  0  0  0  0  0  0
   -0.2957   -4.4596   -1.7458 S   0  0  0  0  0  0  0  0  0  0  0  0
   -3.1413   -3.8646   -3.3562 C   0  0  0  0  0  0  0  0  0  0  0  0
   -3.8343   -3.0787   -3.9966 O   0  0  0  0  0  0  0  0  0  0  0  0
   -3.5062   -4.1870   -2.0627 N   0  0  0  0  0  0  0  0  0  0  0  0
   -2.8239   -4.7128   -1.5203 H   0  0  0  0  0  0  0  0  0  0  0  0
   -4.5941   -3.5252   -1.3542 C   0  0  0  0  0  0  0  0  0  0  0  0
   -4.3780   -2.4588   -1.2308 H   0  0  0  0  0  0  0  0  0  0  0  0
   -5.5345   -3.6338   -1.9049 H   0  0  0  0  0  0  0  0  0  0  0  0
   -4.7235   -3.9707   -0.3633 H   0  0  0  0  0  0  0  0  0  0  0  0
  1  2  1  0  0  0  0
  2  3  1  0  0  0  0
  2  4  1  0  0  0  0
  2  5  1  0  0  0  0
  5  6  2  0  0  0  0
  5  7  1  0  0  0  0
  7  8  1  0  0  0  0
  7  9  1  0  0  0  0
  9 10  1  0  0  0  0
  9 11  1  0  0  0  0
  9 15  1  0  0  0  0
 11 12  1  0  0  0  0
 11 13  1  0  0  0  0
 11 14  1  0  0  0  0
 14 36  1  0  0  0  0
 15 16  2  0  0  0  0
 15 17  1  0  0  0  0
 17 18  1  0  0  0  0
 17 19  1  0  0  0  0
 19 20  1  0  0  0  0
 19 21  1  0  0  0  0
 19 22  1  0  0  0  0
 23 24  1  0  0  0  0
 24 25  1  0  0  0  0
 24 26  1  0  0  0  0
 24 27  1  0  0  0  0
 27 28  2  0  0  0  0
 27 29  1  0  0  0  0
 29 30  1  0  0  0  0
 29 31  1  0  0  0  0
 31 32  1  0  0  0  0
 31 33  1  0  0  0  0
 31 37  1  0  0  0  0
 33 34  1  0  0  0  0
 33 35  1  0  0  0  0
 33 36  1  0  0  0  0
 37 38  2  0  0  0  0
 37 39  1  0  0  0  0
 39 40  1  0  0  0  0
 39 41  1  0  0  0  0
 41 42  1  0  0  0  0
 41 43  1  0  0  0  0
 41 44  1  0  0  0  0
M  END
$$$$

  -OEChem-04042215573D

 44 43  0     1  0  0  0  0  0999 V2000
    1.4209   -6.4244    2.4685 H   0  0  0  0  0  0  0  0  0  0  0  0
    1.0794   -5.3883    2.5436 C   0  0  0  0  0  0  0  0  0  0  0  0
    1.3571   -4.9944    3.5239 H   0  0  0  0  0  0  0  0  0  0  0  0
   -0.0083   -5.3680    2.4430 H   0  0  0  0  0  0  0  0  0  0  0  0
    1.7136   -4.5502    1.4509 C   0  0  0  0  0  0  0  0  0  0  0  0
    2.5000   -5.0606    0.6687 O   0  0  0  0  0  0  0  0  0  0  0  0
    1.4270   -3.2041    1.3622 N   0  0  0  0  0  0  0  0  0  0  0  0
    0.7623   -2.8193    2.0295 H   0  0  0  0  0  0  0  0  0  0  0  0
    1.8634   -2.3309    0.2614 C   0  0  1  0  0  0  0  0  0  0  0  0
    2.6748   -2.8123   -0.2936 H   0  0  0  0  0  0  0  0  0  0  0  0
    0.7165   -2.0169   -0.7337 C   0  0  0  0  0  0  0  0  0  0  0  0
    1.0202   -2.3492   -1.7306 H   0  0  0  0  0  0  0  0  0  0  0  0
    0.5651   -0.9336   -0.7906 H   0  0  0  0  0  0  0  0  0  0  0  0
   -0.9152   -2.7827   -0.3380 S   0  0  0  0  0  0  0  0  0  0  0  0
    2.4159   -1.0056    0.8238 C   0  0  0  0  0  0  0  0  0  0  0  0
    1.7967   -0.4005    1.6915 O   0  0  0  0  0  0  0  0  0  0  0  0
    3.5939   -0.4713    0.3344 N   0  0  0  0  0  0  0  0  0  0  0  0
    4.1249   -1.0306   -0.3277 H   0  0  0  0  0  0  0  0  0  0  0  0
    4.1778    0.7652    0.8406 C   0  0  0  0  0  0  0  0  0  0  0  0
    3.4655    1.5920    0.7480 H   0  0  0  0  0  0  0  0  0  0  0  0
    4.4547    0.6550    1.8944 H   0  0  0  0  0  0  0  0  0  0  0  0
    5.0761    1.0209    0.2708 H   0  0  0  0  0  0  0  0  0  0  0  0
   -2.4359   -7.3379   -7.2018 H   0  0  0  0  0  0  0  0  0  0  0  0
   -2.6235   -6.3222   -6.8426 C   0  0  0  0  0  0  0  0  0  0  0  0
   -3.6680   -6.0669   -7.0367 H   0  0  0  0  0  0  0  0  0  0  0  0
   -1.9781   -5.6303   -7.3886 H   0  0  0  0  0  0  0  0  0  0  0  0
   -2.3360   -6.2334   -5.3563 C   0  0  0  0  0  0  0  0  0  0  0  0
   -1.9466   -7.2166   -4.7482 O   0  0  0  0  0  0  0  0  0  0  0  0
   -2.5178   -5.0403   -4.6908 N   0  0  0  0  0  0  0  0  0  0  0  0
   -2.9743   -4.2856   -5.2034 H   0  0  0  0  0  0  0  0  0  0  0  0
   -2.4513   -4.8882   -3.2288 C   0  0  1  0  0  0  0  0  0  0  0  0
   -2.7406   -5.8285   -2.7471 H   0  0  0  0  0  0  0  0  0  0  0  0
   -1.0019   -4.5526   -2.8473 C   0  0  0  0  0  0  0  0  0  0  0  0
   -0.3319   -5.2434   -3.3697 H   0  0  0  0  0  0  0  0  0  0  0  0
   -0.7512   -3.5381   -3.1717 H   0  0  0  0  0  0  0  0  0  0  0  0
   -0.6987   -4.7387   -1.0417 S   0  0  0  0  0  0  0  0  0  0  0  0
   -3.4418   -3.8010   -2.7570 C   0  0  0  0  0  0  0  0  0  0  0  0
   -3.9130   -3.0144   -3.5739 O   0  0  0  0  0  0  0  0  0  0  0  0
   -3.8498   -3.7301   -1.4388 N   0  0  0  0  0  0  0  0  0  0  0  0
   -3.3161   -4.2834   -0.7719 H   0  0  0  0  0  0  0  0  0  0  0  0
   -4.6925   -2.6552   -0.9296 C   0  0  0  0  0  0  0  0  0  0  0  0
   -4.1925   -1.6879   -1.0479 H   0  0  0  0  0  0  0  0  0  0  0  0
   -5.6467   -2.6271   -1.4664 H   0  0  0  0  0  0  0  0  0  0  0  0
   -4.9007   -2.8102    0.1334 H   0  0  0  0  0  0  0  0  0  0  0  0
  1  2  1  0  0  0  0
  2  3  1  0  0  0  0
  2  4  1  0  0  0  0
  2  5  1  0  0  0  0
  5  6  2  0  0  0  0
  5  7  1  0  0  0  0
  7  8  1  0  0  0  0
  7  9  1  0  0  0  0
  9 10  1  0  0  0  0
  9 11  1  0  0  0  0
  9 15  1  0  0  0  0
 11 12  1  0  0  0  0
 11 13  1  0  0  0  0
 11 14  1  0  0  0  0
 14 36  1  0  0  0  0
 15 16  2  0  0  0  0
 15 17  1  0  0  0  0
 17 18  1  0  0  0  0
 17 19  1  0  0  0  0
 19 20  1  0  0  0  0
 19 21  1  0  0  0  0
 19 22  1  0  0  0  0
 23 24  1  0  0  0  0
 24 25  1  0  0  0  0
 24 26  1  0  0  0  0
 24 27  1  0  0  0  0
 27 28  2  0  0  0  0
 27 29  1  0  0  0  0
 29 30  1  0  0  0  0
 29 31  1  0  0  0  0
 31 32  1  0  0  0  0
 31 33  1  0  0  0  0
 31 37  1  0  0  0  0
 33 34  1  0  0  0  0
 33 35  1  0  0  0  0
 33 36  1  0  0  0  0
 37 38  2  0  0  0  0
 37 39  1  0  0  0  0
 39 40  1  0  0  0  0
 39 41  1  0  0  0  0
 41 42  1  0  0  0  0
 41 43  1  0  0  0  0
 41 44  1  0  0  0  0
M  END
$$$$

  -OEChem-04042215573D

 44 43  0     1  0  0  0  0  0999 V2000
    1.6989   -6.3888    2.5540 H   0  0  0  0  0  0  0  0  0  0  0  0
    1.3116   -5.3680    2.6135 C   0  0  0  0  0  0  0  0  0  0  0  0
    1.5897   -4.9408    3.5797 H   0  0  0  0  0  0  0  0  0  0  0  0
    0.2223   -5.4001    2.5351 H   0  0  0  0  0  0  0  0  0  0  0  0
    1.8857   -4.5267    1.4900 C   0  0  0  0  0  0  0  0  0  0  0  0
    2.6828   -5.0165    0.7051 O   0  0  0  0  0  0  0  0  0  0  0  0
    1.5242   -3.2019    1.3672 N   0  0  0  0  0  0  0  0  0  0  0  0
    0.8485   -2.8308    2.0318 H   0  0  0  0  0  0  0  0  0  0  0  0
    1.9279   -2.3303    0.2542 C   0  0  1  0  0  0  0  0  0  0  0  0
    2.7762   -2.7678   -0.2818 H   0  0  0  0  0  0  0  0  0  0  0  0
    0.7772   -2.0992   -0.7556 C   0  0  0  0  0  0  0  0  0  0  0  0
    0.9844   -2.6898   -1.6532 H   0  0  0  0  0  0  0  0  0  0  0  0
    0.7563   -1.0476   -1.0602 H   0  0  0  0  0  0  0  0  0  0  0  0
   -0.9034   -2.5648   -0.1512 S   0  0  0  0  0  0  0  0  0  0  0  0
    2.3918   -0.9670    0.8073 C   0  0  0  0  0  0  0  0  0  0  0  0
    1.7337   -0.3946    1.6685 O   0  0  0  0  0  0  0  0  0  0  0  0
    3.5464   -0.3715    0.3322 N   0  0  0  0  0  0  0  0  0  0  0  0
    4.1146   -0.9019   -0.3224 H   0  0  0  0  0  0  0  0  0  0  0  0
    4.0610    0.8923    0.8469 C   0  0  0  0  0  0  0  0  0  0  0  0
    3.3226    1.6904    0.7146 H   0  0  0  0  0  0  0  0  0  0  0  0
    4.2972    0.8045    1.9126 H   0  0  0  0  0  0  0  0  0  0  0  0
    4.9730    1.1755    0.3124 H   0  0  0  0  0  0  0  0  0  0  0  0
   -3.6165   -8.3358   -5.6089 H   0  0  0  0  0  0  0  0  0  0  0  0
   -3.6956   -7.2511   -5.4924 C   0  0  0  0  0  0  0  0  0  0  0  0
   -4.7385   -6.9561   -5.6317 H   0  0  0  0  0  0  0  0  0  0  0  0
   -3.0818   -6.7692   -6.2569 H   0  0  0  0  0  0  0  0  0  0  0  0
   -3.2214   -6.8390   -4.1122 C   0  0  0  0  0  0  0  0  0  0  0  0
   -2.8563   -7.6856   -3.3133 O   0  0  0  0  0  0  0  0  0  0  0  0
   -3.2083   -5.5071   -3.7580 N   0  0  0  0  0  0  0  0  0  0  0  0
   -3.6561   -4.8515   -4.3985 H   0  0  0  0  0  0  0  0  0  0  0  0
   -2.9663   -5.0200   -2.3911 C   0  0  1  0  0  0  0  0  0  0  0  0
   -3.2741   -5.7841   -1.6690 H   0  0  0  0  0  0  0  0  0  0  0  0
   -1.4617   -4.7555   -2.2323 C   0  0  0  0  0  0  0  0  0  0  0  0
   -0.9070   -5.5912   -2.6712 H   0  0  0  0  0  0  0  0  0  0  0  0
   -1.1757   -3.8473   -2.7718 H   0  0  0  0  0  0  0  0  0  0  0  0
   -0.9781   -4.6304   -0.4618 S   0  0  0  0  0  0  0  0  0  0  0  0
   -3.8070   -3.7552   -2.1106 C   0  0  0  0  0  0  0  0  0  0  0  0
   -4.3282   -3.1526   -3.0450 O   0  0  0  0  0  0  0  0  0  0  0  0
   -4.0213   -3.3142   -0.8188 N   0  0  0  0  0  0  0  0  0  0  0  0
   -3.4474   -3.7407   -0.0943 H   0  0  0  0  0  0  0  0  0  0  0  0
   -4.7098   -2.0668   -0.5118 C   0  0  0  0  0  0  0  0  0  0  0  0
   -4.1808   -1.2173   -0.9567 H   0  0  0  0  0  0  0  0  0  0  0  0
   -5.7336   -2.0879   -0.8996 H   0  0  0  0  0  0  0  0  0  0  0  0
   -4.7553   -1.9175    0.5712 H   0  0  0  0  0  0  0  0  0  0  0  0
  1  2  1  0  0  0  0
  2  3  1  0  0  0  0
  2  4  1  0  0  0  0
  2  5  1  0  0  0  0
  5  6  2  0  0  0  0
  5  7  1  0  0  0  0
  7  8  1  0  0  0  0
  7  9  1  0  0  0  0
  9 10  1  0  0  0  0
  9 11  1  0  0  0  0
  9 15  1  0  0  0  0
 11 12  1  0  0  0  0
 11 13  1  0  0  0  0
 11 14  1  0  0  0  0
 14 36  1  0  0  0  0
 15 16  2  0  0  0  0
 15 17  1  0  0  0  0
 17 18  1  0  0  0  0
 17 19  1  0  0  0  0
 19 20  1  0  0  0  0
 19 21  1  0  0  0  0
 19 22  1  0  0  0  0
 23 24  1  0  0  0  0
 24 25  1  0  0  0  0
 24 26  1  0  0  0  0
 24 27  1  0  0  0  0
 27 28  2  0  0  0  0
 27 29  1  0  0  0  0
 29 30  1  0  0  0  0
 29 31  1  0  0  0  0
 31 32  1  0  0  0  0
 31 33  1  0  0  0  0
 31 37  1  0  0  0  0
 33 34  1  0  0  0  0
 33 35  1  0  0  0  0
 33 36  1  0  0  0  0
 37 38  2  0  0  0  0
 37 39  1  0  0  0  0
 39 40  1  0  0  0  0
 39 41  1  0  0  0  0
 41 42  1  0  0  0  0
 41 43  1  0  0  0  0
 41 44  1  0  0  0  0
M  END
$$$$

  -OEChem-04042215573D

 44 43  0     1  0  0  0  0  0999 V2000
    1.8999   -6.1969    2.9333 H   0  0  0  0  0  0  0  0  0  0  0  0
    1.4411   -5.2061    2.8713 C   0  0  0  0  0  0  0  0  0  0  0  0
    1.6771   -4.6507    3.7820 H   0  0  0  0  0  0  0  0  0  0  0  0
    0.3576   -5.3236    2.7937 H   0  0  0  0  0  0  0  0  0  0  0  0
    1.9670   -4.4618    1.6591 C   0  0  0  0  0  0  0  0  0  0  0  0
    2.7397   -5.0114    0.8897 O   0  0  0  0  0  0  0  0  0  0  0  0
    1.5801   -3.1590    1.4300 N   0  0  0  0  0  0  0  0  0  0  0  0
    0.9138   -2.7414    2.0763 H   0  0  0  0  0  0  0  0  0  0  0  0
    1.9482   -2.3762    0.2425 C   0  0  1  0  0  0  0  0  0  0  0  0
    2.7950   -2.8413   -0.2716 H   0  0  0  0  0  0  0  0  0  0  0  0
    0.7700   -2.2779   -0.7501 C   0  0  0  0  0  0  0  0  0  0  0  0
    0.8334   -3.1203   -1.4460 H   0  0  0  0  0  0  0  0  0  0  0  0
    0.8609   -1.3602   -1.3403 H   0  0  0  0  0  0  0  0  0  0  0  0
   -0.8976   -2.3181    0.0402 S   0  0  0  0  0  0  0  0  0  0  0  0
    2.3965   -0.9598    0.6556 C   0  0  0  0  0  0  0  0  0  0  0  0
    1.7583   -0.3257    1.4879 O   0  0  0  0  0  0  0  0  0  0  0  0
    3.5306   -0.3960    0.0991 N   0  0  0  0  0  0  0  0  0  0  0  0
    4.0921   -0.9793   -0.5151 H   0  0  0  0  0  0  0  0  0  0  0  0
    4.0447    0.9111    0.4907 C   0  0  0  0  0  0  0  0  0  0  0  0
    3.2769    1.6811    0.3591 H   0  0  0  0  0  0  0  0  0  0  0  0
    4.3574    0.9010    1.5402 H   0  0  0  0  0  0  0  0  0  0  0  0
    4.9079    1.1785   -0.1264 H   0  0  0  0  0  0  0  0  0  0  0  0
   -4.4619   -8.6066   -4.1411 H   0  0  0  0  0  0  0  0  0  0  0  0
   -4.4961   -7.5140   -4.1722 C   0  0  0  0  0  0  0  0  0  0  0  0
   -5.5360   -7.1963   -4.2785 H   0  0  0  0  0  0  0  0  0  0  0  0
   -3.9250   -7.1683   -5.0369 H   0  0  0  0  0  0  0  0  0  0  0  0
   -3.9066   -6.9377   -2.8996 C   0  0  0  0  0  0  0  0  0  0  0  0
   -3.4881   -7.6814   -2.0277 O   0  0  0  0  0  0  0  0  0  0  0  0
   -3.8400   -5.5718   -2.7278 N   0  0  0  0  0  0  0  0  0  0  0  0
   -4.3150   -4.9883   -3.4168 H   0  0  0  0  0  0  0  0  0  0  0  0
   -3.4453   -4.9129   -1.4731 C   0  0  1  0  0  0  0  0  0  0  0  0
   -3.7589   -5.5300   -0.6242 H   0  0  0  0  0  0  0  0  0  0  0  0
   -1.9154   -4.7786   -1.4607 C   0  0  0  0  0  0  0  0  0  0  0  0
   -1.4720   -5.7340   -1.7603 H   0  0  0  0  0  0  0  0  0  0  0  0
   -1.5964   -4.0229   -2.1853 H   0  0  0  0  0  0  0  0  0  0  0  0
   -1.2830   -4.3653    0.2163 S   0  0  0  0  0  0  0  0  0  0  0  0
   -4.1453   -3.5418   -1.3333 C   0  0  0  0  0  0  0  0  0  0  0  0
   -4.7193   -3.0528   -2.3023 O   0  0  0  0  0  0  0  0  0  0  0  0
   -4.1804   -2.8760   -0.1225 N   0  0  0  0  0  0  0  0  0  0  0  0
   -3.5626   -3.2289    0.6056 H   0  0  0  0  0  0  0  0  0  0  0  0
   -4.7394   -1.5384    0.0326 C   0  0  0  0  0  0  0  0  0  0  0  0
   -4.1800   -0.8164   -0.5718 H   0  0  0  0  0  0  0  0  0  0  0  0
   -5.7892   -1.5215   -0.2790 H   0  0  0  0  0  0  0  0  0  0  0  0
   -4.6880   -1.2270    1.0804 H   0  0  0  0  0  0  0  0  0  0  0  0
  1  2  1  0  0  0  0
  2  3  1  0  0  0  0
  2  4  1  0  0  0  0
  2  5  1  0  0  0  0
  5  6  2  0  0  0  0
  5  7  1  0  0  0  0
  7  8  1  0  0  0  0
  7  9  1  0  0  0  0
  9 10  1  0  0  0  0
  9 11  1  0  0  0  0
  9 15  1  0  0  0  0
 11 12  1  0  0  0  0
 11 13  1  0  0  0  0
 11 14  1  0  0  0  0
 14 36  1  0  0  0  0
 15 16  2  0  0  0  0
 15 17  1  0  0  0  0
 17 18  1  0  0  0  0
 17 19  1  0  0  0  0
 19 20  1  0  0  0  0
 19 21  1  0  0  0  0
 19 22  1  0  0  0  0
 23 24  1  0  0  0  0
 24 25  1  0  0  0  0
 24 26  1  0  0  0  0
 24 27  1  0  0  0  0
 27 28  2  0  0  0  0
 27 29  1  0  0  0  0
 29 30  1  0  0  0  0
 29 31  1  0  0  0  0
 31 32  1  0  0  0  0
 31 33  1  0  0  0  0
 31 37  1  0  0  0  0
 33 34  1  0  0  0  0
 33 35  1  0  0  0  0
 33 36  1  0  0  0  0
 37 38  2  0  0  0  0
 37 39  1  0  0  0  0
 39 40  1  0  0  0  0
 39 41  1  0  0  0  0
 41 42  1  0  0  0  0
 41 43  1  0  0  0  0
 41 44  1  0  0  0  0
M  END
$$$$

  -OEChem-04042215573D

 44 43  0     1  0  0  0  0  0999 V2000
    2.1148   -6.1841    2.9214 H   0  0  0  0  0  0  0  0  0  0  0  0
    1.6249   -5.2076    2.8738 C   0  0  0  0  0  0  0  0  0  0  0  0
    1.8885   -4.6372    3.7674 H   0  0  0  0  0  0  0  0  0  0  0  0
    0.5427   -5.3569    2.8505 H   0  0  0  0  0  0  0  0  0  0  0  0
    2.0699   -4.4613    1.6308 C   0  0  0  0  0  0  0  0  0  0  0  0
    2.7915   -5.0093    0.8124 O   0  0  0  0  0  0  0  0  0  0  0  0
    1.6540   -3.1649    1.4179 N   0  0  0  0  0  0  0  0  0  0  0  0
    1.0292   -2.7477    2.1054 H   0  0  0  0  0  0  0  0  0  0  0  0
    1.9600   -2.3733    0.2191 C   0  0  1  0  0  0  0  0  0  0  0  0
    2.7943   -2.8263   -0.3258 H   0  0  0  0  0  0  0  0  0  0  0  0
    0.7406   -2.3330   -0.7201 C   0  0  0  0  0  0  0  0  0  0  0  0
    0.6607   -3.2961   -1.2334 H   0  0  0  0  0  0  0  0  0  0  0  0
    0.8972   -1.5648   -1.4839 H   0  0  0  0  0  0  0  0  0  0  0  0
   -0.8539   -1.9995    0.1466 S   0  0  0  0  0  0  0  0  0  0  0  0
    2.4026   -0.9449    0.5969 C   0  0  0  0  0  0  0  0  0  0  0  0
    1.8135   -0.3218    1.4724 O   0  0  0  0  0  0  0  0  0  0  0  0
    3.5010   -0.3682   -0.0157 N   0  0  0  0  0  0  0  0  0  0  0  0
    4.0318   -0.9395   -0.6673 H   0  0  0  0  0  0  0  0  0  0  0  0
    4.0173    0.9455    0.3506 C   0  0  0  0  0  0  0  0  0  0  0  0
    3.2416    1.7093    0.2298 H   0  0  0  0  0  0  0  0  0  0  0  0
    4.3545    0.9480    1.3926 H   0  0  0  0  0  0  0  0  0  0  0  0
    4.8647    1.2117   -0.2888 H   0  0  0  0  0  0  0  0  0  0  0  0
   -5.3133   -8.5939   -2.3403 H   0  0  0  0  0  0  0  0  0  0  0  0
   -5.3218   -7.5242   -2.5675 C   0  0  0  0  0  0  0  0  0  0  0  0
   -6.3576   -7.1781   -2.5945 H   0  0  0  0  0  0  0  0  0  0  0  0
   -4.8663   -7.3687   -3.5484 H   0  0  0  0  0  0  0  0  0  0  0  0
   -4.5479   -6.7608   -1.5100 C   0  0  0  0  0  0  0  0  0  0  0  0
   -4.0667   -7.3516   -0.5570 O   0  0  0  0  0  0  0  0  0  0  0  0
   -4.3882   -5.3963   -1.6222 N   0  0  0  0  0  0  0  0  0  0  0  0
   -4.9135   -4.9215   -2.3567 H   0  0  0  0  0  0  0  0  0  0  0  0
   -3.8116   -4.5402   -0.5737 C   0  0  1  0  0  0  0  0  0  0  0  0
   -4.0802   -4.9413    0.4097 H   0  0  0  0  0  0  0  0  0  0  0  0
   -2.2825   -4.5513   -0.7214 C   0  0  0  0  0  0  0  0  0  0  0  0
   -1.9443   -5.5821   -0.8694 H   0  0  0  0  0  0  0  0  0  0  0  0
   -1.9831   -3.9749   -1.6023 H   0  0  0  0  0  0  0  0  0  0  0  0
   -1.4565   -3.8971    0.7858 S   0  0  0  0  0  0  0  0  0  0  0  0
   -4.3865   -3.1078   -0.6615 C   0  0  0  0  0  0  0  0  0  0  0  0
   -5.0569   -2.7823   -1.6374 O   0  0  0  0  0  0  0  0  0  0  0  0
   -4.1993   -2.1981    0.3620 N   0  0  0  0  0  0  0  0  0  0  0  0
   -3.5094   -2.4478    1.0679 H   0  0  0  0  0  0  0  0  0  0  0  0
   -4.6310   -0.8084    0.2795 C   0  0  0  0  0  0  0  0  0  0  0  0
   -4.0911   -0.2871   -0.5178 H   0  0  0  0  0  0  0  0  0  0  0  0
   -5.7054   -0.7501    0.0757 H   0  0  0  0  0  0  0  0  0  0  0  0
   -4.4336   -0.2955    1.2257 H   0  0  0  0  0  0  0  0  0  0  0  0
  1  2  1  0  0  0  0
  2  3  1  0  0  0  0
  2  4  1  0  0  0  0
  2  5  1  0  0  0  0
  5  6  2  0  0  0  0
  5  7  1  0  0  0  0
  7  8  1  0  0  0  0
  7  9  1  0  0  0  0
  9 10  1  0  0  0  0
  9 11  1  0  0  0  0
  9 15  1  0  0  0  0
 11 12  1  0  0  0  0
 11 13  1  0  0  0  0
 11 14  1  0  0  0  0
 14 36  1  0  0  0  0
 15 16  2  0  0  0  0
 15 17  1  0  0  0  0
 17 18  1  0  0  0  0
 17 19  1  0  0  0  0
 19 20  1  0  0  0  0
 19 21  1  0  0  0  0
 19 22  1  0  0  0  0
 23 24  1  0  0  0  0
 24 25  1  0  0  0  0
 24 26  1  0  0  0  0
 24 27  1  0  0  0  0
 27 28  2  0  0  0  0
 27 29  1  0  0  0  0
 29 30  1  0  0  0  0
 29 31  1  0  0  0  0
 31 32  1  0  0  0  0
 31 33  1  0  0  0  0
 31 37  1  0  0  0  0
 33 34  1  0  0  0  0
 33 35  1  0  0  0  0
 33 36  1  0  0  0  0
 37 38  2  0  0  0  0
 37 39  1  0  0  0  0
 39 40  1  0  0  0  0
 39 41  1  0  0  0  0
 41 42  1  0  0  0  0
 41 43  1  0  0  0  0
 41 44  1  0  0  0  0
M  END
$$$$

  -OEChem-04042215573D

 44 43  0     1  0  0  0  0  0999 V2000
    1.8651   -6.4685    2.2401 H   0  0  0  0  0  0  0  0  0  0  0  0
    1.5094   -5.4461    2.3946 C   0  0  0  0  0  0  0  0  0  0  0  0
    1.9336   -5.0617    3.3252 H   0  0  0  0  0  0  0  0  0  0  0  0
    0.4196   -5.4611    2.4770 H   0  0  0  0  0  0  0  0  0  0  0  0
    1.9281   -4.5668    1.2324 C   0  0  0  0  0  0  0  0  0  0  0  0
    2.5467   -5.0429    0.2933 O   0  0  0  0  0  0  0  0  0  0  0  0
    1.5875   -3.2320    1.2216 N   0  0  0  0  0  0  0  0  0  0  0  0
    1.0508   -2.8729    2.0102 H   0  0  0  0  0  0  0  0  0  0  0  0
    1.8966   -2.2919    0.1376 C   0  0  1  0  0  0  0  0  0  0  0  0
    2.6912   -2.7121   -0.4871 H   0  0  0  0  0  0  0  0  0  0  0  0
    0.6622   -2.0891   -0.7584 C   0  0  0  0  0  0  0  0  0  0  0  0
    0.3937   -3.0490   -1.2102 H   0  0  0  0  0  0  0  0  0  0  0  0
    0.9263   -1.4056   -1.5713 H   0  0  0  0  0  0  0  0  0  0  0  0
   -0.8153   -1.4106    0.1154 S   0  0  0  0  0  0  0  0  0  0  0  0
    2.4398   -0.9550    0.6835 C   0  0  0  0  0  0  0  0  0  0  0  0
    1.9673   -0.4582    1.6994 O   0  0  0  0  0  0  0  0  0  0  0  0
    3.5455   -0.3626    0.0996 N   0  0  0  0  0  0  0  0  0  0  0  0
    3.9909   -0.8538   -0.6703 H   0  0  0  0  0  0  0  0  0  0  0  0
    4.1955    0.8225    0.6472 C   0  0  0  0  0  0  0  0  0  0  0  0
    3.4921    1.6609    0.6925 H   0  0  0  0  0  0  0  0  0  0  0  0
    4.5695    0.6220    1.6568 H   0  0  0  0  0  0  0  0  0  0  0  0
    5.0406    1.1160    0.0172 H   0  0  0  0  0  0  0  0  0  0  0  0
   -5.7437   -8.1847    0.0615 H   0  0  0  0  0  0  0  0  0  0  0  0
   -5.7403   -7.2493   -0.5052 C   0  0  0  0  0  0  0  0  0  0  0  0
   -6.7609   -6.8616   -0.5520 H   0  0  0  0  0  0  0  0  0  0  0  0
   -5.3873   -7.4529   -1.5189 H   0  0  0  0  0  0  0  0  0  0  0  0
   -4.8326   -6.2366    0.1656 C   0  0  0  0  0  0  0  0  0  0  0  0
   -4.2407   -6.5298    1.1916 O   0  0  0  0  0  0  0  0  0  0  0  0
   -4.6796   -4.9800   -0.3798 N   0  0  0  0  0  0  0  0  0  0  0  0
   -5.2958   -4.7297   -1.1536 H   0  0  0  0  0  0  0  0  0  0  0  0
   -4.0014   -3.8644    0.2985 C   0  0  1  0  0  0  0  0  0  0  0  0
   -4.1798   -3.9363    1.3770 H   0  0  0  0  0  0  0  0  0  0  0  0
   -2.4925   -3.9671    0.0316 C   0  0  0  0  0  0  0  0  0  0  0  0
   -2.1804   -5.0136    0.1104 H   0  0  0  0  0  0  0  0  0  0  0  0
   -2.2629   -3.6290   -0.9837 H   0  0  0  0  0  0  0  0  0  0  0  0
   -1.5372   -2.9993    1.2687 S   0  0  0  0  0  0  0  0  0  0  0  0
   -4.5728   -2.5079   -0.1738 C   0  0  0  0  0  0  0  0  0  0  0  0
   -5.4129   -2.4821   -1.0689 O   0  0  0  0  0  0  0  0  0  0  0  0
   -4.1779   -1.3202    0.4114 N   0  0  0  0  0  0  0  0  0  0  0  0
   -3.3773   -1.3652    1.0400 H   0  0  0  0  0  0  0  0  0  0  0  0
   -4.6186   -0.0133   -0.0590 C   0  0  0  0  0  0  0  0  0  0  0  0
   -4.2989    0.1501   -1.0934 H   0  0  0  0  0  0  0  0  0  0  0  0
   -5.7097    0.0643   -0.0102 H   0  0  0  0  0  0  0  0  0  0  0  0
   -4.1896    0.7760    0.5655 H   0  0  0  0  0  0  0  0  0  0  0  0
  1  2  1  0  0  0  0
  2  3  1  0  0  0  0
  2  4  1  0  0  0  0
  2  5  1  0  0  0  0
  5  6  2  0  0  0  0
  5  7  1  0  0  0  0
  7  8  1  0  0  0  0
  7  9  1  0  0  0  0
  9 10  1  0  0  0  0
  9 11  1  0  0  0  0
  9 15  1  0  0  0  0
 11 12  1  0  0  0  0
 11 13  1  0  0  0  0
 11 14  1  0  0  0  0
 14 36  1  0  0  0  0
 15 16  2  0  0  0  0
 15 17  1  0  0  0  0
 17 18  1  0  0  0  0
 17 19  1  0  0  0  0
 19 20  1  0  0  0  0
 19 21  1  0  0  0  0
 19 22  1  0  0  0  0
 23 24  1  0  0  0  0
 24 25  1  0  0  0  0
 24 26  1  0  0  0  0
 24 27  1  0  0  0  0
 27 28  2  0  0  0  0
 27 29  1  0  0  0  0
 29 30  1  0  0  0  0
 29 31  1  0  0  0  0
 31 32  1  0  0  0  0
 31 33  1  0  0  0  0
 31 37  1  0  0  0  0
 33 34  1  0  0  0  0
 33 35  1  0  0  0  0
 33 36  1  0  0  0  0
 37 38  2  0  0  0  0
 37 39  1  0  0  0  0
 39 40  1  0  0  0  0
 39 41  1  0  0  0  0
 41 42  1  0  0  0  0
 41 43  1  0  0  0  0
 41 44  1  0  0  0  0
M  END
$$$$

  -OEChem-04042215573D

 44 43  0     1  0  0  0  0  0999 V2000
    1.6672   -6.4941    2.1998 H   0  0  0  0  0  0  0  0  0  0  0  0
    1.3881   -5.4509    2.3712 C   0  0  0  0  0  0  0  0  0  0  0  0
    1.8911   -5.0950    3.2734 H   0  0  0  0  0  0  0  0  0  0  0  0
    0.3066   -5.3951    2.5189 H   0  0  0  0  0  0  0  0  0  0  0  0
    1.7927   -4.5994    1.1838 C   0  0  0  0  0  0  0  0  0  0  0  0
    2.3600   -5.1045    0.2280 O   0  0  0  0  0  0  0  0  0  0  0  0
    1.4947   -3.2549    1.1715 N   0  0  0  0  0  0  0  0  0  0  0  0
    1.0289   -2.8657    1.9906 H   0  0  0  0  0  0  0  0  0  0  0  0
    1.8476   -2.3154    0.0997 C   0  0  1  0  0  0  0  0  0  0  0  0
    2.6479   -2.7617   -0.4992 H   0  0  0  0  0  0  0  0  0  0  0  0
    0.6445   -2.1070   -0.8371 C   0  0  0  0  0  0  0  0  0  0  0  0
    0.2260   -3.0826   -1.1042 H   0  0  0  0  0  0  0  0  0  0  0  0
    1.0005   -1.6410   -1.7607 H   0  0  0  0  0  0  0  0  0  0  0  0
   -0.6935   -1.0421   -0.1457 S   0  0  0  0  0  0  0  0  0  0  0  0
    2.4221   -0.9940    0.6533 C   0  0  0  0  0  0  0  0  0  0  0  0
    1.9848   -0.5128    1.6925 O   0  0  0  0  0  0  0  0  0  0  0  0
    3.5508   -0.4319    0.0833 N   0  0  0  0  0  0  0  0  0  0  0  0
    3.9650   -0.9067   -0.7136 H   0  0  0  0  0  0  0  0  0  0  0  0
    4.2249    0.7371    0.6360 C   0  0  0  0  0  0  0  0  0  0  0  0
    3.5300    1.5805    0.7099 H   0  0  0  0  0  0  0  0  0  0  0  0
    4.6183    0.5166    1.6340 H   0  0  0  0  0  0  0  0  0  0  0  0
    5.0588    1.0334   -0.0074 H   0  0  0  0  0  0  0  0  0  0  0  0
   -6.0256   -7.1795    1.8040 H   0  0  0  0  0  0  0  0  0  0  0  0
   -6.0186   -6.3919    1.0454 C   0  0  0  0  0  0  0  0  0  0  0  0
   -7.0107   -5.9361    1.0028 H   0  0  0  0  0  0  0  0  0  0  0  0
   -5.7877   -6.8378    0.0751 H   0  0  0  0  0  0  0  0  0  0  0  0
   -4.9808   -5.3418    1.3922 C   0  0  0  0  0  0  0  0  0  0  0  0
   -4.2742   -5.4797    2.3777 O   0  0  0  0  0  0  0  0  0  0  0  0
   -4.8392   -4.2256    0.5962 N   0  0  0  0  0  0  0  0  0  0  0  0
   -5.5325   -4.0873   -0.1396 H   0  0  0  0  0  0  0  0  0  0  0  0
   -4.0315   -3.0494    0.9551 C   0  0  1  0  0  0  0  0  0  0  0  0
   -4.1039   -2.8799    2.0350 H   0  0  0  0  0  0  0  0  0  0  0  0
   -2.5659   -3.3217    0.5868 C   0  0  0  0  0  0  0  0  0  0  0  0
   -2.2966   -4.3385    0.8889 H   0  0  0  0  0  0  0  0  0  0  0  0
   -2.4297   -3.2515   -0.4969 H   0  0  0  0  0  0  0  0  0  0  0  0
   -1.4428   -2.1556    1.4571 S   0  0  0  0  0  0  0  0  0  0  0  0
   -4.5690   -1.7814    0.2502 C   0  0  0  0  0  0  0  0  0  0  0  0
   -5.5014   -1.8786   -0.5429 O   0  0  0  0  0  0  0  0  0  0  0  0
   -4.0426   -0.5312    0.5159 N   0  0  0  0  0  0  0  0  0  0  0  0
   -3.1836   -0.5042    1.0635 H   0  0  0  0  0  0  0  0  0  0  0  0
   -4.4573    0.6770   -0.1856 C   0  0  0  0  0  0  0  0  0  0  0  0
   -4.2479    0.5894   -1.2568 H   0  0  0  0  0  0  0  0  0  0  0  0
   -5.5295    0.8522   -0.0479 H   0  0  0  0  0  0  0  0  0  0  0  0
   -3.9150    1.5439    0.2039 H   0  0  0  0  0  0  0  0  0  0  0  0
  1  2  1  0  0  0  0
  2  3  1  0  0  0  0
  2  4  1  0  0  0  0
  2  5  1  0  0  0  0
  5  6  2  0  0  0  0
  5  7  1  0  0  0  0
  7  8  1  0  0  0  0
  7  9  1  0  0  0  0
  9 10  1  0  0  0  0
  9 11  1  0  0  0  0
  9 15  1  0  0  0  0
 11 12  1  0  0  0  0
 11 13  1  0  0  0  0
 11 14  1  0  0  0  0
 14 36  1  0  0  0  0
 15 16  2  0  0  0  0
 15 17  1  0  0  0  0
 17 18  1  0  0  0  0
 17 19  1  0  0  0  0
 19 20  1  0  0  0  0
 19 21  1  0  0  0  0
 19 22  1  0  0  0  0
 23 24  1  0  0  0  0
 24 25  1  0  0  0  0
 24 26  1  0  0  0  0
 24 27  1  0  0  0  0
 27 28  2  0  0  0  0
 27 29  1  0  0  0  0
 29 30  1  0  0  0  0
 29 31  1  0  0  0  0
 31 32  1  0  0  0  0
 31 33  1  0  0  0  0
 31 37  1  0  0  0  0
 33 34  1  0  0  0  0
 33 35  1  0  0  0  0
 33 36  1  0  0  0  0
 37 38  2  0  0  0  0
 37 39  1  0  0  0  0
 39 40  1  0  0  0  0
 39 41  1  0  0  0  0
 41 42  1  0  0  0  0
 41 43  1  0  0  0  0
 41 44  1  0  0  0  0
M  END
$$$$

  -OEChem-04042215573D

 44 43  0     1  0  0  0  0  0999 V2000
    1.7849   -6.4383    2.3632 H   0  0  0  0  0  0  0  0  0  0  0  0
    1.4968   -5.3942    2.5133 C   0  0  0  0  0  0  0  0  0  0  0  0
    2.0488   -4.9955    3.3676 H   0  0  0  0  0  0  0  0  0  0  0  0
    0.4261   -5.3516    2.7276 H   0  0  0  0  0  0  0  0  0  0  0  0
    1.8097   -4.5832    1.2708 C   0  0  0  0  0  0  0  0  0  0  0  0
    2.3143   -5.1213    0.2981 O   0  0  0  0  0  0  0  0  0  0  0  0
    1.5050   -3.2402    1.2295 N   0  0  0  0  0  0  0  0  0  0  0  0
    1.1217   -2.8148    2.0732 H   0  0  0  0  0  0  0  0  0  0  0  0
    1.8194   -2.3332    0.1167 C   0  0  1  0  0  0  0  0  0  0  0  0
    2.6111   -2.7989   -0.4785 H   0  0  0  0  0  0  0  0  0  0  0  0
    0.5927   -2.2043   -0.8061 C   0  0  0  0  0  0  0  0  0  0  0  0
    0.0481   -3.1534   -0.8298 H   0  0  0  0  0  0  0  0  0  0  0  0
    0.9464   -2.0106   -1.8232 H   0  0  0  0  0  0  0  0  0  0  0  0
   -0.5600   -0.8425   -0.3507 S   0  0  0  0  0  0  0  0  0  0  0  0
    2.4086   -0.9893    0.5990 C   0  0  0  0  0  0  0  0  0  0  0  0
    2.0358   -0.4908    1.6551 O   0  0  0  0  0  0  0  0  0  0  0  0
    3.5141   -0.4481   -0.0335 N   0  0  0  0  0  0  0  0  0  0  0  0
    3.8815   -0.9374   -0.8443 H   0  0  0  0  0  0  0  0  0  0  0  0
    4.2275    0.7214    0.4670 C   0  0  0  0  0  0  0  0  0  0  0  0
    3.5604    1.5891    0.5067 H   0  0  0  0  0  0  0  0  0  0  0  0
    4.6190    0.5314    1.4721 H   0  0  0  0  0  0  0  0  0  0  0  0
    5.0685    0.9622   -0.1902 H   0  0  0  0  0  0  0  0  0  0  0  0
   -6.2748   -5.8581    3.0993 H   0  0  0  0  0  0  0  0  0  0  0  0
   -6.2943   -5.1841    2.2386 C   0  0  0  0  0  0  0  0  0  0  0  0
   -7.2342   -4.6273    2.2495 H   0  0  0  0  0  0  0  0  0  0  0  0
   -6.2408   -5.7787    1.3237 H   0  0  0  0  0  0  0  0  0  0  0  0
   -5.1230   -4.2228    2.3023 C   0  0  0  0  0  0  0  0  0  0  0  0
   -4.3284   -4.2860    3.2263 O   0  0  0  0  0  0  0  0  0  0  0  0
   -4.9572   -3.2733    1.3170 N   0  0  0  0  0  0  0  0  0  0  0  0
   -5.7116   -3.1695    0.6379 H   0  0  0  0  0  0  0  0  0  0  0  0
   -3.9927   -2.1641    1.3876 C   0  0  1  0  0  0  0  0  0  0  0  0
   -3.9309   -1.8069    2.4213 H   0  0  0  0  0  0  0  0  0  0  0  0
   -2.6114   -2.6727    0.9490 C   0  0  0  0  0  0  0  0  0  0  0  0
   -2.4183   -3.6479    1.4066 H   0  0  0  0  0  0  0  0  0  0  0  0
   -2.5867   -2.8060   -0.1371 H   0  0  0  0  0  0  0  0  0  0  0  0
   -1.2860   -1.5185    1.4892 S   0  0  0  0  0  0  0  0  0  0  0  0
   -4.4618   -0.9773    0.5129 C   0  0  0  0  0  0  0  0  0  0  0  0
   -5.4838   -1.0873   -0.1592 O   0  0  0  0  0  0  0  0  0  0  0  0
   -3.7684    0.2183    0.4877 N   0  0  0  0  0  0  0  0  0  0  0  0
   -2.8554    0.2253    0.9407 H   0  0  0  0  0  0  0  0  0  0  0  0
   -4.1120    1.3228   -0.3989 C   0  0  0  0  0  0  0  0  0  0  0  0
   -4.0142    1.0174   -1.4460 H   0  0  0  0  0  0  0  0  0  0  0  0
   -5.1411    1.6527   -0.2215 H   0  0  0  0  0  0  0  0  0  0  0  0
   -3.4438    2.1709   -0.2206 H   0  0  0  0  0  0  0  0  0  0  0  0
  1  2  1  0  0  0  0
  2  3  1  0  0  0  0
  2  4  1  0  0  0  0
  2  5  1  0  0  0  0
  5  6  2  0  0  0  0
  5  7  1  0  0  0  0
  7  8  1  0  0  0  0
  7  9  1  0  0  0  0
  9 10  1  0  0  0  0
  9 11  1  0  0  0  0
  9 15  1  0  0  0  0
 11 12  1  0  0  0  0
 11 13  1  0  0  0  0
 11 14  1  0  0  0  0
 14 36  1  0  0  0  0
 15 16  2  0  0  0  0
 15 17  1  0  0  0  0
 17 18  1  0  0  0  0
 17 19  1  0  0  0  0
 19 20  1  0  0  0  0
 19 21  1  0  0  0  0
 19 22  1  0  0  0  0
 23 24  1  0  0  0  0
 24 25  1  0  0  0  0
 24 26  1  0  0  0  0
 24 27  1  0  0  0  0
 27 28  2  0  0  0  0
 27 29  1  0  0  0  0
 29 30  1  0  0  0  0
 29 31  1  0  0  0  0
 31 32  1  0  0  0  0
 31 33  1  0  0  0  0
 31 37  1  0  0  0  0
 33 34  1  0  0  0  0
 33 35  1  0  0  0  0
 33 36  1  0  0  0  0
 37 38  2  0  0  0  0
 37 39  1  0  0  0  0
 39 40  1  0  0  0  0
 39 41  1  0  0  0  0
 41 42  1  0  0  0  0
 41 43  1  0  0  0  0
 41 44  1  0  0  0  0
M  END
$$$$

  -OEChem-04042215573D

 44 43  0     1  0  0  0  0  0999 V2000
    2.3637   -6.3203    2.6903 H   0  0  0  0  0  0  0  0  0  0  0  0
    1.9858   -5.2984    2.7833 C   0  0  0  0  0  0  0  0  0  0  0  0
    2.5850   -4.7675    3.5270 H   0  0  0  0  0  0  0  0  0  0  0  0
    0.9472   -5.3351    3.1208 H   0  0  0  0  0  0  0  0  0  0  0  0
    2.0686   -4.5870    1.4467 C   0  0  0  0  0  0  0  0  0  0  0  0
    2.4352   -5.1904    0.4509 O   0  0  0  0  0  0  0  0  0  0  0  0
    1.7130   -3.2592    1.3527 N   0  0  0  0  0  0  0  0  0  0  0  0
    1.4745   -2.7722    2.2163 H   0  0  0  0  0  0  0  0  0  0  0  0
    1.8401   -2.4336    0.1430 C   0  0  1  0  0  0  0  0  0  0  0  0
    2.5679   -2.9200   -0.5146 H   0  0  0  0  0  0  0  0  0  0  0  0
    0.4993   -2.4207   -0.6206 C   0  0  0  0  0  0  0  0  0  0  0  0
   -0.1219   -3.2648   -0.3051 H   0  0  0  0  0  0  0  0  0  0  0  0
    0.7136   -2.5621   -1.6841 H   0  0  0  0  0  0  0  0  0  0  0  0
   -0.4541   -0.8563   -0.4534 S   0  0  0  0  0  0  0  0  0  0  0  0
    2.4429   -1.0447    0.4493 C   0  0  0  0  0  0  0  0  0  0  0  0
    2.2127   -0.4928    1.5199 O   0  0  0  0  0  0  0  0  0  0  0  0
    3.4337   -0.5227   -0.3634 N   0  0  0  0  0  0  0  0  0  0  0  0
    3.6734   -1.0356   -1.2068 H   0  0  0  0  0  0  0  0  0  0  0  0
    4.1363    0.7205   -0.0693 C   0  0  0  0  0  0  0  0  0  0  0  0
    3.4257    1.5494    0.0182 H   0  0  0  0  0  0  0  0  0  0  0  0
    4.6942    0.6337    0.8691 H   0  0  0  0  0  0  0  0  0  0  0  0
    4.8430    0.9549   -0.8712 H   0  0  0  0  0  0  0  0  0  0  0  0
   -6.6968   -4.3241    3.7877 H   0  0  0  0  0  0  0  0  0  0  0  0
   -6.6750   -3.6841    2.9012 C   0  0  0  0  0  0  0  0  0  0  0  0
   -7.5021   -2.9725    2.9591 H   0  0  0  0  0  0  0  0  0  0  0  0
   -6.8009   -4.3084    2.0134 H   0  0  0  0  0  0  0  0  0  0  0  0
   -5.3564   -2.9380    2.8288 C   0  0  0  0  0  0  0  0  0  0  0  0
   -4.5506   -3.0296    3.7404 O   0  0  0  0  0  0  0  0  0  0  0  0
   -5.0692   -2.1524    1.7335 N   0  0  0  0  0  0  0  0  0  0  0  0
   -5.8174   -2.0027    1.0561 H   0  0  0  0  0  0  0  0  0  0  0  0
   -3.9193   -1.2392    1.6426 C   0  0  1  0  0  0  0  0  0  0  0  0
   -3.7412   -0.7829    2.6224 H   0  0  0  0  0  0  0  0  0  0  0  0
   -2.6783   -2.0446    1.2306 C   0  0  0  0  0  0  0  0  0  0  0  0
   -2.6177   -2.9554    1.8344 H   0  0  0  0  0  0  0  0  0  0  0  0
   -2.7586   -2.3457    0.1815 H   0  0  0  0  0  0  0  0  0  0  0  0
   -1.1414   -1.0743    1.5066 S   0  0  0  0  0  0  0  0  0  0  0  0
   -4.2135   -0.0952    0.6436 C   0  0  0  0  0  0  0  0  0  0  0  0
   -5.2538   -0.1123   -0.0090 O   0  0  0  0  0  0  0  0  0  0  0  0
   -3.3466    0.9709    0.4937 N   0  0  0  0  0  0  0  0  0  0  0  0
   -2.4364    0.8859    0.9439 H   0  0  0  0  0  0  0  0  0  0  0  0
   -3.5391    2.0245   -0.4941 C   0  0  0  0  0  0  0  0  0  0  0  0
   -3.5443    1.6052   -1.5057 H   0  0  0  0  0  0  0  0  0  0  0  0
   -4.4884    2.5424   -0.3214 H   0  0  0  0  0  0  0  0  0  0  0  0
   -2.7292    2.7575   -0.4266 H   0  0  0  0  0  0  0  0  0  0  0  0
  1  2  1  0  0  0  0
  2  3  1  0  0  0  0
  2  4  1  0  0  0  0
  2  5  1  0  0  0  0
  5  6  2  0  0  0  0
  5  7  1  0  0  0  0
  7  8  1  0  0  0  0
  7  9  1  0  0  0  0
  9 10  1  0  0  0  0
  9 11  1  0  0  0  0
  9 15  1  0  0  0  0
 11 12  1  0  0  0  0
 11 13  1  0  0  0  0
 11 14  1  0  0  0  0
 14 36  1  0  0  0  0
 15 16  2  0  0  0  0
 15 17  1  0  0  0  0
 17 18  1  0  0  0  0
 17 19  1  0  0  0  0
 19 20  1  0  0  0  0
 19 21  1  0  0  0  0
 19 22  1  0  0  0  0
 23 24  1  0  0  0  0
 24 25  1  0  0  0  0
 24 26  1  0  0  0  0
 24 27  1  0  0  0  0
 27 28  2  0  0  0  0
 27 29  1  0  0  0  0
 29 30  1  0  0  0  0
 29 31  1  0  0  0  0
 31 32  1  0  0  0  0
 31 33  1  0  0  0  0
 31 37  1  0  0  0  0
 33 34  1  0  0  0  0
 33 35  1  0  0  0  0
 33 36  1  0  0  0  0
 37 38  2  0  0  0  0
 37 39  1  0  0  0  0
 39 40  1  0  0  0  0
 39 41  1  0  0  0  0
 41 42  1  0  0  0  0
 41 43  1  0  0  0  0
 41 44  1  0  0  0  0
M  END
$$$$

  -OEChem-04042215573D

 44 43  0     1  0  0  0  0  0999 V2000
    2.6604   -6.4629    2.4071 H   0  0  0  0  0  0  0  0  0  0  0  0
    2.3455   -5.4342    2.6026 C   0  0  0  0  0  0  0  0  0  0  0  0
    3.0920   -4.9516    3.2379 H   0  0  0  0  0  0  0  0  0  0  0  0
    1.3875   -5.4521    3.1278 H   0  0  0  0  0  0  0  0  0  0  0  0
    2.2044   -4.6755    1.2971 C   0  0  0  0  0  0  0  0  0  0  0  0
    2.3604   -5.2519    0.2325 O   0  0  0  0  0  0  0  0  0  0  0  0
    1.8737   -3.3379    1.3111 N   0  0  0  0  0  0  0  0  0  0  0  0
    1.8405   -2.8708    2.2170 H   0  0  0  0  0  0  0  0  0  0  0  0
    1.8126   -2.4751    0.1217 C   0  0  1  0  0  0  0  0  0  0  0  0
    2.3992   -2.9441   -0.6751 H   0  0  0  0  0  0  0  0  0  0  0  0
    0.3549   -2.3954   -0.3834 C   0  0  0  0  0  0  0  0  0  0  0  0
   -0.2874   -3.0425    0.2218 H   0  0  0  0  0  0  0  0  0  0  0  0
    0.3286   -2.7881   -1.4044 H   0  0  0  0  0  0  0  0  0  0  0  0
   -0.3631   -0.7012   -0.4080 S   0  0  0  0  0  0  0  0  0  0  0  0
    2.5032   -1.1183    0.3854 C   0  0  0  0  0  0  0  0  0  0  0  0
    2.4718   -0.6205    1.5060 O   0  0  0  0  0  0  0  0  0  0  0  0
    3.3630   -0.5787   -0.5551 N   0  0  0  0  0  0  0  0  0  0  0  0
    3.4129   -1.0303   -1.4637 H   0  0  0  0  0  0  0  0  0  0  0  0
    4.1273    0.6425   -0.3307 C   0  0  0  0  0  0  0  0  0  0  0  0
    3.4547    1.4814   -0.1231 H   0  0  0  0  0  0  0  0  0  0  0  0
    4.8079    0.5189    0.5183 H   0  0  0  0  0  0  0  0  0  0  0  0
    4.7213    0.8867   -1.2166 H   0  0  0  0  0  0  0  0  0  0  0  0
   -6.9029   -2.1777    4.5509 H   0  0  0  0  0  0  0  0  0  0  0  0
   -6.7747   -1.8659    3.5105 C   0  0  0  0  0  0  0  0  0  0  0  0
   -7.4927   -1.0727    3.2897 H   0  0  0  0  0  0  0  0  0  0  0  0
   -6.9723   -2.7201    2.8589 H   0  0  0  0  0  0  0  0  0  0  0  0
   -5.3627   -1.3606    3.2869 C   0  0  0  0  0  0  0  0  0  0  0  0
   -4.5765   -1.3093    4.2183 O   0  0  0  0  0  0  0  0  0  0  0  0
   -4.9699   -0.9494    2.0315 N   0  0  0  0  0  0  0  0  0  0  0  0
   -5.6930   -0.8841    1.3146 H   0  0  0  0  0  0  0  0  0  0  0  0
   -3.7058   -0.2527    1.7447 C   0  0  1  0  0  0  0  0  0  0  0  0
   -3.4472    0.3942    2.5901 H   0  0  0  0  0  0  0  0  0  0  0  0
   -2.5986   -1.3009    1.5597 C   0  0  0  0  0  0  0  0  0  0  0  0
   -2.6497   -2.0277    2.3767 H   0  0  0  0  0  0  0  0  0  0  0  0
   -2.7482   -1.8448    0.6220 H   0  0  0  0  0  0  0  0  0  0  0  0
   -0.9324   -0.5230    1.5934 S   0  0  0  0  0  0  0  0  0  0  0  0
   -3.8551    0.6516    0.4986 C   0  0  0  0  0  0  0  0  0  0  0  0
   -4.8788    0.5885   -0.1769 O   0  0  0  0  0  0  0  0  0  0  0  0
   -2.8759    1.5632    0.1505 N   0  0  0  0  0  0  0  0  0  0  0  0
   -1.9843    1.4766    0.6360 H   0  0  0  0  0  0  0  0  0  0  0  0
   -2.9273    2.3630   -1.0668 C   0  0  0  0  0  0  0  0  0  0  0  0
   -2.8693    1.7193   -1.9506 H   0  0  0  0  0  0  0  0  0  0  0  0
   -3.8581    2.9382   -1.1101 H   0  0  0  0  0  0  0  0  0  0  0  0
   -2.0888    3.0657   -1.0921 H   0  0  0  0  0  0  0  0  0  0  0  0
  1  2  1  0  0  0  0
  2  3  1  0  0  0  0
  2  4  1  0  0  0  0
  2  5  1  0  0  0  0
  5  6  2  0  0  0  0
  5  7  1  0  0  0  0
  7  8  1  0  0  0  0
  7  9  1  0  0  0  0
  9 10  1  0  0  0  0
  9 11  1  0  0  0  0
  9 15  1  0  0  0  0
 11 12  1  0  0  0  0
 11 13  1  0  0  0  0
 11 14  1  0  0  0  0
 14 36  1  0  0  0  0
 15 16  2  0  0  0  0
 15 17  1  0  0  0  0
 17 18  1  0  0  0  0
 17 19  1  0  0  0  0
 19 20  1  0  0  0  0
 19 21  1  0  0  0  0
 19 22  1  0  0  0  0
 23 24  1  0  0  0  0
 24 25  1  0  0  0  0
 24 26  1  0  0  0  0
 24 27  1  0  0  0  0
 27 28  2  0  0  0  0
 27 29  1  0  0  0  0
 29 30  1  0  0  0  0
 29 31  1  0  0  0  0
 31 32  1  0  0  0  0
 31 33  1  0  0  0  0
 31 37  1  0  0  0  0
 33 34  1  0  0  0  0
 33 35  1  0  0  0  0
 33 36  1  0  0  0  0
 37 38  2  0  0  0  0
 37 39  1  0  0  0  0
 39 40  1  0  0  0  0
 39 41  1  0  0  0  0
 41 42  1  0  0  0  0
 41 43  1  0  0  0  0
 41 44  1  0  0  0  0
M  END
$$$$

  -OEChem-04042215573D

 44 43  0     1  0  0  0  0  0999 V2000
    2.7299   -6.6163    2.1776 H   0  0  0  0  0  0  0  0  0  0  0  0
    2.5222   -5.5732    2.4321 C   0  0  0  0  0  0  0  0  0  0  0  0
    3.4049   -5.1458    2.9133 H   0  0  0  0  0  0  0  0  0  0  0  0
    1.6831   -5.5408    3.1310 H   0  0  0  0  0  0  0  0  0  0  0  0
    2.1824   -4.7882    1.1798 C   0  0  0  0  0  0  0  0  0  0  0  0
    2.1254   -5.3525    0.0991 O   0  0  0  0  0  0  0  0  0  0  0  0
    1.9296   -3.4360    1.2605 N   0  0  0  0  0  0  0  0  0  0  0  0
    2.0993   -2.9783    2.1561 H   0  0  0  0  0  0  0  0  0  0  0  0
    1.7436   -2.5538    0.0984 C   0  0  1  0  0  0  0  0  0  0  0  0
    2.1624   -3.0261   -0.7963 H   0  0  0  0  0  0  0  0  0  0  0  0
    0.2331   -2.3458   -0.1450 C   0  0  0  0  0  0  0  0  0  0  0  0
   -0.3311   -2.6942    0.7256 H   0  0  0  0  0  0  0  0  0  0  0  0
   -0.0688   -2.9697   -0.9917 H   0  0  0  0  0  0  0  0  0  0  0  0
   -0.2597   -0.6035   -0.4817 S   0  0  0  0  0  0  0  0  0  0  0  0
    2.5528   -1.2542    0.3105 C   0  0  0  0  0  0  0  0  0  0  0  0
    2.6934   -0.8008    1.4421 O   0  0  0  0  0  0  0  0  0  0  0  0
    3.3172   -0.7283   -0.7159 N   0  0  0  0  0  0  0  0  0  0  0  0
    3.2130   -1.1387   -1.6394 H   0  0  0  0  0  0  0  0  0  0  0  0
    4.1861    0.4306   -0.5518 C   0  0  0  0  0  0  0  0  0  0  0  0
    3.6065    1.3016   -0.2284 H   0  0  0  0  0  0  0  0  0  0  0  0
    4.9608    0.2258    0.1946 H   0  0  0  0  0  0  0  0  0  0  0  0
    4.6760    0.6740   -1.4993 H   0  0  0  0  0  0  0  0  0  0  0  0
   -6.6699   -0.0546    4.7896 H   0  0  0  0  0  0  0  0  0  0  0  0
   -6.5309   -0.0512    3.7051 C   0  0  0  0  0  0  0  0  0  0  0  0
   -7.1769    0.7148    3.2696 H   0  0  0  0  0  0  0  0  0  0  0  0
   -6.8166   -1.0290    3.3103 H   0  0  0  0  0  0  0  0  0  0  0  0
   -5.0822    0.2417    3.3667 C   0  0  0  0  0  0  0  0  0  0  0  0
   -4.2742    0.4438    4.2581 O   0  0  0  0  0  0  0  0  0  0  0  0
   -4.6777    0.2833    2.0501 N   0  0  0  0  0  0  0  0  0  0  0  0
   -5.4029    0.2314    1.3343 H   0  0  0  0  0  0  0  0  0  0  0  0
   -3.3508    0.7342    1.6029 C   0  0  1  0  0  0  0  0  0  0  0  0
   -2.9931    1.5292    2.2663 H   0  0  0  0  0  0  0  0  0  0  0  0
   -2.3841   -0.4564    1.6783 C   0  0  0  0  0  0  0  0  0  0  0  0
   -2.4723   -0.9269    2.6627 H   0  0  0  0  0  0  0  0  0  0  0  0
   -2.6519   -1.2052    0.9267 H   0  0  0  0  0  0  0  0  0  0  0  0
   -0.6378    0.0750    1.4567 S   0  0  0  0  0  0  0  0  0  0  0  0
   -3.4317    1.3229    0.1756 C   0  0  0  0  0  0  0  0  0  0  0  0
   -4.4561    1.1748   -0.4853 O   0  0  0  0  0  0  0  0  0  0  0  0
   -2.3923    2.0655   -0.3523 N   0  0  0  0  0  0  0  0  0  0  0  0
   -1.5120    2.0396    0.1589 H   0  0  0  0  0  0  0  0  0  0  0  0
   -2.3883    2.5709   -1.7190 C   0  0  0  0  0  0  0  0  0  0  0  0
   -2.4120    1.7418   -2.4338 H   0  0  0  0  0  0  0  0  0  0  0  0
   -3.2582    3.2127   -1.8936 H   0  0  0  0  0  0  0  0  0  0  0  0
   -1.4847    3.1605   -1.9006 H   0  0  0  0  0  0  0  0  0  0  0  0
  1  2  1  0  0  0  0
  2  3  1  0  0  0  0
  2  4  1  0  0  0  0
  2  5  1  0  0  0  0
  5  6  2  0  0  0  0
  5  7  1  0  0  0  0
  7  8  1  0  0  0  0
  7  9  1  0  0  0  0
  9 10  1  0  0  0  0
  9 11  1  0  0  0  0
  9 15  1  0  0  0  0
 11 12  1  0  0  0  0
 11 13  1  0  0  0  0
 11 14  1  0  0  0  0
 14 36  1  0  0  0  0
 15 16  2  0  0  0  0
 15 17  1  0  0  0  0
 17 18  1  0  0  0  0
 17 19  1  0  0  0  0
 19 20  1  0  0  0  0
 19 21  1  0  0  0  0
 19 22  1  0  0  0  0
 23 24  1  0  0  0  0
 24 25  1  0  0  0  0
 24 26  1  0  0  0  0
 24 27  1  0  0  0  0
 27 28  2  0  0  0  0
 27 29  1  0  0  0  0
 29 30  1  0  0  0  0
 29 31  1  0  0  0  0
 31 32  1  0  0  0  0
 31 33  1  0  0  0  0
 31 37  1  0  0  0  0
 33 34  1  0  0  0  0
 33 35  1  0  0  0  0
 33 36  1  0  0  0  0
 37 38  2  0  0  0  0
 37 39  1  0  0  0  0
 39 40  1  0  0  0  0
 39 41  1  0  0  0  0
 41 42  1  0  0  0  0
 41 43  1  0  0  0  0
 41 44  1  0  0  0  0
M  END
$$$$

  -OEChem-04042215573D

 44 43  0     1  0  0  0  0  0999 V2000
    2.4562   -6.7757    1.9804 H   0  0  0  0  0  0  0  0  0  0  0  0
    2.3838   -5.7248    2.2741 C   0  0  0  0  0  0  0  0  0  0  0  0
    3.3447   -5.4073    2.6861 H   0  0  0  0  0  0  0  0  0  0  0  0
    1.6138   -5.6256    3.0430 H   0  0  0  0  0  0  0  0  0  0  0  0
    2.0265   -4.8714    1.0726 C   0  0  0  0  0  0  0  0  0  0  0  0
    1.8600   -5.3895   -0.0197 O   0  0  0  0  0  0  0  0  0  0  0  0
    1.8798   -3.5087    1.2138 N   0  0  0  0  0  0  0  0  0  0  0  0
    2.1497   -3.0986    2.1080 H   0  0  0  0  0  0  0  0  0  0  0  0
    1.7030   -2.5742    0.0923 C   0  0  1  0  0  0  0  0  0  0  0  0
    2.0233   -3.0358   -0.8474 H   0  0  0  0  0  0  0  0  0  0  0  0
    0.2079   -2.2230   -0.0276 C   0  0  0  0  0  0  0  0  0  0  0  0
   -0.2619   -2.2847    0.9589 H   0  0  0  0  0  0  0  0  0  0  0  0
   -0.2755   -2.9692   -0.6657 H   0  0  0  0  0  0  0  0  0  0  0  0
   -0.1120   -0.5403   -0.7036 S   0  0  0  0  0  0  0  0  0  0  0  0
    2.6209   -1.3518    0.3169 C   0  0  0  0  0  0  0  0  0  0  0  0
    2.8286   -0.9501    1.4579 O   0  0  0  0  0  0  0  0  0  0  0  0
    3.3800   -0.8393   -0.7201 N   0  0  0  0  0  0  0  0  0  0  0  0
    3.2050   -1.1980   -1.6545 H   0  0  0  0  0  0  0  0  0  0  0  0
    4.3223    0.2600   -0.5497 C   0  0  0  0  0  0  0  0  0  0  0  0
    3.8128    1.1408   -0.1448 H   0  0  0  0  0  0  0  0  0  0  0  0
    5.1266   -0.0276    0.1356 H   0  0  0  0  0  0  0  0  0  0  0  0
    4.7682    0.5305   -1.5118 H   0  0  0  0  0  0  0  0  0  0  0  0
   -5.9693    2.0539    4.6506 H   0  0  0  0  0  0  0  0  0  0  0  0
   -5.9251    1.7412    3.6036 C   0  0  0  0  0  0  0  0  0  0  0  0
   -6.5363    2.4228    3.0071 H   0  0  0  0  0  0  0  0  0  0  0  0
   -6.3297    0.7297    3.5203 H   0  0  0  0  0  0  0  0  0  0  0  0
   -4.4905    1.7661    3.1125 C   0  0  0  0  0  0  0  0  0  0  0  0
   -3.5931    2.1094    3.8643 O   0  0  0  0  0  0  0  0  0  0  0  0
   -4.1987    1.4028    1.8155 N   0  0  0  0  0  0  0  0  0  0  0  0
   -4.9853    1.2520    1.1837 H   0  0  0  0  0  0  0  0  0  0  0  0
   -2.8797    1.5723    1.1867 C   0  0  1  0  0  0  0  0  0  0  0  0
   -2.3834    2.4519    1.6106 H   0  0  0  0  0  0  0  0  0  0  0  0
   -2.0355    0.3260    1.4905 C   0  0  0  0  0  0  0  0  0  0  0  0
   -2.0904    0.1123    2.5630 H   0  0  0  0  0  0  0  0  0  0  0  0
   -2.4380   -0.5411    0.9575 H   0  0  0  0  0  0  0  0  0  0  0  0
   -0.2671    0.5818    1.0513 S   0  0  0  0  0  0  0  0  0  0  0  0
   -3.0279    1.8135   -0.3327 C   0  0  0  0  0  0  0  0  0  0  0  0
   -4.1144    1.6305   -0.8747 O   0  0  0  0  0  0  0  0  0  0  0  0
   -1.9683    2.2797   -1.0878 N   0  0  0  0  0  0  0  0  0  0  0  0
   -1.0557    2.2747   -0.6363 H   0  0  0  0  0  0  0  0  0  0  0  0
   -2.0249    2.4198   -2.5372 C   0  0  0  0  0  0  0  0  0  0  0  0
   -2.2271    1.4516   -3.0074 H   0  0  0  0  0  0  0  0  0  0  0  0
   -2.8135    3.1232   -2.8244 H   0  0  0  0  0  0  0  0  0  0  0  0
   -1.0707    2.7977   -2.9175 H   0  0  0  0  0  0  0  0  0  0  0  0
  1  2  1  0  0  0  0
  2  3  1  0  0  0  0
  2  4  1  0  0  0  0
  2  5  1  0  0  0  0
  5  6  2  0  0  0  0
  5  7  1  0  0  0  0
  7  8  1  0  0  0  0
  7  9  1  0  0  0  0
  9 10  1  0  0  0  0
  9 11  1  0  0  0  0
  9 15  1  0  0  0  0
 11 12  1  0  0  0  0
 11 13  1  0  0  0  0
 11 14  1  0  0  0  0
 14 36  1  0  0  0  0
 15 16  2  0  0  0  0
 15 17  1  0  0  0  0
 17 18  1  0  0  0  0
 17 19  1  0  0  0  0
 19 20  1  0  0  0  0
 19 21  1  0  0  0  0
 19 22  1  0  0  0  0
 23 24  1  0  0  0  0
 24 25  1  0  0  0  0
 24 26  1  0  0  0  0
 24 27  1  0  0  0  0
 27 28  2  0  0  0  0
 27 29  1  0  0  0  0
 29 30  1  0  0  0  0
 29 31  1  0  0  0  0
 31 32  1  0  0  0  0
 31 33  1  0  0  0  0
 31 37  1  0  0  0  0
 33 34  1  0  0  0  0
 33 35  1  0  0  0  0
 33 36  1  0  0  0  0
 37 38  2  0  0  0  0
 37 39  1  0  0  0  0
 39 40  1  0  0  0  0
 39 41  1  0  0  0  0
 41 42  1  0  0  0  0
 41 43  1  0  0  0  0
 41 44  1  0  0  0  0
M  END
$$$$

  -OEChem-04042215573D

 44 43  0     1  0  0  0  0  0999 V2000
    2.1519   -6.8812    1.8194 H   0  0  0  0  0  0  0  0  0  0  0  0
    2.1331   -5.8407    2.1551 C   0  0  0  0  0  0  0  0  0  0  0  0
    3.1086   -5.5898    2.5784 H   0  0  0  0  0  0  0  0  0  0  0  0
    1.3687   -5.7339    2.9284 H   0  0  0  0  0  0  0  0  0  0  0  0
    1.8220   -4.9214    0.9897 C   0  0  0  0  0  0  0  0  0  0  0  0
    1.6235   -5.3854   -0.1214 O   0  0  0  0  0  0  0  0  0  0  0  0
    1.7636   -3.5586    1.1854 N   0  0  0  0  0  0  0  0  0  0  0  0
    2.0569   -3.2045    2.0958 H   0  0  0  0  0  0  0  0  0  0  0  0
    1.6650   -2.5721    0.0999 C   0  0  1  0  0  0  0  0  0  0  0  0
    1.9493   -3.0180   -0.8589 H   0  0  0  0  0  0  0  0  0  0  0  0
    0.2099   -2.0906    0.0072 C   0  0  0  0  0  0  0  0  0  0  0  0
   -0.1746   -1.8947    1.0131 H   0  0  0  0  0  0  0  0  0  0  0  0
   -0.3975   -2.8887   -0.4310 H   0  0  0  0  0  0  0  0  0  0  0  0
    0.0270   -0.5599   -1.0007 S   0  0  0  0  0  0  0  0  0  0  0  0
    2.6577   -1.4245    0.3838 C   0  0  0  0  0  0  0  0  0  0  0  0
    2.8493   -1.0669    1.5421 O   0  0  0  0  0  0  0  0  0  0  0  0
    3.4663   -0.9208   -0.6186 N   0  0  0  0  0  0  0  0  0  0  0  0
    3.2639   -1.2099   -1.5715 H   0  0  0  0  0  0  0  0  0  0  0  0
    4.4256    0.1543   -0.3970 C   0  0  0  0  0  0  0  0  0  0  0  0
    3.9096    1.0684   -0.0850 H   0  0  0  0  0  0  0  0  0  0  0  0
    5.1450   -0.1256    0.3800 H   0  0  0  0  0  0  0  0  0  0  0  0
    4.9788    0.3638   -1.3173 H   0  0  0  0  0  0  0  0  0  0  0  0
   -4.9308    3.9126    4.0058 H   0  0  0  0  0  0  0  0  0  0  0  0
   -5.0341    3.3206    3.0919 C   0  0  0  0  0  0  0  0  0  0  0  0
   -5.6760    3.8609    2.3918 H   0  0  0  0  0  0  0  0  0  0  0  0
   -5.5007    2.3651    3.3428 H   0  0  0  0  0  0  0  0  0  0  0  0
   -3.6721    3.0833    2.4685 C   0  0  0  0  0  0  0  0  0  0  0  0
   -2.6688    3.5195    3.0082 O   0  0  0  0  0  0  0  0  0  0  0  0
   -3.5655    2.3702    1.2940 N   0  0  0  0  0  0  0  0  0  0  0  0
   -4.4310    2.1370    0.8068 H   0  0  0  0  0  0  0  0  0  0  0  0
   -2.3200    2.2203    0.5255 C   0  0  1  0  0  0  0  0  0  0  0  0
   -1.7024    3.1164    0.6504 H   0  0  0  0  0  0  0  0  0  0  0  0
   -1.5587    1.0054    1.0752 C   0  0  0  0  0  0  0  0  0  0  0  0
   -1.5168    1.0749    2.1673 H   0  0  0  0  0  0  0  0  0  0  0  0
   -2.0901    0.0833    0.8207 H   0  0  0  0  0  0  0  0  0  0  0  0
    0.1678    0.9428    0.4437 S   0  0  0  0  0  0  0  0  0  0  0  0
   -2.6256    2.0753   -0.9824 C   0  0  0  0  0  0  0  0  0  0  0  0
   -3.7768    1.8599   -1.3513 O   0  0  0  0  0  0  0  0  0  0  0  0
   -1.6322    2.2322   -1.9305 N   0  0  0  0  0  0  0  0  0  0  0  0
   -0.6759    2.2577   -1.5827 H   0  0  0  0  0  0  0  0  0  0  0  0
   -1.8474    2.0005   -3.3533 C   0  0  0  0  0  0  0  0  0  0  0  0
   -2.1455    0.9619   -3.5311 H   0  0  0  0  0  0  0  0  0  0  0  0
   -2.6298    2.6634   -3.7374 H   0  0  0  0  0  0  0  0  0  0  0  0
   -0.9265    2.1969   -3.9107 H   0  0  0  0  0  0  0  0  0  0  0  0
  1  2  1  0  0  0  0
  2  3  1  0  0  0  0
  2  4  1  0  0  0  0
  2  5  1  0  0  0  0
  5  6  2  0  0  0  0
  5  7  1  0  0  0  0
  7  8  1  0  0  0  0
  7  9  1  0  0  0  0
  9 10  1  0  0  0  0
  9 11  1  0  0  0  0
  9 15  1  0  0  0  0
 11 12  1  0  0  0  0
 11 13  1  0  0  0  0
 11 14  1  0  0  0  0
 14 36  1  0  0  0  0
 15 16  2  0  0  0  0
 15 17  1  0  0  0  0
 17 18  1  0  0  0  0
 17 19  1  0  0  0  0
 19 20  1  0  0  0  0
 19 21  1  0  0  0  0
 19 22  1  0  0  0  0
 23 24  1  0  0  0  0
 24 25  1  0  0  0  0
 24 26  1  0  0  0  0
 24 27  1  0  0  0  0
 27 28  2  0  0  0  0
 27 29  1  0  0  0  0
 29 30  1  0  0  0  0
 29 31  1  0  0  0  0
 31 32  1  0  0  0  0
 31 33  1  0  0  0  0
 31 37  1  0  0  0  0
 33 34  1  0  0  0  0
 33 35  1  0  0  0  0
 33 36  1  0  0  0  0
 37 38  2  0  0  0  0
 37 39  1  0  0  0  0
 39 40  1  0  0  0  0
 39 41  1  0  0  0  0
 41 42  1  0  0  0  0
 41 43  1  0  0  0  0
 41 44  1  0  0  0  0
M  END
$$$$
