
  -OEChem-04042215573D

 44 43  0     1  0  0  0  0  0999 V2000
   -2.2700   -7.1686   -0.0124 H   0  0  0  0  0  0  0  0  0  0  0  0
   -2.1741   -6.2354    0.5500 C   0  0  0  0  0  0  0  0  0  0  0  0
   -1.3269   -6.3232    1.2337 H   0  0  0  0  0  0  0  0  0  0  0  0
   -3.0882   -6.0787    1.1273 H   0  0  0  0  0  0  0  0  0  0  0  0
   -1.9557   -5.0756   -0.4029 C   0  0  0  0  0  0  0  0  0  0  0  0
   -1.9163   -5.2790   -1.6014 O   0  0  0  0  0  0  0  0  0  0  0  0
   -1.8129   -3.7938    0.0926 N   0  0  0  0  0  0  0  0  0  0  0  0
   -1.9464   -3.6765    1.0920 H   0  0  0  0  0  0  0  0  0  0  0  0
   -1.7014   -2.5875   -0.7536 C   0  0  1  0  0  0  0  0  0  0  0  0
   -2.5958   -2.5071   -1.3814 H   0  0  0  0  0  0  0  0  0  0  0  0
   -1.6556   -1.3775    0.1960 C   0  0  0  0  0  0  0  0  0  0  0  0
   -0.8089   -1.4719    0.8831 H   0  0  0  0  0  0  0  0  0  0  0  0
   -2.5737   -1.3592    0.7911 H   0  0  0  0  0  0  0  0  0  0  0  0
   -1.5183    0.2183   -0.7068 S   0  0  0  0  0  0  0  0  0  0  0  0
   -0.4859   -2.6050   -1.7126 C   0  0  0  0  0  0  0  0  0  0  0  0
   -0.5869   -2.1605   -2.8490 O   0  0  0  0  0  0  0  0  0  0  0  0
    0.7571   -3.0017   -1.2504 N   0  0  0  0  0  0  0  0  0  0  0  0
    0.7918   -3.4365   -0.3354 H   0  0  0  0  0  0  0  0  0  0  0  0
    1.9531   -2.9994   -2.0822 C   0  0  0  0  0  0  0  0  0  0  0  0
    1.8239   -3.6673   -2.9404 H   0  0  0  0  0  0  0  0  0  0  0  0
    2.1608   -1.9886   -2.4495 H   0  0  0  0  0  0  0  0  0  0  0  0
    2.8172   -3.3398   -1.5038 H   0  0  0  0  0  0  0  0  0  0  0  0
    4.3369    4.4343    3.5143 H   0  0  0  0  0  0  0  0  0  0  0  0
    3.2858    4.6119    3.2706 C   0  0  0  0  0  0  0  0  0  0  0  0
    3.1713    5.6463    2.9377 H   0  0  0  0  0  0  0  0  0  0  0  0
    2.6837    4.4559    4.1686 H   0  0  0  0  0  0  0  0  0  0  0  0
    2.8374    3.6645    2.1752 C   0  0  0  0  0  0  0  0  0  0  0  0
    3.6287    2.8744    1.6873 O   0  0  0  0  0  0  0  0  0  0  0  0
    1.5366    3.7028    1.7227 N   0  0  0  0  0  0  0  0  0  0  0  0
    0.9466    4.4609    2.0668 H   0  0  0  0  0  0  0  0  0  0  0  0
    1.0642    3.0141    0.5116 C   0  0  1  0  0  0  0  0  0  0  0  0
    1.8624    3.0174   -0.2388 H   0  0  0  0  0  0  0  0  0  0  0  0
    0.7181    1.5607    0.8674 C   0  0  0  0  0  0  0  0  0  0  0  0
    1.5242    1.1357    1.4735 H   0  0  0  0  0  0  0  0  0  0  0  0
   -0.2009    1.5242    1.4605 H   0  0  0  0  0  0  0  0  0  0  0  0
    0.5455    0.5419   -0.6529 S   0  0  0  0  0  0  0  0  0  0  0  0
   -0.1465    3.7587   -0.0975 C   0  0  0  0  0  0  0  0  0  0  0  0
   -0.6745    4.6699    0.5343 O   0  0  0  0  0  0  0  0  0  0  0  0
   -0.6165    3.4554   -1.3613 N   0  0  0  0  0  0  0  0  0  0  0  0
   -0.2638    2.5981   -1.7844 H   0  0  0  0  0  0  0  0  0  0  0  0
   -1.7997    4.0760   -1.9432 C   0  0  0  0  0  0  0  0  0  0  0  0
   -2.6902    3.8256   -1.3580 H   0  0  0  0  0  0  0  0  0  0  0  0
   -1.6898    5.1651   -1.9707 H   0  0  0  0  0  0  0  0  0  0  0  0
   -1.9462    3.7208   -2.9677 H   0  0  0  0  0  0  0  0  0  0  0  0
  1  2  1  0  0  0  0
  2  3  1  0  0  0  0
  2  4  1  0  0  0  0
  2  5  1  0  0  0  0
  5  6  2  0  0  0  0
  5  7  1  0  0  0  0
  7  8  1  0  0  0  0
  7  9  1  0  0  0  0
  9 10  1  0  0  0  0
  9 11  1  0  0  0  0
  9 15  1  0  0  0  0
 11 12  1  0  0  0  0
 11 13  1  0  0  0  0
 11 14  1  0  0  0  0
 14 36  1  0  0  0  0
 15 16  2  0  0  0  0
 15 17  1  0  0  0  0
 17 18  1  0  0  0  0
 17 19  1  0  0  0  0
 19 20  1  0  0  0  0
 19 21  1  0  0  0  0
 19 22  1  0  0  0  0
 23 24  1  0  0  0  0
 24 25  1  0  0  0  0
 24 26  1  0  0  0  0
 24 27  1  0  0  0  0
 27 28  2  0  0  0  0
 27 29  1  0  0  0  0
 29 30  1  0  0  0  0
 29 31  1  0  0  0  0
 31 32  1  0  0  0  0
 31 33  1  0  0  0  0
 31 37  1  0  0  0  0
 33 34  1  0  0  0  0
 33 35  1  0  0  0  0
 33 36  1  0  0  0  0
 37 38  2  0  0  0  0
 37 39  1  0  0  0  0
 39 40  1  0  0  0  0
 39 41  1  0  0  0  0
 41 42  1  0  0  0  0
 41 43  1  0  0  0  0
 41 44  1  0  0  0  0
M  END
$$$$

  -OEChem-04042215573D

 44 43  0     1  0  0  0  0  0999 V2000
   -2.5655   -7.0434    0.3627 H   0  0  0  0  0  0  0  0  0  0  0  0
   -2.3207   -6.1048    0.8685 C   0  0  0  0  0  0  0  0  0  0  0  0
   -1.4349   -6.2609    1.4882 H   0  0  0  0  0  0  0  0  0  0  0  0
   -3.1611   -5.8227    1.5068 H   0  0  0  0  0  0  0  0  0  0  0  0
   -2.0549   -5.0177   -0.1555 C   0  0  0  0  0  0  0  0  0  0  0  0
   -2.0784   -5.2886   -1.3410 O   0  0  0  0  0  0  0  0  0  0  0  0
   -1.7887   -3.7272    0.2598 N   0  0  0  0  0  0  0  0  0  0  0  0
   -1.8752   -3.5452    1.2544 H   0  0  0  0  0  0  0  0  0  0  0  0
   -1.6413   -2.5793   -0.6590 C   0  0  1  0  0  0  0  0  0  0  0  0
   -2.5708   -2.4739   -1.2298 H   0  0  0  0  0  0  0  0  0  0  0  0
   -1.4480   -1.3193    0.2010 C   0  0  0  0  0  0  0  0  0  0  0  0
   -0.4523   -1.3150    0.6553 H   0  0  0  0  0  0  0  0  0  0  0  0
   -2.1865   -1.3174    1.0078 H   0  0  0  0  0  0  0  0  0  0  0  0
   -1.6933    0.2106   -0.7870 S   0  0  0  0  0  0  0  0  0  0  0  0
   -0.4979   -2.7181   -1.6922 C   0  0  0  0  0  0  0  0  0  0  0  0
   -0.6463   -2.3144   -2.8383 O   0  0  0  0  0  0  0  0  0  0  0  0
    0.7465   -3.1751   -1.2937 N   0  0  0  0  0  0  0  0  0  0  0  0
    0.8059   -3.6002   -0.3751 H   0  0  0  0  0  0  0  0  0  0  0  0
    1.8707   -3.3112   -2.2115 C   0  0  0  0  0  0  0  0  0  0  0  0
    1.6303   -4.0250   -3.0067 H   0  0  0  0  0  0  0  0  0  0  0  0
    2.1124   -2.3443   -2.6664 H   0  0  0  0  0  0  0  0  0  0  0  0
    2.7559   -3.6699   -1.6774 H   0  0  0  0  0  0  0  0  0  0  0  0
    4.5086    5.2977    1.6041 H   0  0  0  0  0  0  0  0  0  0  0  0
    3.4176    5.3677    1.5736 C   0  0  0  0  0  0  0  0  0  0  0  0
    3.1382    6.3505    1.1860 H   0  0  0  0  0  0  0  0  0  0  0  0
    3.0291    5.2588    2.5889 H   0  0  0  0  0  0  0  0  0  0  0  0
    2.8507    4.2806    0.6806 C   0  0  0  0  0  0  0  0  0  0  0  0
    3.6021    3.5469    0.0600 O   0  0  0  0  0  0  0  0  0  0  0  0
    1.4861    4.1306    0.5576 N   0  0  0  0  0  0  0  0  0  0  0  0
    0.8993    4.8467    0.9867 H   0  0  0  0  0  0  0  0  0  0  0  0
    0.8389    3.2909   -0.4628 C   0  0  1  0  0  0  0  0  0  0  0  0
    1.4535    3.2836   -1.3698 H   0  0  0  0  0  0  0  0  0  0  0  0
    0.7243    1.8566    0.0743 C   0  0  0  0  0  0  0  0  0  0  0  0
    1.6889    1.5513    0.4922 H   0  0  0  0  0  0  0  0  0  0  0  0
   -0.0180    1.8113    0.8770 H   0  0  0  0  0  0  0  0  0  0  0  0
    0.2837    0.6867   -1.2738 S   0  0  0  0  0  0  0  0  0  0  0  0
   -0.5412    3.8722   -0.8473 C   0  0  0  0  0  0  0  0  0  0  0  0
   -1.0281    4.7743   -0.1706 O   0  0  0  0  0  0  0  0  0  0  0  0
   -1.2123    3.4357   -1.9738 N   0  0  0  0  0  0  0  0  0  0  0  0
   -0.8555    2.5896   -2.4158 H   0  0  0  0  0  0  0  0  0  0  0  0
   -2.5435    3.9008   -2.3414 C   0  0  0  0  0  0  0  0  0  0  0  0
   -3.2768    3.5963   -1.5875 H   0  0  0  0  0  0  0  0  0  0  0  0
   -2.5594    4.9923   -2.4300 H   0  0  0  0  0  0  0  0  0  0  0  0
   -2.8383    3.4748   -3.3052 H   0  0  0  0  0  0  0  0  0  0  0  0
  1  2  1  0  0  0  0
  2  3  1  0  0  0  0
  2  4  1  0  0  0  0
  2  5  1  0  0  0  0
  5  6  2  0  0  0  0
  5  7  1  0  0  0  0
  7  8  1  0  0  0  0
  7  9  1  0  0  0  0
  9 10  1  0  0  0  0
  9 11  1  0  0  0  0
  9 15  1  0  0  0  0
 11 12  1  0  0  0  0
 11 13  1  0  0  0  0
 11 14  1  0  0  0  0
 14 36  1  0  0  0  0
 15 16  2  0  0  0  0
 15 17  1  0  0  0  0
 17 18  1  0  0  0  0
 17 19  1  0  0  0  0
 19 20  1  0  0  0  0
 19 21  1  0  0  0  0
 19 22  1  0  0  0  0
 23 24  1  0  0  0  0
 24 25  1  0  0  0  0
 24 26  1  0  0  0  0
 24 27  1  0  0  0  0
 27 28  2  0  0  0  0
 27 29  1  0  0  0  0
 29 30  1  0  0  0  0
 29 31  1  0  0  0  0
 31 32  1  0  0  0  0
 31 33  1  0  0  0  0
 31 37  1  0  0  0  0
 33 34  1  0  0  0  0
 33 35  1  0  0  0  0
 33 36  1  0  0  0  0
 37 38  2  0  0  0  0
 37 39  1  0  0  0  0
 39 40  1  0  0  0  0
 39 41  1  0  0  0  0
 41 42  1  0  0  0  0
 41 43  1  0  0  0  0
 41 44  1  0  0  0  0
M  END
$$$$

  -OEChem-04042215573D

 44 43  0     1  0  0  0  0  0999 V2000
   -2.6349   -6.7391    1.1089 H   0  0  0  0  0  0  0  0  0  0  0  0
   -2.3293   -5.7459    1.4502 C   0  0  0  0  0  0  0  0  0  0  0  0
   -1.4235   -5.8444    2.0532 H   0  0  0  0  0  0  0  0  0  0  0  0
   -3.1278   -5.3253    2.0660 H   0  0  0  0  0  0  0  0  0  0  0  0
   -2.0648   -4.8464    0.2583 C   0  0  0  0  0  0  0  0  0  0  0  0
   -2.2034   -5.2789   -0.8702 O   0  0  0  0  0  0  0  0  0  0  0  0
   -1.6613   -3.5414    0.4601 N   0  0  0  0  0  0  0  0  0  0  0  0
   -1.6585   -3.2141    1.4209 H   0  0  0  0  0  0  0  0  0  0  0  0
   -1.5228   -2.5462   -0.6224 C   0  0  1  0  0  0  0  0  0  0  0  0
   -2.5000   -2.4509   -1.1103 H   0  0  0  0  0  0  0  0  0  0  0  0
   -1.1599   -1.1947    0.0132 C   0  0  0  0  0  0  0  0  0  0  0  0
   -0.0761   -1.1025    0.1389 H   0  0  0  0  0  0  0  0  0  0  0  0
   -1.6180   -1.1159    1.0033 H   0  0  0  0  0  0  0  0  0  0  0  0
   -1.8105    0.1850   -1.0078 S   0  0  0  0  0  0  0  0  0  0  0  0
   -0.5096   -2.9087   -1.7325 C   0  0  0  0  0  0  0  0  0  0  0  0
   -0.7363   -2.6091   -2.8972 O   0  0  0  0  0  0  0  0  0  0  0  0
    0.7344   -3.4123   -1.3960 N   0  0  0  0  0  0  0  0  0  0  0  0
    0.8428   -3.7567   -0.4483 H   0  0  0  0  0  0  0  0  0  0  0  0
    1.7370   -3.7643   -2.3935 C   0  0  0  0  0  0  0  0  0  0  0  0
    1.3535   -4.5402   -3.0646 H   0  0  0  0  0  0  0  0  0  0  0  0
    2.0078   -2.8865   -2.9897 H   0  0  0  0  0  0  0  0  0  0  0  0
    2.6410   -4.1413   -1.9063 H   0  0  0  0  0  0  0  0  0  0  0  0
    4.0622    5.9644   -0.0123 H   0  0  0  0  0  0  0  0  0  0  0  0
    2.9805    5.9096    0.1402 C   0  0  0  0  0  0  0  0  0  0  0  0
    2.5296    6.8455   -0.1986 H   0  0  0  0  0  0  0  0  0  0  0  0
    2.7791    5.7795    1.2060 H   0  0  0  0  0  0  0  0  0  0  0  0
    2.4041    4.7439   -0.6393 C   0  0  0  0  0  0  0  0  0  0  0  0
    3.1364    4.0366   -1.3113 O   0  0  0  0  0  0  0  0  0  0  0  0
    1.0529    4.4794   -0.5850 N   0  0  0  0  0  0  0  0  0  0  0  0
    0.4597    5.1608   -0.1109 H   0  0  0  0  0  0  0  0  0  0  0  0
    0.3628    3.4964   -1.4343 C   0  0  1  0  0  0  0  0  0  0  0  0
    0.8223    3.4884   -2.4287 H   0  0  0  0  0  0  0  0  0  0  0  0
    0.5174    2.1056   -0.8001 C   0  0  0  0  0  0  0  0  0  0  0  0
    1.5727    1.9284   -0.5695 H   0  0  0  0  0  0  0  0  0  0  0  0
   -0.0418    2.0572    0.1394 H   0  0  0  0  0  0  0  0  0  0  0  0
   -0.0478    0.7875   -1.9505 S   0  0  0  0  0  0  0  0  0  0  0  0
   -1.1239    3.8853   -1.6128 C   0  0  0  0  0  0  0  0  0  0  0  0
   -1.6035    4.7800   -0.9213 O   0  0  0  0  0  0  0  0  0  0  0  0
   -1.9144    3.2779   -2.5703 N   0  0  0  0  0  0  0  0  0  0  0  0
   -1.5310    2.4422   -3.0093 H   0  0  0  0  0  0  0  0  0  0  0  0
   -3.3407    3.5397   -2.7136 C   0  0  0  0  0  0  0  0  0  0  0  0
   -3.8738    3.2777   -1.7937 H   0  0  0  0  0  0  0  0  0  0  0  0
   -3.5164    4.5974   -2.9364 H   0  0  0  0  0  0  0  0  0  0  0  0
   -3.7517    2.9425   -3.5335 H   0  0  0  0  0  0  0  0  0  0  0  0
  1  2  1  0  0  0  0
  2  3  1  0  0  0  0
  2  4  1  0  0  0  0
  2  5  1  0  0  0  0
  5  6  2  0  0  0  0
  5  7  1  0  0  0  0
  7  8  1  0  0  0  0
  7  9  1  0  0  0  0
  9 10  1  0  0  0  0
  9 11  1  0  0  0  0
  9 15  1  0  0  0  0
 11 12  1  0  0  0  0
 11 13  1  0  0  0  0
 11 14  1  0  0  0  0
 14 36  1  0  0  0  0
 15 16  2  0  0  0  0
 15 17  1  0  0  0  0
 17 18  1  0  0  0  0
 17 19  1  0  0  0  0
 19 20  1  0  0  0  0
 19 21  1  0  0  0  0
 19 22  1  0  0  0  0
 23 24  1  0  0  0  0
 24 25  1  0  0  0  0
 24 26  1  0  0  0  0
 24 27  1  0  0  0  0
 27 28  2  0  0  0  0
 27 29  1  0  0  0  0
 29 30  1  0  0  0  0
 29 31  1  0  0  0  0
 31 32  1  0  0  0  0
 31 33  1  0  0  0  0
 31 37  1  0  0  0  0
 33 34  1  0  0  0  0
 33 35  1  0  0  0  0
 33 36  1  0  0  0  0
 37 38  2  0  0  0  0
 37 39  1  0  0  0  0
 39 40  1  0  0  0  0
 39 41  1  0  0  0  0
 41 42  1  0  0  0  0
 41 43  1  0  0  0  0
 41 44  1  0  0  0  0
M  END
$$$$

  -OEChem-04042215573D

 44 43  0     1  0  0  0  0  0999 V2000
   -2.0007   -6.8896   -0.2856 H   0  0  0  0  0  0  0  0  0  0  0  0
   -2.2417   -5.9605    0.2392 C   0  0  0  0  0  0  0  0  0  0  0  0
   -1.8559   -6.0233    1.2596 H   0  0  0  0  0  0  0  0  0  0  0  0
   -3.3282   -5.8482    0.2718 H   0  0  0  0  0  0  0  0  0  0  0  0
   -1.6189   -4.7800   -0.4817 C   0  0  0  0  0  0  0  0  0  0  0  0
   -0.9112   -4.9699   -1.4525 O   0  0  0  0  0  0  0  0  0  0  0  0
   -1.8578   -3.4970   -0.0286 N   0  0  0  0  0  0  0  0  0  0  0  0
   -2.5510   -3.4116    0.7081 H   0  0  0  0  0  0  0  0  0  0  0  0
   -1.4769   -2.2725   -0.7668 C   0  0  1  0  0  0  0  0  0  0  0  0
   -1.9757   -2.2818   -1.7424 H   0  0  0  0  0  0  0  0  0  0  0  0
   -1.9695   -1.0609    0.0565 C   0  0  0  0  0  0  0  0  0  0  0  0
   -1.1206   -0.6054    0.5769 H   0  0  0  0  0  0  0  0  0  0  0  0
   -2.6769   -1.3875    0.8241 H   0  0  0  0  0  0  0  0  0  0  0  0
   -2.8121    0.2440   -0.9383 S   0  0  0  0  0  0  0  0  0  0  0  0
    0.0498   -2.1686   -1.0207 C   0  0  0  0  0  0  0  0  0  0  0  0
    0.4922   -1.6871   -2.0537 O   0  0  0  0  0  0  0  0  0  0  0  0
    0.9344   -2.4515    0.0066 N   0  0  0  0  0  0  0  0  0  0  0  0
    0.5546   -2.9878    0.7796 H   0  0  0  0  0  0  0  0  0  0  0  0
    2.3809   -2.4307   -0.1788 C   0  0  0  0  0  0  0  0  0  0  0  0
    2.6830   -3.1928   -0.9050 H   0  0  0  0  0  0  0  0  0  0  0  0
    2.7086   -1.4503   -0.5405 H   0  0  0  0  0  0  0  0  0  0  0  0
    2.8882   -2.6321    0.7695 H   0  0  0  0  0  0  0  0  0  0  0  0
    3.3180    5.3745   -3.5046 H   0  0  0  0  0  0  0  0  0  0  0  0
    2.6615    5.1436   -2.6610 C   0  0  0  0  0  0  0  0  0  0  0  0
    2.2353    6.0745   -2.2797 H   0  0  0  0  0  0  0  0  0  0  0  0
    3.2541    4.6718   -1.8735 H   0  0  0  0  0  0  0  0  0  0  0  0
    1.5508    4.2106   -3.1046 C   0  0  0  0  0  0  0  0  0  0  0  0
    1.4336    3.9206   -4.2835 O   0  0  0  0  0  0  0  0  0  0  0  0
    0.6682    3.7092   -2.1720 N   0  0  0  0  0  0  0  0  0  0  0  0
    0.7010    4.1287   -1.2438 H   0  0  0  0  0  0  0  0  0  0  0  0
   -0.5656    2.9804   -2.5072 C   0  0  1  0  0  0  0  0  0  0  0  0
   -0.7965    3.0850   -3.5727 H   0  0  0  0  0  0  0  0  0  0  0  0
   -0.3363    1.4962   -2.1944 C   0  0  0  0  0  0  0  0  0  0  0  0
    0.5572    1.1546   -2.7281 H   0  0  0  0  0  0  0  0  0  0  0  0
   -0.1545    1.3569   -1.1243 H   0  0  0  0  0  0  0  0  0  0  0  0
   -1.7558    0.4544   -2.7284 S   0  0  0  0  0  0  0  0  0  0  0  0
   -1.7610    3.5546   -1.7173 C   0  0  0  0  0  0  0  0  0  0  0  0
   -1.5612    4.1751   -0.6761 O   0  0  0  0  0  0  0  0  0  0  0  0
   -3.0534    3.4188   -2.1894 N   0  0  0  0  0  0  0  0  0  0  0  0
   -3.1863    2.7763   -2.9673 H   0  0  0  0  0  0  0  0  0  0  0  0
   -4.2235    3.8571   -1.4401 C   0  0  0  0  0  0  0  0  0  0  0  0
   -4.3144    3.2914   -0.5073 H   0  0  0  0  0  0  0  0  0  0  0  0
   -4.1493    4.9230   -1.2008 H   0  0  0  0  0  0  0  0  0  0  0  0
   -5.1307    3.7007   -2.0312 H   0  0  0  0  0  0  0  0  0  0  0  0
  1  2  1  0  0  0  0
  2  3  1  0  0  0  0
  2  4  1  0  0  0  0
  2  5  1  0  0  0  0
  5  6  2  0  0  0  0
  5  7  1  0  0  0  0
  7  8  1  0  0  0  0
  7  9  1  0  0  0  0
  9 10  1  0  0  0  0
  9 11  1  0  0  0  0
  9 15  1  0  0  0  0
 11 12  1  0  0  0  0
 11 13  1  0  0  0  0
 11 14  1  0  0  0  0
 14 36  1  0  0  0  0
 15 16  2  0  0  0  0
 15 17  1  0  0  0  0
 17 18  1  0  0  0  0
 17 19  1  0  0  0  0
 19 20  1  0  0  0  0
 19 21  1  0  0  0  0
 19 22  1  0  0  0  0
 23 24  1  0  0  0  0
 24 25  1  0  0  0  0
 24 26  1  0  0  0  0
 24 27  1  0  0  0  0
 27 28  2  0  0  0  0
 27 29  1  0  0  0  0
 29 30  1  0  0  0  0
 29 31  1  0  0  0  0
 31 32  1  0  0  0  0
 31 33  1  0  0  0  0
 31 37  1  0  0  0  0
 33 34  1  0  0  0  0
 33 35  1  0  0  0  0
 33 36  1  0  0  0  0
 37 38  2  0  0  0  0
 37 39  1  0  0  0  0
 39 40  1  0  0  0  0
 39 41  1  0  0  0  0
 41 42  1  0  0  0  0
 41 43  1  0  0  0  0
 41 44  1  0  0  0  0
M  END
$$$$

  -OEChem-04042215573D

 44 43  0     1  0  0  0  0  0999 V2000
   -1.9656   -6.8362    0.0069 H   0  0  0  0  0  0  0  0  0  0  0  0
   -2.2471   -5.8770    0.4512 C   0  0  0  0  0  0  0  0  0  0  0  0
   -1.8830   -5.8476    1.4810 H   0  0  0  0  0  0  0  0  0  0  0  0
   -3.3368   -5.7969    0.4531 H   0  0  0  0  0  0  0  0  0  0  0  0
   -1.6452   -4.7372   -0.3486 C   0  0  0  0  0  0  0  0  0  0  0  0
   -0.9918   -4.9778   -1.3462 O   0  0  0  0  0  0  0  0  0  0  0  0
   -1.8190   -3.4340    0.0754 N   0  0  0  0  0  0  0  0  0  0  0  0
   -2.4859   -3.3060    0.8301 H   0  0  0  0  0  0  0  0  0  0  0  0
   -1.4774   -2.2513   -0.7436 C   0  0  1  0  0  0  0  0  0  0  0  0
   -2.0521   -2.3086   -1.6734 H   0  0  0  0  0  0  0  0  0  0  0  0
   -1.8690   -0.9756    0.0352 C   0  0  0  0  0  0  0  0  0  0  0  0
   -0.9789   -0.3613    0.2107 H   0  0  0  0  0  0  0  0  0  0  0  0
   -2.2734   -1.2344    1.0174 H   0  0  0  0  0  0  0  0  0  0  0  0
   -3.1092    0.0618   -0.8496 S   0  0  0  0  0  0  0  0  0  0  0  0
    0.0163   -2.1763   -1.1439 C   0  0  0  0  0  0  0  0  0  0  0  0
    0.3506   -1.6458   -2.1947 O   0  0  0  0  0  0  0  0  0  0  0  0
    0.9900   -2.4322   -0.1944 N   0  0  0  0  0  0  0  0  0  0  0  0
    0.6877   -2.9825    0.6030 H   0  0  0  0  0  0  0  0  0  0  0  0
    2.4126   -2.3949   -0.5103 C   0  0  0  0  0  0  0  0  0  0  0  0
    2.6457   -3.1093   -1.3073 H   0  0  0  0  0  0  0  0  0  0  0  0
    2.7064   -1.3927   -0.8396 H   0  0  0  0  0  0  0  0  0  0  0  0
    3.0039   -2.6540    0.3730 H   0  0  0  0  0  0  0  0  0  0  0  0
    1.9035    5.5242   -4.8865 H   0  0  0  0  0  0  0  0  0  0  0  0
    1.5451    5.2011   -3.9051 C   0  0  0  0  0  0  0  0  0  0  0  0
    1.1815    6.0740   -3.3579 H   0  0  0  0  0  0  0  0  0  0  0  0
    2.3769    4.7538   -3.3558 H   0  0  0  0  0  0  0  0  0  0  0  0
    0.4279    4.1881   -4.0658 C   0  0  0  0  0  0  0  0  0  0  0  0
    0.0642    3.8577   -5.1821 O   0  0  0  0  0  0  0  0  0  0  0  0
   -0.1799    3.6574   -2.9479 N   0  0  0  0  0  0  0  0  0  0  0  0
    0.0352    4.1070   -2.0595 H   0  0  0  0  0  0  0  0  0  0  0  0
   -1.4005    2.8355   -2.9789 C   0  0  1  0  0  0  0  0  0  0  0  0
   -1.8380    2.8327   -3.9829 H   0  0  0  0  0  0  0  0  0  0  0  0
   -0.9994    1.4028   -2.6089 C   0  0  0  0  0  0  0  0  0  0  0  0
   -0.1846    1.0820   -3.2666 H   0  0  0  0  0  0  0  0  0  0  0  0
   -0.6248    1.3690   -1.5818 H   0  0  0  0  0  0  0  0  0  0  0  0
   -2.3909    0.2171   -2.8088 S   0  0  0  0  0  0  0  0  0  0  0  0
   -2.4630    3.4017   -2.0128 C   0  0  0  0  0  0  0  0  0  0  0  0
   -2.1159    4.1107   -1.0717 O   0  0  0  0  0  0  0  0  0  0  0  0
   -3.8080    3.1538   -2.2144 N   0  0  0  0  0  0  0  0  0  0  0  0
   -4.0421    2.4544   -2.9152 H   0  0  0  0  0  0  0  0  0  0  0  0
   -4.8466    3.5931   -1.2916 C   0  0  0  0  0  0  0  0  0  0  0  0
   -4.7010    3.1369   -0.3070 H   0  0  0  0  0  0  0  0  0  0  0  0
   -4.8282    4.6825   -1.1825 H   0  0  0  0  0  0  0  0  0  0  0  0
   -5.8326    3.3027   -1.6669 H   0  0  0  0  0  0  0  0  0  0  0  0
  1  2  1  0  0  0  0
  2  3  1  0  0  0  0
  2  4  1  0  0  0  0
  2  5  1  0  0  0  0
  5  6  2  0  0  0  0
  5  7  1  0  0  0  0
  7  8  1  0  0  0  0
  7  9  1  0  0  0  0
  9 10  1  0  0  0  0
  9 11  1  0  0  0  0
  9 15  1  0  0  0  0
 11 12  1  0  0  0  0
 11 13  1  0  0  0  0
 11 14  1  0  0  0  0
 14 36  1  0  0  0  0
 15 16  2  0  0  0  0
 15 17  1  0  0  0  0
 17 18  1  0  0  0  0
 17 19  1  0  0  0  0
 19 20  1  0  0  0  0
 19 21  1  0  0  0  0
 19 22  1  0  0  0  0
 23 24  1  0  0  0  0
 24 25  1  0  0  0  0
 24 26  1  0  0  0  0
 24 27  1  0  0  0  0
 27 28  2  0  0  0  0
 27 29  1  0  0  0  0
 29 30  1  0  0  0  0
 29 31  1  0  0  0  0
 31 32  1  0  0  0  0
 31 33  1  0  0  0  0
 31 37  1  0  0  0  0
 33 34  1  0  0  0  0
 33 35  1  0  0  0  0
 33 36  1  0  0  0  0
 37 38  2  0  0  0  0
 37 39  1  0  0  0  0
 39 40  1  0  0  0  0
 39 41  1  0  0  0  0
 41 42  1  0  0  0  0
 41 43  1  0  0  0  0
 41 44  1  0  0  0  0
M  END
$$$$

  -OEChem-04042215573D

 44 43  0     1  0  0  0  0  0999 V2000
   -2.0548   -6.7629    0.2779 H   0  0  0  0  0  0  0  0  0  0  0  0
   -2.3212   -5.7692    0.6499 C   0  0  0  0  0  0  0  0  0  0  0  0
   -1.9652   -5.6728    1.6783 H   0  0  0  0  0  0  0  0  0  0  0  0
   -3.4092   -5.6693    0.6358 H   0  0  0  0  0  0  0  0  0  0  0  0
   -1.6907   -4.7005   -0.2227 C   0  0  0  0  0  0  0  0  0  0  0  0
   -1.0697   -5.0214   -1.2188 O   0  0  0  0  0  0  0  0  0  0  0  0
   -1.8011   -3.3703    0.1310 N   0  0  0  0  0  0  0  0  0  0  0  0
   -2.4490   -3.1731    0.8877 H   0  0  0  0  0  0  0  0  0  0  0  0
   -1.4575   -2.2541   -0.7737 C   0  0  1  0  0  0  0  0  0  0  0  0
   -2.0719   -2.3496   -1.6744 H   0  0  0  0  0  0  0  0  0  0  0  0
   -1.7646   -0.9202   -0.0631 C   0  0  0  0  0  0  0  0  0  0  0  0
   -0.9358   -0.2207   -0.2162 H   0  0  0  0  0  0  0  0  0  0  0  0
   -1.8547   -1.0703    1.0166 H   0  0  0  0  0  0  0  0  0  0  0  0
   -3.2934   -0.1163   -0.7012 S   0  0  0  0  0  0  0  0  0  0  0  0
    0.0113   -2.2382   -1.2570 C   0  0  0  0  0  0  0  0  0  0  0  0
    0.2862   -1.7286   -2.3359 O   0  0  0  0  0  0  0  0  0  0  0  0
    1.0346   -2.4625   -0.3531 N   0  0  0  0  0  0  0  0  0  0  0  0
    0.7778   -2.9791    0.4819 H   0  0  0  0  0  0  0  0  0  0  0  0
    2.4400   -2.4189   -0.7379 C   0  0  0  0  0  0  0  0  0  0  0  0
    2.6353   -3.1201   -1.5562 H   0  0  0  0  0  0  0  0  0  0  0  0
    2.7159   -1.4108   -1.0643 H   0  0  0  0  0  0  0  0  0  0  0  0
    3.0743   -2.6921    0.1105 H   0  0  0  0  0  0  0  0  0  0  0  0
    0.2984    5.3912   -5.9636 H   0  0  0  0  0  0  0  0  0  0  0  0
    0.1699    5.1332   -4.9089 C   0  0  0  0  0  0  0  0  0  0  0  0
   -0.1610    6.0220   -4.3667 H   0  0  0  0  0  0  0  0  0  0  0  0
    1.1312    4.8052   -4.5068 H   0  0  0  0  0  0  0  0  0  0  0  0
   -0.8561    4.0257   -4.7647 C   0  0  0  0  0  0  0  0  0  0  0  0
   -1.3692    3.5377   -5.7578 O   0  0  0  0  0  0  0  0  0  0  0  0
   -1.2131    3.5814   -3.5097 N   0  0  0  0  0  0  0  0  0  0  0  0
   -0.8838    4.1305   -2.7172 H   0  0  0  0  0  0  0  0  0  0  0  0
   -2.3230    2.6532   -3.2434 C   0  0  1  0  0  0  0  0  0  0  0  0
   -2.9654    2.5610   -4.1254 H   0  0  0  0  0  0  0  0  0  0  0  0
   -1.7107    1.2838   -2.9282 C   0  0  0  0  0  0  0  0  0  0  0  0
   -1.0334    1.0046   -3.7424 H   0  0  0  0  0  0  0  0  0  0  0  0
   -1.1162    1.3394   -2.0120 H   0  0  0  0  0  0  0  0  0  0  0  0
   -2.9865   -0.0320   -2.7719 S   0  0  0  0  0  0  0  0  0  0  0  0
   -3.2025    3.1730   -2.0870 C   0  0  0  0  0  0  0  0  0  0  0  0
   -2.7332    3.9602   -1.2697 O   0  0  0  0  0  0  0  0  0  0  0  0
   -4.5314    2.8048   -1.9893 N   0  0  0  0  0  0  0  0  0  0  0  0
   -4.8451    2.0569   -2.6035 H   0  0  0  0  0  0  0  0  0  0  0  0
   -5.3956    3.2194   -0.8921 C   0  0  0  0  0  0  0  0  0  0  0  0
   -4.9973    2.8650    0.0643 H   0  0  0  0  0  0  0  0  0  0  0  0
   -5.4758    4.3111   -0.8584 H   0  0  0  0  0  0  0  0  0  0  0  0
   -6.3992    2.8045   -1.0250 H   0  0  0  0  0  0  0  0  0  0  0  0
  1  2  1  0  0  0  0
  2  3  1  0  0  0  0
  2  4  1  0  0  0  0
  2  5  1  0  0  0  0
  5  6  2  0  0  0  0
  5  7  1  0  0  0  0
  7  8  1  0  0  0  0
  7  9  1  0  0  0  0
  9 10  1  0  0  0  0
  9 11  1  0  0  0  0
  9 15  1  0  0  0  0
 11 12  1  0  0  0  0
 11 13  1  0  0  0  0
 11 14  1  0  0  0  0
 14 36  1  0  0  0  0
 15 16  2  0  0  0  0
 15 17  1  0  0  0  0
 17 18  1  0  0  0  0
 17 19  1  0  0  0  0
 19 20  1  0  0  0  0
 19 21  1  0  0  0  0
 19 22  1  0  0  0  0
 23 24  1  0  0  0  0
 24 25  1  0  0  0  0
 24 26  1  0  0  0  0
 24 27  1  0  0  0  0
 27 28  2  0  0  0  0
 27 29  1  0  0  0  0
 29 30  1  0  0  0  0
 29 31  1  0  0  0  0
 31 32  1  0  0  0  0
 31 33  1  0  0  0  0
 31 37  1  0  0  0  0
 33 34  1  0  0  0  0
 33 35  1  0  0  0  0
 33 36  1  0  0  0  0
 37 38  2  0  0  0  0
 37 39  1  0  0  0  0
 39 40  1  0  0  0  0
 39 41  1  0  0  0  0
 41 42  1  0  0  0  0
 41 43  1  0  0  0  0
 41 44  1  0  0  0  0
M  END
$$$$

  -OEChem-04042215573D

 44 43  0     1  0  0  0  0  0999 V2000
   -2.1711   -6.6768    0.5123 H   0  0  0  0  0  0  0  0  0  0  0  0
   -2.4032   -5.6504    0.8106 C   0  0  0  0  0  0  0  0  0  0  0  0
   -2.0572   -5.4961    1.8353 H   0  0  0  0  0  0  0  0  0  0  0  0
   -3.4860   -5.5099    0.7711 H   0  0  0  0  0  0  0  0  0  0  0  0
   -1.7204   -4.6708   -0.1242 C   0  0  0  0  0  0  0  0  0  0  0  0
   -1.1072   -5.0856   -1.0900 O   0  0  0  0  0  0  0  0  0  0  0  0
   -1.7869   -3.3154    0.1317 N   0  0  0  0  0  0  0  0  0  0  0  0
   -2.4383   -3.0405    0.8613 H   0  0  0  0  0  0  0  0  0  0  0  0
   -1.4032   -2.2824   -0.8510 C   0  0  1  0  0  0  0  0  0  0  0  0
   -2.0184   -2.4005   -1.7481 H   0  0  0  0  0  0  0  0  0  0  0  0
   -1.6371   -0.8999   -0.2174 C   0  0  0  0  0  0  0  0  0  0  0  0
   -0.9328   -0.1796   -0.6475 H   0  0  0  0  0  0  0  0  0  0  0  0
   -1.4432   -0.9333    0.8586 H   0  0  0  0  0  0  0  0  0  0  0  0
   -3.3348   -0.2651   -0.5345 S   0  0  0  0  0  0  0  0  0  0  0  0
    0.0673   -2.3602   -1.3204 C   0  0  0  0  0  0  0  0  0  0  0  0
    0.3660   -1.9633   -2.4392 O   0  0  0  0  0  0  0  0  0  0  0  0
    1.0732   -2.5539   -0.3906 N   0  0  0  0  0  0  0  0  0  0  0  0
    0.7857   -2.9772    0.4857 H   0  0  0  0  0  0  0  0  0  0  0  0
    2.4822   -2.6058   -0.7588 C   0  0  0  0  0  0  0  0  0  0  0  0
    2.6555   -3.3955   -1.4975 H   0  0  0  0  0  0  0  0  0  0  0  0
    2.8033   -1.6488   -1.1832 H   0  0  0  0  0  0  0  0  0  0  0  0
    3.0957   -2.8147    0.1225 H   0  0  0  0  0  0  0  0  0  0  0  0
   -1.5401    5.0396   -6.7710 H   0  0  0  0  0  0  0  0  0  0  0  0
   -1.4746    4.9426   -5.6839 C   0  0  0  0  0  0  0  0  0  0  0  0
   -1.8482    5.8610   -5.2255 H   0  0  0  0  0  0  0  0  0  0  0  0
   -0.4275    4.8026   -5.4051 H   0  0  0  0  0  0  0  0  0  0  0  0
   -2.2958    3.7565   -5.2162 C   0  0  0  0  0  0  0  0  0  0  0  0
   -2.8342    3.0266   -6.0320 O   0  0  0  0  0  0  0  0  0  0  0  0
   -2.4328    3.5030   -3.8682 N   0  0  0  0  0  0  0  0  0  0  0  0
   -2.0854    4.2101   -3.2211 H   0  0  0  0  0  0  0  0  0  0  0  0
   -3.3060    2.4637   -3.3013 C   0  0  1  0  0  0  0  0  0  0  0  0
   -4.1093    2.2231   -4.0061 H   0  0  0  0  0  0  0  0  0  0  0  0
   -2.4491    1.2128   -3.0705 C   0  0  0  0  0  0  0  0  0  0  0  0
   -1.9088    0.9796   -3.9943 H   0  0  0  0  0  0  0  0  0  0  0  0
   -1.7043    1.4060   -2.2930 H   0  0  0  0  0  0  0  0  0  0  0  0
   -3.4675   -0.2519   -2.6229 S   0  0  0  0  0  0  0  0  0  0  0  0
   -3.9661    2.9590   -1.9965 C   0  0  0  0  0  0  0  0  0  0  0  0
   -3.4554    3.8824   -1.3689 O   0  0  0  0  0  0  0  0  0  0  0  0
   -5.1529    2.4107   -1.5468 N   0  0  0  0  0  0  0  0  0  0  0  0
   -5.4680    1.5626   -2.0119 H   0  0  0  0  0  0  0  0  0  0  0  0
   -5.7741    2.7856   -0.2825 C   0  0  0  0  0  0  0  0  0  0  0  0
   -5.1072    2.5544    0.5548 H   0  0  0  0  0  0  0  0  0  0  0  0
   -6.0007    3.8571   -0.2676 H   0  0  0  0  0  0  0  0  0  0  0  0
   -6.7096    2.2349   -0.1434 H   0  0  0  0  0  0  0  0  0  0  0  0
  1  2  1  0  0  0  0
  2  3  1  0  0  0  0
  2  4  1  0  0  0  0
  2  5  1  0  0  0  0
  5  6  2  0  0  0  0
  5  7  1  0  0  0  0
  7  8  1  0  0  0  0
  7  9  1  0  0  0  0
  9 10  1  0  0  0  0
  9 11  1  0  0  0  0
  9 15  1  0  0  0  0
 11 12  1  0  0  0  0
 11 13  1  0  0  0  0
 11 14  1  0  0  0  0
 14 36  1  0  0  0  0
 15 16  2  0  0  0  0
 15 17  1  0  0  0  0
 17 18  1  0  0  0  0
 17 19  1  0  0  0  0
 19 20  1  0  0  0  0
 19 21  1  0  0  0  0
 19 22  1  0  0  0  0
 23 24  1  0  0  0  0
 24 25  1  0  0  0  0
 24 26  1  0  0  0  0
 24 27  1  0  0  0  0
 27 28  2  0  0  0  0
 27 29  1  0  0  0  0
 29 30  1  0  0  0  0
 29 31  1  0  0  0  0
 31 32  1  0  0  0  0
 31 33  1  0  0  0  0
 31 37  1  0  0  0  0
 33 34  1  0  0  0  0
 33 35  1  0  0  0  0
 33 36  1  0  0  0  0
 37 38  2  0  0  0  0
 37 39  1  0  0  0  0
 39 40  1  0  0  0  0
 39 41  1  0  0  0  0
 41 42  1  0  0  0  0
 41 43  1  0  0  0  0
 41 44  1  0  0  0  0
M  END
$$$$

  -OEChem-04042215573D

 44 43  0     1  0  0  0  0  0999 V2000
   -2.3291   -6.5769    0.6448 H   0  0  0  0  0  0  0  0  0  0  0  0
   -2.5030   -5.5280    0.9010 C   0  0  0  0  0  0  0  0  0  0  0  0
   -2.1645   -5.3555    1.9251 H   0  0  0  0  0  0  0  0  0  0  0  0
   -3.5746   -5.3246    0.8373 H   0  0  0  0  0  0  0  0  0  0  0  0
   -1.7476   -4.6260   -0.0556 C   0  0  0  0  0  0  0  0  0  0  0  0
   -1.1253   -5.1111   -0.9821 O   0  0  0  0  0  0  0  0  0  0  0  0
   -1.7610   -3.2592    0.1373 N   0  0  0  0  0  0  0  0  0  0  0  0
   -2.4176   -2.9243    0.8367 H   0  0  0  0  0  0  0  0  0  0  0  0
   -1.3270   -2.2867   -0.8839 C   0  0  1  0  0  0  0  0  0  0  0  0
   -1.9400   -2.4130   -1.7813 H   0  0  0  0  0  0  0  0  0  0  0  0
   -1.5147   -0.8765   -0.3068 C   0  0  0  0  0  0  0  0  0  0  0  0
   -0.9700   -0.1583   -0.9296 H   0  0  0  0  0  0  0  0  0  0  0  0
   -1.0913   -0.8225    0.7007 H   0  0  0  0  0  0  0  0  0  0  0  0
   -3.2843   -0.3699   -0.2727 S   0  0  0  0  0  0  0  0  0  0  0  0
    0.1419   -2.4354   -1.3383 C   0  0  0  0  0  0  0  0  0  0  0  0
    0.4567   -2.0981   -2.4722 O   0  0  0  0  0  0  0  0  0  0  0  0
    1.1386   -2.6255   -0.3978 N   0  0  0  0  0  0  0  0  0  0  0  0
    0.8355   -3.0189    0.4876 H   0  0  0  0  0  0  0  0  0  0  0  0
    2.5444   -2.7431   -0.7649 C   0  0  0  0  0  0  0  0  0  0  0  0
    2.6945   -3.5962   -1.4349 H   0  0  0  0  0  0  0  0  0  0  0  0
    2.8865   -1.8343   -1.2711 H   0  0  0  0  0  0  0  0  0  0  0  0
    3.1584   -2.8902    0.1286 H   0  0  0  0  0  0  0  0  0  0  0  0
   -3.5512    4.4865   -7.0984 H   0  0  0  0  0  0  0  0  0  0  0  0
   -3.2996    4.5482   -6.0358 C   0  0  0  0  0  0  0  0  0  0  0  0
   -3.7636    5.4437   -5.6161 H   0  0  0  0  0  0  0  0  0  0  0  0
   -2.2144    4.6257   -5.9344 H   0  0  0  0  0  0  0  0  0  0  0  0
   -3.7999    3.3148   -5.3088 C   0  0  0  0  0  0  0  0  0  0  0  0
   -4.3478    2.4191   -5.9296 O   0  0  0  0  0  0  0  0  0  0  0  0
   -3.6375    3.2063   -3.9444 N   0  0  0  0  0  0  0  0  0  0  0  0
   -3.3021    4.0305   -3.4464 H   0  0  0  0  0  0  0  0  0  0  0  0
   -4.2176    2.1320   -3.1238 C   0  0  1  0  0  0  0  0  0  0  0  0
   -5.1092    1.7281   -3.6159 H   0  0  0  0  0  0  0  0  0  0  0  0
   -3.1673    1.0213   -2.9936 C   0  0  0  0  0  0  0  0  0  0  0  0
   -2.7827    0.7802   -3.9903 H   0  0  0  0  0  0  0  0  0  0  0  0
   -2.3243    1.3695   -2.3887 H   0  0  0  0  0  0  0  0  0  0  0  0
   -3.8756   -0.5156   -2.2727 S   0  0  0  0  0  0  0  0  0  0  0  0
   -4.6544    2.6736   -1.7457 C   0  0  0  0  0  0  0  0  0  0  0  0
   -4.1973    3.7375   -1.3377 O   0  0  0  0  0  0  0  0  0  0  0  0
   -5.5890    2.0015   -0.9806 N   0  0  0  0  0  0  0  0  0  0  0  0
   -5.8347    1.0618   -1.2835 H   0  0  0  0  0  0  0  0  0  0  0  0
   -5.9715    2.4255    0.3600 C   0  0  0  0  0  0  0  0  0  0  0  0
   -5.1105    2.3824    1.0348 H   0  0  0  0  0  0  0  0  0  0  0  0
   -6.3562    3.4506    0.3442 H   0  0  0  0  0  0  0  0  0  0  0  0
   -6.7547    1.7710    0.7545 H   0  0  0  0  0  0  0  0  0  0  0  0
  1  2  1  0  0  0  0
  2  3  1  0  0  0  0
  2  4  1  0  0  0  0
  2  5  1  0  0  0  0
  5  6  2  0  0  0  0
  5  7  1  0  0  0  0
  7  8  1  0  0  0  0
  7  9  1  0  0  0  0
  9 10  1  0  0  0  0
  9 11  1  0  0  0  0
  9 15  1  0  0  0  0
 11 12  1  0  0  0  0
 11 13  1  0  0  0  0
 11 14  1  0  0  0  0
 14 36  1  0  0  0  0
 15 16  2  0  0  0  0
 15 17  1  0  0  0  0
 17 18  1  0  0  0  0
 17 19  1  0  0  0  0
 19 20  1  0  0  0  0
 19 21  1  0  0  0  0
 19 22  1  0  0  0  0
 23 24  1  0  0  0  0
 24 25  1  0  0  0  0
 24 26  1  0  0  0  0
 24 27  1  0  0  0  0
 27 28  2  0  0  0  0
 27 29  1  0  0  0  0
 29 30  1  0  0  0  0
 29 31  1  0  0  0  0
 31 32  1  0  0  0  0
 31 33  1  0  0  0  0
 31 37  1  0  0  0  0
 33 34  1  0  0  0  0
 33 35  1  0  0  0  0
 33 36  1  0  0  0  0
 37 38  2  0  0  0  0
 37 39  1  0  0  0  0
 39 40  1  0  0  0  0
 39 41  1  0  0  0  0
 41 42  1  0  0  0  0
 41 43  1  0  0  0  0
 41 44  1  0  0  0  0
M  END
$$$$

  -OEChem-04042215573D

 44 43  0     1  0  0  0  0  0999 V2000
   -2.4435   -6.4538    0.6601 H   0  0  0  0  0  0  0  0  0  0  0  0
   -2.5841   -5.3961    0.9003 C   0  0  0  0  0  0  0  0  0  0  0  0
   -2.2594   -5.2242    1.9291 H   0  0  0  0  0  0  0  0  0  0  0  0
   -3.6461   -5.1542    0.8139 H   0  0  0  0  0  0  0  0  0  0  0  0
   -1.7785   -4.5342   -0.0529 C   0  0  0  0  0  0  0  0  0  0  0  0
   -1.1567   -5.0524   -0.9618 O   0  0  0  0  0  0  0  0  0  0  0  0
   -1.7452   -3.1658    0.1219 N   0  0  0  0  0  0  0  0  0  0  0  0
   -2.4029   -2.7975    0.8038 H   0  0  0  0  0  0  0  0  0  0  0  0
   -1.2713   -2.2231   -0.9088 C   0  0  1  0  0  0  0  0  0  0  0  0
   -1.8866   -2.3454   -1.8057 H   0  0  0  0  0  0  0  0  0  0  0  0
   -1.4320   -0.7971   -0.3654 C   0  0  0  0  0  0  0  0  0  0  0  0
   -1.0759   -0.0867   -1.1194 H   0  0  0  0  0  0  0  0  0  0  0  0
   -0.8131   -0.6671    0.5281 H   0  0  0  0  0  0  0  0  0  0  0  0
   -3.1840   -0.3979    0.0433 S   0  0  0  0  0  0  0  0  0  0  0  0
    0.1926   -2.4191   -1.3599 C   0  0  0  0  0  0  0  0  0  0  0  0
    0.5155   -2.1016   -2.4973 O   0  0  0  0  0  0  0  0  0  0  0  0
    1.1841   -2.6283   -0.4178 N   0  0  0  0  0  0  0  0  0  0  0  0
    0.8693   -3.0029    0.4717 H   0  0  0  0  0  0  0  0  0  0  0  0
    2.5852   -2.7969   -0.7840 C   0  0  0  0  0  0  0  0  0  0  0  0
    2.7064   -3.6644   -1.4415 H   0  0  0  0  0  0  0  0  0  0  0  0
    2.9572   -1.9073   -1.3034 H   0  0  0  0  0  0  0  0  0  0  0  0
    3.1950   -2.9509    0.1113 H   0  0  0  0  0  0  0  0  0  0  0  0
   -5.4841    3.6835   -6.8833 H   0  0  0  0  0  0  0  0  0  0  0  0
   -5.0190    3.8729   -5.9118 C   0  0  0  0  0  0  0  0  0  0  0  0
   -5.4819    4.7563   -5.4659 H   0  0  0  0  0  0  0  0  0  0  0  0
   -3.9538    4.0635   -6.0617 H   0  0  0  0  0  0  0  0  0  0  0  0
   -5.2063    2.6739   -5.0026 C   0  0  0  0  0  0  0  0  0  0  0  0
   -5.7631    1.6711   -5.4182 O   0  0  0  0  0  0  0  0  0  0  0  0
   -4.7523    2.7175   -3.7021 N   0  0  0  0  0  0  0  0  0  0  0  0
   -4.4122    3.6139   -3.3544 H   0  0  0  0  0  0  0  0  0  0  0  0
   -5.0231    1.6807   -2.6947 C   0  0  1  0  0  0  0  0  0  0  0  0
   -5.9544    1.1589   -2.9400 H   0  0  0  0  0  0  0  0  0  0  0  0
   -3.8613    0.6786   -2.7286 C   0  0  0  0  0  0  0  0  0  0  0  0
   -3.6982    0.3634   -3.7645 H   0  0  0  0  0  0  0  0  0  0  0  0
   -2.9415    1.1578   -2.3794 H   0  0  0  0  0  0  0  0  0  0  0  0
   -4.2139   -0.8230   -1.7261 S   0  0  0  0  0  0  0  0  0  0  0  0
   -5.2018    2.3122   -1.2969 C   0  0  0  0  0  0  0  0  0  0  0  0
   -4.7825    3.4459   -1.0832 O   0  0  0  0  0  0  0  0  0  0  0  0
   -5.8763    1.6413   -0.2939 N   0  0  0  0  0  0  0  0  0  0  0  0
   -6.0909    0.6619   -0.4652 H   0  0  0  0  0  0  0  0  0  0  0  0
   -6.0020    2.1575    1.0635 C   0  0  0  0  0  0  0  0  0  0  0  0
   -5.0160    2.2485    1.5310 H   0  0  0  0  0  0  0  0  0  0  0  0
   -6.4815    3.1421    1.0576 H   0  0  0  0  0  0  0  0  0  0  0  0
   -6.6129    1.4819    1.6697 H   0  0  0  0  0  0  0  0  0  0  0  0
  1  2  1  0  0  0  0
  2  3  1  0  0  0  0
  2  4  1  0  0  0  0
  2  5  1  0  0  0  0
  5  6  2  0  0  0  0
  5  7  1  0  0  0  0
  7  8  1  0  0  0  0
  7  9  1  0  0  0  0
  9 10  1  0  0  0  0
  9 11  1  0  0  0  0
  9 15  1  0  0  0  0
 11 12  1  0  0  0  0
 11 13  1  0  0  0  0
 11 14  1  0  0  0  0
 14 36  1  0  0  0  0
 15 16  2  0  0  0  0
 15 17  1  0  0  0  0
 17 18  1  0  0  0  0
 17 19  1  0  0  0  0
 19 20  1  0  0  0  0
 19 21  1  0  0  0  0
 19 22  1  0  0  0  0
 23 24  1  0  0  0  0
 24 25  1  0  0  0  0
 24 26  1  0  0  0  0
 24 27  1  0  0  0  0
 27 28  2  0  0  0  0
 27 29  1  0  0  0  0
 29 30  1  0  0  0  0
 29 31  1  0  0  0  0
 31 32  1  0  0  0  0
 31 33  1  0  0  0  0
 31 37  1  0  0  0  0
 33 34  1  0  0  0  0
 33 35  1  0  0  0  0
 33 36  1  0  0  0  0
 37 38  2  0  0  0  0
 37 39  1  0  0  0  0
 39 40  1  0  0  0  0
 39 41  1  0  0  0  0
 41 42  1  0  0  0  0
 41 43  1  0  0  0  0
 41 44  1  0  0  0  0
M  END
$$$$

  -OEChem-04042215573D

 44 43  0     1  0  0  0  0  0999 V2000
   -2.4831   -6.3737    0.7109 H   0  0  0  0  0  0  0  0  0  0  0  0
   -2.6073   -5.3107    0.9366 C   0  0  0  0  0  0  0  0  0  0  0  0
   -2.2697   -5.1265    1.9591 H   0  0  0  0  0  0  0  0  0  0  0  0
   -3.6667   -5.0559    0.8556 H   0  0  0  0  0  0  0  0  0  0  0  0
   -1.7999   -4.4741   -0.0368 C   0  0  0  0  0  0  0  0  0  0  0  0
   -1.1932   -5.0149   -0.9430 O   0  0  0  0  0  0  0  0  0  0  0  0
   -1.7464   -3.1036    0.1155 N   0  0  0  0  0  0  0  0  0  0  0  0
   -2.3933   -2.7125    0.7957 H   0  0  0  0  0  0  0  0  0  0  0  0
   -1.2612   -2.1848   -0.9319 C   0  0  1  0  0  0  0  0  0  0  0  0
   -1.8860   -2.3295   -1.8201 H   0  0  0  0  0  0  0  0  0  0  0  0
   -1.4208   -0.7334   -0.4529 C   0  0  0  0  0  0  0  0  0  0  0  0
   -1.2882   -0.0615   -1.3074 H   0  0  0  0  0  0  0  0  0  0  0  0
   -0.6368   -0.4975    0.2737 H   0  0  0  0  0  0  0  0  0  0  0  0
   -3.0590   -0.4069    0.3289 S   0  0  0  0  0  0  0  0  0  0  0  0
    0.1975   -2.4054   -1.3860 C   0  0  0  0  0  0  0  0  0  0  0  0
    0.5181   -2.1139   -2.5309 O   0  0  0  0  0  0  0  0  0  0  0  0
    1.1898   -2.6119   -0.4443 N   0  0  0  0  0  0  0  0  0  0  0  0
    0.8732   -2.9610    0.4551 H   0  0  0  0  0  0  0  0  0  0  0  0
    2.5866   -2.8086   -0.8128 C   0  0  0  0  0  0  0  0  0  0  0  0
    2.6911   -3.6856   -1.4605 H   0  0  0  0  0  0  0  0  0  0  0  0
    2.9712   -1.9310   -1.3433 H   0  0  0  0  0  0  0  0  0  0  0  0
    3.1962   -2.9631    0.0824 H   0  0  0  0  0  0  0  0  0  0  0  0
   -7.2053    2.7942   -6.1756 H   0  0  0  0  0  0  0  0  0  0  0  0
   -6.5517    3.0986   -5.3534 C   0  0  0  0  0  0  0  0  0  0  0  0
   -6.9733    3.9876   -4.8782 H   0  0  0  0  0  0  0  0  0  0  0  0
   -5.5664    3.3416   -5.7581 H   0  0  0  0  0  0  0  0  0  0  0  0
   -6.4309    1.9763   -4.3408 C   0  0  0  0  0  0  0  0  0  0  0  0
   -6.9707    0.9021   -4.5483 O   0  0  0  0  0  0  0  0  0  0  0  0
   -5.7079    2.1683   -3.1835 N   0  0  0  0  0  0  0  0  0  0  0  0
   -5.3816    3.1143   -2.9865 H   0  0  0  0  0  0  0  0  0  0  0  0
   -5.6570    1.2107   -2.0686 C   0  0  1  0  0  0  0  0  0  0  0  0
   -6.5685    0.6032   -2.0576 H   0  0  0  0  0  0  0  0  0  0  0  0
   -4.4455    0.2958   -2.2926 C   0  0  0  0  0  0  0  0  0  0  0  0
   -4.4992   -0.1162   -3.3059 H   0  0  0  0  0  0  0  0  0  0  0  0
   -3.5200    0.8753   -2.2187 H   0  0  0  0  0  0  0  0  0  0  0  0
   -4.4083   -1.1097   -1.1052 S   0  0  0  0  0  0  0  0  0  0  0  0
   -5.5800    1.9545   -0.7175 C   0  0  0  0  0  0  0  0  0  0  0  0
   -5.2092    3.1242   -0.6878 O   0  0  0  0  0  0  0  0  0  0  0  0
   -5.9752    1.3405    0.4564 N   0  0  0  0  0  0  0  0  0  0  0  0
   -6.1531    0.3402    0.4111 H   0  0  0  0  0  0  0  0  0  0  0  0
   -5.8454    1.9698    1.7647 C   0  0  0  0  0  0  0  0  0  0  0  0
   -4.7916    2.1551    1.9969 H   0  0  0  0  0  0  0  0  0  0  0  0
   -6.3842    2.9229    1.7881 H   0  0  0  0  0  0  0  0  0  0  0  0
   -6.2632    1.3201    2.5395 H   0  0  0  0  0  0  0  0  0  0  0  0
  1  2  1  0  0  0  0
  2  3  1  0  0  0  0
  2  4  1  0  0  0  0
  2  5  1  0  0  0  0
  5  6  2  0  0  0  0
  5  7  1  0  0  0  0
  7  8  1  0  0  0  0
  7  9  1  0  0  0  0
  9 10  1  0  0  0  0
  9 11  1  0  0  0  0
  9 15  1  0  0  0  0
 11 12  1  0  0  0  0
 11 13  1  0  0  0  0
 11 14  1  0  0  0  0
 14 36  1  0  0  0  0
 15 16  2  0  0  0  0
 15 17  1  0  0  0  0
 17 18  1  0  0  0  0
 17 19  1  0  0  0  0
 19 20  1  0  0  0  0
 19 21  1  0  0  0  0
 19 22  1  0  0  0  0
 23 24  1  0  0  0  0
 24 25  1  0  0  0  0
 24 26  1  0  0  0  0
 24 27  1  0  0  0  0
 27 28  2  0  0  0  0
 27 29  1  0  0  0  0
 29 30  1  0  0  0  0
 29 31  1  0  0  0  0
 31 32  1  0  0  0  0
 31 33  1  0  0  0  0
 31 37  1  0  0  0  0
 33 34  1  0  0  0  0
 33 35  1  0  0  0  0
 33 36  1  0  0  0  0
 37 38  2  0  0  0  0
 37 39  1  0  0  0  0
 39 40  1  0  0  0  0
 39 41  1  0  0  0  0
 41 42  1  0  0  0  0
 41 43  1  0  0  0  0
 41 44  1  0  0  0  0
M  END
$$$$

  -OEChem-04042215573D

 44 43  0     1  0  0  0  0  0999 V2000
   -2.3704   -6.4031    0.8762 H   0  0  0  0  0  0  0  0  0  0  0  0
   -2.5053   -5.3357    1.0730 C   0  0  0  0  0  0  0  0  0  0  0  0
   -2.1296   -5.1121    2.0743 H   0  0  0  0  0  0  0  0  0  0  0  0
   -3.5719   -5.1019    1.0291 H   0  0  0  0  0  0  0  0  0  0  0  0
   -1.7532   -4.5175    0.0411 C   0  0  0  0  0  0  0  0  0  0  0  0
   -1.1534   -5.0755   -0.8595 O   0  0  0  0  0  0  0  0  0  0  0  0
   -1.7403   -3.1414    0.1345 N   0  0  0  0  0  0  0  0  0  0  0  0
   -2.3785   -2.7398    0.8171 H   0  0  0  0  0  0  0  0  0  0  0  0
   -1.2878   -2.2487   -0.9494 C   0  0  1  0  0  0  0  0  0  0  0  0
   -1.9095   -2.4707   -1.8237 H   0  0  0  0  0  0  0  0  0  0  0  0
   -1.5197   -0.7725   -0.5726 C   0  0  0  0  0  0  0  0  0  0  0  0
   -1.6472   -0.1888   -1.4899 H   0  0  0  0  0  0  0  0  0  0  0  0
   -0.6310   -0.3850   -0.0637 H   0  0  0  0  0  0  0  0  0  0  0  0
   -2.9643   -0.4980    0.5424 S   0  0  0  0  0  0  0  0  0  0  0  0
    0.1756   -2.4383   -1.4027 C   0  0  0  0  0  0  0  0  0  0  0  0
    0.4819   -2.1799   -2.5595 O   0  0  0  0  0  0  0  0  0  0  0  0
    1.1773   -2.5761   -0.4586 N   0  0  0  0  0  0  0  0  0  0  0  0
    0.8750   -2.8938    0.4574 H   0  0  0  0  0  0  0  0  0  0  0  0
    2.5793   -2.7382   -0.8239 C   0  0  0  0  0  0  0  0  0  0  0  0
    2.7136   -3.6385   -1.4331 H   0  0  0  0  0  0  0  0  0  0  0  0
    2.9309   -1.8714   -1.3936 H   0  0  0  0  0  0  0  0  0  0  0  0
    3.1957   -2.8315    0.0753 H   0  0  0  0  0  0  0  0  0  0  0  0
   -8.6282    1.9371   -5.0730 H   0  0  0  0  0  0  0  0  0  0  0  0
   -7.8508    2.3563   -4.4281 C   0  0  0  0  0  0  0  0  0  0  0  0
   -8.2471    3.2449   -3.9306 H   0  0  0  0  0  0  0  0  0  0  0  0
   -6.9966    2.6430   -5.0461 H   0  0  0  0  0  0  0  0  0  0  0  0
   -7.4211    1.3316   -3.3962 C   0  0  0  0  0  0  0  0  0  0  0  0
   -7.8962    0.2079   -3.4111 O   0  0  0  0  0  0  0  0  0  0  0  0
   -6.4893    1.6682   -2.4384 N   0  0  0  0  0  0  0  0  0  0  0  0
   -6.2069    2.6467   -2.3808 H   0  0  0  0  0  0  0  0  0  0  0  0
   -6.1135    0.8073   -1.3071 C   0  0  1  0  0  0  0  0  0  0  0  0
   -6.9533    0.1563   -1.0414 H   0  0  0  0  0  0  0  0  0  0  0  0
   -4.9257   -0.0580   -1.7507 C   0  0  0  0  0  0  0  0  0  0  0  0
   -5.1780   -0.5412   -2.7005 H   0  0  0  0  0  0  0  0  0  0  0  0
   -4.0474    0.5715   -1.9229 H   0  0  0  0  0  0  0  0  0  0  0  0
   -4.5301   -1.3758   -0.5294 S   0  0  0  0  0  0  0  0  0  0  0  0
   -5.7790    1.6625   -0.0657 C   0  0  0  0  0  0  0  0  0  0  0  0
   -5.4937    2.8483   -0.2047 O   0  0  0  0  0  0  0  0  0  0  0  0
   -5.8521    1.1298    1.2081 N   0  0  0  0  0  0  0  0  0  0  0  0
   -5.9679    0.1218    1.2772 H   0  0  0  0  0  0  0  0  0  0  0  0
   -5.4724    1.8740    2.4029 C   0  0  0  0  0  0  0  0  0  0  0  0
   -4.4059    2.1209    2.3763 H   0  0  0  0  0  0  0  0  0  0  0  0
   -6.0475    2.8033    2.4773 H   0  0  0  0  0  0  0  0  0  0  0  0
   -5.6684    1.2771    3.2988 H   0  0  0  0  0  0  0  0  0  0  0  0
  1  2  1  0  0  0  0
  2  3  1  0  0  0  0
  2  4  1  0  0  0  0
  2  5  1  0  0  0  0
  5  6  2  0  0  0  0
  5  7  1  0  0  0  0
  7  8  1  0  0  0  0
  7  9  1  0  0  0  0
  9 10  1  0  0  0  0
  9 11  1  0  0  0  0
  9 15  1  0  0  0  0
 11 12  1  0  0  0  0
 11 13  1  0  0  0  0
 11 14  1  0  0  0  0
 14 36  1  0  0  0  0
 15 16  2  0  0  0  0
 15 17  1  0  0  0  0
 17 18  1  0  0  0  0
 17 19  1  0  0  0  0
 19 20  1  0  0  0  0
 19 21  1  0  0  0  0
 19 22  1  0  0  0  0
 23 24  1  0  0  0  0
 24 25  1  0  0  0  0
 24 26  1  0  0  0  0
 24 27  1  0  0  0  0
 27 28  2  0  0  0  0
 27 29  1  0  0  0  0
 29 30  1  0  0  0  0
 29 31  1  0  0  0  0
 31 32  1  0  0  0  0
 31 33  1  0  0  0  0
 31 37  1  0  0  0  0
 33 34  1  0  0  0  0
 33 35  1  0  0  0  0
 33 36  1  0  0  0  0
 37 38  2  0  0  0  0
 37 39  1  0  0  0  0
 39 40  1  0  0  0  0
 39 41  1  0  0  0  0
 41 42  1  0  0  0  0
 41 43  1  0  0  0  0
 41 44  1  0  0  0  0
M  END
$$$$

  -OEChem-04042215573D

 44 43  0     1  0  0  0  0  0999 V2000
   -2.1400   -6.4534    1.1169 H   0  0  0  0  0  0  0  0  0  0  0  0
   -2.3425   -5.3850    1.2325 C   0  0  0  0  0  0  0  0  0  0  0  0
   -1.9941   -5.0656    2.2173 H   0  0  0  0  0  0  0  0  0  0  0  0
   -3.4207   -5.2215    1.1632 H   0  0  0  0  0  0  0  0  0  0  0  0
   -1.6301   -4.5994    0.1484 C   0  0  0  0  0  0  0  0  0  0  0  0
   -0.9970   -5.1835   -0.7120 O   0  0  0  0  0  0  0  0  0  0  0  0
   -1.6945   -3.2216    0.1484 N   0  0  0  0  0  0  0  0  0  0  0  0
   -2.3516   -2.8099    0.8072 H   0  0  0  0  0  0  0  0  0  0  0  0
   -1.2813   -2.3746   -0.9868 C   0  0  1  0  0  0  0  0  0  0  0  0
   -1.8744   -2.6968   -1.8499 H   0  0  0  0  0  0  0  0  0  0  0  0
   -1.6071   -0.8845   -0.7346 C   0  0  0  0  0  0  0  0  0  0  0  0
   -2.0044   -0.4489   -1.6568 H   0  0  0  0  0  0  0  0  0  0  0  0
   -0.6809   -0.3482   -0.5019 H   0  0  0  0  0  0  0  0  0  0  0  0
   -2.7860   -0.5675    0.6510 S   0  0  0  0  0  0  0  0  0  0  0  0
    0.1974   -2.5172   -1.4066 C   0  0  0  0  0  0  0  0  0  0  0  0
    0.5105   -2.3248   -2.5743 O   0  0  0  0  0  0  0  0  0  0  0  0
    1.1878   -2.5403   -0.4413 N   0  0  0  0  0  0  0  0  0  0  0  0
    0.8849   -2.8002    0.4924 H   0  0  0  0  0  0  0  0  0  0  0  0
    2.6027   -2.6552   -0.7725 C   0  0  0  0  0  0  0  0  0  0  0  0
    2.7834   -3.5527   -1.3738 H   0  0  0  0  0  0  0  0  0  0  0  0
    2.9372   -1.7792   -1.3383 H   0  0  0  0  0  0  0  0  0  0  0  0
    3.2007   -2.7243    0.1413 H   0  0  0  0  0  0  0  0  0  0  0  0
   -9.7942    1.1387   -3.5652 H   0  0  0  0  0  0  0  0  0  0  0  0
   -8.9317    1.6660   -3.1479 C   0  0  0  0  0  0  0  0  0  0  0  0
   -9.2848    2.5499   -2.6113 H   0  0  0  0  0  0  0  0  0  0  0  0
   -8.2806    1.9798   -3.9670 H   0  0  0  0  0  0  0  0  0  0  0  0
   -8.1710    0.7543   -2.2045 C   0  0  0  0  0  0  0  0  0  0  0  0
   -8.5135   -0.4086   -2.0662 O   0  0  0  0  0  0  0  0  0  0  0  0
   -7.0868    1.2351   -1.5020 N   0  0  0  0  0  0  0  0  0  0  0  0
   -6.9007    2.2370   -1.5499 H   0  0  0  0  0  0  0  0  0  0  0  0
   -6.3766    0.4818   -0.4574 C   0  0  1  0  0  0  0  0  0  0  0  0
   -7.0702   -0.2094    0.0337 H   0  0  0  0  0  0  0  0  0  0  0  0
   -5.2556   -0.3219   -1.1317 C   0  0  0  0  0  0  0  0  0  0  0  0
   -5.6745   -0.8614   -1.9876 H   0  0  0  0  0  0  0  0  0  0  0  0
   -4.4838    0.3545   -1.5125 H   0  0  0  0  0  0  0  0  0  0  0  0
   -4.5134   -1.5578    0.0118 S   0  0  0  0  0  0  0  0  0  0  0  0
   -5.8292    1.4368    0.6251 C   0  0  0  0  0  0  0  0  0  0  0  0
   -5.6984    2.6305    0.3719 O   0  0  0  0  0  0  0  0  0  0  0  0
   -5.5305    0.9778    1.8944 N   0  0  0  0  0  0  0  0  0  0  0  0
   -5.5383   -0.0298    2.0318 H   0  0  0  0  0  0  0  0  0  0  0  0
   -4.9335    1.8195    2.9239 C   0  0  0  0  0  0  0  0  0  0  0  0
   -3.9602    2.1975    2.5924 H   0  0  0  0  0  0  0  0  0  0  0  0
   -5.5848    2.6707    3.1493 H   0  0  0  0  0  0  0  0  0  0  0  0
   -4.7880    1.2454    3.8441 H   0  0  0  0  0  0  0  0  0  0  0  0
  1  2  1  0  0  0  0
  2  3  1  0  0  0  0
  2  4  1  0  0  0  0
  2  5  1  0  0  0  0
  5  6  2  0  0  0  0
  5  7  1  0  0  0  0
  7  8  1  0  0  0  0
  7  9  1  0  0  0  0
  9 10  1  0  0  0  0
  9 11  1  0  0  0  0
  9 15  1  0  0  0  0
 11 12  1  0  0  0  0
 11 13  1  0  0  0  0
 11 14  1  0  0  0  0
 14 36  1  0  0  0  0
 15 16  2  0  0  0  0
 15 17  1  0  0  0  0
 17 18  1  0  0  0  0
 17 19  1  0  0  0  0
 19 20  1  0  0  0  0
 19 21  1  0  0  0  0
 19 22  1  0  0  0  0
 23 24  1  0  0  0  0
 24 25  1  0  0  0  0
 24 26  1  0  0  0  0
 24 27  1  0  0  0  0
 27 28  2  0  0  0  0
 27 29  1  0  0  0  0
 29 30  1  0  0  0  0
 29 31  1  0  0  0  0
 31 32  1  0  0  0  0
 31 33  1  0  0  0  0
 31 37  1  0  0  0  0
 33 34  1  0  0  0  0
 33 35  1  0  0  0  0
 33 36  1  0  0  0  0
 37 38  2  0  0  0  0
 37 39  1  0  0  0  0
 39 40  1  0  0  0  0
 39 41  1  0  0  0  0
 41 42  1  0  0  0  0
 41 43  1  0  0  0  0
 41 44  1  0  0  0  0
M  END
$$$$

  -OEChem-04042215573D

 44 43  0     1  0  0  0  0  0999 V2000
   -1.7675   -6.5955    1.2637 H   0  0  0  0  0  0  0  0  0  0  0  0
   -2.0463   -5.5417    1.3540 C   0  0  0  0  0  0  0  0  0  0  0  0
   -1.6774   -5.1609    2.3092 H   0  0  0  0  0  0  0  0  0  0  0  0
   -3.1360   -5.4629    1.3328 H   0  0  0  0  0  0  0  0  0  0  0  0
   -1.4471   -4.7453    0.2110 C   0  0  0  0  0  0  0  0  0  0  0  0
   -0.7874   -5.3087   -0.6431 O   0  0  0  0  0  0  0  0  0  0  0  0
   -1.6471   -3.3818    0.1465 N   0  0  0  0  0  0  0  0  0  0  0  0
   -2.3051   -2.9911    0.8174 H   0  0  0  0  0  0  0  0  0  0  0  0
   -1.3043   -2.5464   -1.0204 C   0  0  1  0  0  0  0  0  0  0  0  0
   -1.8425   -2.9588   -1.8811 H   0  0  0  0  0  0  0  0  0  0  0  0
   -1.7655   -1.0791   -0.8375 C   0  0  0  0  0  0  0  0  0  0  0  0
   -2.4349   -0.8198   -1.6636 H   0  0  0  0  0  0  0  0  0  0  0  0
   -0.9003   -0.4112   -0.9121 H   0  0  0  0  0  0  0  0  0  0  0  0
   -2.6195   -0.7128    0.7584 S   0  0  0  0  0  0  0  0  0  0  0  0
    0.1914   -2.5690   -1.4037 C   0  0  0  0  0  0  0  0  0  0  0  0
    0.5155   -2.4106   -2.5733 O   0  0  0  0  0  0  0  0  0  0  0  0
    1.1549   -2.4559   -0.4181 N   0  0  0  0  0  0  0  0  0  0  0  0
    0.8512   -2.6685    0.5269 H   0  0  0  0  0  0  0  0  0  0  0  0
    2.5824   -2.4339   -0.7094 C   0  0  0  0  0  0  0  0  0  0  0  0
    2.8727   -3.3306   -1.2673 H   0  0  0  0  0  0  0  0  0  0  0  0
    2.8387   -1.5507   -1.3040 H   0  0  0  0  0  0  0  0  0  0  0  0
    3.1581   -2.4024    0.2205 H   0  0  0  0  0  0  0  0  0  0  0  0
  -10.4965    0.4835   -1.8034 H   0  0  0  0  0  0  0  0  0  0  0  0
   -9.6139    1.0954   -1.5978 C   0  0  0  0  0  0  0  0  0  0  0  0
   -9.9155    1.9581   -0.9990 H   0  0  0  0  0  0  0  0  0  0  0  0
   -9.1982    1.4450   -2.5457 H   0  0  0  0  0  0  0  0  0  0  0  0
   -8.5772    0.2802   -0.8490 C   0  0  0  0  0  0  0  0  0  0  0  0
   -8.7809   -0.8982   -0.6066 O   0  0  0  0  0  0  0  0  0  0  0  0
   -7.4004    0.8688   -0.4381 N   0  0  0  0  0  0  0  0  0  0  0  0
   -7.3194    1.8802   -0.5459 H   0  0  0  0  0  0  0  0  0  0  0  0
   -6.4144    0.2220    0.4417 C   0  0  1  0  0  0  0  0  0  0  0  0
   -6.9273   -0.4707    1.1178 H   0  0  0  0  0  0  0  0  0  0  0  0
   -5.4303   -0.5661   -0.4346 C   0  0  0  0  0  0  0  0  0  0  0  0
   -5.9975   -1.1445   -1.1712 H   0  0  0  0  0  0  0  0  0  0  0  0
   -4.7794    0.1223   -0.9831 H   0  0  0  0  0  0  0  0  0  0  0  0
   -4.4261   -1.7460    0.5587 S   0  0  0  0  0  0  0  0  0  0  0  0
   -5.6921    1.2727    1.3138 C   0  0  0  0  0  0  0  0  0  0  0  0
   -5.7611    2.4611    1.0152 O   0  0  0  0  0  0  0  0  0  0  0  0
   -5.0095    0.9029    2.4573 N   0  0  0  0  0  0  0  0  0  0  0  0
   -4.8616   -0.0933    2.5990 H   0  0  0  0  0  0  0  0  0  0  0  0
   -4.2500    1.8450    3.2700 C   0  0  0  0  0  0  0  0  0  0  0  0
   -3.4449    2.2971    2.6811 H   0  0  0  0  0  0  0  0  0  0  0  0
   -4.9022    2.6406    3.6454 H   0  0  0  0  0  0  0  0  0  0  0  0
   -3.8057    1.3310    4.1277 H   0  0  0  0  0  0  0  0  0  0  0  0
  1  2  1  0  0  0  0
  2  3  1  0  0  0  0
  2  4  1  0  0  0  0
  2  5  1  0  0  0  0
  5  6  2  0  0  0  0
  5  7  1  0  0  0  0
  7  8  1  0  0  0  0
  7  9  1  0  0  0  0
  9 10  1  0  0  0  0
  9 11  1  0  0  0  0
  9 15  1  0  0  0  0
 11 12  1  0  0  0  0
 11 13  1  0  0  0  0
 11 14  1  0  0  0  0
 14 36  1  0  0  0  0
 15 16  2  0  0  0  0
 15 17  1  0  0  0  0
 17 18  1  0  0  0  0
 17 19  1  0  0  0  0
 19 20  1  0  0  0  0
 19 21  1  0  0  0  0
 19 22  1  0  0  0  0
 23 24  1  0  0  0  0
 24 25  1  0  0  0  0
 24 26  1  0  0  0  0
 24 27  1  0  0  0  0
 27 28  2  0  0  0  0
 27 29  1  0  0  0  0
 29 30  1  0  0  0  0
 29 31  1  0  0  0  0
 31 32  1  0  0  0  0
 31 33  1  0  0  0  0
 31 37  1  0  0  0  0
 33 34  1  0  0  0  0
 33 35  1  0  0  0  0
 33 36  1  0  0  0  0
 37 38  2  0  0  0  0
 37 39  1  0  0  0  0
 39 40  1  0  0  0  0
 39 41  1  0  0  0  0
 41 42  1  0  0  0  0
 41 43  1  0  0  0  0
 41 44  1  0  0  0  0
M  END
$$$$

  -OEChem-04042215573D

 44 43  0     1  0  0  0  0  0999 V2000
   -1.4380   -6.7578    1.2041 H   0  0  0  0  0  0  0  0  0  0  0  0
   -1.7577   -5.7194    1.3311 C   0  0  0  0  0  0  0  0  0  0  0  0
   -1.3501   -5.3380    2.2703 H   0  0  0  0  0  0  0  0  0  0  0  0
   -2.8492   -5.6911    1.3755 H   0  0  0  0  0  0  0  0  0  0  0  0
   -1.2657   -4.8767    0.1701 C   0  0  0  0  0  0  0  0  0  0  0  0
   -0.5850   -5.3821   -0.7035 O   0  0  0  0  0  0  0  0  0  0  0  0
   -1.5956   -3.5390    0.1043 N   0  0  0  0  0  0  0  0  0  0  0  0
   -2.2471   -3.1944    0.8063 H   0  0  0  0  0  0  0  0  0  0  0  0
   -1.3209   -2.6654   -1.0520 C   0  0  1  0  0  0  0  0  0  0  0  0
   -1.8017   -3.1094   -1.9311 H   0  0  0  0  0  0  0  0  0  0  0  0
   -1.9074   -1.2476   -0.8492 C   0  0  0  0  0  0  0  0  0  0  0  0
   -2.7913   -1.1464   -1.4857 H   0  0  0  0  0  0  0  0  0  0  0  0
   -1.1856   -0.4973   -1.1912 H   0  0  0  0  0  0  0  0  0  0  0  0
   -2.3979   -0.8406    0.8845 S   0  0  0  0  0  0  0  0  0  0  0  0
    0.1791   -2.5465   -1.4022 C   0  0  0  0  0  0  0  0  0  0  0  0
    0.5143   -2.3576   -2.5644 O   0  0  0  0  0  0  0  0  0  0  0  0
    1.1084   -2.3506   -0.3969 N   0  0  0  0  0  0  0  0  0  0  0  0
    0.8015   -2.5683    0.5458 H   0  0  0  0  0  0  0  0  0  0  0  0
    2.5330   -2.1868   -0.6553 C   0  0  0  0  0  0  0  0  0  0  0  0
    2.9203   -3.0416   -1.2201 H   0  0  0  0  0  0  0  0  0  0  0  0
    2.7145   -1.2725   -1.2302 H   0  0  0  0  0  0  0  0  0  0  0  0
    3.0837   -2.1169    0.2876 H   0  0  0  0  0  0  0  0  0  0  0  0
  -10.7009   -0.0749    0.1286 H   0  0  0  0  0  0  0  0  0  0  0  0
   -9.8387    0.5969    0.0963 C   0  0  0  0  0  0  0  0  0  0  0  0
  -10.0564    1.4774    0.7052 H   0  0  0  0  0  0  0  0  0  0  0  0
   -9.6732    0.9080   -0.9378 H   0  0  0  0  0  0  0  0  0  0  0  0
   -8.6065   -0.1100    0.6275 C   0  0  0  0  0  0  0  0  0  0  0  0
   -8.6725   -1.2767    0.9789 O   0  0  0  0  0  0  0  0  0  0  0  0
   -7.4056    0.5613    0.7147 N   0  0  0  0  0  0  0  0  0  0  0  0
   -7.4135    1.5649    0.5308 H   0  0  0  0  0  0  0  0  0  0  0  0
   -6.2036    0.0230    1.3706 C   0  0  1  0  0  0  0  0  0  0  0  0
   -6.5030   -0.6296    2.1980 H   0  0  0  0  0  0  0  0  0  0  0  0
   -5.4165   -0.7981    0.3383 C   0  0  0  0  0  0  0  0  0  0  0  0
   -6.1166   -1.4280   -0.2204 H   0  0  0  0  0  0  0  0  0  0  0  0
   -4.9261   -0.1317   -0.3781 H   0  0  0  0  0  0  0  0  0  0  0  0
   -4.1811   -1.9039    1.1380 S   0  0  0  0  0  0  0  0  0  0  0  0
   -5.3498    1.1642    1.9656 C   0  0  0  0  0  0  0  0  0  0  0  0
   -5.5583    2.3228    1.6184 O   0  0  0  0  0  0  0  0  0  0  0  0
   -4.3823    0.9087    2.9191 N   0  0  0  0  0  0  0  0  0  0  0  0
   -4.1466   -0.0673    3.0823 H   0  0  0  0  0  0  0  0  0  0  0  0
   -3.4959    1.9382    3.4477 C   0  0  0  0  0  0  0  0  0  0  0  0
   -2.8820    2.3639    2.6469 H   0  0  0  0  0  0  0  0  0  0  0  0
   -4.0757    2.7423    3.9133 H   0  0  0  0  0  0  0  0  0  0  0  0
   -2.8310    1.5113    4.2047 H   0  0  0  0  0  0  0  0  0  0  0  0
  1  2  1  0  0  0  0
  2  3  1  0  0  0  0
  2  4  1  0  0  0  0
  2  5  1  0  0  0  0
  5  6  2  0  0  0  0
  5  7  1  0  0  0  0
  7  8  1  0  0  0  0
  7  9  1  0  0  0  0
  9 10  1  0  0  0  0
  9 11  1  0  0  0  0
  9 15  1  0  0  0  0
 11 12  1  0  0  0  0
 11 13  1  0  0  0  0
 11 14  1  0  0  0  0
 14 36  1  0  0  0  0
 15 16  2  0  0  0  0
 15 17  1  0  0  0  0
 17 18  1  0  0  0  0
 17 19  1  0  0  0  0
 19 20  1  0  0  0  0
 19 21  1  0  0  0  0
 19 22  1  0  0  0  0
 23 24  1  0  0  0  0
 24 25  1  0  0  0  0
 24 26  1  0  0  0  0
 24 27  1  0  0  0  0
 27 28  2  0  0  0  0
 27 29  1  0  0  0  0
 29 30  1  0  0  0  0
 29 31  1  0  0  0  0
 31 32  1  0  0  0  0
 31 33  1  0  0  0  0
 31 37  1  0  0  0  0
 33 34  1  0  0  0  0
 33 35  1  0  0  0  0
 33 36  1  0  0  0  0
 37 38  2  0  0  0  0
 37 39  1  0  0  0  0
 39 40  1  0  0  0  0
 39 41  1  0  0  0  0
 41 42  1  0  0  0  0
 41 43  1  0  0  0  0
 41 44  1  0  0  0  0
M  END
$$$$

  -OEChem-04042215573D

 44 43  0     1  0  0  0  0  0999 V2000
   -1.1886   -6.8758    1.0438 H   0  0  0  0  0  0  0  0  0  0  0  0
   -1.5375   -5.8538    1.2172 C   0  0  0  0  0  0  0  0  0  0  0  0
   -1.0863   -5.4791    2.1387 H   0  0  0  0  0  0  0  0  0  0  0  0
   -2.6241   -5.8682    1.3300 H   0  0  0  0  0  0  0  0  0  0  0  0
   -1.1490   -4.9658    0.0510 C   0  0  0  0  0  0  0  0  0  0  0  0
   -0.4761   -5.4141   -0.8591 O   0  0  0  0  0  0  0  0  0  0  0  0
   -1.5578   -3.6489    0.0250 N   0  0  0  0  0  0  0  0  0  0  0  0
   -2.1604   -3.3369    0.7835 H   0  0  0  0  0  0  0  0  0  0  0  0
   -1.3218   -2.7170   -1.0932 C   0  0  1  0  0  0  0  0  0  0  0  0
   -1.7651   -3.1439   -1.9997 H   0  0  0  0  0  0  0  0  0  0  0  0
   -1.9855   -1.3491   -0.8275 C   0  0  0  0  0  0  0  0  0  0  0  0
   -2.9998   -1.3700   -1.2363 H   0  0  0  0  0  0  0  0  0  0  0  0
   -1.4399   -0.5667   -1.3674 H   0  0  0  0  0  0  0  0  0  0  0  0
   -2.0970   -0.8885    0.9569 S   0  0  0  0  0  0  0  0  0  0  0  0
    0.1741   -2.4976   -1.4092 C   0  0  0  0  0  0  0  0  0  0  0  0
    0.5210   -2.2593   -2.5587 O   0  0  0  0  0  0  0  0  0  0  0  0
    1.0738   -2.2858   -0.3804 N   0  0  0  0  0  0  0  0  0  0  0  0
    0.7549   -2.5253    0.5530 H   0  0  0  0  0  0  0  0  0  0  0  0
    2.4926   -2.0404   -0.6040 C   0  0  0  0  0  0  0  0  0  0  0  0
    2.9338   -2.8536   -1.1902 H   0  0  0  0  0  0  0  0  0  0  0  0
    2.6381   -1.0988   -1.1435 H   0  0  0  0  0  0  0  0  0  0  0  0
    3.0209   -1.9766    0.3520 H   0  0  0  0  0  0  0  0  0  0  0  0
  -10.3931   -0.5755    2.1171 H   0  0  0  0  0  0  0  0  0  0  0  0
   -9.6243    0.1616    1.8697 C   0  0  0  0  0  0  0  0  0  0  0  0
   -9.7593    1.0376    2.5086 H   0  0  0  0  0  0  0  0  0  0  0  0
   -9.7437    0.4576    0.8248 H   0  0  0  0  0  0  0  0  0  0  0  0
   -8.2454   -0.4324    2.0855 C   0  0  0  0  0  0  0  0  0  0  0  0
   -8.1281   -1.5914    2.4489 O   0  0  0  0  0  0  0  0  0  0  0  0
   -7.1184    0.3326    1.8722 N   0  0  0  0  0  0  0  0  0  0  0  0
   -7.2541    1.3290    1.6984 H   0  0  0  0  0  0  0  0  0  0  0  0
   -5.7568   -0.0891    2.2369 C   0  0  1  0  0  0  0  0  0  0  0  0
   -5.8022   -0.7191    3.1315 H   0  0  0  0  0  0  0  0  0  0  0  0
   -5.1678   -0.9041    1.0753 C   0  0  0  0  0  0  0  0  0  0  0  0
   -5.9424   -1.5671    0.6765 H   0  0  0  0  0  0  0  0  0  0  0  0
   -4.8537   -0.2379    0.2654 H   0  0  0  0  0  0  0  0  0  0  0  0
   -3.7642   -1.9571    1.6307 S   0  0  0  0  0  0  0  0  0  0  0  0
   -4.8779    1.1344    2.5780 C   0  0  0  0  0  0  0  0  0  0  0  0
   -5.2838    2.2640    2.3224 O   0  0  0  0  0  0  0  0  0  0  0  0
   -3.6544    0.9829    3.2020 N   0  0  0  0  0  0  0  0  0  0  0  0
   -3.2912    0.0352    3.2752 H   0  0  0  0  0  0  0  0  0  0  0  0
   -2.7518    2.0969    3.4646 C   0  0  0  0  0  0  0  0  0  0  0  0
   -2.4413    2.5681    2.5262 H   0  0  0  0  0  0  0  0  0  0  0  0
   -3.2430    2.8492    4.0906 H   0  0  0  0  0  0  0  0  0  0  0  0
   -1.8581    1.7436    3.9885 H   0  0  0  0  0  0  0  0  0  0  0  0
  1  2  1  0  0  0  0
  2  3  1  0  0  0  0
  2  4  1  0  0  0  0
  2  5  1  0  0  0  0
  5  6  2  0  0  0  0
  5  7  1  0  0  0  0
  7  8  1  0  0  0  0
  7  9  1  0  0  0  0
  9 10  1  0  0  0  0
  9 11  1  0  0  0  0
  9 15  1  0  0  0  0
 11 12  1  0  0  0  0
 11 13  1  0  0  0  0
 11 14  1  0  0  0  0
 14 36  1  0  0  0  0
 15 16  2  0  0  0  0
 15 17  1  0  0  0  0
 17 18  1  0  0  0  0
 17 19  1  0  0  0  0
 19 20  1  0  0  0  0
 19 21  1  0  0  0  0
 19 22  1  0  0  0  0
 23 24  1  0  0  0  0
 24 25  1  0  0  0  0
 24 26  1  0  0  0  0
 24 27  1  0  0  0  0
 27 28  2  0  0  0  0
 27 29  1  0  0  0  0
 29 30  1  0  0  0  0
 29 31  1  0  0  0  0
 31 32  1  0  0  0  0
 31 33  1  0  0  0  0
 31 37  1  0  0  0  0
 33 34  1  0  0  0  0
 33 35  1  0  0  0  0
 33 36  1  0  0  0  0
 37 38  2  0  0  0  0
 37 39  1  0  0  0  0
 39 40  1  0  0  0  0
 39 41  1  0  0  0  0
 41 42  1  0  0  0  0
 41 43  1  0  0  0  0
 41 44  1  0  0  0  0
M  END
$$$$

  -OEChem-04042215573D

 44 43  0     1  0  0  0  0  0999 V2000
   -0.6894   -6.8496    1.1130 H   0  0  0  0  0  0  0  0  0  0  0  0
   -1.2107   -5.8968    1.2420 C   0  0  0  0  0  0  0  0  0  0  0  0
   -0.8187   -5.3997    2.1324 H   0  0  0  0  0  0  0  0  0  0  0  0
   -2.2762   -6.0942    1.3819 H   0  0  0  0  0  0  0  0  0  0  0  0
   -1.0020   -5.0208    0.0216 C   0  0  0  0  0  0  0  0  0  0  0  0
   -0.3933   -5.4508   -0.9411 O   0  0  0  0  0  0  0  0  0  0  0  0
   -1.4984   -3.7341    0.0041 N   0  0  0  0  0  0  0  0  0  0  0  0
   -2.0201   -3.4254    0.8211 H   0  0  0  0  0  0  0  0  0  0  0  0
   -1.3722   -2.8020   -1.1307 C   0  0  1  0  0  0  0  0  0  0  0  0
   -1.8288   -3.2698   -2.0103 H   0  0  0  0  0  0  0  0  0  0  0  0
   -2.1286   -1.4944   -0.8342 C   0  0  0  0  0  0  0  0  0  0  0  0
   -3.2020   -1.6670   -0.9546 H   0  0  0  0  0  0  0  0  0  0  0  0
   -1.8376   -0.7367   -1.5705 H   0  0  0  0  0  0  0  0  0  0  0  0
   -1.8225   -0.8393    0.8634 S   0  0  0  0  0  0  0  0  0  0  0  0
    0.0856   -2.4782   -1.5254 C   0  0  0  0  0  0  0  0  0  0  0  0
    0.3559   -2.2464   -2.6965 O   0  0  0  0  0  0  0  0  0  0  0  0
    1.0245   -2.1885   -0.5517 N   0  0  0  0  0  0  0  0  0  0  0  0
    0.7654   -2.3999    0.4066 H   0  0  0  0  0  0  0  0  0  0  0  0
    2.4061   -1.8382   -0.8543 C   0  0  0  0  0  0  0  0  0  0  0  0
    2.8948   -2.6520   -1.4005 H   0  0  0  0  0  0  0  0  0  0  0  0
    2.4476   -0.9295   -1.4641 H   0  0  0  0  0  0  0  0  0  0  0  0
    2.9623   -1.6576    0.0703 H   0  0  0  0  0  0  0  0  0  0  0  0
   -9.7090   -0.7828    3.6020 H   0  0  0  0  0  0  0  0  0  0  0  0
   -9.0001    0.0071    3.3386 C   0  0  0  0  0  0  0  0  0  0  0  0
   -9.0575    0.7972    4.0910 H   0  0  0  0  0  0  0  0  0  0  0  0
   -9.2777    0.4188    2.3656 H   0  0  0  0  0  0  0  0  0  0  0  0
   -7.5916   -0.5528    3.2820 C   0  0  0  0  0  0  0  0  0  0  0  0
   -7.3848   -1.7247    3.5525 O   0  0  0  0  0  0  0  0  0  0  0  0
   -6.5382    0.2621    2.9263 N   0  0  0  0  0  0  0  0  0  0  0  0
   -6.7290    1.2604    2.8337 H   0  0  0  0  0  0  0  0  0  0  0  0
   -5.1226   -0.1268    3.0213 C   0  0  1  0  0  0  0  0  0  0  0  0
   -4.9853   -0.7685    3.8985 H   0  0  0  0  0  0  0  0  0  0  0  0
   -4.7398   -0.9110    1.7569 C   0  0  0  0  0  0  0  0  0  0  0  0
   -5.5467   -1.6073    1.5067 H   0  0  0  0  0  0  0  0  0  0  0  0
   -4.6190   -0.2273    0.9104 H   0  0  0  0  0  0  0  0  0  0  0  0
   -3.2067   -1.8930    2.0223 S   0  0  0  0  0  0  0  0  0  0  0  0
   -4.2257    1.1180    3.2103 C   0  0  0  0  0  0  0  0  0  0  0  0
   -4.7135    2.2387    3.0987 O   0  0  0  0  0  0  0  0  0  0  0  0
   -2.8877    0.9963    3.5350 N   0  0  0  0  0  0  0  0  0  0  0  0
   -2.4876    0.0619    3.4879 H   0  0  0  0  0  0  0  0  0  0  0  0
   -1.9850    2.1374    3.6320 C   0  0  0  0  0  0  0  0  0  0  0  0
   -1.8975    2.6399    2.6629 H   0  0  0  0  0  0  0  0  0  0  0  0
   -2.3531    2.8574    4.3706 H   0  0  0  0  0  0  0  0  0  0  0  0
   -0.9890    1.8070    3.9425 H   0  0  0  0  0  0  0  0  0  0  0  0
  1  2  1  0  0  0  0
  2  3  1  0  0  0  0
  2  4  1  0  0  0  0
  2  5  1  0  0  0  0
  5  6  2  0  0  0  0
  5  7  1  0  0  0  0
  7  8  1  0  0  0  0
  7  9  1  0  0  0  0
  9 10  1  0  0  0  0
  9 11  1  0  0  0  0
  9 15  1  0  0  0  0
 11 12  1  0  0  0  0
 11 13  1  0  0  0  0
 11 14  1  0  0  0  0
 14 36  1  0  0  0  0
 15 16  2  0  0  0  0
 15 17  1  0  0  0  0
 17 18  1  0  0  0  0
 17 19  1  0  0  0  0
 19 20  1  0  0  0  0
 19 21  1  0  0  0  0
 19 22  1  0  0  0  0
 23 24  1  0  0  0  0
 24 25  1  0  0  0  0
 24 26  1  0  0  0  0
 24 27  1  0  0  0  0
 27 28  2  0  0  0  0
 27 29  1  0  0  0  0
 29 30  1  0  0  0  0
 29 31  1  0  0  0  0
 31 32  1  0  0  0  0
 31 33  1  0  0  0  0
 31 37  1  0  0  0  0
 33 34  1  0  0  0  0
 33 35  1  0  0  0  0
 33 36  1  0  0  0  0
 37 38  2  0  0  0  0
 37 39  1  0  0  0  0
 39 40  1  0  0  0  0
 39 41  1  0  0  0  0
 41 42  1  0  0  0  0
 41 43  1  0  0  0  0
 41 44  1  0  0  0  0
M  END
$$$$

  -OEChem-04042215573D

 44 43  0     1  0  0  0  0  0999 V2000
   -1.3098   -6.9109    0.7159 H   0  0  0  0  0  0  0  0  0  0  0  0
   -1.5953   -5.8858    0.9683 C   0  0  0  0  0  0  0  0  0  0  0  0
   -1.0419   -5.5739    1.8570 H   0  0  0  0  0  0  0  0  0  0  0  0
   -2.6659   -5.8624    1.1854 H   0  0  0  0  0  0  0  0  0  0  0  0
   -1.2805   -4.9592   -0.1897 C   0  0  0  0  0  0  0  0  0  0  0  0
   -0.7341   -5.3926   -1.1875 O   0  0  0  0  0  0  0  0  0  0  0  0
   -1.6096   -3.6224   -0.1093 N   0  0  0  0  0  0  0  0  0  0  0  0
   -2.0309   -3.3005    0.7587 H   0  0  0  0  0  0  0  0  0  0  0  0
   -1.3045   -2.6249   -1.1491 C   0  0  1  0  0  0  0  0  0  0  0  0
   -1.7601   -2.9735   -2.0828 H   0  0  0  0  0  0  0  0  0  0  0  0
   -1.9514   -1.2748   -0.7976 C   0  0  0  0  0  0  0  0  0  0  0  0
   -3.0387   -1.3913   -0.7696 H   0  0  0  0  0  0  0  0  0  0  0  0
   -1.7203   -0.5616   -1.5963 H   0  0  0  0  0  0  0  0  0  0  0  0
   -1.3776   -0.5634    0.8052 S   0  0  0  0  0  0  0  0  0  0  0  0
    0.2003   -2.4565   -1.4569 C   0  0  0  0  0  0  0  0  0  0  0  0
    0.5546   -2.1713   -2.5933 O   0  0  0  0  0  0  0  0  0  0  0  0
    1.1216   -2.3707   -0.4281 N   0  0  0  0  0  0  0  0  0  0  0  0
    0.7884   -2.5923    0.5046 H   0  0  0  0  0  0  0  0  0  0  0  0
    2.5436   -2.1334   -0.6387 C   0  0  0  0  0  0  0  0  0  0  0  0
    2.9625   -2.8914   -1.3091 H   0  0  0  0  0  0  0  0  0  0  0  0
    2.7060   -1.1440   -1.0787 H   0  0  0  0  0  0  0  0  0  0  0  0
    3.0801   -2.1805    0.3136 H   0  0  0  0  0  0  0  0  0  0  0  0
   -8.2206   -1.4145    5.5471 H   0  0  0  0  0  0  0  0  0  0  0  0
   -7.8078   -0.5605    5.0027 C   0  0  0  0  0  0  0  0  0  0  0  0
   -7.8008    0.3085    5.6648 H   0  0  0  0  0  0  0  0  0  0  0  0
   -8.4459   -0.3495    4.1417 H   0  0  0  0  0  0  0  0  0  0  0  0
   -6.3978   -0.8697    4.5386 C   0  0  0  0  0  0  0  0  0  0  0  0
   -5.9084   -1.9669    4.7535 O   0  0  0  0  0  0  0  0  0  0  0  0
   -5.6622    0.0882    3.8737 N   0  0  0  0  0  0  0  0  0  0  0  0
   -6.0525    1.0301    3.8329 H   0  0  0  0  0  0  0  0  0  0  0  0
   -4.2251   -0.0357    3.5832 C   0  0  1  0  0  0  0  0  0  0  0  0
   -3.7398   -0.5584    4.4145 H   0  0  0  0  0  0  0  0  0  0  0  0
   -4.0428   -0.8565    2.2963 C   0  0  0  0  0  0  0  0  0  0  0  0
   -4.8022   -1.6443    2.2584 H   0  0  0  0  0  0  0  0  0  0  0  0
   -4.1825   -0.2214    1.4155 H   0  0  0  0  0  0  0  0  0  0  0  0
   -2.3918   -1.6677    2.2604 S   0  0  0  0  0  0  0  0  0  0  0  0
   -3.5633    1.3562    3.4647 C   0  0  0  0  0  0  0  0  0  0  0  0
   -4.2574    2.3655    3.5360 O   0  0  0  0  0  0  0  0  0  0  0  0
   -2.1981    1.4886    3.2952 N   0  0  0  0  0  0  0  0  0  0  0  0
   -1.6754    0.6363    3.1036 H   0  0  0  0  0  0  0  0  0  0  0  0
   -1.5411    2.7714    3.0738 C   0  0  0  0  0  0  0  0  0  0  0  0
   -1.9193    3.2435    2.1610 H   0  0  0  0  0  0  0  0  0  0  0  0
   -1.7174    3.4457    3.9185 H   0  0  0  0  0  0  0  0  0  0  0  0
   -0.4614    2.6292    2.9675 H   0  0  0  0  0  0  0  0  0  0  0  0
  1  2  1  0  0  0  0
  2  3  1  0  0  0  0
  2  4  1  0  0  0  0
  2  5  1  0  0  0  0
  5  6  2  0  0  0  0
  5  7  1  0  0  0  0
  7  8  1  0  0  0  0
  7  9  1  0  0  0  0
  9 10  1  0  0  0  0
  9 11  1  0  0  0  0
  9 15  1  0  0  0  0
 11 12  1  0  0  0  0
 11 13  1  0  0  0  0
 11 14  1  0  0  0  0
 14 36  1  0  0  0  0
 15 16  2  0  0  0  0
 15 17  1  0  0  0  0
 17 18  1  0  0  0  0
 17 19  1  0  0  0  0
 19 20  1  0  0  0  0
 19 21  1  0  0  0  0
 19 22  1  0  0  0  0
 23 24  1  0  0  0  0
 24 25  1  0  0  0  0
 24 26  1  0  0  0  0
 24 27  1  0  0  0  0
 27 28  2  0  0  0  0
 27 29  1  0  0  0  0
 29 30  1  0  0  0  0
 29 31  1  0  0  0  0
 31 32  1  0  0  0  0
 31 33  1  0  0  0  0
 31 37  1  0  0  0  0
 33 34  1  0  0  0  0
 33 35  1  0  0  0  0
 33 36  1  0  0  0  0
 37 38  2  0  0  0  0
 37 39  1  0  0  0  0
 39 40  1  0  0  0  0
 39 41  1  0  0  0  0
 41 42  1  0  0  0  0
 41 43  1  0  0  0  0
 41 44  1  0  0  0  0
M  END
$$$$

  -OEChem-04042215573D

 44 43  0     1  0  0  0  0  0999 V2000
   -1.5677   -6.7943    0.8172 H   0  0  0  0  0  0  0  0  0  0  0  0
   -1.7636   -5.7428    1.0466 C   0  0  0  0  0  0  0  0  0  0  0  0
   -1.1342   -5.4428    1.8880 H   0  0  0  0  0  0  0  0  0  0  0  0
   -2.8142   -5.6345    1.3273 H   0  0  0  0  0  0  0  0  0  0  0  0
   -1.4566   -4.8817   -0.1636 C   0  0  0  0  0  0  0  0  0  0  0  0
   -0.9630   -5.3815   -1.1581 O   0  0  0  0  0  0  0  0  0  0  0  0
   -1.7333   -3.5304   -0.1360 N   0  0  0  0  0  0  0  0  0  0  0  0
   -2.0612   -3.1482    0.7472 H   0  0  0  0  0  0  0  0  0  0  0  0
   -1.3381   -2.5881   -1.1975 C   0  0  1  0  0  0  0  0  0  0  0  0
   -1.7631   -2.9708   -2.1325 H   0  0  0  0  0  0  0  0  0  0  0  0
   -1.9793   -1.2115   -0.9485 C   0  0  0  0  0  0  0  0  0  0  0  0
   -3.0456   -1.3390   -0.7396 H   0  0  0  0  0  0  0  0  0  0  0  0
   -1.8948   -0.6259   -1.8703 H   0  0  0  0  0  0  0  0  0  0  0  0
   -1.1996   -0.2362    0.4099 S   0  0  0  0  0  0  0  0  0  0  0  0
    0.1835   -2.4909   -1.4509 C   0  0  0  0  0  0  0  0  0  0  0  0
    0.5930   -2.2702   -2.5830 O   0  0  0  0  0  0  0  0  0  0  0  0
    1.0691   -2.4019   -0.3908 N   0  0  0  0  0  0  0  0  0  0  0  0
    0.6757   -2.4584    0.5433 H   0  0  0  0  0  0  0  0  0  0  0  0
    2.4917   -2.1310   -0.5498 C   0  0  0  0  0  0  0  0  0  0  0  0
    2.9426   -2.8444   -1.2480 H   0  0  0  0  0  0  0  0  0  0  0  0
    2.6463   -1.1170   -0.9327 H   0  0  0  0  0  0  0  0  0  0  0  0
    3.0043   -2.2221    0.4127 H   0  0  0  0  0  0  0  0  0  0  0  0
   -6.4459   -1.5866    6.7696 H   0  0  0  0  0  0  0  0  0  0  0  0
   -6.2832   -0.7277    6.1124 C   0  0  0  0  0  0  0  0  0  0  0  0
   -6.2176    0.1753    6.7243 H   0  0  0  0  0  0  0  0  0  0  0  0
   -7.1330   -0.6378    5.4313 H   0  0  0  0  0  0  0  0  0  0  0  0
   -5.0021   -0.9139    5.3221 C   0  0  0  0  0  0  0  0  0  0  0  0
   -4.3713   -1.9551    5.4124 O   0  0  0  0  0  0  0  0  0  0  0  0
   -4.5430    0.0911    4.4977 N   0  0  0  0  0  0  0  0  0  0  0  0
   -5.0237    0.9906    4.5449 H   0  0  0  0  0  0  0  0  0  0  0  0
   -3.2132    0.0941    3.8683 C   0  0  1  0  0  0  0  0  0  0  0  0
   -2.4887   -0.3365    4.5683 H   0  0  0  0  0  0  0  0  0  0  0  0
   -3.2580   -0.7669    2.5961 C   0  0  0  0  0  0  0  0  0  0  0  0
   -3.8803   -1.6493    2.7758 H   0  0  0  0  0  0  0  0  0  0  0  0
   -3.7118   -0.2044    1.7737 H   0  0  0  0  0  0  0  0  0  0  0  0
   -1.5720   -1.3439    2.1408 S   0  0  0  0  0  0  0  0  0  0  0  0
   -2.7558    1.5379    3.5590 C   0  0  0  0  0  0  0  0  0  0  0  0
   -3.5256    2.4726    3.7588 O   0  0  0  0  0  0  0  0  0  0  0  0
   -1.4860    1.8005    3.0811 N   0  0  0  0  0  0  0  0  0  0  0  0
   -0.9255    0.9980    2.8018 H   0  0  0  0  0  0  0  0  0  0  0  0
   -1.0426    3.1306    2.6823 C   0  0  0  0  0  0  0  0  0  0  0  0
   -1.6449    3.5011    1.8463 H   0  0  0  0  0  0  0  0  0  0  0  0
   -1.1304    3.8321    3.5186 H   0  0  0  0  0  0  0  0  0  0  0  0
    0.0051    3.1009    2.3678 H   0  0  0  0  0  0  0  0  0  0  0  0
  1  2  1  0  0  0  0
  2  3  1  0  0  0  0
  2  4  1  0  0  0  0
  2  5  1  0  0  0  0
  5  6  2  0  0  0  0
  5  7  1  0  0  0  0
  7  8  1  0  0  0  0
  7  9  1  0  0  0  0
  9 10  1  0  0  0  0
  9 11  1  0  0  0  0
  9 15  1  0  0  0  0
 11 12  1  0  0  0  0
 11 13  1  0  0  0  0
 11 14  1  0  0  0  0
 14 36  1  0  0  0  0
 15 16  2  0  0  0  0
 15 17  1  0  0  0  0
 17 18  1  0  0  0  0
 17 19  1  0  0  0  0
 19 20  1  0  0  0  0
 19 21  1  0  0  0  0
 19 22  1  0  0  0  0
 23 24  1  0  0  0  0
 24 25  1  0  0  0  0
 24 26  1  0  0  0  0
 24 27  1  0  0  0  0
 27 28  2  0  0  0  0
 27 29  1  0  0  0  0
 29 30  1  0  0  0  0
 29 31  1  0  0  0  0
 31 32  1  0  0  0  0
 31 33  1  0  0  0  0
 31 37  1  0  0  0  0
 33 34  1  0  0  0  0
 33 35  1  0  0  0  0
 33 36  1  0  0  0  0
 37 38  2  0  0  0  0
 37 39  1  0  0  0  0
 39 40  1  0  0  0  0
 39 41  1  0  0  0  0
 41 42  1  0  0  0  0
 41 43  1  0  0  0  0
 41 44  1  0  0  0  0
M  END
$$$$

  -OEChem-04042215573D

 44 43  0     1  0  0  0  0  0999 V2000
   -1.3962   -6.8118    0.7945 H   0  0  0  0  0  0  0  0  0  0  0  0
   -1.6449   -5.7741    1.0346 C   0  0  0  0  0  0  0  0  0  0  0  0
   -1.0085   -5.4419    1.8583 H   0  0  0  0  0  0  0  0  0  0  0  0
   -2.6906   -5.7266    1.3482 H   0  0  0  0  0  0  0  0  0  0  0  0
   -1.4270   -4.8918   -0.1798 C   0  0  0  0  0  0  0  0  0  0  0  0
   -0.9999   -5.3706   -1.2145 O   0  0  0  0  0  0  0  0  0  0  0  0
   -1.7141   -3.5442   -0.1089 N   0  0  0  0  0  0  0  0  0  0  0  0
   -1.9556   -3.1815    0.8091 H   0  0  0  0  0  0  0  0  0  0  0  0
   -1.3714   -2.5768   -1.1671 C   0  0  1  0  0  0  0  0  0  0  0  0
   -1.8246   -2.9643   -2.0871 H   0  0  0  0  0  0  0  0  0  0  0  0
   -2.0747   -1.2375   -0.8776 C   0  0  0  0  0  0  0  0  0  0  0  0
   -3.0508   -1.4163   -0.4168 H   0  0  0  0  0  0  0  0  0  0  0  0
   -2.2544   -0.7402   -1.8365 H   0  0  0  0  0  0  0  0  0  0  0  0
   -1.0938   -0.0775    0.1629 S   0  0  0  0  0  0  0  0  0  0  0  0
    0.1336   -2.4452   -1.4997 C   0  0  0  0  0  0  0  0  0  0  0  0
    0.4781   -2.2181   -2.6521 O   0  0  0  0  0  0  0  0  0  0  0  0
    1.0793   -2.3610   -0.4924 N   0  0  0  0  0  0  0  0  0  0  0  0
    0.7393   -2.4112    0.4628 H   0  0  0  0  0  0  0  0  0  0  0  0
    2.4821   -2.0489   -0.7321 C   0  0  0  0  0  0  0  0  0  0  0  0
    2.9313   -2.7958   -1.3951 H   0  0  0  0  0  0  0  0  0  0  0  0
    2.5817   -1.0613   -1.1946 H   0  0  0  0  0  0  0  0  0  0  0  0
    3.0357   -2.0466    0.2117 H   0  0  0  0  0  0  0  0  0  0  0  0
   -4.7586   -1.2830    7.5695 H   0  0  0  0  0  0  0  0  0  0  0  0
   -4.7436   -0.4364    6.8773 C   0  0  0  0  0  0  0  0  0  0  0  0
   -4.5488    0.4773    7.4443 H   0  0  0  0  0  0  0  0  0  0  0  0
   -5.7207   -0.3573    6.3947 H   0  0  0  0  0  0  0  0  0  0  0  0
   -3.6648   -0.6360    5.8306 C   0  0  0  0  0  0  0  0  0  0  0  0
   -2.9917   -1.6542    5.8276 O   0  0  0  0  0  0  0  0  0  0  0  0
   -3.4413    0.3332    4.8761 N   0  0  0  0  0  0  0  0  0  0  0  0
   -3.9348    1.2199    4.9875 H   0  0  0  0  0  0  0  0  0  0  0  0
   -2.2829    0.3451    3.9692 C   0  0  1  0  0  0  0  0  0  0  0  0
   -1.4036   -0.0196    4.5111 H   0  0  0  0  0  0  0  0  0  0  0  0
   -2.5650   -0.5877    2.7806 C   0  0  0  0  0  0  0  0  0  0  0  0
   -3.0797   -1.4858    3.1365 H   0  0  0  0  0  0  0  0  0  0  0  0
   -3.2237   -0.0933    2.0591 H   0  0  0  0  0  0  0  0  0  0  0  0
   -0.9954   -1.1109    1.9760 S   0  0  0  0  0  0  0  0  0  0  0  0
   -1.9712    1.7846    3.4978 C   0  0  0  0  0  0  0  0  0  0  0  0
   -2.7200    2.7017    3.8213 O   0  0  0  0  0  0  0  0  0  0  0  0
   -0.8531    2.0655    2.7357 N   0  0  0  0  0  0  0  0  0  0  0  0
   -0.3354    1.2683    2.3710 H   0  0  0  0  0  0  0  0  0  0  0  0
   -0.5829    3.3835    2.1745 C   0  0  0  0  0  0  0  0  0  0  0  0
   -1.3820    3.6773    1.4863 H   0  0  0  0  0  0  0  0  0  0  0  0
   -0.5083    4.1327    2.9696 H   0  0  0  0  0  0  0  0  0  0  0  0
    0.3618    3.3722    1.6230 H   0  0  0  0  0  0  0  0  0  0  0  0
  1  2  1  0  0  0  0
  2  3  1  0  0  0  0
  2  4  1  0  0  0  0
  2  5  1  0  0  0  0
  5  6  2  0  0  0  0
  5  7  1  0  0  0  0
  7  8  1  0  0  0  0
  7  9  1  0  0  0  0
  9 10  1  0  0  0  0
  9 11  1  0  0  0  0
  9 15  1  0  0  0  0
 11 12  1  0  0  0  0
 11 13  1  0  0  0  0
 11 14  1  0  0  0  0
 14 36  1  0  0  0  0
 15 16  2  0  0  0  0
 15 17  1  0  0  0  0
 17 18  1  0  0  0  0
 17 19  1  0  0  0  0
 19 20  1  0  0  0  0
 19 21  1  0  0  0  0
 19 22  1  0  0  0  0
 23 24  1  0  0  0  0
 24 25  1  0  0  0  0
 24 26  1  0  0  0  0
 24 27  1  0  0  0  0
 27 28  2  0  0  0  0
 27 29  1  0  0  0  0
 29 30  1  0  0  0  0
 29 31  1  0  0  0  0
 31 32  1  0  0  0  0
 31 33  1  0  0  0  0
 31 37  1  0  0  0  0
 33 34  1  0  0  0  0
 33 35  1  0  0  0  0
 33 36  1  0  0  0  0
 37 38  2  0  0  0  0
 37 39  1  0  0  0  0
 39 40  1  0  0  0  0
 39 41  1  0  0  0  0
 41 42  1  0  0  0  0
 41 43  1  0  0  0  0
 41 44  1  0  0  0  0
M  END
$$$$

  -OEChem-04042215573D

 44 43  0     1  0  0  0  0  0999 V2000
   -1.1264   -6.9568    0.5373 H   0  0  0  0  0  0  0  0  0  0  0  0
   -1.4586   -5.9639    0.8539 C   0  0  0  0  0  0  0  0  0  0  0  0
   -0.8372   -5.6357    1.6905 H   0  0  0  0  0  0  0  0  0  0  0  0
   -2.4985   -6.0293    1.1830 H   0  0  0  0  0  0  0  0  0  0  0  0
   -1.3417   -4.9846   -0.2984 C   0  0  0  0  0  0  0  0  0  0  0  0
   -0.9896   -5.3739   -1.3967 O   0  0  0  0  0  0  0  0  0  0  0  0
   -1.6493   -3.6536   -0.1028 N   0  0  0  0  0  0  0  0  0  0  0  0
   -1.8421   -3.3669    0.8523 H   0  0  0  0  0  0  0  0  0  0  0  0
   -1.4444   -2.6065   -1.1210 C   0  0  1  0  0  0  0  0  0  0  0  0
   -1.9738   -2.9580   -2.0144 H   0  0  0  0  0  0  0  0  0  0  0  0
   -2.1794   -1.3241   -0.6757 C   0  0  0  0  0  0  0  0  0  0  0  0
   -2.9516   -1.5577    0.0634 H   0  0  0  0  0  0  0  0  0  0  0  0
   -2.6901   -0.9155   -1.5538 H   0  0  0  0  0  0  0  0  0  0  0  0
   -1.0785    0.0013   -0.0313 S   0  0  0  0  0  0  0  0  0  0  0  0
    0.0125   -2.4045   -1.6047 C   0  0  0  0  0  0  0  0  0  0  0  0
    0.2231   -2.1021   -2.7722 O   0  0  0  0  0  0  0  0  0  0  0  0
    1.0635   -2.3584   -0.7049 N   0  0  0  0  0  0  0  0  0  0  0  0
    0.8293   -2.4569    0.2778 H   0  0  0  0  0  0  0  0  0  0  0  0
    2.4165   -1.9627   -1.0736 C   0  0  0  0  0  0  0  0  0  0  0  0
    2.8238   -2.6465   -1.8258 H   0  0  0  0  0  0  0  0  0  0  0  0
    2.4206   -0.9465   -1.4817 H   0  0  0  0  0  0  0  0  0  0  0  0
    3.0693   -1.9860   -0.1959 H   0  0  0  0  0  0  0  0  0  0  0  0
   -3.0721   -0.6205    8.0456 H   0  0  0  0  0  0  0  0  0  0  0  0
   -3.1928    0.1806    7.3113 C   0  0  0  0  0  0  0  0  0  0  0  0
   -2.8878    1.1255    7.7675 H   0  0  0  0  0  0  0  0  0  0  0  0
   -4.2458    0.2428    7.0273 H   0  0  0  0  0  0  0  0  0  0  0  0
   -2.3419   -0.1001    6.0881 C   0  0  0  0  0  0  0  0  0  0  0  0
   -1.6564   -1.1088    6.0342 O   0  0  0  0  0  0  0  0  0  0  0  0
   -2.3397    0.7853    5.0314 N   0  0  0  0  0  0  0  0  0  0  0  0
   -2.8274    1.6722    5.1644 H   0  0  0  0  0  0  0  0  0  0  0  0
   -1.3900    0.7289    3.9088 C   0  0  1  0  0  0  0  0  0  0  0  0
   -0.4100    0.4174    4.2868 H   0  0  0  0  0  0  0  0  0  0  0  0
   -1.8868   -0.3044    2.8862 C   0  0  0  0  0  0  0  0  0  0  0  0
   -2.2699   -1.1830    3.4145 H   0  0  0  0  0  0  0  0  0  0  0  0
   -2.7094    0.1128    2.2969 H   0  0  0  0  0  0  0  0  0  0  0  0
   -0.5149   -0.8514    1.7913 S   0  0  0  0  0  0  0  0  0  0  0  0
   -1.2174    2.1260    3.2672 C   0  0  0  0  0  0  0  0  0  0  0  0
   -1.9097    3.0605    3.6596 O   0  0  0  0  0  0  0  0  0  0  0  0
   -0.2831    2.3506    2.2736 N   0  0  0  0  0  0  0  0  0  0  0  0
    0.1622    1.5276    1.8720 H   0  0  0  0  0  0  0  0  0  0  0  0
   -0.1673    3.6163    1.5596 C   0  0  0  0  0  0  0  0  0  0  0  0
   -1.0768    3.8148    0.9830 H   0  0  0  0  0  0  0  0  0  0  0  0
   -0.0072    4.4420    2.2607 H   0  0  0  0  0  0  0  0  0  0  0  0
    0.6814    3.5834    0.8696 H   0  0  0  0  0  0  0  0  0  0  0  0
  1  2  1  0  0  0  0
  2  3  1  0  0  0  0
  2  4  1  0  0  0  0
  2  5  1  0  0  0  0
  5  6  2  0  0  0  0
  5  7  1  0  0  0  0
  7  8  1  0  0  0  0
  7  9  1  0  0  0  0
  9 10  1  0  0  0  0
  9 11  1  0  0  0  0
  9 15  1  0  0  0  0
 11 12  1  0  0  0  0
 11 13  1  0  0  0  0
 11 14  1  0  0  0  0
 14 36  1  0  0  0  0
 15 16  2  0  0  0  0
 15 17  1  0  0  0  0
 17 18  1  0  0  0  0
 17 19  1  0  0  0  0
 19 20  1  0  0  0  0
 19 21  1  0  0  0  0
 19 22  1  0  0  0  0
 23 24  1  0  0  0  0
 24 25  1  0  0  0  0
 24 26  1  0  0  0  0
 24 27  1  0  0  0  0
 27 28  2  0  0  0  0
 27 29  1  0  0  0  0
 29 30  1  0  0  0  0
 29 31  1  0  0  0  0
 31 32  1  0  0  0  0
 31 33  1  0  0  0  0
 31 37  1  0  0  0  0
 33 34  1  0  0  0  0
 33 35  1  0  0  0  0
 33 36  1  0  0  0  0
 37 38  2  0  0  0  0
 37 39  1  0  0  0  0
 39 40  1  0  0  0  0
 39 41  1  0  0  0  0
 41 42  1  0  0  0  0
 41 43  1  0  0  0  0
 41 44  1  0  0  0  0
M  END
$$$$

  -OEChem-04042215573D

 44 43  0     1  0  0  0  0  0999 V2000
   -1.2605   -7.1431   -0.0578 H   0  0  0  0  0  0  0  0  0  0  0  0
   -1.4460   -6.1804    0.4272 C   0  0  0  0  0  0  0  0  0  0  0  0
   -0.6821   -6.0193    1.1915 H   0  0  0  0  0  0  0  0  0  0  0  0
   -2.4294   -6.2106    0.9021 H   0  0  0  0  0  0  0  0  0  0  0  0
   -1.3996   -5.0642   -0.5985 C   0  0  0  0  0  0  0  0  0  0  0  0
   -1.1528   -5.3187   -1.7626 O   0  0  0  0  0  0  0  0  0  0  0  0
   -1.6513   -3.7629   -0.2121 N   0  0  0  0  0  0  0  0  0  0  0  0
   -1.7889   -3.5997    0.7803 H   0  0  0  0  0  0  0  0  0  0  0  0
   -1.5131   -2.5984   -1.1087 C   0  0  1  0  0  0  0  0  0  0  0  0
   -2.1308   -2.8127   -1.9890 H   0  0  0  0  0  0  0  0  0  0  0  0
   -2.1526   -1.3649   -0.4281 C   0  0  0  0  0  0  0  0  0  0  0  0
   -2.6309   -1.6464    0.5144 H   0  0  0  0  0  0  0  0  0  0  0  0
   -2.9443   -0.9992   -1.0897 H   0  0  0  0  0  0  0  0  0  0  0  0
   -1.0093    0.0449   -0.1268 S   0  0  0  0  0  0  0  0  0  0  0  0
   -0.0916   -2.3844   -1.6854 C   0  0  0  0  0  0  0  0  0  0  0  0
    0.0445   -1.9853   -2.8349 O   0  0  0  0  0  0  0  0  0  0  0  0
    1.0255   -2.4823   -0.8737 N   0  0  0  0  0  0  0  0  0  0  0  0
    0.8640   -2.6655    0.1110 H   0  0  0  0  0  0  0  0  0  0  0  0
    2.3688   -2.1350   -1.3168 C   0  0  0  0  0  0  0  0  0  0  0  0
    2.6540   -2.7405   -2.1837 H   0  0  0  0  0  0  0  0  0  0  0  0
    2.4196   -1.0766   -1.5935 H   0  0  0  0  0  0  0  0  0  0  0  0
    3.0903   -2.3197   -0.5152 H   0  0  0  0  0  0  0  0  0  0  0  0
   -1.0904    0.4484    8.2333 H   0  0  0  0  0  0  0  0  0  0  0  0
   -1.4730    1.0998    7.4425 C   0  0  0  0  0  0  0  0  0  0  0  0
   -1.1734    2.1282    7.6588 H   0  0  0  0  0  0  0  0  0  0  0  0
   -2.5637    1.0393    7.4324 H   0  0  0  0  0  0  0  0  0  0  0  0
   -0.9166    0.6714    6.0982 C   0  0  0  0  0  0  0  0  0  0  0  0
   -0.1739   -0.2938    6.0208 O   0  0  0  0  0  0  0  0  0  0  0  0
   -1.2393    1.3798    4.9608 N   0  0  0  0  0  0  0  0  0  0  0  0
   -1.7577    2.2501    5.0873 H   0  0  0  0  0  0  0  0  0  0  0  0
   -0.5628    1.2142    3.6644 C   0  0  1  0  0  0  0  0  0  0  0  0
    0.5005    1.0163    3.8380 H   0  0  0  0  0  0  0  0  0  0  0  0
   -1.1828    0.0179    2.9248 C   0  0  0  0  0  0  0  0  0  0  0  0
   -1.3548   -0.7963    3.6359 H   0  0  0  0  0  0  0  0  0  0  0  0
   -2.1518    0.2962    2.4982 H   0  0  0  0  0  0  0  0  0  0  0  0
   -0.0527   -0.6046    1.6143 S   0  0  0  0  0  0  0  0  0  0  0  0
   -0.6615    2.5148    2.8334 C   0  0  0  0  0  0  0  0  0  0  0  0
   -1.3378    3.4493    3.2536 O   0  0  0  0  0  0  0  0  0  0  0  0
    0.0188    2.6618    1.6396 N   0  0  0  0  0  0  0  0  0  0  0  0
    0.4446    1.8227    1.2497 H   0  0  0  0  0  0  0  0  0  0  0  0
   -0.1389    3.8239    0.7736 C   0  0  0  0  0  0  0  0  0  0  0  0
   -1.1714    3.8976    0.4162 H   0  0  0  0  0  0  0  0  0  0  0  0
    0.1141    4.7429    1.3128 H   0  0  0  0  0  0  0  0  0  0  0  0
    0.5235    3.7416   -0.0934 H   0  0  0  0  0  0  0  0  0  0  0  0
  1  2  1  0  0  0  0
  2  3  1  0  0  0  0
  2  4  1  0  0  0  0
  2  5  1  0  0  0  0
  5  6  2  0  0  0  0
  5  7  1  0  0  0  0
  7  8  1  0  0  0  0
  7  9  1  0  0  0  0
  9 10  1  0  0  0  0
  9 11  1  0  0  0  0
  9 15  1  0  0  0  0
 11 12  1  0  0  0  0
 11 13  1  0  0  0  0
 11 14  1  0  0  0  0
 14 36  1  0  0  0  0
 15 16  2  0  0  0  0
 15 17  1  0  0  0  0
 17 18  1  0  0  0  0
 17 19  1  0  0  0  0
 19 20  1  0  0  0  0
 19 21  1  0  0  0  0
 19 22  1  0  0  0  0
 23 24  1  0  0  0  0
 24 25  1  0  0  0  0
 24 26  1  0  0  0  0
 24 27  1  0  0  0  0
 27 28  2  0  0  0  0
 27 29  1  0  0  0  0
 29 30  1  0  0  0  0
 29 31  1  0  0  0  0
 31 32  1  0  0  0  0
 31 33  1  0  0  0  0
 31 37  1  0  0  0  0
 33 34  1  0  0  0  0
 33 35  1  0  0  0  0
 33 36  1  0  0  0  0
 37 38  2  0  0  0  0
 37 39  1  0  0  0  0
 39 40  1  0  0  0  0
 39 41  1  0  0  0  0
 41 42  1  0  0  0  0
 41 43  1  0  0  0  0
 41 44  1  0  0  0  0
M  END
$$$$

  -OEChem-04042215573D

 44 43  0     1  0  0  0  0  0999 V2000
   -1.3414   -7.2431   -0.3169 H   0  0  0  0  0  0  0  0  0  0  0  0
   -1.5028   -6.3212    0.2496 C   0  0  0  0  0  0  0  0  0  0  0  0
   -0.6987   -6.2134    0.9815 H   0  0  0  0  0  0  0  0  0  0  0  0
   -2.4589   -6.3946    0.7735 H   0  0  0  0  0  0  0  0  0  0  0  0
   -1.5172   -5.1301   -0.6895 C   0  0  0  0  0  0  0  0  0  0  0  0
   -1.4047   -5.3024   -1.8888 O   0  0  0  0  0  0  0  0  0  0  0  0
   -1.6864   -3.8563   -0.1835 N   0  0  0  0  0  0  0  0  0  0  0  0
   -1.7456   -3.7694    0.8258 H   0  0  0  0  0  0  0  0  0  0  0  0
   -1.6489   -2.6298   -1.0059 C   0  0  1  0  0  0  0  0  0  0  0  0
   -2.3904   -2.7432   -1.8056 H   0  0  0  0  0  0  0  0  0  0  0  0
   -2.1102   -1.4399   -0.1286 C   0  0  0  0  0  0  0  0  0  0  0  0
   -2.1413   -1.7323    0.9248 H   0  0  0  0  0  0  0  0  0  0  0  0
   -3.1337   -1.1845   -0.4206 H   0  0  0  0  0  0  0  0  0  0  0  0
   -1.0835    0.0826   -0.2636 S   0  0  0  0  0  0  0  0  0  0  0  0
   -0.3035   -2.4160   -1.7443 C   0  0  0  0  0  0  0  0  0  0  0  0
   -0.2954   -1.9550   -2.8787 O   0  0  0  0  0  0  0  0  0  0  0  0
    0.9005   -2.6005   -1.0859 N   0  0  0  0  0  0  0  0  0  0  0  0
    0.8569   -2.8623   -0.1072 H   0  0  0  0  0  0  0  0  0  0  0  0
    2.1904   -2.2586   -1.6698 C   0  0  0  0  0  0  0  0  0  0  0  0
    2.3440   -2.8062   -2.6056 H   0  0  0  0  0  0  0  0  0  0  0  0
    2.2437   -1.1845   -1.8757 H   0  0  0  0  0  0  0  0  0  0  0  0
    2.9988   -2.5204   -0.9808 H   0  0  0  0  0  0  0  0  0  0  0  0
    0.6007    1.4548    7.7901 H   0  0  0  0  0  0  0  0  0  0  0  0
    0.0408    2.0056    7.0292 C   0  0  0  0  0  0  0  0  0  0  0  0
    0.3071    3.0634    7.0923 H   0  0  0  0  0  0  0  0  0  0  0  0
   -1.0279    1.8929    7.2262 H   0  0  0  0  0  0  0  0  0  0  0  0
    0.3720    1.4705    5.6501 C   0  0  0  0  0  0  0  0  0  0  0  0
    1.1558    0.5437    5.5238 O   0  0  0  0  0  0  0  0  0  0  0  0
   -0.2144    2.0290    4.5350 N   0  0  0  0  0  0  0  0  0  0  0  0
   -0.7650    2.8776    4.6718 H   0  0  0  0  0  0  0  0  0  0  0  0
    0.1913    1.7340    3.1519 C   0  0  1  0  0  0  0  0  0  0  0  0
    1.2779    1.5980    3.1185 H   0  0  0  0  0  0  0  0  0  0  0  0
   -0.4948    0.4355    2.7001 C   0  0  0  0  0  0  0  0  0  0  0  0
   -0.4395   -0.3029    3.5060 H   0  0  0  0  0  0  0  0  0  0  0  0
   -1.5530    0.6219    2.4920 H   0  0  0  0  0  0  0  0  0  0  0  0
    0.3399   -0.2727    1.2230 S   0  0  0  0  0  0  0  0  0  0  0  0
   -0.1578    2.9167    2.2185 C   0  0  0  0  0  0  0  0  0  0  0  0
   -0.8085    3.8607    2.6576 O   0  0  0  0  0  0  0  0  0  0  0  0
    0.2762    2.9503    0.9069 N   0  0  0  0  0  0  0  0  0  0  0  0
    0.6796    2.0912    0.5376 H   0  0  0  0  0  0  0  0  0  0  0  0
   -0.1225    3.9867   -0.0371 C   0  0  0  0  0  0  0  0  0  0  0  0
   -1.2038    3.9548   -0.2076 H   0  0  0  0  0  0  0  0  0  0  0  0
    0.1458    4.9778    0.3435 H   0  0  0  0  0  0  0  0  0  0  0  0
    0.3847    3.8386   -0.9954 H   0  0  0  0  0  0  0  0  0  0  0  0
  1  2  1  0  0  0  0
  2  3  1  0  0  0  0
  2  4  1  0  0  0  0
  2  5  1  0  0  0  0
  5  6  2  0  0  0  0
  5  7  1  0  0  0  0
  7  8  1  0  0  0  0
  7  9  1  0  0  0  0
  9 10  1  0  0  0  0
  9 11  1  0  0  0  0
  9 15  1  0  0  0  0
 11 12  1  0  0  0  0
 11 13  1  0  0  0  0
 11 14  1  0  0  0  0
 14 36  1  0  0  0  0
 15 16  2  0  0  0  0
 15 17  1  0  0  0  0
 17 18  1  0  0  0  0
 17 19  1  0  0  0  0
 19 20  1  0  0  0  0
 19 21  1  0  0  0  0
 19 22  1  0  0  0  0
 23 24  1  0  0  0  0
 24 25  1  0  0  0  0
 24 26  1  0  0  0  0
 24 27  1  0  0  0  0
 27 28  2  0  0  0  0
 27 29  1  0  0  0  0
 29 30  1  0  0  0  0
 29 31  1  0  0  0  0
 31 32  1  0  0  0  0
 31 33  1  0  0  0  0
 31 37  1  0  0  0  0
 33 34  1  0  0  0  0
 33 35  1  0  0  0  0
 33 36  1  0  0  0  0
 37 38  2  0  0  0  0
 37 39  1  0  0  0  0
 39 40  1  0  0  0  0
 39 41  1  0  0  0  0
 41 42  1  0  0  0  0
 41 43  1  0  0  0  0
 41 44  1  0  0  0  0
M  END
$$$$

  -OEChem-04042215573D

 44 43  0     1  0  0  0  0  0999 V2000
   -1.7216   -7.2374   -0.3369 H   0  0  0  0  0  0  0  0  0  0  0  0
   -1.7998   -6.3128    0.2421 C   0  0  0  0  0  0  0  0  0  0  0  0
   -0.9909   -6.2884    0.9756 H   0  0  0  0  0  0  0  0  0  0  0  0
   -2.7596   -6.3049    0.7641 H   0  0  0  0  0  0  0  0  0  0  0  0
   -1.7008   -5.1129   -0.6794 C   0  0  0  0  0  0  0  0  0  0  0  0
   -1.5895   -5.2775   -1.8795 O   0  0  0  0  0  0  0  0  0  0  0  0
   -1.7579   -3.8378   -0.1527 N   0  0  0  0  0  0  0  0  0  0  0  0
   -1.9029   -3.7630    0.8487 H   0  0  0  0  0  0  0  0  0  0  0  0
   -1.6817   -2.6019   -0.9584 C   0  0  1  0  0  0  0  0  0  0  0  0
   -2.4793   -2.6196   -1.7097 H   0  0  0  0  0  0  0  0  0  0  0  0
   -1.9501   -1.4140   -0.0061 C   0  0  0  0  0  0  0  0  0  0  0  0
   -1.6265   -1.6690    1.0068 H   0  0  0  0  0  0  0  0  0  0  0  0
   -3.0298   -1.2389    0.0280 H   0  0  0  0  0  0  0  0  0  0  0  0
   -1.1146    0.1585   -0.4729 S   0  0  0  0  0  0  0  0  0  0  0  0
   -0.3599   -2.4784   -1.7587 C   0  0  0  0  0  0  0  0  0  0  0  0
   -0.3697   -2.0233   -2.8958 O   0  0  0  0  0  0  0  0  0  0  0  0
    0.8553   -2.7608   -1.1580 N   0  0  0  0  0  0  0  0  0  0  0  0
    0.8359   -3.0811   -0.1964 H   0  0  0  0  0  0  0  0  0  0  0  0
    2.1399   -2.5617   -1.8161 C   0  0  0  0  0  0  0  0  0  0  0  0
    2.2079   -3.1826   -2.7155 H   0  0  0  0  0  0  0  0  0  0  0  0
    2.2656   -1.5117   -2.1007 H   0  0  0  0  0  0  0  0  0  0  0  0
    2.9573   -2.8368   -1.1430 H   0  0  0  0  0  0  0  0  0  0  0  0
    2.3264    2.5302    6.7699 H   0  0  0  0  0  0  0  0  0  0  0  0
    1.5289    2.9296    6.1375 C   0  0  0  0  0  0  0  0  0  0  0  0
    1.6687    4.0082    6.0336 H   0  0  0  0  0  0  0  0  0  0  0  0
    0.5672    2.7378    6.6189 H   0  0  0  0  0  0  0  0  0  0  0  0
    1.5663    2.2700    4.7728 C   0  0  0  0  0  0  0  0  0  0  0  0
    2.4123    1.4267    4.5230 O   0  0  0  0  0  0  0  0  0  0  0  0
    0.6451    2.6233    3.8104 N   0  0  0  0  0  0  0  0  0  0  0  0
    0.0393    3.4192    4.0141 H   0  0  0  0  0  0  0  0  0  0  0  0
    0.7316    2.2202    2.3976 C   0  0  1  0  0  0  0  0  0  0  0  0
    1.7846    2.1872    2.0973 H   0  0  0  0  0  0  0  0  0  0  0  0
    0.1206    0.8194    2.2417 C   0  0  0  0  0  0  0  0  0  0  0  0
    0.4712    0.1813    3.0589 H   0  0  0  0  0  0  0  0  0  0  0  0
   -0.9707    0.8732    2.3048 H   0  0  0  0  0  0  0  0  0  0  0  0
    0.6397    0.0463    0.6563 S   0  0  0  0  0  0  0  0  0  0  0  0
    0.0239    3.2557    1.4929 C   0  0  0  0  0  0  0  0  0  0  0  0
   -0.6298    4.1591    2.0071 O   0  0  0  0  0  0  0  0  0  0  0  0
    0.1407    3.2082    0.1166 N   0  0  0  0  0  0  0  0  0  0  0  0
    0.5552    2.3644   -0.2765 H   0  0  0  0  0  0  0  0  0  0  0  0
   -0.5976    4.0945   -0.7748 C   0  0  0  0  0  0  0  0  0  0  0  0
   -1.6741    3.9154   -0.6860 H   0  0  0  0  0  0  0  0  0  0  0  0
   -0.3933    5.1428   -0.5325 H   0  0  0  0  0  0  0  0  0  0  0  0
   -0.3003    3.9185   -1.8131 H   0  0  0  0  0  0  0  0  0  0  0  0
  1  2  1  0  0  0  0
  2  3  1  0  0  0  0
  2  4  1  0  0  0  0
  2  5  1  0  0  0  0
  5  6  2  0  0  0  0
  5  7  1  0  0  0  0
  7  8  1  0  0  0  0
  7  9  1  0  0  0  0
  9 10  1  0  0  0  0
  9 11  1  0  0  0  0
  9 15  1  0  0  0  0
 11 12  1  0  0  0  0
 11 13  1  0  0  0  0
 11 14  1  0  0  0  0
 14 36  1  0  0  0  0
 15 16  2  0  0  0  0
 15 17  1  0  0  0  0
 17 18  1  0  0  0  0
 17 19  1  0  0  0  0
 19 20  1  0  0  0  0
 19 21  1  0  0  0  0
 19 22  1  0  0  0  0
 23 24  1  0  0  0  0
 24 25  1  0  0  0  0
 24 26  1  0  0  0  0
 24 27  1  0  0  0  0
 27 28  2  0  0  0  0
 27 29  1  0  0  0  0
 29 30  1  0  0  0  0
 29 31  1  0  0  0  0
 31 32  1  0  0  0  0
 31 33  1  0  0  0  0
 31 37  1  0  0  0  0
 33 34  1  0  0  0  0
 33 35  1  0  0  0  0
 33 36  1  0  0  0  0
 37 38  2  0  0  0  0
 37 39  1  0  0  0  0
 39 40  1  0  0  0  0
 39 41  1  0  0  0  0
 41 42  1  0  0  0  0
 41 43  1  0  0  0  0
 41 44  1  0  0  0  0
M  END
$$$$

  -OEChem-04042215573D

 44 43  0     1  0  0  0  0  0999 V2000
   -2.0507   -7.2450   -0.3407 H   0  0  0  0  0  0  0  0  0  0  0  0
   -2.0178   -6.3410    0.2743 C   0  0  0  0  0  0  0  0  0  0  0  0
   -1.1766   -6.4188    0.9665 H   0  0  0  0  0  0  0  0  0  0  0  0
   -2.9477   -6.2694    0.8434 H   0  0  0  0  0  0  0  0  0  0  0  0
   -1.8538   -5.1190   -0.6090 C   0  0  0  0  0  0  0  0  0  0  0  0
   -1.7943   -5.2531   -1.8164 O   0  0  0  0  0  0  0  0  0  0  0  0
   -1.8026   -3.8593   -0.0436 N   0  0  0  0  0  0  0  0  0  0  0  0
   -1.9417   -3.8030    0.9601 H   0  0  0  0  0  0  0  0  0  0  0  0
   -1.7284   -2.6064   -0.8235 C   0  0  1  0  0  0  0  0  0  0  0  0
   -2.5927   -2.5461   -1.4941 H   0  0  0  0  0  0  0  0  0  0  0  0
   -1.8090   -1.4408    0.1827 C   0  0  0  0  0  0  0  0  0  0  0  0
   -1.1632   -1.6470    1.0418 H   0  0  0  0  0  0  0  0  0  0  0  0
   -2.8376   -1.3607    0.5471 H   0  0  0  0  0  0  0  0  0  0  0  0
   -1.3051    0.1778   -0.5315 S   0  0  0  0  0  0  0  0  0  0  0  0
   -0.4719   -2.5230   -1.7277 C   0  0  0  0  0  0  0  0  0  0  0  0
   -0.5485   -2.0431   -2.8519 O   0  0  0  0  0  0  0  0  0  0  0  0
    0.7705   -2.8805   -1.2322 N   0  0  0  0  0  0  0  0  0  0  0  0
    0.8030   -3.2794   -0.3011 H   0  0  0  0  0  0  0  0  0  0  0  0
    2.0042   -2.7515   -1.9962 C   0  0  0  0  0  0  0  0  0  0  0  0
    1.9636   -3.3729   -2.8971 H   0  0  0  0  0  0  0  0  0  0  0  0
    2.1620   -1.7090   -2.2926 H   0  0  0  0  0  0  0  0  0  0  0  0
    2.8586   -3.0717   -1.3924 H   0  0  0  0  0  0  0  0  0  0  0  0
    3.5757    3.5974    5.3154 H   0  0  0  0  0  0  0  0  0  0  0  0
    2.6316    3.8859    4.8447 C   0  0  0  0  0  0  0  0  0  0  0  0
    2.6800    4.9447    4.5789 H   0  0  0  0  0  0  0  0  0  0  0  0
    1.8188    3.7319    5.5584 H   0  0  0  0  0  0  0  0  0  0  0  0
    2.3946    3.0513    3.6012 C   0  0  0  0  0  0  0  0  0  0  0  0
    3.2184    2.2198    3.2564 O   0  0  0  0  0  0  0  0  0  0  0  0
    1.2510    3.2352    2.8542 N   0  0  0  0  0  0  0  0  0  0  0  0
    0.6537    4.0244    3.1029 H   0  0  0  0  0  0  0  0  0  0  0  0
    1.0402    2.6607    1.5162 C   0  0  1  0  0  0  0  0  0  0  0  0
    1.9960    2.6339    0.9813 H   0  0  0  0  0  0  0  0  0  0  0  0
    0.5125    1.2264    1.6688 C   0  0  0  0  0  0  0  0  0  0  0  0
    1.0961    0.7053    2.4342 H   0  0  0  0  0  0  0  0  0  0  0  0
   -0.5316    1.2393    1.9964 H   0  0  0  0  0  0  0  0  0  0  0  0
    0.6848    0.3014    0.0902 S   0  0  0  0  0  0  0  0  0  0  0  0
    0.0748    3.5439    0.6910 C   0  0  0  0  0  0  0  0  0  0  0  0
   -0.5029    4.4799    1.2372 O   0  0  0  0  0  0  0  0  0  0  0  0
   -0.1173    3.3311   -0.6611 N   0  0  0  0  0  0  0  0  0  0  0  0
    0.2492    2.4594   -1.0409 H   0  0  0  0  0  0  0  0  0  0  0  0
   -1.0788    4.0809   -1.4598 C   0  0  0  0  0  0  0  0  0  0  0  0
   -2.0984    3.8932   -1.1075 H   0  0  0  0  0  0  0  0  0  0  0  0
   -0.8753    5.1552   -1.3993 H   0  0  0  0  0  0  0  0  0  0  0  0
   -1.0132    3.7788   -2.5096 H   0  0  0  0  0  0  0  0  0  0  0  0
  1  2  1  0  0  0  0
  2  3  1  0  0  0  0
  2  4  1  0  0  0  0
  2  5  1  0  0  0  0
  5  6  2  0  0  0  0
  5  7  1  0  0  0  0
  7  8  1  0  0  0  0
  7  9  1  0  0  0  0
  9 10  1  0  0  0  0
  9 11  1  0  0  0  0
  9 15  1  0  0  0  0
 11 12  1  0  0  0  0
 11 13  1  0  0  0  0
 11 14  1  0  0  0  0
 14 36  1  0  0  0  0
 15 16  2  0  0  0  0
 15 17  1  0  0  0  0
 17 18  1  0  0  0  0
 17 19  1  0  0  0  0
 19 20  1  0  0  0  0
 19 21  1  0  0  0  0
 19 22  1  0  0  0  0
 23 24  1  0  0  0  0
 24 25  1  0  0  0  0
 24 26  1  0  0  0  0
 24 27  1  0  0  0  0
 27 28  2  0  0  0  0
 27 29  1  0  0  0  0
 29 30  1  0  0  0  0
 29 31  1  0  0  0  0
 31 32  1  0  0  0  0
 31 33  1  0  0  0  0
 31 37  1  0  0  0  0
 33 34  1  0  0  0  0
 33 35  1  0  0  0  0
 33 36  1  0  0  0  0
 37 38  2  0  0  0  0
 37 39  1  0  0  0  0
 39 40  1  0  0  0  0
 39 41  1  0  0  0  0
 41 42  1  0  0  0  0
 41 43  1  0  0  0  0
 41 44  1  0  0  0  0
M  END
$$$$
