default_name
  -OEChem-02102213163D

 44 43  0     1  0  0  0  0  0999 V2000
    2.4488   -3.0448    2.0990 H   0  0  0  0  0  0  0  0  0  0  0  0
    2.2788   -2.0018    2.3640 C   0  0  0  0  0  0  0  0  0  0  0  0
    2.9228   -1.7258    3.1960 H   0  0  0  0  0  0  0  0  0  0  0  0
    1.2358   -1.8618    2.6430 H   0  0  0  0  0  0  0  0  0  0  0  0
    2.6018   -1.1318    1.1730 C   0  0  0  0  0  0  0  0  0  0  0  0
    3.0048   -1.6348    0.1320 O   0  0  0  0  0  0  0  0  0  0  0  0
    2.4088    0.1752    1.3190 N   0  0  0  0  0  0  0  0  0  0  0  0
    2.0708    0.5242    2.2050 H   0  0  0  0  0  0  0  0  0  0  0  0
    2.6638    1.1782    0.2840 C   0  0  1  0  0  0  0  0  0  0  0  0
    3.3023    0.7261   -0.4769 H   0  0  0  0  0  0  0  0  0  0  0  0
    1.3378    1.5821   -0.3840 C   0  0  0  0  0  0  0  0  0  0  0  0
    0.6488    1.9303    0.3865 H   0  0  0  0  0  0  0  0  0  0  0  0
    0.8926    0.6839   -0.8109 H   0  0  0  0  0  0  0  0  0  0  0  0
    1.3971    2.8235   -1.7100 S   0  0  0  0  0  0  0  0  0  0  0  0
    3.4113    2.3942    0.8625 C   0  0  0  0  0  0  0  0  0  0  0  0
    3.0632    2.8902    1.9340 O   0  0  0  0  0  0  0  0  0  0  0  0
    4.4446    2.8701    0.1549 N   0  0  0  0  0  0  0  0  0  0  0  0
    4.6771    2.4144   -0.7127 H   0  0  0  0  0  0  0  0  0  0  0  0
    5.2508    4.0170    0.5679 C   0  0  0  0  0  0  0  0  0  0  0  0
    4.6226    4.9090    0.6163 H   0  0  0  0  0  0  0  0  0  0  0  0
    5.6706    3.8358    1.5591 H   0  0  0  0  0  0  0  0  0  0  0  0
    6.0620    4.1853   -0.1415 H   0  0  0  0  0  0  0  0  0  0  0  0
   -1.9913    8.2503    3.2791 H   0  0  0  0  0  0  0  0  0  0  0  0
   -2.2522    7.4031    2.6467 C   0  0  0  0  0  0  0  0  0  0  0  0
   -3.2044    7.5922    2.1536 H   0  0  0  0  0  0  0  0  0  0  0  0
   -2.3229    6.5023    3.2535 H   0  0  0  0  0  0  0  0  0  0  0  0
   -1.1754    7.2202    1.6030 C   0  0  0  0  0  0  0  0  0  0  0  0
   -0.2031    7.9626    1.5815 O   0  0  0  0  0  0  0  0  0  0  0  0
   -1.3478    6.2217    0.7410 N   0  0  0  0  0  0  0  0  0  0  0  0
   -2.1804    5.6551    0.8119 H   0  0  0  0  0  0  0  0  0  0  0  0
   -0.4149    5.8831   -0.3338 C   0  0  1  0  0  0  0  0  0  0  0  0
    0.0020    6.8036   -0.7462 H   0  0  0  0  0  0  0  0  0  0  0  0
    0.7323    5.0631    0.2729 C   0  0  0  0  0  0  0  0  0  0  0  0
    1.1902    5.6686    1.0564 H   0  0  0  0  0  0  0  0  0  0  0  0
    0.3168    4.1769    0.7531 H   0  0  0  0  0  0  0  0  0  0  0  0
    2.0671    4.5441   -0.8388 S   0  0  0  0  0  0  0  0  0  0  0  0
   -1.1446    5.1379   -1.4654 C   0  0  0  0  0  0  0  0  0  0  0  0
   -2.1169    4.4274   -1.2063 O   0  0  0  0  0  0  0  0  0  0  0  0
   -0.6841    5.3057   -2.7117 N   0  0  0  0  0  0  0  0  0  0  0  0
    0.1368    5.8767   -2.8363 H   0  0  0  0  0  0  0  0  0  0  0  0
   -1.2572    4.6638   -3.8940 C   0  0  0  0  0  0  0  0  0  0  0  0
   -0.9845    3.6072   -3.9075 H   0  0  0  0  0  0  0  0  0  0  0  0
   -2.3467    4.7421   -3.8705 H   0  0  0  0  0  0  0  0  0  0  0  0
   -0.8853    5.1423   -4.8001 H   0  0  0  0  0  0  0  0  0  0  0  0
  5  6  2  0  0  0  0
  5  7  1  0  0  0  0
  2  3  1  0  0  0  0
  2  4  1  0  0  0  0
  2  5  1  0  0  0  0
  1  2  1  0  0  0  0
 15 16  2  0  0  0  0
 15 17  1  0  0  0  0
 14 36  1  0  0  0  0
 11 12  1  0  0  0  0
 11 13  1  0  0  0  0
 11 14  1  0  0  0  0
  9 10  1  0  0  0  0
  9 11  1  0  0  0  0
  9 15  1  0  0  0  0
  7  8  1  0  0  0  0
  7  9  1  0  0  0  0
 19 20  1  0  0  0  0
 19 21  1  0  0  0  0
 19 22  1  0  0  0  0
 17 18  1  0  0  0  0
 17 19  1  0  0  0  0
 27 28  2  0  0  0  0
 27 29  1  0  0  0  0
 24 25  1  0  0  0  0
 24 26  1  0  0  0  0
 24 27  1  0  0  0  0
 23 24  1  0  0  0  0
 37 38  2  0  0  0  0
 37 39  1  0  0  0  0
 33 34  1  0  0  0  0
 33 35  1  0  0  0  0
 33 36  1  0  0  0  0
 31 32  1  0  0  0  0
 31 33  1  0  0  0  0
 31 37  1  0  0  0  0
 29 30  1  0  0  0  0
 29 31  1  0  0  0  0
 41 42  1  0  0  0  0
 41 43  1  0  0  0  0
 41 44  1  0  0  0  0
 39 40  1  0  0  0  0
 39 41  1  0  0  0  0
M  END
$$$$
default_name
  -OEChem-02102213163D

 44 43  0     1  0  0  0  0  0999 V2000
    2.4488   -3.0448    2.0990 H   0  0  0  0  0  0  0  0  0  0  0  0
    2.2788   -2.0018    2.3640 C   0  0  0  0  0  0  0  0  0  0  0  0
    2.9228   -1.7258    3.1960 H   0  0  0  0  0  0  0  0  0  0  0  0
    1.2358   -1.8618    2.6430 H   0  0  0  0  0  0  0  0  0  0  0  0
    2.6018   -1.1318    1.1730 C   0  0  0  0  0  0  0  0  0  0  0  0
    3.0048   -1.6348    0.1320 O   0  0  0  0  0  0  0  0  0  0  0  0
    2.4088    0.1752    1.3190 N   0  0  0  0  0  0  0  0  0  0  0  0
    2.0708    0.5242    2.2050 H   0  0  0  0  0  0  0  0  0  0  0  0
    2.6638    1.1782    0.2840 C   0  0  1  0  0  0  0  0  0  0  0  0
    3.3023    0.7261   -0.4769 H   0  0  0  0  0  0  0  0  0  0  0  0
    1.3378    1.5821   -0.3840 C   0  0  0  0  0  0  0  0  0  0  0  0
    0.7534    2.1708    0.3242 H   0  0  0  0  0  0  0  0  0  0  0  0
    0.7680    0.6722   -0.5707 H   0  0  0  0  0  0  0  0  0  0  0  0
    1.4194    2.4864   -1.9583 S   0  0  0  0  0  0  0  0  0  0  0  0
    3.4113    2.3942    0.8625 C   0  0  0  0  0  0  0  0  0  0  0  0
    3.0632    2.8902    1.9340 O   0  0  0  0  0  0  0  0  0  0  0  0
    4.4446    2.8701    0.1549 N   0  0  0  0  0  0  0  0  0  0  0  0
    4.6771    2.4144   -0.7127 H   0  0  0  0  0  0  0  0  0  0  0  0
    5.2508    4.0170    0.5679 C   0  0  0  0  0  0  0  0  0  0  0  0
    4.6226    4.9090    0.6163 H   0  0  0  0  0  0  0  0  0  0  0  0
    5.6706    3.8358    1.5591 H   0  0  0  0  0  0  0  0  0  0  0  0
    6.0620    4.1853   -0.1415 H   0  0  0  0  0  0  0  0  0  0  0  0
   -0.9688    9.2413    1.8484 H   0  0  0  0  0  0  0  0  0  0  0  0
   -1.3671    8.3136    1.4401 C   0  0  0  0  0  0  0  0  0  0  0  0
   -2.3309    8.5030    0.9703 H   0  0  0  0  0  0  0  0  0  0  0  0
   -1.4825    7.5829    2.2385 H   0  0  0  0  0  0  0  0  0  0  0  0
   -0.4031    7.7785    0.4073 C   0  0  0  0  0  0  0  0  0  0  0  0
    0.6367    8.3759    0.1643 O   0  0  0  0  0  0  0  0  0  0  0  0
   -0.7480    6.6435   -0.1947 N   0  0  0  0  0  0  0  0  0  0  0  0
   -1.6269    6.2104    0.0487 H   0  0  0  0  0  0  0  0  0  0  0  0
    0.0546    5.9681   -1.2145 C   0  0  1  0  0  0  0  0  0  0  0  0
    0.5309    6.7190   -1.8473 H   0  0  0  0  0  0  0  0  0  0  0  0
    1.1549    5.1693   -0.5018 C   0  0  0  0  0  0  0  0  0  0  0  0
    1.7354    5.8724    0.0974 H   0  0  0  0  0  0  0  0  0  0  0  0
    0.6890    4.4664    0.1891 H   0  0  0  0  0  0  0  0  0  0  0  0
    2.3339    4.2628   -1.5387 S   0  0  0  0  0  0  0  0  0  0  0  0
   -0.8381    5.0861   -2.1054 C   0  0  0  0  0  0  0  0  0  0  0  0
   -1.8553    4.5716   -1.6385 O   0  0  0  0  0  0  0  0  0  0  0  0
   -0.4645    4.9202   -3.3807 N   0  0  0  0  0  0  0  0  0  0  0  0
    0.3988    5.3472   -3.6767 H   0  0  0  0  0  0  0  0  0  0  0  0
   -1.1952    4.1083   -4.3530 C   0  0  0  0  0  0  0  0  0  0  0  0
   -1.0366    3.0495   -4.1414 H   0  0  0  0  0  0  0  0  0  0  0  0
   -2.2651    4.3201   -4.2878 H   0  0  0  0  0  0  0  0  0  0  0  0
   -0.8496    4.3284   -5.3632 H   0  0  0  0  0  0  0  0  0  0  0  0
  5  6  2  0  0  0  0
  5  7  1  0  0  0  0
  2  3  1  0  0  0  0
  2  4  1  0  0  0  0
  2  5  1  0  0  0  0
  1  2  1  0  0  0  0
 15 16  2  0  0  0  0
 15 17  1  0  0  0  0
 14 36  1  0  0  0  0
 11 12  1  0  0  0  0
 11 13  1  0  0  0  0
 11 14  1  0  0  0  0
  9 10  1  0  0  0  0
  9 11  1  0  0  0  0
  9 15  1  0  0  0  0
  7  8  1  0  0  0  0
  7  9  1  0  0  0  0
 19 20  1  0  0  0  0
 19 21  1  0  0  0  0
 19 22  1  0  0  0  0
 17 18  1  0  0  0  0
 17 19  1  0  0  0  0
 27 28  2  0  0  0  0
 27 29  1  0  0  0  0
 24 25  1  0  0  0  0
 24 26  1  0  0  0  0
 24 27  1  0  0  0  0
 23 24  1  0  0  0  0
 37 38  2  0  0  0  0
 37 39  1  0  0  0  0
 33 34  1  0  0  0  0
 33 35  1  0  0  0  0
 33 36  1  0  0  0  0
 31 32  1  0  0  0  0
 31 33  1  0  0  0  0
 31 37  1  0  0  0  0
 29 30  1  0  0  0  0
 29 31  1  0  0  0  0
 41 42  1  0  0  0  0
 41 43  1  0  0  0  0
 41 44  1  0  0  0  0
 39 40  1  0  0  0  0
 39 41  1  0  0  0  0
M  END
$$$$
default_name
  -OEChem-02102213163D

 44 43  0     1  0  0  0  0  0999 V2000
    2.4488   -3.0448    2.0990 H   0  0  0  0  0  0  0  0  0  0  0  0
    2.2788   -2.0018    2.3640 C   0  0  0  0  0  0  0  0  0  0  0  0
    2.9228   -1.7258    3.1960 H   0  0  0  0  0  0  0  0  0  0  0  0
    1.2358   -1.8618    2.6430 H   0  0  0  0  0  0  0  0  0  0  0  0
    2.6018   -1.1318    1.1730 C   0  0  0  0  0  0  0  0  0  0  0  0
    3.0048   -1.6348    0.1320 O   0  0  0  0  0  0  0  0  0  0  0  0
    2.4088    0.1752    1.3190 N   0  0  0  0  0  0  0  0  0  0  0  0
    2.0708    0.5242    2.2050 H   0  0  0  0  0  0  0  0  0  0  0  0
    2.6638    1.1782    0.2840 C   0  0  1  0  0  0  0  0  0  0  0  0
    3.3023    0.7261   -0.4769 H   0  0  0  0  0  0  0  0  0  0  0  0
    1.3378    1.5821   -0.3840 C   0  0  0  0  0  0  0  0  0  0  0  0
    0.8773    2.3775    0.2033 H   0  0  0  0  0  0  0  0  0  0  0  0
    0.6627    0.7286   -0.3276 H   0  0  0  0  0  0  0  0  0  0  0  0
    1.3863    2.1028   -2.1245 S   0  0  0  0  0  0  0  0  0  0  0  0
    3.4113    2.3942    0.8625 C   0  0  0  0  0  0  0  0  0  0  0  0
    3.0632    2.8902    1.9340 O   0  0  0  0  0  0  0  0  0  0  0  0
    4.4446    2.8701    0.1549 N   0  0  0  0  0  0  0  0  0  0  0  0
    4.6771    2.4144   -0.7127 H   0  0  0  0  0  0  0  0  0  0  0  0
    5.2508    4.0170    0.5679 C   0  0  0  0  0  0  0  0  0  0  0  0
    4.6226    4.9090    0.6163 H   0  0  0  0  0  0  0  0  0  0  0  0
    5.6706    3.8358    1.5591 H   0  0  0  0  0  0  0  0  0  0  0  0
    6.0620    4.1853   -0.1415 H   0  0  0  0  0  0  0  0  0  0  0  0
    0.0330    9.7644    0.1759 H   0  0  0  0  0  0  0  0  0  0  0  0
   -0.4918    8.8245    0.0114 C   0  0  0  0  0  0  0  0  0  0  0  0
   -1.4653    9.0207   -0.4352 H   0  0  0  0  0  0  0  0  0  0  0  0
   -0.6182    8.3059    0.9599 H   0  0  0  0  0  0  0  0  0  0  0  0
    0.3244    7.9644   -0.9246 C   0  0  0  0  0  0  0  0  0  0  0  0
    1.3980    8.3647   -1.3539 O   0  0  0  0  0  0  0  0  0  0  0  0
   -0.1848    6.7748   -1.2334 N   0  0  0  0  0  0  0  0  0  0  0  0
   -1.0817    6.5143   -0.8499 H   0  0  0  0  0  0  0  0  0  0  0  0
    0.4578    5.8010   -2.1160 C   0  0  1  0  0  0  0  0  0  0  0  0
    0.9574    6.3321   -2.9280 H   0  0  0  0  0  0  0  0  0  0  0  0
    1.5223    5.0516   -1.3024 C   0  0  0  0  0  0  0  0  0  0  0  0
    2.2196    5.7940   -0.9115 H   0  0  0  0  0  0  0  0  0  0  0  0
    1.0428    4.5784   -0.4454 H   0  0  0  0  0  0  0  0  0  0  0  0
    2.5125    3.8051   -2.1701 S   0  0  0  0  0  0  0  0  0  0  0  0
   -0.5912    4.8589   -2.7328 C   0  0  0  0  0  0  0  0  0  0  0  0
   -1.6157    4.5852   -2.1060 O   0  0  0  0  0  0  0  0  0  0  0  0
   -0.3412    4.3739   -3.9558 N   0  0  0  0  0  0  0  0  0  0  0  0
    0.5354    4.6188   -4.3882 H   0  0  0  0  0  0  0  0  0  0  0  0
   -1.2289    3.4624   -4.6767 C   0  0  0  0  0  0  0  0  0  0  0  0
   -1.1654    2.4645   -4.2395 H   0  0  0  0  0  0  0  0  0  0  0  0
   -2.2620    3.8102   -4.6023 H   0  0  0  0  0  0  0  0  0  0  0  0
   -0.9449    3.4126   -5.7280 H   0  0  0  0  0  0  0  0  0  0  0  0
  5  6  2  0  0  0  0
  5  7  1  0  0  0  0
  2  3  1  0  0  0  0
  2  4  1  0  0  0  0
  2  5  1  0  0  0  0
  1  2  1  0  0  0  0
 15 16  2  0  0  0  0
 15 17  1  0  0  0  0
 14 36  1  0  0  0  0
 11 12  1  0  0  0  0
 11 13  1  0  0  0  0
 11 14  1  0  0  0  0
  9 10  1  0  0  0  0
  9 11  1  0  0  0  0
  9 15  1  0  0  0  0
  7  8  1  0  0  0  0
  7  9  1  0  0  0  0
 19 20  1  0  0  0  0
 19 21  1  0  0  0  0
 19 22  1  0  0  0  0
 17 18  1  0  0  0  0
 17 19  1  0  0  0  0
 27 28  2  0  0  0  0
 27 29  1  0  0  0  0
 24 25  1  0  0  0  0
 24 26  1  0  0  0  0
 24 27  1  0  0  0  0
 23 24  1  0  0  0  0
 37 38  2  0  0  0  0
 37 39  1  0  0  0  0
 33 34  1  0  0  0  0
 33 35  1  0  0  0  0
 33 36  1  0  0  0  0
 31 32  1  0  0  0  0
 31 33  1  0  0  0  0
 31 37  1  0  0  0  0
 29 30  1  0  0  0  0
 29 31  1  0  0  0  0
 41 42  1  0  0  0  0
 41 43  1  0  0  0  0
 41 44  1  0  0  0  0
 39 40  1  0  0  0  0
 39 41  1  0  0  0  0
M  END
$$$$
default_name
  -OEChem-02102213163D

 44 43  0     1  0  0  0  0  0999 V2000
    2.4488   -3.0448    2.0990 H   0  0  0  0  0  0  0  0  0  0  0  0
    2.2788   -2.0018    2.3640 C   0  0  0  0  0  0  0  0  0  0  0  0
    2.9228   -1.7258    3.1960 H   0  0  0  0  0  0  0  0  0  0  0  0
    1.2358   -1.8618    2.6430 H   0  0  0  0  0  0  0  0  0  0  0  0
    2.6018   -1.1318    1.1730 C   0  0  0  0  0  0  0  0  0  0  0  0
    3.0048   -1.6348    0.1320 O   0  0  0  0  0  0  0  0  0  0  0  0
    2.4088    0.1752    1.3190 N   0  0  0  0  0  0  0  0  0  0  0  0
    2.0708    0.5242    2.2050 H   0  0  0  0  0  0  0  0  0  0  0  0
    2.6638    1.1782    0.2840 C   0  0  1  0  0  0  0  0  0  0  0  0
    3.3023    0.7261   -0.4769 H   0  0  0  0  0  0  0  0  0  0  0  0
    1.3378    1.5821   -0.3840 C   0  0  0  0  0  0  0  0  0  0  0  0
    1.0119    2.5363    0.0319 H   0  0  0  0  0  0  0  0  0  0  0  0
    0.5839    0.8490   -0.0982 H   0  0  0  0  0  0  0  0  0  0  0  0
    1.2999    1.6990   -2.1972 S   0  0  0  0  0  0  0  0  0  0  0  0
    3.4113    2.3942    0.8625 C   0  0  0  0  0  0  0  0  0  0  0  0
    3.0632    2.8902    1.9340 O   0  0  0  0  0  0  0  0  0  0  0  0
    4.4446    2.8701    0.1549 N   0  0  0  0  0  0  0  0  0  0  0  0
    4.6771    2.4144   -0.7127 H   0  0  0  0  0  0  0  0  0  0  0  0
    5.2508    4.0170    0.5679 C   0  0  0  0  0  0  0  0  0  0  0  0
    4.6226    4.9090    0.6163 H   0  0  0  0  0  0  0  0  0  0  0  0
    5.6706    3.8358    1.5591 H   0  0  0  0  0  0  0  0  0  0  0  0
    6.0620    4.1853   -0.1415 H   0  0  0  0  0  0  0  0  0  0  0  0
    0.9458    9.7842   -1.6244 H   0  0  0  0  0  0  0  0  0  0  0  0
    0.3139    8.9011   -1.5420 C   0  0  0  0  0  0  0  0  0  0  0  0
   -0.6665    9.1100   -1.9671 H   0  0  0  0  0  0  0  0  0  0  0  0
    0.2109    8.6219   -0.4951 H   0  0  0  0  0  0  0  0  0  0  0  0
    0.9575    7.7650   -2.3020 C   0  0  0  0  0  0  0  0  0  0  0  0
    2.0289    7.9297   -2.8695 O   0  0  0  0  0  0  0  0  0  0  0  0
    0.3034    6.6067   -2.3042 N   0  0  0  0  0  0  0  0  0  0  0  0
   -0.5820    6.5462   -1.8227 H   0  0  0  0  0  0  0  0  0  0  0  0
    0.7672    5.3932   -2.9769 C   0  0  1  0  0  0  0  0  0  0  0  0
    1.2525    5.6695   -3.9146 H   0  0  0  0  0  0  0  0  0  0  0  0
    1.8096    4.7181   -2.0746 C   0  0  0  0  0  0  0  0  0  0  0  0
    2.6101    5.4389   -1.9014 H   0  0  0  0  0  0  0  0  0  0  0  0
    1.3539    4.5052   -1.1074 H   0  0  0  0  0  0  0  0  0  0  0  0
    2.5907    3.2021   -2.6900 S   0  0  0  0  0  0  0  0  0  0  0  0
   -0.4210    4.4717   -3.3050 C   0  0  0  0  0  0  0  0  0  0  0  0
   -1.4145    4.4671   -2.5768 O   0  0  0  0  0  0  0  0  0  0  0  0
   -0.3226    3.7041   -4.3979 N   0  0  0  0  0  0  0  0  0  0  0  0
    0.5370    3.7412   -4.9223 H   0  0  0  0  0  0  0  0  0  0  0  0
   -1.3561    2.7701   -4.8430 C   0  0  0  0  0  0  0  0  0  0  0  0
   -1.3622    1.8920   -4.1949 H   0  0  0  0  0  0  0  0  0  0  0  0
   -2.3377    3.2472   -4.7925 H   0  0  0  0  0  0  0  0  0  0  0  0
   -1.1645    2.4573   -5.8696 H   0  0  0  0  0  0  0  0  0  0  0  0
  5  6  2  0  0  0  0
  5  7  1  0  0  0  0
  2  3  1  0  0  0  0
  2  4  1  0  0  0  0
  2  5  1  0  0  0  0
  1  2  1  0  0  0  0
 15 16  2  0  0  0  0
 15 17  1  0  0  0  0
 14 36  1  0  0  0  0
 11 12  1  0  0  0  0
 11 13  1  0  0  0  0
 11 14  1  0  0  0  0
  9 10  1  0  0  0  0
  9 11  1  0  0  0  0
  9 15  1  0  0  0  0
  7  8  1  0  0  0  0
  7  9  1  0  0  0  0
 19 20  1  0  0  0  0
 19 21  1  0  0  0  0
 19 22  1  0  0  0  0
 17 18  1  0  0  0  0
 17 19  1  0  0  0  0
 27 28  2  0  0  0  0
 27 29  1  0  0  0  0
 24 25  1  0  0  0  0
 24 26  1  0  0  0  0
 24 27  1  0  0  0  0
 23 24  1  0  0  0  0
 37 38  2  0  0  0  0
 37 39  1  0  0  0  0
 33 34  1  0  0  0  0
 33 35  1  0  0  0  0
 33 36  1  0  0  0  0
 31 32  1  0  0  0  0
 31 33  1  0  0  0  0
 31 37  1  0  0  0  0
 29 30  1  0  0  0  0
 29 31  1  0  0  0  0
 41 42  1  0  0  0  0
 41 43  1  0  0  0  0
 41 44  1  0  0  0  0
 39 40  1  0  0  0  0
 39 41  1  0  0  0  0
M  END
$$$$
default_name
  -OEChem-02102213163D

 44 43  0     1  0  0  0  0  0999 V2000
    2.4488   -3.0448    2.0990 H   0  0  0  0  0  0  0  0  0  0  0  0
    2.2788   -2.0018    2.3640 C   0  0  0  0  0  0  0  0  0  0  0  0
    2.9228   -1.7258    3.1960 H   0  0  0  0  0  0  0  0  0  0  0  0
    1.2358   -1.8618    2.6430 H   0  0  0  0  0  0  0  0  0  0  0  0
    2.6018   -1.1318    1.1730 C   0  0  0  0  0  0  0  0  0  0  0  0
    3.0048   -1.6348    0.1320 O   0  0  0  0  0  0  0  0  0  0  0  0
    2.4088    0.1752    1.3190 N   0  0  0  0  0  0  0  0  0  0  0  0
    2.0708    0.5242    2.2050 H   0  0  0  0  0  0  0  0  0  0  0  0
    2.6638    1.1782    0.2840 C   0  0  1  0  0  0  0  0  0  0  0  0
    3.3023    0.7261   -0.4769 H   0  0  0  0  0  0  0  0  0  0  0  0
    1.3378    1.5821   -0.3840 C   0  0  0  0  0  0  0  0  0  0  0  0
    1.1482    2.6363   -0.1781 H   0  0  0  0  0  0  0  0  0  0  0  0
    0.5368    1.0254    0.1018 H   0  0  0  0  0  0  0  0  0  0  0  0
    1.1662    1.3025   -2.1715 S   0  0  0  0  0  0  0  0  0  0  0  0
    3.4113    2.3942    0.8625 C   0  0  0  0  0  0  0  0  0  0  0  0
    3.0632    2.8902    1.9340 O   0  0  0  0  0  0  0  0  0  0  0  0
    4.4446    2.8701    0.1549 N   0  0  0  0  0  0  0  0  0  0  0  0
    4.6771    2.4144   -0.7127 H   0  0  0  0  0  0  0  0  0  0  0  0
    5.2508    4.0170    0.5679 C   0  0  0  0  0  0  0  0  0  0  0  0
    4.6226    4.9090    0.6163 H   0  0  0  0  0  0  0  0  0  0  0  0
    5.6706    3.8358    1.5591 H   0  0  0  0  0  0  0  0  0  0  0  0
    6.0620    4.1853   -0.1415 H   0  0  0  0  0  0  0  0  0  0  0  0
    1.7074    9.2992   -3.4297 H   0  0  0  0  0  0  0  0  0  0  0  0
    0.9953    8.5380   -3.1144 C   0  0  0  0  0  0  0  0  0  0  0  0
    0.0110    8.7648   -3.5209 H   0  0  0  0  0  0  0  0  0  0  0  0
    0.9484    8.5095   -2.0274 H   0  0  0  0  0  0  0  0  0  0  0  0
    1.4530    7.1942   -3.6311 C   0  0  0  0  0  0  0  0  0  0  0  0
    2.4865    7.1006   -4.2794 O   0  0  0  0  0  0  0  0  0  0  0  0
    0.6833    6.1506   -3.3342 N   0  0  0  0  0  0  0  0  0  0  0  0
   -0.1618    6.3038   -2.8034 H   0  0  0  0  0  0  0  0  0  0  0  0
    0.9617    4.7725   -3.7385 C   0  0  1  0  0  0  0  0  0  0  0  0
    1.3960    4.7763   -4.7398 H   0  0  0  0  0  0  0  0  0  0  0  0
    1.9972    4.1914   -2.7655 C   0  0  0  0  0  0  0  0  0  0  0  0
    2.8800    4.8312   -2.8048 H   0  0  0  0  0  0  0  0  0  0  0  0
    1.6013    4.2520   -1.7516 H   0  0  0  0  0  0  0  0  0  0  0  0
    2.5632    2.4949   -3.0630 S   0  0  0  0  0  0  0  0  0  0  0  0
   -0.3389    3.9510   -3.7829 C   0  0  0  0  0  0  0  0  0  0  0  0
   -1.2655    4.2254   -3.0189 O   0  0  0  0  0  0  0  0  0  0  0  0
   -0.4099    2.9564   -4.6768 N   0  0  0  0  0  0  0  0  0  0  0  0
    0.4038    2.7742   -5.2426 H   0  0  0  0  0  0  0  0  0  0  0  0
   -1.5679    2.0785   -4.8405 C   0  0  0  0  0  0  0  0  0  0  0  0
   -1.6136    1.3711   -4.0108 H   0  0  0  0  0  0  0  0  0  0  0  0
   -2.4870    2.6694   -4.8456 H   0  0  0  0  0  0  0  0  0  0  0  0
   -1.4936    1.5278   -5.7784 H   0  0  0  0  0  0  0  0  0  0  0  0
  5  6  2  0  0  0  0
  5  7  1  0  0  0  0
  2  3  1  0  0  0  0
  2  4  1  0  0  0  0
  2  5  1  0  0  0  0
  1  2  1  0  0  0  0
 15 16  2  0  0  0  0
 15 17  1  0  0  0  0
 14 36  1  0  0  0  0
 11 12  1  0  0  0  0
 11 13  1  0  0  0  0
 11 14  1  0  0  0  0
  9 10  1  0  0  0  0
  9 11  1  0  0  0  0
  9 15  1  0  0  0  0
  7  8  1  0  0  0  0
  7  9  1  0  0  0  0
 19 20  1  0  0  0  0
 19 21  1  0  0  0  0
 19 22  1  0  0  0  0
 17 18  1  0  0  0  0
 17 19  1  0  0  0  0
 27 28  2  0  0  0  0
 27 29  1  0  0  0  0
 24 25  1  0  0  0  0
 24 26  1  0  0  0  0
 24 27  1  0  0  0  0
 23 24  1  0  0  0  0
 37 38  2  0  0  0  0
 37 39  1  0  0  0  0
 33 34  1  0  0  0  0
 33 35  1  0  0  0  0
 33 36  1  0  0  0  0
 31 32  1  0  0  0  0
 31 33  1  0  0  0  0
 31 37  1  0  0  0  0
 29 30  1  0  0  0  0
 29 31  1  0  0  0  0
 41 42  1  0  0  0  0
 41 43  1  0  0  0  0
 41 44  1  0  0  0  0
 39 40  1  0  0  0  0
 39 41  1  0  0  0  0
M  END
$$$$
default_name
  -OEChem-02102213163D

 44 43  0     1  0  0  0  0  0999 V2000
    2.4488   -3.0448    2.0990 H   0  0  0  0  0  0  0  0  0  0  0  0
    2.2788   -2.0018    2.3640 C   0  0  0  0  0  0  0  0  0  0  0  0
    2.9228   -1.7258    3.1960 H   0  0  0  0  0  0  0  0  0  0  0  0
    1.2358   -1.8618    2.6430 H   0  0  0  0  0  0  0  0  0  0  0  0
    2.6018   -1.1318    1.1730 C   0  0  0  0  0  0  0  0  0  0  0  0
    3.0048   -1.6348    0.1320 O   0  0  0  0  0  0  0  0  0  0  0  0
    2.4088    0.1752    1.3190 N   0  0  0  0  0  0  0  0  0  0  0  0
    2.0708    0.5242    2.2050 H   0  0  0  0  0  0  0  0  0  0  0  0
    2.6638    1.1782    0.2840 C   0  0  1  0  0  0  0  0  0  0  0  0
    3.3023    0.7261   -0.4769 H   0  0  0  0  0  0  0  0  0  0  0  0
    1.3378    1.5821   -0.3840 C   0  0  0  0  0  0  0  0  0  0  0  0
    1.2768    2.6707   -0.4125 H   0  0  0  0  0  0  0  0  0  0  0  0
    0.5248    1.2457    0.2589 H   0  0  0  0  0  0  0  0  0  0  0  0
    0.9942    0.9402   -2.0491 S   0  0  0  0  0  0  0  0  0  0  0  0
    3.4113    2.3942    0.8625 C   0  0  0  0  0  0  0  0  0  0  0  0
    3.0632    2.8902    1.9340 O   0  0  0  0  0  0  0  0  0  0  0  0
    4.4446    2.8701    0.1549 N   0  0  0  0  0  0  0  0  0  0  0  0
    4.6771    2.4144   -0.7127 H   0  0  0  0  0  0  0  0  0  0  0  0
    5.2508    4.0170    0.5679 C   0  0  0  0  0  0  0  0  0  0  0  0
    4.6226    4.9090    0.6163 H   0  0  0  0  0  0  0  0  0  0  0  0
    5.6706    3.8358    1.5591 H   0  0  0  0  0  0  0  0  0  0  0  0
    6.0620    4.1853   -0.1415 H   0  0  0  0  0  0  0  0  0  0  0  0
    2.2659    8.3424   -5.1171 H   0  0  0  0  0  0  0  0  0  0  0  0
    1.5058    7.7600   -4.5984 C   0  0  0  0  0  0  0  0  0  0  0  0
    0.5211    8.0087   -4.9909 H   0  0  0  0  0  0  0  0  0  0  0  0
    1.5441    7.9763   -3.5325 H   0  0  0  0  0  0  0  0  0  0  0  0
    1.7773    6.2906   -4.8212 C   0  0  0  0  0  0  0  0  0  0  0  0
    2.7395    5.9339   -5.4874 O   0  0  0  0  0  0  0  0  0  0  0  0
    0.9290    5.4377   -4.2532 N   0  0  0  0  0  0  0  0  0  0  0  0
    0.1501    5.8038   -3.7252 H   0  0  0  0  0  0  0  0  0  0  0  0
    1.0282    3.9812   -4.3490 C   0  0  1  0  0  0  0  0  0  0  0  0
    1.3783    3.7134   -5.3474 H   0  0  0  0  0  0  0  0  0  0  0  0
    2.0723    3.5075   -3.3282 C   0  0  0  0  0  0  0  0  0  0  0  0
    3.0111    4.0124   -3.5603 H   0  0  0  0  0  0  0  0  0  0  0  0
    1.7680    3.8360   -2.3342 H   0  0  0  0  0  0  0  0  0  0  0  0
    2.4318    1.7317   -3.2637 S   0  0  0  0  0  0  0  0  0  0  0  0
   -0.3506    3.3323   -4.1339 C   0  0  0  0  0  0  0  0  0  0  0  0
   -1.1787    3.8766   -3.4022 O   0  0  0  0  0  0  0  0  0  0  0  0
   -0.5972    2.1818   -4.7734 N   0  0  0  0  0  0  0  0  0  0  0  0
    0.1447    1.7837   -5.3272 H   0  0  0  0  0  0  0  0  0  0  0  0
   -1.8501    1.4349   -4.6696 C   0  0  0  0  0  0  0  0  0  0  0  0
   -1.9025    0.9373   -3.6997 H   0  0  0  0  0  0  0  0  0  0  0  0
   -2.6997    2.1163   -4.7578 H   0  0  0  0  0  0  0  0  0  0  0  0
   -1.9098    0.6871   -5.4606 H   0  0  0  0  0  0  0  0  0  0  0  0
  5  6  2  0  0  0  0
  5  7  1  0  0  0  0
  2  3  1  0  0  0  0
  2  4  1  0  0  0  0
  2  5  1  0  0  0  0
  1  2  1  0  0  0  0
 15 16  2  0  0  0  0
 15 17  1  0  0  0  0
 14 36  1  0  0  0  0
 11 12  1  0  0  0  0
 11 13  1  0  0  0  0
 11 14  1  0  0  0  0
  9 10  1  0  0  0  0
  9 11  1  0  0  0  0
  9 15  1  0  0  0  0
  7  8  1  0  0  0  0
  7  9  1  0  0  0  0
 19 20  1  0  0  0  0
 19 21  1  0  0  0  0
 19 22  1  0  0  0  0
 17 18  1  0  0  0  0
 17 19  1  0  0  0  0
 27 28  2  0  0  0  0
 27 29  1  0  0  0  0
 24 25  1  0  0  0  0
 24 26  1  0  0  0  0
 24 27  1  0  0  0  0
 23 24  1  0  0  0  0
 37 38  2  0  0  0  0
 37 39  1  0  0  0  0
 33 34  1  0  0  0  0
 33 35  1  0  0  0  0
 33 36  1  0  0  0  0
 31 32  1  0  0  0  0
 31 33  1  0  0  0  0
 31 37  1  0  0  0  0
 29 30  1  0  0  0  0
 29 31  1  0  0  0  0
 41 42  1  0  0  0  0
 41 43  1  0  0  0  0
 41 44  1  0  0  0  0
 39 40  1  0  0  0  0
 39 41  1  0  0  0  0
M  END
$$$$
default_name
  -OEChem-02102213163D

 44 43  0     1  0  0  0  0  0999 V2000
    2.4488   -3.0448    2.0990 H   0  0  0  0  0  0  0  0  0  0  0  0
    2.2788   -2.0018    2.3640 C   0  0  0  0  0  0  0  0  0  0  0  0
    2.9228   -1.7258    3.1960 H   0  0  0  0  0  0  0  0  0  0  0  0
    1.2358   -1.8618    2.6430 H   0  0  0  0  0  0  0  0  0  0  0  0
    2.6018   -1.1318    1.1730 C   0  0  0  0  0  0  0  0  0  0  0  0
    3.0048   -1.6348    0.1320 O   0  0  0  0  0  0  0  0  0  0  0  0
    2.4088    0.1752    1.3190 N   0  0  0  0  0  0  0  0  0  0  0  0
    2.0708    0.5242    2.2050 H   0  0  0  0  0  0  0  0  0  0  0  0
    2.6638    1.1782    0.2840 C   0  0  1  0  0  0  0  0  0  0  0  0
    3.3023    0.7261   -0.4769 H   0  0  0  0  0  0  0  0  0  0  0  0
    1.3378    1.5821   -0.3840 C   0  0  0  0  0  0  0  0  0  0  0  0
    1.3889    2.6372   -0.6554 H   0  0  0  0  0  0  0  0  0  0  0  0
    0.5486    1.4949    0.3624 H   0  0  0  0  0  0  0  0  0  0  0  0
    0.7957    0.6369   -1.8384 S   0  0  0  0  0  0  0  0  0  0  0  0
    3.4113    2.3942    0.8625 C   0  0  0  0  0  0  0  0  0  0  0  0
    3.0632    2.8902    1.9340 O   0  0  0  0  0  0  0  0  0  0  0  0
    4.4446    2.8701    0.1549 N   0  0  0  0  0  0  0  0  0  0  0  0
    4.6771    2.4144   -0.7127 H   0  0  0  0  0  0  0  0  0  0  0  0
    5.2508    4.0170    0.5679 C   0  0  0  0  0  0  0  0  0  0  0  0
    4.6226    4.9090    0.6163 H   0  0  0  0  0  0  0  0  0  0  0  0
    5.6706    3.8358    1.5591 H   0  0  0  0  0  0  0  0  0  0  0  0
    6.0620    4.1853   -0.1415 H   0  0  0  0  0  0  0  0  0  0  0  0
    2.5832    6.9792   -6.5715 H   0  0  0  0  0  0  0  0  0  0  0  0
    1.8107    6.6202   -5.8931 C   0  0  0  0  0  0  0  0  0  0  0  0
    0.8290    6.8932   -6.2768 H   0  0  0  0  0  0  0  0  0  0  0  0
    1.9573    7.0586   -4.9078 H   0  0  0  0  0  0  0  0  0  0  0  0
    1.9081    5.1160   -5.7912 C   0  0  0  0  0  0  0  0  0  0  0  0
    2.7708    4.5091   -6.4112 O   0  0  0  0  0  0  0  0  0  0  0  0
    1.0238    4.5164   -4.9986 N   0  0  0  0  0  0  0  0  0  0  0  0
    0.3327    5.0802   -4.5253 H   0  0  0  0  0  0  0  0  0  0  0  0
    0.9620    3.0733   -4.7666 C   0  0  1  0  0  0  0  0  0  0  0  0
    1.2004    2.5531   -5.6960 H   0  0  0  0  0  0  0  0  0  0  0  0
    2.0298    2.7130   -3.7242 C   0  0  0  0  0  0  0  0  0  0  0  0
    2.9945    3.0383   -4.1164 H   0  0  0  0  0  0  0  0  0  0  0  0
    1.8427    3.2854   -2.8155 H   0  0  0  0  0  0  0  0  0  0  0  0
    2.2054    0.9645   -3.2784 S   0  0  0  0  0  0  0  0  0  0  0  0
   -0.4552    2.6576   -4.3342 C   0  0  0  0  0  0  0  0  0  0  0  0
   -1.1600    3.4444   -3.7005 O   0  0  0  0  0  0  0  0  0  0  0  0
   -0.8716    1.4330   -4.6813 N   0  0  0  0  0  0  0  0  0  0  0  0
   -0.2227    0.8372   -5.1704 H   0  0  0  0  0  0  0  0  0  0  0  0
   -2.1834    0.8831   -4.3417 C   0  0  0  0  0  0  0  0  0  0  0  0
   -2.2091    0.6201   -3.2829 H   0  0  0  0  0  0  0  0  0  0  0  0
   -2.9613    1.6255   -4.5352 H   0  0  0  0  0  0  0  0  0  0  0  0
   -2.3846   -0.0072   -4.9378 H   0  0  0  0  0  0  0  0  0  0  0  0
  5  6  2  0  0  0  0
  5  7  1  0  0  0  0
  2  3  1  0  0  0  0
  2  4  1  0  0  0  0
  2  5  1  0  0  0  0
  1  2  1  0  0  0  0
 15 16  2  0  0  0  0
 15 17  1  0  0  0  0
 14 36  1  0  0  0  0
 11 12  1  0  0  0  0
 11 13  1  0  0  0  0
 11 14  1  0  0  0  0
  9 10  1  0  0  0  0
  9 11  1  0  0  0  0
  9 15  1  0  0  0  0
  7  8  1  0  0  0  0
  7  9  1  0  0  0  0
 19 20  1  0  0  0  0
 19 21  1  0  0  0  0
 19 22  1  0  0  0  0
 17 18  1  0  0  0  0
 17 19  1  0  0  0  0
 27 28  2  0  0  0  0
 27 29  1  0  0  0  0
 24 25  1  0  0  0  0
 24 26  1  0  0  0  0
 24 27  1  0  0  0  0
 23 24  1  0  0  0  0
 37 38  2  0  0  0  0
 37 39  1  0  0  0  0
 33 34  1  0  0  0  0
 33 35  1  0  0  0  0
 33 36  1  0  0  0  0
 31 32  1  0  0  0  0
 31 33  1  0  0  0  0
 31 37  1  0  0  0  0
 29 30  1  0  0  0  0
 29 31  1  0  0  0  0
 41 42  1  0  0  0  0
 41 43  1  0  0  0  0
 41 44  1  0  0  0  0
 39 40  1  0  0  0  0
 39 41  1  0  0  0  0
M  END
$$$$
default_name
  -OEChem-02102213163D

 44 43  0     1  0  0  0  0  0999 V2000
    2.4488   -3.0448    2.0990 H   0  0  0  0  0  0  0  0  0  0  0  0
    2.2788   -2.0018    2.3640 C   0  0  0  0  0  0  0  0  0  0  0  0
    2.9228   -1.7258    3.1960 H   0  0  0  0  0  0  0  0  0  0  0  0
    1.2358   -1.8618    2.6430 H   0  0  0  0  0  0  0  0  0  0  0  0
    2.6018   -1.1318    1.1730 C   0  0  0  0  0  0  0  0  0  0  0  0
    3.0048   -1.6348    0.1320 O   0  0  0  0  0  0  0  0  0  0  0  0
    2.4088    0.1752    1.3190 N   0  0  0  0  0  0  0  0  0  0  0  0
    2.0708    0.5242    2.2050 H   0  0  0  0  0  0  0  0  0  0  0  0
    2.6638    1.1782    0.2840 C   0  0  1  0  0  0  0  0  0  0  0  0
    3.3023    0.7261   -0.4769 H   0  0  0  0  0  0  0  0  0  0  0  0
    1.3378    1.5821   -0.3840 C   0  0  0  0  0  0  0  0  0  0  0  0
    1.4770    2.5381   -0.8902 H   0  0  0  0  0  0  0  0  0  0  0  0
    0.6066    1.7559    0.4051 H   0  0  0  0  0  0  0  0  0  0  0  0
    0.5842    0.4132   -1.5538 S   0  0  0  0  0  0  0  0  0  0  0  0
    3.4113    2.3942    0.8625 C   0  0  0  0  0  0  0  0  0  0  0  0
    3.0632    2.8902    1.9340 O   0  0  0  0  0  0  0  0  0  0  0  0
    4.4446    2.8701    0.1549 N   0  0  0  0  0  0  0  0  0  0  0  0
    4.6771    2.4144   -0.7127 H   0  0  0  0  0  0  0  0  0  0  0  0
    5.2508    4.0170    0.5679 C   0  0  0  0  0  0  0  0  0  0  0  0
    4.6226    4.9090    0.6163 H   0  0  0  0  0  0  0  0  0  0  0  0
    5.6706    3.8358    1.5591 H   0  0  0  0  0  0  0  0  0  0  0  0
    6.0620    4.1853   -0.1415 H   0  0  0  0  0  0  0  0  0  0  0  0
    2.6377    5.3024   -7.6939 H   0  0  0  0  0  0  0  0  0  0  0  0
    1.8892    5.1962   -6.9101 C   0  0  0  0  0  0  0  0  0  0  0  0
    0.9137    5.4943   -7.2910 H   0  0  0  0  0  0  0  0  0  0  0  0
    2.1599    5.8190   -6.0596 H   0  0  0  0  0  0  0  0  0  0  0  0
    1.8365    3.7504   -6.4751 C   0  0  0  0  0  0  0  0  0  0  0  0
    2.5781    2.9232   -6.9878 O   0  0  0  0  0  0  0  0  0  0  0  0
    0.9612    3.4497   -5.5195 N   0  0  0  0  0  0  0  0  0  0  0  0
    0.3734    4.1822   -5.1491 H   0  0  0  0  0  0  0  0  0  0  0  0
    0.7677    2.1106   -4.9631 C   0  0  1  0  0  0  0  0  0  0  0  0
    0.8746    1.3745   -5.7619 H   0  0  0  0  0  0  0  0  0  0  0  0
    1.8725    1.8620   -3.9267 C   0  0  0  0  0  0  0  0  0  0  0  0
    2.8311    1.9752   -4.4350 H   0  0  0  0  0  0  0  0  0  0  0  0
    1.8203    2.6378   -3.1626 H   0  0  0  0  0  0  0  0  0  0  0  0
    1.8997    0.2456   -3.1061 S   0  0  0  0  0  0  0  0  0  0  0  0
   -0.6457    1.9730   -4.3700 C   0  0  0  0  0  0  0  0  0  0  0  0
   -1.2109    2.9583   -3.8935 O   0  0  0  0  0  0  0  0  0  0  0  0
   -1.2146    0.7612   -4.4067 N   0  0  0  0  0  0  0  0  0  0  0  0
   -0.6731   -0.0009   -4.7828 H   0  0  0  0  0  0  0  0  0  0  0  0
   -2.5450    0.4606   -3.8792 C   0  0  0  0  0  0  0  0  0  0  0  0
   -2.5126    0.4411   -2.7886 H   0  0  0  0  0  0  0  0  0  0  0  0
   -3.2540    1.2304   -4.1930 H   0  0  0  0  0  0  0  0  0  0  0  0
   -2.8857   -0.5079   -4.2458 H   0  0  0  0  0  0  0  0  0  0  0  0
  5  6  2  0  0  0  0
  5  7  1  0  0  0  0
  2  3  1  0  0  0  0
  2  4  1  0  0  0  0
  2  5  1  0  0  0  0
  1  2  1  0  0  0  0
 15 16  2  0  0  0  0
 15 17  1  0  0  0  0
 14 36  1  0  0  0  0
 11 12  1  0  0  0  0
 11 13  1  0  0  0  0
 11 14  1  0  0  0  0
  9 10  1  0  0  0  0
  9 11  1  0  0  0  0
  9 15  1  0  0  0  0
  7  8  1  0  0  0  0
  7  9  1  0  0  0  0
 19 20  1  0  0  0  0
 19 21  1  0  0  0  0
 19 22  1  0  0  0  0
 17 18  1  0  0  0  0
 17 19  1  0  0  0  0
 27 28  2  0  0  0  0
 27 29  1  0  0  0  0
 24 25  1  0  0  0  0
 24 26  1  0  0  0  0
 24 27  1  0  0  0  0
 23 24  1  0  0  0  0
 37 38  2  0  0  0  0
 37 39  1  0  0  0  0
 33 34  1  0  0  0  0
 33 35  1  0  0  0  0
 33 36  1  0  0  0  0
 31 32  1  0  0  0  0
 31 33  1  0  0  0  0
 31 37  1  0  0  0  0
 29 30  1  0  0  0  0
 29 31  1  0  0  0  0
 41 42  1  0  0  0  0
 41 43  1  0  0  0  0
 41 44  1  0  0  0  0
 39 40  1  0  0  0  0
 39 41  1  0  0  0  0
M  END
$$$$
default_name
  -OEChem-02102213163D

 44 43  0     1  0  0  0  0  0999 V2000
    2.4488   -3.0448    2.0990 H   0  0  0  0  0  0  0  0  0  0  0  0
    2.2788   -2.0018    2.3640 C   0  0  0  0  0  0  0  0  0  0  0  0
    2.9228   -1.7258    3.1960 H   0  0  0  0  0  0  0  0  0  0  0  0
    1.2358   -1.8618    2.6430 H   0  0  0  0  0  0  0  0  0  0  0  0
    2.6018   -1.1318    1.1730 C   0  0  0  0  0  0  0  0  0  0  0  0
    3.0048   -1.6348    0.1320 O   0  0  0  0  0  0  0  0  0  0  0  0
    2.4088    0.1752    1.3190 N   0  0  0  0  0  0  0  0  0  0  0  0
    2.0708    0.5242    2.2050 H   0  0  0  0  0  0  0  0  0  0  0  0
    2.6638    1.1782    0.2840 C   0  0  1  0  0  0  0  0  0  0  0  0
    3.3023    0.7261   -0.4769 H   0  0  0  0  0  0  0  0  0  0  0  0
    1.3378    1.5821   -0.3840 C   0  0  0  0  0  0  0  0  0  0  0  0
    1.5349    2.3801   -1.1008 H   0  0  0  0  0  0  0  0  0  0  0  0
    0.6949    2.0111    0.3842 H   0  0  0  0  0  0  0  0  0  0  0  0
    0.3741    0.2843   -1.2146 S   0  0  0  0  0  0  0  0  0  0  0  0
    3.4113    2.3942    0.8625 C   0  0  0  0  0  0  0  0  0  0  0  0
    3.0632    2.8902    1.9340 O   0  0  0  0  0  0  0  0  0  0  0  0
    4.4446    2.8701    0.1549 N   0  0  0  0  0  0  0  0  0  0  0  0
    4.6771    2.4144   -0.7127 H   0  0  0  0  0  0  0  0  0  0  0  0
    5.2508    4.0170    0.5679 C   0  0  0  0  0  0  0  0  0  0  0  0
    4.6226    4.9090    0.6163 H   0  0  0  0  0  0  0  0  0  0  0  0
    5.6706    3.8358    1.5591 H   0  0  0  0  0  0  0  0  0  0  0  0
    6.0620    4.1853   -0.1415 H   0  0  0  0  0  0  0  0  0  0  0  0
    2.4258    3.4262   -8.4078 H   0  0  0  0  0  0  0  0  0  0  0  0
    1.7360    3.5850   -7.5802 C   0  0  0  0  0  0  0  0  0  0  0  0
    0.7694    3.9073   -7.9644 H   0  0  0  0  0  0  0  0  0  0  0  0
    2.1381    4.3420   -6.9095 H   0  0  0  0  0  0  0  0  0  0  0  0
    1.5675    2.2868   -6.8262 C   0  0  0  0  0  0  0  0  0  0  0  0
    2.1747    1.2845   -7.1780 O   0  0  0  0  0  0  0  0  0  0  0  0
    0.7455    2.3101   -5.7805 N   0  0  0  0  0  0  0  0  0  0  0  0
    0.2694    3.1712   -5.5541 H   0  0  0  0  0  0  0  0  0  0  0  0
    0.4585    1.1587   -4.9249 C   0  0  1  0  0  0  0  0  0  0  0  0
    0.4230    0.2581   -5.5405 H   0  0  0  0  0  0  0  0  0  0  0  0
    1.6112    1.0125   -3.9217 C   0  0  0  0  0  0  0  0  0  0  0  0
    2.5323    0.8956   -4.4946 H   0  0  0  0  0  0  0  0  0  0  0  0
    1.7023    1.9374   -3.3520 H   0  0  0  0  0  0  0  0  0  0  0  0
    1.5352   -0.3761   -2.7585 S   0  0  0  0  0  0  0  0  0  0  0  0
   -0.9090    1.3251   -4.2390 C   0  0  0  0  0  0  0  0  0  0  0  0
   -1.3277    2.4515   -3.9681 O   0  0  0  0  0  0  0  0  0  0  0  0
   -1.6027    0.2120   -3.9683 N   0  0  0  0  0  0  0  0  0  0  0  0
   -1.1761   -0.6733   -4.1910 H   0  0  0  0  0  0  0  0  0  0  0  0
   -2.9103    0.1963   -3.3137 C   0  0  0  0  0  0  0  0  0  0  0  0
   -2.7922    0.4125   -2.2506 H   0  0  0  0  0  0  0  0  0  0  0  0
   -3.5579    0.9580   -3.7544 H   0  0  0  0  0  0  0  0  0  0  0  0
   -3.3790   -0.7809   -3.4316 H   0  0  0  0  0  0  0  0  0  0  0  0
  5  6  2  0  0  0  0
  5  7  1  0  0  0  0
  2  3  1  0  0  0  0
  2  4  1  0  0  0  0
  2  5  1  0  0  0  0
  1  2  1  0  0  0  0
 15 16  2  0  0  0  0
 15 17  1  0  0  0  0
 14 36  1  0  0  0  0
 11 12  1  0  0  0  0
 11 13  1  0  0  0  0
 11 14  1  0  0  0  0
  9 10  1  0  0  0  0
  9 11  1  0  0  0  0
  9 15  1  0  0  0  0
  7  8  1  0  0  0  0
  7  9  1  0  0  0  0
 19 20  1  0  0  0  0
 19 21  1  0  0  0  0
 19 22  1  0  0  0  0
 17 18  1  0  0  0  0
 17 19  1  0  0  0  0
 27 28  2  0  0  0  0
 27 29  1  0  0  0  0
 24 25  1  0  0  0  0
 24 26  1  0  0  0  0
 24 27  1  0  0  0  0
 23 24  1  0  0  0  0
 37 38  2  0  0  0  0
 37 39  1  0  0  0  0
 33 34  1  0  0  0  0
 33 35  1  0  0  0  0
 33 36  1  0  0  0  0
 31 32  1  0  0  0  0
 31 33  1  0  0  0  0
 31 37  1  0  0  0  0
 29 30  1  0  0  0  0
 29 31  1  0  0  0  0
 41 42  1  0  0  0  0
 41 43  1  0  0  0  0
 41 44  1  0  0  0  0
 39 40  1  0  0  0  0
 39 41  1  0  0  0  0
M  END
$$$$
default_name
  -OEChem-02102213163D

 44 43  0     1  0  0  0  0  0999 V2000
    2.4488   -3.0448    2.0990 H   0  0  0  0  0  0  0  0  0  0  0  0
    2.2788   -2.0018    2.3640 C   0  0  0  0  0  0  0  0  0  0  0  0
    2.9228   -1.7258    3.1960 H   0  0  0  0  0  0  0  0  0  0  0  0
    1.2358   -1.8618    2.6430 H   0  0  0  0  0  0  0  0  0  0  0  0
    2.6018   -1.1318    1.1730 C   0  0  0  0  0  0  0  0  0  0  0  0
    3.0048   -1.6348    0.1320 O   0  0  0  0  0  0  0  0  0  0  0  0
    2.4088    0.1752    1.3190 N   0  0  0  0  0  0  0  0  0  0  0  0
    2.0708    0.5242    2.2050 H   0  0  0  0  0  0  0  0  0  0  0  0
    2.6638    1.1782    0.2840 C   0  0  1  0  0  0  0  0  0  0  0  0
    3.3023    0.7261   -0.4769 H   0  0  0  0  0  0  0  0  0  0  0  0
    1.3378    1.5821   -0.3840 C   0  0  0  0  0  0  0  0  0  0  0  0
    1.5589    2.1740   -1.2729 H   0  0  0  0  0  0  0  0  0  0  0  0
    0.8074    2.2430    0.3011 H   0  0  0  0  0  0  0  0  0  0  0  0
    0.1797    0.2592   -0.8439 S   0  0  0  0  0  0  0  0  0  0  0  0
    3.4113    2.3942    0.8625 C   0  0  0  0  0  0  0  0  0  0  0  0
    3.0632    2.8902    1.9340 O   0  0  0  0  0  0  0  0  0  0  0  0
    4.4446    2.8701    0.1549 N   0  0  0  0  0  0  0  0  0  0  0  0
    4.6771    2.4144   -0.7127 H   0  0  0  0  0  0  0  0  0  0  0  0
    5.2508    4.0170    0.5679 C   0  0  0  0  0  0  0  0  0  0  0  0
    4.6226    4.9090    0.6163 H   0  0  0  0  0  0  0  0  0  0  0  0
    5.6706    3.8358    1.5591 H   0  0  0  0  0  0  0  0  0  0  0  0
    6.0620    4.1853   -0.1415 H   0  0  0  0  0  0  0  0  0  0  0  0
    1.9618    1.4786   -8.6644 H   0  0  0  0  0  0  0  0  0  0  0  0
    1.3614    1.8965   -7.8577 C   0  0  0  0  0  0  0  0  0  0  0  0
    0.4061    2.2404   -8.2510 H   0  0  0  0  0  0  0  0  0  0  0  0
    1.8933    2.7282   -7.3996 H   0  0  0  0  0  0  0  0  0  0  0  0
    1.1194    0.8249   -6.8207 C   0  0  0  0  0  0  0  0  0  0  0  0
    1.5880   -0.2956   -6.9688 O   0  0  0  0  0  0  0  0  0  0  0  0
    0.3915    1.1754   -5.7638 N   0  0  0  0  0  0  0  0  0  0  0  0
    0.0279    2.1159   -5.7128 H   0  0  0  0  0  0  0  0  0  0  0  0
    0.0555    0.2825   -4.6547 C   0  0  1  0  0  0  0  0  0  0  0  0
   -0.1236   -0.7202   -5.0469 H   0  0  0  0  0  0  0  0  0  0  0  0
    1.2638    0.2224   -3.7097 C   0  0  0  0  0  0  0  0  0  0  0  0
    2.1183   -0.1270   -4.2911 H   0  0  0  0  0  0  0  0  0  0  0  0
    1.4968    1.2319   -3.3707 H   0  0  0  0  0  0  0  0  0  0  0  0
    1.1370   -0.8581   -2.2594 S   0  0  0  0  0  0  0  0  0  0  0  0
   -1.2273    0.7581   -3.9500 C   0  0  0  0  0  0  0  0  0  0  0  0
   -1.5026    1.9584   -3.9191 O   0  0  0  0  0  0  0  0  0  0  0  0
   -2.0096   -0.1770   -3.3959 N   0  0  0  0  0  0  0  0  0  0  0  0
   -1.6972   -1.1343   -3.4351 H   0  0  0  0  0  0  0  0  0  0  0  0
   -3.2545    0.1082   -2.6838 C   0  0  0  0  0  0  0  0  0  0  0  0
   -3.0290    0.5364   -1.7056 H   0  0  0  0  0  0  0  0  0  0  0  0
   -3.8523    0.8269   -3.2493 H   0  0  0  0  0  0  0  0  0  0  0  0
   -3.8308   -0.8076   -2.5507 H   0  0  0  0  0  0  0  0  0  0  0  0
  5  6  2  0  0  0  0
  5  7  1  0  0  0  0
  2  3  1  0  0  0  0
  2  4  1  0  0  0  0
  2  5  1  0  0  0  0
  1  2  1  0  0  0  0
 15 16  2  0  0  0  0
 15 17  1  0  0  0  0
 14 36  1  0  0  0  0
 11 12  1  0  0  0  0
 11 13  1  0  0  0  0
 11 14  1  0  0  0  0
  9 10  1  0  0  0  0
  9 11  1  0  0  0  0
  9 15  1  0  0  0  0
  7  8  1  0  0  0  0
  7  9  1  0  0  0  0
 19 20  1  0  0  0  0
 19 21  1  0  0  0  0
 19 22  1  0  0  0  0
 17 18  1  0  0  0  0
 17 19  1  0  0  0  0
 27 28  2  0  0  0  0
 27 29  1  0  0  0  0
 24 25  1  0  0  0  0
 24 26  1  0  0  0  0
 24 27  1  0  0  0  0
 23 24  1  0  0  0  0
 37 38  2  0  0  0  0
 37 39  1  0  0  0  0
 33 34  1  0  0  0  0
 33 35  1  0  0  0  0
 33 36  1  0  0  0  0
 31 32  1  0  0  0  0
 31 33  1  0  0  0  0
 31 37  1  0  0  0  0
 29 30  1  0  0  0  0
 29 31  1  0  0  0  0
 41 42  1  0  0  0  0
 41 43  1  0  0  0  0
 41 44  1  0  0  0  0
 39 40  1  0  0  0  0
 39 41  1  0  0  0  0
M  END
$$$$
default_name
  -OEChem-02102213163D

 44 43  0     1  0  0  0  0  0999 V2000
    2.4488   -3.0448    2.0990 H   0  0  0  0  0  0  0  0  0  0  0  0
    2.2788   -2.0018    2.3640 C   0  0  0  0  0  0  0  0  0  0  0  0
    2.9228   -1.7258    3.1960 H   0  0  0  0  0  0  0  0  0  0  0  0
    1.2358   -1.8618    2.6430 H   0  0  0  0  0  0  0  0  0  0  0  0
    2.6018   -1.1318    1.1730 C   0  0  0  0  0  0  0  0  0  0  0  0
    3.0048   -1.6348    0.1320 O   0  0  0  0  0  0  0  0  0  0  0  0
    2.4088    0.1752    1.3190 N   0  0  0  0  0  0  0  0  0  0  0  0
    2.0708    0.5242    2.2050 H   0  0  0  0  0  0  0  0  0  0  0  0
    2.6638    1.1782    0.2840 C   0  0  1  0  0  0  0  0  0  0  0  0
    3.3023    0.7261   -0.4769 H   0  0  0  0  0  0  0  0  0  0  0  0
    1.3378    1.5821   -0.3840 C   0  0  0  0  0  0  0  0  0  0  0  0
    1.5471    1.9339   -1.3949 H   0  0  0  0  0  0  0  0  0  0  0  0
    0.9365    2.4359    0.1614 H   0  0  0  0  0  0  0  0  0  0  0  0
    0.0143    0.3394   -0.4671 S   0  0  0  0  0  0  0  0  0  0  0  0
    3.4113    2.3942    0.8625 C   0  0  0  0  0  0  0  0  0  0  0  0
    3.0632    2.8902    1.9340 O   0  0  0  0  0  0  0  0  0  0  0  0
    4.4446    2.8701    0.1549 N   0  0  0  0  0  0  0  0  0  0  0  0
    4.6771    2.4144   -0.7127 H   0  0  0  0  0  0  0  0  0  0  0  0
    5.2508    4.0170    0.5679 C   0  0  0  0  0  0  0  0  0  0  0  0
    4.6226    4.9090    0.6163 H   0  0  0  0  0  0  0  0  0  0  0  0
    5.6706    3.8358    1.5591 H   0  0  0  0  0  0  0  0  0  0  0  0
    6.0620    4.1853   -0.1415 H   0  0  0  0  0  0  0  0  0  0  0  0
    1.2773   -0.4078   -8.4464 H   0  0  0  0  0  0  0  0  0  0  0  0
    0.7910    0.2457   -7.7237 C   0  0  0  0  0  0  0  0  0  0  0  0
   -0.1517    0.6072   -8.1314 H   0  0  0  0  0  0  0  0  0  0  0  0
    1.4422    1.0876   -7.4963 H   0  0  0  0  0  0  0  0  0  0  0  0
    0.5227   -0.5355   -6.4588 C   0  0  0  0  0  0  0  0  0  0  0  0
    0.8580   -1.7092   -6.3744 O   0  0  0  0  0  0  0  0  0  0  0  0
   -0.0769    0.1228   -5.4705 N   0  0  0  0  0  0  0  0  0  0  0  0
   -0.3348    1.0884   -5.6142 H   0  0  0  0  0  0  0  0  0  0  0  0
   -0.4139   -0.4583   -4.1709 C   0  0  1  0  0  0  0  0  0  0  0  0
   -0.7280   -1.4937   -4.3149 H   0  0  0  0  0  0  0  0  0  0  0  0
    0.8538   -0.4545   -3.3051 C   0  0  0  0  0  0  0  0  0  0  0  0
    1.6173   -1.0227   -3.8383 H   0  0  0  0  0  0  0  0  0  0  0  0
    1.2178    0.5694   -3.2174 H   0  0  0  0  0  0  0  0  0  0  0  0
    0.7321   -1.1676   -1.6427 S   0  0  0  0  0  0  0  0  0  0  0  0
   -1.5788    0.3107   -3.5229 C   0  0  0  0  0  0  0  0  0  0  0  0
   -1.7236    1.5127   -3.7500 O   0  0  0  0  0  0  0  0  0  0  0  0
   -2.4073   -0.3795   -2.7287 N   0  0  0  0  0  0  0  0  0  0  0  0
   -2.2011   -1.3524   -2.5668 H   0  0  0  0  0  0  0  0  0  0  0  0
   -3.5540    0.2022   -2.0322 C   0  0  0  0  0  0  0  0  0  0  0  0
   -3.2068    0.8041   -1.1907 H   0  0  0  0  0  0  0  0  0  0  0  0
   -4.1170    0.8460   -2.7122 H   0  0  0  0  0  0  0  0  0  0  0  0
   -4.2103   -0.5861   -1.6632 H   0  0  0  0  0  0  0  0  0  0  0  0
  5  6  2  0  0  0  0
  5  7  1  0  0  0  0
  2  3  1  0  0  0  0
  2  4  1  0  0  0  0
  2  5  1  0  0  0  0
  1  2  1  0  0  0  0
 15 16  2  0  0  0  0
 15 17  1  0  0  0  0
 14 36  1  0  0  0  0
 11 12  1  0  0  0  0
 11 13  1  0  0  0  0
 11 14  1  0  0  0  0
  9 10  1  0  0  0  0
  9 11  1  0  0  0  0
  9 15  1  0  0  0  0
  7  8  1  0  0  0  0
  7  9  1  0  0  0  0
 19 20  1  0  0  0  0
 19 21  1  0  0  0  0
 19 22  1  0  0  0  0
 17 18  1  0  0  0  0
 17 19  1  0  0  0  0
 27 28  2  0  0  0  0
 27 29  1  0  0  0  0
 24 25  1  0  0  0  0
 24 26  1  0  0  0  0
 24 27  1  0  0  0  0
 23 24  1  0  0  0  0
 37 38  2  0  0  0  0
 37 39  1  0  0  0  0
 33 34  1  0  0  0  0
 33 35  1  0  0  0  0
 33 36  1  0  0  0  0
 31 32  1  0  0  0  0
 31 33  1  0  0  0  0
 31 37  1  0  0  0  0
 29 30  1  0  0  0  0
 29 31  1  0  0  0  0
 41 42  1  0  0  0  0
 41 43  1  0  0  0  0
 41 44  1  0  0  0  0
 39 40  1  0  0  0  0
 39 41  1  0  0  0  0
M  END
$$$$
default_name
  -OEChem-02102213163D

 44 43  0     1  0  0  0  0  0999 V2000
    2.4488   -3.0448    2.0990 H   0  0  0  0  0  0  0  0  0  0  0  0
    2.2788   -2.0018    2.3640 C   0  0  0  0  0  0  0  0  0  0  0  0
    2.9228   -1.7258    3.1960 H   0  0  0  0  0  0  0  0  0  0  0  0
    1.2358   -1.8618    2.6430 H   0  0  0  0  0  0  0  0  0  0  0  0
    2.6018   -1.1318    1.1730 C   0  0  0  0  0  0  0  0  0  0  0  0
    3.0048   -1.6348    0.1320 O   0  0  0  0  0  0  0  0  0  0  0  0
    2.4088    0.1752    1.3190 N   0  0  0  0  0  0  0  0  0  0  0  0
    2.0708    0.5242    2.2050 H   0  0  0  0  0  0  0  0  0  0  0  0
    2.6638    1.1782    0.2840 C   0  0  1  0  0  0  0  0  0  0  0  0
    3.3023    0.7261   -0.4769 H   0  0  0  0  0  0  0  0  0  0  0  0
    1.3378    1.5821   -0.3840 C   0  0  0  0  0  0  0  0  0  0  0  0
    1.5005    1.6760   -1.4583 H   0  0  0  0  0  0  0  0  0  0  0  0
    1.0734    2.5765   -0.0253 H   0  0  0  0  0  0  0  0  0  0  0  0
   -0.1108    0.5195   -0.1097 S   0  0  0  0  0  0  0  0  0  0  0  0
    3.4113    2.3942    0.8625 C   0  0  0  0  0  0  0  0  0  0  0  0
    3.0632    2.8902    1.9340 O   0  0  0  0  0  0  0  0  0  0  0  0
    4.4446    2.8701    0.1549 N   0  0  0  0  0  0  0  0  0  0  0  0
    4.6771    2.4144   -0.7127 H   0  0  0  0  0  0  0  0  0  0  0  0
    5.2508    4.0170    0.5679 C   0  0  0  0  0  0  0  0  0  0  0  0
    4.6226    4.9090    0.6163 H   0  0  0  0  0  0  0  0  0  0  0  0
    5.6706    3.8358    1.5591 H   0  0  0  0  0  0  0  0  0  0  0  0
    6.0620    4.1853   -0.1415 H   0  0  0  0  0  0  0  0  0  0  0  0
    0.4191   -2.1044   -7.7685 H   0  0  0  0  0  0  0  0  0  0  0  0
    0.0637   -1.2548   -7.1873 C   0  0  0  0  0  0  0  0  0  0  0  0
   -0.8658   -0.8810   -7.6137 H   0  0  0  0  0  0  0  0  0  0  0  0
    0.8157   -0.4680   -7.1931 H   0  0  0  0  0  0  0  0  0  0  0  0
   -0.1819   -1.7019   -5.7652 C   0  0  0  0  0  0  0  0  0  0  0  0
    0.0345   -2.8601   -5.4353 O   0  0  0  0  0  0  0  0  0  0  0  0
   -0.6276   -0.7758   -4.9206 N   0  0  0  0  0  0  0  0  0  0  0  0
   -0.7938    0.1586   -5.2652 H   0  0  0  0  0  0  0  0  0  0  0  0
   -0.9176   -1.0133   -3.5065 C   0  0  1  0  0  0  0  0  0  0  0  0
   -1.3489   -2.0096   -3.3942 H   0  0  0  0  0  0  0  0  0  0  0  0
    0.4092   -0.9720   -2.7354 C   0  0  0  0  0  0  0  0  0  0  0  0
    1.0636   -1.7307   -3.1671 H   0  0  0  0  0  0  0  0  0  0  0  0
    0.8842   -0.0051   -2.9026 H   0  0  0  0  0  0  0  0  0  0  0  0
    0.3481   -1.2835   -0.9505 S   0  0  0  0  0  0  0  0  0  0  0  0
   -1.9395    0.0132   -2.9865 C   0  0  0  0  0  0  0  0  0  0  0  0
   -1.9756    1.1447   -3.4722 O   0  0  0  0  0  0  0  0  0  0  0  0
   -2.7689   -0.3815   -2.0120 N   0  0  0  0  0  0  0  0  0  0  0  0
   -2.6532   -1.3129   -1.6451 H   0  0  0  0  0  0  0  0  0  0  0  0
   -3.7885    0.4721   -1.4035 C   0  0  0  0  0  0  0  0  0  0  0  0
   -3.3135    1.1976   -0.7410 H   0  0  0  0  0  0  0  0  0  0  0  0
   -4.3341    1.0140   -2.1797 H   0  0  0  0  0  0  0  0  0  0  0  0
   -4.4918   -0.1316   -0.8295 H   0  0  0  0  0  0  0  0  0  0  0  0
  5  6  2  0  0  0  0
  5  7  1  0  0  0  0
  2  3  1  0  0  0  0
  2  4  1  0  0  0  0
  2  5  1  0  0  0  0
  1  2  1  0  0  0  0
 15 16  2  0  0  0  0
 15 17  1  0  0  0  0
 14 36  1  0  0  0  0
 11 12  1  0  0  0  0
 11 13  1  0  0  0  0
 11 14  1  0  0  0  0
  9 10  1  0  0  0  0
  9 11  1  0  0  0  0
  9 15  1  0  0  0  0
  7  8  1  0  0  0  0
  7  9  1  0  0  0  0
 19 20  1  0  0  0  0
 19 21  1  0  0  0  0
 19 22  1  0  0  0  0
 17 18  1  0  0  0  0
 17 19  1  0  0  0  0
 27 28  2  0  0  0  0
 27 29  1  0  0  0  0
 24 25  1  0  0  0  0
 24 26  1  0  0  0  0
 24 27  1  0  0  0  0
 23 24  1  0  0  0  0
 37 38  2  0  0  0  0
 37 39  1  0  0  0  0
 33 34  1  0  0  0  0
 33 35  1  0  0  0  0
 33 36  1  0  0  0  0
 31 32  1  0  0  0  0
 31 33  1  0  0  0  0
 31 37  1  0  0  0  0
 29 30  1  0  0  0  0
 29 31  1  0  0  0  0
 41 42  1  0  0  0  0
 41 43  1  0  0  0  0
 41 44  1  0  0  0  0
 39 40  1  0  0  0  0
 39 41  1  0  0  0  0
M  END
$$$$
default_name
  -OEChem-02102213163D

 44 43  0     1  0  0  0  0  0999 V2000
    2.4488   -3.0448    2.0990 H   0  0  0  0  0  0  0  0  0  0  0  0
    2.2788   -2.0018    2.3640 C   0  0  0  0  0  0  0  0  0  0  0  0
    2.9228   -1.7258    3.1960 H   0  0  0  0  0  0  0  0  0  0  0  0
    1.2358   -1.8618    2.6430 H   0  0  0  0  0  0  0  0  0  0  0  0
    2.6018   -1.1318    1.1730 C   0  0  0  0  0  0  0  0  0  0  0  0
    3.0048   -1.6348    0.1320 O   0  0  0  0  0  0  0  0  0  0  0  0
    2.4088    0.1752    1.3190 N   0  0  0  0  0  0  0  0  0  0  0  0
    2.0708    0.5242    2.2050 H   0  0  0  0  0  0  0  0  0  0  0  0
    2.6638    1.1782    0.2840 C   0  0  1  0  0  0  0  0  0  0  0  0
    3.3023    0.7261   -0.4769 H   0  0  0  0  0  0  0  0  0  0  0  0
    1.3378    1.5821   -0.3840 C   0  0  0  0  0  0  0  0  0  0  0  0
    1.4222    1.4181   -1.4589 H   0  0  0  0  0  0  0  0  0  0  0  0
    1.2087    2.6553   -0.2462 H   0  0  0  0  0  0  0  0  0  0  0  0
   -0.1872    0.7872    0.2038 S   0  0  0  0  0  0  0  0  0  0  0  0
    3.4113    2.3942    0.8625 C   0  0  0  0  0  0  0  0  0  0  0  0
    3.0632    2.8902    1.9340 O   0  0  0  0  0  0  0  0  0  0  0  0
    4.4446    2.8701    0.1549 N   0  0  0  0  0  0  0  0  0  0  0  0
    4.6771    2.4144   -0.7127 H   0  0  0  0  0  0  0  0  0  0  0  0
    5.2508    4.0170    0.5679 C   0  0  0  0  0  0  0  0  0  0  0  0
    4.6226    4.9090    0.6163 H   0  0  0  0  0  0  0  0  0  0  0  0
    5.6706    3.8358    1.5591 H   0  0  0  0  0  0  0  0  0  0  0  0
    6.0620    4.1853   -0.1415 H   0  0  0  0  0  0  0  0  0  0  0  0
   -0.5545   -3.4956   -6.6770 H   0  0  0  0  0  0  0  0  0  0  0  0
   -0.7709   -2.5029   -6.2850 C   0  0  0  0  0  0  0  0  0  0  0  0
   -1.6876   -2.1228   -6.7332 H   0  0  0  0  0  0  0  0  0  0  0  0
    0.0563   -1.8326   -6.5108 H   0  0  0  0  0  0  0  0  0  0  0  0
   -0.9464   -2.5946   -4.7873 C   0  0  0  0  0  0  0  0  0  0  0  0
   -0.8265   -3.6697   -4.2157 O   0  0  0  0  0  0  0  0  0  0  0  0
   -1.2232   -1.4593   -4.1516 N   0  0  0  0  0  0  0  0  0  0  0  0
   -1.3180   -0.6102   -4.6896 H   0  0  0  0  0  0  0  0  0  0  0  0
   -1.4214   -1.3445   -2.7067 C   0  0  1  0  0  0  0  0  0  0  0  0
   -1.9440   -2.2328   -2.3476 H   0  0  0  0  0  0  0  0  0  0  0  0
   -0.0396   -1.2948   -2.0396 C   0  0  0  0  0  0  0  0  0  0  0  0
    0.4948   -2.2027   -2.3232 H   0  0  0  0  0  0  0  0  0  0  0  0
    0.5189   -0.4523   -2.4477 H   0  0  0  0  0  0  0  0  0  0  0  0
    0.0112   -1.1979   -0.2299 S   0  0  0  0  0  0  0  0  0  0  0  0
   -2.2850   -0.1139   -2.3777 C   0  0  0  0  0  0  0  0  0  0  0  0
   -2.2415    0.8796   -3.1046 O   0  0  0  0  0  0  0  0  0  0  0  0
   -3.0698   -0.1830   -1.2947 N   0  0  0  0  0  0  0  0  0  0  0  0
   -3.0229   -1.0183   -0.7330 H   0  0  0  0  0  0  0  0  0  0  0  0
   -3.9420    0.8993   -0.8404 C   0  0  0  0  0  0  0  0  0  0  0  0
   -3.3417    1.6899   -0.3871 H   0  0  0  0  0  0  0  0  0  0  0  0
   -4.4887    1.3194   -1.6880 H   0  0  0  0  0  0  0  0  0  0  0  0
   -4.6560    0.5250   -0.1065 H   0  0  0  0  0  0  0  0  0  0  0  0
  5  6  2  0  0  0  0
  5  7  1  0  0  0  0
  2  3  1  0  0  0  0
  2  4  1  0  0  0  0
  2  5  1  0  0  0  0
  1  2  1  0  0  0  0
 15 16  2  0  0  0  0
 15 17  1  0  0  0  0
 14 36  1  0  0  0  0
 11 12  1  0  0  0  0
 11 13  1  0  0  0  0
 11 14  1  0  0  0  0
  9 10  1  0  0  0  0
  9 11  1  0  0  0  0
  9 15  1  0  0  0  0
  7  8  1  0  0  0  0
  7  9  1  0  0  0  0
 19 20  1  0  0  0  0
 19 21  1  0  0  0  0
 19 22  1  0  0  0  0
 17 18  1  0  0  0  0
 17 19  1  0  0  0  0
 27 28  2  0  0  0  0
 27 29  1  0  0  0  0
 24 25  1  0  0  0  0
 24 26  1  0  0  0  0
 24 27  1  0  0  0  0
 23 24  1  0  0  0  0
 37 38  2  0  0  0  0
 37 39  1  0  0  0  0
 33 34  1  0  0  0  0
 33 35  1  0  0  0  0
 33 36  1  0  0  0  0
 31 32  1  0  0  0  0
 31 33  1  0  0  0  0
 31 37  1  0  0  0  0
 29 30  1  0  0  0  0
 29 31  1  0  0  0  0
 41 42  1  0  0  0  0
 41 43  1  0  0  0  0
 41 44  1  0  0  0  0
 39 40  1  0  0  0  0
 39 41  1  0  0  0  0
M  END
$$$$
default_name
  -OEChem-02102213163D

 44 43  0     1  0  0  0  0  0999 V2000
    2.4488   -3.0448    2.0990 H   0  0  0  0  0  0  0  0  0  0  0  0
    2.2788   -2.0018    2.3640 C   0  0  0  0  0  0  0  0  0  0  0  0
    2.9228   -1.7258    3.1960 H   0  0  0  0  0  0  0  0  0  0  0  0
    1.2358   -1.8618    2.6430 H   0  0  0  0  0  0  0  0  0  0  0  0
    2.6018   -1.1318    1.1730 C   0  0  0  0  0  0  0  0  0  0  0  0
    3.0048   -1.6348    0.1320 O   0  0  0  0  0  0  0  0  0  0  0  0
    2.4088    0.1752    1.3190 N   0  0  0  0  0  0  0  0  0  0  0  0
    2.0708    0.5242    2.2050 H   0  0  0  0  0  0  0  0  0  0  0  0
    2.6638    1.1782    0.2840 C   0  0  1  0  0  0  0  0  0  0  0  0
    3.3023    0.7261   -0.4769 H   0  0  0  0  0  0  0  0  0  0  0  0
    1.3378    1.5821   -0.3840 C   0  0  0  0  0  0  0  0  0  0  0  0
    1.3176    1.1775   -1.3966 H   0  0  0  0  0  0  0  0  0  0  0  0
    1.3332    2.6669   -0.4865 H   0  0  0  0  0  0  0  0  0  0  0  0
   -0.2096    1.1243    0.4521 S   0  0  0  0  0  0  0  0  0  0  0  0
    3.4113    2.3942    0.8625 C   0  0  0  0  0  0  0  0  0  0  0  0
    3.0632    2.8902    1.9340 O   0  0  0  0  0  0  0  0  0  0  0  0
    4.4446    2.8701    0.1549 N   0  0  0  0  0  0  0  0  0  0  0  0
    4.6771    2.4144   -0.7127 H   0  0  0  0  0  0  0  0  0  0  0  0
    5.2508    4.0170    0.5679 C   0  0  0  0  0  0  0  0  0  0  0  0
    4.6226    4.9090    0.6163 H   0  0  0  0  0  0  0  0  0  0  0  0
    5.6706    3.8358    1.5591 H   0  0  0  0  0  0  0  0  0  0  0  0
    6.0620    4.1853   -0.1415 H   0  0  0  0  0  0  0  0  0  0  0  0
   -1.5770   -4.4865   -5.2463 H   0  0  0  0  0  0  0  0  0  0  0  0
   -1.6560   -3.4134   -5.0784 C   0  0  0  0  0  0  0  0  0  0  0  0
   -2.5610   -3.0335   -5.5499 H   0  0  0  0  0  0  0  0  0  0  0  0
   -0.7842   -2.9132   -5.4957 H   0  0  0  0  0  0  0  0  0  0  0  0
   -1.7188   -3.1529   -3.5916 C   0  0  0  0  0  0  0  0  0  0  0  0
   -1.6663   -4.0830   -2.7985 O   0  0  0  0  0  0  0  0  0  0  0  0
   -1.8230   -1.8811   -3.2158 N   0  0  0  0  0  0  0  0  0  0  0  0
   -1.8715   -1.1654   -3.9264 H   0  0  0  0  0  0  0  0  0  0  0  0
   -1.8908   -1.4294   -1.8260 C   0  0  1  0  0  0  0  0  0  0  0  0
   -2.4729   -2.1481   -1.2464 H   0  0  0  0  0  0  0  0  0  0  0  0
   -0.4622   -1.4010   -1.2649 C   0  0  0  0  0  0  0  0  0  0  0  0
   -0.0504   -2.4064   -1.3642 H   0  0  0  0  0  0  0  0  0  0  0  0
    0.1467   -0.7417   -1.8838 H   0  0  0  0  0  0  0  0  0  0  0  0
   -0.2556   -0.9167    0.4699 S   0  0  0  0  0  0  0  0  0  0  0  0
   -2.5915   -0.0621   -1.7377 C   0  0  0  0  0  0  0  0  0  0  0  0
   -2.5032    0.7353   -2.6724 O   0  0  0  0  0  0  0  0  0  0  0  0
   -3.2893    0.2026   -0.6257 N   0  0  0  0  0  0  0  0  0  0  0  0
   -3.2850   -0.4888    0.1074 H   0  0  0  0  0  0  0  0  0  0  0  0
   -4.0040    1.4548   -0.3814 C   0  0  0  0  0  0  0  0  0  0  0  0
   -3.2897    2.2476   -0.1532 H   0  0  0  0  0  0  0  0  0  0  0  0
   -4.5703    1.7414   -1.2707 H   0  0  0  0  0  0  0  0  0  0  0  0
   -4.6916    1.3389    0.4565 H   0  0  0  0  0  0  0  0  0  0  0  0
  5  6  2  0  0  0  0
  5  7  1  0  0  0  0
  2  3  1  0  0  0  0
  2  4  1  0  0  0  0
  2  5  1  0  0  0  0
  1  2  1  0  0  0  0
 15 16  2  0  0  0  0
 15 17  1  0  0  0  0
 14 36  1  0  0  0  0
 11 12  1  0  0  0  0
 11 13  1  0  0  0  0
 11 14  1  0  0  0  0
  9 10  1  0  0  0  0
  9 11  1  0  0  0  0
  9 15  1  0  0  0  0
  7  8  1  0  0  0  0
  7  9  1  0  0  0  0
 19 20  1  0  0  0  0
 19 21  1  0  0  0  0
 19 22  1  0  0  0  0
 17 18  1  0  0  0  0
 17 19  1  0  0  0  0
 27 28  2  0  0  0  0
 27 29  1  0  0  0  0
 24 25  1  0  0  0  0
 24 26  1  0  0  0  0
 24 27  1  0  0  0  0
 23 24  1  0  0  0  0
 37 38  2  0  0  0  0
 37 39  1  0  0  0  0
 33 34  1  0  0  0  0
 33 35  1  0  0  0  0
 33 36  1  0  0  0  0
 31 32  1  0  0  0  0
 31 33  1  0  0  0  0
 31 37  1  0  0  0  0
 29 30  1  0  0  0  0
 29 31  1  0  0  0  0
 41 42  1  0  0  0  0
 41 43  1  0  0  0  0
 41 44  1  0  0  0  0
 39 40  1  0  0  0  0
 39 41  1  0  0  0  0
M  END
$$$$
default_name
  -OEChem-02102213163D

 44 43  0     1  0  0  0  0  0999 V2000
    2.4488   -3.0448    2.0990 H   0  0  0  0  0  0  0  0  0  0  0  0
    2.2788   -2.0018    2.3640 C   0  0  0  0  0  0  0  0  0  0  0  0
    2.9228   -1.7258    3.1960 H   0  0  0  0  0  0  0  0  0  0  0  0
    1.2358   -1.8618    2.6430 H   0  0  0  0  0  0  0  0  0  0  0  0
    2.6018   -1.1318    1.1730 C   0  0  0  0  0  0  0  0  0  0  0  0
    3.0048   -1.6348    0.1320 O   0  0  0  0  0  0  0  0  0  0  0  0
    2.4088    0.1752    1.3190 N   0  0  0  0  0  0  0  0  0  0  0  0
    2.0708    0.5242    2.2050 H   0  0  0  0  0  0  0  0  0  0  0  0
    2.6638    1.1782    0.2840 C   0  0  1  0  0  0  0  0  0  0  0  0
    3.3023    0.7261   -0.4769 H   0  0  0  0  0  0  0  0  0  0  0  0
    1.3378    1.5821   -0.3840 C   0  0  0  0  0  0  0  0  0  0  0  0
    1.1937    0.9709   -1.2757 H   0  0  0  0  0  0  0  0  0  0  0  0
    1.4385    2.6106   -0.7296 H   0  0  0  0  0  0  0  0  0  0  0  0
   -0.1764    1.5079    0.6183 S   0  0  0  0  0  0  0  0  0  0  0  0
    3.4113    2.3942    0.8625 C   0  0  0  0  0  0  0  0  0  0  0  0
    3.0632    2.8902    1.9340 O   0  0  0  0  0  0  0  0  0  0  0  0
    4.4446    2.8701    0.1549 N   0  0  0  0  0  0  0  0  0  0  0  0
    4.6771    2.4144   -0.7127 H   0  0  0  0  0  0  0  0  0  0  0  0
    5.2508    4.0170    0.5679 C   0  0  0  0  0  0  0  0  0  0  0  0
    4.6226    4.9090    0.6163 H   0  0  0  0  0  0  0  0  0  0  0  0
    5.6706    3.8358    1.5591 H   0  0  0  0  0  0  0  0  0  0  0  0
    6.0620    4.1853   -0.1415 H   0  0  0  0  0  0  0  0  0  0  0  0
   -2.5788   -5.0097   -3.5738 H   0  0  0  0  0  0  0  0  0  0  0  0
   -2.5313   -3.9244   -3.6497 C   0  0  0  0  0  0  0  0  0  0  0  0
   -3.4267   -3.5512   -4.1444 H   0  0  0  0  0  0  0  0  0  0  0  0
   -1.6484   -3.6361   -4.2171 H   0  0  0  0  0  0  0  0  0  0  0  0
   -2.4462   -3.3388   -2.2597 C   0  0  0  0  0  0  0  0  0  0  0  0
   -2.4276   -4.0718   -1.2803 O   0  0  0  0  0  0  0  0  0  0  0  0
   -2.3862   -2.0124   -2.1772 N   0  0  0  0  0  0  0  0  0  0  0  0
   -2.4167   -1.4693   -3.0278 H   0  0  0  0  0  0  0  0  0  0  0  0
   -2.2940   -1.2623   -0.9245 C   0  0  1  0  0  0  0  0  0  0  0  0
   -2.8994   -1.7613   -0.1657 H   0  0  0  0  0  0  0  0  0  0  0  0
   -0.8296   -1.2834   -0.4642 C   0  0  0  0  0  0  0  0  0  0  0  0
   -0.5346   -2.3280   -0.3554 H   0  0  0  0  0  0  0  0  0  0  0  0
   -0.2071   -0.8537   -1.2492 H   0  0  0  0  0  0  0  0  0  0  0  0
   -0.4342   -0.4590    1.1013 S   0  0  0  0  0  0  0  0  0  0  0  0
   -2.8384    0.1651   -1.1102 C   0  0  0  0  0  0  0  0  0  0  0  0
   -2.7427    0.7218   -2.2049 O   0  0  0  0  0  0  0  0  0  0  0  0
   -3.4126    0.7489   -0.0505 N   0  0  0  0  0  0  0  0  0  0  0  0
   -3.4215    0.2396    0.8190 H   0  0  0  0  0  0  0  0  0  0  0  0
   -3.9703    2.1007   -0.0577 C   0  0  0  0  0  0  0  0  0  0  0  0
   -3.1608    2.8326   -0.0552 H   0  0  0  0  0  0  0  0  0  0  0  0
   -4.5734    2.2513   -0.9562 H   0  0  0  0  0  0  0  0  0  0  0  0
   -4.5964    2.2547    0.8213 H   0  0  0  0  0  0  0  0  0  0  0  0
  5  6  2  0  0  0  0
  5  7  1  0  0  0  0
  2  3  1  0  0  0  0
  2  4  1  0  0  0  0
  2  5  1  0  0  0  0
  1  2  1  0  0  0  0
 15 16  2  0  0  0  0
 15 17  1  0  0  0  0
 14 36  1  0  0  0  0
 11 12  1  0  0  0  0
 11 13  1  0  0  0  0
 11 14  1  0  0  0  0
  9 10  1  0  0  0  0
  9 11  1  0  0  0  0
  9 15  1  0  0  0  0
  7  8  1  0  0  0  0
  7  9  1  0  0  0  0
 19 20  1  0  0  0  0
 19 21  1  0  0  0  0
 19 22  1  0  0  0  0
 17 18  1  0  0  0  0
 17 19  1  0  0  0  0
 27 28  2  0  0  0  0
 27 29  1  0  0  0  0
 24 25  1  0  0  0  0
 24 26  1  0  0  0  0
 24 27  1  0  0  0  0
 23 24  1  0  0  0  0
 37 38  2  0  0  0  0
 37 39  1  0  0  0  0
 33 34  1  0  0  0  0
 33 35  1  0  0  0  0
 33 36  1  0  0  0  0
 31 32  1  0  0  0  0
 31 33  1  0  0  0  0
 31 37  1  0  0  0  0
 29 30  1  0  0  0  0
 29 31  1  0  0  0  0
 41 42  1  0  0  0  0
 41 43  1  0  0  0  0
 41 44  1  0  0  0  0
 39 40  1  0  0  0  0
 39 41  1  0  0  0  0
M  END
$$$$
default_name
  -OEChem-02102213163D

 44 43  0     1  0  0  0  0  0999 V2000
    2.4488   -3.0448    2.0990 H   0  0  0  0  0  0  0  0  0  0  0  0
    2.2788   -2.0018    2.3640 C   0  0  0  0  0  0  0  0  0  0  0  0
    2.9228   -1.7258    3.1960 H   0  0  0  0  0  0  0  0  0  0  0  0
    1.2358   -1.8618    2.6430 H   0  0  0  0  0  0  0  0  0  0  0  0
    2.6018   -1.1318    1.1730 C   0  0  0  0  0  0  0  0  0  0  0  0
    3.0048   -1.6348    0.1320 O   0  0  0  0  0  0  0  0  0  0  0  0
    2.4088    0.1752    1.3190 N   0  0  0  0  0  0  0  0  0  0  0  0
    2.0708    0.5242    2.2050 H   0  0  0  0  0  0  0  0  0  0  0  0
    2.6638    1.1782    0.2840 C   0  0  1  0  0  0  0  0  0  0  0  0
    3.3023    0.7261   -0.4769 H   0  0  0  0  0  0  0  0  0  0  0  0
    1.3378    1.5821   -0.3840 C   0  0  0  0  0  0  0  0  0  0  0  0
    1.0591    0.8121   -1.1044 H   0  0  0  0  0  0  0  0  0  0  0  0
    1.5173    2.4901   -0.9589 H   0  0  0  0  0  0  0  0  0  0  0  0
   -0.0901    1.9117    0.6910 S   0  0  0  0  0  0  0  0  0  0  0  0
    3.4113    2.3942    0.8625 C   0  0  0  0  0  0  0  0  0  0  0  0
    3.0632    2.8902    1.9340 O   0  0  0  0  0  0  0  0  0  0  0  0
    4.4446    2.8701    0.1549 N   0  0  0  0  0  0  0  0  0  0  0  0
    4.6771    2.4144   -0.7127 H   0  0  0  0  0  0  0  0  0  0  0  0
    5.2508    4.0170    0.5679 C   0  0  0  0  0  0  0  0  0  0  0  0
    4.6226    4.9090    0.6163 H   0  0  0  0  0  0  0  0  0  0  0  0
    5.6706    3.8358    1.5591 H   0  0  0  0  0  0  0  0  0  0  0  0
    6.0620    4.1853   -0.1415 H   0  0  0  0  0  0  0  0  0  0  0  0
   -3.4916   -5.0294   -1.7735 H   0  0  0  0  0  0  0  0  0  0  0  0
   -3.3371   -4.0009   -2.0963 C   0  0  0  0  0  0  0  0  0  0  0  0
   -4.2255   -3.6405   -2.6126 H   0  0  0  0  0  0  0  0  0  0  0  0
   -2.4775   -3.9522   -2.7621 H   0  0  0  0  0  0  0  0  0  0  0  0
   -3.0793   -3.1394   -0.8823 C   0  0  0  0  0  0  0  0  0  0  0  0
   -3.0585   -3.6368    0.2354 O   0  0  0  0  0  0  0  0  0  0  0  0
   -2.8743   -1.8442   -1.1063 N   0  0  0  0  0  0  0  0  0  0  0  0
   -2.9164   -1.5012   -2.0550 H   0  0  0  0  0  0  0  0  0  0  0  0
   -2.6034   -0.8546   -0.0636 C   0  0  1  0  0  0  0  0  0  0  0  0
   -3.1945   -1.0987    0.8208 H   0  0  0  0  0  0  0  0  0  0  0  0
   -1.1170   -0.9498    0.3079 C   0  0  0  0  0  0  0  0  0  0  0  0
   -0.9250   -1.9729    0.6345 H   0  0  0  0  0  0  0  0  0  0  0  0
   -0.5182   -0.7806   -0.5873 H   0  0  0  0  0  0  0  0  0  0  0  0
   -0.5124    0.1440    1.6212 S   0  0  0  0  0  0  0  0  0  0  0  0
   -3.0086    0.5522   -0.5381 C   0  0  0  0  0  0  0  0  0  0  0  0
   -2.9439    0.8399   -1.7341 O   0  0  0  0  0  0  0  0  0  0  0  0
   -3.4312    1.4187    0.3916 N   0  0  0  0  0  0  0  0  0  0  0  0
   -3.4232    1.1172    1.3530 H   0  0  0  0  0  0  0  0  0  0  0  0
   -3.8431    2.7930    0.1086 C   0  0  0  0  0  0  0  0  0  0  0  0
   -2.9640    3.4051   -0.0998 H   0  0  0  0  0  0  0  0  0  0  0  0
   -4.4977    2.8143   -0.7660 H   0  0  0  0  0  0  0  0  0  0  0  0
   -4.3767    3.2099    0.9629 H   0  0  0  0  0  0  0  0  0  0  0  0
  5  6  2  0  0  0  0
  5  7  1  0  0  0  0
  2  3  1  0  0  0  0
  2  4  1  0  0  0  0
  2  5  1  0  0  0  0
  1  2  1  0  0  0  0
 15 16  2  0  0  0  0
 15 17  1  0  0  0  0
 14 36  1  0  0  0  0
 11 12  1  0  0  0  0
 11 13  1  0  0  0  0
 11 14  1  0  0  0  0
  9 10  1  0  0  0  0
  9 11  1  0  0  0  0
  9 15  1  0  0  0  0
  7  8  1  0  0  0  0
  7  9  1  0  0  0  0
 19 20  1  0  0  0  0
 19 21  1  0  0  0  0
 19 22  1  0  0  0  0
 17 18  1  0  0  0  0
 17 19  1  0  0  0  0
 27 28  2  0  0  0  0
 27 29  1  0  0  0  0
 24 25  1  0  0  0  0
 24 26  1  0  0  0  0
 24 27  1  0  0  0  0
 23 24  1  0  0  0  0
 37 38  2  0  0  0  0
 37 39  1  0  0  0  0
 33 34  1  0  0  0  0
 33 35  1  0  0  0  0
 33 36  1  0  0  0  0
 31 32  1  0  0  0  0
 31 33  1  0  0  0  0
 31 37  1  0  0  0  0
 29 30  1  0  0  0  0
 29 31  1  0  0  0  0
 41 42  1  0  0  0  0
 41 43  1  0  0  0  0
 41 44  1  0  0  0  0
 39 40  1  0  0  0  0
 39 41  1  0  0  0  0
M  END
$$$$
default_name
  -OEChem-02102213163D

 44 43  0     1  0  0  0  0  0999 V2000
    2.4488   -3.0448    2.0990 H   0  0  0  0  0  0  0  0  0  0  0  0
    2.2788   -2.0018    2.3640 C   0  0  0  0  0  0  0  0  0  0  0  0
    2.9228   -1.7258    3.1960 H   0  0  0  0  0  0  0  0  0  0  0  0
    1.2358   -1.8618    2.6430 H   0  0  0  0  0  0  0  0  0  0  0  0
    2.6018   -1.1318    1.1730 C   0  0  0  0  0  0  0  0  0  0  0  0
    3.0048   -1.6348    0.1320 O   0  0  0  0  0  0  0  0  0  0  0  0
    2.4088    0.1752    1.3190 N   0  0  0  0  0  0  0  0  0  0  0  0
    2.0708    0.5242    2.2050 H   0  0  0  0  0  0  0  0  0  0  0  0
    2.6638    1.1782    0.2840 C   0  0  1  0  0  0  0  0  0  0  0  0
    3.3023    0.7261   -0.4769 H   0  0  0  0  0  0  0  0  0  0  0  0
    1.3378    1.5821   -0.3840 C   0  0  0  0  0  0  0  0  0  0  0  0
    0.9228    0.7121   -0.8943 H   0  0  0  0  0  0  0  0  0  0  0  0
    1.5644    2.3138   -1.1590 H   0  0  0  0  0  0  0  0  0  0  0  0
    0.0437    2.3082    0.6653 S   0  0  0  0  0  0  0  0  0  0  0  0
    3.4113    2.3942    0.8625 C   0  0  0  0  0  0  0  0  0  0  0  0
    3.0632    2.8902    1.9340 O   0  0  0  0  0  0  0  0  0  0  0  0
    4.4446    2.8701    0.1549 N   0  0  0  0  0  0  0  0  0  0  0  0
    4.6771    2.4144   -0.7127 H   0  0  0  0  0  0  0  0  0  0  0  0
    5.2508    4.0170    0.5679 C   0  0  0  0  0  0  0  0  0  0  0  0
    4.6226    4.9090    0.6163 H   0  0  0  0  0  0  0  0  0  0  0  0
    5.6706    3.8358    1.5591 H   0  0  0  0  0  0  0  0  0  0  0  0
    6.0620    4.1853   -0.1415 H   0  0  0  0  0  0  0  0  0  0  0  0
   -4.2532   -4.5444    0.0318 H   0  0  0  0  0  0  0  0  0  0  0  0
   -4.0185   -3.6378   -0.5239 C   0  0  0  0  0  0  0  0  0  0  0  0
   -4.9030   -3.2954   -1.0587 H   0  0  0  0  0  0  0  0  0  0  0  0
   -3.2151   -3.8397   -1.2299 H   0  0  0  0  0  0  0  0  0  0  0  0
   -3.5749   -2.5686    0.4468 C   0  0  0  0  0  0  0  0  0  0  0  0
   -3.5161   -2.8077    1.6452 O   0  0  0  0  0  0  0  0  0  0  0  0
   -3.2542   -1.3882   -0.0763 N   0  0  0  0  0  0  0  0  0  0  0  0
   -3.3366   -1.2589   -1.0743 H   0  0  0  0  0  0  0  0  0  0  0  0
   -2.7980   -0.2339    0.6980 C   0  0  1  0  0  0  0  0  0  0  0  0
   -3.3380   -0.2055    1.6461 H   0  0  0  0  0  0  0  0  0  0  0  0
   -1.3045   -0.4232    0.9988 C   0  0  0  0  0  0  0  0  0  0  0  0
   -1.1950   -1.3653    1.5380 H   0  0  0  0  0  0  0  0  0  0  0  0
   -0.7656   -0.5273    0.0570 H   0  0  0  0  0  0  0  0  0  0  0  0
   -0.4848    0.8512    1.9943 S   0  0  0  0  0  0  0  0  0  0  0  0
   -3.0907    1.0729   -0.0602 C   0  0  0  0  0  0  0  0  0  0  0  0
   -3.0930    1.0815   -1.2920 O   0  0  0  0  0  0  0  0  0  0  0  0
   -3.3439    2.1664    0.6704 N   0  0  0  0  0  0  0  0  0  0  0  0
   -3.2899    2.0842    1.6733 H   0  0  0  0  0  0  0  0  0  0  0  0
   -3.6313    3.4845    0.1062 C   0  0  0  0  0  0  0  0  0  0  0  0
   -2.7126    3.9260   -0.2839 H   0  0  0  0  0  0  0  0  0  0  0  0
   -4.3484    3.3921   -0.7129 H   0  0  0  0  0  0  0  0  0  0  0  0
   -4.0476    4.1395    0.8717 H   0  0  0  0  0  0  0  0  0  0  0  0
  5  6  2  0  0  0  0
  5  7  1  0  0  0  0
  2  3  1  0  0  0  0
  2  4  1  0  0  0  0
  2  5  1  0  0  0  0
  1  2  1  0  0  0  0
 15 16  2  0  0  0  0
 15 17  1  0  0  0  0
 14 36  1  0  0  0  0
 11 12  1  0  0  0  0
 11 13  1  0  0  0  0
 11 14  1  0  0  0  0
  9 10  1  0  0  0  0
  9 11  1  0  0  0  0
  9 15  1  0  0  0  0
  7  8  1  0  0  0  0
  7  9  1  0  0  0  0
 19 20  1  0  0  0  0
 19 21  1  0  0  0  0
 19 22  1  0  0  0  0
 17 18  1  0  0  0  0
 17 19  1  0  0  0  0
 27 28  2  0  0  0  0
 27 29  1  0  0  0  0
 24 25  1  0  0  0  0
 24 26  1  0  0  0  0
 24 27  1  0  0  0  0
 23 24  1  0  0  0  0
 37 38  2  0  0  0  0
 37 39  1  0  0  0  0
 33 34  1  0  0  0  0
 33 35  1  0  0  0  0
 33 36  1  0  0  0  0
 31 32  1  0  0  0  0
 31 33  1  0  0  0  0
 31 37  1  0  0  0  0
 29 30  1  0  0  0  0
 29 31  1  0  0  0  0
 41 42  1  0  0  0  0
 41 43  1  0  0  0  0
 41 44  1  0  0  0  0
 39 40  1  0  0  0  0
 39 41  1  0  0  0  0
M  END
$$$$
default_name
  -OEChem-02102213163D

 44 43  0     1  0  0  0  0  0999 V2000
    2.4488   -3.0448    2.0990 H   0  0  0  0  0  0  0  0  0  0  0  0
    2.2788   -2.0018    2.3640 C   0  0  0  0  0  0  0  0  0  0  0  0
    2.9228   -1.7258    3.1960 H   0  0  0  0  0  0  0  0  0  0  0  0
    1.2358   -1.8618    2.6430 H   0  0  0  0  0  0  0  0  0  0  0  0
    2.6018   -1.1318    1.1730 C   0  0  0  0  0  0  0  0  0  0  0  0
    3.0048   -1.6348    0.1320 O   0  0  0  0  0  0  0  0  0  0  0  0
    2.4088    0.1752    1.3190 N   0  0  0  0  0  0  0  0  0  0  0  0
    2.0708    0.5242    2.2050 H   0  0  0  0  0  0  0  0  0  0  0  0
    2.6638    1.1782    0.2840 C   0  0  1  0  0  0  0  0  0  0  0  0
    3.3023    0.7261   -0.4769 H   0  0  0  0  0  0  0  0  0  0  0  0
    1.3378    1.5821   -0.3840 C   0  0  0  0  0  0  0  0  0  0  0  0
    0.7942    0.6777   -0.6599 H   0  0  0  0  0  0  0  0  0  0  0  0
    1.5764    2.0935   -1.3161 H   0  0  0  0  0  0  0  0  0  0  0  0
    0.2157    2.6705    0.5430 S   0  0  0  0  0  0  0  0  0  0  0  0
    3.4113    2.3942    0.8625 C   0  0  0  0  0  0  0  0  0  0  0  0
    3.0632    2.8902    1.9340 O   0  0  0  0  0  0  0  0  0  0  0  0
    4.4446    2.8701    0.1549 N   0  0  0  0  0  0  0  0  0  0  0  0
    4.6771    2.4144   -0.7127 H   0  0  0  0  0  0  0  0  0  0  0  0
    5.2508    4.0170    0.5679 C   0  0  0  0  0  0  0  0  0  0  0  0
    4.6226    4.9090    0.6163 H   0  0  0  0  0  0  0  0  0  0  0  0
    5.6706    3.8358    1.5591 H   0  0  0  0  0  0  0  0  0  0  0  0
    6.0620    4.1853   -0.1415 H   0  0  0  0  0  0  0  0  0  0  0  0
   -4.8117   -3.5877    1.7192 H   0  0  0  0  0  0  0  0  0  0  0  0
   -4.5290   -2.8598    0.9601 C   0  0  0  0  0  0  0  0  0  0  0  0
   -5.4131   -2.5392    0.4113 H   0  0  0  0  0  0  0  0  0  0  0  0
   -3.8108   -3.3065    0.2752 H   0  0  0  0  0  0  0  0  0  0  0  0
   -3.8991   -1.6650    1.6369 C   0  0  0  0  0  0  0  0  0  0  0  0
   -3.7691   -1.6410    2.8532 O   0  0  0  0  0  0  0  0  0  0  0  0
   -3.4999   -0.6752    0.8427 N   0  0  0  0  0  0  0  0  0  0  0  0
   -3.6485   -0.7589   -0.1525 H   0  0  0  0  0  0  0  0  0  0  0  0
   -2.8644    0.5574    1.3085 C   0  0  1  0  0  0  0  0  0  0  0  0
   -3.3203    0.8575    2.2537 H   0  0  0  0  0  0  0  0  0  0  0  0
   -1.3796    0.2607    1.5615 C   0  0  0  0  0  0  0  0  0  0  0  0
   -1.3261   -0.5465    2.2935 H   0  0  0  0  0  0  0  0  0  0  0  0
   -0.9323   -0.1113    0.6396 H   0  0  0  0  0  0  0  0  0  0  0  0
   -0.3534    1.6145    2.1949 S   0  0  0  0  0  0  0  0  0  0  0  0
   -3.0790    1.6917    0.2909 C   0  0  0  0  0  0  0  0  0  0  0  0
   -3.1798    1.4304   -0.9087 O   0  0  0  0  0  0  0  0  0  0  0  0
   -3.1566    2.9410    0.7671 N   0  0  0  0  0  0  0  0  0  0  0  0
   -3.0308    3.0747    1.7579 H   0  0  0  0  0  0  0  0  0  0  0  0
   -3.3491    4.1281   -0.0648 C   0  0  0  0  0  0  0  0  0  0  0  0
   -2.4238    4.3598   -0.5949 H   0  0  0  0  0  0  0  0  0  0  0  0
   -4.1357    3.9452   -0.8007 H   0  0  0  0  0  0  0  0  0  0  0  0
   -3.6315    4.9801    0.5539 H   0  0  0  0  0  0  0  0  0  0  0  0
  5  6  2  0  0  0  0
  5  7  1  0  0  0  0
  2  3  1  0  0  0  0
  2  4  1  0  0  0  0
  2  5  1  0  0  0  0
  1  2  1  0  0  0  0
 15 16  2  0  0  0  0
 15 17  1  0  0  0  0
 14 36  1  0  0  0  0
 11 12  1  0  0  0  0
 11 13  1  0  0  0  0
 11 14  1  0  0  0  0
  9 10  1  0  0  0  0
  9 11  1  0  0  0  0
  9 15  1  0  0  0  0
  7  8  1  0  0  0  0
  7  9  1  0  0  0  0
 19 20  1  0  0  0  0
 19 21  1  0  0  0  0
 19 22  1  0  0  0  0
 17 18  1  0  0  0  0
 17 19  1  0  0  0  0
 27 28  2  0  0  0  0
 27 29  1  0  0  0  0
 24 25  1  0  0  0  0
 24 26  1  0  0  0  0
 24 27  1  0  0  0  0
 23 24  1  0  0  0  0
 37 38  2  0  0  0  0
 37 39  1  0  0  0  0
 33 34  1  0  0  0  0
 33 35  1  0  0  0  0
 33 36  1  0  0  0  0
 31 32  1  0  0  0  0
 31 33  1  0  0  0  0
 31 37  1  0  0  0  0
 29 30  1  0  0  0  0
 29 31  1  0  0  0  0
 41 42  1  0  0  0  0
 41 43  1  0  0  0  0
 41 44  1  0  0  0  0
 39 40  1  0  0  0  0
 39 41  1  0  0  0  0
M  END
$$$$
default_name
  -OEChem-02102213163D

 44 43  0     1  0  0  0  0  0999 V2000
    2.4488   -3.0448    2.0990 H   0  0  0  0  0  0  0  0  0  0  0  0
    2.2788   -2.0018    2.3640 C   0  0  0  0  0  0  0  0  0  0  0  0
    2.9228   -1.7258    3.1960 H   0  0  0  0  0  0  0  0  0  0  0  0
    1.2358   -1.8618    2.6430 H   0  0  0  0  0  0  0  0  0  0  0  0
    2.6018   -1.1318    1.1730 C   0  0  0  0  0  0  0  0  0  0  0  0
    3.0048   -1.6348    0.1320 O   0  0  0  0  0  0  0  0  0  0  0  0
    2.4088    0.1752    1.3190 N   0  0  0  0  0  0  0  0  0  0  0  0
    2.0708    0.5242    2.2050 H   0  0  0  0  0  0  0  0  0  0  0  0
    2.6638    1.1782    0.2840 C   0  0  1  0  0  0  0  0  0  0  0  0
    3.3023    0.7261   -0.4769 H   0  0  0  0  0  0  0  0  0  0  0  0
    1.3378    1.5821   -0.3840 C   0  0  0  0  0  0  0  0  0  0  0  0
    0.6821    0.7112   -0.4170 H   0  0  0  0  0  0  0  0  0  0  0  0
    1.5526    1.8443   -1.4196 H   0  0  0  0  0  0  0  0  0  0  0  0
    0.4142    2.9738    0.3323 S   0  0  0  0  0  0  0  0  0  0  0  0
    3.4113    2.3942    0.8625 C   0  0  0  0  0  0  0  0  0  0  0  0
    3.0632    2.8902    1.9340 O   0  0  0  0  0  0  0  0  0  0  0  0
    4.4446    2.8701    0.1549 N   0  0  0  0  0  0  0  0  0  0  0  0
    4.6771    2.4144   -0.7127 H   0  0  0  0  0  0  0  0  0  0  0  0
    5.2508    4.0170    0.5679 C   0  0  0  0  0  0  0  0  0  0  0  0
    4.6226    4.9090    0.6163 H   0  0  0  0  0  0  0  0  0  0  0  0
    5.6706    3.8358    1.5591 H   0  0  0  0  0  0  0  0  0  0  0  0
    6.0620    4.1853   -0.1415 H   0  0  0  0  0  0  0  0  0  0  0  0
   -5.1290   -2.2245    3.1737 H   0  0  0  0  0  0  0  0  0  0  0  0
   -4.8339   -1.7200    2.2548 C   0  0  0  0  0  0  0  0  0  0  0  0
   -5.7210   -1.4237    1.6972 H   0  0  0  0  0  0  0  0  0  0  0  0
   -4.2240   -2.3889    1.6505 H   0  0  0  0  0  0  0  0  0  0  0  0
   -4.0299   -0.4904    2.6069 C   0  0  0  0  0  0  0  0  0  0  0  0
   -3.8004   -0.2162    3.7770 O   0  0  0  0  0  0  0  0  0  0  0  0
   -3.5947    0.2460    1.5880 N   0  0  0  0  0  0  0  0  0  0  0  0
   -3.8311   -0.0352    0.6476 H   0  0  0  0  0  0  0  0  0  0  0  0
   -2.7982    1.4653    1.7262 C   0  0  1  0  0  0  0  0  0  0  0  0
   -3.1424    2.0178    2.6023 H   0  0  0  0  0  0  0  0  0  0  0  0
   -1.3371    1.0553    1.9576 C   0  0  0  0  0  0  0  0  0  0  0  0
   -1.3095    0.4277    2.8495 H   0  0  0  0  0  0  0  0  0  0  0  0
   -1.0070    0.4393    1.1208 H   0  0  0  0  0  0  0  0  0  0  0  0
   -0.1271    2.3817    2.2096 S   0  0  0  0  0  0  0  0  0  0  0  0
   -2.9744    2.3664    0.4911 C   0  0  0  0  0  0  0  0  0  0  0  0
   -3.1984    1.8625   -0.6104 O   0  0  0  0  0  0  0  0  0  0  0  0
   -2.8822    3.6897    0.6750 N   0  0  0  0  0  0  0  0  0  0  0  0
   -2.6635    4.0213    1.6011 H   0  0  0  0  0  0  0  0  0  0  0  0
   -3.0158    4.6800   -0.3927 C   0  0  0  0  0  0  0  0  0  0  0  0
   -2.1171    4.6771   -1.0118 H   0  0  0  0  0  0  0  0  0  0  0  0
   -3.8741    4.4360   -1.0233 H   0  0  0  0  0  0  0  0  0  0  0  0
   -3.1567    5.6744    0.0312 H   0  0  0  0  0  0  0  0  0  0  0  0
  5  6  2  0  0  0  0
  5  7  1  0  0  0  0
  2  3  1  0  0  0  0
  2  4  1  0  0  0  0
  2  5  1  0  0  0  0
  1  2  1  0  0  0  0
 15 16  2  0  0  0  0
 15 17  1  0  0  0  0
 14 36  1  0  0  0  0
 11 12  1  0  0  0  0
 11 13  1  0  0  0  0
 11 14  1  0  0  0  0
  9 10  1  0  0  0  0
  9 11  1  0  0  0  0
  9 15  1  0  0  0  0
  7  8  1  0  0  0  0
  7  9  1  0  0  0  0
 19 20  1  0  0  0  0
 19 21  1  0  0  0  0
 19 22  1  0  0  0  0
 17 18  1  0  0  0  0
 17 19  1  0  0  0  0
 27 28  2  0  0  0  0
 27 29  1  0  0  0  0
 24 25  1  0  0  0  0
 24 26  1  0  0  0  0
 24 27  1  0  0  0  0
 23 24  1  0  0  0  0
 37 38  2  0  0  0  0
 37 39  1  0  0  0  0
 33 34  1  0  0  0  0
 33 35  1  0  0  0  0
 33 36  1  0  0  0  0
 31 32  1  0  0  0  0
 31 33  1  0  0  0  0
 31 37  1  0  0  0  0
 29 30  1  0  0  0  0
 29 31  1  0  0  0  0
 41 42  1  0  0  0  0
 41 43  1  0  0  0  0
 41 44  1  0  0  0  0
 39 40  1  0  0  0  0
 39 41  1  0  0  0  0
M  END
$$$$
default_name
  -OEChem-02102213163D

 44 43  0     1  0  0  0  0  0999 V2000
    2.4488   -3.0448    2.0990 H   0  0  0  0  0  0  0  0  0  0  0  0
    2.2788   -2.0018    2.3640 C   0  0  0  0  0  0  0  0  0  0  0  0
    2.9228   -1.7258    3.1960 H   0  0  0  0  0  0  0  0  0  0  0  0
    1.2358   -1.8618    2.6430 H   0  0  0  0  0  0  0  0  0  0  0  0
    2.6018   -1.1318    1.1730 C   0  0  0  0  0  0  0  0  0  0  0  0
    3.0048   -1.6348    0.1320 O   0  0  0  0  0  0  0  0  0  0  0  0
    2.4088    0.1752    1.3190 N   0  0  0  0  0  0  0  0  0  0  0  0
    2.0708    0.5242    2.2050 H   0  0  0  0  0  0  0  0  0  0  0  0
    2.6638    1.1782    0.2840 C   0  0  1  0  0  0  0  0  0  0  0  0
    3.3023    0.7261   -0.4769 H   0  0  0  0  0  0  0  0  0  0  0  0
    1.3378    1.5821   -0.3840 C   0  0  0  0  0  0  0  0  0  0  0  0
    0.5940    0.8103   -0.1823 H   0  0  0  0  0  0  0  0  0  0  0  0
    1.4946    1.5832   -1.4623 H   0  0  0  0  0  0  0  0  0  0  0  0
    0.6257    3.1975    0.0476 S   0  0  0  0  0  0  0  0  0  0  0  0
    3.4113    2.3942    0.8625 C   0  0  0  0  0  0  0  0  0  0  0  0
    3.0632    2.8902    1.9340 O   0  0  0  0  0  0  0  0  0  0  0  0
    4.4446    2.8701    0.1549 N   0  0  0  0  0  0  0  0  0  0  0  0
    4.6771    2.4144   -0.7127 H   0  0  0  0  0  0  0  0  0  0  0  0
    5.2508    4.0170    0.5679 C   0  0  0  0  0  0  0  0  0  0  0  0
    4.6226    4.9090    0.6163 H   0  0  0  0  0  0  0  0  0  0  0  0
    5.6706    3.8358    1.5591 H   0  0  0  0  0  0  0  0  0  0  0  0
    6.0620    4.1853   -0.1415 H   0  0  0  0  0  0  0  0  0  0  0  0
   -5.1836   -0.5476    4.2960 H   0  0  0  0  0  0  0  0  0  0  0  0
   -4.9124   -0.2960    3.2718 C   0  0  0  0  0  0  0  0  0  0  0  0
   -5.8057   -0.0248    2.7114 H   0  0  0  0  0  0  0  0  0  0  0  0
   -4.4265   -1.1493    2.8024 H   0  0  0  0  0  0  0  0  0  0  0  0
   -3.9583    0.8752    3.2908 C   0  0  0  0  0  0  0  0  0  0  0  0
   -3.6077    1.3697    4.3536 O   0  0  0  0  0  0  0  0  0  0  0  0
   -3.5322    1.3128    2.1090 N   0  0  0  0  0  0  0  0  0  0  0  0
   -3.8718    0.8627    1.2714 H   0  0  0  0  0  0  0  0  0  0  0  0
   -2.6039    2.4280    1.9226 C   0  0  1  0  0  0  0  0  0  0  0  0
   -2.8166    3.1963    2.6681 H   0  0  0  0  0  0  0  0  0  0  0  0
   -1.1798    1.9063    2.1600 C   0  0  0  0  0  0  0  0  0  0  0  0
   -1.1461    1.4908    3.1682 H   0  0  0  0  0  0  0  0  0  0  0  0
   -0.9846    1.0869    1.4680 H   0  0  0  0  0  0  0  0  0  0  0  0
    0.1787    3.1006    2.0373 S   0  0  0  0  0  0  0  0  0  0  0  0
   -2.7839    3.0510    0.5270 C   0  0  0  0  0  0  0  0  0  0  0  0
   -3.1475    2.3486   -0.4174 O   0  0  0  0  0  0  0  0  0  0  0  0
   -2.5392    4.3616    0.4004 N   0  0  0  0  0  0  0  0  0  0  0  0
   -2.2130    4.8593    1.2135 H   0  0  0  0  0  0  0  0  0  0  0  0
   -2.6542    5.1025   -0.8551 C   0  0  0  0  0  0  0  0  0  0  0  0
   -1.8137    4.8561   -1.5061 H   0  0  0  0  0  0  0  0  0  0  0  0
   -3.5814    4.8311   -1.3656 H   0  0  0  0  0  0  0  0  0  0  0  0
   -2.6556    6.1751   -0.6609 H   0  0  0  0  0  0  0  0  0  0  0  0
  5  6  2  0  0  0  0
  5  7  1  0  0  0  0
  2  3  1  0  0  0  0
  2  4  1  0  0  0  0
  2  5  1  0  0  0  0
  1  2  1  0  0  0  0
 15 16  2  0  0  0  0
 15 17  1  0  0  0  0
 14 36  1  0  0  0  0
 11 12  1  0  0  0  0
 11 13  1  0  0  0  0
 11 14  1  0  0  0  0
  9 10  1  0  0  0  0
  9 11  1  0  0  0  0
  9 15  1  0  0  0  0
  7  8  1  0  0  0  0
  7  9  1  0  0  0  0
 19 20  1  0  0  0  0
 19 21  1  0  0  0  0
 19 22  1  0  0  0  0
 17 18  1  0  0  0  0
 17 19  1  0  0  0  0
 27 28  2  0  0  0  0
 27 29  1  0  0  0  0
 24 25  1  0  0  0  0
 24 26  1  0  0  0  0
 24 27  1  0  0  0  0
 23 24  1  0  0  0  0
 37 38  2  0  0  0  0
 37 39  1  0  0  0  0
 33 34  1  0  0  0  0
 33 35  1  0  0  0  0
 33 36  1  0  0  0  0
 31 32  1  0  0  0  0
 31 33  1  0  0  0  0
 31 37  1  0  0  0  0
 29 30  1  0  0  0  0
 29 31  1  0  0  0  0
 41 42  1  0  0  0  0
 41 43  1  0  0  0  0
 41 44  1  0  0  0  0
 39 40  1  0  0  0  0
 39 41  1  0  0  0  0
M  END
$$$$
default_name
  -OEChem-02102213163D

 44 43  0     1  0  0  0  0  0999 V2000
    2.4488   -3.0448    2.0990 H   0  0  0  0  0  0  0  0  0  0  0  0
    2.2788   -2.0018    2.3640 C   0  0  0  0  0  0  0  0  0  0  0  0
    2.9228   -1.7258    3.1960 H   0  0  0  0  0  0  0  0  0  0  0  0
    1.2358   -1.8618    2.6430 H   0  0  0  0  0  0  0  0  0  0  0  0
    2.6018   -1.1318    1.1730 C   0  0  0  0  0  0  0  0  0  0  0  0
    3.0048   -1.6348    0.1320 O   0  0  0  0  0  0  0  0  0  0  0  0
    2.4088    0.1752    1.3190 N   0  0  0  0  0  0  0  0  0  0  0  0
    2.0708    0.5242    2.2050 H   0  0  0  0  0  0  0  0  0  0  0  0
    2.6638    1.1782    0.2840 C   0  0  1  0  0  0  0  0  0  0  0  0
    3.3023    0.7261   -0.4769 H   0  0  0  0  0  0  0  0  0  0  0  0
    1.3378    1.5821   -0.3840 C   0  0  0  0  0  0  0  0  0  0  0  0
    0.5361    0.9682    0.0284 H   0  0  0  0  0  0  0  0  0  0  0  0
    1.4063    1.3280   -1.4414 H   0  0  0  0  0  0  0  0  0  0  0  0
    0.8358    3.3264   -0.2916 S   0  0  0  0  0  0  0  0  0  0  0  0
    3.4113    2.3942    0.8625 C   0  0  0  0  0  0  0  0  0  0  0  0
    3.0632    2.8902    1.9340 O   0  0  0  0  0  0  0  0  0  0  0  0
    4.4446    2.8701    0.1549 N   0  0  0  0  0  0  0  0  0  0  0  0
    4.6771    2.4144   -0.7127 H   0  0  0  0  0  0  0  0  0  0  0  0
    5.2508    4.0170    0.5679 C   0  0  0  0  0  0  0  0  0  0  0  0
    4.6226    4.9090    0.6163 H   0  0  0  0  0  0  0  0  0  0  0  0
    5.6706    3.8358    1.5591 H   0  0  0  0  0  0  0  0  0  0  0  0
    6.0620    4.1853   -0.1415 H   0  0  0  0  0  0  0  0  0  0  0  0
   -4.9716    1.3285    5.0099 H   0  0  0  0  0  0  0  0  0  0  0  0
   -4.7591    1.3152    3.9419 C   0  0  0  0  0  0  0  0  0  0  0  0
   -5.6614    1.5621    3.3847 H   0  0  0  0  0  0  0  0  0  0  0  0
   -4.4047    0.3277    3.6523 H   0  0  0  0  0  0  0  0  0  0  0  0
   -3.6893    2.3389    3.6419 C   0  0  0  0  0  0  0  0  0  0  0  0
   -3.2043    3.0084    4.5438 O   0  0  0  0  0  0  0  0  0  0  0  0
   -3.3165    2.4523    2.3700 N   0  0  0  0  0  0  0  0  0  0  0  0
   -3.7678    1.8738    1.6764 H   0  0  0  0  0  0  0  0  0  0  0  0
   -2.2947    3.3799    1.8845 C   0  0  1  0  0  0  0  0  0  0  0  0
   -2.3650    4.3127    2.4468 H   0  0  0  0  0  0  0  0  0  0  0  0
   -0.9186    2.7558    2.1551 C   0  0  0  0  0  0  0  0  0  0  0  0
   -0.8473    2.5704    3.2278 H   0  0  0  0  0  0  0  0  0  0  0  0
   -0.8666    1.7873    1.6574 H   0  0  0  0  0  0  0  0  0  0  0  0
    0.5431    3.7222    1.6898 S   0  0  0  0  0  0  0  0  0  0  0  0
   -2.5206    3.6989    0.3960 C   0  0  0  0  0  0  0  0  0  0  0  0
   -3.0307    2.8554   -0.3428 O   0  0  0  0  0  0  0  0  0  0  0  0
   -2.1511    4.9107   -0.0381 N   0  0  0  0  0  0  0  0  0  0  0  0
   -1.7100    5.5317    0.6217 H   0  0  0  0  0  0  0  0  0  0  0  0
   -2.2889    5.3668   -1.4206 C   0  0  0  0  0  0  0  0  0  0  0  0
   -1.5340    4.8846   -2.0440 H   0  0  0  0  0  0  0  0  0  0  0  0
   -3.2775    5.1034   -1.8042 H   0  0  0  0  0  0  0  0  0  0  0  0
   -2.1623    6.4481   -1.4751 H   0  0  0  0  0  0  0  0  0  0  0  0
  5  6  2  0  0  0  0
  5  7  1  0  0  0  0
  2  3  1  0  0  0  0
  2  4  1  0  0  0  0
  2  5  1  0  0  0  0
  1  2  1  0  0  0  0
 15 16  2  0  0  0  0
 15 17  1  0  0  0  0
 14 36  1  0  0  0  0
 11 12  1  0  0  0  0
 11 13  1  0  0  0  0
 11 14  1  0  0  0  0
  9 10  1  0  0  0  0
  9 11  1  0  0  0  0
  9 15  1  0  0  0  0
  7  8  1  0  0  0  0
  7  9  1  0  0  0  0
 19 20  1  0  0  0  0
 19 21  1  0  0  0  0
 19 22  1  0  0  0  0
 17 18  1  0  0  0  0
 17 19  1  0  0  0  0
 27 28  2  0  0  0  0
 27 29  1  0  0  0  0
 24 25  1  0  0  0  0
 24 26  1  0  0  0  0
 24 27  1  0  0  0  0
 23 24  1  0  0  0  0
 37 38  2  0  0  0  0
 37 39  1  0  0  0  0
 33 34  1  0  0  0  0
 33 35  1  0  0  0  0
 33 36  1  0  0  0  0
 31 32  1  0  0  0  0
 31 33  1  0  0  0  0
 31 37  1  0  0  0  0
 29 30  1  0  0  0  0
 29 31  1  0  0  0  0
 41 42  1  0  0  0  0
 41 43  1  0  0  0  0
 41 44  1  0  0  0  0
 39 40  1  0  0  0  0
 39 41  1  0  0  0  0
M  END
$$$$
default_name
  -OEChem-02102213163D

 44 43  0     1  0  0  0  0  0999 V2000
    2.4488   -3.0448    2.0990 H   0  0  0  0  0  0  0  0  0  0  0  0
    2.2788   -2.0018    2.3640 C   0  0  0  0  0  0  0  0  0  0  0  0
    2.9228   -1.7258    3.1960 H   0  0  0  0  0  0  0  0  0  0  0  0
    1.2358   -1.8618    2.6430 H   0  0  0  0  0  0  0  0  0  0  0  0
    2.6018   -1.1318    1.1730 C   0  0  0  0  0  0  0  0  0  0  0  0
    3.0048   -1.6348    0.1320 O   0  0  0  0  0  0  0  0  0  0  0  0
    2.4088    0.1752    1.3190 N   0  0  0  0  0  0  0  0  0  0  0  0
    2.0708    0.5242    2.2050 H   0  0  0  0  0  0  0  0  0  0  0  0
    2.6638    1.1782    0.2840 C   0  0  1  0  0  0  0  0  0  0  0  0
    3.3023    0.7261   -0.4769 H   0  0  0  0  0  0  0  0  0  0  0  0
    1.3378    1.5821   -0.3840 C   0  0  0  0  0  0  0  0  0  0  0  0
    0.5121    1.1743    0.2005 H   0  0  0  0  0  0  0  0  0  0  0  0
    1.2938    1.0961   -1.3582 H   0  0  0  0  0  0  0  0  0  0  0  0
    1.0302    3.3515   -0.6622 S   0  0  0  0  0  0  0  0  0  0  0  0
    3.4113    2.3942    0.8625 C   0  0  0  0  0  0  0  0  0  0  0  0
    3.0632    2.8902    1.9340 O   0  0  0  0  0  0  0  0  0  0  0  0
    4.4446    2.8701    0.1549 N   0  0  0  0  0  0  0  0  0  0  0  0
    4.6771    2.4144   -0.7127 H   0  0  0  0  0  0  0  0  0  0  0  0
    5.2508    4.0170    0.5679 C   0  0  0  0  0  0  0  0  0  0  0  0
    4.6226    4.9090    0.6163 H   0  0  0  0  0  0  0  0  0  0  0  0
    5.6706    3.8358    1.5591 H   0  0  0  0  0  0  0  0  0  0  0  0
    6.0620    4.1853   -0.1415 H   0  0  0  0  0  0  0  0  0  0  0  0
   -4.5076    3.2762    5.2665 H   0  0  0  0  0  0  0  0  0  0  0  0
   -4.3845    3.0037    4.2194 C   0  0  0  0  0  0  0  0  0  0  0  0
   -5.2980    3.2290    3.6714 H   0  0  0  0  0  0  0  0  0  0  0  0
   -4.1599    1.9415    4.1423 H   0  0  0  0  0  0  0  0  0  0  0  0
   -3.2412    3.8007    3.6363 C   0  0  0  0  0  0  0  0  0  0  0  0
   -2.6176    4.5885    4.3346 O   0  0  0  0  0  0  0  0  0  0  0  0
   -2.9624    3.5870    2.3532 N   0  0  0  0  0  0  0  0  0  0  0  0
   -3.5263    2.9290    1.8351 H   0  0  0  0  0  0  0  0  0  0  0  0
   -1.8917    4.2561    1.6143 C   0  0  1  0  0  0  0  0  0  0  0  0
   -1.8184    5.2910    1.9532 H   0  0  0  0  0  0  0  0  0  0  0  0
   -0.5711    3.5459    1.9431 C   0  0  0  0  0  0  0  0  0  0  0  0
   -0.4333    3.5929    3.0243 H   0  0  0  0  0  0  0  0  0  0  0  0
   -0.6611    2.4928    1.6760 H   0  0  0  0  0  0  0  0  0  0  0  0
    0.9413    4.2042    1.1906 S   0  0  0  0  0  0  0  0  0  0  0  0
   -2.2023    4.2658    0.1070 C   0  0  0  0  0  0  0  0  0  0  0  0
   -2.8558    3.3485   -0.3918 O   0  0  0  0  0  0  0  0  0  0  0  0
   -1.7443    5.2998   -0.6104 N   0  0  0  0  0  0  0  0  0  0  0  0
   -1.1889    5.9927   -0.1342 H   0  0  0  0  0  0  0  0  0  0  0  0
   -1.9447    5.4549   -2.0506 C   0  0  0  0  0  0  0  0  0  0  0  0
   -1.2972    4.7608   -2.5890 H   0  0  0  0  0  0  0  0  0  0  0  0
   -2.9831    5.2345   -2.3092 H   0  0  0  0  0  0  0  0  0  0  0  0
   -1.7105    6.4748   -2.3560 H   0  0  0  0  0  0  0  0  0  0  0  0
  5  6  2  0  0  0  0
  5  7  1  0  0  0  0
  2  3  1  0  0  0  0
  2  4  1  0  0  0  0
  2  5  1  0  0  0  0
  1  2  1  0  0  0  0
 15 16  2  0  0  0  0
 15 17  1  0  0  0  0
 14 36  1  0  0  0  0
 11 12  1  0  0  0  0
 11 13  1  0  0  0  0
 11 14  1  0  0  0  0
  9 10  1  0  0  0  0
  9 11  1  0  0  0  0
  9 15  1  0  0  0  0
  7  8  1  0  0  0  0
  7  9  1  0  0  0  0
 19 20  1  0  0  0  0
 19 21  1  0  0  0  0
 19 22  1  0  0  0  0
 17 18  1  0  0  0  0
 17 19  1  0  0  0  0
 27 28  2  0  0  0  0
 27 29  1  0  0  0  0
 24 25  1  0  0  0  0
 24 26  1  0  0  0  0
 24 27  1  0  0  0  0
 23 24  1  0  0  0  0
 37 38  2  0  0  0  0
 37 39  1  0  0  0  0
 33 34  1  0  0  0  0
 33 35  1  0  0  0  0
 33 36  1  0  0  0  0
 31 32  1  0  0  0  0
 31 33  1  0  0  0  0
 31 37  1  0  0  0  0
 29 30  1  0  0  0  0
 29 31  1  0  0  0  0
 41 42  1  0  0  0  0
 41 43  1  0  0  0  0
 41 44  1  0  0  0  0
 39 40  1  0  0  0  0
 39 41  1  0  0  0  0
M  END
$$$$
default_name
  -OEChem-02102213163D

 44 43  0     1  0  0  0  0  0999 V2000
    2.4488   -3.0448    2.0990 H   0  0  0  0  0  0  0  0  0  0  0  0
    2.2788   -2.0018    2.3640 C   0  0  0  0  0  0  0  0  0  0  0  0
    2.9228   -1.7258    3.1960 H   0  0  0  0  0  0  0  0  0  0  0  0
    1.2358   -1.8618    2.6430 H   0  0  0  0  0  0  0  0  0  0  0  0
    2.6018   -1.1318    1.1730 C   0  0  0  0  0  0  0  0  0  0  0  0
    3.0048   -1.6348    0.1320 O   0  0  0  0  0  0  0  0  0  0  0  0
    2.4088    0.1752    1.3190 N   0  0  0  0  0  0  0  0  0  0  0  0
    2.0708    0.5242    2.2050 H   0  0  0  0  0  0  0  0  0  0  0  0
    2.6638    1.1782    0.2840 C   0  0  1  0  0  0  0  0  0  0  0  0
    3.3023    0.7261   -0.4769 H   0  0  0  0  0  0  0  0  0  0  0  0
    1.3378    1.5821   -0.3840 C   0  0  0  0  0  0  0  0  0  0  0  0
    0.5239    1.4145    0.3225 H   0  0  0  0  0  0  0  0  0  0  0  0
    1.1647    0.9033   -1.2186 H   0  0  0  0  0  0  0  0  0  0  0  0
    1.1956    3.2713   -1.0391 S   0  0  0  0  0  0  0  0  0  0  0  0
    3.4113    2.3942    0.8625 C   0  0  0  0  0  0  0  0  0  0  0  0
    3.0632    2.8902    1.9340 O   0  0  0  0  0  0  0  0  0  0  0  0
    4.4446    2.8701    0.1549 N   0  0  0  0  0  0  0  0  0  0  0  0
    4.6771    2.4144   -0.7127 H   0  0  0  0  0  0  0  0  0  0  0  0
    5.2508    4.0170    0.5679 C   0  0  0  0  0  0  0  0  0  0  0  0
    4.6226    4.9090    0.6163 H   0  0  0  0  0  0  0  0  0  0  0  0
    5.6706    3.8358    1.5591 H   0  0  0  0  0  0  0  0  0  0  0  0
    6.0620    4.1853   -0.1415 H   0  0  0  0  0  0  0  0  0  0  0  0
   -3.8231    5.1626    5.0485 H   0  0  0  0  0  0  0  0  0  0  0  0
   -3.8142    4.6545    4.0854 C   0  0  0  0  0  0  0  0  0  0  0  0
   -4.7403    4.8622    3.5518 H   0  0  0  0  0  0  0  0  0  0  0  0
   -3.7089    3.5821    4.2390 H   0  0  0  0  0  0  0  0  0  0  0  0
   -2.6445    5.1611    3.2745 C   0  0  0  0  0  0  0  0  0  0  0  0
   -1.8876    6.0021    3.7402 O   0  0  0  0  0  0  0  0  0  0  0  0
   -2.4940    4.6396    2.0599 N   0  0  0  0  0  0  0  0  0  0  0  0
   -3.1636    3.9566    1.7366 H   0  0  0  0  0  0  0  0  0  0  0  0
   -1.4224    4.9969    1.1305 C   0  0  1  0  0  0  0  0  0  0  0  0
   -1.2140    6.0645    1.2211 H   0  0  0  0  0  0  0  0  0  0  0  0
   -0.1611    4.2227    1.5384 C   0  0  0  0  0  0  0  0  0  0  0  0
    0.0677    4.4887    2.5715 H   0  0  0  0  0  0  0  0  0  0  0  0
   -0.3821    3.1553    1.5227 H   0  0  0  0  0  0  0  0  0  0  0  0
    1.3462    4.5137    0.5739 S   0  0  0  0  0  0  0  0  0  0  0  0
   -1.8508    4.7133   -0.3202 C   0  0  0  0  0  0  0  0  0  0  0  0
   -2.6349    3.7942   -0.5609 O   0  0  0  0  0  0  0  0  0  0  0  0
   -1.3465    5.5022   -1.2777 N   0  0  0  0  0  0  0  0  0  0  0  0
   -0.6850    6.2109   -1.0025 H   0  0  0  0  0  0  0  0  0  0  0  0
   -1.6452    5.3608   -2.7022 C   0  0  0  0  0  0  0  0  0  0  0  0
   -1.1194    4.4930   -3.1039 H   0  0  0  0  0  0  0  0  0  0  0  0
   -2.7184    5.2155   -2.8463 H   0  0  0  0  0  0  0  0  0  0  0  0
   -1.3309    6.2534   -3.2435 H   0  0  0  0  0  0  0  0  0  0  0  0
  5  6  2  0  0  0  0
  5  7  1  0  0  0  0
  2  3  1  0  0  0  0
  2  4  1  0  0  0  0
  2  5  1  0  0  0  0
  1  2  1  0  0  0  0
 15 16  2  0  0  0  0
 15 17  1  0  0  0  0
 14 36  1  0  0  0  0
 11 12  1  0  0  0  0
 11 13  1  0  0  0  0
 11 14  1  0  0  0  0
  9 10  1  0  0  0  0
  9 11  1  0  0  0  0
  9 15  1  0  0  0  0
  7  8  1  0  0  0  0
  7  9  1  0  0  0  0
 19 20  1  0  0  0  0
 19 21  1  0  0  0  0
 19 22  1  0  0  0  0
 17 18  1  0  0  0  0
 17 19  1  0  0  0  0
 27 28  2  0  0  0  0
 27 29  1  0  0  0  0
 24 25  1  0  0  0  0
 24 26  1  0  0  0  0
 24 27  1  0  0  0  0
 23 24  1  0  0  0  0
 37 38  2  0  0  0  0
 37 39  1  0  0  0  0
 33 34  1  0  0  0  0
 33 35  1  0  0  0  0
 33 36  1  0  0  0  0
 31 32  1  0  0  0  0
 31 33  1  0  0  0  0
 31 37  1  0  0  0  0
 29 30  1  0  0  0  0
 29 31  1  0  0  0  0
 41 42  1  0  0  0  0
 41 43  1  0  0  0  0
 41 44  1  0  0  0  0
 39 40  1  0  0  0  0
 39 41  1  0  0  0  0
M  END
$$$$
default_name
  -OEChem-02102213163D

 44 43  0     1  0  0  0  0  0999 V2000
    2.4488   -3.0448    2.0990 H   0  0  0  0  0  0  0  0  0  0  0  0
    2.2788   -2.0018    2.3640 C   0  0  0  0  0  0  0  0  0  0  0  0
    2.9228   -1.7258    3.1960 H   0  0  0  0  0  0  0  0  0  0  0  0
    1.2358   -1.8618    2.6430 H   0  0  0  0  0  0  0  0  0  0  0  0
    2.6018   -1.1318    1.1730 C   0  0  0  0  0  0  0  0  0  0  0  0
    3.0048   -1.6348    0.1320 O   0  0  0  0  0  0  0  0  0  0  0  0
    2.4088    0.1752    1.3190 N   0  0  0  0  0  0  0  0  0  0  0  0
    2.0708    0.5242    2.2050 H   0  0  0  0  0  0  0  0  0  0  0  0
    2.6638    1.1782    0.2840 C   0  0  1  0  0  0  0  0  0  0  0  0
    3.3023    0.7261   -0.4769 H   0  0  0  0  0  0  0  0  0  0  0  0
    1.3378    1.5821   -0.3840 C   0  0  0  0  0  0  0  0  0  0  0  0
    0.5705    1.6723    0.3859 H   0  0  0  0  0  0  0  0  0  0  0  0
    1.0279    0.7627   -1.0319 H   0  0  0  0  0  0  0  0  0  0  0  0
    1.3207    3.0912   -1.3965 S   0  0  0  0  0  0  0  0  0  0  0  0
    3.4113    2.3942    0.8625 C   0  0  0  0  0  0  0  0  0  0  0  0
    3.0632    2.8902    1.9340 O   0  0  0  0  0  0  0  0  0  0  0  0
    4.4446    2.8701    0.1549 N   0  0  0  0  0  0  0  0  0  0  0  0
    4.6771    2.4144   -0.7127 H   0  0  0  0  0  0  0  0  0  0  0  0
    5.2508    4.0170    0.5679 C   0  0  0  0  0  0  0  0  0  0  0  0
    4.6226    4.9090    0.6163 H   0  0  0  0  0  0  0  0  0  0  0  0
    5.6706    3.8358    1.5591 H   0  0  0  0  0  0  0  0  0  0  0  0
    6.0620    4.1853   -0.1415 H   0  0  0  0  0  0  0  0  0  0  0  0
   -2.9649    6.8592    4.3706 H   0  0  0  0  0  0  0  0  0  0  0  0
   -3.0869    6.1550    3.5490 C   0  0  0  0  0  0  0  0  0  0  0  0
   -4.0262    6.3504    3.0341 H   0  0  0  0  0  0  0  0  0  0  0  0
   -3.0823    5.1377    3.9359 H   0  0  0  0  0  0  0  0  0  0  0  0
   -1.9399    6.3275    2.5809 C   0  0  0  0  0  0  0  0  0  0  0  0
   -1.0641    7.1529    2.8012 O   0  0  0  0  0  0  0  0  0  0  0  0
   -1.9433    5.5382    1.5100 N   0  0  0  0  0  0  0  0  0  0  0  0
   -2.7046    4.8864    1.3876 H   0  0  0  0  0  0  0  0  0  0  0  0
   -0.9186    5.5519    0.4660 C   0  0  1  0  0  0  0  0  0  0  0  0
   -0.5931    6.5804    0.3004 H   0  0  0  0  0  0  0  0  0  0  0  0
    0.2835    4.7402    0.9688 C   0  0  0  0  0  0  0  0  0  0  0  0
    0.6214    5.1967    1.9003 H   0  0  0  0  0  0  0  0  0  0  0  0
   -0.0485    3.7298    1.2079 H   0  0  0  0  0  0  0  0  0  0  0  0
    1.7302    4.6296   -0.1183 S   0  0  0  0  0  0  0  0  0  0  0  0
   -1.4901    5.0107   -0.8565 C   0  0  0  0  0  0  0  0  0  0  0  0
   -2.3828    4.1622   -0.8387 O   0  0  0  0  0  0  0  0  0  0  0  0
   -0.9849    5.5042   -1.9944 N   0  0  0  0  0  0  0  0  0  0  0  0
   -0.2329    6.1713   -1.9241 H   0  0  0  0  0  0  0  0  0  0  0  0
   -1.4107    5.0910   -3.3309 C   0  0  0  0  0  0  0  0  0  0  0  0
   -1.0128    4.0995   -3.5537 H   0  0  0  0  0  0  0  0  0  0  0  0
   -2.5014    5.0475   -3.3788 H   0  0  0  0  0  0  0  0  0  0  0  0
   -1.0495    5.7989   -4.0771 H   0  0  0  0  0  0  0  0  0  0  0  0
  5  6  2  0  0  0  0
  5  7  1  0  0  0  0
  2  3  1  0  0  0  0
  2  4  1  0  0  0  0
  2  5  1  0  0  0  0
  1  2  1  0  0  0  0
 15 16  2  0  0  0  0
 15 17  1  0  0  0  0
 14 36  1  0  0  0  0
 11 12  1  0  0  0  0
 11 13  1  0  0  0  0
 11 14  1  0  0  0  0
  9 10  1  0  0  0  0
  9 11  1  0  0  0  0
  9 15  1  0  0  0  0
  7  8  1  0  0  0  0
  7  9  1  0  0  0  0
 19 20  1  0  0  0  0
 19 21  1  0  0  0  0
 19 22  1  0  0  0  0
 17 18  1  0  0  0  0
 17 19  1  0  0  0  0
 27 28  2  0  0  0  0
 27 29  1  0  0  0  0
 24 25  1  0  0  0  0
 24 26  1  0  0  0  0
 24 27  1  0  0  0  0
 23 24  1  0  0  0  0
 37 38  2  0  0  0  0
 37 39  1  0  0  0  0
 33 34  1  0  0  0  0
 33 35  1  0  0  0  0
 33 36  1  0  0  0  0
 31 32  1  0  0  0  0
 31 33  1  0  0  0  0
 31 37  1  0  0  0  0
 29 30  1  0  0  0  0
 29 31  1  0  0  0  0
 41 42  1  0  0  0  0
 41 43  1  0  0  0  0
 41 44  1  0  0  0  0
 39 40  1  0  0  0  0
 39 41  1  0  0  0  0
M  END
$$$$
