default_name
  -OEChem-02102213163D

 44 43  0     1  0  0  0  0  0999 V2000
    2.4488   -3.0448    2.0990 H   0  0  0  0  0  0  0  0  0  0  0  0
    2.2788   -2.0018    2.3640 C   0  0  0  0  0  0  0  0  0  0  0  0
    2.9228   -1.7258    3.1960 H   0  0  0  0  0  0  0  0  0  0  0  0
    1.2358   -1.8618    2.6430 H   0  0  0  0  0  0  0  0  0  0  0  0
    2.6018   -1.1318    1.1730 C   0  0  0  0  0  0  0  0  0  0  0  0
    3.0048   -1.6348    0.1320 O   0  0  0  0  0  0  0  0  0  0  0  0
    2.4088    0.1752    1.3190 N   0  0  0  0  0  0  0  0  0  0  0  0
    2.0708    0.5242    2.2050 H   0  0  0  0  0  0  0  0  0  0  0  0
    2.6638    1.1782    0.2840 C   0  0  1  0  0  0  0  0  0  0  0  0
    2.0605    0.9255   -0.5896 H   0  0  0  0  0  0  0  0  0  0  0  0
    2.2213    2.5640    0.7852 C   0  0  0  0  0  0  0  0  0  0  0  0
    2.7357    2.7786    1.7227 H   0  0  0  0  0  0  0  0  0  0  0  0
    1.1594    2.5088    1.0233 H   0  0  0  0  0  0  0  0  0  0  0  0
    2.4391    3.9815   -0.3310 S   0  0  0  0  0  0  0  0  0  0  0  0
    4.1424    1.1666   -0.1470 C   0  0  0  0  0  0  0  0  0  0  0  0
    4.4466    1.2144   -1.3388 O   0  0  0  0  0  0  0  0  0  0  0  0
    5.0622    1.1097    0.8254 N   0  0  0  0  0  0  0  0  0  0  0  0
    4.7435    1.0756    1.7803 H   0  0  0  0  0  0  0  0  0  0  0  0
    6.5027    1.0891    0.5792 C   0  0  0  0  0  0  0  0  0  0  0  0
    6.7653    0.1935    0.0122 H   0  0  0  0  0  0  0  0  0  0  0  0
    6.7901    1.9649   -0.0054 H   0  0  0  0  0  0  0  0  0  0  0  0
    7.0488    1.0911    1.5234 H   0  0  0  0  0  0  0  0  0  0  0  0
    8.5197    6.6580    4.3257 H   0  0  0  0  0  0  0  0  0  0  0  0
    7.4318    6.6325    4.2859 C   0  0  0  0  0  0  0  0  0  0  0  0
    7.0285    7.5736    4.6566 H   0  0  0  0  0  0  0  0  0  0  0  0
    7.0632    5.8079    4.8931 H   0  0  0  0  0  0  0  0  0  0  0  0
    6.9981    6.4318    2.8527 C   0  0  0  0  0  0  0  0  0  0  0  0
    7.8321    6.3156    1.9651 O   0  0  0  0  0  0  0  0  0  0  0  0
    5.6873    6.3830    2.6306 N   0  0  0  0  0  0  0  0  0  0  0  0
    5.0564    6.4969    3.4106 H   0  0  0  0  0  0  0  0  0  0  0  0
    5.0752    6.1898    1.3160 C   0  0  1  0  0  0  0  0  0  0  0  0
    5.6674    6.7181    0.5667 H   0  0  0  0  0  0  0  0  0  0  0  0
    5.1115    4.6900    0.9903 C   0  0  0  0  0  0  0  0  0  0  0  0
    6.1546    4.3720    1.0230 H   0  0  0  0  0  0  0  0  0  0  0  0
    4.5849    4.1460    1.7747 H   0  0  0  0  0  0  0  0  0  0  0  0
    4.4521    4.1679   -0.6158 S   0  0  0  0  0  0  0  0  0  0  0  0
    3.6493    6.7683    1.2957 C   0  0  0  0  0  0  0  0  0  0  0  0
    2.9754    6.7785    2.3268 O   0  0  0  0  0  0  0  0  0  0  0  0
    3.1972    7.2536    0.1323 N   0  0  0  0  0  0  0  0  0  0  0  0
    3.7976    7.1778   -0.6735 H   0  0  0  0  0  0  0  0  0  0  0  0
    1.8660    7.8284   -0.0577 C   0  0  0  0  0  0  0  0  0  0  0  0
    1.1198    7.0322   -0.0699 H   0  0  0  0  0  0  0  0  0  0  0  0
    1.6334    8.5113    0.7628 H   0  0  0  0  0  0  0  0  0  0  0  0
    1.8228    8.3756   -0.9995 H   0  0  0  0  0  0  0  0  0  0  0  0
  5  6  2  0  0  0  0
  5  7  1  0  0  0  0
  2  3  1  0  0  0  0
  2  4  1  0  0  0  0
  2  5  1  0  0  0  0
  1  2  1  0  0  0  0
 15 16  2  0  0  0  0
 15 17  1  0  0  0  0
 14 36  1  0  0  0  0
 11 12  1  0  0  0  0
 11 13  1  0  0  0  0
 11 14  1  0  0  0  0
  9 10  1  0  0  0  0
  9 11  1  0  0  0  0
  9 15  1  0  0  0  0
  7  8  1  0  0  0  0
  7  9  1  0  0  0  0
 19 20  1  0  0  0  0
 19 21  1  0  0  0  0
 19 22  1  0  0  0  0
 17 18  1  0  0  0  0
 17 19  1  0  0  0  0
 27 28  2  0  0  0  0
 27 29  1  0  0  0  0
 24 25  1  0  0  0  0
 24 26  1  0  0  0  0
 24 27  1  0  0  0  0
 23 24  1  0  0  0  0
 37 38  2  0  0  0  0
 37 39  1  0  0  0  0
 33 34  1  0  0  0  0
 33 35  1  0  0  0  0
 33 36  1  0  0  0  0
 31 32  1  0  0  0  0
 31 33  1  0  0  0  0
 31 37  1  0  0  0  0
 29 30  1  0  0  0  0
 29 31  1  0  0  0  0
 41 42  1  0  0  0  0
 41 43  1  0  0  0  0
 41 44  1  0  0  0  0
 39 40  1  0  0  0  0
 39 41  1  0  0  0  0
M  END
$$$$
default_name
  -OEChem-02102213163D

 44 43  0     1  0  0  0  0  0999 V2000
    2.4488   -3.0448    2.0990 H   0  0  0  0  0  0  0  0  0  0  0  0
    2.2788   -2.0018    2.3640 C   0  0  0  0  0  0  0  0  0  0  0  0
    2.9228   -1.7258    3.1960 H   0  0  0  0  0  0  0  0  0  0  0  0
    1.2358   -1.8618    2.6430 H   0  0  0  0  0  0  0  0  0  0  0  0
    2.6018   -1.1318    1.1730 C   0  0  0  0  0  0  0  0  0  0  0  0
    3.0048   -1.6348    0.1320 O   0  0  0  0  0  0  0  0  0  0  0  0
    2.4088    0.1752    1.3190 N   0  0  0  0  0  0  0  0  0  0  0  0
    2.0708    0.5242    2.2050 H   0  0  0  0  0  0  0  0  0  0  0  0
    2.6638    1.1782    0.2840 C   0  0  1  0  0  0  0  0  0  0  0  0
    2.0605    0.9255   -0.5896 H   0  0  0  0  0  0  0  0  0  0  0  0
    2.2213    2.5640    0.7852 C   0  0  0  0  0  0  0  0  0  0  0  0
    2.9152    2.8952    1.5588 H   0  0  0  0  0  0  0  0  0  0  0  0
    1.2524    2.4491    1.2705 H   0  0  0  0  0  0  0  0  0  0  0  0
    2.0436    3.8946   -0.4398 S   0  0  0  0  0  0  0  0  0  0  0  0
    4.1424    1.1666   -0.1470 C   0  0  0  0  0  0  0  0  0  0  0  0
    4.4466    1.2144   -1.3388 O   0  0  0  0  0  0  0  0  0  0  0  0
    5.0622    1.1097    0.8254 N   0  0  0  0  0  0  0  0  0  0  0  0
    4.7435    1.0756    1.7803 H   0  0  0  0  0  0  0  0  0  0  0  0
    6.5027    1.0891    0.5792 C   0  0  0  0  0  0  0  0  0  0  0  0
    6.7653    0.1935    0.0122 H   0  0  0  0  0  0  0  0  0  0  0  0
    6.7901    1.9649   -0.0054 H   0  0  0  0  0  0  0  0  0  0  0  0
    7.0488    1.0911    1.5234 H   0  0  0  0  0  0  0  0  0  0  0  0
    8.7555    7.4061    2.4658 H   0  0  0  0  0  0  0  0  0  0  0  0
    7.6948    7.2953    2.6859 C   0  0  0  0  0  0  0  0  0  0  0  0
    7.3017    8.2311    3.0800 H   0  0  0  0  0  0  0  0  0  0  0  0
    7.5541    6.4994    3.4148 H   0  0  0  0  0  0  0  0  0  0  0  0
    6.9638    6.9421    1.4118 C   0  0  0  0  0  0  0  0  0  0  0  0
    7.5785    6.8147    0.3616 O   0  0  0  0  0  0  0  0  0  0  0  0
    5.6475    6.7759    1.5093 N   0  0  0  0  0  0  0  0  0  0  0  0
    5.2050    6.9072    2.4073 H   0  0  0  0  0  0  0  0  0  0  0  0
    4.7703    6.4267    0.3919 C   0  0  1  0  0  0  0  0  0  0  0  0
    5.1225    6.9330   -0.5086 H   0  0  0  0  0  0  0  0  0  0  0  0
    4.8702    4.9119    0.1641 C   0  0  0  0  0  0  0  0  0  0  0  0
    5.9179    4.6774   -0.0302 H   0  0  0  0  0  0  0  0  0  0  0  0
    4.5911    4.3978    1.0841 H   0  0  0  0  0  0  0  0  0  0  0  0
    3.9109    4.2077   -1.2036 S   0  0  0  0  0  0  0  0  0  0  0  0
    3.3304    6.8921    0.6718 C   0  0  0  0  0  0  0  0  0  0  0  0
    2.9137    6.9384    1.8301 O   0  0  0  0  0  0  0  0  0  0  0  0
    2.5797    7.2420   -0.3806 N   0  0  0  0  0  0  0  0  0  0  0  0
    2.9832    7.1440   -1.2988 H   0  0  0  0  0  0  0  0  0  0  0  0
    1.1930    7.6965   -0.2873 C   0  0  0  0  0  0  0  0  0  0  0  0
    0.5414    6.8481   -0.0715 H   0  0  0  0  0  0  0  0  0  0  0  0
    1.0926    8.4268    0.5192 H   0  0  0  0  0  0  0  0  0  0  0  0
    0.8836    8.1575   -1.2255 H   0  0  0  0  0  0  0  0  0  0  0  0
  5  6  2  0  0  0  0
  5  7  1  0  0  0  0
  2  3  1  0  0  0  0
  2  4  1  0  0  0  0
  2  5  1  0  0  0  0
  1  2  1  0  0  0  0
 15 16  2  0  0  0  0
 15 17  1  0  0  0  0
 14 36  1  0  0  0  0
 11 12  1  0  0  0  0
 11 13  1  0  0  0  0
 11 14  1  0  0  0  0
  9 10  1  0  0  0  0
  9 11  1  0  0  0  0
  9 15  1  0  0  0  0
  7  8  1  0  0  0  0
  7  9  1  0  0  0  0
 19 20  1  0  0  0  0
 19 21  1  0  0  0  0
 19 22  1  0  0  0  0
 17 18  1  0  0  0  0
 17 19  1  0  0  0  0
 27 28  2  0  0  0  0
 27 29  1  0  0  0  0
 24 25  1  0  0  0  0
 24 26  1  0  0  0  0
 24 27  1  0  0  0  0
 23 24  1  0  0  0  0
 37 38  2  0  0  0  0
 37 39  1  0  0  0  0
 33 34  1  0  0  0  0
 33 35  1  0  0  0  0
 33 36  1  0  0  0  0
 31 32  1  0  0  0  0
 31 33  1  0  0  0  0
 31 37  1  0  0  0  0
 29 30  1  0  0  0  0
 29 31  1  0  0  0  0
 41 42  1  0  0  0  0
 41 43  1  0  0  0  0
 41 44  1  0  0  0  0
 39 40  1  0  0  0  0
 39 41  1  0  0  0  0
M  END
$$$$
default_name
  -OEChem-02102213163D

 44 43  0     1  0  0  0  0  0999 V2000
    2.4488   -3.0448    2.0990 H   0  0  0  0  0  0  0  0  0  0  0  0
    2.2788   -2.0018    2.3640 C   0  0  0  0  0  0  0  0  0  0  0  0
    2.9228   -1.7258    3.1960 H   0  0  0  0  0  0  0  0  0  0  0  0
    1.2358   -1.8618    2.6430 H   0  0  0  0  0  0  0  0  0  0  0  0
    2.6018   -1.1318    1.1730 C   0  0  0  0  0  0  0  0  0  0  0  0
    3.0048   -1.6348    0.1320 O   0  0  0  0  0  0  0  0  0  0  0  0
    2.4088    0.1752    1.3190 N   0  0  0  0  0  0  0  0  0  0  0  0
    2.0708    0.5242    2.2050 H   0  0  0  0  0  0  0  0  0  0  0  0
    2.6638    1.1782    0.2840 C   0  0  1  0  0  0  0  0  0  0  0  0
    2.0605    0.9255   -0.5896 H   0  0  0  0  0  0  0  0  0  0  0  0
    2.2213    2.5640    0.7852 C   0  0  0  0  0  0  0  0  0  0  0  0
    3.0405    3.0108    1.3499 H   0  0  0  0  0  0  0  0  0  0  0  0
    1.4050    2.4177    1.4921 H   0  0  0  0  0  0  0  0  0  0  0  0
    1.6436    3.7692   -0.4463 S   0  0  0  0  0  0  0  0  0  0  0  0
    4.1424    1.1666   -0.1470 C   0  0  0  0  0  0  0  0  0  0  0  0
    4.4466    1.2144   -1.3388 O   0  0  0  0  0  0  0  0  0  0  0  0
    5.0622    1.1097    0.8254 N   0  0  0  0  0  0  0  0  0  0  0  0
    4.7435    1.0756    1.7803 H   0  0  0  0  0  0  0  0  0  0  0  0
    6.5027    1.0891    0.5792 C   0  0  0  0  0  0  0  0  0  0  0  0
    6.7653    0.1935    0.0122 H   0  0  0  0  0  0  0  0  0  0  0  0
    6.7901    1.9649   -0.0054 H   0  0  0  0  0  0  0  0  0  0  0  0
    7.0488    1.0911    1.5234 H   0  0  0  0  0  0  0  0  0  0  0  0
    8.4866    8.0101    0.5586 H   0  0  0  0  0  0  0  0  0  0  0  0
    7.5200    7.8385    1.0298 C   0  0  0  0  0  0  0  0  0  0  0  0
    7.1426    8.7719    1.4445 H   0  0  0  0  0  0  0  0  0  0  0  0
    7.6254    7.0987    1.8210 H   0  0  0  0  0  0  0  0  0  0  0  0
    6.5518    7.3249   -0.0100 C   0  0  0  0  0  0  0  0  0  0  0  0
    6.9178    7.1560   -1.1653 O   0  0  0  0  0  0  0  0  0  0  0  0
    5.3146    7.0686    0.4063 N   0  0  0  0  0  0  0  0  0  0  0  0
    5.0801    7.2415    1.3730 H   0  0  0  0  0  0  0  0  0  0  0  0
    4.2404    6.5611   -0.4474 C   0  0  1  0  0  0  0  0  0  0  0  0
    4.3274    7.0147   -1.4363 H   0  0  0  0  0  0  0  0  0  0  0  0
    4.4259    5.0443   -0.5942 C   0  0  0  0  0  0  0  0  0  0  0  0
    5.4180    4.8740   -1.0150 H   0  0  0  0  0  0  0  0  0  0  0  0
    4.4149    4.5902    0.3968 H   0  0  0  0  0  0  0  0  0  0  0  0
    3.2477    4.1567   -1.6482 S   0  0  0  0  0  0  0  0  0  0  0  0
    2.8665    6.9384    0.1343 C   0  0  0  0  0  0  0  0  0  0  0  0
    2.7248    7.0508    1.3528 O   0  0  0  0  0  0  0  0  0  0  0  0
    1.8647    7.1405   -0.7312 N   0  0  0  0  0  0  0  0  0  0  0  0
    2.0536    6.9961   -1.7105 H   0  0  0  0  0  0  0  0  0  0  0  0
    0.5004    7.4953   -0.3423 C   0  0  0  0  0  0  0  0  0  0  0  0
   -0.0021    6.6214    0.0755 H   0  0  0  0  0  0  0  0  0  0  0  0
    0.5206    8.2814    0.4163 H   0  0  0  0  0  0  0  0  0  0  0  0
   -0.0579    7.8507   -1.2085 H   0  0  0  0  0  0  0  0  0  0  0  0
  5  6  2  0  0  0  0
  5  7  1  0  0  0  0
  2  3  1  0  0  0  0
  2  4  1  0  0  0  0
  2  5  1  0  0  0  0
  1  2  1  0  0  0  0
 15 16  2  0  0  0  0
 15 17  1  0  0  0  0
 14 36  1  0  0  0  0
 11 12  1  0  0  0  0
 11 13  1  0  0  0  0
 11 14  1  0  0  0  0
  9 10  1  0  0  0  0
  9 11  1  0  0  0  0
  9 15  1  0  0  0  0
  7  8  1  0  0  0  0
  7  9  1  0  0  0  0
 19 20  1  0  0  0  0
 19 21  1  0  0  0  0
 19 22  1  0  0  0  0
 17 18  1  0  0  0  0
 17 19  1  0  0  0  0
 27 28  2  0  0  0  0
 27 29  1  0  0  0  0
 24 25  1  0  0  0  0
 24 26  1  0  0  0  0
 24 27  1  0  0  0  0
 23 24  1  0  0  0  0
 37 38  2  0  0  0  0
 37 39  1  0  0  0  0
 33 34  1  0  0  0  0
 33 35  1  0  0  0  0
 33 36  1  0  0  0  0
 31 32  1  0  0  0  0
 31 33  1  0  0  0  0
 31 37  1  0  0  0  0
 29 30  1  0  0  0  0
 29 31  1  0  0  0  0
 41 42  1  0  0  0  0
 41 43  1  0  0  0  0
 41 44  1  0  0  0  0
 39 40  1  0  0  0  0
 39 41  1  0  0  0  0
M  END
$$$$
default_name
  -OEChem-02102213163D

 44 43  0     1  0  0  0  0  0999 V2000
    2.4488   -3.0448    2.0990 H   0  0  0  0  0  0  0  0  0  0  0  0
    2.2788   -2.0018    2.3640 C   0  0  0  0  0  0  0  0  0  0  0  0
    2.9228   -1.7258    3.1960 H   0  0  0  0  0  0  0  0  0  0  0  0
    1.2358   -1.8618    2.6430 H   0  0  0  0  0  0  0  0  0  0  0  0
    2.6018   -1.1318    1.1730 C   0  0  0  0  0  0  0  0  0  0  0  0
    3.0048   -1.6348    0.1320 O   0  0  0  0  0  0  0  0  0  0  0  0
    2.4088    0.1752    1.3190 N   0  0  0  0  0  0  0  0  0  0  0  0
    2.0708    0.5242    2.2050 H   0  0  0  0  0  0  0  0  0  0  0  0
    2.6638    1.1782    0.2840 C   0  0  1  0  0  0  0  0  0  0  0  0
    2.0605    0.9255   -0.5896 H   0  0  0  0  0  0  0  0  0  0  0  0
    2.2213    2.5640    0.7852 C   0  0  0  0  0  0  0  0  0  0  0  0
    3.1031    3.1174    1.1103 H   0  0  0  0  0  0  0  0  0  0  0  0
    1.6067    2.4166    1.6729 H   0  0  0  0  0  0  0  0  0  0  0  0
    1.2662    3.6138   -0.3499 S   0  0  0  0  0  0  0  0  0  0  0  0
    4.1424    1.1666   -0.1470 C   0  0  0  0  0  0  0  0  0  0  0  0
    4.4466    1.2144   -1.3388 O   0  0  0  0  0  0  0  0  0  0  0  0
    5.0622    1.1097    0.8254 N   0  0  0  0  0  0  0  0  0  0  0  0
    4.7435    1.0756    1.7803 H   0  0  0  0  0  0  0  0  0  0  0  0
    6.5027    1.0891    0.5792 C   0  0  0  0  0  0  0  0  0  0  0  0
    6.7653    0.1935    0.0122 H   0  0  0  0  0  0  0  0  0  0  0  0
    6.7901    1.9649   -0.0054 H   0  0  0  0  0  0  0  0  0  0  0  0
    7.0488    1.0911    1.5234 H   0  0  0  0  0  0  0  0  0  0  0  0
    7.7314    8.4290   -1.2659 H   0  0  0  0  0  0  0  0  0  0  0  0
    6.9193    8.2253   -0.5695 C   0  0  0  0  0  0  0  0  0  0  0  0
    6.5621    9.1592   -0.1384 H   0  0  0  0  0  0  0  0  0  0  0  0
    7.2723    7.5649    0.2203 H   0  0  0  0  0  0  0  0  0  0  0  0
    5.7902    7.5541   -1.3158 C   0  0  0  0  0  0  0  0  0  0  0  0
    5.8948    7.3164   -2.5115 O   0  0  0  0  0  0  0  0  0  0  0  0
    4.7112    7.2411   -0.6034 N   0  0  0  0  0  0  0  0  0  0  0  0
    4.6902    7.4768    0.3782 H   0  0  0  0  0  0  0  0  0  0  0  0
    3.5216    6.5837   -1.1445 C   0  0  1  0  0  0  0  0  0  0  0  0
    3.3363    6.9575   -2.1530 H   0  0  0  0  0  0  0  0  0  0  0  0
    3.8089    5.0783   -1.2329 C   0  0  0  0  0  0  0  0  0  0  0  0
    4.6890    4.9485   -1.8644 H   0  0  0  0  0  0  0  0  0  0  0  0
    4.0683    4.7099   -0.2402 H   0  0  0  0  0  0  0  0  0  0  0  0
    2.5078    4.0185   -1.9192 S   0  0  0  0  0  0  0  0  0  0  0  0
    2.2892    6.9040   -0.2802 C   0  0  0  0  0  0  0  0  0  0  0  0
    2.4216    7.1078    0.9274 O   0  0  0  0  0  0  0  0  0  0  0  0
    1.1010    6.9561   -0.8957 N   0  0  0  0  0  0  0  0  0  0  0  0
    1.0722    6.7442   -1.8804 H   0  0  0  0  0  0  0  0  0  0  0  0
   -0.1644    7.2385   -0.2191 C   0  0  0  0  0  0  0  0  0  0  0  0
   -0.4737    6.3675    0.3610 H   0  0  0  0  0  0  0  0  0  0  0  0
   -0.0436    8.0851    0.4610 H   0  0  0  0  0  0  0  0  0  0  0  0
   -0.9375    7.4763   -0.9499 H   0  0  0  0  0  0  0  0  0  0  0  0
  5  6  2  0  0  0  0
  5  7  1  0  0  0  0
  2  3  1  0  0  0  0
  2  4  1  0  0  0  0
  2  5  1  0  0  0  0
  1  2  1  0  0  0  0
 15 16  2  0  0  0  0
 15 17  1  0  0  0  0
 14 36  1  0  0  0  0
 11 12  1  0  0  0  0
 11 13  1  0  0  0  0
 11 14  1  0  0  0  0
  9 10  1  0  0  0  0
  9 11  1  0  0  0  0
  9 15  1  0  0  0  0
  7  8  1  0  0  0  0
  7  9  1  0  0  0  0
 19 20  1  0  0  0  0
 19 21  1  0  0  0  0
 19 22  1  0  0  0  0
 17 18  1  0  0  0  0
 17 19  1  0  0  0  0
 27 28  2  0  0  0  0
 27 29  1  0  0  0  0
 24 25  1  0  0  0  0
 24 26  1  0  0  0  0
 24 27  1  0  0  0  0
 23 24  1  0  0  0  0
 37 38  2  0  0  0  0
 37 39  1  0  0  0  0
 33 34  1  0  0  0  0
 33 35  1  0  0  0  0
 33 36  1  0  0  0  0
 31 32  1  0  0  0  0
 31 33  1  0  0  0  0
 31 37  1  0  0  0  0
 29 30  1  0  0  0  0
 29 31  1  0  0  0  0
 41 42  1  0  0  0  0
 41 43  1  0  0  0  0
 41 44  1  0  0  0  0
 39 40  1  0  0  0  0
 39 41  1  0  0  0  0
M  END
$$$$
default_name
  -OEChem-02102213163D

 44 43  0     1  0  0  0  0  0999 V2000
    2.4488   -3.0448    2.0990 H   0  0  0  0  0  0  0  0  0  0  0  0
    2.2788   -2.0018    2.3640 C   0  0  0  0  0  0  0  0  0  0  0  0
    2.9228   -1.7258    3.1960 H   0  0  0  0  0  0  0  0  0  0  0  0
    1.2358   -1.8618    2.6430 H   0  0  0  0  0  0  0  0  0  0  0  0
    2.6018   -1.1318    1.1730 C   0  0  0  0  0  0  0  0  0  0  0  0
    3.0048   -1.6348    0.1320 O   0  0  0  0  0  0  0  0  0  0  0  0
    2.4088    0.1752    1.3190 N   0  0  0  0  0  0  0  0  0  0  0  0
    2.0708    0.5242    2.2050 H   0  0  0  0  0  0  0  0  0  0  0  0
    2.6638    1.1782    0.2840 C   0  0  1  0  0  0  0  0  0  0  0  0
    2.0605    0.9255   -0.5896 H   0  0  0  0  0  0  0  0  0  0  0  0
    2.2213    2.5640    0.7852 C   0  0  0  0  0  0  0  0  0  0  0  0
    3.0987    3.2079    0.8564 H   0  0  0  0  0  0  0  0  0  0  0  0
    1.8437    2.4461    1.8006 H   0  0  0  0  0  0  0  0  0  0  0  0
    0.9373    3.4391   -0.1573 S   0  0  0  0  0  0  0  0  0  0  0  0
    4.1424    1.1666   -0.1470 C   0  0  0  0  0  0  0  0  0  0  0  0
    4.4466    1.2144   -1.3388 O   0  0  0  0  0  0  0  0  0  0  0  0
    5.0622    1.1097    0.8254 N   0  0  0  0  0  0  0  0  0  0  0  0
    4.7435    1.0756    1.7803 H   0  0  0  0  0  0  0  0  0  0  0  0
    6.5027    1.0891    0.5792 C   0  0  0  0  0  0  0  0  0  0  0  0
    6.7653    0.1935    0.0122 H   0  0  0  0  0  0  0  0  0  0  0  0
    6.7901    1.9649   -0.0054 H   0  0  0  0  0  0  0  0  0  0  0  0
    7.0488    1.0911    1.5234 H   0  0  0  0  0  0  0  0  0  0  0  0
    6.5413    8.6340   -2.8833 H   0  0  0  0  0  0  0  0  0  0  0  0
    5.9336    8.4291   -2.0032 C   0  0  0  0  0  0  0  0  0  0  0  0
    5.5997    9.3665   -1.5610 H   0  0  0  0  0  0  0  0  0  0  0  0
    6.5187    7.8664   -1.2782 H   0  0  0  0  0  0  0  0  0  0  0  0
    4.7308    7.6140   -2.4167 C   0  0  0  0  0  0  0  0  0  0  0  0
    4.5794    7.2848   -3.5853 O   0  0  0  0  0  0  0  0  0  0  0  0
    3.8785    7.2818   -1.4508 N   0  0  0  0  0  0  0  0  0  0  0  0
    4.0618    7.5973   -0.5094 H   0  0  0  0  0  0  0  0  0  0  0  0
    2.6629    6.4931   -1.6520 C   0  0  1  0  0  0  0  0  0  0  0  0
    2.2166    6.7653   -2.6101 H   0  0  0  0  0  0  0  0  0  0  0  0
    3.0610    5.0116   -1.7086 C   0  0  0  0  0  0  0  0  0  0  0  0
    3.7806    4.8958   -2.5204 H   0  0  0  0  0  0  0  0  0  0  0  0
    3.5750    4.7490   -0.7837 H   0  0  0  0  0  0  0  0  0  0  0  0
    1.7416    3.8025   -1.9983 S   0  0  0  0  0  0  0  0  0  0  0  0
    1.6379    6.7913   -0.5434 C   0  0  0  0  0  0  0  0  0  0  0  0
    2.0248    7.1057    0.5830 O   0  0  0  0  0  0  0  0  0  0  0  0
    0.3404    6.7013   -0.8627 N   0  0  0  0  0  0  0  0  0  0  0  0
    0.1059    6.4055   -1.7970 H   0  0  0  0  0  0  0  0  0  0  0  0
   -0.7561    6.9435    0.0740 C   0  0  0  0  0  0  0  0  0  0  0  0
   -0.8413    6.1037    0.7657 H   0  0  0  0  0  0  0  0  0  0  0  0
   -0.5616    7.8512    0.6503 H   0  0  0  0  0  0  0  0  0  0  0  0
   -1.6953    7.0597   -0.4671 H   0  0  0  0  0  0  0  0  0  0  0  0
  5  6  2  0  0  0  0
  5  7  1  0  0  0  0
  2  3  1  0  0  0  0
  2  4  1  0  0  0  0
  2  5  1  0  0  0  0
  1  2  1  0  0  0  0
 15 16  2  0  0  0  0
 15 17  1  0  0  0  0
 14 36  1  0  0  0  0
 11 12  1  0  0  0  0
 11 13  1  0  0  0  0
 11 14  1  0  0  0  0
  9 10  1  0  0  0  0
  9 11  1  0  0  0  0
  9 15  1  0  0  0  0
  7  8  1  0  0  0  0
  7  9  1  0  0  0  0
 19 20  1  0  0  0  0
 19 21  1  0  0  0  0
 19 22  1  0  0  0  0
 17 18  1  0  0  0  0
 17 19  1  0  0  0  0
 27 28  2  0  0  0  0
 27 29  1  0  0  0  0
 24 25  1  0  0  0  0
 24 26  1  0  0  0  0
 24 27  1  0  0  0  0
 23 24  1  0  0  0  0
 37 38  2  0  0  0  0
 37 39  1  0  0  0  0
 33 34  1  0  0  0  0
 33 35  1  0  0  0  0
 33 36  1  0  0  0  0
 31 32  1  0  0  0  0
 31 33  1  0  0  0  0
 31 37  1  0  0  0  0
 29 30  1  0  0  0  0
 29 31  1  0  0  0  0
 41 42  1  0  0  0  0
 41 43  1  0  0  0  0
 41 44  1  0  0  0  0
 39 40  1  0  0  0  0
 39 41  1  0  0  0  0
M  END
$$$$
default_name
  -OEChem-02102213163D

 44 43  0     1  0  0  0  0  0999 V2000
    2.4488   -3.0448    2.0990 H   0  0  0  0  0  0  0  0  0  0  0  0
    2.2788   -2.0018    2.3640 C   0  0  0  0  0  0  0  0  0  0  0  0
    2.9228   -1.7258    3.1960 H   0  0  0  0  0  0  0  0  0  0  0  0
    1.2358   -1.8618    2.6430 H   0  0  0  0  0  0  0  0  0  0  0  0
    2.6018   -1.1318    1.1730 C   0  0  0  0  0  0  0  0  0  0  0  0
    3.0048   -1.6348    0.1320 O   0  0  0  0  0  0  0  0  0  0  0  0
    2.4088    0.1752    1.3190 N   0  0  0  0  0  0  0  0  0  0  0  0
    2.0708    0.5242    2.2050 H   0  0  0  0  0  0  0  0  0  0  0  0
    2.6638    1.1782    0.2840 C   0  0  1  0  0  0  0  0  0  0  0  0
    2.0605    0.9255   -0.5896 H   0  0  0  0  0  0  0  0  0  0  0  0
    2.2213    2.5640    0.7852 C   0  0  0  0  0  0  0  0  0  0  0  0
    3.0277    3.2760    0.6054 H   0  0  0  0  0  0  0  0  0  0  0  0
    2.0999    2.5041    1.8665 H   0  0  0  0  0  0  0  0  0  0  0  0
    0.6792    3.2570    0.1184 S   0  0  0  0  0  0  0  0  0  0  0  0
    4.1424    1.1666   -0.1470 C   0  0  0  0  0  0  0  0  0  0  0  0
    4.4466    1.2144   -1.3388 O   0  0  0  0  0  0  0  0  0  0  0  0
    5.0622    1.1097    0.8254 N   0  0  0  0  0  0  0  0  0  0  0  0
    4.7435    1.0756    1.7803 H   0  0  0  0  0  0  0  0  0  0  0  0
    6.5027    1.0891    0.5792 C   0  0  0  0  0  0  0  0  0  0  0  0
    6.7653    0.1935    0.0122 H   0  0  0  0  0  0  0  0  0  0  0  0
    6.7901    1.9649   -0.0054 H   0  0  0  0  0  0  0  0  0  0  0  0
    7.0488    1.0911    1.5234 H   0  0  0  0  0  0  0  0  0  0  0  0
    4.9974    8.6114   -4.1835 H   0  0  0  0  0  0  0  0  0  0  0  0
    4.6302    8.4362   -3.1734 C   0  0  0  0  0  0  0  0  0  0  0  0
    4.3211    9.3797   -2.7261 H   0  0  0  0  0  0  0  0  0  0  0  0
    5.4161    7.9825   -2.5725 H   0  0  0  0  0  0  0  0  0  0  0  0
    3.4458    7.5006   -3.2375 C   0  0  0  0  0  0  0  0  0  0  0  0
    3.0611    7.0634   -4.3136 O   0  0  0  0  0  0  0  0  0  0  0  0
    2.8731    7.1877   -2.0782 N   0  0  0  0  0  0  0  0  0  0  0  0
    3.2378    7.5945   -1.2292 H   0  0  0  0  0  0  0  0  0  0  0  0
    1.7227    6.2954   -1.9352 C   0  0  1  0  0  0  0  0  0  0  0  0
    1.0448    6.4513   -2.7763 H   0  0  0  0  0  0  0  0  0  0  0  0
    2.2335    4.8487   -1.9888 C   0  0  0  0  0  0  0  0  0  0  0  0
    2.7546    4.7194   -2.9384 H   0  0  0  0  0  0  0  0  0  0  0  0
    2.9684    4.7047   -1.1966 H   0  0  0  0  0  0  0  0  0  0  0  0
    1.0013    3.5233   -1.8800 S   0  0  0  0  0  0  0  0  0  0  0  0
    0.9569    6.6078   -0.6375 C   0  0  0  0  0  0  0  0  0  0  0  0
    1.5614    7.0446    0.3429 O   0  0  0  0  0  0  0  0  0  0  0  0
   -0.3651    6.3936   -0.6347 N   0  0  0  0  0  0  0  0  0  0  0  0
   -0.7795    6.0030   -1.4660 H   0  0  0  0  0  0  0  0  0  0  0  0
   -1.2345    6.6305    0.5170 C   0  0  0  0  0  0  0  0  0  0  0  0
   -1.0798    5.8481    1.2619 H   0  0  0  0  0  0  0  0  0  0  0  0
   -0.9982    7.5957    0.9713 H   0  0  0  0  0  0  0  0  0  0  0  0
   -2.2796    6.6294    0.2068 H   0  0  0  0  0  0  0  0  0  0  0  0
  5  6  2  0  0  0  0
  5  7  1  0  0  0  0
  2  3  1  0  0  0  0
  2  4  1  0  0  0  0
  2  5  1  0  0  0  0
  1  2  1  0  0  0  0
 15 16  2  0  0  0  0
 15 17  1  0  0  0  0
 14 36  1  0  0  0  0
 11 12  1  0  0  0  0
 11 13  1  0  0  0  0
 11 14  1  0  0  0  0
  9 10  1  0  0  0  0
  9 11  1  0  0  0  0
  9 15  1  0  0  0  0
  7  8  1  0  0  0  0
  7  9  1  0  0  0  0
 19 20  1  0  0  0  0
 19 21  1  0  0  0  0
 19 22  1  0  0  0  0
 17 18  1  0  0  0  0
 17 19  1  0  0  0  0
 27 28  2  0  0  0  0
 27 29  1  0  0  0  0
 24 25  1  0  0  0  0
 24 26  1  0  0  0  0
 24 27  1  0  0  0  0
 23 24  1  0  0  0  0
 37 38  2  0  0  0  0
 37 39  1  0  0  0  0
 33 34  1  0  0  0  0
 33 35  1  0  0  0  0
 33 36  1  0  0  0  0
 31 32  1  0  0  0  0
 31 33  1  0  0  0  0
 31 37  1  0  0  0  0
 29 30  1  0  0  0  0
 29 31  1  0  0  0  0
 41 42  1  0  0  0  0
 41 43  1  0  0  0  0
 41 44  1  0  0  0  0
 39 40  1  0  0  0  0
 39 41  1  0  0  0  0
M  END
$$$$
default_name
  -OEChem-02102213163D

 44 43  0     1  0  0  0  0  0999 V2000
    2.4488   -3.0448    2.0990 H   0  0  0  0  0  0  0  0  0  0  0  0
    2.2788   -2.0018    2.3640 C   0  0  0  0  0  0  0  0  0  0  0  0
    2.9228   -1.7258    3.1960 H   0  0  0  0  0  0  0  0  0  0  0  0
    1.2358   -1.8618    2.6430 H   0  0  0  0  0  0  0  0  0  0  0  0
    2.6018   -1.1318    1.1730 C   0  0  0  0  0  0  0  0  0  0  0  0
    3.0048   -1.6348    0.1320 O   0  0  0  0  0  0  0  0  0  0  0  0
    2.4088    0.1752    1.3190 N   0  0  0  0  0  0  0  0  0  0  0  0
    2.0708    0.5242    2.2050 H   0  0  0  0  0  0  0  0  0  0  0  0
    2.6638    1.1782    0.2840 C   0  0  1  0  0  0  0  0  0  0  0  0
    2.0605    0.9255   -0.5896 H   0  0  0  0  0  0  0  0  0  0  0  0
    2.2213    2.5640    0.7852 C   0  0  0  0  0  0  0  0  0  0  0  0
    2.8948    3.3171    0.3745 H   0  0  0  0  0  0  0  0  0  0  0  0
    2.3578    2.5866    1.8661 H   0  0  0  0  0  0  0  0  0  0  0  0
    0.5096    3.0798    0.4585 S   0  0  0  0  0  0  0  0  0  0  0  0
    4.1424    1.1666   -0.1470 C   0  0  0  0  0  0  0  0  0  0  0  0
    4.4466    1.2144   -1.3388 O   0  0  0  0  0  0  0  0  0  0  0  0
    5.0622    1.1097    0.8254 N   0  0  0  0  0  0  0  0  0  0  0  0
    4.7435    1.0756    1.7803 H   0  0  0  0  0  0  0  0  0  0  0  0
    6.5027    1.0891    0.5792 C   0  0  0  0  0  0  0  0  0  0  0  0
    6.7653    0.1935    0.0122 H   0  0  0  0  0  0  0  0  0  0  0  0
    6.7901    1.9649   -0.0054 H   0  0  0  0  0  0  0  0  0  0  0  0
    7.0488    1.0911    1.5234 H   0  0  0  0  0  0  0  0  0  0  0  0
    3.2050    8.3626   -5.0778 H   0  0  0  0  0  0  0  0  0  0  0  0
    3.0978    8.2461   -4.0004 C   0  0  0  0  0  0  0  0  0  0  0  0
    2.8133    9.1979   -3.5545 H   0  0  0  0  0  0  0  0  0  0  0  0
    4.0395    7.9053   -3.5742 H   0  0  0  0  0  0  0  0  0  0  0  0
    2.0228    7.2217   -3.7224 C   0  0  0  0  0  0  0  0  0  0  0  0
    1.4435    6.6674   -4.6466 O   0  0  0  0  0  0  0  0  0  0  0  0
    1.7637    6.9654   -2.4430 N   0  0  0  0  0  0  0  0  0  0  0  0
    2.2743    7.4688   -1.7321 H   0  0  0  0  0  0  0  0  0  0  0  0
    0.7653    6.0040   -1.9750 C   0  0  1  0  0  0  0  0  0  0  0  0
   -0.0993    6.0368   -2.6403 H   0  0  0  0  0  0  0  0  0  0  0  0
    1.3825    4.6007   -2.0544 C   0  0  0  0  0  0  0  0  0  0  0  0
    1.6811    4.4314   -3.0899 H   0  0  0  0  0  0  0  0  0  0  0  0
    2.2900    4.5800   -1.4507 H   0  0  0  0  0  0  0  0  0  0  0  0
    0.3373    3.2000   -1.5723 S   0  0  0  0  0  0  0  0  0  0  0  0
    0.2926    6.3662   -0.5559 C   0  0  0  0  0  0  0  0  0  0  0  0
    1.0630    6.9286    0.2237 O   0  0  0  0  0  0  0  0  0  0  0  0
   -0.9674    6.0538   -0.2270 N   0  0  0  0  0  0  0  0  0  0  0  0
   -1.5236    5.5643   -0.9100 H   0  0  0  0  0  0  0  0  0  0  0  0
   -1.5669    6.3208    1.0798 C   0  0  0  0  0  0  0  0  0  0  0  0
   -1.1729    5.6180    1.8158 H   0  0  0  0  0  0  0  0  0  0  0  0
   -1.3234    7.3359    1.4022 H   0  0  0  0  0  0  0  0  0  0  0  0
   -2.6505    6.2146    1.0260 H   0  0  0  0  0  0  0  0  0  0  0  0
  5  6  2  0  0  0  0
  5  7  1  0  0  0  0
  2  3  1  0  0  0  0
  2  4  1  0  0  0  0
  2  5  1  0  0  0  0
  1  2  1  0  0  0  0
 15 16  2  0  0  0  0
 15 17  1  0  0  0  0
 14 36  1  0  0  0  0
 11 12  1  0  0  0  0
 11 13  1  0  0  0  0
 11 14  1  0  0  0  0
  9 10  1  0  0  0  0
  9 11  1  0  0  0  0
  9 15  1  0  0  0  0
  7  8  1  0  0  0  0
  7  9  1  0  0  0  0
 19 20  1  0  0  0  0
 19 21  1  0  0  0  0
 19 22  1  0  0  0  0
 17 18  1  0  0  0  0
 17 19  1  0  0  0  0
 27 28  2  0  0  0  0
 27 29  1  0  0  0  0
 24 25  1  0  0  0  0
 24 26  1  0  0  0  0
 24 27  1  0  0  0  0
 23 24  1  0  0  0  0
 37 38  2  0  0  0  0
 37 39  1  0  0  0  0
 33 34  1  0  0  0  0
 33 35  1  0  0  0  0
 33 36  1  0  0  0  0
 31 32  1  0  0  0  0
 31 33  1  0  0  0  0
 31 37  1  0  0  0  0
 29 30  1  0  0  0  0
 29 31  1  0  0  0  0
 41 42  1  0  0  0  0
 41 43  1  0  0  0  0
 41 44  1  0  0  0  0
 39 40  1  0  0  0  0
 39 41  1  0  0  0  0
M  END
$$$$
default_name
  -OEChem-02102213163D

 44 43  0     1  0  0  0  0  0999 V2000
    2.4488   -3.0448    2.0990 H   0  0  0  0  0  0  0  0  0  0  0  0
    2.2788   -2.0018    2.3640 C   0  0  0  0  0  0  0  0  0  0  0  0
    2.9228   -1.7258    3.1960 H   0  0  0  0  0  0  0  0  0  0  0  0
    1.2358   -1.8618    2.6430 H   0  0  0  0  0  0  0  0  0  0  0  0
    2.6018   -1.1318    1.1730 C   0  0  0  0  0  0  0  0  0  0  0  0
    3.0048   -1.6348    0.1320 O   0  0  0  0  0  0  0  0  0  0  0  0
    2.4088    0.1752    1.3190 N   0  0  0  0  0  0  0  0  0  0  0  0
    2.0708    0.5242    2.2050 H   0  0  0  0  0  0  0  0  0  0  0  0
    2.6638    1.1782    0.2840 C   0  0  1  0  0  0  0  0  0  0  0  0
    2.0605    0.9255   -0.5896 H   0  0  0  0  0  0  0  0  0  0  0  0
    2.2213    2.5640    0.7852 C   0  0  0  0  0  0  0  0  0  0  0  0
    2.7092    3.3284    0.1793 H   0  0  0  0  0  0  0  0  0  0  0  0
    2.6000    2.6880    1.7994 H   0  0  0  0  0  0  0  0  0  0  0  0
    0.4399    2.9197    0.8397 S   0  0  0  0  0  0  0  0  0  0  0  0
    4.1424    1.1666   -0.1470 C   0  0  0  0  0  0  0  0  0  0  0  0
    4.4466    1.2144   -1.3388 O   0  0  0  0  0  0  0  0  0  0  0  0
    5.0622    1.1097    0.8254 N   0  0  0  0  0  0  0  0  0  0  0  0
    4.7435    1.0756    1.7803 H   0  0  0  0  0  0  0  0  0  0  0  0
    6.5027    1.0891    0.5792 C   0  0  0  0  0  0  0  0  0  0  0  0
    6.7653    0.1935    0.0122 H   0  0  0  0  0  0  0  0  0  0  0  0
    6.7901    1.9649   -0.0054 H   0  0  0  0  0  0  0  0  0  0  0  0
    7.0488    1.0911    1.5234 H   0  0  0  0  0  0  0  0  0  0  0  0
    1.2862    7.9045   -5.5053 H   0  0  0  0  0  0  0  0  0  0  0  0
    1.4409    7.8716   -4.4278 C   0  0  0  0  0  0  0  0  0  0  0  0
    1.1791    8.8335   -3.9897 H   0  0  0  0  0  0  0  0  0  0  0  0
    2.4829    7.6401   -4.2153 H   0  0  0  0  0  0  0  0  0  0  0  0
    0.5588    6.7961   -3.8383 C   0  0  0  0  0  0  0  0  0  0  0  0
   -0.1633    6.1236   -4.5618 O   0  0  0  0  0  0  0  0  0  0  0  0
    0.6258    6.6300   -2.5201 N   0  0  0  0  0  0  0  0  0  0  0  0
    1.2370    7.2287   -1.9840 H   0  0  0  0  0  0  0  0  0  0  0  0
   -0.1443    5.6389   -1.7685 C   0  0  1  0  0  0  0  0  0  0  0  0
   -1.1379    5.5500   -2.2114 H   0  0  0  0  0  0  0  0  0  0  0  0
    0.5661    4.2845   -1.9009 C   0  0  0  0  0  0  0  0  0  0  0  0
    0.6331    4.0514   -2.9646 H   0  0  0  0  0  0  0  0  0  0  0  0
    1.5860    4.3834   -1.5287 H   0  0  0  0  0  0  0  0  0  0  0  0
   -0.2051    2.8546   -1.0963 S   0  0  0  0  0  0  0  0  0  0  0  0
   -0.3096    6.0829   -0.3043 C   0  0  0  0  0  0  0  0  0  0  0  0
    0.5635    6.7656    0.2332 O   0  0  0  0  0  0  0  0  0  0  0  0
   -1.4255    5.7051    0.3324 N   0  0  0  0  0  0  0  0  0  0  0  0
   -2.0758    5.1191   -0.1667 H   0  0  0  0  0  0  0  0  0  0  0  0
   -1.7307    6.0355    1.7239 C   0  0  0  0  0  0  0  0  0  0  0  0
   -1.1143    5.4291    2.3897 H   0  0  0  0  0  0  0  0  0  0  0  0
   -1.5153    7.0897    1.9136 H   0  0  0  0  0  0  0  0  0  0  0  0
   -2.7829    5.8436    1.9347 H   0  0  0  0  0  0  0  0  0  0  0  0
  5  6  2  0  0  0  0
  5  7  1  0  0  0  0
  2  3  1  0  0  0  0
  2  4  1  0  0  0  0
  2  5  1  0  0  0  0
  1  2  1  0  0  0  0
 15 16  2  0  0  0  0
 15 17  1  0  0  0  0
 14 36  1  0  0  0  0
 11 12  1  0  0  0  0
 11 13  1  0  0  0  0
 11 14  1  0  0  0  0
  9 10  1  0  0  0  0
  9 11  1  0  0  0  0
  9 15  1  0  0  0  0
  7  8  1  0  0  0  0
  7  9  1  0  0  0  0
 19 20  1  0  0  0  0
 19 21  1  0  0  0  0
 19 22  1  0  0  0  0
 17 18  1  0  0  0  0
 17 19  1  0  0  0  0
 27 28  2  0  0  0  0
 27 29  1  0  0  0  0
 24 25  1  0  0  0  0
 24 26  1  0  0  0  0
 24 27  1  0  0  0  0
 23 24  1  0  0  0  0
 37 38  2  0  0  0  0
 37 39  1  0  0  0  0
 33 34  1  0  0  0  0
 33 35  1  0  0  0  0
 33 36  1  0  0  0  0
 31 32  1  0  0  0  0
 31 33  1  0  0  0  0
 31 37  1  0  0  0  0
 29 30  1  0  0  0  0
 29 31  1  0  0  0  0
 41 42  1  0  0  0  0
 41 43  1  0  0  0  0
 41 44  1  0  0  0  0
 39 40  1  0  0  0  0
 39 41  1  0  0  0  0
M  END
$$$$
default_name
  -OEChem-02102213163D

 44 43  0     1  0  0  0  0  0999 V2000
    2.4488   -3.0448    2.0990 H   0  0  0  0  0  0  0  0  0  0  0  0
    2.2788   -2.0018    2.3640 C   0  0  0  0  0  0  0  0  0  0  0  0
    2.9228   -1.7258    3.1960 H   0  0  0  0  0  0  0  0  0  0  0  0
    1.2358   -1.8618    2.6430 H   0  0  0  0  0  0  0  0  0  0  0  0
    2.6018   -1.1318    1.1730 C   0  0  0  0  0  0  0  0  0  0  0  0
    3.0048   -1.6348    0.1320 O   0  0  0  0  0  0  0  0  0  0  0  0
    2.4088    0.1752    1.3190 N   0  0  0  0  0  0  0  0  0  0  0  0
    2.0708    0.5242    2.2050 H   0  0  0  0  0  0  0  0  0  0  0  0
    2.6638    1.1782    0.2840 C   0  0  1  0  0  0  0  0  0  0  0  0
    2.0605    0.9255   -0.5896 H   0  0  0  0  0  0  0  0  0  0  0  0
    2.2213    2.5640    0.7852 C   0  0  0  0  0  0  0  0  0  0  0  0
    2.4834    3.3092    0.0332 H   0  0  0  0  0  0  0  0  0  0  0  0
    2.8097    2.8014    1.6711 H   0  0  0  0  0  0  0  0  0  0  0  0
    0.4749    2.7875    1.2360 S   0  0  0  0  0  0  0  0  0  0  0  0
    4.1424    1.1666   -0.1470 C   0  0  0  0  0  0  0  0  0  0  0  0
    4.4466    1.2144   -1.3388 O   0  0  0  0  0  0  0  0  0  0  0  0
    5.0622    1.1097    0.8254 N   0  0  0  0  0  0  0  0  0  0  0  0
    4.7435    1.0756    1.7803 H   0  0  0  0  0  0  0  0  0  0  0  0
    6.5027    1.0891    0.5792 C   0  0  0  0  0  0  0  0  0  0  0  0
    6.7653    0.1935    0.0122 H   0  0  0  0  0  0  0  0  0  0  0  0
    6.7901    1.9649   -0.0054 H   0  0  0  0  0  0  0  0  0  0  0  0
    7.0488    1.0911    1.5234 H   0  0  0  0  0  0  0  0  0  0  0  0
   -0.6283    7.2684   -5.4368 H   0  0  0  0  0  0  0  0  0  0  0  0
   -0.2277    7.3384   -4.4266 C   0  0  0  0  0  0  0  0  0  0  0  0
   -0.4701    8.3113   -4.0019 H   0  0  0  0  0  0  0  0  0  0  0  0
    0.8522    7.2050   -4.4518 H   0  0  0  0  0  0  0  0  0  0  0  0
   -0.8465    6.2530   -3.5774 C   0  0  0  0  0  0  0  0  0  0  0  0
   -1.6497    5.4693   -4.0648 O   0  0  0  0  0  0  0  0  0  0  0  0
   -0.4630    6.2043   -2.3044 N   0  0  0  0  0  0  0  0  0  0  0  0
    0.1966    6.8906   -1.9677 H   0  0  0  0  0  0  0  0  0  0  0  0
   -0.9439    5.2250   -1.3299 C   0  0  1  0  0  0  0  0  0  0  0  0
   -2.0000    5.0242   -1.5187 H   0  0  0  0  0  0  0  0  0  0  0  0
   -0.1600    3.9217   -1.5388 C   0  0  0  0  0  0  0  0  0  0  0  0
   -0.3180    3.6053   -2.5709 H   0  0  0  0  0  0  0  0  0  0  0  0
    0.9044    4.1284   -1.4254 H   0  0  0  0  0  0  0  0  0  0  0  0
   -0.5889    2.5107   -0.4843 S   0  0  0  0  0  0  0  0  0  0  0  0
   -0.8088    5.7772    0.1002 C   0  0  0  0  0  0  0  0  0  0  0  0
    0.0970    6.5668    0.3711 O   0  0  0  0  0  0  0  0  0  0  0  0
   -1.7082    5.3714    1.0056 N   0  0  0  0  0  0  0  0  0  0  0  0
   -2.3983    4.6979    0.7130 H   0  0  0  0  0  0  0  0  0  0  0  0
   -1.7148    5.7940    2.4055 C   0  0  0  0  0  0  0  0  0  0  0  0
   -0.9081    5.2943    2.9444 H   0  0  0  0  0  0  0  0  0  0  0  0
   -1.5606    6.8737    2.4705 H   0  0  0  0  0  0  0  0  0  0  0  0
   -2.6678    5.5418    2.8708 H   0  0  0  0  0  0  0  0  0  0  0  0
  5  6  2  0  0  0  0
  5  7  1  0  0  0  0
  2  3  1  0  0  0  0
  2  4  1  0  0  0  0
  2  5  1  0  0  0  0
  1  2  1  0  0  0  0
 15 16  2  0  0  0  0
 15 17  1  0  0  0  0
 14 36  1  0  0  0  0
 11 12  1  0  0  0  0
 11 13  1  0  0  0  0
 11 14  1  0  0  0  0
  9 10  1  0  0  0  0
  9 11  1  0  0  0  0
  9 15  1  0  0  0  0
  7  8  1  0  0  0  0
  7  9  1  0  0  0  0
 19 20  1  0  0  0  0
 19 21  1  0  0  0  0
 19 22  1  0  0  0  0
 17 18  1  0  0  0  0
 17 19  1  0  0  0  0
 27 28  2  0  0  0  0
 27 29  1  0  0  0  0
 24 25  1  0  0  0  0
 24 26  1  0  0  0  0
 24 27  1  0  0  0  0
 23 24  1  0  0  0  0
 37 38  2  0  0  0  0
 37 39  1  0  0  0  0
 33 34  1  0  0  0  0
 33 35  1  0  0  0  0
 33 36  1  0  0  0  0
 31 32  1  0  0  0  0
 31 33  1  0  0  0  0
 31 37  1  0  0  0  0
 29 30  1  0  0  0  0
 29 31  1  0  0  0  0
 41 42  1  0  0  0  0
 41 43  1  0  0  0  0
 41 44  1  0  0  0  0
 39 40  1  0  0  0  0
 39 41  1  0  0  0  0
M  END
$$$$
default_name
  -OEChem-02102213163D

 44 43  0     1  0  0  0  0  0999 V2000
    2.4488   -3.0448    2.0990 H   0  0  0  0  0  0  0  0  0  0  0  0
    2.2788   -2.0018    2.3640 C   0  0  0  0  0  0  0  0  0  0  0  0
    2.9228   -1.7258    3.1960 H   0  0  0  0  0  0  0  0  0  0  0  0
    1.2358   -1.8618    2.6430 H   0  0  0  0  0  0  0  0  0  0  0  0
    2.6018   -1.1318    1.1730 C   0  0  0  0  0  0  0  0  0  0  0  0
    3.0048   -1.6348    0.1320 O   0  0  0  0  0  0  0  0  0  0  0  0
    2.4088    0.1752    1.3190 N   0  0  0  0  0  0  0  0  0  0  0  0
    2.0708    0.5242    2.2050 H   0  0  0  0  0  0  0  0  0  0  0  0
    2.6638    1.1782    0.2840 C   0  0  1  0  0  0  0  0  0  0  0  0
    2.0605    0.9255   -0.5896 H   0  0  0  0  0  0  0  0  0  0  0  0
    2.2213    2.5640    0.7852 C   0  0  0  0  0  0  0  0  0  0  0  0
    2.2329    3.2607   -0.0538 H   0  0  0  0  0  0  0  0  0  0  0  0
    2.9729    2.9191    1.4898 H   0  0  0  0  0  0  0  0  0  0  0  0
    0.6124    2.6923    1.6206 S   0  0  0  0  0  0  0  0  0  0  0  0
    4.1424    1.1666   -0.1470 C   0  0  0  0  0  0  0  0  0  0  0  0
    4.4466    1.2144   -1.3388 O   0  0  0  0  0  0  0  0  0  0  0  0
    5.0622    1.1097    0.8254 N   0  0  0  0  0  0  0  0  0  0  0  0
    4.7435    1.0756    1.7803 H   0  0  0  0  0  0  0  0  0  0  0  0
    6.5027    1.0891    0.5792 C   0  0  0  0  0  0  0  0  0  0  0  0
    6.7653    0.1935    0.0122 H   0  0  0  0  0  0  0  0  0  0  0  0
    6.7901    1.9649   -0.0054 H   0  0  0  0  0  0  0  0  0  0  0  0
    7.0488    1.0911    1.5234 H   0  0  0  0  0  0  0  0  0  0  0  0
   -2.4080    6.4977   -4.8771 H   0  0  0  0  0  0  0  0  0  0  0  0
   -1.7941    6.6828   -3.9968 C   0  0  0  0  0  0  0  0  0  0  0  0
   -2.0219    7.6670   -3.5905 H   0  0  0  0  0  0  0  0  0  0  0  0
   -0.7414    6.6296   -4.2679 H   0  0  0  0  0  0  0  0  0  0  0  0
   -2.0972    5.6293   -2.9573 C   0  0  0  0  0  0  0  0  0  0  0  0
   -2.9144    4.7488   -3.1896 O   0  0  0  0  0  0  0  0  0  0  0  0
   -1.4285    5.7174   -1.8106 N   0  0  0  0  0  0  0  0  0  0  0  0
   -0.7760    6.4775   -1.6842 H   0  0  0  0  0  0  0  0  0  0  0  0
   -1.5791    4.7903   -0.6890 C   0  0  1  0  0  0  0  0  0  0  0  0
   -2.6269    4.4951   -0.6096 H   0  0  0  0  0  0  0  0  0  0  0  0
   -0.7463    3.5370   -0.9928 C   0  0  0  0  0  0  0  0  0  0  0  0
   -1.1072    3.1236   -1.9358 H   0  0  0  0  0  0  0  0  0  0  0  0
    0.2916    3.8323   -1.1476 H   0  0  0  0  0  0  0  0  0  0  0  0
   -0.7880    2.1917    0.2218 S   0  0  0  0  0  0  0  0  0  0  0  0
   -1.1709    5.4700    0.6300 C   0  0  0  0  0  0  0  0  0  0  0  0
   -0.3046    6.3457    0.6277 O   0  0  0  0  0  0  0  0  0  0  0  0
   -1.7963    5.0753    1.7465 N   0  0  0  0  0  0  0  0  0  0  0  0
   -2.4693    4.3293    1.6693 H   0  0  0  0  0  0  0  0  0  0  0  0
   -1.5201    5.6129    3.0781 C   0  0  0  0  0  0  0  0  0  0  0  0
   -0.5682    5.2228    3.4422 H   0  0  0  0  0  0  0  0  0  0  0  0
   -1.4564    6.7028    3.0352 H   0  0  0  0  0  0  0  0  0  0  0  0
   -2.3128    5.3296    3.7707 H   0  0  0  0  0  0  0  0  0  0  0  0
  5  6  2  0  0  0  0
  5  7  1  0  0  0  0
  2  3  1  0  0  0  0
  2  4  1  0  0  0  0
  2  5  1  0  0  0  0
  1  2  1  0  0  0  0
 15 16  2  0  0  0  0
 15 17  1  0  0  0  0
 14 36  1  0  0  0  0
 11 12  1  0  0  0  0
 11 13  1  0  0  0  0
 11 14  1  0  0  0  0
  9 10  1  0  0  0  0
  9 11  1  0  0  0  0
  9 15  1  0  0  0  0
  7  8  1  0  0  0  0
  7  9  1  0  0  0  0
 19 20  1  0  0  0  0
 19 21  1  0  0  0  0
 19 22  1  0  0  0  0
 17 18  1  0  0  0  0
 17 19  1  0  0  0  0
 27 28  2  0  0  0  0
 27 29  1  0  0  0  0
 24 25  1  0  0  0  0
 24 26  1  0  0  0  0
 24 27  1  0  0  0  0
 23 24  1  0  0  0  0
 37 38  2  0  0  0  0
 37 39  1  0  0  0  0
 33 34  1  0  0  0  0
 33 35  1  0  0  0  0
 33 36  1  0  0  0  0
 31 32  1  0  0  0  0
 31 33  1  0  0  0  0
 31 37  1  0  0  0  0
 29 30  1  0  0  0  0
 29 31  1  0  0  0  0
 41 42  1  0  0  0  0
 41 43  1  0  0  0  0
 41 44  1  0  0  0  0
 39 40  1  0  0  0  0
 39 41  1  0  0  0  0
M  END
$$$$
default_name
  -OEChem-02102213163D

 44 43  0     1  0  0  0  0  0999 V2000
    2.4488   -3.0448    2.0990 H   0  0  0  0  0  0  0  0  0  0  0  0
    2.2788   -2.0018    2.3640 C   0  0  0  0  0  0  0  0  0  0  0  0
    2.9228   -1.7258    3.1960 H   0  0  0  0  0  0  0  0  0  0  0  0
    1.2358   -1.8618    2.6430 H   0  0  0  0  0  0  0  0  0  0  0  0
    2.6018   -1.1318    1.1730 C   0  0  0  0  0  0  0  0  0  0  0  0
    3.0048   -1.6348    0.1320 O   0  0  0  0  0  0  0  0  0  0  0  0
    2.4088    0.1752    1.3190 N   0  0  0  0  0  0  0  0  0  0  0  0
    2.0708    0.5242    2.2050 H   0  0  0  0  0  0  0  0  0  0  0  0
    2.6638    1.1782    0.2840 C   0  0  1  0  0  0  0  0  0  0  0  0
    2.0605    0.9255   -0.5896 H   0  0  0  0  0  0  0  0  0  0  0  0
    2.2213    2.5640    0.7852 C   0  0  0  0  0  0  0  0  0  0  0  0
    1.9747    3.1862   -0.0759 H   0  0  0  0  0  0  0  0  0  0  0  0
    3.0783    3.0331    1.2678 H   0  0  0  0  0  0  0  0  0  0  0  0
    0.8427    2.6405    1.9670 S   0  0  0  0  0  0  0  0  0  0  0  0
    4.1424    1.1666   -0.1470 C   0  0  0  0  0  0  0  0  0  0  0  0
    4.4466    1.2144   -1.3388 O   0  0  0  0  0  0  0  0  0  0  0  0
    5.0622    1.1097    0.8254 N   0  0  0  0  0  0  0  0  0  0  0  0
    4.7435    1.0756    1.7803 H   0  0  0  0  0  0  0  0  0  0  0  0
    6.5027    1.0891    0.5792 C   0  0  0  0  0  0  0  0  0  0  0  0
    6.7653    0.1935    0.0122 H   0  0  0  0  0  0  0  0  0  0  0  0
    6.7901    1.9649   -0.0054 H   0  0  0  0  0  0  0  0  0  0  0  0
    7.0488    1.0911    1.5234 H   0  0  0  0  0  0  0  0  0  0  0  0
   -3.9315    5.6448   -3.8642 H   0  0  0  0  0  0  0  0  0  0  0  0
   -3.1517    5.9494   -3.1678 C   0  0  0  0  0  0  0  0  0  0  0  0
   -3.3707    6.9443   -2.7833 H   0  0  0  0  0  0  0  0  0  0  0  0
   -2.1892    5.9532   -3.6758 H   0  0  0  0  0  0  0  0  0  0  0  0
   -3.1082    4.9676   -2.0204 C   0  0  0  0  0  0  0  0  0  0  0  0
   -3.8712    4.0115   -1.9958 O   0  0  0  0  0  0  0  0  0  0  0  0
   -2.2050    5.2024   -1.0723 N   0  0  0  0  0  0  0  0  0  0  0  0
   -1.6146    6.0175   -1.1529 H   0  0  0  0  0  0  0  0  0  0  0  0
   -2.0066    4.3646    0.1105 C   0  0  1  0  0  0  0  0  0  0  0  0
   -2.9759    3.9989    0.4540 H   0  0  0  0  0  0  0  0  0  0  0  0
   -1.1530    3.1565   -0.3001 C   0  0  0  0  0  0  0  0  0  0  0  0
   -1.6809    2.6389   -1.1024 H   0  0  0  0  0  0  0  0  0  0  0  0
   -0.2106    3.5152   -0.7145 H   0  0  0  0  0  0  0  0  0  0  0  0
   -0.7888    1.9193    0.9740 S   0  0  0  0  0  0  0  0  0  0  0  0
   -1.3712    5.1821    1.2490 C   0  0  0  0  0  0  0  0  0  0  0  0
   -0.6142    6.1174    0.9857 O   0  0  0  0  0  0  0  0  0  0  0  0
   -1.6836    4.8369    2.5047 N   0  0  0  0  0  0  0  0  0  0  0  0
   -2.2839    4.0385    2.6370 H   0  0  0  0  0  0  0  0  0  0  0  0
   -1.1600    5.5044    3.6959 C   0  0  0  0  0  0  0  0  0  0  0  0
   -0.1178    5.2194    3.8491 H   0  0  0  0  0  0  0  0  0  0  0  0
   -1.2097    6.5885    3.5690 H   0  0  0  0  0  0  0  0  0  0  0  0
   -1.7423    5.2215    4.5730 H   0  0  0  0  0  0  0  0  0  0  0  0
  5  6  2  0  0  0  0
  5  7  1  0  0  0  0
  2  3  1  0  0  0  0
  2  4  1  0  0  0  0
  2  5  1  0  0  0  0
  1  2  1  0  0  0  0
 15 16  2  0  0  0  0
 15 17  1  0  0  0  0
 14 36  1  0  0  0  0
 11 12  1  0  0  0  0
 11 13  1  0  0  0  0
 11 14  1  0  0  0  0
  9 10  1  0  0  0  0
  9 11  1  0  0  0  0
  9 15  1  0  0  0  0
  7  8  1  0  0  0  0
  7  9  1  0  0  0  0
 19 20  1  0  0  0  0
 19 21  1  0  0  0  0
 19 22  1  0  0  0  0
 17 18  1  0  0  0  0
 17 19  1  0  0  0  0
 27 28  2  0  0  0  0
 27 29  1  0  0  0  0
 24 25  1  0  0  0  0
 24 26  1  0  0  0  0
 24 27  1  0  0  0  0
 23 24  1  0  0  0  0
 37 38  2  0  0  0  0
 37 39  1  0  0  0  0
 33 34  1  0  0  0  0
 33 35  1  0  0  0  0
 33 36  1  0  0  0  0
 31 32  1  0  0  0  0
 31 33  1  0  0  0  0
 31 37  1  0  0  0  0
 29 30  1  0  0  0  0
 29 31  1  0  0  0  0
 41 42  1  0  0  0  0
 41 43  1  0  0  0  0
 41 44  1  0  0  0  0
 39 40  1  0  0  0  0
 39 41  1  0  0  0  0
M  END
$$$$
default_name
  -OEChem-02102213163D

 44 43  0     1  0  0  0  0  0999 V2000
    2.4488   -3.0448    2.0990 H   0  0  0  0  0  0  0  0  0  0  0  0
    2.2788   -2.0018    2.3640 C   0  0  0  0  0  0  0  0  0  0  0  0
    2.9228   -1.7258    3.1960 H   0  0  0  0  0  0  0  0  0  0  0  0
    1.2358   -1.8618    2.6430 H   0  0  0  0  0  0  0  0  0  0  0  0
    2.6018   -1.1318    1.1730 C   0  0  0  0  0  0  0  0  0  0  0  0
    3.0048   -1.6348    0.1320 O   0  0  0  0  0  0  0  0  0  0  0  0
    2.4088    0.1752    1.3190 N   0  0  0  0  0  0  0  0  0  0  0  0
    2.0708    0.5242    2.2050 H   0  0  0  0  0  0  0  0  0  0  0  0
    2.6638    1.1782    0.2840 C   0  0  1  0  0  0  0  0  0  0  0  0
    2.0605    0.9255   -0.5896 H   0  0  0  0  0  0  0  0  0  0  0  0
    2.2213    2.5640    0.7852 C   0  0  0  0  0  0  0  0  0  0  0  0
    1.7265    3.0909   -0.0315 H   0  0  0  0  0  0  0  0  0  0  0  0
    3.1188    3.1355    1.0204 H   0  0  0  0  0  0  0  0  0  0  0  0
    1.1504    2.6357    2.2519 S   0  0  0  0  0  0  0  0  0  0  0  0
    4.1424    1.1666   -0.1470 C   0  0  0  0  0  0  0  0  0  0  0  0
    4.4466    1.2144   -1.3388 O   0  0  0  0  0  0  0  0  0  0  0  0
    5.0622    1.1097    0.8254 N   0  0  0  0  0  0  0  0  0  0  0  0
    4.7435    1.0756    1.7803 H   0  0  0  0  0  0  0  0  0  0  0  0
    6.5027    1.0891    0.5792 C   0  0  0  0  0  0  0  0  0  0  0  0
    6.7653    0.1935    0.0122 H   0  0  0  0  0  0  0  0  0  0  0  0
    6.7901    1.9649   -0.0054 H   0  0  0  0  0  0  0  0  0  0  0  0
    7.0488    1.0911    1.5234 H   0  0  0  0  0  0  0  0  0  0  0  0
   -5.0951    4.7679   -2.4672 H   0  0  0  0  0  0  0  0  0  0  0  0
   -4.2080    5.1882   -1.9959 C   0  0  0  0  0  0  0  0  0  0  0  0
   -4.4243    6.1927   -1.6355 H   0  0  0  0  0  0  0  0  0  0  0  0
   -3.3927    5.2217   -2.7162 H   0  0  0  0  0  0  0  0  0  0  0  0
   -3.8105    4.3129   -0.8304 C   0  0  0  0  0  0  0  0  0  0  0  0
   -4.4550    3.3074   -0.5647 O   0  0  0  0  0  0  0  0  0  0  0  0
   -2.7395    4.6944   -0.1398 N   0  0  0  0  0  0  0  0  0  0  0  0
   -2.2620    5.5421   -0.4099 H   0  0  0  0  0  0  0  0  0  0  0  0
   -2.1973    3.9768    1.0140 C   0  0  1  0  0  0  0  0  0  0  0  0
   -3.0233    3.5694    1.5998 H   0  0  0  0  0  0  0  0  0  0  0  0
   -1.3523    2.8063    0.4921 C   0  0  0  0  0  0  0  0  0  0  0  0
   -1.9999    2.1845   -0.1277 H   0  0  0  0  0  0  0  0  0  0  0  0
   -0.5680    3.1989   -0.1555 H   0  0  0  0  0  0  0  0  0  0  0  0
   -0.5913    1.7121    1.7211 S   0  0  0  0  0  0  0  0  0  0  0  0
   -1.3962    4.9332    1.9151 C   0  0  0  0  0  0  0  0  0  0  0  0
   -0.8104    5.8974    1.4206 O   0  0  0  0  0  0  0  0  0  0  0  0
   -1.3779    4.6727    3.2286 N   0  0  0  0  0  0  0  0  0  0  0  0
   -1.8547    3.8452    3.5502 H   0  0  0  0  0  0  0  0  0  0  0  0
   -0.6590    5.4759    4.2168 C   0  0  0  0  0  0  0  0  0  0  0  0
    0.4124    5.2844    4.1374 H   0  0  0  0  0  0  0  0  0  0  0  0
   -0.8373    6.5386    4.0356 H   0  0  0  0  0  0  0  0  0  0  0  0
   -0.9951    5.2250    5.2230 H   0  0  0  0  0  0  0  0  0  0  0  0
  5  6  2  0  0  0  0
  5  7  1  0  0  0  0
  2  3  1  0  0  0  0
  2  4  1  0  0  0  0
  2  5  1  0  0  0  0
  1  2  1  0  0  0  0
 15 16  2  0  0  0  0
 15 17  1  0  0  0  0
 14 36  1  0  0  0  0
 11 12  1  0  0  0  0
 11 13  1  0  0  0  0
 11 14  1  0  0  0  0
  9 10  1  0  0  0  0
  9 11  1  0  0  0  0
  9 15  1  0  0  0  0
  7  8  1  0  0  0  0
  7  9  1  0  0  0  0
 19 20  1  0  0  0  0
 19 21  1  0  0  0  0
 19 22  1  0  0  0  0
 17 18  1  0  0  0  0
 17 19  1  0  0  0  0
 27 28  2  0  0  0  0
 27 29  1  0  0  0  0
 24 25  1  0  0  0  0
 24 26  1  0  0  0  0
 24 27  1  0  0  0  0
 23 24  1  0  0  0  0
 37 38  2  0  0  0  0
 37 39  1  0  0  0  0
 33 34  1  0  0  0  0
 33 35  1  0  0  0  0
 33 36  1  0  0  0  0
 31 32  1  0  0  0  0
 31 33  1  0  0  0  0
 31 37  1  0  0  0  0
 29 30  1  0  0  0  0
 29 31  1  0  0  0  0
 41 42  1  0  0  0  0
 41 43  1  0  0  0  0
 41 44  1  0  0  0  0
 39 40  1  0  0  0  0
 39 41  1  0  0  0  0
M  END
$$$$
default_name
  -OEChem-02102213163D

 44 43  0     1  0  0  0  0  0999 V2000
    2.4488   -3.0448    2.0990 H   0  0  0  0  0  0  0  0  0  0  0  0
    2.2788   -2.0018    2.3640 C   0  0  0  0  0  0  0  0  0  0  0  0
    2.9228   -1.7258    3.1960 H   0  0  0  0  0  0  0  0  0  0  0  0
    1.2358   -1.8618    2.6430 H   0  0  0  0  0  0  0  0  0  0  0  0
    2.6018   -1.1318    1.1730 C   0  0  0  0  0  0  0  0  0  0  0  0
    3.0048   -1.6348    0.1320 O   0  0  0  0  0  0  0  0  0  0  0  0
    2.4088    0.1752    1.3190 N   0  0  0  0  0  0  0  0  0  0  0  0
    2.0708    0.5242    2.2050 H   0  0  0  0  0  0  0  0  0  0  0  0
    2.6638    1.1782    0.2840 C   0  0  1  0  0  0  0  0  0  0  0  0
    2.0605    0.9255   -0.5896 H   0  0  0  0  0  0  0  0  0  0  0  0
    2.2213    2.5640    0.7852 C   0  0  0  0  0  0  0  0  0  0  0  0
    1.5051    2.9812    0.0763 H   0  0  0  0  0  0  0  0  0  0  0  0
    3.0915    3.2194    0.7643 H   0  0  0  0  0  0  0  0  0  0  0  0
    1.5144    2.6782    2.4556 S   0  0  0  0  0  0  0  0  0  0  0  0
    4.1424    1.1666   -0.1470 C   0  0  0  0  0  0  0  0  0  0  0  0
    4.4466    1.2144   -1.3388 O   0  0  0  0  0  0  0  0  0  0  0  0
    5.0622    1.1097    0.8254 N   0  0  0  0  0  0  0  0  0  0  0  0
    4.7435    1.0756    1.7803 H   0  0  0  0  0  0  0  0  0  0  0  0
    6.5027    1.0891    0.5792 C   0  0  0  0  0  0  0  0  0  0  0  0
    6.7653    0.1935    0.0122 H   0  0  0  0  0  0  0  0  0  0  0  0
    6.7901    1.9649   -0.0054 H   0  0  0  0  0  0  0  0  0  0  0  0
    7.0488    1.0911    1.5234 H   0  0  0  0  0  0  0  0  0  0  0  0
   -5.8195    3.9268   -0.7813 H   0  0  0  0  0  0  0  0  0  0  0  0
   -4.8909    4.4511   -0.5610 C   0  0  0  0  0  0  0  0  0  0  0  0
   -5.1112    5.4632   -0.2253 H   0  0  0  0  0  0  0  0  0  0  0  0
   -4.2698    4.4852   -1.4542 H   0  0  0  0  0  0  0  0  0  0  0  0
   -4.1564    3.7099    0.5314 C   0  0  0  0  0  0  0  0  0  0  0  0
   -4.6259    2.6846    1.0061 O   0  0  0  0  0  0  0  0  0  0  0  0
   -2.9955    4.2281    0.9233 N   0  0  0  0  0  0  0  0  0  0  0  0
   -2.6741    5.0835    0.4940 H   0  0  0  0  0  0  0  0  0  0  0  0
   -2.1382    3.6535    1.9601 C   0  0  1  0  0  0  0  0  0  0  0  0
   -2.7657    3.2357    2.7494 H   0  0  0  0  0  0  0  0  0  0  0  0
   -1.3306    2.5102    1.3298 C   0  0  0  0  0  0  0  0  0  0  0  0
   -2.0425    1.7912    0.9220 H   0  0  0  0  0  0  0  0  0  0  0  0
   -0.7563    2.9048    0.4914 H   0  0  0  0  0  0  0  0  0  0  0  0
   -0.2088    1.5843    2.4121 S   0  0  0  0  0  0  0  0  0  0  0  0
   -1.2440    4.7402    2.5828 C   0  0  0  0  0  0  0  0  0  0  0  0
   -0.8801    5.7007    1.9029 O   0  0  0  0  0  0  0  0  0  0  0  0
   -0.9001    4.5937    3.8688 N   0  0  0  0  0  0  0  0  0  0  0  0
   -1.2109    3.7627    4.3465 H   0  0  0  0  0  0  0  0  0  0  0  0
   -0.0513    5.5295    4.6052 C   0  0  0  0  0  0  0  0  0  0  0  0
    0.9862    5.4133    4.2874 H   0  0  0  0  0  0  0  0  0  0  0  0
   -0.3646    6.5565    4.4033 H   0  0  0  0  0  0  0  0  0  0  0  0
   -0.1222    5.3397    5.6764 H   0  0  0  0  0  0  0  0  0  0  0  0
  5  6  2  0  0  0  0
  5  7  1  0  0  0  0
  2  3  1  0  0  0  0
  2  4  1  0  0  0  0
  2  5  1  0  0  0  0
  1  2  1  0  0  0  0
 15 16  2  0  0  0  0
 15 17  1  0  0  0  0
 14 36  1  0  0  0  0
 11 12  1  0  0  0  0
 11 13  1  0  0  0  0
 11 14  1  0  0  0  0
  9 10  1  0  0  0  0
  9 11  1  0  0  0  0
  9 15  1  0  0  0  0
  7  8  1  0  0  0  0
  7  9  1  0  0  0  0
 19 20  1  0  0  0  0
 19 21  1  0  0  0  0
 19 22  1  0  0  0  0
 17 18  1  0  0  0  0
 17 19  1  0  0  0  0
 27 28  2  0  0  0  0
 27 29  1  0  0  0  0
 24 25  1  0  0  0  0
 24 26  1  0  0  0  0
 24 27  1  0  0  0  0
 23 24  1  0  0  0  0
 37 38  2  0  0  0  0
 37 39  1  0  0  0  0
 33 34  1  0  0  0  0
 33 35  1  0  0  0  0
 33 36  1  0  0  0  0
 31 32  1  0  0  0  0
 31 33  1  0  0  0  0
 31 37  1  0  0  0  0
 29 30  1  0  0  0  0
 29 31  1  0  0  0  0
 41 42  1  0  0  0  0
 41 43  1  0  0  0  0
 41 44  1  0  0  0  0
 39 40  1  0  0  0  0
 39 41  1  0  0  0  0
M  END
$$$$
default_name
  -OEChem-02102213163D

 44 43  0     1  0  0  0  0  0999 V2000
    2.4488   -3.0448    2.0990 H   0  0  0  0  0  0  0  0  0  0  0  0
    2.2788   -2.0018    2.3640 C   0  0  0  0  0  0  0  0  0  0  0  0
    2.9228   -1.7258    3.1960 H   0  0  0  0  0  0  0  0  0  0  0  0
    1.2358   -1.8618    2.6430 H   0  0  0  0  0  0  0  0  0  0  0  0
    2.6018   -1.1318    1.1730 C   0  0  0  0  0  0  0  0  0  0  0  0
    3.0048   -1.6348    0.1320 O   0  0  0  0  0  0  0  0  0  0  0  0
    2.4088    0.1752    1.3190 N   0  0  0  0  0  0  0  0  0  0  0  0
    2.0708    0.5242    2.2050 H   0  0  0  0  0  0  0  0  0  0  0  0
    2.6638    1.1782    0.2840 C   0  0  1  0  0  0  0  0  0  0  0  0
    2.0605    0.9255   -0.5896 H   0  0  0  0  0  0  0  0  0  0  0  0
    2.2213    2.5640    0.7852 C   0  0  0  0  0  0  0  0  0  0  0  0
    1.3256    2.8646    0.2403 H   0  0  0  0  0  0  0  0  0  0  0  0
    2.9985    3.2791    0.5171 H   0  0  0  0  0  0  0  0  0  0  0  0
    1.9099    2.7652    2.5644 S   0  0  0  0  0  0  0  0  0  0  0  0
    4.1424    1.1666   -0.1470 C   0  0  0  0  0  0  0  0  0  0  0  0
    4.4466    1.2144   -1.3388 O   0  0  0  0  0  0  0  0  0  0  0  0
    5.0622    1.1097    0.8254 N   0  0  0  0  0  0  0  0  0  0  0  0
    4.7435    1.0756    1.7803 H   0  0  0  0  0  0  0  0  0  0  0  0
    6.5027    1.0891    0.5792 C   0  0  0  0  0  0  0  0  0  0  0  0
    6.7653    0.1935    0.0122 H   0  0  0  0  0  0  0  0  0  0  0  0
    6.7901    1.9649   -0.0054 H   0  0  0  0  0  0  0  0  0  0  0  0
    7.0488    1.0911    1.5234 H   0  0  0  0  0  0  0  0  0  0  0  0
   -6.0553    3.1787    1.0786 H   0  0  0  0  0  0  0  0  0  0  0  0
   -5.1539    3.7884    1.0389 C   0  0  0  0  0  0  0  0  0  0  0  0
   -5.3844    4.8057    1.3513 H   0  0  0  0  0  0  0  0  0  0  0  0
   -4.7608    3.7937    0.0241 H   0  0  0  0  0  0  0  0  0  0  0  0
   -4.1221    3.1996    1.9723 C   0  0  0  0  0  0  0  0  0  0  0  0
   -4.3724    2.1855    2.6096 O   0  0  0  0  0  0  0  0  0  0  0  0
   -2.9557    3.8352    2.0446 N   0  0  0  0  0  0  0  0  0  0  0  0
   -2.8227    4.6731    1.4973 H   0  0  0  0  0  0  0  0  0  0  0  0
   -1.8333    3.4165    2.8843 C   0  0  1  0  0  0  0  0  0  0  0  0
   -2.2208    3.0207    3.8248 H   0  0  0  0  0  0  0  0  0  0  0  0
   -1.0893    2.2884    2.1560 C   0  0  0  0  0  0  0  0  0  0  0  0
   -1.8058    1.4858    1.9752 H   0  0  0  0  0  0  0  0  0  0  0  0
   -0.7625    2.6530    1.1820 H   0  0  0  0  0  0  0  0  0  0  0  0
    0.3324    1.5445    2.9999 S   0  0  0  0  0  0  0  0  0  0  0  0
   -0.9251    4.6163    3.2067 C   0  0  0  0  0  0  0  0  0  0  0  0
   -0.8184    5.5408    2.3996 O   0  0  0  0  0  0  0  0  0  0  0  0
   -0.2827    4.6053    4.3817 N   0  0  0  0  0  0  0  0  0  0  0  0
   -0.3965    3.7965    4.9719 H   0  0  0  0  0  0  0  0  0  0  0  0
    0.6218    5.6613    4.8348 C   0  0  0  0  0  0  0  0  0  0  0  0
    1.5646    5.5975    4.2890 H   0  0  0  0  0  0  0  0  0  0  0  0
    0.1761    6.6411    4.6469 H   0  0  0  0  0  0  0  0  0  0  0  0
    0.8170    5.5579    5.9023 H   0  0  0  0  0  0  0  0  0  0  0  0
  5  6  2  0  0  0  0
  5  7  1  0  0  0  0
  2  3  1  0  0  0  0
  2  4  1  0  0  0  0
  2  5  1  0  0  0  0
  1  2  1  0  0  0  0
 15 16  2  0  0  0  0
 15 17  1  0  0  0  0
 14 36  1  0  0  0  0
 11 12  1  0  0  0  0
 11 13  1  0  0  0  0
 11 14  1  0  0  0  0
  9 10  1  0  0  0  0
  9 11  1  0  0  0  0
  9 15  1  0  0  0  0
  7  8  1  0  0  0  0
  7  9  1  0  0  0  0
 19 20  1  0  0  0  0
 19 21  1  0  0  0  0
 19 22  1  0  0  0  0
 17 18  1  0  0  0  0
 17 19  1  0  0  0  0
 27 28  2  0  0  0  0
 27 29  1  0  0  0  0
 24 25  1  0  0  0  0
 24 26  1  0  0  0  0
 24 27  1  0  0  0  0
 23 24  1  0  0  0  0
 37 38  2  0  0  0  0
 37 39  1  0  0  0  0
 33 34  1  0  0  0  0
 33 35  1  0  0  0  0
 33 36  1  0  0  0  0
 31 32  1  0  0  0  0
 31 33  1  0  0  0  0
 31 37  1  0  0  0  0
 29 30  1  0  0  0  0
 29 31  1  0  0  0  0
 41 42  1  0  0  0  0
 41 43  1  0  0  0  0
 41 44  1  0  0  0  0
 39 40  1  0  0  0  0
 39 41  1  0  0  0  0
M  END
$$$$
default_name
  -OEChem-02102213163D

 44 43  0     1  0  0  0  0  0999 V2000
    2.4488   -3.0448    2.0990 H   0  0  0  0  0  0  0  0  0  0  0  0
    2.2788   -2.0018    2.3640 C   0  0  0  0  0  0  0  0  0  0  0  0
    2.9228   -1.7258    3.1960 H   0  0  0  0  0  0  0  0  0  0  0  0
    1.2358   -1.8618    2.6430 H   0  0  0  0  0  0  0  0  0  0  0  0
    2.6018   -1.1318    1.1730 C   0  0  0  0  0  0  0  0  0  0  0  0
    3.0048   -1.6348    0.1320 O   0  0  0  0  0  0  0  0  0  0  0  0
    2.4088    0.1752    1.3190 N   0  0  0  0  0  0  0  0  0  0  0  0
    2.0708    0.5242    2.2050 H   0  0  0  0  0  0  0  0  0  0  0  0
    2.6638    1.1782    0.2840 C   0  0  1  0  0  0  0  0  0  0  0  0
    2.0605    0.9255   -0.5896 H   0  0  0  0  0  0  0  0  0  0  0  0
    2.2213    2.5640    0.7852 C   0  0  0  0  0  0  0  0  0  0  0  0
    1.2003    2.7490    0.4491 H   0  0  0  0  0  0  0  0  0  0  0  0
    2.8459    3.3106    0.2955 H   0  0  0  0  0  0  0  0  0  0  0  0
    2.3099    2.8906    2.5709 S   0  0  0  0  0  0  0  0  0  0  0  0
    4.1424    1.1666   -0.1470 C   0  0  0  0  0  0  0  0  0  0  0  0
    4.4466    1.2144   -1.3388 O   0  0  0  0  0  0  0  0  0  0  0  0
    5.0622    1.1097    0.8254 N   0  0  0  0  0  0  0  0  0  0  0  0
    4.7435    1.0756    1.7803 H   0  0  0  0  0  0  0  0  0  0  0  0
    6.5027    1.0891    0.5792 C   0  0  0  0  0  0  0  0  0  0  0  0
    6.7653    0.1935    0.0122 H   0  0  0  0  0  0  0  0  0  0  0  0
    6.7901    1.9649   -0.0054 H   0  0  0  0  0  0  0  0  0  0  0  0
    7.0488    1.0911    1.5234 H   0  0  0  0  0  0  0  0  0  0  0  0
   -5.7864    2.5747    2.9858 H   0  0  0  0  0  0  0  0  0  0  0  0
   -4.9791    3.2452    2.6950 C   0  0  0  0  0  0  0  0  0  0  0  0
   -5.2253    4.2649    2.9868 H   0  0  0  0  0  0  0  0  0  0  0  0
   -4.8321    3.1944    1.6178 H   0  0  0  0  0  0  0  0  0  0  0  0
   -3.7102    2.8168    3.3941 C   0  0  0  0  0  0  0  0  0  0  0  0
   -3.7116    1.8442    4.1365 O   0  0  0  0  0  0  0  0  0  0  0  0
   -2.6228    3.5425    3.1476 N   0  0  0  0  0  0  0  0  0  0  0  0
   -2.6978    4.3389    2.5315 H   0  0  0  0  0  0  0  0  0  0  0  0
   -1.3034    3.2822    3.7235 C   0  0  1  0  0  0  0  0  0  0  0  0
   -1.4257    2.9391    4.7524 H   0  0  0  0  0  0  0  0  0  0  0  0
   -0.6450    2.1560    2.9143 C   0  0  0  0  0  0  0  0  0  0  0  0
   -1.3059    1.2892    2.9600 H   0  0  0  0  0  0  0  0  0  0  0  0
   -0.5863    2.4606    1.8692 H   0  0  0  0  0  0  0  0  0  0  0  0
    0.9956    1.5954    3.4445 S   0  0  0  0  0  0  0  0  0  0  0  0
   -0.4612    4.5700    3.7442 C   0  0  0  0  0  0  0  0  0  0  0  0
   -0.6295    5.4284    2.8769 O   0  0  0  0  0  0  0  0  0  0  0  0
    0.4323    4.7068    4.7323 N   0  0  0  0  0  0  0  0  0  0  0  0
    0.5330    3.9444    5.3835 H   0  0  0  0  0  0  0  0  0  0  0  0
    1.3143    5.8625    4.8898 C   0  0  0  0  0  0  0  0  0  0  0  0
    2.1082    5.8242    4.1420 H   0  0  0  0  0  0  0  0  0  0  0  0
    0.7481    6.7865    4.7498 H   0  0  0  0  0  0  0  0  0  0  0  0
    1.7585    5.8646    5.8854 H   0  0  0  0  0  0  0  0  0  0  0  0
  5  6  2  0  0  0  0
  5  7  1  0  0  0  0
  2  3  1  0  0  0  0
  2  4  1  0  0  0  0
  2  5  1  0  0  0  0
  1  2  1  0  0  0  0
 15 16  2  0  0  0  0
 15 17  1  0  0  0  0
 14 36  1  0  0  0  0
 11 12  1  0  0  0  0
 11 13  1  0  0  0  0
 11 14  1  0  0  0  0
  9 10  1  0  0  0  0
  9 11  1  0  0  0  0
  9 15  1  0  0  0  0
  7  8  1  0  0  0  0
  7  9  1  0  0  0  0
 19 20  1  0  0  0  0
 19 21  1  0  0  0  0
 19 22  1  0  0  0  0
 17 18  1  0  0  0  0
 17 19  1  0  0  0  0
 27 28  2  0  0  0  0
 27 29  1  0  0  0  0
 24 25  1  0  0  0  0
 24 26  1  0  0  0  0
 24 27  1  0  0  0  0
 23 24  1  0  0  0  0
 37 38  2  0  0  0  0
 37 39  1  0  0  0  0
 33 34  1  0  0  0  0
 33 35  1  0  0  0  0
 33 36  1  0  0  0  0
 31 32  1  0  0  0  0
 31 33  1  0  0  0  0
 31 37  1  0  0  0  0
 29 30  1  0  0  0  0
 29 31  1  0  0  0  0
 41 42  1  0  0  0  0
 41 43  1  0  0  0  0
 41 44  1  0  0  0  0
 39 40  1  0  0  0  0
 39 41  1  0  0  0  0
M  END
$$$$
default_name
  -OEChem-02102213163D

 44 43  0     1  0  0  0  0  0999 V2000
    2.4488   -3.0448    2.0990 H   0  0  0  0  0  0  0  0  0  0  0  0
    2.2788   -2.0018    2.3640 C   0  0  0  0  0  0  0  0  0  0  0  0
    2.9228   -1.7258    3.1960 H   0  0  0  0  0  0  0  0  0  0  0  0
    1.2358   -1.8618    2.6430 H   0  0  0  0  0  0  0  0  0  0  0  0
    2.6018   -1.1318    1.1730 C   0  0  0  0  0  0  0  0  0  0  0  0
    3.0048   -1.6348    0.1320 O   0  0  0  0  0  0  0  0  0  0  0  0
    2.4088    0.1752    1.3190 N   0  0  0  0  0  0  0  0  0  0  0  0
    2.0708    0.5242    2.2050 H   0  0  0  0  0  0  0  0  0  0  0  0
    2.6638    1.1782    0.2840 C   0  0  1  0  0  0  0  0  0  0  0  0
    2.0605    0.9255   -0.5896 H   0  0  0  0  0  0  0  0  0  0  0  0
    2.2213    2.5640    0.7852 C   0  0  0  0  0  0  0  0  0  0  0  0
    1.1377    2.6424    0.6887 H   0  0  0  0  0  0  0  0  0  0  0  0
    2.6443    3.3116    0.1148 H   0  0  0  0  0  0  0  0  0  0  0  0
    2.6873    3.0459    2.4745 S   0  0  0  0  0  0  0  0  0  0  0  0
    4.1424    1.1666   -0.1470 C   0  0  0  0  0  0  0  0  0  0  0  0
    4.4466    1.2144   -1.3388 O   0  0  0  0  0  0  0  0  0  0  0  0
    5.0622    1.1097    0.8254 N   0  0  0  0  0  0  0  0  0  0  0  0
    4.7435    1.0756    1.7803 H   0  0  0  0  0  0  0  0  0  0  0  0
    6.5027    1.0891    0.5792 C   0  0  0  0  0  0  0  0  0  0  0  0
    6.7653    0.1935    0.0122 H   0  0  0  0  0  0  0  0  0  0  0  0
    6.7901    1.9649   -0.0054 H   0  0  0  0  0  0  0  0  0  0  0  0
    7.0488    1.0911    1.5234 H   0  0  0  0  0  0  0  0  0  0  0  0
   -5.0312    2.1559    4.8103 H   0  0  0  0  0  0  0  0  0  0  0  0
   -4.3784    2.8584    4.2944 C   0  0  0  0  0  0  0  0  0  0  0  0
   -4.6448    3.8776    4.5698 H   0  0  0  0  0  0  0  0  0  0  0  0
   -4.4789    2.7281    3.2185 H   0  0  0  0  0  0  0  0  0  0  0  0
   -2.9485    2.5876    4.7000 C   0  0  0  0  0  0  0  0  0  0  0  0
   -2.6886    1.6839    5.4827 O   0  0  0  0  0  0  0  0  0  0  0  0
   -2.0194    3.3700    4.1573 N   0  0  0  0  0  0  0  0  0  0  0  0
   -2.3079    4.1035    3.5264 H   0  0  0  0  0  0  0  0  0  0  0  0
   -0.5846    3.2595    4.4206 C   0  0  1  0  0  0  0  0  0  0  0  0
   -0.4346    2.9963    5.4692 H   0  0  0  0  0  0  0  0  0  0  0  0
   -0.0280    2.1220    3.5530 C   0  0  0  0  0  0  0  0  0  0  0  0
   -0.5769    1.2147    3.8094 H   0  0  0  0  0  0  0  0  0  0  0  0
   -0.2397    2.3409    2.5063 H   0  0  0  0  0  0  0  0  0  0  0  0
    1.7355    1.7336    3.7155 S   0  0  0  0  0  0  0  0  0  0  0  0
    0.1161    4.6044    4.1587 C   0  0  0  0  0  0  0  0  0  0  0  0
   -0.3263    5.3714    3.3022 O   0  0  0  0  0  0  0  0  0  0  0  0
    1.1961    4.8912    4.8968 N   0  0  0  0  0  0  0  0  0  0  0  0
    1.5144    4.1963    5.5534 H   0  0  0  0  0  0  0  0  0  0  0  0
    1.9791    6.1194    4.7666 C   0  0  0  0  0  0  0  0  0  0  0  0
    2.5798    6.0781    3.8564 H   0  0  0  0  0  0  0  0  0  0  0  0
    1.3124    6.9828    4.7051 H   0  0  0  0  0  0  0  0  0  0  0  0
    2.6381    6.2391    5.6267 H   0  0  0  0  0  0  0  0  0  0  0  0
  5  6  2  0  0  0  0
  5  7  1  0  0  0  0
  2  3  1  0  0  0  0
  2  4  1  0  0  0  0
  2  5  1  0  0  0  0
  1  2  1  0  0  0  0
 15 16  2  0  0  0  0
 15 17  1  0  0  0  0
 14 36  1  0  0  0  0
 11 12  1  0  0  0  0
 11 13  1  0  0  0  0
 11 14  1  0  0  0  0
  9 10  1  0  0  0  0
  9 11  1  0  0  0  0
  9 15  1  0  0  0  0
  7  8  1  0  0  0  0
  7  9  1  0  0  0  0
 19 20  1  0  0  0  0
 19 21  1  0  0  0  0
 19 22  1  0  0  0  0
 17 18  1  0  0  0  0
 17 19  1  0  0  0  0
 27 28  2  0  0  0  0
 27 29  1  0  0  0  0
 24 25  1  0  0  0  0
 24 26  1  0  0  0  0
 24 27  1  0  0  0  0
 23 24  1  0  0  0  0
 37 38  2  0  0  0  0
 37 39  1  0  0  0  0
 33 34  1  0  0  0  0
 33 35  1  0  0  0  0
 33 36  1  0  0  0  0
 31 32  1  0  0  0  0
 31 33  1  0  0  0  0
 31 37  1  0  0  0  0
 29 30  1  0  0  0  0
 29 31  1  0  0  0  0
 41 42  1  0  0  0  0
 41 43  1  0  0  0  0
 41 44  1  0  0  0  0
 39 40  1  0  0  0  0
 39 41  1  0  0  0  0
M  END
$$$$
default_name
  -OEChem-02102213163D

 44 43  0     1  0  0  0  0  0999 V2000
    2.4488   -3.0448    2.0990 H   0  0  0  0  0  0  0  0  0  0  0  0
    2.2788   -2.0018    2.3640 C   0  0  0  0  0  0  0  0  0  0  0  0
    2.9228   -1.7258    3.1960 H   0  0  0  0  0  0  0  0  0  0  0  0
    1.2358   -1.8618    2.6430 H   0  0  0  0  0  0  0  0  0  0  0  0
    2.6018   -1.1318    1.1730 C   0  0  0  0  0  0  0  0  0  0  0  0
    3.0048   -1.6348    0.1320 O   0  0  0  0  0  0  0  0  0  0  0  0
    2.4088    0.1752    1.3190 N   0  0  0  0  0  0  0  0  0  0  0  0
    2.0708    0.5242    2.2050 H   0  0  0  0  0  0  0  0  0  0  0  0
    2.6638    1.1782    0.2840 C   0  0  1  0  0  0  0  0  0  0  0  0
    2.0605    0.9255   -0.5896 H   0  0  0  0  0  0  0  0  0  0  0  0
    2.2213    2.5640    0.7852 C   0  0  0  0  0  0  0  0  0  0  0  0
    1.1421    2.5519    0.9426 H   0  0  0  0  0  0  0  0  0  0  0  0
    2.4073    3.2821   -0.0129 H   0  0  0  0  0  0  0  0  0  0  0  0
    3.0162    3.2206    2.2819 S   0  0  0  0  0  0  0  0  0  0  0  0
    4.1424    1.1666   -0.1470 C   0  0  0  0  0  0  0  0  0  0  0  0
    4.4466    1.2144   -1.3388 O   0  0  0  0  0  0  0  0  0  0  0  0
    5.0622    1.1097    0.8254 N   0  0  0  0  0  0  0  0  0  0  0  0
    4.7435    1.0756    1.7803 H   0  0  0  0  0  0  0  0  0  0  0  0
    6.5027    1.0891    0.5792 C   0  0  0  0  0  0  0  0  0  0  0  0
    6.7653    0.1935    0.0122 H   0  0  0  0  0  0  0  0  0  0  0  0
    6.7901    1.9649   -0.0054 H   0  0  0  0  0  0  0  0  0  0  0  0
    7.0488    1.0911    1.5234 H   0  0  0  0  0  0  0  0  0  0  0  0
   -3.8411    1.9508    6.4277 H   0  0  0  0  0  0  0  0  0  0  0  0
   -3.3927    2.6546    5.7280 C   0  0  0  0  0  0  0  0  0  0  0  0
   -3.6825    3.6703    5.9923 H   0  0  0  0  0  0  0  0  0  0  0  0
   -3.7253    2.4267    4.7171 H   0  0  0  0  0  0  0  0  0  0  0  0
   -1.8891    2.5277    5.8008 C   0  0  0  0  0  0  0  0  0  0  0  0
   -1.3732    1.7155    6.5565 O   0  0  0  0  0  0  0  0  0  0  0  0
   -1.1866    3.3293    5.0047 N   0  0  0  0  0  0  0  0  0  0  0  0
   -1.6795    3.9831    4.4139 H   0  0  0  0  0  0  0  0  0  0  0  0
    0.2741    3.3501    4.9281 C   0  0  1  0  0  0  0  0  0  0  0  0
    0.6851    3.1884    5.9262 H   0  0  0  0  0  0  0  0  0  0  0  0
    0.7199    2.1887    4.0287 C   0  0  0  0  0  0  0  0  0  0  0  0
    0.3315    1.2674    4.4654 H   0  0  0  0  0  0  0  0  0  0  0  0
    0.2537    2.3018    3.0498 H   0  0  0  0  0  0  0  0  0  0  0  0
    2.5017    1.9497    3.7946 S   0  0  0  0  0  0  0  0  0  0  0  0
    0.7674    4.7172    4.4219 C   0  0  0  0  0  0  0  0  0  0  0  0
    0.0705    5.3735    3.6467 O   0  0  0  0  0  0  0  0  0  0  0  0
    1.9567    5.1460    4.8638 N   0  0  0  0  0  0  0  0  0  0  0  0
    2.4807    4.5350    5.4701 H   0  0  0  0  0  0  0  0  0  0  0  0
    2.5709    6.4144    4.4735 C   0  0  0  0  0  0  0  0  0  0  0  0
    2.9474    6.3418    3.4518 H   0  0  0  0  0  0  0  0  0  0  0  0
    1.8304    7.2167    4.5158 H   0  0  0  0  0  0  0  0  0  0  0  0
    3.3959    6.6556    5.1439 H   0  0  0  0  0  0  0  0  0  0  0  0
  5  6  2  0  0  0  0
  5  7  1  0  0  0  0
  2  3  1  0  0  0  0
  2  4  1  0  0  0  0
  2  5  1  0  0  0  0
  1  2  1  0  0  0  0
 15 16  2  0  0  0  0
 15 17  1  0  0  0  0
 14 36  1  0  0  0  0
 11 12  1  0  0  0  0
 11 13  1  0  0  0  0
 11 14  1  0  0  0  0
  9 10  1  0  0  0  0
  9 11  1  0  0  0  0
  9 15  1  0  0  0  0
  7  8  1  0  0  0  0
  7  9  1  0  0  0  0
 19 20  1  0  0  0  0
 19 21  1  0  0  0  0
 19 22  1  0  0  0  0
 17 18  1  0  0  0  0
 17 19  1  0  0  0  0
 27 28  2  0  0  0  0
 27 29  1  0  0  0  0
 24 25  1  0  0  0  0
 24 26  1  0  0  0  0
 24 27  1  0  0  0  0
 23 24  1  0  0  0  0
 37 38  2  0  0  0  0
 37 39  1  0  0  0  0
 33 34  1  0  0  0  0
 33 35  1  0  0  0  0
 33 36  1  0  0  0  0
 31 32  1  0  0  0  0
 31 33  1  0  0  0  0
 31 37  1  0  0  0  0
 29 30  1  0  0  0  0
 29 31  1  0  0  0  0
 41 42  1  0  0  0  0
 41 43  1  0  0  0  0
 41 44  1  0  0  0  0
 39 40  1  0  0  0  0
 39 41  1  0  0  0  0
M  END
$$$$
default_name
  -OEChem-02102213163D

 44 43  0     1  0  0  0  0  0999 V2000
    2.4488   -3.0448    2.0990 H   0  0  0  0  0  0  0  0  0  0  0  0
    2.2788   -2.0018    2.3640 C   0  0  0  0  0  0  0  0  0  0  0  0
    2.9228   -1.7258    3.1960 H   0  0  0  0  0  0  0  0  0  0  0  0
    1.2358   -1.8618    2.6430 H   0  0  0  0  0  0  0  0  0  0  0  0
    2.6018   -1.1318    1.1730 C   0  0  0  0  0  0  0  0  0  0  0  0
    3.0048   -1.6348    0.1320 O   0  0  0  0  0  0  0  0  0  0  0  0
    2.4088    0.1752    1.3190 N   0  0  0  0  0  0  0  0  0  0  0  0
    2.0708    0.5242    2.2050 H   0  0  0  0  0  0  0  0  0  0  0  0
    2.6638    1.1782    0.2840 C   0  0  1  0  0  0  0  0  0  0  0  0
    2.0605    0.9255   -0.5896 H   0  0  0  0  0  0  0  0  0  0  0  0
    2.2213    2.5640    0.7852 C   0  0  0  0  0  0  0  0  0  0  0  0
    1.2131    2.4838    1.1936 H   0  0  0  0  0  0  0  0  0  0  0  0
    2.1511    3.2241   -0.0788 H   0  0  0  0  0  0  0  0  0  0  0  0
    3.2743    3.4028    2.0062 S   0  0  0  0  0  0  0  0  0  0  0  0
    4.1424    1.1666   -0.1470 C   0  0  0  0  0  0  0  0  0  0  0  0
    4.4466    1.2144   -1.3388 O   0  0  0  0  0  0  0  0  0  0  0  0
    5.0622    1.1097    0.8254 N   0  0  0  0  0  0  0  0  0  0  0  0
    4.7435    1.0756    1.7803 H   0  0  0  0  0  0  0  0  0  0  0  0
    6.5027    1.0891    0.5792 C   0  0  0  0  0  0  0  0  0  0  0  0
    6.7653    0.1935    0.0122 H   0  0  0  0  0  0  0  0  0  0  0  0
    6.7901    1.9649   -0.0054 H   0  0  0  0  0  0  0  0  0  0  0  0
    7.0488    1.0911    1.5234 H   0  0  0  0  0  0  0  0  0  0  0  0
   -2.2972    1.9734    7.7279 H   0  0  0  0  0  0  0  0  0  0  0  0
   -2.0893    2.6475    6.8982 C   0  0  0  0  0  0  0  0  0  0  0  0
   -2.4038    3.6571    7.1575 H   0  0  0  0  0  0  0  0  0  0  0  0
   -2.6227    2.3106    6.0113 H   0  0  0  0  0  0  0  0  0  0  0  0
   -0.6041    2.6411    6.6216 C   0  0  0  0  0  0  0  0  0  0  0  0
    0.1451    1.9368    7.2848 O   0  0  0  0  0  0  0  0  0  0  0  0
   -0.1813    3.4233    5.6322 N   0  0  0  0  0  0  0  0  0  0  0  0
   -0.8555    3.9859    5.1337 H   0  0  0  0  0  0  0  0  0  0  0  0
    1.2143    3.5479    5.2114 C   0  0  1  0  0  0  0  0  0  0  0  0
    1.8569    3.5025    6.0924 H   0  0  0  0  0  0  0  0  0  0  0  0
    1.5474    2.3516    4.3089 C   0  0  0  0  0  0  0  0  0  0  0  0
    1.3574    1.4438    4.8834 H   0  0  0  0  0  0  0  0  0  0  0  0
    0.8602    2.3461    3.4626 H   0  0  0  0  0  0  0  0  0  0  0  0
    3.2420    2.2289    3.6762 S   0  0  0  0  0  0  0  0  0  0  0  0
    1.4484    4.9006    4.5160 C   0  0  0  0  0  0  0  0  0  0  0  0
    0.5339    5.4346    3.8867 O   0  0  0  0  0  0  0  0  0  0  0  0
    2.6622    5.4537    4.6358 N   0  0  0  0  0  0  0  0  0  0  0  0
    3.3661    4.9375    5.1391 H   0  0  0  0  0  0  0  0  0  0  0  0
    3.0492    6.7274    4.0305 C   0  0  0  0  0  0  0  0  0  0  0  0
    3.1858    6.5975    2.9556 H   0  0  0  0  0  0  0  0  0  0  0  0
    2.2669    7.4722    4.1947 H   0  0  0  0  0  0  0  0  0  0  0  0
    3.9802    7.0860    4.4700 H   0  0  0  0  0  0  0  0  0  0  0  0
  5  6  2  0  0  0  0
  5  7  1  0  0  0  0
  2  3  1  0  0  0  0
  2  4  1  0  0  0  0
  2  5  1  0  0  0  0
  1  2  1  0  0  0  0
 15 16  2  0  0  0  0
 15 17  1  0  0  0  0
 14 36  1  0  0  0  0
 11 12  1  0  0  0  0
 11 13  1  0  0  0  0
 11 14  1  0  0  0  0
  9 10  1  0  0  0  0
  9 11  1  0  0  0  0
  9 15  1  0  0  0  0
  7  8  1  0  0  0  0
  7  9  1  0  0  0  0
 19 20  1  0  0  0  0
 19 21  1  0  0  0  0
 19 22  1  0  0  0  0
 17 18  1  0  0  0  0
 17 19  1  0  0  0  0
 27 28  2  0  0  0  0
 27 29  1  0  0  0  0
 24 25  1  0  0  0  0
 24 26  1  0  0  0  0
 24 27  1  0  0  0  0
 23 24  1  0  0  0  0
 37 38  2  0  0  0  0
 37 39  1  0  0  0  0
 33 34  1  0  0  0  0
 33 35  1  0  0  0  0
 33 36  1  0  0  0  0
 31 32  1  0  0  0  0
 31 33  1  0  0  0  0
 31 37  1  0  0  0  0
 29 30  1  0  0  0  0
 29 31  1  0  0  0  0
 41 42  1  0  0  0  0
 41 43  1  0  0  0  0
 41 44  1  0  0  0  0
 39 40  1  0  0  0  0
 39 41  1  0  0  0  0
M  END
$$$$
default_name
  -OEChem-02102213163D

 44 43  0     1  0  0  0  0  0999 V2000
    2.4488   -3.0448    2.0990 H   0  0  0  0  0  0  0  0  0  0  0  0
    2.2788   -2.0018    2.3640 C   0  0  0  0  0  0  0  0  0  0  0  0
    2.9228   -1.7258    3.1960 H   0  0  0  0  0  0  0  0  0  0  0  0
    1.2358   -1.8618    2.6430 H   0  0  0  0  0  0  0  0  0  0  0  0
    2.6018   -1.1318    1.1730 C   0  0  0  0  0  0  0  0  0  0  0  0
    3.0048   -1.6348    0.1320 O   0  0  0  0  0  0  0  0  0  0  0  0
    2.4088    0.1752    1.3190 N   0  0  0  0  0  0  0  0  0  0  0  0
    2.0708    0.5242    2.2050 H   0  0  0  0  0  0  0  0  0  0  0  0
    2.6638    1.1782    0.2840 C   0  0  1  0  0  0  0  0  0  0  0  0
    2.0605    0.9255   -0.5896 H   0  0  0  0  0  0  0  0  0  0  0  0
    2.2213    2.5640    0.7852 C   0  0  0  0  0  0  0  0  0  0  0  0
    1.3460    2.4427    1.4246 H   0  0  0  0  0  0  0  0  0  0  0  0
    1.8931    3.1416   -0.0785 H   0  0  0  0  0  0  0  0  0  0  0  0
    3.4439    3.5800    1.6661 S   0  0  0  0  0  0  0  0  0  0  0  0
    4.1424    1.1666   -0.1470 C   0  0  0  0  0  0  0  0  0  0  0  0
    4.4466    1.2144   -1.3388 O   0  0  0  0  0  0  0  0  0  0  0  0
    5.0622    1.1097    0.8254 N   0  0  0  0  0  0  0  0  0  0  0  0
    4.7435    1.0756    1.7803 H   0  0  0  0  0  0  0  0  0  0  0  0
    6.5027    1.0891    0.5792 C   0  0  0  0  0  0  0  0  0  0  0  0
    6.7653    0.1935    0.0122 H   0  0  0  0  0  0  0  0  0  0  0  0
    6.7901    1.9649   -0.0054 H   0  0  0  0  0  0  0  0  0  0  0  0
    7.0488    1.0911    1.5234 H   0  0  0  0  0  0  0  0  0  0  0  0
   -0.5048    2.2223    8.6222 H   0  0  0  0  0  0  0  0  0  0  0  0
   -0.5569    2.8376    7.7252 C   0  0  0  0  0  0  0  0  0  0  0  0
   -0.8960    3.8389    7.9859 H   0  0  0  0  0  0  0  0  0  0  0  0
   -1.2462    2.3878    7.0131 H   0  0  0  0  0  0  0  0  0  0  0  0
    0.8189    2.9201    7.1065 C   0  0  0  0  0  0  0  0  0  0  0  0
    1.7627    2.3329    7.6178 O   0  0  0  0  0  0  0  0  0  0  0  0
    0.9281    3.6457    5.9969 N   0  0  0  0  0  0  0  0  0  0  0  0
    0.1080    4.1116    5.6367 H   0  0  0  0  0  0  0  0  0  0  0  0
    2.1717    3.8392    5.2511 C   0  0  1  0  0  0  0  0  0  0  0  0
    3.0010    3.9170    5.9564 H   0  0  0  0  0  0  0  0  0  0  0  0
    2.3984    2.5996    4.3745 C   0  0  0  0  0  0  0  0  0  0  0  0
    2.4310    1.7318    5.0349 H   0  0  0  0  0  0  0  0  0  0  0  0
    1.5386    2.4708    3.7167 H   0  0  0  0  0  0  0  0  0  0  0  0
    3.9060    2.5522    3.3686 S   0  0  0  0  0  0  0  0  0  0  0  0
    2.1126    5.1422    4.4344 C   0  0  0  0  0  0  0  0  0  0  0  0
    1.0323    5.5506    4.0060 O   0  0  0  0  0  0  0  0  0  0  0  0
    3.2645    5.7935    4.2281 N   0  0  0  0  0  0  0  0  0  0  0  0
    4.1103    5.3762    4.5830 H   0  0  0  0  0  0  0  0  0  0  0  0
    3.3817    7.0371    3.4677 C   0  0  0  0  0  0  0  0  0  0  0  0
    3.2790    6.8276    2.4017 H   0  0  0  0  0  0  0  0  0  0  0  0
    2.5922    7.7319    3.7639 H   0  0  0  0  0  0  0  0  0  0  0  0
    4.3511    7.5008    3.6508 H   0  0  0  0  0  0  0  0  0  0  0  0
  5  6  2  0  0  0  0
  5  7  1  0  0  0  0
  2  3  1  0  0  0  0
  2  4  1  0  0  0  0
  2  5  1  0  0  0  0
  1  2  1  0  0  0  0
 15 16  2  0  0  0  0
 15 17  1  0  0  0  0
 14 36  1  0  0  0  0
 11 12  1  0  0  0  0
 11 13  1  0  0  0  0
 11 14  1  0  0  0  0
  9 10  1  0  0  0  0
  9 11  1  0  0  0  0
  9 15  1  0  0  0  0
  7  8  1  0  0  0  0
  7  9  1  0  0  0  0
 19 20  1  0  0  0  0
 19 21  1  0  0  0  0
 19 22  1  0  0  0  0
 17 18  1  0  0  0  0
 17 19  1  0  0  0  0
 27 28  2  0  0  0  0
 27 29  1  0  0  0  0
 24 25  1  0  0  0  0
 24 26  1  0  0  0  0
 24 27  1  0  0  0  0
 23 24  1  0  0  0  0
 37 38  2  0  0  0  0
 37 39  1  0  0  0  0
 33 34  1  0  0  0  0
 33 35  1  0  0  0  0
 33 36  1  0  0  0  0
 31 32  1  0  0  0  0
 31 33  1  0  0  0  0
 31 37  1  0  0  0  0
 29 30  1  0  0  0  0
 29 31  1  0  0  0  0
 41 42  1  0  0  0  0
 41 43  1  0  0  0  0
 41 44  1  0  0  0  0
 39 40  1  0  0  0  0
 39 41  1  0  0  0  0
M  END
$$$$
default_name
  -OEChem-02102213163D

 44 43  0     1  0  0  0  0  0999 V2000
    2.4488   -3.0448    2.0990 H   0  0  0  0  0  0  0  0  0  0  0  0
    2.2788   -2.0018    2.3640 C   0  0  0  0  0  0  0  0  0  0  0  0
    2.9228   -1.7258    3.1960 H   0  0  0  0  0  0  0  0  0  0  0  0
    1.2358   -1.8618    2.6430 H   0  0  0  0  0  0  0  0  0  0  0  0
    2.6018   -1.1318    1.1730 C   0  0  0  0  0  0  0  0  0  0  0  0
    3.0048   -1.6348    0.1320 O   0  0  0  0  0  0  0  0  0  0  0  0
    2.4088    0.1752    1.3190 N   0  0  0  0  0  0  0  0  0  0  0  0
    2.0708    0.5242    2.2050 H   0  0  0  0  0  0  0  0  0  0  0  0
    2.6638    1.1782    0.2840 C   0  0  1  0  0  0  0  0  0  0  0  0
    2.0605    0.9255   -0.5896 H   0  0  0  0  0  0  0  0  0  0  0  0
    2.2213    2.5640    0.7852 C   0  0  0  0  0  0  0  0  0  0  0  0
    1.5317    2.4314    1.6197 H   0  0  0  0  0  0  0  0  0  0  0  0
    1.6510    3.0402   -0.0118 H   0  0  0  0  0  0  0  0  0  0  0  0
    3.5136    3.7401    1.2849 S   0  0  0  0  0  0  0  0  0  0  0  0
    4.1424    1.1666   -0.1470 C   0  0  0  0  0  0  0  0  0  0  0  0
    4.4466    1.2144   -1.3388 O   0  0  0  0  0  0  0  0  0  0  0  0
    5.0622    1.1097    0.8254 N   0  0  0  0  0  0  0  0  0  0  0  0
    4.7435    1.0756    1.7803 H   0  0  0  0  0  0  0  0  0  0  0  0
    6.5027    1.0891    0.5792 C   0  0  0  0  0  0  0  0  0  0  0  0
    6.7653    0.1935    0.0122 H   0  0  0  0  0  0  0  0  0  0  0  0
    6.7901    1.9649   -0.0054 H   0  0  0  0  0  0  0  0  0  0  0  0
    7.0488    1.0911    1.5234 H   0  0  0  0  0  0  0  0  0  0  0  0
    1.4140    2.6803    9.0497 H   0  0  0  0  0  0  0  0  0  0  0  0
    1.1000    3.2120    8.1527 C   0  0  0  0  0  0  0  0  0  0  0  0
    0.7381    4.2033    8.4210 H   0  0  0  0  0  0  0  0  0  0  0  0
    0.3105    2.6529    7.6541 H   0  0  0  0  0  0  0  0  0  0  0  0
    2.2829    3.3456    7.2225 C   0  0  0  0  0  0  0  0  0  0  0  0
    3.3695    2.8766    7.5330 O   0  0  0  0  0  0  0  0  0  0  0  0
    2.0660    3.9811    6.0740 N   0  0  0  0  0  0  0  0  0  0  0  0
    1.1453    4.3517    5.8886 H   0  0  0  0  0  0  0  0  0  0  0  0
    3.0812    4.2043    5.0447 C   0  0  1  0  0  0  0  0  0  0  0  0
    4.0395    4.4038    5.5275 H   0  0  0  0  0  0  0  0  0  0  0  0
    3.2148    2.9158    4.2210 C   0  0  0  0  0  0  0  0  0  0  0  0
    3.4790    2.1118    4.9095 H   0  0  0  0  0  0  0  0  0  0  0  0
    2.2426    2.6674    3.7948 H   0  0  0  0  0  0  0  0  0  0  0  0
    4.4484    2.8976    2.8926 S   0  0  0  0  0  0  0  0  0  0  0  0
    2.7149    5.4255    4.1828 C   0  0  0  0  0  0  0  0  0  0  0  0
    1.5318    5.7136    3.9964 O   0  0  0  0  0  0  0  0  0  0  0  0
    3.7226    6.1422    3.6687 N   0  0  0  0  0  0  0  0  0  0  0  0
    4.6624    5.8214    3.8398 H   0  0  0  0  0  0  0  0  0  0  0  0
    3.5455    7.3224    2.8236 C   0  0  0  0  0  0  0  0  0  0  0  0
    3.2204    7.0164    1.8278 H   0  0  0  0  0  0  0  0  0  0  0  0
    2.7840    7.9782    3.2525 H   0  0  0  0  0  0  0  0  0  0  0  0
    4.4835    7.8717    2.7422 H   0  0  0  0  0  0  0  0  0  0  0  0
  5  6  2  0  0  0  0
  5  7  1  0  0  0  0
  2  3  1  0  0  0  0
  2  4  1  0  0  0  0
  2  5  1  0  0  0  0
  1  2  1  0  0  0  0
 15 16  2  0  0  0  0
 15 17  1  0  0  0  0
 14 36  1  0  0  0  0
 11 12  1  0  0  0  0
 11 13  1  0  0  0  0
 11 14  1  0  0  0  0
  9 10  1  0  0  0  0
  9 11  1  0  0  0  0
  9 15  1  0  0  0  0
  7  8  1  0  0  0  0
  7  9  1  0  0  0  0
 19 20  1  0  0  0  0
 19 21  1  0  0  0  0
 19 22  1  0  0  0  0
 17 18  1  0  0  0  0
 17 19  1  0  0  0  0
 27 28  2  0  0  0  0
 27 29  1  0  0  0  0
 24 25  1  0  0  0  0
 24 26  1  0  0  0  0
 24 27  1  0  0  0  0
 23 24  1  0  0  0  0
 37 38  2  0  0  0  0
 37 39  1  0  0  0  0
 33 34  1  0  0  0  0
 33 35  1  0  0  0  0
 33 36  1  0  0  0  0
 31 32  1  0  0  0  0
 31 33  1  0  0  0  0
 31 37  1  0  0  0  0
 29 30  1  0  0  0  0
 29 31  1  0  0  0  0
 41 42  1  0  0  0  0
 41 43  1  0  0  0  0
 41 44  1  0  0  0  0
 39 40  1  0  0  0  0
 39 41  1  0  0  0  0
M  END
$$$$
default_name
  -OEChem-02102213163D

 44 43  0     1  0  0  0  0  0999 V2000
    2.4488   -3.0448    2.0990 H   0  0  0  0  0  0  0  0  0  0  0  0
    2.2788   -2.0018    2.3640 C   0  0  0  0  0  0  0  0  0  0  0  0
    2.9228   -1.7258    3.1960 H   0  0  0  0  0  0  0  0  0  0  0  0
    1.2358   -1.8618    2.6430 H   0  0  0  0  0  0  0  0  0  0  0  0
    2.6018   -1.1318    1.1730 C   0  0  0  0  0  0  0  0  0  0  0  0
    3.0048   -1.6348    0.1320 O   0  0  0  0  0  0  0  0  0  0  0  0
    2.4088    0.1752    1.3190 N   0  0  0  0  0  0  0  0  0  0  0  0
    2.0708    0.5242    2.2050 H   0  0  0  0  0  0  0  0  0  0  0  0
    2.6638    1.1782    0.2840 C   0  0  1  0  0  0  0  0  0  0  0  0
    2.0605    0.9255   -0.5896 H   0  0  0  0  0  0  0  0  0  0  0  0
    2.2213    2.5640    0.7852 C   0  0  0  0  0  0  0  0  0  0  0  0
    1.7574    2.4506    1.7658 H   0  0  0  0  0  0  0  0  0  0  0  0
    1.4412    2.9268    0.1165 H   0  0  0  0  0  0  0  0  0  0  0  0
    3.4785    3.8723    0.8886 S   0  0  0  0  0  0  0  0  0  0  0  0
    4.1424    1.1666   -0.1470 C   0  0  0  0  0  0  0  0  0  0  0  0
    4.4466    1.2144   -1.3388 O   0  0  0  0  0  0  0  0  0  0  0  0
    5.0622    1.1097    0.8254 N   0  0  0  0  0  0  0  0  0  0  0  0
    4.7435    1.0756    1.7803 H   0  0  0  0  0  0  0  0  0  0  0  0
    6.5027    1.0891    0.5792 C   0  0  0  0  0  0  0  0  0  0  0  0
    6.7653    0.1935    0.0122 H   0  0  0  0  0  0  0  0  0  0  0  0
    6.7901    1.9649   -0.0054 H   0  0  0  0  0  0  0  0  0  0  0  0
    7.0488    1.0911    1.5234 H   0  0  0  0  0  0  0  0  0  0  0  0
    3.3285    3.3164    8.9812 H   0  0  0  0  0  0  0  0  0  0  0  0
    2.7686    3.7452    8.1515 C   0  0  0  0  0  0  0  0  0  0  0  0
    2.3874    4.7255    8.4333 H   0  0  0  0  0  0  0  0  0  0  0  0
    1.9412    3.0880    7.8907 H   0  0  0  0  0  0  0  0  0  0  0  0
    3.6881    3.8887    6.9615 C   0  0  0  0  0  0  0  0  0  0  0  0
    4.8558    3.5310    7.0360 O   0  0  0  0  0  0  0  0  0  0  0  0
    3.1548    4.4068    5.8583 N   0  0  0  0  0  0  0  0  0  0  0  0
    2.1857    4.6898    5.8722 H   0  0  0  0  0  0  0  0  0  0  0  0
    3.8809    4.6183    4.6061 C   0  0  1  0  0  0  0  0  0  0  0  0
    4.9016    4.9296    4.8349 H   0  0  0  0  0  0  0  0  0  0  0  0
    3.9409    3.2786    3.8589 C   0  0  0  0  0  0  0  0  0  0  0  0
    4.4300    2.5579    4.5159 H   0  0  0  0  0  0  0  0  0  0  0  0
    2.9242    2.9224    3.6914 H   0  0  0  0  0  0  0  0  0  0  0  0
    4.8322    3.2415    2.2806 S   0  0  0  0  0  0  0  0  0  0  0  0
    3.2140    5.7312    3.7784 C   0  0  0  0  0  0  0  0  0  0  0  0
    1.9983    5.9123    3.8586 O   0  0  0  0  0  0  0  0  0  0  0  0
    4.0053    6.4759    2.9955 N   0  0  0  0  0  0  0  0  0  0  0  0
    4.9850    6.2426    2.9601 H   0  0  0  0  0  0  0  0  0  0  0  0
    3.5295    7.5638    2.1420 C   0  0  0  0  0  0  0  0  0  0  0  0
    3.0141    7.1512    1.2731 H   0  0  0  0  0  0  0  0  0  0  0  0
    2.8294    8.1941    2.6955 H   0  0  0  0  0  0  0  0  0  0  0  0
    4.3684    8.1736    1.8060 H   0  0  0  0  0  0  0  0  0  0  0  0
  5  6  2  0  0  0  0
  5  7  1  0  0  0  0
  2  3  1  0  0  0  0
  2  4  1  0  0  0  0
  2  5  1  0  0  0  0
  1  2  1  0  0  0  0
 15 16  2  0  0  0  0
 15 17  1  0  0  0  0
 14 36  1  0  0  0  0
 11 12  1  0  0  0  0
 11 13  1  0  0  0  0
 11 14  1  0  0  0  0
  9 10  1  0  0  0  0
  9 11  1  0  0  0  0
  9 15  1  0  0  0  0
  7  8  1  0  0  0  0
  7  9  1  0  0  0  0
 19 20  1  0  0  0  0
 19 21  1  0  0  0  0
 19 22  1  0  0  0  0
 17 18  1  0  0  0  0
 17 19  1  0  0  0  0
 27 28  2  0  0  0  0
 27 29  1  0  0  0  0
 24 25  1  0  0  0  0
 24 26  1  0  0  0  0
 24 27  1  0  0  0  0
 23 24  1  0  0  0  0
 37 38  2  0  0  0  0
 37 39  1  0  0  0  0
 33 34  1  0  0  0  0
 33 35  1  0  0  0  0
 33 36  1  0  0  0  0
 31 32  1  0  0  0  0
 31 33  1  0  0  0  0
 31 37  1  0  0  0  0
 29 30  1  0  0  0  0
 29 31  1  0  0  0  0
 41 42  1  0  0  0  0
 41 43  1  0  0  0  0
 41 44  1  0  0  0  0
 39 40  1  0  0  0  0
 39 41  1  0  0  0  0
M  END
$$$$
default_name
  -OEChem-02102213163D

 44 43  0     1  0  0  0  0  0999 V2000
    2.4488   -3.0448    2.0990 H   0  0  0  0  0  0  0  0  0  0  0  0
    2.2788   -2.0018    2.3640 C   0  0  0  0  0  0  0  0  0  0  0  0
    2.9228   -1.7258    3.1960 H   0  0  0  0  0  0  0  0  0  0  0  0
    1.2358   -1.8618    2.6430 H   0  0  0  0  0  0  0  0  0  0  0  0
    2.6018   -1.1318    1.1730 C   0  0  0  0  0  0  0  0  0  0  0  0
    3.0048   -1.6348    0.1320 O   0  0  0  0  0  0  0  0  0  0  0  0
    2.4088    0.1752    1.3190 N   0  0  0  0  0  0  0  0  0  0  0  0
    2.0708    0.5242    2.2050 H   0  0  0  0  0  0  0  0  0  0  0  0
    2.6638    1.1782    0.2840 C   0  0  1  0  0  0  0  0  0  0  0  0
    2.0605    0.9255   -0.5896 H   0  0  0  0  0  0  0  0  0  0  0  0
    2.2213    2.5640    0.7852 C   0  0  0  0  0  0  0  0  0  0  0  0
    2.0079    2.4991    1.8529 H   0  0  0  0  0  0  0  0  0  0  0  0
    1.2780    2.8091    0.2979 H   0  0  0  0  0  0  0  0  0  0  0  0
    3.3411    3.9675    0.5040 S   0  0  0  0  0  0  0  0  0  0  0  0
    4.1424    1.1666   -0.1470 C   0  0  0  0  0  0  0  0  0  0  0  0
    4.4466    1.2144   -1.3388 O   0  0  0  0  0  0  0  0  0  0  0  0
    5.0622    1.1097    0.8254 N   0  0  0  0  0  0  0  0  0  0  0  0
    4.7435    1.0756    1.7803 H   0  0  0  0  0  0  0  0  0  0  0  0
    6.5027    1.0891    0.5792 C   0  0  0  0  0  0  0  0  0  0  0  0
    6.7653    0.1935    0.0122 H   0  0  0  0  0  0  0  0  0  0  0  0
    6.7901    1.9649   -0.0054 H   0  0  0  0  0  0  0  0  0  0  0  0
    7.0488    1.0911    1.5234 H   0  0  0  0  0  0  0  0  0  0  0  0
    5.1082    4.0871    8.4215 H   0  0  0  0  0  0  0  0  0  0  0  0
    4.3350    4.4009    7.7217 C   0  0  0  0  0  0  0  0  0  0  0  0
    3.9392    5.3698    8.0218 H   0  0  0  0  0  0  0  0  0  0  0  0
    3.5347    3.6634    7.7067 H   0  0  0  0  0  0  0  0  0  0  0  0
    4.9389    4.5124    6.3414 C   0  0  0  0  0  0  0  0  0  0  0  0
    6.1205    4.2514    6.1608 O   0  0  0  0  0  0  0  0  0  0  0  0
    4.1203    4.8937    5.3645 N   0  0  0  0  0  0  0  0  0  0  0  0
    3.1584    5.1029    5.5887 H   0  0  0  0  0  0  0  0  0  0  0  0
    4.5161    5.0530    3.9652 C   0  0  1  0  0  0  0  0  0  0  0  0
    5.5286    5.4586    3.9258 H   0  0  0  0  0  0  0  0  0  0  0  0
    4.5272    3.6633    3.3130 C   0  0  0  0  0  0  0  0  0  0  0  0
    5.2193    3.0396    3.8807 H   0  0  0  0  0  0  0  0  0  0  0  0
    3.5370    3.2186    3.4137 H   0  0  0  0  0  0  0  0  0  0  0  0
    5.0313    3.5605    1.5745 S   0  0  0  0  0  0  0  0  0  0  0  0
    3.5761    6.0385    3.2485 C   0  0  0  0  0  0  0  0  0  0  0  0
    2.3999    6.1334    3.6020 O   0  0  0  0  0  0  0  0  0  0  0  0
    4.0934    6.7720    2.2546 N   0  0  0  0  0  0  0  0  0  0  0  0
    5.0560    6.6112    2.0037 H   0  0  0  0  0  0  0  0  0  0  0  0
    3.3348    7.7450    1.4694 C   0  0  0  0  0  0  0  0  0  0  0  0
    2.6742    7.2228    0.7753 H   0  0  0  0  0  0  0  0  0  0  0  0
    2.7251    8.3651    2.1309 H   0  0  0  0  0  0  0  0  0  0  0  0
    4.0134    8.3858    0.9061 H   0  0  0  0  0  0  0  0  0  0  0  0
  5  6  2  0  0  0  0
  5  7  1  0  0  0  0
  2  3  1  0  0  0  0
  2  4  1  0  0  0  0
  2  5  1  0  0  0  0
  1  2  1  0  0  0  0
 15 16  2  0  0  0  0
 15 17  1  0  0  0  0
 14 36  1  0  0  0  0
 11 12  1  0  0  0  0
 11 13  1  0  0  0  0
 11 14  1  0  0  0  0
  9 10  1  0  0  0  0
  9 11  1  0  0  0  0
  9 15  1  0  0  0  0
  7  8  1  0  0  0  0
  7  9  1  0  0  0  0
 19 20  1  0  0  0  0
 19 21  1  0  0  0  0
 19 22  1  0  0  0  0
 17 18  1  0  0  0  0
 17 19  1  0  0  0  0
 27 28  2  0  0  0  0
 27 29  1  0  0  0  0
 24 25  1  0  0  0  0
 24 26  1  0  0  0  0
 24 27  1  0  0  0  0
 23 24  1  0  0  0  0
 37 38  2  0  0  0  0
 37 39  1  0  0  0  0
 33 34  1  0  0  0  0
 33 35  1  0  0  0  0
 33 36  1  0  0  0  0
 31 32  1  0  0  0  0
 31 33  1  0  0  0  0
 31 37  1  0  0  0  0
 29 30  1  0  0  0  0
 29 31  1  0  0  0  0
 41 42  1  0  0  0  0
 41 43  1  0  0  0  0
 41 44  1  0  0  0  0
 39 40  1  0  0  0  0
 39 41  1  0  0  0  0
M  END
$$$$
default_name
  -OEChem-02102213163D

 44 43  0     1  0  0  0  0  0999 V2000
    2.4488   -3.0448    2.0990 H   0  0  0  0  0  0  0  0  0  0  0  0
    2.2788   -2.0018    2.3640 C   0  0  0  0  0  0  0  0  0  0  0  0
    2.9228   -1.7258    3.1960 H   0  0  0  0  0  0  0  0  0  0  0  0
    1.2358   -1.8618    2.6430 H   0  0  0  0  0  0  0  0  0  0  0  0
    2.6018   -1.1318    1.1730 C   0  0  0  0  0  0  0  0  0  0  0  0
    3.0048   -1.6348    0.1320 O   0  0  0  0  0  0  0  0  0  0  0  0
    2.4088    0.1752    1.3190 N   0  0  0  0  0  0  0  0  0  0  0  0
    2.0708    0.5242    2.2050 H   0  0  0  0  0  0  0  0  0  0  0  0
    2.6638    1.1782    0.2840 C   0  0  1  0  0  0  0  0  0  0  0  0
    2.0605    0.9255   -0.5896 H   0  0  0  0  0  0  0  0  0  0  0  0
    2.2213    2.5640    0.7852 C   0  0  0  0  0  0  0  0  0  0  0  0
    2.2661    2.5736    1.8750 H   0  0  0  0  0  0  0  0  0  0  0  0
    1.1726    2.6952    0.5198 H   0  0  0  0  0  0  0  0  0  0  0  0
    3.1107    4.0193    0.1575 S   0  0  0  0  0  0  0  0  0  0  0  0
    4.1424    1.1666   -0.1470 C   0  0  0  0  0  0  0  0  0  0  0  0
    4.4466    1.2144   -1.3388 O   0  0  0  0  0  0  0  0  0  0  0  0
    5.0622    1.1097    0.8254 N   0  0  0  0  0  0  0  0  0  0  0  0
    4.7435    1.0756    1.7803 H   0  0  0  0  0  0  0  0  0  0  0  0
    6.5027    1.0891    0.5792 C   0  0  0  0  0  0  0  0  0  0  0  0
    6.7653    0.1935    0.0122 H   0  0  0  0  0  0  0  0  0  0  0  0
    6.7901    1.9649   -0.0054 H   0  0  0  0  0  0  0  0  0  0  0  0
    7.0488    1.0911    1.5234 H   0  0  0  0  0  0  0  0  0  0  0  0
    6.6317    4.9400    7.4086 H   0  0  0  0  0  0  0  0  0  0  0  0
    5.6926    5.1343    6.8926 C   0  0  0  0  0  0  0  0  0  0  0  0
    5.2879    6.0925    7.2147 H   0  0  0  0  0  0  0  0  0  0  0  0
    4.9826    4.3399    7.1147 H   0  0  0  0  0  0  0  0  0  0  0  0
    5.9499    5.1741    5.4045 C   0  0  0  0  0  0  0  0  0  0  0  0
    7.0774    4.9888    4.9670 O   0  0  0  0  0  0  0  0  0  0  0  0
    4.8968    5.4087    4.6262 N   0  0  0  0  0  0  0  0  0  0  0  0
    3.9969    5.5629    5.0574 H   0  0  0  0  0  0  0  0  0  0  0  0
    4.9436    5.4787    3.1657 C   0  0  1  0  0  0  0  0  0  0  0  0
    5.8776    5.9548    2.8621 H   0  0  0  0  0  0  0  0  0  0  0  0
    4.9339    4.0437    2.6203 C   0  0  0  0  0  0  0  0  0  0  0  0
    5.7929    3.5243    3.0474 H   0  0  0  0  0  0  0  0  0  0  0  0
    4.0392    3.5356    2.9806 H   0  0  0  0  0  0  0  0  0  0  0  0
    5.0321    3.8329    0.8222 S   0  0  0  0  0  0  0  0  0  0  0  0
    3.7765    6.3264    2.6295 C   0  0  0  0  0  0  0  0  0  0  0  0
    2.7095    6.3618    3.2440 O   0  0  0  0  0  0  0  0  0  0  0  0
    3.9807    7.0104    1.4963 N   0  0  0  0  0  0  0  0  0  0  0  0
    4.8705    6.9020    1.0360 H   0  0  0  0  0  0  0  0  0  0  0  0
    2.9747    7.8535    0.8516 C   0  0  0  0  0  0  0  0  0  0  0  0
    2.2238    7.2261    0.3684 H   0  0  0  0  0  0  0  0  0  0  0  0
    2.4784    8.4794    1.5971 H   0  0  0  0  0  0  0  0  0  0  0  0
    3.4429    8.4938    0.1039 H   0  0  0  0  0  0  0  0  0  0  0  0
  5  6  2  0  0  0  0
  5  7  1  0  0  0  0
  2  3  1  0  0  0  0
  2  4  1  0  0  0  0
  2  5  1  0  0  0  0
  1  2  1  0  0  0  0
 15 16  2  0  0  0  0
 15 17  1  0  0  0  0
 14 36  1  0  0  0  0
 11 12  1  0  0  0  0
 11 13  1  0  0  0  0
 11 14  1  0  0  0  0
  9 10  1  0  0  0  0
  9 11  1  0  0  0  0
  9 15  1  0  0  0  0
  7  8  1  0  0  0  0
  7  9  1  0  0  0  0
 19 20  1  0  0  0  0
 19 21  1  0  0  0  0
 19 22  1  0  0  0  0
 17 18  1  0  0  0  0
 17 19  1  0  0  0  0
 27 28  2  0  0  0  0
 27 29  1  0  0  0  0
 24 25  1  0  0  0  0
 24 26  1  0  0  0  0
 24 27  1  0  0  0  0
 23 24  1  0  0  0  0
 37 38  2  0  0  0  0
 37 39  1  0  0  0  0
 33 34  1  0  0  0  0
 33 35  1  0  0  0  0
 33 36  1  0  0  0  0
 31 32  1  0  0  0  0
 31 33  1  0  0  0  0
 31 37  1  0  0  0  0
 29 30  1  0  0  0  0
 29 31  1  0  0  0  0
 41 42  1  0  0  0  0
 41 43  1  0  0  0  0
 41 44  1  0  0  0  0
 39 40  1  0  0  0  0
 39 41  1  0  0  0  0
M  END
$$$$
default_name
  -OEChem-02102213163D

 44 43  0     1  0  0  0  0  0999 V2000
    2.4488   -3.0448    2.0990 H   0  0  0  0  0  0  0  0  0  0  0  0
    2.2788   -2.0018    2.3640 C   0  0  0  0  0  0  0  0  0  0  0  0
    2.9228   -1.7258    3.1960 H   0  0  0  0  0  0  0  0  0  0  0  0
    1.2358   -1.8618    2.6430 H   0  0  0  0  0  0  0  0  0  0  0  0
    2.6018   -1.1318    1.1730 C   0  0  0  0  0  0  0  0  0  0  0  0
    3.0048   -1.6348    0.1320 O   0  0  0  0  0  0  0  0  0  0  0  0
    2.4088    0.1752    1.3190 N   0  0  0  0  0  0  0  0  0  0  0  0
    2.0708    0.5242    2.2050 H   0  0  0  0  0  0  0  0  0  0  0  0
    2.6638    1.1782    0.2840 C   0  0  1  0  0  0  0  0  0  0  0  0
    2.0605    0.9255   -0.5896 H   0  0  0  0  0  0  0  0  0  0  0  0
    2.2213    2.5640    0.7852 C   0  0  0  0  0  0  0  0  0  0  0  0
    2.5143    2.6689    1.8306 H   0  0  0  0  0  0  0  0  0  0  0  0
    1.1322    2.5927    0.7672 H   0  0  0  0  0  0  0  0  0  0  0  0
    2.8031    4.0240   -0.1273 S   0  0  0  0  0  0  0  0  0  0  0  0
    4.1424    1.1666   -0.1470 C   0  0  0  0  0  0  0  0  0  0  0  0
    4.4466    1.2144   -1.3388 O   0  0  0  0  0  0  0  0  0  0  0  0
    5.0622    1.1097    0.8254 N   0  0  0  0  0  0  0  0  0  0  0  0
    4.7435    1.0756    1.7803 H   0  0  0  0  0  0  0  0  0  0  0  0
    6.5027    1.0891    0.5792 C   0  0  0  0  0  0  0  0  0  0  0  0
    6.7653    0.1935    0.0122 H   0  0  0  0  0  0  0  0  0  0  0  0
    6.7901    1.9649   -0.0054 H   0  0  0  0  0  0  0  0  0  0  0  0
    7.0488    1.0911    1.5234 H   0  0  0  0  0  0  0  0  0  0  0  0
    7.7953    5.8169    6.0116 H   0  0  0  0  0  0  0  0  0  0  0  0
    6.7489    5.8955    5.7207 C   0  0  0  0  0  0  0  0  0  0  0  0
    6.3416    6.8441    6.0669 H   0  0  0  0  0  0  0  0  0  0  0  0
    6.1861    5.0713    6.1550 H   0  0  0  0  0  0  0  0  0  0  0  0
    6.6522    5.8288    4.2146 C   0  0  0  0  0  0  0  0  0  0  0  0
    7.6612    5.6928    3.5359 O   0  0  0  0  0  0  0  0  0  0  0  0
    5.4313    5.9167    3.6937 N   0  0  0  0  0  0  0  0  0  0  0  0
    4.6443    6.0383    4.3145 H   0  0  0  0  0  0  0  0  0  0  0  0
    5.1343    5.8664    2.2621 C   0  0  1  0  0  0  0  0  0  0  0  0
    5.9250    6.3844    1.7164 H   0  0  0  0  0  0  0  0  0  0  0  0
    5.1332    4.3939    1.8280 C   0  0  0  0  0  0  0  0  0  0  0  0
    6.1119    3.9787    2.0727 H   0  0  0  0  0  0  0  0  0  0  0  0
    4.3966    3.8519    2.4215 H   0  0  0  0  0  0  0  0  0  0  0  0
    4.8346    4.0400    0.0752 S   0  0  0  0  0  0  0  0  0  0  0  0
    3.8014    6.5753    1.9634 C   0  0  0  0  0  0  0  0  0  0  0  0
    2.9058    6.5818    2.8090 O   0  0  0  0  0  0  0  0  0  0  0  0
    3.6750    7.1746    0.7725 N   0  0  0  0  0  0  0  0  0  0  0  0
    4.4413    7.0953    0.1229 H   0  0  0  0  0  0  0  0  0  0  0  0
    2.4738    7.8819    0.3308 C   0  0  0  0  0  0  0  0  0  0  0  0
    1.6936    7.1611    0.0801 H   0  0  0  0  0  0  0  0  0  0  0  0
    2.1060    8.5293    1.1305 H   0  0  0  0  0  0  0  0  0  0  0  0
    2.6957    8.4904   -0.5461 H   0  0  0  0  0  0  0  0  0  0  0  0
  5  6  2  0  0  0  0
  5  7  1  0  0  0  0
  2  3  1  0  0  0  0
  2  4  1  0  0  0  0
  2  5  1  0  0  0  0
  1  2  1  0  0  0  0
 15 16  2  0  0  0  0
 15 17  1  0  0  0  0
 14 36  1  0  0  0  0
 11 12  1  0  0  0  0
 11 13  1  0  0  0  0
 11 14  1  0  0  0  0
  9 10  1  0  0  0  0
  9 11  1  0  0  0  0
  9 15  1  0  0  0  0
  7  8  1  0  0  0  0
  7  9  1  0  0  0  0
 19 20  1  0  0  0  0
 19 21  1  0  0  0  0
 19 22  1  0  0  0  0
 17 18  1  0  0  0  0
 17 19  1  0  0  0  0
 27 28  2  0  0  0  0
 27 29  1  0  0  0  0
 24 25  1  0  0  0  0
 24 26  1  0  0  0  0
 24 27  1  0  0  0  0
 23 24  1  0  0  0  0
 37 38  2  0  0  0  0
 37 39  1  0  0  0  0
 33 34  1  0  0  0  0
 33 35  1  0  0  0  0
 33 36  1  0  0  0  0
 31 32  1  0  0  0  0
 31 33  1  0  0  0  0
 31 37  1  0  0  0  0
 29 30  1  0  0  0  0
 29 31  1  0  0  0  0
 41 42  1  0  0  0  0
 41 43  1  0  0  0  0
 41 44  1  0  0  0  0
 39 40  1  0  0  0  0
 39 41  1  0  0  0  0
M  END
$$$$
