default_name
  -OEChem-12212115393D

 36 37  0     1  0  0  0  0  0999 V2000
   -4.0843   -4.0736    1.2944 H   0  0  0  0  0  0  0  0  0  0  0  0
   -4.0342   -3.2816    0.5484 C   0  0  0  0  0  0  0  0  0  0  0  0
   -4.8842   -2.6126    0.6694 H   0  0  0  0  0  0  0  0  0  0  0  0
   -4.0433   -3.7186   -0.4486 H   0  0  0  0  0  0  0  0  0  0  0  0
   -2.7532   -2.5046    0.7444 C   0  0  0  0  0  0  0  0  0  0  0  0
   -1.9803   -2.8096    1.6434 O   0  0  0  0  0  0  0  0  0  0  0  0
   -2.5332   -1.4966   -0.0966 N   0  0  0  0  0  0  0  0  0  0  0  0
   -3.2312   -1.2816   -0.7936 H   0  0  0  0  0  0  0  0  0  0  0  0
   -1.3593   -0.6196   -0.0536 C   0  0  1  0  0  0  0  0  0  0  0  0
   -1.3515   -0.0929    0.9014 H   0  0  0  0  0  0  0  0  0  0  0  0
   -0.0816   -1.4690   -0.1431 C   0  0  0  0  0  0  0  0  0  0  0  0
    0.7849   -0.8079   -0.0855 H   0  0  0  0  0  0  0  0  0  0  0  0
   -0.0465   -2.1354    0.7204 H   0  0  0  0  0  0  0  0  0  0  0  0
    0.0479   -2.2955   -1.3865 C   0  0  0  0  0  0  0  0  0  0  0  0
    0.5999   -1.8846   -2.5502 C   0  0  0  0  0  0  0  0  0  0  0  0
    1.0004   -0.8924   -2.7268 H   0  0  0  0  0  0  0  0  0  0  0  0
    0.5913   -2.9233   -3.4604 N   0  0  0  0  0  0  0  0  0  0  0  0
    0.9508   -2.8432   -4.4003 H   0  0  0  0  0  0  0  0  0  0  0  0
    0.0448   -4.0676   -2.9195 C   0  0  0  0  0  0  0  0  0  0  0  0
   -0.1564   -5.3622   -3.4194 C   0  0  0  0  0  0  0  0  0  0  0  0
    0.1400   -5.6119   -4.4276 H   0  0  0  0  0  0  0  0  0  0  0  0
   -0.7505   -6.3295   -2.5909 C   0  0  0  0  0  0  0  0  0  0  0  0
   -0.9146   -7.3329   -2.9598 H   0  0  0  0  0  0  0  0  0  0  0  0
   -1.1382   -5.9887   -1.2821 C   0  0  0  0  0  0  0  0  0  0  0  0
   -1.6026   -6.7336   -0.6509 H   0  0  0  0  0  0  0  0  0  0  0  0
   -0.9329   -4.6838   -0.7908 C   0  0  0  0  0  0  0  0  0  0  0  0
   -1.2475   -4.4317    0.2120 H   0  0  0  0  0  0  0  0  0  0  0  0
   -0.3330   -3.6913   -1.5958 C   0  0  0  0  0  0  0  0  0  0  0  0
   -1.4166    0.4398   -1.1650 C   0  0  0  0  0  0  0  0  0  0  0  0
   -2.3673    0.4679   -1.9454 O   0  0  0  0  0  0  0  0  0  0  0  0
   -0.3992    1.3086   -1.2373 N   0  0  0  0  0  0  0  0  0  0  0  0
    0.3690    1.1840   -0.5934 H   0  0  0  0  0  0  0  0  0  0  0  0
   -0.2991    2.3759   -2.2289 C   0  0  0  0  0  0  0  0  0  0  0  0
   -1.2185    2.9644   -2.2305 H   0  0  0  0  0  0  0  0  0  0  0  0
    0.5455    3.0261   -1.9969 H   0  0  0  0  0  0  0  0  0  0  0  0
   -0.1595    1.9420   -3.2204 H   0  0  0  0  0  0  0  0  0  0  0  0
  5  6  2  0  0  0  0
  5  7  1  0  0  0  0
  2  3  1  0  0  0  0
  2  4  1  0  0  0  0
  2  5  1  0  0  0  0
  1  2  1  0  0  0  0
 29 30  2  0  0  0  0
 29 31  1  0  0  0  0
 26 27  1  0  0  0  0
 26 28  2  0  0  0  0
 24 25  1  0  0  0  0
 24 26  1  0  0  0  0
 22 23  1  0  0  0  0
 22 24  2  0  0  0  0
 20 21  1  0  0  0  0
 20 22  1  0  0  0  0
 19 20  2  0  0  0  0
 19 28  1  0  0  0  0
 17 18  1  0  0  0  0
 17 19  1  0  0  0  0
 15 16  1  0  0  0  0
 15 17  1  0  0  0  0
 14 15  2  0  0  0  0
 14 28  1  0  0  0  0
 11 12  1  0  0  0  0
 11 13  1  0  0  0  0
 11 14  1  0  0  0  0
  9 10  1  0  0  0  0
  9 11  1  0  0  0  0
  9 29  1  0  0  0  0
  7  8  1  0  0  0  0
  7  9  1  0  0  0  0
 33 34  1  0  0  0  0
 33 35  1  0  0  0  0
 33 36  1  0  0  0  0
 31 32  1  0  0  0  0
 31 33  1  0  0  0  0
M  END
$$$$
default_name
  -OEChem-12212115393D

 36 37  0     1  0  0  0  0  0999 V2000
   -4.0843   -4.0736    1.2944 H   0  0  0  0  0  0  0  0  0  0  0  0
   -4.0342   -3.2816    0.5484 C   0  0  0  0  0  0  0  0  0  0  0  0
   -4.8842   -2.6126    0.6694 H   0  0  0  0  0  0  0  0  0  0  0  0
   -4.0433   -3.7186   -0.4486 H   0  0  0  0  0  0  0  0  0  0  0  0
   -2.7532   -2.5046    0.7444 C   0  0  0  0  0  0  0  0  0  0  0  0
   -1.9803   -2.8096    1.6434 O   0  0  0  0  0  0  0  0  0  0  0  0
   -2.5332   -1.4966   -0.0966 N   0  0  0  0  0  0  0  0  0  0  0  0
   -3.2312   -1.2816   -0.7936 H   0  0  0  0  0  0  0  0  0  0  0  0
   -1.3593   -0.6196   -0.0536 C   0  0  1  0  0  0  0  0  0  0  0  0
   -1.3515   -0.0929    0.9014 H   0  0  0  0  0  0  0  0  0  0  0  0
   -0.0816   -1.4690   -0.1431 C   0  0  0  0  0  0  0  0  0  0  0  0
    0.7849   -0.8079   -0.0855 H   0  0  0  0  0  0  0  0  0  0  0  0
   -0.0465   -2.1354    0.7204 H   0  0  0  0  0  0  0  0  0  0  0  0
    0.0479   -2.2955   -1.3865 C   0  0  0  0  0  0  0  0  0  0  0  0
    0.5999   -1.8846   -2.5502 C   0  0  0  0  0  0  0  0  0  0  0  0
    1.0004   -0.8924   -2.7268 H   0  0  0  0  0  0  0  0  0  0  0  0
    0.5913   -2.9233   -3.4604 N   0  0  0  0  0  0  0  0  0  0  0  0
    0.9508   -2.8432   -4.4003 H   0  0  0  0  0  0  0  0  0  0  0  0
    0.0448   -4.0676   -2.9195 C   0  0  0  0  0  0  0  0  0  0  0  0
   -0.1564   -5.3622   -3.4194 C   0  0  0  0  0  0  0  0  0  0  0  0
    0.1400   -5.6119   -4.4276 H   0  0  0  0  0  0  0  0  0  0  0  0
   -0.7505   -6.3295   -2.5909 C   0  0  0  0  0  0  0  0  0  0  0  0
   -0.9146   -7.3329   -2.9598 H   0  0  0  0  0  0  0  0  0  0  0  0
   -1.1382   -5.9887   -1.2821 C   0  0  0  0  0  0  0  0  0  0  0  0
   -1.6026   -6.7336   -0.6509 H   0  0  0  0  0  0  0  0  0  0  0  0
   -0.9329   -4.6838   -0.7908 C   0  0  0  0  0  0  0  0  0  0  0  0
   -1.2475   -4.4317    0.2120 H   0  0  0  0  0  0  0  0  0  0  0  0
   -0.3330   -3.6913   -1.5958 C   0  0  0  0  0  0  0  0  0  0  0  0
   -1.4166    0.4398   -1.1650 C   0  0  0  0  0  0  0  0  0  0  0  0
   -2.4697    0.6519   -1.7647 O   0  0  0  0  0  0  0  0  0  0  0  0
   -0.2849    1.1023   -1.4399 N   0  0  0  0  0  0  0  0  0  0  0  0
    0.5494    0.8307   -0.9396 H   0  0  0  0  0  0  0  0  0  0  0  0
   -0.1671    2.1389   -2.4616 C   0  0  0  0  0  0  0  0  0  0  0  0
   -0.9460    2.8898   -2.3156 H   0  0  0  0  0  0  0  0  0  0  0  0
    0.8114    2.6169   -2.4006 H   0  0  0  0  0  0  0  0  0  0  0  0
   -0.2910    1.6938   -3.4502 H   0  0  0  0  0  0  0  0  0  0  0  0
  5  6  2  0  0  0  0
  5  7  1  0  0  0  0
  2  3  1  0  0  0  0
  2  4  1  0  0  0  0
  2  5  1  0  0  0  0
  1  2  1  0  0  0  0
 29 30  2  0  0  0  0
 29 31  1  0  0  0  0
 26 27  1  0  0  0  0
 26 28  2  0  0  0  0
 24 25  1  0  0  0  0
 24 26  1  0  0  0  0
 22 23  1  0  0  0  0
 22 24  2  0  0  0  0
 20 21  1  0  0  0  0
 20 22  1  0  0  0  0
 19 20  2  0  0  0  0
 19 28  1  0  0  0  0
 17 18  1  0  0  0  0
 17 19  1  0  0  0  0
 15 16  1  0  0  0  0
 15 17  1  0  0  0  0
 14 15  2  0  0  0  0
 14 28  1  0  0  0  0
 11 12  1  0  0  0  0
 11 13  1  0  0  0  0
 11 14  1  0  0  0  0
  9 10  1  0  0  0  0
  9 11  1  0  0  0  0
  9 29  1  0  0  0  0
  7  8  1  0  0  0  0
  7  9  1  0  0  0  0
 33 34  1  0  0  0  0
 33 35  1  0  0  0  0
 33 36  1  0  0  0  0
 31 32  1  0  0  0  0
 31 33  1  0  0  0  0
M  END
$$$$
default_name
  -OEChem-12212115393D

 36 37  0     1  0  0  0  0  0999 V2000
   -4.0843   -4.0736    1.2944 H   0  0  0  0  0  0  0  0  0  0  0  0
   -4.0342   -3.2816    0.5484 C   0  0  0  0  0  0  0  0  0  0  0  0
   -4.8842   -2.6126    0.6694 H   0  0  0  0  0  0  0  0  0  0  0  0
   -4.0433   -3.7186   -0.4486 H   0  0  0  0  0  0  0  0  0  0  0  0
   -2.7532   -2.5046    0.7444 C   0  0  0  0  0  0  0  0  0  0  0  0
   -1.9803   -2.8096    1.6434 O   0  0  0  0  0  0  0  0  0  0  0  0
   -2.5332   -1.4966   -0.0966 N   0  0  0  0  0  0  0  0  0  0  0  0
   -3.2312   -1.2816   -0.7936 H   0  0  0  0  0  0  0  0  0  0  0  0
   -1.3593   -0.6196   -0.0536 C   0  0  1  0  0  0  0  0  0  0  0  0
   -1.3515   -0.0929    0.9014 H   0  0  0  0  0  0  0  0  0  0  0  0
   -0.0816   -1.4690   -0.1431 C   0  0  0  0  0  0  0  0  0  0  0  0
    0.7849   -0.8079   -0.0855 H   0  0  0  0  0  0  0  0  0  0  0  0
   -0.0465   -2.1354    0.7204 H   0  0  0  0  0  0  0  0  0  0  0  0
    0.0479   -2.2955   -1.3865 C   0  0  0  0  0  0  0  0  0  0  0  0
    0.5999   -1.8846   -2.5502 C   0  0  0  0  0  0  0  0  0  0  0  0
    1.0004   -0.8924   -2.7268 H   0  0  0  0  0  0  0  0  0  0  0  0
    0.5913   -2.9233   -3.4604 N   0  0  0  0  0  0  0  0  0  0  0  0
    0.9508   -2.8432   -4.4003 H   0  0  0  0  0  0  0  0  0  0  0  0
    0.0448   -4.0676   -2.9195 C   0  0  0  0  0  0  0  0  0  0  0  0
   -0.1564   -5.3622   -3.4194 C   0  0  0  0  0  0  0  0  0  0  0  0
    0.1400   -5.6119   -4.4276 H   0  0  0  0  0  0  0  0  0  0  0  0
   -0.7505   -6.3295   -2.5909 C   0  0  0  0  0  0  0  0  0  0  0  0
   -0.9146   -7.3329   -2.9598 H   0  0  0  0  0  0  0  0  0  0  0  0
   -1.1382   -5.9887   -1.2821 C   0  0  0  0  0  0  0  0  0  0  0  0
   -1.6026   -6.7336   -0.6509 H   0  0  0  0  0  0  0  0  0  0  0  0
   -0.9329   -4.6838   -0.7908 C   0  0  0  0  0  0  0  0  0  0  0  0
   -1.2475   -4.4317    0.2120 H   0  0  0  0  0  0  0  0  0  0  0  0
   -0.3330   -3.6913   -1.5958 C   0  0  0  0  0  0  0  0  0  0  0  0
   -1.4166    0.4398   -1.1650 C   0  0  0  0  0  0  0  0  0  0  0  0
   -2.5019    0.8506   -1.5737 O   0  0  0  0  0  0  0  0  0  0  0  0
   -0.2493    0.8796   -1.6540 N   0  0  0  0  0  0  0  0  0  0  0  0
    0.5958    0.4523   -1.3027 H   0  0  0  0  0  0  0  0  0  0  0  0
   -0.1256    1.8831   -2.7076 C   0  0  0  0  0  0  0  0  0  0  0  0
   -0.7118    2.7660   -2.4458 H   0  0  0  0  0  0  0  0  0  0  0  0
    0.9196    2.1680   -2.8341 H   0  0  0  0  0  0  0  0  0  0  0  0
   -0.5056    1.4765   -3.6464 H   0  0  0  0  0  0  0  0  0  0  0  0
  5  6  2  0  0  0  0
  5  7  1  0  0  0  0
  2  3  1  0  0  0  0
  2  4  1  0  0  0  0
  2  5  1  0  0  0  0
  1  2  1  0  0  0  0
 29 30  2  0  0  0  0
 29 31  1  0  0  0  0
 26 27  1  0  0  0  0
 26 28  2  0  0  0  0
 24 25  1  0  0  0  0
 24 26  1  0  0  0  0
 22 23  1  0  0  0  0
 22 24  2  0  0  0  0
 20 21  1  0  0  0  0
 20 22  1  0  0  0  0
 19 20  2  0  0  0  0
 19 28  1  0  0  0  0
 17 18  1  0  0  0  0
 17 19  1  0  0  0  0
 15 16  1  0  0  0  0
 15 17  1  0  0  0  0
 14 15  2  0  0  0  0
 14 28  1  0  0  0  0
 11 12  1  0  0  0  0
 11 13  1  0  0  0  0
 11 14  1  0  0  0  0
  9 10  1  0  0  0  0
  9 11  1  0  0  0  0
  9 29  1  0  0  0  0
  7  8  1  0  0  0  0
  7  9  1  0  0  0  0
 33 34  1  0  0  0  0
 33 35  1  0  0  0  0
 33 36  1  0  0  0  0
 31 32  1  0  0  0  0
 31 33  1  0  0  0  0
M  END
$$$$
default_name
  -OEChem-12212115393D

 36 37  0     1  0  0  0  0  0999 V2000
   -4.0843   -4.0736    1.2944 H   0  0  0  0  0  0  0  0  0  0  0  0
   -4.0342   -3.2816    0.5484 C   0  0  0  0  0  0  0  0  0  0  0  0
   -4.8842   -2.6126    0.6694 H   0  0  0  0  0  0  0  0  0  0  0  0
   -4.0433   -3.7186   -0.4486 H   0  0  0  0  0  0  0  0  0  0  0  0
   -2.7532   -2.5046    0.7444 C   0  0  0  0  0  0  0  0  0  0  0  0
   -1.9803   -2.8096    1.6434 O   0  0  0  0  0  0  0  0  0  0  0  0
   -2.5332   -1.4966   -0.0966 N   0  0  0  0  0  0  0  0  0  0  0  0
   -3.2312   -1.2816   -0.7936 H   0  0  0  0  0  0  0  0  0  0  0  0
   -1.3593   -0.6196   -0.0536 C   0  0  1  0  0  0  0  0  0  0  0  0
   -1.3515   -0.0929    0.9014 H   0  0  0  0  0  0  0  0  0  0  0  0
   -0.0816   -1.4690   -0.1431 C   0  0  0  0  0  0  0  0  0  0  0  0
    0.7849   -0.8079   -0.0855 H   0  0  0  0  0  0  0  0  0  0  0  0
   -0.0465   -2.1354    0.7204 H   0  0  0  0  0  0  0  0  0  0  0  0
    0.0479   -2.2955   -1.3865 C   0  0  0  0  0  0  0  0  0  0  0  0
    0.5999   -1.8846   -2.5502 C   0  0  0  0  0  0  0  0  0  0  0  0
    1.0004   -0.8924   -2.7268 H   0  0  0  0  0  0  0  0  0  0  0  0
    0.5913   -2.9233   -3.4604 N   0  0  0  0  0  0  0  0  0  0  0  0
    0.9508   -2.8432   -4.4003 H   0  0  0  0  0  0  0  0  0  0  0  0
    0.0448   -4.0676   -2.9195 C   0  0  0  0  0  0  0  0  0  0  0  0
   -0.1564   -5.3622   -3.4194 C   0  0  0  0  0  0  0  0  0  0  0  0
    0.1400   -5.6119   -4.4276 H   0  0  0  0  0  0  0  0  0  0  0  0
   -0.7505   -6.3295   -2.5909 C   0  0  0  0  0  0  0  0  0  0  0  0
   -0.9146   -7.3329   -2.9598 H   0  0  0  0  0  0  0  0  0  0  0  0
   -1.1382   -5.9887   -1.2821 C   0  0  0  0  0  0  0  0  0  0  0  0
   -1.6026   -6.7336   -0.6509 H   0  0  0  0  0  0  0  0  0  0  0  0
   -0.9329   -4.6838   -0.7908 C   0  0  0  0  0  0  0  0  0  0  0  0
   -1.2475   -4.4317    0.2120 H   0  0  0  0  0  0  0  0  0  0  0  0
   -0.3330   -3.6913   -1.5958 C   0  0  0  0  0  0  0  0  0  0  0  0
   -1.4166    0.4398   -1.1650 C   0  0  0  0  0  0  0  0  0  0  0  0
   -2.4617    1.0504   -1.3853 O   0  0  0  0  0  0  0  0  0  0  0  0
   -0.2948    0.6558   -1.8650 N   0  0  0  0  0  0  0  0  0  0  0  0
    0.5050    0.0745   -1.6581 H   0  0  0  0  0  0  0  0  0  0  0  0
   -0.1773    1.6258   -2.9502 C   0  0  0  0  0  0  0  0  0  0  0  0
   -0.5321    2.6012   -2.6121 H   0  0  0  0  0  0  0  0  0  0  0  0
    0.8628    1.7099   -3.2678 H   0  0  0  0  0  0  0  0  0  0  0  0
   -0.7885    1.3048   -3.7954 H   0  0  0  0  0  0  0  0  0  0  0  0
  5  6  2  0  0  0  0
  5  7  1  0  0  0  0
  2  3  1  0  0  0  0
  2  4  1  0  0  0  0
  2  5  1  0  0  0  0
  1  2  1  0  0  0  0
 29 30  2  0  0  0  0
 29 31  1  0  0  0  0
 26 27  1  0  0  0  0
 26 28  2  0  0  0  0
 24 25  1  0  0  0  0
 24 26  1  0  0  0  0
 22 23  1  0  0  0  0
 22 24  2  0  0  0  0
 20 21  1  0  0  0  0
 20 22  1  0  0  0  0
 19 20  2  0  0  0  0
 19 28  1  0  0  0  0
 17 18  1  0  0  0  0
 17 19  1  0  0  0  0
 15 16  1  0  0  0  0
 15 17  1  0  0  0  0
 14 15  2  0  0  0  0
 14 28  1  0  0  0  0
 11 12  1  0  0  0  0
 11 13  1  0  0  0  0
 11 14  1  0  0  0  0
  9 10  1  0  0  0  0
  9 11  1  0  0  0  0
  9 29  1  0  0  0  0
  7  8  1  0  0  0  0
  7  9  1  0  0  0  0
 33 34  1  0  0  0  0
 33 35  1  0  0  0  0
 33 36  1  0  0  0  0
 31 32  1  0  0  0  0
 31 33  1  0  0  0  0
M  END
$$$$
default_name
  -OEChem-12212115393D

 36 37  0     1  0  0  0  0  0999 V2000
   -4.0843   -4.0736    1.2944 H   0  0  0  0  0  0  0  0  0  0  0  0
   -4.0342   -3.2816    0.5484 C   0  0  0  0  0  0  0  0  0  0  0  0
   -4.8842   -2.6126    0.6694 H   0  0  0  0  0  0  0  0  0  0  0  0
   -4.0433   -3.7186   -0.4486 H   0  0  0  0  0  0  0  0  0  0  0  0
   -2.7532   -2.5046    0.7444 C   0  0  0  0  0  0  0  0  0  0  0  0
   -1.9803   -2.8096    1.6434 O   0  0  0  0  0  0  0  0  0  0  0  0
   -2.5332   -1.4966   -0.0966 N   0  0  0  0  0  0  0  0  0  0  0  0
   -3.2312   -1.2816   -0.7936 H   0  0  0  0  0  0  0  0  0  0  0  0
   -1.3593   -0.6196   -0.0536 C   0  0  1  0  0  0  0  0  0  0  0  0
   -1.3515   -0.0929    0.9014 H   0  0  0  0  0  0  0  0  0  0  0  0
   -0.0816   -1.4690   -0.1431 C   0  0  0  0  0  0  0  0  0  0  0  0
    0.7849   -0.8079   -0.0855 H   0  0  0  0  0  0  0  0  0  0  0  0
   -0.0465   -2.1354    0.7204 H   0  0  0  0  0  0  0  0  0  0  0  0
    0.0479   -2.2955   -1.3865 C   0  0  0  0  0  0  0  0  0  0  0  0
    0.5999   -1.8846   -2.5502 C   0  0  0  0  0  0  0  0  0  0  0  0
    1.0004   -0.8924   -2.7268 H   0  0  0  0  0  0  0  0  0  0  0  0
    0.5913   -2.9233   -3.4604 N   0  0  0  0  0  0  0  0  0  0  0  0
    0.9508   -2.8432   -4.4003 H   0  0  0  0  0  0  0  0  0  0  0  0
    0.0448   -4.0676   -2.9195 C   0  0  0  0  0  0  0  0  0  0  0  0
   -0.1564   -5.3622   -3.4194 C   0  0  0  0  0  0  0  0  0  0  0  0
    0.1400   -5.6119   -4.4276 H   0  0  0  0  0  0  0  0  0  0  0  0
   -0.7505   -6.3295   -2.5909 C   0  0  0  0  0  0  0  0  0  0  0  0
   -0.9146   -7.3329   -2.9598 H   0  0  0  0  0  0  0  0  0  0  0  0
   -1.1382   -5.9887   -1.2821 C   0  0  0  0  0  0  0  0  0  0  0  0
   -1.6026   -6.7336   -0.6509 H   0  0  0  0  0  0  0  0  0  0  0  0
   -0.9329   -4.6838   -0.7908 C   0  0  0  0  0  0  0  0  0  0  0  0
   -1.2475   -4.4317    0.2120 H   0  0  0  0  0  0  0  0  0  0  0  0
   -0.3330   -3.6913   -1.5958 C   0  0  0  0  0  0  0  0  0  0  0  0
   -1.4166    0.4398   -1.1650 C   0  0  0  0  0  0  0  0  0  0  0  0
   -2.3519    1.2377   -1.2125 O   0  0  0  0  0  0  0  0  0  0  0  0
   -0.4183    0.4460   -2.0586 N   0  0  0  0  0  0  0  0  0  0  0  0
    0.2831   -0.2768   -1.9814 H   0  0  0  0  0  0  0  0  0  0  0  0
   -0.3187    1.3846   -3.1729 C   0  0  0  0  0  0  0  0  0  0  0  0
   -0.4190    2.4068   -2.8032 H   0  0  0  0  0  0  0  0  0  0  0  0
    0.6447    1.2739   -3.6722 H   0  0  0  0  0  0  0  0  0  0  0  0
   -1.1205    1.1905   -3.8872 H   0  0  0  0  0  0  0  0  0  0  0  0
  5  6  2  0  0  0  0
  5  7  1  0  0  0  0
  2  3  1  0  0  0  0
  2  4  1  0  0  0  0
  2  5  1  0  0  0  0
  1  2  1  0  0  0  0
 29 30  2  0  0  0  0
 29 31  1  0  0  0  0
 26 27  1  0  0  0  0
 26 28  2  0  0  0  0
 24 25  1  0  0  0  0
 24 26  1  0  0  0  0
 22 23  1  0  0  0  0
 22 24  2  0  0  0  0
 20 21  1  0  0  0  0
 20 22  1  0  0  0  0
 19 20  2  0  0  0  0
 19 28  1  0  0  0  0
 17 18  1  0  0  0  0
 17 19  1  0  0  0  0
 15 16  1  0  0  0  0
 15 17  1  0  0  0  0
 14 15  2  0  0  0  0
 14 28  1  0  0  0  0
 11 12  1  0  0  0  0
 11 13  1  0  0  0  0
 11 14  1  0  0  0  0
  9 10  1  0  0  0  0
  9 11  1  0  0  0  0
  9 29  1  0  0  0  0
  7  8  1  0  0  0  0
  7  9  1  0  0  0  0
 33 34  1  0  0  0  0
 33 35  1  0  0  0  0
 33 36  1  0  0  0  0
 31 32  1  0  0  0  0
 31 33  1  0  0  0  0
M  END
$$$$
default_name
  -OEChem-12212115393D

 36 37  0     1  0  0  0  0  0999 V2000
   -4.0843   -4.0736    1.2944 H   0  0  0  0  0  0  0  0  0  0  0  0
   -4.0342   -3.2816    0.5484 C   0  0  0  0  0  0  0  0  0  0  0  0
   -4.8842   -2.6126    0.6694 H   0  0  0  0  0  0  0  0  0  0  0  0
   -4.0433   -3.7186   -0.4486 H   0  0  0  0  0  0  0  0  0  0  0  0
   -2.7532   -2.5046    0.7444 C   0  0  0  0  0  0  0  0  0  0  0  0
   -1.9803   -2.8096    1.6434 O   0  0  0  0  0  0  0  0  0  0  0  0
   -2.5332   -1.4966   -0.0966 N   0  0  0  0  0  0  0  0  0  0  0  0
   -3.2312   -1.2816   -0.7936 H   0  0  0  0  0  0  0  0  0  0  0  0
   -1.3593   -0.6196   -0.0536 C   0  0  1  0  0  0  0  0  0  0  0  0
   -1.3515   -0.0929    0.9014 H   0  0  0  0  0  0  0  0  0  0  0  0
   -0.0816   -1.4690   -0.1431 C   0  0  0  0  0  0  0  0  0  0  0  0
    0.7849   -0.8079   -0.0855 H   0  0  0  0  0  0  0  0  0  0  0  0
   -0.0465   -2.1354    0.7204 H   0  0  0  0  0  0  0  0  0  0  0  0
    0.0479   -2.2955   -1.3865 C   0  0  0  0  0  0  0  0  0  0  0  0
    0.5999   -1.8846   -2.5502 C   0  0  0  0  0  0  0  0  0  0  0  0
    1.0004   -0.8924   -2.7268 H   0  0  0  0  0  0  0  0  0  0  0  0
    0.5913   -2.9233   -3.4604 N   0  0  0  0  0  0  0  0  0  0  0  0
    0.9508   -2.8432   -4.4003 H   0  0  0  0  0  0  0  0  0  0  0  0
    0.0448   -4.0676   -2.9195 C   0  0  0  0  0  0  0  0  0  0  0  0
   -0.1564   -5.3622   -3.4194 C   0  0  0  0  0  0  0  0  0  0  0  0
    0.1400   -5.6119   -4.4276 H   0  0  0  0  0  0  0  0  0  0  0  0
   -0.7505   -6.3295   -2.5909 C   0  0  0  0  0  0  0  0  0  0  0  0
   -0.9146   -7.3329   -2.9598 H   0  0  0  0  0  0  0  0  0  0  0  0
   -1.1382   -5.9887   -1.2821 C   0  0  0  0  0  0  0  0  0  0  0  0
   -1.6026   -6.7336   -0.6509 H   0  0  0  0  0  0  0  0  0  0  0  0
   -0.9329   -4.6838   -0.7908 C   0  0  0  0  0  0  0  0  0  0  0  0
   -1.2475   -4.4317    0.2120 H   0  0  0  0  0  0  0  0  0  0  0  0
   -0.3330   -3.6913   -1.5958 C   0  0  0  0  0  0  0  0  0  0  0  0
   -1.4166    0.4398   -1.1650 C   0  0  0  0  0  0  0  0  0  0  0  0
   -2.1799    1.3997   -1.0669 O   0  0  0  0  0  0  0  0  0  0  0  0
   -0.6113    0.2647   -2.2215 N   0  0  0  0  0  0  0  0  0  0  0  0
   -0.0547   -0.5777   -2.2508 H   0  0  0  0  0  0  0  0  0  0  0  0
   -0.5402    1.1759   -3.3603 C   0  0  0  0  0  0  0  0  0  0  0  0
   -0.3803    2.1960   -3.0061 H   0  0  0  0  0  0  0  0  0  0  0  0
    0.2803    0.8897   -4.0196 H   0  0  0  0  0  0  0  0  0  0  0  0
   -1.4790    1.1413   -3.9156 H   0  0  0  0  0  0  0  0  0  0  0  0
  5  6  2  0  0  0  0
  5  7  1  0  0  0  0
  2  3  1  0  0  0  0
  2  4  1  0  0  0  0
  2  5  1  0  0  0  0
  1  2  1  0  0  0  0
 29 30  2  0  0  0  0
 29 31  1  0  0  0  0
 26 27  1  0  0  0  0
 26 28  2  0  0  0  0
 24 25  1  0  0  0  0
 24 26  1  0  0  0  0
 22 23  1  0  0  0  0
 22 24  2  0  0  0  0
 20 21  1  0  0  0  0
 20 22  1  0  0  0  0
 19 20  2  0  0  0  0
 19 28  1  0  0  0  0
 17 18  1  0  0  0  0
 17 19  1  0  0  0  0
 15 16  1  0  0  0  0
 15 17  1  0  0  0  0
 14 15  2  0  0  0  0
 14 28  1  0  0  0  0
 11 12  1  0  0  0  0
 11 13  1  0  0  0  0
 11 14  1  0  0  0  0
  9 10  1  0  0  0  0
  9 11  1  0  0  0  0
  9 29  1  0  0  0  0
  7  8  1  0  0  0  0
  7  9  1  0  0  0  0
 33 34  1  0  0  0  0
 33 35  1  0  0  0  0
 33 36  1  0  0  0  0
 31 32  1  0  0  0  0
 31 33  1  0  0  0  0
M  END
$$$$
default_name
  -OEChem-12212115393D

 36 37  0     1  0  0  0  0  0999 V2000
   -4.0843   -4.0736    1.2944 H   0  0  0  0  0  0  0  0  0  0  0  0
   -4.0342   -3.2816    0.5484 C   0  0  0  0  0  0  0  0  0  0  0  0
   -4.8842   -2.6126    0.6694 H   0  0  0  0  0  0  0  0  0  0  0  0
   -4.0433   -3.7186   -0.4486 H   0  0  0  0  0  0  0  0  0  0  0  0
   -2.7532   -2.5046    0.7444 C   0  0  0  0  0  0  0  0  0  0  0  0
   -1.9803   -2.8096    1.6434 O   0  0  0  0  0  0  0  0  0  0  0  0
   -2.5332   -1.4966   -0.0966 N   0  0  0  0  0  0  0  0  0  0  0  0
   -3.2312   -1.2816   -0.7936 H   0  0  0  0  0  0  0  0  0  0  0  0
   -1.3593   -0.6196   -0.0536 C   0  0  1  0  0  0  0  0  0  0  0  0
   -1.3515   -0.0929    0.9014 H   0  0  0  0  0  0  0  0  0  0  0  0
   -0.0816   -1.4690   -0.1431 C   0  0  0  0  0  0  0  0  0  0  0  0
    0.7849   -0.8079   -0.0855 H   0  0  0  0  0  0  0  0  0  0  0  0
   -0.0465   -2.1354    0.7204 H   0  0  0  0  0  0  0  0  0  0  0  0
    0.0479   -2.2955   -1.3865 C   0  0  0  0  0  0  0  0  0  0  0  0
    0.5999   -1.8846   -2.5502 C   0  0  0  0  0  0  0  0  0  0  0  0
    1.0004   -0.8924   -2.7268 H   0  0  0  0  0  0  0  0  0  0  0  0
    0.5913   -2.9233   -3.4604 N   0  0  0  0  0  0  0  0  0  0  0  0
    0.9508   -2.8432   -4.4003 H   0  0  0  0  0  0  0  0  0  0  0  0
    0.0448   -4.0676   -2.9195 C   0  0  0  0  0  0  0  0  0  0  0  0
   -0.1564   -5.3622   -3.4194 C   0  0  0  0  0  0  0  0  0  0  0  0
    0.1400   -5.6119   -4.4276 H   0  0  0  0  0  0  0  0  0  0  0  0
   -0.7505   -6.3295   -2.5909 C   0  0  0  0  0  0  0  0  0  0  0  0
   -0.9146   -7.3329   -2.9598 H   0  0  0  0  0  0  0  0  0  0  0  0
   -1.1382   -5.9887   -1.2821 C   0  0  0  0  0  0  0  0  0  0  0  0
   -1.6026   -6.7336   -0.6509 H   0  0  0  0  0  0  0  0  0  0  0  0
   -0.9329   -4.6838   -0.7908 C   0  0  0  0  0  0  0  0  0  0  0  0
   -1.2475   -4.4317    0.2120 H   0  0  0  0  0  0  0  0  0  0  0  0
   -0.3330   -3.6913   -1.5958 C   0  0  0  0  0  0  0  0  0  0  0  0
   -1.4166    0.4398   -1.1650 C   0  0  0  0  0  0  0  0  0  0  0  0
   -1.9575    1.5254   -0.9586 O   0  0  0  0  0  0  0  0  0  0  0  0
   -0.8609    0.1241   -2.3426 N   0  0  0  0  0  0  0  0  0  0  0  0
   -0.4854   -0.8077   -2.4479 H   0  0  0  0  0  0  0  0  0  0  0  0
   -0.8266    1.0140   -3.4999 C   0  0  0  0  0  0  0  0  0  0  0  0
   -0.4185    1.9832   -3.2070 H   0  0  0  0  0  0  0  0  0  0  0  0
   -0.2057    0.5834   -4.2865 H   0  0  0  0  0  0  0  0  0  0  0  0
   -1.8395    1.1607   -3.8785 H   0  0  0  0  0  0  0  0  0  0  0  0
  5  6  2  0  0  0  0
  5  7  1  0  0  0  0
  2  3  1  0  0  0  0
  2  4  1  0  0  0  0
  2  5  1  0  0  0  0
  1  2  1  0  0  0  0
 29 30  2  0  0  0  0
 29 31  1  0  0  0  0
 26 27  1  0  0  0  0
 26 28  2  0  0  0  0
 24 25  1  0  0  0  0
 24 26  1  0  0  0  0
 22 23  1  0  0  0  0
 22 24  2  0  0  0  0
 20 21  1  0  0  0  0
 20 22  1  0  0  0  0
 19 20  2  0  0  0  0
 19 28  1  0  0  0  0
 17 18  1  0  0  0  0
 17 19  1  0  0  0  0
 15 16  1  0  0  0  0
 15 17  1  0  0  0  0
 14 15  2  0  0  0  0
 14 28  1  0  0  0  0
 11 12  1  0  0  0  0
 11 13  1  0  0  0  0
 11 14  1  0  0  0  0
  9 10  1  0  0  0  0
  9 11  1  0  0  0  0
  9 29  1  0  0  0  0
  7  8  1  0  0  0  0
  7  9  1  0  0  0  0
 33 34  1  0  0  0  0
 33 35  1  0  0  0  0
 33 36  1  0  0  0  0
 31 32  1  0  0  0  0
 31 33  1  0  0  0  0
M  END
$$$$
default_name
  -OEChem-12212115393D

 36 37  0     1  0  0  0  0  0999 V2000
   -4.0843   -4.0736    1.2944 H   0  0  0  0  0  0  0  0  0  0  0  0
   -4.0342   -3.2816    0.5484 C   0  0  0  0  0  0  0  0  0  0  0  0
   -4.8842   -2.6126    0.6694 H   0  0  0  0  0  0  0  0  0  0  0  0
   -4.0433   -3.7186   -0.4486 H   0  0  0  0  0  0  0  0  0  0  0  0
   -2.7532   -2.5046    0.7444 C   0  0  0  0  0  0  0  0  0  0  0  0
   -1.9803   -2.8096    1.6434 O   0  0  0  0  0  0  0  0  0  0  0  0
   -2.5332   -1.4966   -0.0966 N   0  0  0  0  0  0  0  0  0  0  0  0
   -3.2312   -1.2816   -0.7936 H   0  0  0  0  0  0  0  0  0  0  0  0
   -1.3593   -0.6196   -0.0536 C   0  0  1  0  0  0  0  0  0  0  0  0
   -1.3515   -0.0929    0.9014 H   0  0  0  0  0  0  0  0  0  0  0  0
   -0.0816   -1.4690   -0.1431 C   0  0  0  0  0  0  0  0  0  0  0  0
    0.7849   -0.8079   -0.0855 H   0  0  0  0  0  0  0  0  0  0  0  0
   -0.0465   -2.1354    0.7204 H   0  0  0  0  0  0  0  0  0  0  0  0
    0.0479   -2.2955   -1.3865 C   0  0  0  0  0  0  0  0  0  0  0  0
    0.5999   -1.8846   -2.5502 C   0  0  0  0  0  0  0  0  0  0  0  0
    1.0004   -0.8924   -2.7268 H   0  0  0  0  0  0  0  0  0  0  0  0
    0.5913   -2.9233   -3.4604 N   0  0  0  0  0  0  0  0  0  0  0  0
    0.9508   -2.8432   -4.4003 H   0  0  0  0  0  0  0  0  0  0  0  0
    0.0448   -4.0676   -2.9195 C   0  0  0  0  0  0  0  0  0  0  0  0
   -0.1564   -5.3622   -3.4194 C   0  0  0  0  0  0  0  0  0  0  0  0
    0.1400   -5.6119   -4.4276 H   0  0  0  0  0  0  0  0  0  0  0  0
   -0.7505   -6.3295   -2.5909 C   0  0  0  0  0  0  0  0  0  0  0  0
   -0.9146   -7.3329   -2.9598 H   0  0  0  0  0  0  0  0  0  0  0  0
   -1.1382   -5.9887   -1.2821 C   0  0  0  0  0  0  0  0  0  0  0  0
   -1.6026   -6.7336   -0.6509 H   0  0  0  0  0  0  0  0  0  0  0  0
   -0.9329   -4.6838   -0.7908 C   0  0  0  0  0  0  0  0  0  0  0  0
   -1.2475   -4.4317    0.2120 H   0  0  0  0  0  0  0  0  0  0  0  0
   -0.3330   -3.6913   -1.5958 C   0  0  0  0  0  0  0  0  0  0  0  0
   -1.4166    0.4398   -1.1650 C   0  0  0  0  0  0  0  0  0  0  0  0
   -1.6998    1.6062   -0.8948 O   0  0  0  0  0  0  0  0  0  0  0  0
   -1.1498    0.0339   -2.4137 N   0  0  0  0  0  0  0  0  0  0  0  0
   -0.9796   -0.9511   -2.5591 H   0  0  0  0  0  0  0  0  0  0  0  0
   -1.1585    0.9099   -3.5820 C   0  0  0  0  0  0  0  0  0  0  0  0
   -0.5312    1.7829   -3.3922 H   0  0  0  0  0  0  0  0  0  0  0  0
   -0.7800    0.3760   -4.4546 H   0  0  0  0  0  0  0  0  0  0  0  0
   -2.1775    1.2473   -3.7786 H   0  0  0  0  0  0  0  0  0  0  0  0
  5  6  2  0  0  0  0
  5  7  1  0  0  0  0
  2  3  1  0  0  0  0
  2  4  1  0  0  0  0
  2  5  1  0  0  0  0
  1  2  1  0  0  0  0
 29 30  2  0  0  0  0
 29 31  1  0  0  0  0
 26 27  1  0  0  0  0
 26 28  2  0  0  0  0
 24 25  1  0  0  0  0
 24 26  1  0  0  0  0
 22 23  1  0  0  0  0
 22 24  2  0  0  0  0
 20 21  1  0  0  0  0
 20 22  1  0  0  0  0
 19 20  2  0  0  0  0
 19 28  1  0  0  0  0
 17 18  1  0  0  0  0
 17 19  1  0  0  0  0
 15 16  1  0  0  0  0
 15 17  1  0  0  0  0
 14 15  2  0  0  0  0
 14 28  1  0  0  0  0
 11 12  1  0  0  0  0
 11 13  1  0  0  0  0
 11 14  1  0  0  0  0
  9 10  1  0  0  0  0
  9 11  1  0  0  0  0
  9 29  1  0  0  0  0
  7  8  1  0  0  0  0
  7  9  1  0  0  0  0
 33 34  1  0  0  0  0
 33 35  1  0  0  0  0
 33 36  1  0  0  0  0
 31 32  1  0  0  0  0
 31 33  1  0  0  0  0
M  END
$$$$
default_name
  -OEChem-12212115393D

 36 37  0     1  0  0  0  0  0999 V2000
   -4.0843   -4.0736    1.2944 H   0  0  0  0  0  0  0  0  0  0  0  0
   -4.0342   -3.2816    0.5484 C   0  0  0  0  0  0  0  0  0  0  0  0
   -4.8842   -2.6126    0.6694 H   0  0  0  0  0  0  0  0  0  0  0  0
   -4.0433   -3.7186   -0.4486 H   0  0  0  0  0  0  0  0  0  0  0  0
   -2.7532   -2.5046    0.7444 C   0  0  0  0  0  0  0  0  0  0  0  0
   -1.9803   -2.8096    1.6434 O   0  0  0  0  0  0  0  0  0  0  0  0
   -2.5332   -1.4966   -0.0966 N   0  0  0  0  0  0  0  0  0  0  0  0
   -3.2312   -1.2816   -0.7936 H   0  0  0  0  0  0  0  0  0  0  0  0
   -1.3593   -0.6196   -0.0536 C   0  0  1  0  0  0  0  0  0  0  0  0
   -1.3515   -0.0929    0.9014 H   0  0  0  0  0  0  0  0  0  0  0  0
   -0.0816   -1.4690   -0.1431 C   0  0  0  0  0  0  0  0  0  0  0  0
    0.7849   -0.8079   -0.0855 H   0  0  0  0  0  0  0  0  0  0  0  0
   -0.0465   -2.1354    0.7204 H   0  0  0  0  0  0  0  0  0  0  0  0
    0.0479   -2.2955   -1.3865 C   0  0  0  0  0  0  0  0  0  0  0  0
    0.5999   -1.8846   -2.5502 C   0  0  0  0  0  0  0  0  0  0  0  0
    1.0004   -0.8924   -2.7268 H   0  0  0  0  0  0  0  0  0  0  0  0
    0.5913   -2.9233   -3.4604 N   0  0  0  0  0  0  0  0  0  0  0  0
    0.9508   -2.8432   -4.4003 H   0  0  0  0  0  0  0  0  0  0  0  0
    0.0448   -4.0676   -2.9195 C   0  0  0  0  0  0  0  0  0  0  0  0
   -0.1564   -5.3622   -3.4194 C   0  0  0  0  0  0  0  0  0  0  0  0
    0.1400   -5.6119   -4.4276 H   0  0  0  0  0  0  0  0  0  0  0  0
   -0.7505   -6.3295   -2.5909 C   0  0  0  0  0  0  0  0  0  0  0  0
   -0.9146   -7.3329   -2.9598 H   0  0  0  0  0  0  0  0  0  0  0  0
   -1.1382   -5.9887   -1.2821 C   0  0  0  0  0  0  0  0  0  0  0  0
   -1.6026   -6.7336   -0.6509 H   0  0  0  0  0  0  0  0  0  0  0  0
   -0.9329   -4.6838   -0.7908 C   0  0  0  0  0  0  0  0  0  0  0  0
   -1.2475   -4.4317    0.2120 H   0  0  0  0  0  0  0  0  0  0  0  0
   -0.3330   -3.6913   -1.5958 C   0  0  0  0  0  0  0  0  0  0  0  0
   -1.4166    0.4398   -1.1650 C   0  0  0  0  0  0  0  0  0  0  0  0
   -1.4243    1.6366   -0.8801 O   0  0  0  0  0  0  0  0  0  0  0  0
   -1.4585    0.0001   -2.4300 N   0  0  0  0  0  0  0  0  0  0  0  0
   -1.5037   -0.9982   -2.5770 H   0  0  0  0  0  0  0  0  0  0  0  0
   -1.5132    0.8707   -3.6011 C   0  0  0  0  0  0  0  0  0  0  0  0
   -0.7105    1.6087   -3.5490 H   0  0  0  0  0  0  0  0  0  0  0  0
   -1.4036    0.2815   -4.5125 H   0  0  0  0  0  0  0  0  0  0  0  0
   -2.4700    1.3951   -3.6225 H   0  0  0  0  0  0  0  0  0  0  0  0
  5  6  2  0  0  0  0
  5  7  1  0  0  0  0
  2  3  1  0  0  0  0
  2  4  1  0  0  0  0
  2  5  1  0  0  0  0
  1  2  1  0  0  0  0
 29 30  2  0  0  0  0
 29 31  1  0  0  0  0
 26 27  1  0  0  0  0
 26 28  2  0  0  0  0
 24 25  1  0  0  0  0
 24 26  1  0  0  0  0
 22 23  1  0  0  0  0
 22 24  2  0  0  0  0
 20 21  1  0  0  0  0
 20 22  1  0  0  0  0
 19 20  2  0  0  0  0
 19 28  1  0  0  0  0
 17 18  1  0  0  0  0
 17 19  1  0  0  0  0
 15 16  1  0  0  0  0
 15 17  1  0  0  0  0
 14 15  2  0  0  0  0
 14 28  1  0  0  0  0
 11 12  1  0  0  0  0
 11 13  1  0  0  0  0
 11 14  1  0  0  0  0
  9 10  1  0  0  0  0
  9 11  1  0  0  0  0
  9 29  1  0  0  0  0
  7  8  1  0  0  0  0
  7  9  1  0  0  0  0
 33 34  1  0  0  0  0
 33 35  1  0  0  0  0
 33 36  1  0  0  0  0
 31 32  1  0  0  0  0
 31 33  1  0  0  0  0
M  END
$$$$
default_name
  -OEChem-12212115393D

 36 37  0     1  0  0  0  0  0999 V2000
   -4.0843   -4.0736    1.2944 H   0  0  0  0  0  0  0  0  0  0  0  0
   -4.0342   -3.2816    0.5484 C   0  0  0  0  0  0  0  0  0  0  0  0
   -4.8842   -2.6126    0.6694 H   0  0  0  0  0  0  0  0  0  0  0  0
   -4.0433   -3.7186   -0.4486 H   0  0  0  0  0  0  0  0  0  0  0  0
   -2.7532   -2.5046    0.7444 C   0  0  0  0  0  0  0  0  0  0  0  0
   -1.9803   -2.8096    1.6434 O   0  0  0  0  0  0  0  0  0  0  0  0
   -2.5332   -1.4966   -0.0966 N   0  0  0  0  0  0  0  0  0  0  0  0
   -3.2312   -1.2816   -0.7936 H   0  0  0  0  0  0  0  0  0  0  0  0
   -1.3593   -0.6196   -0.0536 C   0  0  1  0  0  0  0  0  0  0  0  0
   -1.3515   -0.0929    0.9014 H   0  0  0  0  0  0  0  0  0  0  0  0
   -0.0816   -1.4690   -0.1431 C   0  0  0  0  0  0  0  0  0  0  0  0
    0.7849   -0.8079   -0.0855 H   0  0  0  0  0  0  0  0  0  0  0  0
   -0.0465   -2.1354    0.7204 H   0  0  0  0  0  0  0  0  0  0  0  0
    0.0479   -2.2955   -1.3865 C   0  0  0  0  0  0  0  0  0  0  0  0
    0.5999   -1.8846   -2.5502 C   0  0  0  0  0  0  0  0  0  0  0  0
    1.0004   -0.8924   -2.7268 H   0  0  0  0  0  0  0  0  0  0  0  0
    0.5913   -2.9233   -3.4604 N   0  0  0  0  0  0  0  0  0  0  0  0
    0.9508   -2.8432   -4.4003 H   0  0  0  0  0  0  0  0  0  0  0  0
    0.0448   -4.0676   -2.9195 C   0  0  0  0  0  0  0  0  0  0  0  0
   -0.1564   -5.3622   -3.4194 C   0  0  0  0  0  0  0  0  0  0  0  0
    0.1400   -5.6119   -4.4276 H   0  0  0  0  0  0  0  0  0  0  0  0
   -0.7505   -6.3295   -2.5909 C   0  0  0  0  0  0  0  0  0  0  0  0
   -0.9146   -7.3329   -2.9598 H   0  0  0  0  0  0  0  0  0  0  0  0
   -1.1382   -5.9887   -1.2821 C   0  0  0  0  0  0  0  0  0  0  0  0
   -1.6026   -6.7336   -0.6509 H   0  0  0  0  0  0  0  0  0  0  0  0
   -0.9329   -4.6838   -0.7908 C   0  0  0  0  0  0  0  0  0  0  0  0
   -1.2475   -4.4317    0.2120 H   0  0  0  0  0  0  0  0  0  0  0  0
   -0.3330   -3.6913   -1.5958 C   0  0  0  0  0  0  0  0  0  0  0  0
   -1.4166    0.4398   -1.1650 C   0  0  0  0  0  0  0  0  0  0  0  0
   -1.1499    1.6146   -0.9152 O   0  0  0  0  0  0  0  0  0  0  0  0
   -1.7659    0.0251   -2.3903 N   0  0  0  0  0  0  0  0  0  0  0  0
   -2.0220   -0.9457   -2.5002 H   0  0  0  0  0  0  0  0  0  0  0  0
   -1.8666    0.8990   -3.5558 C   0  0  0  0  0  0  0  0  0  0  0  0
   -0.9444    1.4725   -3.6668 H   0  0  0  0  0  0  0  0  0  0  0  0
   -2.0340    0.3065   -4.4562 H   0  0  0  0  0  0  0  0  0  0  0  0
   -2.6969    1.5942   -3.4211 H   0  0  0  0  0  0  0  0  0  0  0  0
  5  6  2  0  0  0  0
  5  7  1  0  0  0  0
  2  3  1  0  0  0  0
  2  4  1  0  0  0  0
  2  5  1  0  0  0  0
  1  2  1  0  0  0  0
 29 30  2  0  0  0  0
 29 31  1  0  0  0  0
 26 27  1  0  0  0  0
 26 28  2  0  0  0  0
 24 25  1  0  0  0  0
 24 26  1  0  0  0  0
 22 23  1  0  0  0  0
 22 24  2  0  0  0  0
 20 21  1  0  0  0  0
 20 22  1  0  0  0  0
 19 20  2  0  0  0  0
 19 28  1  0  0  0  0
 17 18  1  0  0  0  0
 17 19  1  0  0  0  0
 15 16  1  0  0  0  0
 15 17  1  0  0  0  0
 14 15  2  0  0  0  0
 14 28  1  0  0  0  0
 11 12  1  0  0  0  0
 11 13  1  0  0  0  0
 11 14  1  0  0  0  0
  9 10  1  0  0  0  0
  9 11  1  0  0  0  0
  9 29  1  0  0  0  0
  7  8  1  0  0  0  0
  7  9  1  0  0  0  0
 33 34  1  0  0  0  0
 33 35  1  0  0  0  0
 33 36  1  0  0  0  0
 31 32  1  0  0  0  0
 31 33  1  0  0  0  0
M  END
$$$$
default_name
  -OEChem-12212115393D

 36 37  0     1  0  0  0  0  0999 V2000
   -4.0843   -4.0736    1.2944 H   0  0  0  0  0  0  0  0  0  0  0  0
   -4.0342   -3.2816    0.5484 C   0  0  0  0  0  0  0  0  0  0  0  0
   -4.8842   -2.6126    0.6694 H   0  0  0  0  0  0  0  0  0  0  0  0
   -4.0433   -3.7186   -0.4486 H   0  0  0  0  0  0  0  0  0  0  0  0
   -2.7532   -2.5046    0.7444 C   0  0  0  0  0  0  0  0  0  0  0  0
   -1.9803   -2.8096    1.6434 O   0  0  0  0  0  0  0  0  0  0  0  0
   -2.5332   -1.4966   -0.0966 N   0  0  0  0  0  0  0  0  0  0  0  0
   -3.2312   -1.2816   -0.7936 H   0  0  0  0  0  0  0  0  0  0  0  0
   -1.3593   -0.6196   -0.0536 C   0  0  1  0  0  0  0  0  0  0  0  0
   -1.3515   -0.0929    0.9014 H   0  0  0  0  0  0  0  0  0  0  0  0
   -0.0816   -1.4690   -0.1431 C   0  0  0  0  0  0  0  0  0  0  0  0
    0.7849   -0.8079   -0.0855 H   0  0  0  0  0  0  0  0  0  0  0  0
   -0.0465   -2.1354    0.7204 H   0  0  0  0  0  0  0  0  0  0  0  0
    0.0479   -2.2955   -1.3865 C   0  0  0  0  0  0  0  0  0  0  0  0
    0.5999   -1.8846   -2.5502 C   0  0  0  0  0  0  0  0  0  0  0  0
    1.0004   -0.8924   -2.7268 H   0  0  0  0  0  0  0  0  0  0  0  0
    0.5913   -2.9233   -3.4604 N   0  0  0  0  0  0  0  0  0  0  0  0
    0.9508   -2.8432   -4.4003 H   0  0  0  0  0  0  0  0  0  0  0  0
    0.0448   -4.0676   -2.9195 C   0  0  0  0  0  0  0  0  0  0  0  0
   -0.1564   -5.3622   -3.4194 C   0  0  0  0  0  0  0  0  0  0  0  0
    0.1400   -5.6119   -4.4276 H   0  0  0  0  0  0  0  0  0  0  0  0
   -0.7505   -6.3295   -2.5909 C   0  0  0  0  0  0  0  0  0  0  0  0
   -0.9146   -7.3329   -2.9598 H   0  0  0  0  0  0  0  0  0  0  0  0
   -1.1382   -5.9887   -1.2821 C   0  0  0  0  0  0  0  0  0  0  0  0
   -1.6026   -6.7336   -0.6509 H   0  0  0  0  0  0  0  0  0  0  0  0
   -0.9329   -4.6838   -0.7908 C   0  0  0  0  0  0  0  0  0  0  0  0
   -1.2475   -4.4317    0.2120 H   0  0  0  0  0  0  0  0  0  0  0  0
   -0.3330   -3.6913   -1.5958 C   0  0  0  0  0  0  0  0  0  0  0  0
   -1.4166    0.4398   -1.1650 C   0  0  0  0  0  0  0  0  0  0  0  0
   -0.8953    1.5416   -0.9979 O   0  0  0  0  0  0  0  0  0  0  0  0
   -2.0511    0.1072   -2.2973 N   0  0  0  0  0  0  0  0  0  0  0  0
   -2.4990   -0.7973   -2.3341 H   0  0  0  0  0  0  0  0  0  0  0  0
   -2.1946    0.9930   -3.4493 C   0  0  0  0  0  0  0  0  0  0  0  0
   -1.2167    1.3835   -3.7375 H   0  0  0  0  0  0  0  0  0  0  0  0
   -2.6282    0.4491   -4.2895 H   0  0  0  0  0  0  0  0  0  0  0  0
   -2.8429    1.8309   -3.1879 H   0  0  0  0  0  0  0  0  0  0  0  0
  5  6  2  0  0  0  0
  5  7  1  0  0  0  0
  2  3  1  0  0  0  0
  2  4  1  0  0  0  0
  2  5  1  0  0  0  0
  1  2  1  0  0  0  0
 29 30  2  0  0  0  0
 29 31  1  0  0  0  0
 26 27  1  0  0  0  0
 26 28  2  0  0  0  0
 24 25  1  0  0  0  0
 24 26  1  0  0  0  0
 22 23  1  0  0  0  0
 22 24  2  0  0  0  0
 20 21  1  0  0  0  0
 20 22  1  0  0  0  0
 19 20  2  0  0  0  0
 19 28  1  0  0  0  0
 17 18  1  0  0  0  0
 17 19  1  0  0  0  0
 15 16  1  0  0  0  0
 15 17  1  0  0  0  0
 14 15  2  0  0  0  0
 14 28  1  0  0  0  0
 11 12  1  0  0  0  0
 11 13  1  0  0  0  0
 11 14  1  0  0  0  0
  9 10  1  0  0  0  0
  9 11  1  0  0  0  0
  9 29  1  0  0  0  0
  7  8  1  0  0  0  0
  7  9  1  0  0  0  0
 33 34  1  0  0  0  0
 33 35  1  0  0  0  0
 33 36  1  0  0  0  0
 31 32  1  0  0  0  0
 31 33  1  0  0  0  0
M  END
$$$$
default_name
  -OEChem-12212115393D

 36 37  0     1  0  0  0  0  0999 V2000
   -4.0843   -4.0736    1.2944 H   0  0  0  0  0  0  0  0  0  0  0  0
   -4.0342   -3.2816    0.5484 C   0  0  0  0  0  0  0  0  0  0  0  0
   -4.8842   -2.6126    0.6694 H   0  0  0  0  0  0  0  0  0  0  0  0
   -4.0433   -3.7186   -0.4486 H   0  0  0  0  0  0  0  0  0  0  0  0
   -2.7532   -2.5046    0.7444 C   0  0  0  0  0  0  0  0  0  0  0  0
   -1.9803   -2.8096    1.6434 O   0  0  0  0  0  0  0  0  0  0  0  0
   -2.5332   -1.4966   -0.0966 N   0  0  0  0  0  0  0  0  0  0  0  0
   -3.2312   -1.2816   -0.7936 H   0  0  0  0  0  0  0  0  0  0  0  0
   -1.3593   -0.6196   -0.0536 C   0  0  1  0  0  0  0  0  0  0  0  0
   -1.3515   -0.0929    0.9014 H   0  0  0  0  0  0  0  0  0  0  0  0
   -0.0816   -1.4690   -0.1431 C   0  0  0  0  0  0  0  0  0  0  0  0
    0.7849   -0.8079   -0.0855 H   0  0  0  0  0  0  0  0  0  0  0  0
   -0.0465   -2.1354    0.7204 H   0  0  0  0  0  0  0  0  0  0  0  0
    0.0479   -2.2955   -1.3865 C   0  0  0  0  0  0  0  0  0  0  0  0
    0.5999   -1.8846   -2.5502 C   0  0  0  0  0  0  0  0  0  0  0  0
    1.0004   -0.8924   -2.7268 H   0  0  0  0  0  0  0  0  0  0  0  0
    0.5913   -2.9233   -3.4604 N   0  0  0  0  0  0  0  0  0  0  0  0
    0.9508   -2.8432   -4.4003 H   0  0  0  0  0  0  0  0  0  0  0  0
    0.0448   -4.0676   -2.9195 C   0  0  0  0  0  0  0  0  0  0  0  0
   -0.1564   -5.3622   -3.4194 C   0  0  0  0  0  0  0  0  0  0  0  0
    0.1400   -5.6119   -4.4276 H   0  0  0  0  0  0  0  0  0  0  0  0
   -0.7505   -6.3295   -2.5909 C   0  0  0  0  0  0  0  0  0  0  0  0
   -0.9146   -7.3329   -2.9598 H   0  0  0  0  0  0  0  0  0  0  0  0
   -1.1382   -5.9887   -1.2821 C   0  0  0  0  0  0  0  0  0  0  0  0
   -1.6026   -6.7336   -0.6509 H   0  0  0  0  0  0  0  0  0  0  0  0
   -0.9329   -4.6838   -0.7908 C   0  0  0  0  0  0  0  0  0  0  0  0
   -1.2475   -4.4317    0.2120 H   0  0  0  0  0  0  0  0  0  0  0  0
   -0.3330   -3.6913   -1.5958 C   0  0  0  0  0  0  0  0  0  0  0  0
   -1.4166    0.4398   -1.1650 C   0  0  0  0  0  0  0  0  0  0  0  0
   -0.6777    1.4226   -1.1226 O   0  0  0  0  0  0  0  0  0  0  0  0
   -2.2945    0.2408   -2.1574 N   0  0  0  0  0  0  0  0  0  0  0  0
   -2.9024   -0.5630   -2.0900 H   0  0  0  0  0  0  0  0  0  0  0  0
   -2.4748    1.1462   -3.2888 C   0  0  0  0  0  0  0  0  0  0  0  0
   -1.5091    1.3480   -3.7563 H   0  0  0  0  0  0  0  0  0  0  0  0
   -3.1457    0.6998   -4.0239 H   0  0  0  0  0  0  0  0  0  0  0  0
   -2.8980    2.0892   -2.9389 H   0  0  0  0  0  0  0  0  0  0  0  0
  5  6  2  0  0  0  0
  5  7  1  0  0  0  0
  2  3  1  0  0  0  0
  2  4  1  0  0  0  0
  2  5  1  0  0  0  0
  1  2  1  0  0  0  0
 29 30  2  0  0  0  0
 29 31  1  0  0  0  0
 26 27  1  0  0  0  0
 26 28  2  0  0  0  0
 24 25  1  0  0  0  0
 24 26  1  0  0  0  0
 22 23  1  0  0  0  0
 22 24  2  0  0  0  0
 20 21  1  0  0  0  0
 20 22  1  0  0  0  0
 19 20  2  0  0  0  0
 19 28  1  0  0  0  0
 17 18  1  0  0  0  0
 17 19  1  0  0  0  0
 15 16  1  0  0  0  0
 15 17  1  0  0  0  0
 14 15  2  0  0  0  0
 14 28  1  0  0  0  0
 11 12  1  0  0  0  0
 11 13  1  0  0  0  0
 11 14  1  0  0  0  0
  9 10  1  0  0  0  0
  9 11  1  0  0  0  0
  9 29  1  0  0  0  0
  7  8  1  0  0  0  0
  7  9  1  0  0  0  0
 33 34  1  0  0  0  0
 33 35  1  0  0  0  0
 33 36  1  0  0  0  0
 31 32  1  0  0  0  0
 31 33  1  0  0  0  0
M  END
$$$$
default_name
  -OEChem-12212115393D

 36 37  0     1  0  0  0  0  0999 V2000
   -4.0843   -4.0736    1.2944 H   0  0  0  0  0  0  0  0  0  0  0  0
   -4.0342   -3.2816    0.5484 C   0  0  0  0  0  0  0  0  0  0  0  0
   -4.8842   -2.6126    0.6694 H   0  0  0  0  0  0  0  0  0  0  0  0
   -4.0433   -3.7186   -0.4486 H   0  0  0  0  0  0  0  0  0  0  0  0
   -2.7532   -2.5046    0.7444 C   0  0  0  0  0  0  0  0  0  0  0  0
   -1.9803   -2.8096    1.6434 O   0  0  0  0  0  0  0  0  0  0  0  0
   -2.5332   -1.4966   -0.0966 N   0  0  0  0  0  0  0  0  0  0  0  0
   -3.2312   -1.2816   -0.7936 H   0  0  0  0  0  0  0  0  0  0  0  0
   -1.3593   -0.6196   -0.0536 C   0  0  1  0  0  0  0  0  0  0  0  0
   -1.3515   -0.0929    0.9014 H   0  0  0  0  0  0  0  0  0  0  0  0
   -0.0816   -1.4690   -0.1431 C   0  0  0  0  0  0  0  0  0  0  0  0
    0.7849   -0.8079   -0.0855 H   0  0  0  0  0  0  0  0  0  0  0  0
   -0.0465   -2.1354    0.7204 H   0  0  0  0  0  0  0  0  0  0  0  0
    0.0479   -2.2955   -1.3865 C   0  0  0  0  0  0  0  0  0  0  0  0
    0.5999   -1.8846   -2.5502 C   0  0  0  0  0  0  0  0  0  0  0  0
    1.0004   -0.8924   -2.7268 H   0  0  0  0  0  0  0  0  0  0  0  0
    0.5913   -2.9233   -3.4604 N   0  0  0  0  0  0  0  0  0  0  0  0
    0.9508   -2.8432   -4.4003 H   0  0  0  0  0  0  0  0  0  0  0  0
    0.0448   -4.0676   -2.9195 C   0  0  0  0  0  0  0  0  0  0  0  0
   -0.1564   -5.3622   -3.4194 C   0  0  0  0  0  0  0  0  0  0  0  0
    0.1400   -5.6119   -4.4276 H   0  0  0  0  0  0  0  0  0  0  0  0
   -0.7505   -6.3295   -2.5909 C   0  0  0  0  0  0  0  0  0  0  0  0
   -0.9146   -7.3329   -2.9598 H   0  0  0  0  0  0  0  0  0  0  0  0
   -1.1382   -5.9887   -1.2821 C   0  0  0  0  0  0  0  0  0  0  0  0
   -1.6026   -6.7336   -0.6509 H   0  0  0  0  0  0  0  0  0  0  0  0
   -0.9329   -4.6838   -0.7908 C   0  0  0  0  0  0  0  0  0  0  0  0
   -1.2475   -4.4317    0.2120 H   0  0  0  0  0  0  0  0  0  0  0  0
   -0.3330   -3.6913   -1.5958 C   0  0  0  0  0  0  0  0  0  0  0  0
   -1.4166    0.4398   -1.1650 C   0  0  0  0  0  0  0  0  0  0  0  0
   -0.5121    1.2658   -1.2806 O   0  0  0  0  0  0  0  0  0  0  0  0
   -2.4797    0.4168   -1.9801 N   0  0  0  0  0  0  0  0  0  0  0  0
   -3.2046   -0.2589   -1.7844 H   0  0  0  0  0  0  0  0  0  0  0  0
   -2.6881    1.3482   -3.0853 C   0  0  0  0  0  0  0  0  0  0  0  0
   -1.8016    1.3681   -3.7220 H   0  0  0  0  0  0  0  0  0  0  0  0
   -3.5512    1.0413   -3.6774 H   0  0  0  0  0  0  0  0  0  0  0  0
   -2.8585    2.3513   -2.6910 H   0  0  0  0  0  0  0  0  0  0  0  0
  5  6  2  0  0  0  0
  5  7  1  0  0  0  0
  2  3  1  0  0  0  0
  2  4  1  0  0  0  0
  2  5  1  0  0  0  0
  1  2  1  0  0  0  0
 29 30  2  0  0  0  0
 29 31  1  0  0  0  0
 26 27  1  0  0  0  0
 26 28  2  0  0  0  0
 24 25  1  0  0  0  0
 24 26  1  0  0  0  0
 22 23  1  0  0  0  0
 22 24  2  0  0  0  0
 20 21  1  0  0  0  0
 20 22  1  0  0  0  0
 19 20  2  0  0  0  0
 19 28  1  0  0  0  0
 17 18  1  0  0  0  0
 17 19  1  0  0  0  0
 15 16  1  0  0  0  0
 15 17  1  0  0  0  0
 14 15  2  0  0  0  0
 14 28  1  0  0  0  0
 11 12  1  0  0  0  0
 11 13  1  0  0  0  0
 11 14  1  0  0  0  0
  9 10  1  0  0  0  0
  9 11  1  0  0  0  0
  9 29  1  0  0  0  0
  7  8  1  0  0  0  0
  7  9  1  0  0  0  0
 33 34  1  0  0  0  0
 33 35  1  0  0  0  0
 33 36  1  0  0  0  0
 31 32  1  0  0  0  0
 31 33  1  0  0  0  0
M  END
$$$$
default_name
  -OEChem-12212115393D

 36 37  0     1  0  0  0  0  0999 V2000
   -4.0843   -4.0736    1.2944 H   0  0  0  0  0  0  0  0  0  0  0  0
   -4.0342   -3.2816    0.5484 C   0  0  0  0  0  0  0  0  0  0  0  0
   -4.8842   -2.6126    0.6694 H   0  0  0  0  0  0  0  0  0  0  0  0
   -4.0433   -3.7186   -0.4486 H   0  0  0  0  0  0  0  0  0  0  0  0
   -2.7532   -2.5046    0.7444 C   0  0  0  0  0  0  0  0  0  0  0  0
   -1.9803   -2.8096    1.6434 O   0  0  0  0  0  0  0  0  0  0  0  0
   -2.5332   -1.4966   -0.0966 N   0  0  0  0  0  0  0  0  0  0  0  0
   -3.2312   -1.2816   -0.7936 H   0  0  0  0  0  0  0  0  0  0  0  0
   -1.3593   -0.6196   -0.0536 C   0  0  1  0  0  0  0  0  0  0  0  0
   -1.3515   -0.0929    0.9014 H   0  0  0  0  0  0  0  0  0  0  0  0
   -0.0816   -1.4690   -0.1431 C   0  0  0  0  0  0  0  0  0  0  0  0
    0.7849   -0.8079   -0.0855 H   0  0  0  0  0  0  0  0  0  0  0  0
   -0.0465   -2.1354    0.7204 H   0  0  0  0  0  0  0  0  0  0  0  0
    0.0479   -2.2955   -1.3865 C   0  0  0  0  0  0  0  0  0  0  0  0
    0.5999   -1.8846   -2.5502 C   0  0  0  0  0  0  0  0  0  0  0  0
    1.0004   -0.8924   -2.7268 H   0  0  0  0  0  0  0  0  0  0  0  0
    0.5913   -2.9233   -3.4604 N   0  0  0  0  0  0  0  0  0  0  0  0
    0.9508   -2.8432   -4.4003 H   0  0  0  0  0  0  0  0  0  0  0  0
    0.0448   -4.0676   -2.9195 C   0  0  0  0  0  0  0  0  0  0  0  0
   -0.1564   -5.3622   -3.4194 C   0  0  0  0  0  0  0  0  0  0  0  0
    0.1400   -5.6119   -4.4276 H   0  0  0  0  0  0  0  0  0  0  0  0
   -0.7505   -6.3295   -2.5909 C   0  0  0  0  0  0  0  0  0  0  0  0
   -0.9146   -7.3329   -2.9598 H   0  0  0  0  0  0  0  0  0  0  0  0
   -1.1382   -5.9887   -1.2821 C   0  0  0  0  0  0  0  0  0  0  0  0
   -1.6026   -6.7336   -0.6509 H   0  0  0  0  0  0  0  0  0  0  0  0
   -0.9329   -4.6838   -0.7908 C   0  0  0  0  0  0  0  0  0  0  0  0
   -1.2475   -4.4317    0.2120 H   0  0  0  0  0  0  0  0  0  0  0  0
   -0.3330   -3.6913   -1.5958 C   0  0  0  0  0  0  0  0  0  0  0  0
   -1.4166    0.4398   -1.1650 C   0  0  0  0  0  0  0  0  0  0  0  0
   -0.4097    1.0817   -1.4613 O   0  0  0  0  0  0  0  0  0  0  0  0
   -2.5940    0.6231   -1.7775 N   0  0  0  0  0  0  0  0  0  0  0  0
   -3.3851    0.0945   -1.4383 H   0  0  0  0  0  0  0  0  0  0  0  0
   -2.8200    1.5852   -2.8526 C   0  0  0  0  0  0  0  0  0  0  0  0
   -2.0741    1.4427   -3.6369 H   0  0  0  0  0  0  0  0  0  0  0  0
   -3.8171    1.4505   -3.2737 H   0  0  0  0  0  0  0  0  0  0  0  0
   -2.7269    2.5996   -2.4612 H   0  0  0  0  0  0  0  0  0  0  0  0
  5  6  2  0  0  0  0
  5  7  1  0  0  0  0
  2  3  1  0  0  0  0
  2  4  1  0  0  0  0
  2  5  1  0  0  0  0
  1  2  1  0  0  0  0
 29 30  2  0  0  0  0
 29 31  1  0  0  0  0
 26 27  1  0  0  0  0
 26 28  2  0  0  0  0
 24 25  1  0  0  0  0
 24 26  1  0  0  0  0
 22 23  1  0  0  0  0
 22 24  2  0  0  0  0
 20 21  1  0  0  0  0
 20 22  1  0  0  0  0
 19 20  2  0  0  0  0
 19 28  1  0  0  0  0
 17 18  1  0  0  0  0
 17 19  1  0  0  0  0
 15 16  1  0  0  0  0
 15 17  1  0  0  0  0
 14 15  2  0  0  0  0
 14 28  1  0  0  0  0
 11 12  1  0  0  0  0
 11 13  1  0  0  0  0
 11 14  1  0  0  0  0
  9 10  1  0  0  0  0
  9 11  1  0  0  0  0
  9 29  1  0  0  0  0
  7  8  1  0  0  0  0
  7  9  1  0  0  0  0
 33 34  1  0  0  0  0
 33 35  1  0  0  0  0
 33 36  1  0  0  0  0
 31 32  1  0  0  0  0
 31 33  1  0  0  0  0
M  END
$$$$
default_name
  -OEChem-12212115393D

 36 37  0     1  0  0  0  0  0999 V2000
   -4.0843   -4.0736    1.2944 H   0  0  0  0  0  0  0  0  0  0  0  0
   -4.0342   -3.2816    0.5484 C   0  0  0  0  0  0  0  0  0  0  0  0
   -4.8842   -2.6126    0.6694 H   0  0  0  0  0  0  0  0  0  0  0  0
   -4.0433   -3.7186   -0.4486 H   0  0  0  0  0  0  0  0  0  0  0  0
   -2.7532   -2.5046    0.7444 C   0  0  0  0  0  0  0  0  0  0  0  0
   -1.9803   -2.8096    1.6434 O   0  0  0  0  0  0  0  0  0  0  0  0
   -2.5332   -1.4966   -0.0966 N   0  0  0  0  0  0  0  0  0  0  0  0
   -3.2312   -1.2816   -0.7936 H   0  0  0  0  0  0  0  0  0  0  0  0
   -1.3593   -0.6196   -0.0536 C   0  0  1  0  0  0  0  0  0  0  0  0
   -1.3515   -0.0929    0.9014 H   0  0  0  0  0  0  0  0  0  0  0  0
   -0.0816   -1.4690   -0.1431 C   0  0  0  0  0  0  0  0  0  0  0  0
    0.7849   -0.8079   -0.0855 H   0  0  0  0  0  0  0  0  0  0  0  0
   -0.0465   -2.1354    0.7204 H   0  0  0  0  0  0  0  0  0  0  0  0
    0.0479   -2.2955   -1.3865 C   0  0  0  0  0  0  0  0  0  0  0  0
    0.5999   -1.8846   -2.5502 C   0  0  0  0  0  0  0  0  0  0  0  0
    1.0004   -0.8924   -2.7268 H   0  0  0  0  0  0  0  0  0  0  0  0
    0.5913   -2.9233   -3.4604 N   0  0  0  0  0  0  0  0  0  0  0  0
    0.9508   -2.8432   -4.4003 H   0  0  0  0  0  0  0  0  0  0  0  0
    0.0448   -4.0676   -2.9195 C   0  0  0  0  0  0  0  0  0  0  0  0
   -0.1564   -5.3622   -3.4194 C   0  0  0  0  0  0  0  0  0  0  0  0
    0.1400   -5.6119   -4.4276 H   0  0  0  0  0  0  0  0  0  0  0  0
   -0.7505   -6.3295   -2.5909 C   0  0  0  0  0  0  0  0  0  0  0  0
   -0.9146   -7.3329   -2.9598 H   0  0  0  0  0  0  0  0  0  0  0  0
   -1.1382   -5.9887   -1.2821 C   0  0  0  0  0  0  0  0  0  0  0  0
   -1.6026   -6.7336   -0.6509 H   0  0  0  0  0  0  0  0  0  0  0  0
   -0.9329   -4.6838   -0.7908 C   0  0  0  0  0  0  0  0  0  0  0  0
   -1.2475   -4.4317    0.2120 H   0  0  0  0  0  0  0  0  0  0  0  0
   -0.3330   -3.6913   -1.5958 C   0  0  0  0  0  0  0  0  0  0  0  0
   -1.4166    0.4398   -1.1650 C   0  0  0  0  0  0  0  0  0  0  0  0
   -0.3775    0.8830   -1.6524 O   0  0  0  0  0  0  0  0  0  0  0  0
   -2.6297    0.8458   -1.5634 N   0  0  0  0  0  0  0  0  0  0  0  0
   -3.4315    0.4729   -1.0752 H   0  0  0  0  0  0  0  0  0  0  0  0
   -2.8615    1.8410   -2.6065 C   0  0  0  0  0  0  0  0  0  0  0  0
   -2.3083    1.5666   -3.5067 H   0  0  0  0  0  0  0  0  0  0  0  0
   -3.9254    1.8994   -2.8402 H   0  0  0  0  0  0  0  0  0  0  0  0
   -2.5124    2.8169   -2.2651 H   0  0  0  0  0  0  0  0  0  0  0  0
  5  6  2  0  0  0  0
  5  7  1  0  0  0  0
  2  3  1  0  0  0  0
  2  4  1  0  0  0  0
  2  5  1  0  0  0  0
  1  2  1  0  0  0  0
 29 30  2  0  0  0  0
 29 31  1  0  0  0  0
 26 27  1  0  0  0  0
 26 28  2  0  0  0  0
 24 25  1  0  0  0  0
 24 26  1  0  0  0  0
 22 23  1  0  0  0  0
 22 24  2  0  0  0  0
 20 21  1  0  0  0  0
 20 22  1  0  0  0  0
 19 20  2  0  0  0  0
 19 28  1  0  0  0  0
 17 18  1  0  0  0  0
 17 19  1  0  0  0  0
 15 16  1  0  0  0  0
 15 17  1  0  0  0  0
 14 15  2  0  0  0  0
 14 28  1  0  0  0  0
 11 12  1  0  0  0  0
 11 13  1  0  0  0  0
 11 14  1  0  0  0  0
  9 10  1  0  0  0  0
  9 11  1  0  0  0  0
  9 29  1  0  0  0  0
  7  8  1  0  0  0  0
  7  9  1  0  0  0  0
 33 34  1  0  0  0  0
 33 35  1  0  0  0  0
 33 36  1  0  0  0  0
 31 32  1  0  0  0  0
 31 33  1  0  0  0  0
M  END
$$$$
default_name
  -OEChem-12212115393D

 36 37  0     1  0  0  0  0  0999 V2000
   -4.0843   -4.0736    1.2944 H   0  0  0  0  0  0  0  0  0  0  0  0
   -4.0342   -3.2816    0.5484 C   0  0  0  0  0  0  0  0  0  0  0  0
   -4.8842   -2.6126    0.6694 H   0  0  0  0  0  0  0  0  0  0  0  0
   -4.0433   -3.7186   -0.4486 H   0  0  0  0  0  0  0  0  0  0  0  0
   -2.7532   -2.5046    0.7444 C   0  0  0  0  0  0  0  0  0  0  0  0
   -1.9803   -2.8096    1.6434 O   0  0  0  0  0  0  0  0  0  0  0  0
   -2.5332   -1.4966   -0.0966 N   0  0  0  0  0  0  0  0  0  0  0  0
   -3.2312   -1.2816   -0.7936 H   0  0  0  0  0  0  0  0  0  0  0  0
   -1.3593   -0.6196   -0.0536 C   0  0  1  0  0  0  0  0  0  0  0  0
   -1.3515   -0.0929    0.9014 H   0  0  0  0  0  0  0  0  0  0  0  0
   -0.0816   -1.4690   -0.1431 C   0  0  0  0  0  0  0  0  0  0  0  0
    0.7849   -0.8079   -0.0855 H   0  0  0  0  0  0  0  0  0  0  0  0
   -0.0465   -2.1354    0.7204 H   0  0  0  0  0  0  0  0  0  0  0  0
    0.0479   -2.2955   -1.3865 C   0  0  0  0  0  0  0  0  0  0  0  0
    0.5999   -1.8846   -2.5502 C   0  0  0  0  0  0  0  0  0  0  0  0
    1.0004   -0.8924   -2.7268 H   0  0  0  0  0  0  0  0  0  0  0  0
    0.5913   -2.9233   -3.4604 N   0  0  0  0  0  0  0  0  0  0  0  0
    0.9508   -2.8432   -4.4003 H   0  0  0  0  0  0  0  0  0  0  0  0
    0.0448   -4.0676   -2.9195 C   0  0  0  0  0  0  0  0  0  0  0  0
   -0.1564   -5.3622   -3.4194 C   0  0  0  0  0  0  0  0  0  0  0  0
    0.1400   -5.6119   -4.4276 H   0  0  0  0  0  0  0  0  0  0  0  0
   -0.7505   -6.3295   -2.5909 C   0  0  0  0  0  0  0  0  0  0  0  0
   -0.9146   -7.3329   -2.9598 H   0  0  0  0  0  0  0  0  0  0  0  0
   -1.1382   -5.9887   -1.2821 C   0  0  0  0  0  0  0  0  0  0  0  0
   -1.6026   -6.7336   -0.6509 H   0  0  0  0  0  0  0  0  0  0  0  0
   -0.9329   -4.6838   -0.7908 C   0  0  0  0  0  0  0  0  0  0  0  0
   -1.2475   -4.4317    0.2120 H   0  0  0  0  0  0  0  0  0  0  0  0
   -0.3330   -3.6913   -1.5958 C   0  0  0  0  0  0  0  0  0  0  0  0
   -1.4166    0.4398   -1.1650 C   0  0  0  0  0  0  0  0  0  0  0  0
   -0.4177    0.6833   -1.8407 O   0  0  0  0  0  0  0  0  0  0  0  0
   -2.5842    1.0697   -1.3524 N   0  0  0  0  0  0  0  0  0  0  0  0
   -3.3406    0.8506   -0.7198 H   0  0  0  0  0  0  0  0  0  0  0  0
   -2.8098    2.0983   -2.3639 C   0  0  0  0  0  0  0  0  0  0  0  0
   -2.4880    1.7313   -3.3404 H   0  0  0  0  0  0  0  0  0  0  0  0
   -3.8685    2.3575   -2.4065 H   0  0  0  0  0  0  0  0  0  0  0  0
   -2.2295    2.9886   -2.1160 H   0  0  0  0  0  0  0  0  0  0  0  0
  5  6  2  0  0  0  0
  5  7  1  0  0  0  0
  2  3  1  0  0  0  0
  2  4  1  0  0  0  0
  2  5  1  0  0  0  0
  1  2  1  0  0  0  0
 29 30  2  0  0  0  0
 29 31  1  0  0  0  0
 26 27  1  0  0  0  0
 26 28  2  0  0  0  0
 24 25  1  0  0  0  0
 24 26  1  0  0  0  0
 22 23  1  0  0  0  0
 22 24  2  0  0  0  0
 20 21  1  0  0  0  0
 20 22  1  0  0  0  0
 19 20  2  0  0  0  0
 19 28  1  0  0  0  0
 17 18  1  0  0  0  0
 17 19  1  0  0  0  0
 15 16  1  0  0  0  0
 15 17  1  0  0  0  0
 14 15  2  0  0  0  0
 14 28  1  0  0  0  0
 11 12  1  0  0  0  0
 11 13  1  0  0  0  0
 11 14  1  0  0  0  0
  9 10  1  0  0  0  0
  9 11  1  0  0  0  0
  9 29  1  0  0  0  0
  7  8  1  0  0  0  0
  7  9  1  0  0  0  0
 33 34  1  0  0  0  0
 33 35  1  0  0  0  0
 33 36  1  0  0  0  0
 31 32  1  0  0  0  0
 31 33  1  0  0  0  0
M  END
$$$$
default_name
  -OEChem-12212115393D

 36 37  0     1  0  0  0  0  0999 V2000
   -4.0843   -4.0736    1.2944 H   0  0  0  0  0  0  0  0  0  0  0  0
   -4.0342   -3.2816    0.5484 C   0  0  0  0  0  0  0  0  0  0  0  0
   -4.8842   -2.6126    0.6694 H   0  0  0  0  0  0  0  0  0  0  0  0
   -4.0433   -3.7186   -0.4486 H   0  0  0  0  0  0  0  0  0  0  0  0
   -2.7532   -2.5046    0.7444 C   0  0  0  0  0  0  0  0  0  0  0  0
   -1.9803   -2.8096    1.6434 O   0  0  0  0  0  0  0  0  0  0  0  0
   -2.5332   -1.4966   -0.0966 N   0  0  0  0  0  0  0  0  0  0  0  0
   -3.2312   -1.2816   -0.7936 H   0  0  0  0  0  0  0  0  0  0  0  0
   -1.3593   -0.6196   -0.0536 C   0  0  1  0  0  0  0  0  0  0  0  0
   -1.3515   -0.0929    0.9014 H   0  0  0  0  0  0  0  0  0  0  0  0
   -0.0816   -1.4690   -0.1431 C   0  0  0  0  0  0  0  0  0  0  0  0
    0.7849   -0.8079   -0.0855 H   0  0  0  0  0  0  0  0  0  0  0  0
   -0.0465   -2.1354    0.7204 H   0  0  0  0  0  0  0  0  0  0  0  0
    0.0479   -2.2955   -1.3865 C   0  0  0  0  0  0  0  0  0  0  0  0
    0.5999   -1.8846   -2.5502 C   0  0  0  0  0  0  0  0  0  0  0  0
    1.0004   -0.8924   -2.7268 H   0  0  0  0  0  0  0  0  0  0  0  0
    0.5913   -2.9233   -3.4604 N   0  0  0  0  0  0  0  0  0  0  0  0
    0.9508   -2.8432   -4.4003 H   0  0  0  0  0  0  0  0  0  0  0  0
    0.0448   -4.0676   -2.9195 C   0  0  0  0  0  0  0  0  0  0  0  0
   -0.1564   -5.3622   -3.4194 C   0  0  0  0  0  0  0  0  0  0  0  0
    0.1400   -5.6119   -4.4276 H   0  0  0  0  0  0  0  0  0  0  0  0
   -0.7505   -6.3295   -2.5909 C   0  0  0  0  0  0  0  0  0  0  0  0
   -0.9146   -7.3329   -2.9598 H   0  0  0  0  0  0  0  0  0  0  0  0
   -1.1382   -5.9887   -1.2821 C   0  0  0  0  0  0  0  0  0  0  0  0
   -1.6026   -6.7336   -0.6509 H   0  0  0  0  0  0  0  0  0  0  0  0
   -0.9329   -4.6838   -0.7908 C   0  0  0  0  0  0  0  0  0  0  0  0
   -1.2475   -4.4317    0.2120 H   0  0  0  0  0  0  0  0  0  0  0  0
   -0.3330   -3.6913   -1.5958 C   0  0  0  0  0  0  0  0  0  0  0  0
   -1.4166    0.4398   -1.1650 C   0  0  0  0  0  0  0  0  0  0  0  0
   -0.5275    0.4960   -2.0136 O   0  0  0  0  0  0  0  0  0  0  0  0
   -2.4607    1.2794   -1.1588 N   0  0  0  0  0  0  0  0  0  0  0  0
   -3.1188    1.2019   -0.3964 H   0  0  0  0  0  0  0  0  0  0  0  0
   -2.6684    2.3395   -2.1413 C   0  0  0  0  0  0  0  0  0  0  0  0
   -2.6011    1.9257   -3.1493 H   0  0  0  0  0  0  0  0  0  0  0  0
   -3.6504    2.7935   -2.0021 H   0  0  0  0  0  0  0  0  0  0  0  0
   -1.8975    3.1029   -2.0242 H   0  0  0  0  0  0  0  0  0  0  0  0
  5  6  2  0  0  0  0
  5  7  1  0  0  0  0
  2  3  1  0  0  0  0
  2  4  1  0  0  0  0
  2  5  1  0  0  0  0
  1  2  1  0  0  0  0
 29 30  2  0  0  0  0
 29 31  1  0  0  0  0
 26 27  1  0  0  0  0
 26 28  2  0  0  0  0
 24 25  1  0  0  0  0
 24 26  1  0  0  0  0
 22 23  1  0  0  0  0
 22 24  2  0  0  0  0
 20 21  1  0  0  0  0
 20 22  1  0  0  0  0
 19 20  2  0  0  0  0
 19 28  1  0  0  0  0
 17 18  1  0  0  0  0
 17 19  1  0  0  0  0
 15 16  1  0  0  0  0
 15 17  1  0  0  0  0
 14 15  2  0  0  0  0
 14 28  1  0  0  0  0
 11 12  1  0  0  0  0
 11 13  1  0  0  0  0
 11 14  1  0  0  0  0
  9 10  1  0  0  0  0
  9 11  1  0  0  0  0
  9 29  1  0  0  0  0
  7  8  1  0  0  0  0
  7  9  1  0  0  0  0
 33 34  1  0  0  0  0
 33 35  1  0  0  0  0
 33 36  1  0  0  0  0
 31 32  1  0  0  0  0
 31 33  1  0  0  0  0
M  END
$$$$
default_name
  -OEChem-12212115393D

 36 37  0     1  0  0  0  0  0999 V2000
   -4.0843   -4.0736    1.2944 H   0  0  0  0  0  0  0  0  0  0  0  0
   -4.0342   -3.2816    0.5484 C   0  0  0  0  0  0  0  0  0  0  0  0
   -4.8842   -2.6126    0.6694 H   0  0  0  0  0  0  0  0  0  0  0  0
   -4.0433   -3.7186   -0.4486 H   0  0  0  0  0  0  0  0  0  0  0  0
   -2.7532   -2.5046    0.7444 C   0  0  0  0  0  0  0  0  0  0  0  0
   -1.9803   -2.8096    1.6434 O   0  0  0  0  0  0  0  0  0  0  0  0
   -2.5332   -1.4966   -0.0966 N   0  0  0  0  0  0  0  0  0  0  0  0
   -3.2312   -1.2816   -0.7936 H   0  0  0  0  0  0  0  0  0  0  0  0
   -1.3593   -0.6196   -0.0536 C   0  0  1  0  0  0  0  0  0  0  0  0
   -1.3515   -0.0929    0.9014 H   0  0  0  0  0  0  0  0  0  0  0  0
   -0.0816   -1.4690   -0.1431 C   0  0  0  0  0  0  0  0  0  0  0  0
    0.7849   -0.8079   -0.0855 H   0  0  0  0  0  0  0  0  0  0  0  0
   -0.0465   -2.1354    0.7204 H   0  0  0  0  0  0  0  0  0  0  0  0
    0.0479   -2.2955   -1.3865 C   0  0  0  0  0  0  0  0  0  0  0  0
    0.5999   -1.8846   -2.5502 C   0  0  0  0  0  0  0  0  0  0  0  0
    1.0004   -0.8924   -2.7268 H   0  0  0  0  0  0  0  0  0  0  0  0
    0.5913   -2.9233   -3.4604 N   0  0  0  0  0  0  0  0  0  0  0  0
    0.9508   -2.8432   -4.4003 H   0  0  0  0  0  0  0  0  0  0  0  0
    0.0448   -4.0676   -2.9195 C   0  0  0  0  0  0  0  0  0  0  0  0
   -0.1564   -5.3622   -3.4194 C   0  0  0  0  0  0  0  0  0  0  0  0
    0.1400   -5.6119   -4.4276 H   0  0  0  0  0  0  0  0  0  0  0  0
   -0.7505   -6.3295   -2.5909 C   0  0  0  0  0  0  0  0  0  0  0  0
   -0.9146   -7.3329   -2.9598 H   0  0  0  0  0  0  0  0  0  0  0  0
   -1.1382   -5.9887   -1.2821 C   0  0  0  0  0  0  0  0  0  0  0  0
   -1.6026   -6.7336   -0.6509 H   0  0  0  0  0  0  0  0  0  0  0  0
   -0.9329   -4.6838   -0.7908 C   0  0  0  0  0  0  0  0  0  0  0  0
   -1.2475   -4.4317    0.2120 H   0  0  0  0  0  0  0  0  0  0  0  0
   -0.3330   -3.6913   -1.5958 C   0  0  0  0  0  0  0  0  0  0  0  0
   -1.4166    0.4398   -1.1650 C   0  0  0  0  0  0  0  0  0  0  0  0
   -0.6995    0.3340   -2.1591 O   0  0  0  0  0  0  0  0  0  0  0  0
   -2.2676    1.4607   -0.9960 N   0  0  0  0  0  0  0  0  0  0  0  0
   -2.7810    1.5028   -0.1270 H   0  0  0  0  0  0  0  0  0  0  0  0
   -2.4470    2.5482   -1.9539 C   0  0  0  0  0  0  0  0  0  0  0  0
   -2.6398    2.1365   -2.9463 H   0  0  0  0  0  0  0  0  0  0  0  0
   -3.2860    3.1777   -1.6547 H   0  0  0  0  0  0  0  0  0  0  0  0
   -1.5390    3.1521   -1.9958 H   0  0  0  0  0  0  0  0  0  0  0  0
  5  6  2  0  0  0  0
  5  7  1  0  0  0  0
  2  3  1  0  0  0  0
  2  4  1  0  0  0  0
  2  5  1  0  0  0  0
  1  2  1  0  0  0  0
 29 30  2  0  0  0  0
 29 31  1  0  0  0  0
 26 27  1  0  0  0  0
 26 28  2  0  0  0  0
 24 25  1  0  0  0  0
 24 26  1  0  0  0  0
 22 23  1  0  0  0  0
 22 24  2  0  0  0  0
 20 21  1  0  0  0  0
 20 22  1  0  0  0  0
 19 20  2  0  0  0  0
 19 28  1  0  0  0  0
 17 18  1  0  0  0  0
 17 19  1  0  0  0  0
 15 16  1  0  0  0  0
 15 17  1  0  0  0  0
 14 15  2  0  0  0  0
 14 28  1  0  0  0  0
 11 12  1  0  0  0  0
 11 13  1  0  0  0  0
 11 14  1  0  0  0  0
  9 10  1  0  0  0  0
  9 11  1  0  0  0  0
  9 29  1  0  0  0  0
  7  8  1  0  0  0  0
  7  9  1  0  0  0  0
 33 34  1  0  0  0  0
 33 35  1  0  0  0  0
 33 36  1  0  0  0  0
 31 32  1  0  0  0  0
 31 33  1  0  0  0  0
M  END
$$$$
default_name
  -OEChem-12212115393D

 36 37  0     1  0  0  0  0  0999 V2000
   -4.0843   -4.0736    1.2944 H   0  0  0  0  0  0  0  0  0  0  0  0
   -4.0342   -3.2816    0.5484 C   0  0  0  0  0  0  0  0  0  0  0  0
   -4.8842   -2.6126    0.6694 H   0  0  0  0  0  0  0  0  0  0  0  0
   -4.0433   -3.7186   -0.4486 H   0  0  0  0  0  0  0  0  0  0  0  0
   -2.7532   -2.5046    0.7444 C   0  0  0  0  0  0  0  0  0  0  0  0
   -1.9803   -2.8096    1.6434 O   0  0  0  0  0  0  0  0  0  0  0  0
   -2.5332   -1.4966   -0.0966 N   0  0  0  0  0  0  0  0  0  0  0  0
   -3.2312   -1.2816   -0.7936 H   0  0  0  0  0  0  0  0  0  0  0  0
   -1.3593   -0.6196   -0.0536 C   0  0  1  0  0  0  0  0  0  0  0  0
   -1.3515   -0.0929    0.9014 H   0  0  0  0  0  0  0  0  0  0  0  0
   -0.0816   -1.4690   -0.1431 C   0  0  0  0  0  0  0  0  0  0  0  0
    0.7849   -0.8079   -0.0855 H   0  0  0  0  0  0  0  0  0  0  0  0
   -0.0465   -2.1354    0.7204 H   0  0  0  0  0  0  0  0  0  0  0  0
    0.0479   -2.2955   -1.3865 C   0  0  0  0  0  0  0  0  0  0  0  0
    0.5999   -1.8846   -2.5502 C   0  0  0  0  0  0  0  0  0  0  0  0
    1.0004   -0.8924   -2.7268 H   0  0  0  0  0  0  0  0  0  0  0  0
    0.5913   -2.9233   -3.4604 N   0  0  0  0  0  0  0  0  0  0  0  0
    0.9508   -2.8432   -4.4003 H   0  0  0  0  0  0  0  0  0  0  0  0
    0.0448   -4.0676   -2.9195 C   0  0  0  0  0  0  0  0  0  0  0  0
   -0.1564   -5.3622   -3.4194 C   0  0  0  0  0  0  0  0  0  0  0  0
    0.1400   -5.6119   -4.4276 H   0  0  0  0  0  0  0  0  0  0  0  0
   -0.7505   -6.3295   -2.5909 C   0  0  0  0  0  0  0  0  0  0  0  0
   -0.9146   -7.3329   -2.9598 H   0  0  0  0  0  0  0  0  0  0  0  0
   -1.1382   -5.9887   -1.2821 C   0  0  0  0  0  0  0  0  0  0  0  0
   -1.6026   -6.7336   -0.6509 H   0  0  0  0  0  0  0  0  0  0  0  0
   -0.9329   -4.6838   -0.7908 C   0  0  0  0  0  0  0  0  0  0  0  0
   -1.2475   -4.4317    0.2120 H   0  0  0  0  0  0  0  0  0  0  0  0
   -0.3330   -3.6913   -1.5958 C   0  0  0  0  0  0  0  0  0  0  0  0
   -1.4166    0.4398   -1.1650 C   0  0  0  0  0  0  0  0  0  0  0  0
   -0.9219    0.2083   -2.2675 O   0  0  0  0  0  0  0  0  0  0  0  0
   -2.0181    1.6013   -0.8748 N   0  0  0  0  0  0  0  0  0  0  0  0
   -2.3503    1.7328    0.0700 H   0  0  0  0  0  0  0  0  0  0  0  0
   -2.1605    2.7101   -1.8143 C   0  0  0  0  0  0  0  0  0  0  0  0
   -2.6016    2.3493   -2.7455 H   0  0  0  0  0  0  0  0  0  0  0  0
   -2.8001    3.4839   -1.3878 H   0  0  0  0  0  0  0  0  0  0  0  0
   -1.1784    3.1327   -2.0329 H   0  0  0  0  0  0  0  0  0  0  0  0
  5  6  2  0  0  0  0
  5  7  1  0  0  0  0
  2  3  1  0  0  0  0
  2  4  1  0  0  0  0
  2  5  1  0  0  0  0
  1  2  1  0  0  0  0
 29 30  2  0  0  0  0
 29 31  1  0  0  0  0
 26 27  1  0  0  0  0
 26 28  2  0  0  0  0
 24 25  1  0  0  0  0
 24 26  1  0  0  0  0
 22 23  1  0  0  0  0
 22 24  2  0  0  0  0
 20 21  1  0  0  0  0
 20 22  1  0  0  0  0
 19 20  2  0  0  0  0
 19 28  1  0  0  0  0
 17 18  1  0  0  0  0
 17 19  1  0  0  0  0
 15 16  1  0  0  0  0
 15 17  1  0  0  0  0
 14 15  2  0  0  0  0
 14 28  1  0  0  0  0
 11 12  1  0  0  0  0
 11 13  1  0  0  0  0
 11 14  1  0  0  0  0
  9 10  1  0  0  0  0
  9 11  1  0  0  0  0
  9 29  1  0  0  0  0
  7  8  1  0  0  0  0
  7  9  1  0  0  0  0
 33 34  1  0  0  0  0
 33 35  1  0  0  0  0
 33 36  1  0  0  0  0
 31 32  1  0  0  0  0
 31 33  1  0  0  0  0
M  END
$$$$
default_name
  -OEChem-12212115393D

 36 37  0     1  0  0  0  0  0999 V2000
   -4.0843   -4.0736    1.2944 H   0  0  0  0  0  0  0  0  0  0  0  0
   -4.0342   -3.2816    0.5484 C   0  0  0  0  0  0  0  0  0  0  0  0
   -4.8842   -2.6126    0.6694 H   0  0  0  0  0  0  0  0  0  0  0  0
   -4.0433   -3.7186   -0.4486 H   0  0  0  0  0  0  0  0  0  0  0  0
   -2.7532   -2.5046    0.7444 C   0  0  0  0  0  0  0  0  0  0  0  0
   -1.9803   -2.8096    1.6434 O   0  0  0  0  0  0  0  0  0  0  0  0
   -2.5332   -1.4966   -0.0966 N   0  0  0  0  0  0  0  0  0  0  0  0
   -3.2312   -1.2816   -0.7936 H   0  0  0  0  0  0  0  0  0  0  0  0
   -1.3593   -0.6196   -0.0536 C   0  0  1  0  0  0  0  0  0  0  0  0
   -1.3515   -0.0929    0.9014 H   0  0  0  0  0  0  0  0  0  0  0  0
   -0.0816   -1.4690   -0.1431 C   0  0  0  0  0  0  0  0  0  0  0  0
    0.7849   -0.8079   -0.0855 H   0  0  0  0  0  0  0  0  0  0  0  0
   -0.0465   -2.1354    0.7204 H   0  0  0  0  0  0  0  0  0  0  0  0
    0.0479   -2.2955   -1.3865 C   0  0  0  0  0  0  0  0  0  0  0  0
    0.5999   -1.8846   -2.5502 C   0  0  0  0  0  0  0  0  0  0  0  0
    1.0004   -0.8924   -2.7268 H   0  0  0  0  0  0  0  0  0  0  0  0
    0.5913   -2.9233   -3.4604 N   0  0  0  0  0  0  0  0  0  0  0  0
    0.9508   -2.8432   -4.4003 H   0  0  0  0  0  0  0  0  0  0  0  0
    0.0448   -4.0676   -2.9195 C   0  0  0  0  0  0  0  0  0  0  0  0
   -0.1564   -5.3622   -3.4194 C   0  0  0  0  0  0  0  0  0  0  0  0
    0.1400   -5.6119   -4.4276 H   0  0  0  0  0  0  0  0  0  0  0  0
   -0.7505   -6.3295   -2.5909 C   0  0  0  0  0  0  0  0  0  0  0  0
   -0.9146   -7.3329   -2.9598 H   0  0  0  0  0  0  0  0  0  0  0  0
   -1.1382   -5.9887   -1.2821 C   0  0  0  0  0  0  0  0  0  0  0  0
   -1.6026   -6.7336   -0.6509 H   0  0  0  0  0  0  0  0  0  0  0  0
   -0.9329   -4.6838   -0.7908 C   0  0  0  0  0  0  0  0  0  0  0  0
   -1.2475   -4.4317    0.2120 H   0  0  0  0  0  0  0  0  0  0  0  0
   -0.3330   -3.6913   -1.5958 C   0  0  0  0  0  0  0  0  0  0  0  0
   -1.4166    0.4398   -1.1650 C   0  0  0  0  0  0  0  0  0  0  0  0
   -1.1797    0.1275   -2.3312 O   0  0  0  0  0  0  0  0  0  0  0  0
   -1.7291    1.6915   -0.8037 N   0  0  0  0  0  0  0  0  0  0  0  0
   -1.8560    1.8763    0.1812 H   0  0  0  0  0  0  0  0  0  0  0  0
   -1.8286    2.8142   -1.7322 C   0  0  0  0  0  0  0  0  0  0  0  0
   -2.4889    2.5496   -2.5603 H   0  0  0  0  0  0  0  0  0  0  0  0
   -2.2257    3.6914   -1.2197 H   0  0  0  0  0  0  0  0  0  0  0  0
   -0.8404    3.0461   -2.1328 H   0  0  0  0  0  0  0  0  0  0  0  0
  5  6  2  0  0  0  0
  5  7  1  0  0  0  0
  2  3  1  0  0  0  0
  2  4  1  0  0  0  0
  2  5  1  0  0  0  0
  1  2  1  0  0  0  0
 29 30  2  0  0  0  0
 29 31  1  0  0  0  0
 26 27  1  0  0  0  0
 26 28  2  0  0  0  0
 24 25  1  0  0  0  0
 24 26  1  0  0  0  0
 22 23  1  0  0  0  0
 22 24  2  0  0  0  0
 20 21  1  0  0  0  0
 20 22  1  0  0  0  0
 19 20  2  0  0  0  0
 19 28  1  0  0  0  0
 17 18  1  0  0  0  0
 17 19  1  0  0  0  0
 15 16  1  0  0  0  0
 15 17  1  0  0  0  0
 14 15  2  0  0  0  0
 14 28  1  0  0  0  0
 11 12  1  0  0  0  0
 11 13  1  0  0  0  0
 11 14  1  0  0  0  0
  9 10  1  0  0  0  0
  9 11  1  0  0  0  0
  9 29  1  0  0  0  0
  7  8  1  0  0  0  0
  7  9  1  0  0  0  0
 33 34  1  0  0  0  0
 33 35  1  0  0  0  0
 33 36  1  0  0  0  0
 31 32  1  0  0  0  0
 31 33  1  0  0  0  0
M  END
$$$$
default_name
  -OEChem-12212115393D

 36 37  0     1  0  0  0  0  0999 V2000
   -4.0843   -4.0736    1.2944 H   0  0  0  0  0  0  0  0  0  0  0  0
   -4.0342   -3.2816    0.5484 C   0  0  0  0  0  0  0  0  0  0  0  0
   -4.8842   -2.6126    0.6694 H   0  0  0  0  0  0  0  0  0  0  0  0
   -4.0433   -3.7186   -0.4486 H   0  0  0  0  0  0  0  0  0  0  0  0
   -2.7532   -2.5046    0.7444 C   0  0  0  0  0  0  0  0  0  0  0  0
   -1.9803   -2.8096    1.6434 O   0  0  0  0  0  0  0  0  0  0  0  0
   -2.5332   -1.4966   -0.0966 N   0  0  0  0  0  0  0  0  0  0  0  0
   -3.2312   -1.2816   -0.7936 H   0  0  0  0  0  0  0  0  0  0  0  0
   -1.3593   -0.6196   -0.0536 C   0  0  1  0  0  0  0  0  0  0  0  0
   -1.3515   -0.0929    0.9014 H   0  0  0  0  0  0  0  0  0  0  0  0
   -0.0816   -1.4690   -0.1431 C   0  0  0  0  0  0  0  0  0  0  0  0
    0.7849   -0.8079   -0.0855 H   0  0  0  0  0  0  0  0  0  0  0  0
   -0.0465   -2.1354    0.7204 H   0  0  0  0  0  0  0  0  0  0  0  0
    0.0479   -2.2955   -1.3865 C   0  0  0  0  0  0  0  0  0  0  0  0
    0.5999   -1.8846   -2.5502 C   0  0  0  0  0  0  0  0  0  0  0  0
    1.0004   -0.8924   -2.7268 H   0  0  0  0  0  0  0  0  0  0  0  0
    0.5913   -2.9233   -3.4604 N   0  0  0  0  0  0  0  0  0  0  0  0
    0.9508   -2.8432   -4.4003 H   0  0  0  0  0  0  0  0  0  0  0  0
    0.0448   -4.0676   -2.9195 C   0  0  0  0  0  0  0  0  0  0  0  0
   -0.1564   -5.3622   -3.4194 C   0  0  0  0  0  0  0  0  0  0  0  0
    0.1400   -5.6119   -4.4276 H   0  0  0  0  0  0  0  0  0  0  0  0
   -0.7505   -6.3295   -2.5909 C   0  0  0  0  0  0  0  0  0  0  0  0
   -0.9146   -7.3329   -2.9598 H   0  0  0  0  0  0  0  0  0  0  0  0
   -1.1382   -5.9887   -1.2821 C   0  0  0  0  0  0  0  0  0  0  0  0
   -1.6026   -6.7336   -0.6509 H   0  0  0  0  0  0  0  0  0  0  0  0
   -0.9329   -4.6838   -0.7908 C   0  0  0  0  0  0  0  0  0  0  0  0
   -1.2475   -4.4317    0.2120 H   0  0  0  0  0  0  0  0  0  0  0  0
   -0.3330   -3.6913   -1.5958 C   0  0  0  0  0  0  0  0  0  0  0  0
   -1.4166    0.4398   -1.1650 C   0  0  0  0  0  0  0  0  0  0  0  0
   -1.4551    0.0970   -2.3460 O   0  0  0  0  0  0  0  0  0  0  0  0
   -1.4205    1.7253   -0.7874 N   0  0  0  0  0  0  0  0  0  0  0  0
   -1.3319    1.9234    0.1991 H   0  0  0  0  0  0  0  0  0  0  0  0
   -1.4739    2.8534   -1.7131 C   0  0  0  0  0  0  0  0  0  0  0  0
   -2.3096    2.7238   -2.4035 H   0  0  0  0  0  0  0  0  0  0  0  0
   -1.6021    3.7858   -1.1618 H   0  0  0  0  0  0  0  0  0  0  0  0
   -0.5480    2.8983   -2.2889 H   0  0  0  0  0  0  0  0  0  0  0  0
  5  6  2  0  0  0  0
  5  7  1  0  0  0  0
  2  3  1  0  0  0  0
  2  4  1  0  0  0  0
  2  5  1  0  0  0  0
  1  2  1  0  0  0  0
 29 30  2  0  0  0  0
 29 31  1  0  0  0  0
 26 27  1  0  0  0  0
 26 28  2  0  0  0  0
 24 25  1  0  0  0  0
 24 26  1  0  0  0  0
 22 23  1  0  0  0  0
 22 24  2  0  0  0  0
 20 21  1  0  0  0  0
 20 22  1  0  0  0  0
 19 20  2  0  0  0  0
 19 28  1  0  0  0  0
 17 18  1  0  0  0  0
 17 19  1  0  0  0  0
 15 16  1  0  0  0  0
 15 17  1  0  0  0  0
 14 15  2  0  0  0  0
 14 28  1  0  0  0  0
 11 12  1  0  0  0  0
 11 13  1  0  0  0  0
 11 14  1  0  0  0  0
  9 10  1  0  0  0  0
  9 11  1  0  0  0  0
  9 29  1  0  0  0  0
  7  8  1  0  0  0  0
  7  9  1  0  0  0  0
 33 34  1  0  0  0  0
 33 35  1  0  0  0  0
 33 36  1  0  0  0  0
 31 32  1  0  0  0  0
 31 33  1  0  0  0  0
M  END
$$$$
default_name
  -OEChem-12212115393D

 36 37  0     1  0  0  0  0  0999 V2000
   -4.0843   -4.0736    1.2944 H   0  0  0  0  0  0  0  0  0  0  0  0
   -4.0342   -3.2816    0.5484 C   0  0  0  0  0  0  0  0  0  0  0  0
   -4.8842   -2.6126    0.6694 H   0  0  0  0  0  0  0  0  0  0  0  0
   -4.0433   -3.7186   -0.4486 H   0  0  0  0  0  0  0  0  0  0  0  0
   -2.7532   -2.5046    0.7444 C   0  0  0  0  0  0  0  0  0  0  0  0
   -1.9803   -2.8096    1.6434 O   0  0  0  0  0  0  0  0  0  0  0  0
   -2.5332   -1.4966   -0.0966 N   0  0  0  0  0  0  0  0  0  0  0  0
   -3.2312   -1.2816   -0.7936 H   0  0  0  0  0  0  0  0  0  0  0  0
   -1.3593   -0.6196   -0.0536 C   0  0  1  0  0  0  0  0  0  0  0  0
   -1.3515   -0.0929    0.9014 H   0  0  0  0  0  0  0  0  0  0  0  0
   -0.0816   -1.4690   -0.1431 C   0  0  0  0  0  0  0  0  0  0  0  0
    0.7849   -0.8079   -0.0855 H   0  0  0  0  0  0  0  0  0  0  0  0
   -0.0465   -2.1354    0.7204 H   0  0  0  0  0  0  0  0  0  0  0  0
    0.0479   -2.2955   -1.3865 C   0  0  0  0  0  0  0  0  0  0  0  0
    0.5999   -1.8846   -2.5502 C   0  0  0  0  0  0  0  0  0  0  0  0
    1.0004   -0.8924   -2.7268 H   0  0  0  0  0  0  0  0  0  0  0  0
    0.5913   -2.9233   -3.4604 N   0  0  0  0  0  0  0  0  0  0  0  0
    0.9508   -2.8432   -4.4003 H   0  0  0  0  0  0  0  0  0  0  0  0
    0.0448   -4.0676   -2.9195 C   0  0  0  0  0  0  0  0  0  0  0  0
   -0.1564   -5.3622   -3.4194 C   0  0  0  0  0  0  0  0  0  0  0  0
    0.1400   -5.6119   -4.4276 H   0  0  0  0  0  0  0  0  0  0  0  0
   -0.7505   -6.3295   -2.5909 C   0  0  0  0  0  0  0  0  0  0  0  0
   -0.9146   -7.3329   -2.9598 H   0  0  0  0  0  0  0  0  0  0  0  0
   -1.1382   -5.9887   -1.2821 C   0  0  0  0  0  0  0  0  0  0  0  0
   -1.6026   -6.7336   -0.6509 H   0  0  0  0  0  0  0  0  0  0  0  0
   -0.9329   -4.6838   -0.7908 C   0  0  0  0  0  0  0  0  0  0  0  0
   -1.2475   -4.4317    0.2120 H   0  0  0  0  0  0  0  0  0  0  0  0
   -0.3330   -3.6913   -1.5958 C   0  0  0  0  0  0  0  0  0  0  0  0
   -1.4166    0.4398   -1.1650 C   0  0  0  0  0  0  0  0  0  0  0  0
   -1.7295    0.1191   -2.3109 O   0  0  0  0  0  0  0  0  0  0  0  0
   -1.1131    1.7003   -0.8272 N   0  0  0  0  0  0  0  0  0  0  0  0
   -0.8137    1.8709    0.1223 H   0  0  0  0  0  0  0  0  0  0  0  0
   -1.1205    2.8251   -1.7584 C   0  0  0  0  0  0  0  0  0  0  0  0
   -2.0757    2.8601   -2.2857 H   0  0  0  0  0  0  0  0  0  0  0  0
   -0.9717    3.7609   -1.2181 H   0  0  0  0  0  0  0  0  0  0  0  0
   -0.3210    2.6992   -2.4903 H   0  0  0  0  0  0  0  0  0  0  0  0
  5  6  2  0  0  0  0
  5  7  1  0  0  0  0
  2  3  1  0  0  0  0
  2  4  1  0  0  0  0
  2  5  1  0  0  0  0
  1  2  1  0  0  0  0
 29 30  2  0  0  0  0
 29 31  1  0  0  0  0
 26 27  1  0  0  0  0
 26 28  2  0  0  0  0
 24 25  1  0  0  0  0
 24 26  1  0  0  0  0
 22 23  1  0  0  0  0
 22 24  2  0  0  0  0
 20 21  1  0  0  0  0
 20 22  1  0  0  0  0
 19 20  2  0  0  0  0
 19 28  1  0  0  0  0
 17 18  1  0  0  0  0
 17 19  1  0  0  0  0
 15 16  1  0  0  0  0
 15 17  1  0  0  0  0
 14 15  2  0  0  0  0
 14 28  1  0  0  0  0
 11 12  1  0  0  0  0
 11 13  1  0  0  0  0
 11 14  1  0  0  0  0
  9 10  1  0  0  0  0
  9 11  1  0  0  0  0
  9 29  1  0  0  0  0
  7  8  1  0  0  0  0
  7  9  1  0  0  0  0
 33 34  1  0  0  0  0
 33 35  1  0  0  0  0
 33 36  1  0  0  0  0
 31 32  1  0  0  0  0
 31 33  1  0  0  0  0
M  END
$$$$
default_name
  -OEChem-12212115393D

 36 37  0     1  0  0  0  0  0999 V2000
   -4.0843   -4.0736    1.2944 H   0  0  0  0  0  0  0  0  0  0  0  0
   -4.0342   -3.2816    0.5484 C   0  0  0  0  0  0  0  0  0  0  0  0
   -4.8842   -2.6126    0.6694 H   0  0  0  0  0  0  0  0  0  0  0  0
   -4.0433   -3.7186   -0.4486 H   0  0  0  0  0  0  0  0  0  0  0  0
   -2.7532   -2.5046    0.7444 C   0  0  0  0  0  0  0  0  0  0  0  0
   -1.9803   -2.8096    1.6434 O   0  0  0  0  0  0  0  0  0  0  0  0
   -2.5332   -1.4966   -0.0966 N   0  0  0  0  0  0  0  0  0  0  0  0
   -3.2312   -1.2816   -0.7936 H   0  0  0  0  0  0  0  0  0  0  0  0
   -1.3593   -0.6196   -0.0536 C   0  0  1  0  0  0  0  0  0  0  0  0
   -1.3515   -0.0929    0.9014 H   0  0  0  0  0  0  0  0  0  0  0  0
   -0.0816   -1.4690   -0.1431 C   0  0  0  0  0  0  0  0  0  0  0  0
    0.7849   -0.8079   -0.0855 H   0  0  0  0  0  0  0  0  0  0  0  0
   -0.0465   -2.1354    0.7204 H   0  0  0  0  0  0  0  0  0  0  0  0
    0.0479   -2.2955   -1.3865 C   0  0  0  0  0  0  0  0  0  0  0  0
    0.5999   -1.8846   -2.5502 C   0  0  0  0  0  0  0  0  0  0  0  0
    1.0004   -0.8924   -2.7268 H   0  0  0  0  0  0  0  0  0  0  0  0
    0.5913   -2.9233   -3.4604 N   0  0  0  0  0  0  0  0  0  0  0  0
    0.9508   -2.8432   -4.4003 H   0  0  0  0  0  0  0  0  0  0  0  0
    0.0448   -4.0676   -2.9195 C   0  0  0  0  0  0  0  0  0  0  0  0
   -0.1564   -5.3622   -3.4194 C   0  0  0  0  0  0  0  0  0  0  0  0
    0.1400   -5.6119   -4.4276 H   0  0  0  0  0  0  0  0  0  0  0  0
   -0.7505   -6.3295   -2.5909 C   0  0  0  0  0  0  0  0  0  0  0  0
   -0.9146   -7.3329   -2.9598 H   0  0  0  0  0  0  0  0  0  0  0  0
   -1.1382   -5.9887   -1.2821 C   0  0  0  0  0  0  0  0  0  0  0  0
   -1.6026   -6.7336   -0.6509 H   0  0  0  0  0  0  0  0  0  0  0  0
   -0.9329   -4.6838   -0.7908 C   0  0  0  0  0  0  0  0  0  0  0  0
   -1.2475   -4.4317    0.2120 H   0  0  0  0  0  0  0  0  0  0  0  0
   -0.3330   -3.6913   -1.5958 C   0  0  0  0  0  0  0  0  0  0  0  0
   -1.4166    0.4398   -1.1650 C   0  0  0  0  0  0  0  0  0  0  0  0
   -1.9841    0.1921   -2.2281 O   0  0  0  0  0  0  0  0  0  0  0  0
   -0.8279    1.6182   -0.9201 N   0  0  0  0  0  0  0  0  0  0  0  0
   -0.3366    1.7225   -0.0438 H   0  0  0  0  0  0  0  0  0  0  0  0
   -0.7926    2.7311   -1.8649 C   0  0  0  0  0  0  0  0  0  0  0  0
   -1.8033    2.9490   -2.2150 H   0  0  0  0  0  0  0  0  0  0  0  0
   -0.3776    3.6183   -1.3848 H   0  0  0  0  0  0  0  0  0  0  0  0
   -0.1750    2.4625   -2.7235 H   0  0  0  0  0  0  0  0  0  0  0  0
  5  6  2  0  0  0  0
  5  7  1  0  0  0  0
  2  3  1  0  0  0  0
  2  4  1  0  0  0  0
  2  5  1  0  0  0  0
  1  2  1  0  0  0  0
 29 30  2  0  0  0  0
 29 31  1  0  0  0  0
 26 27  1  0  0  0  0
 26 28  2  0  0  0  0
 24 25  1  0  0  0  0
 24 26  1  0  0  0  0
 22 23  1  0  0  0  0
 22 24  2  0  0  0  0
 20 21  1  0  0  0  0
 20 22  1  0  0  0  0
 19 20  2  0  0  0  0
 19 28  1  0  0  0  0
 17 18  1  0  0  0  0
 17 19  1  0  0  0  0
 15 16  1  0  0  0  0
 15 17  1  0  0  0  0
 14 15  2  0  0  0  0
 14 28  1  0  0  0  0
 11 12  1  0  0  0  0
 11 13  1  0  0  0  0
 11 14  1  0  0  0  0
  9 10  1  0  0  0  0
  9 11  1  0  0  0  0
  9 29  1  0  0  0  0
  7  8  1  0  0  0  0
  7  9  1  0  0  0  0
 33 34  1  0  0  0  0
 33 35  1  0  0  0  0
 33 36  1  0  0  0  0
 31 32  1  0  0  0  0
 31 33  1  0  0  0  0
M  END
$$$$
default_name
  -OEChem-12212115393D

 36 37  0     1  0  0  0  0  0999 V2000
   -4.0843   -4.0736    1.2944 H   0  0  0  0  0  0  0  0  0  0  0  0
   -4.0342   -3.2816    0.5484 C   0  0  0  0  0  0  0  0  0  0  0  0
   -4.8842   -2.6126    0.6694 H   0  0  0  0  0  0  0  0  0  0  0  0
   -4.0433   -3.7186   -0.4486 H   0  0  0  0  0  0  0  0  0  0  0  0
   -2.7532   -2.5046    0.7444 C   0  0  0  0  0  0  0  0  0  0  0  0
   -1.9803   -2.8096    1.6434 O   0  0  0  0  0  0  0  0  0  0  0  0
   -2.5332   -1.4966   -0.0966 N   0  0  0  0  0  0  0  0  0  0  0  0
   -3.2312   -1.2816   -0.7936 H   0  0  0  0  0  0  0  0  0  0  0  0
   -1.3593   -0.6196   -0.0536 C   0  0  1  0  0  0  0  0  0  0  0  0
   -1.3515   -0.0929    0.9014 H   0  0  0  0  0  0  0  0  0  0  0  0
   -0.0816   -1.4690   -0.1431 C   0  0  0  0  0  0  0  0  0  0  0  0
    0.7849   -0.8079   -0.0855 H   0  0  0  0  0  0  0  0  0  0  0  0
   -0.0465   -2.1354    0.7204 H   0  0  0  0  0  0  0  0  0  0  0  0
    0.0479   -2.2955   -1.3865 C   0  0  0  0  0  0  0  0  0  0  0  0
    0.5999   -1.8846   -2.5502 C   0  0  0  0  0  0  0  0  0  0  0  0
    1.0004   -0.8924   -2.7268 H   0  0  0  0  0  0  0  0  0  0  0  0
    0.5913   -2.9233   -3.4604 N   0  0  0  0  0  0  0  0  0  0  0  0
    0.9508   -2.8432   -4.4003 H   0  0  0  0  0  0  0  0  0  0  0  0
    0.0448   -4.0676   -2.9195 C   0  0  0  0  0  0  0  0  0  0  0  0
   -0.1564   -5.3622   -3.4194 C   0  0  0  0  0  0  0  0  0  0  0  0
    0.1400   -5.6119   -4.4276 H   0  0  0  0  0  0  0  0  0  0  0  0
   -0.7505   -6.3295   -2.5909 C   0  0  0  0  0  0  0  0  0  0  0  0
   -0.9146   -7.3329   -2.9598 H   0  0  0  0  0  0  0  0  0  0  0  0
   -1.1382   -5.9887   -1.2821 C   0  0  0  0  0  0  0  0  0  0  0  0
   -1.6026   -6.7336   -0.6509 H   0  0  0  0  0  0  0  0  0  0  0  0
   -0.9329   -4.6838   -0.7908 C   0  0  0  0  0  0  0  0  0  0  0  0
   -1.2475   -4.4317    0.2120 H   0  0  0  0  0  0  0  0  0  0  0  0
   -0.3330   -3.6913   -1.5958 C   0  0  0  0  0  0  0  0  0  0  0  0
   -1.4166    0.4398   -1.1650 C   0  0  0  0  0  0  0  0  0  0  0  0
   -2.2017    0.3110   -2.1035 O   0  0  0  0  0  0  0  0  0  0  0  0
   -0.5844    1.4846   -1.0600 N   0  0  0  0  0  0  0  0  0  0  0  0
    0.0668    1.4882   -0.2879 H   0  0  0  0  0  0  0  0  0  0  0  0
   -0.5124    2.5779   -2.0253 C   0  0  0  0  0  0  0  0  0  0  0  0
   -1.5110    2.9846   -2.1962 H   0  0  0  0  0  0  0  0  0  0  0  0
    0.1399    3.3676   -1.6504 H   0  0  0  0  0  0  0  0  0  0  0  0
   -0.1199    2.2042   -2.9725 H   0  0  0  0  0  0  0  0  0  0  0  0
  5  6  2  0  0  0  0
  5  7  1  0  0  0  0
  2  3  1  0  0  0  0
  2  4  1  0  0  0  0
  2  5  1  0  0  0  0
  1  2  1  0  0  0  0
 29 30  2  0  0  0  0
 29 31  1  0  0  0  0
 26 27  1  0  0  0  0
 26 28  2  0  0  0  0
 24 25  1  0  0  0  0
 24 26  1  0  0  0  0
 22 23  1  0  0  0  0
 22 24  2  0  0  0  0
 20 21  1  0  0  0  0
 20 22  1  0  0  0  0
 19 20  2  0  0  0  0
 19 28  1  0  0  0  0
 17 18  1  0  0  0  0
 17 19  1  0  0  0  0
 15 16  1  0  0  0  0
 15 17  1  0  0  0  0
 14 15  2  0  0  0  0
 14 28  1  0  0  0  0
 11 12  1  0  0  0  0
 11 13  1  0  0  0  0
 11 14  1  0  0  0  0
  9 10  1  0  0  0  0
  9 11  1  0  0  0  0
  9 29  1  0  0  0  0
  7  8  1  0  0  0  0
  7  9  1  0  0  0  0
 33 34  1  0  0  0  0
 33 35  1  0  0  0  0
 33 36  1  0  0  0  0
 31 32  1  0  0  0  0
 31 33  1  0  0  0  0
M  END
$$$$
default_name
  -OEChem-12212115393D

 36 37  0     1  0  0  0  0  0999 V2000
   -4.0843   -4.0736    1.2944 H   0  0  0  0  0  0  0  0  0  0  0  0
   -4.0342   -3.2816    0.5484 C   0  0  0  0  0  0  0  0  0  0  0  0
   -4.8842   -2.6126    0.6694 H   0  0  0  0  0  0  0  0  0  0  0  0
   -4.0433   -3.7186   -0.4486 H   0  0  0  0  0  0  0  0  0  0  0  0
   -2.7532   -2.5046    0.7444 C   0  0  0  0  0  0  0  0  0  0  0  0
   -1.9803   -2.8096    1.6434 O   0  0  0  0  0  0  0  0  0  0  0  0
   -2.5332   -1.4966   -0.0966 N   0  0  0  0  0  0  0  0  0  0  0  0
   -3.2312   -1.2816   -0.7936 H   0  0  0  0  0  0  0  0  0  0  0  0
   -1.3593   -0.6196   -0.0536 C   0  0  1  0  0  0  0  0  0  0  0  0
   -1.1983   -0.3017    0.9772 H   0  0  0  0  0  0  0  0  0  0  0  0
   -0.1186   -1.4014   -0.5134 C   0  0  0  0  0  0  0  0  0  0  0  0
    0.7521   -0.7459   -0.4538 H   0  0  0  0  0  0  0  0  0  0  0  0
    0.0447   -2.2309    0.1768 H   0  0  0  0  0  0  0  0  0  0  0  0
   -0.1914   -1.9497   -1.9062 C   0  0  0  0  0  0  0  0  0  0  0  0
    0.1764   -1.2941   -3.0299 C   0  0  0  0  0  0  0  0  0  0  0  0
    0.5532   -0.2775   -3.0560 H   0  0  0  0  0  0  0  0  0  0  0  0
    0.0171   -2.1222   -4.1237 N   0  0  0  0  0  0  0  0  0  0  0  0
    0.2267   -1.8410   -5.0704 H   0  0  0  0  0  0  0  0  0  0  0  0
   -0.4484   -3.3664   -3.7549 C   0  0  0  0  0  0  0  0  0  0  0  0
   -0.7363   -4.5341   -4.4759 C   0  0  0  0  0  0  0  0  0  0  0  0
   -0.6027   -4.5628   -5.5473 H   0  0  0  0  0  0  0  0  0  0  0  0
   -1.2027   -5.6656   -3.7851 C   0  0  0  0  0  0  0  0  0  0  0  0
   -1.4309   -6.5748   -4.3248 H   0  0  0  0  0  0  0  0  0  0  0  0
   -1.3790   -5.6120   -2.3904 C   0  0  0  0  0  0  0  0  0  0  0  0
   -1.7459   -6.4822   -1.8640 H   0  0  0  0  0  0  0  0  0  0  0  0
   -1.0883   -4.4323   -1.6761 C   0  0  0  0  0  0  0  0  0  0  0  0
   -1.2408   -4.4005   -0.6067 H   0  0  0  0  0  0  0  0  0  0  0  0
   -0.6124   -3.2808   -2.3399 C   0  0  0  0  0  0  0  0  0  0  0  0
   -1.5796    0.6449   -0.8982 C   0  0  0  0  0  0  0  0  0  0  0  0
   -2.6399    0.8110   -1.4997 O   0  0  0  0  0  0  0  0  0  0  0  0
   -0.5783    1.5340   -0.9441 N   0  0  0  0  0  0  0  0  0  0  0  0
    0.2796    1.2975   -0.4663 H   0  0  0  0  0  0  0  0  0  0  0  0
   -0.6244    2.7853   -1.6955 C   0  0  0  0  0  0  0  0  0  0  0  0
   -1.5277    3.3392   -1.4331 H   0  0  0  0  0  0  0  0  0  0  0  0
    0.2516    3.3935   -1.4663 H   0  0  0  0  0  0  0  0  0  0  0  0
   -0.6446    2.5691   -2.7649 H   0  0  0  0  0  0  0  0  0  0  0  0
  5  6  2  0  0  0  0
  5  7  1  0  0  0  0
  2  3  1  0  0  0  0
  2  4  1  0  0  0  0
  2  5  1  0  0  0  0
  1  2  1  0  0  0  0
 29 30  2  0  0  0  0
 29 31  1  0  0  0  0
 26 27  1  0  0  0  0
 26 28  2  0  0  0  0
 24 25  1  0  0  0  0
 24 26  1  0  0  0  0
 22 23  1  0  0  0  0
 22 24  2  0  0  0  0
 20 21  1  0  0  0  0
 20 22  1  0  0  0  0
 19 20  2  0  0  0  0
 19 28  1  0  0  0  0
 17 18  1  0  0  0  0
 17 19  1  0  0  0  0
 15 16  1  0  0  0  0
 15 17  1  0  0  0  0
 14 15  2  0  0  0  0
 14 28  1  0  0  0  0
 11 12  1  0  0  0  0
 11 13  1  0  0  0  0
 11 14  1  0  0  0  0
  9 10  1  0  0  0  0
  9 11  1  0  0  0  0
  9 29  1  0  0  0  0
  7  8  1  0  0  0  0
  7  9  1  0  0  0  0
 33 34  1  0  0  0  0
 33 35  1  0  0  0  0
 33 36  1  0  0  0  0
 31 32  1  0  0  0  0
 31 33  1  0  0  0  0
M  END
$$$$
default_name
  -OEChem-12212115393D

 36 37  0     1  0  0  0  0  0999 V2000
   -4.0843   -4.0736    1.2944 H   0  0  0  0  0  0  0  0  0  0  0  0
   -4.0342   -3.2816    0.5484 C   0  0  0  0  0  0  0  0  0  0  0  0
   -4.8842   -2.6126    0.6694 H   0  0  0  0  0  0  0  0  0  0  0  0
   -4.0433   -3.7186   -0.4486 H   0  0  0  0  0  0  0  0  0  0  0  0
   -2.7532   -2.5046    0.7444 C   0  0  0  0  0  0  0  0  0  0  0  0
   -1.9803   -2.8096    1.6434 O   0  0  0  0  0  0  0  0  0  0  0  0
   -2.5332   -1.4966   -0.0966 N   0  0  0  0  0  0  0  0  0  0  0  0
   -3.2312   -1.2816   -0.7936 H   0  0  0  0  0  0  0  0  0  0  0  0
   -1.3593   -0.6196   -0.0536 C   0  0  1  0  0  0  0  0  0  0  0  0
   -1.1983   -0.3017    0.9772 H   0  0  0  0  0  0  0  0  0  0  0  0
   -0.1186   -1.4014   -0.5134 C   0  0  0  0  0  0  0  0  0  0  0  0
    0.7521   -0.7459   -0.4538 H   0  0  0  0  0  0  0  0  0  0  0  0
    0.0447   -2.2309    0.1768 H   0  0  0  0  0  0  0  0  0  0  0  0
   -0.1914   -1.9497   -1.9062 C   0  0  0  0  0  0  0  0  0  0  0  0
    0.1764   -1.2941   -3.0299 C   0  0  0  0  0  0  0  0  0  0  0  0
    0.5532   -0.2775   -3.0560 H   0  0  0  0  0  0  0  0  0  0  0  0
    0.0171   -2.1222   -4.1237 N   0  0  0  0  0  0  0  0  0  0  0  0
    0.2267   -1.8410   -5.0704 H   0  0  0  0  0  0  0  0  0  0  0  0
   -0.4484   -3.3664   -3.7549 C   0  0  0  0  0  0  0  0  0  0  0  0
   -0.7363   -4.5341   -4.4759 C   0  0  0  0  0  0  0  0  0  0  0  0
   -0.6027   -4.5628   -5.5473 H   0  0  0  0  0  0  0  0  0  0  0  0
   -1.2027   -5.6656   -3.7851 C   0  0  0  0  0  0  0  0  0  0  0  0
   -1.4309   -6.5748   -4.3248 H   0  0  0  0  0  0  0  0  0  0  0  0
   -1.3790   -5.6120   -2.3904 C   0  0  0  0  0  0  0  0  0  0  0  0
   -1.7459   -6.4822   -1.8640 H   0  0  0  0  0  0  0  0  0  0  0  0
   -1.0883   -4.4323   -1.6761 C   0  0  0  0  0  0  0  0  0  0  0  0
   -1.2408   -4.4005   -0.6067 H   0  0  0  0  0  0  0  0  0  0  0  0
   -0.6124   -3.2808   -2.3399 C   0  0  0  0  0  0  0  0  0  0  0  0
   -1.5796    0.6449   -0.8982 C   0  0  0  0  0  0  0  0  0  0  0  0
   -2.7113    0.9512   -1.2711 O   0  0  0  0  0  0  0  0  0  0  0  0
   -0.4988    1.3768   -1.2003 N   0  0  0  0  0  0  0  0  0  0  0  0
    0.4009    1.0277   -0.9019 H   0  0  0  0  0  0  0  0  0  0  0  0
   -0.5324    2.6047   -1.9898 C   0  0  0  0  0  0  0  0  0  0  0  0
   -1.2724    3.2904   -1.5728 H   0  0  0  0  0  0  0  0  0  0  0  0
    0.4479    3.0830   -1.9823 H   0  0  0  0  0  0  0  0  0  0  0  0
   -0.8125    2.3707   -3.0183 H   0  0  0  0  0  0  0  0  0  0  0  0
  5  6  2  0  0  0  0
  5  7  1  0  0  0  0
  2  3  1  0  0  0  0
  2  4  1  0  0  0  0
  2  5  1  0  0  0  0
  1  2  1  0  0  0  0
 29 30  2  0  0  0  0
 29 31  1  0  0  0  0
 26 27  1  0  0  0  0
 26 28  2  0  0  0  0
 24 25  1  0  0  0  0
 24 26  1  0  0  0  0
 22 23  1  0  0  0  0
 22 24  2  0  0  0  0
 20 21  1  0  0  0  0
 20 22  1  0  0  0  0
 19 20  2  0  0  0  0
 19 28  1  0  0  0  0
 17 18  1  0  0  0  0
 17 19  1  0  0  0  0
 15 16  1  0  0  0  0
 15 17  1  0  0  0  0
 14 15  2  0  0  0  0
 14 28  1  0  0  0  0
 11 12  1  0  0  0  0
 11 13  1  0  0  0  0
 11 14  1  0  0  0  0
  9 10  1  0  0  0  0
  9 11  1  0  0  0  0
  9 29  1  0  0  0  0
  7  8  1  0  0  0  0
  7  9  1  0  0  0  0
 33 34  1  0  0  0  0
 33 35  1  0  0  0  0
 33 36  1  0  0  0  0
 31 32  1  0  0  0  0
 31 33  1  0  0  0  0
M  END
$$$$
default_name
  -OEChem-12212115393D

 36 37  0     1  0  0  0  0  0999 V2000
   -4.0843   -4.0736    1.2944 H   0  0  0  0  0  0  0  0  0  0  0  0
   -4.0342   -3.2816    0.5484 C   0  0  0  0  0  0  0  0  0  0  0  0
   -4.8842   -2.6126    0.6694 H   0  0  0  0  0  0  0  0  0  0  0  0
   -4.0433   -3.7186   -0.4486 H   0  0  0  0  0  0  0  0  0  0  0  0
   -2.7532   -2.5046    0.7444 C   0  0  0  0  0  0  0  0  0  0  0  0
   -1.9803   -2.8096    1.6434 O   0  0  0  0  0  0  0  0  0  0  0  0
   -2.5332   -1.4966   -0.0966 N   0  0  0  0  0  0  0  0  0  0  0  0
   -3.2312   -1.2816   -0.7936 H   0  0  0  0  0  0  0  0  0  0  0  0
   -1.3593   -0.6196   -0.0536 C   0  0  1  0  0  0  0  0  0  0  0  0
   -1.1983   -0.3017    0.9772 H   0  0  0  0  0  0  0  0  0  0  0  0
   -0.1186   -1.4014   -0.5134 C   0  0  0  0  0  0  0  0  0  0  0  0
    0.7521   -0.7459   -0.4538 H   0  0  0  0  0  0  0  0  0  0  0  0
    0.0447   -2.2309    0.1768 H   0  0  0  0  0  0  0  0  0  0  0  0
   -0.1914   -1.9497   -1.9062 C   0  0  0  0  0  0  0  0  0  0  0  0
    0.1764   -1.2941   -3.0299 C   0  0  0  0  0  0  0  0  0  0  0  0
    0.5532   -0.2775   -3.0560 H   0  0  0  0  0  0  0  0  0  0  0  0
    0.0171   -2.1222   -4.1237 N   0  0  0  0  0  0  0  0  0  0  0  0
    0.2267   -1.8410   -5.0704 H   0  0  0  0  0  0  0  0  0  0  0  0
   -0.4484   -3.3664   -3.7549 C   0  0  0  0  0  0  0  0  0  0  0  0
   -0.7363   -4.5341   -4.4759 C   0  0  0  0  0  0  0  0  0  0  0  0
   -0.6027   -4.5628   -5.5473 H   0  0  0  0  0  0  0  0  0  0  0  0
   -1.2027   -5.6656   -3.7851 C   0  0  0  0  0  0  0  0  0  0  0  0
   -1.4309   -6.5748   -4.3248 H   0  0  0  0  0  0  0  0  0  0  0  0
   -1.3790   -5.6120   -2.3904 C   0  0  0  0  0  0  0  0  0  0  0  0
   -1.7459   -6.4822   -1.8640 H   0  0  0  0  0  0  0  0  0  0  0  0
   -1.0883   -4.4323   -1.6761 C   0  0  0  0  0  0  0  0  0  0  0  0
   -1.2408   -4.4005   -0.6067 H   0  0  0  0  0  0  0  0  0  0  0  0
   -0.6124   -3.2808   -2.3399 C   0  0  0  0  0  0  0  0  0  0  0  0
   -1.5796    0.6449   -0.8982 C   0  0  0  0  0  0  0  0  0  0  0  0
   -2.7117    1.1053   -1.0403 O   0  0  0  0  0  0  0  0  0  0  0  0
   -0.4988    1.2041   -1.4589 N   0  0  0  0  0  0  0  0  0  0  0  0
    0.3869    0.7337   -1.3385 H   0  0  0  0  0  0  0  0  0  0  0  0
   -0.5319    2.4063   -2.2871 C   0  0  0  0  0  0  0  0  0  0  0  0
   -1.0625    3.2017   -1.7603 H   0  0  0  0  0  0  0  0  0  0  0  0
    0.4834    2.7361   -2.5110 H   0  0  0  0  0  0  0  0  0  0  0  0
   -1.0568    2.1935   -3.2198 H   0  0  0  0  0  0  0  0  0  0  0  0
  5  6  2  0  0  0  0
  5  7  1  0  0  0  0
  2  3  1  0  0  0  0
  2  4  1  0  0  0  0
  2  5  1  0  0  0  0
  1  2  1  0  0  0  0
 29 30  2  0  0  0  0
 29 31  1  0  0  0  0
 26 27  1  0  0  0  0
 26 28  2  0  0  0  0
 24 25  1  0  0  0  0
 24 26  1  0  0  0  0
 22 23  1  0  0  0  0
 22 24  2  0  0  0  0
 20 21  1  0  0  0  0
 20 22  1  0  0  0  0
 19 20  2  0  0  0  0
 19 28  1  0  0  0  0
 17 18  1  0  0  0  0
 17 19  1  0  0  0  0
 15 16  1  0  0  0  0
 15 17  1  0  0  0  0
 14 15  2  0  0  0  0
 14 28  1  0  0  0  0
 11 12  1  0  0  0  0
 11 13  1  0  0  0  0
 11 14  1  0  0  0  0
  9 10  1  0  0  0  0
  9 11  1  0  0  0  0
  9 29  1  0  0  0  0
  7  8  1  0  0  0  0
  7  9  1  0  0  0  0
 33 34  1  0  0  0  0
 33 35  1  0  0  0  0
 33 36  1  0  0  0  0
 31 32  1  0  0  0  0
 31 33  1  0  0  0  0
M  END
$$$$
default_name
  -OEChem-12212115393D

 36 37  0     1  0  0  0  0  0999 V2000
   -4.0843   -4.0736    1.2944 H   0  0  0  0  0  0  0  0  0  0  0  0
   -4.0342   -3.2816    0.5484 C   0  0  0  0  0  0  0  0  0  0  0  0
   -4.8842   -2.6126    0.6694 H   0  0  0  0  0  0  0  0  0  0  0  0
   -4.0433   -3.7186   -0.4486 H   0  0  0  0  0  0  0  0  0  0  0  0
   -2.7532   -2.5046    0.7444 C   0  0  0  0  0  0  0  0  0  0  0  0
   -1.9803   -2.8096    1.6434 O   0  0  0  0  0  0  0  0  0  0  0  0
   -2.5332   -1.4966   -0.0966 N   0  0  0  0  0  0  0  0  0  0  0  0
   -3.2312   -1.2816   -0.7936 H   0  0  0  0  0  0  0  0  0  0  0  0
   -1.3593   -0.6196   -0.0536 C   0  0  1  0  0  0  0  0  0  0  0  0
   -1.1983   -0.3017    0.9772 H   0  0  0  0  0  0  0  0  0  0  0  0
   -0.1186   -1.4014   -0.5134 C   0  0  0  0  0  0  0  0  0  0  0  0
    0.7521   -0.7459   -0.4538 H   0  0  0  0  0  0  0  0  0  0  0  0
    0.0447   -2.2309    0.1768 H   0  0  0  0  0  0  0  0  0  0  0  0
   -0.1914   -1.9497   -1.9062 C   0  0  0  0  0  0  0  0  0  0  0  0
    0.1764   -1.2941   -3.0299 C   0  0  0  0  0  0  0  0  0  0  0  0
    0.5532   -0.2775   -3.0560 H   0  0  0  0  0  0  0  0  0  0  0  0
    0.0171   -2.1222   -4.1237 N   0  0  0  0  0  0  0  0  0  0  0  0
    0.2267   -1.8410   -5.0704 H   0  0  0  0  0  0  0  0  0  0  0  0
   -0.4484   -3.3664   -3.7549 C   0  0  0  0  0  0  0  0  0  0  0  0
   -0.7363   -4.5341   -4.4759 C   0  0  0  0  0  0  0  0  0  0  0  0
   -0.6027   -4.5628   -5.5473 H   0  0  0  0  0  0  0  0  0  0  0  0
   -1.2027   -5.6656   -3.7851 C   0  0  0  0  0  0  0  0  0  0  0  0
   -1.4309   -6.5748   -4.3248 H   0  0  0  0  0  0  0  0  0  0  0  0
   -1.3790   -5.6120   -2.3904 C   0  0  0  0  0  0  0  0  0  0  0  0
   -1.7459   -6.4822   -1.8640 H   0  0  0  0  0  0  0  0  0  0  0  0
   -1.0883   -4.4323   -1.6761 C   0  0  0  0  0  0  0  0  0  0  0  0
   -1.2408   -4.4005   -0.6067 H   0  0  0  0  0  0  0  0  0  0  0  0
   -0.6124   -3.2808   -2.3399 C   0  0  0  0  0  0  0  0  0  0  0  0
   -1.5796    0.6449   -0.8982 C   0  0  0  0  0  0  0  0  0  0  0  0
   -2.6409    1.2627   -0.8230 O   0  0  0  0  0  0  0  0  0  0  0  0
   -0.5786    1.0277   -1.7022 N   0  0  0  0  0  0  0  0  0  0  0  0
    0.2386    0.4355   -1.7463 H   0  0  0  0  0  0  0  0  0  0  0  0
   -0.6230    2.2035   -2.5669 C   0  0  0  0  0  0  0  0  0  0  0  0
   -0.9123    3.0793   -1.9829 H   0  0  0  0  0  0  0  0  0  0  0  0
    0.3557    2.3764   -3.0164 H   0  0  0  0  0  0  0  0  0  0  0  0
   -1.3610    2.0496   -3.3559 H   0  0  0  0  0  0  0  0  0  0  0  0
  5  6  2  0  0  0  0
  5  7  1  0  0  0  0
  2  3  1  0  0  0  0
  2  4  1  0  0  0  0
  2  5  1  0  0  0  0
  1  2  1  0  0  0  0
 29 30  2  0  0  0  0
 29 31  1  0  0  0  0
 26 27  1  0  0  0  0
 26 28  2  0  0  0  0
 24 25  1  0  0  0  0
 24 26  1  0  0  0  0
 22 23  1  0  0  0  0
 22 24  2  0  0  0  0
 20 21  1  0  0  0  0
 20 22  1  0  0  0  0
 19 20  2  0  0  0  0
 19 28  1  0  0  0  0
 17 18  1  0  0  0  0
 17 19  1  0  0  0  0
 15 16  1  0  0  0  0
 15 17  1  0  0  0  0
 14 15  2  0  0  0  0
 14 28  1  0  0  0  0
 11 12  1  0  0  0  0
 11 13  1  0  0  0  0
 11 14  1  0  0  0  0
  9 10  1  0  0  0  0
  9 11  1  0  0  0  0
  9 29  1  0  0  0  0
  7  8  1  0  0  0  0
  7  9  1  0  0  0  0
 33 34  1  0  0  0  0
 33 35  1  0  0  0  0
 33 36  1  0  0  0  0
 31 32  1  0  0  0  0
 31 33  1  0  0  0  0
M  END
$$$$
default_name
  -OEChem-12212115393D

 36 37  0     1  0  0  0  0  0999 V2000
   -4.0843   -4.0736    1.2944 H   0  0  0  0  0  0  0  0  0  0  0  0
   -4.0342   -3.2816    0.5484 C   0  0  0  0  0  0  0  0  0  0  0  0
   -4.8842   -2.6126    0.6694 H   0  0  0  0  0  0  0  0  0  0  0  0
   -4.0433   -3.7186   -0.4486 H   0  0  0  0  0  0  0  0  0  0  0  0
   -2.7532   -2.5046    0.7444 C   0  0  0  0  0  0  0  0  0  0  0  0
   -1.9803   -2.8096    1.6434 O   0  0  0  0  0  0  0  0  0  0  0  0
   -2.5332   -1.4966   -0.0966 N   0  0  0  0  0  0  0  0  0  0  0  0
   -3.2312   -1.2816   -0.7936 H   0  0  0  0  0  0  0  0  0  0  0  0
   -1.3593   -0.6196   -0.0536 C   0  0  1  0  0  0  0  0  0  0  0  0
   -1.1983   -0.3017    0.9772 H   0  0  0  0  0  0  0  0  0  0  0  0
   -0.1186   -1.4014   -0.5134 C   0  0  0  0  0  0  0  0  0  0  0  0
    0.7521   -0.7459   -0.4538 H   0  0  0  0  0  0  0  0  0  0  0  0
    0.0447   -2.2309    0.1768 H   0  0  0  0  0  0  0  0  0  0  0  0
   -0.1914   -1.9497   -1.9062 C   0  0  0  0  0  0  0  0  0  0  0  0
    0.1764   -1.2941   -3.0299 C   0  0  0  0  0  0  0  0  0  0  0  0
    0.5532   -0.2775   -3.0560 H   0  0  0  0  0  0  0  0  0  0  0  0
    0.0171   -2.1222   -4.1237 N   0  0  0  0  0  0  0  0  0  0  0  0
    0.2267   -1.8410   -5.0704 H   0  0  0  0  0  0  0  0  0  0  0  0
   -0.4484   -3.3664   -3.7549 C   0  0  0  0  0  0  0  0  0  0  0  0
   -0.7363   -4.5341   -4.4759 C   0  0  0  0  0  0  0  0  0  0  0  0
   -0.6027   -4.5628   -5.5473 H   0  0  0  0  0  0  0  0  0  0  0  0
   -1.2027   -5.6656   -3.7851 C   0  0  0  0  0  0  0  0  0  0  0  0
   -1.4309   -6.5748   -4.3248 H   0  0  0  0  0  0  0  0  0  0  0  0
   -1.3790   -5.6120   -2.3904 C   0  0  0  0  0  0  0  0  0  0  0  0
   -1.7459   -6.4822   -1.8640 H   0  0  0  0  0  0  0  0  0  0  0  0
   -1.0883   -4.4323   -1.6761 C   0  0  0  0  0  0  0  0  0  0  0  0
   -1.2408   -4.4005   -0.6067 H   0  0  0  0  0  0  0  0  0  0  0  0
   -0.6124   -3.2808   -2.3399 C   0  0  0  0  0  0  0  0  0  0  0  0
   -1.5796    0.6449   -0.8982 C   0  0  0  0  0  0  0  0  0  0  0  0
   -2.5039    1.4128   -0.6341 O   0  0  0  0  0  0  0  0  0  0  0  0
   -0.7325    0.8596   -1.9138 N   0  0  0  0  0  0  0  0  0  0  0  0
   -0.0340    0.1534   -2.0975 H   0  0  0  0  0  0  0  0  0  0  0  0
   -0.7994    2.0102   -2.8103 C   0  0  0  0  0  0  0  0  0  0  0  0
   -0.8320    2.9313   -2.2254 H   0  0  0  0  0  0  0  0  0  0  0  0
    0.0736    2.0282   -3.4641 H   0  0  0  0  0  0  0  0  0  0  0  0
   -1.7042    1.9488   -3.4173 H   0  0  0  0  0  0  0  0  0  0  0  0
  5  6  2  0  0  0  0
  5  7  1  0  0  0  0
  2  3  1  0  0  0  0
  2  4  1  0  0  0  0
  2  5  1  0  0  0  0
  1  2  1  0  0  0  0
 29 30  2  0  0  0  0
 29 31  1  0  0  0  0
 26 27  1  0  0  0  0
 26 28  2  0  0  0  0
 24 25  1  0  0  0  0
 24 26  1  0  0  0  0
 22 23  1  0  0  0  0
 22 24  2  0  0  0  0
 20 21  1  0  0  0  0
 20 22  1  0  0  0  0
 19 20  2  0  0  0  0
 19 28  1  0  0  0  0
 17 18  1  0  0  0  0
 17 19  1  0  0  0  0
 15 16  1  0  0  0  0
 15 17  1  0  0  0  0
 14 15  2  0  0  0  0
 14 28  1  0  0  0  0
 11 12  1  0  0  0  0
 11 13  1  0  0  0  0
 11 14  1  0  0  0  0
  9 10  1  0  0  0  0
  9 11  1  0  0  0  0
  9 29  1  0  0  0  0
  7  8  1  0  0  0  0
  7  9  1  0  0  0  0
 33 34  1  0  0  0  0
 33 35  1  0  0  0  0
 33 36  1  0  0  0  0
 31 32  1  0  0  0  0
 31 33  1  0  0  0  0
M  END
$$$$
default_name
  -OEChem-12212115393D

 36 37  0     1  0  0  0  0  0999 V2000
   -4.0843   -4.0736    1.2944 H   0  0  0  0  0  0  0  0  0  0  0  0
   -4.0342   -3.2816    0.5484 C   0  0  0  0  0  0  0  0  0  0  0  0
   -4.8842   -2.6126    0.6694 H   0  0  0  0  0  0  0  0  0  0  0  0
   -4.0433   -3.7186   -0.4486 H   0  0  0  0  0  0  0  0  0  0  0  0
   -2.7532   -2.5046    0.7444 C   0  0  0  0  0  0  0  0  0  0  0  0
   -1.9803   -2.8096    1.6434 O   0  0  0  0  0  0  0  0  0  0  0  0
   -2.5332   -1.4966   -0.0966 N   0  0  0  0  0  0  0  0  0  0  0  0
   -3.2312   -1.2816   -0.7936 H   0  0  0  0  0  0  0  0  0  0  0  0
   -1.3593   -0.6196   -0.0536 C   0  0  1  0  0  0  0  0  0  0  0  0
   -1.1983   -0.3017    0.9772 H   0  0  0  0  0  0  0  0  0  0  0  0
   -0.1186   -1.4014   -0.5134 C   0  0  0  0  0  0  0  0  0  0  0  0
    0.7521   -0.7459   -0.4538 H   0  0  0  0  0  0  0  0  0  0  0  0
    0.0447   -2.2309    0.1768 H   0  0  0  0  0  0  0  0  0  0  0  0
   -0.1914   -1.9497   -1.9062 C   0  0  0  0  0  0  0  0  0  0  0  0
    0.1764   -1.2941   -3.0299 C   0  0  0  0  0  0  0  0  0  0  0  0
    0.5532   -0.2775   -3.0560 H   0  0  0  0  0  0  0  0  0  0  0  0
    0.0171   -2.1222   -4.1237 N   0  0  0  0  0  0  0  0  0  0  0  0
    0.2267   -1.8410   -5.0704 H   0  0  0  0  0  0  0  0  0  0  0  0
   -0.4484   -3.3664   -3.7549 C   0  0  0  0  0  0  0  0  0  0  0  0
   -0.7363   -4.5341   -4.4759 C   0  0  0  0  0  0  0  0  0  0  0  0
   -0.6027   -4.5628   -5.5473 H   0  0  0  0  0  0  0  0  0  0  0  0
   -1.2027   -5.6656   -3.7851 C   0  0  0  0  0  0  0  0  0  0  0  0
   -1.4309   -6.5748   -4.3248 H   0  0  0  0  0  0  0  0  0  0  0  0
   -1.3790   -5.6120   -2.3904 C   0  0  0  0  0  0  0  0  0  0  0  0
   -1.7459   -6.4822   -1.8640 H   0  0  0  0  0  0  0  0  0  0  0  0
   -1.0883   -4.4323   -1.6761 C   0  0  0  0  0  0  0  0  0  0  0  0
   -1.2408   -4.4005   -0.6067 H   0  0  0  0  0  0  0  0  0  0  0  0
   -0.6124   -3.2808   -2.3399 C   0  0  0  0  0  0  0  0  0  0  0  0
   -1.5796    0.6449   -0.8982 C   0  0  0  0  0  0  0  0  0  0  0  0
   -2.3099    1.5453   -0.4863 O   0  0  0  0  0  0  0  0  0  0  0  0
   -0.9501    0.7113   -2.0790 N   0  0  0  0  0  0  0  0  0  0  0  0
   -0.4122   -0.0933   -2.3682 H   0  0  0  0  0  0  0  0  0  0  0  0
   -1.0491    1.8396   -3.0007 C   0  0  0  0  0  0  0  0  0  0  0  0
   -0.8271    2.7680   -2.4711 H   0  0  0  0  0  0  0  0  0  0  0  0
   -0.3438    1.7155   -3.8234 H   0  0  0  0  0  0  0  0  0  0  0  0
   -2.0632    1.8981   -3.3996 H   0  0  0  0  0  0  0  0  0  0  0  0
  5  6  2  0  0  0  0
  5  7  1  0  0  0  0
  2  3  1  0  0  0  0
  2  4  1  0  0  0  0
  2  5  1  0  0  0  0
  1  2  1  0  0  0  0
 29 30  2  0  0  0  0
 29 31  1  0  0  0  0
 26 27  1  0  0  0  0
 26 28  2  0  0  0  0
 24 25  1  0  0  0  0
 24 26  1  0  0  0  0
 22 23  1  0  0  0  0
 22 24  2  0  0  0  0
 20 21  1  0  0  0  0
 20 22  1  0  0  0  0
 19 20  2  0  0  0  0
 19 28  1  0  0  0  0
 17 18  1  0  0  0  0
 17 19  1  0  0  0  0
 15 16  1  0  0  0  0
 15 17  1  0  0  0  0
 14 15  2  0  0  0  0
 14 28  1  0  0  0  0
 11 12  1  0  0  0  0
 11 13  1  0  0  0  0
 11 14  1  0  0  0  0
  9 10  1  0  0  0  0
  9 11  1  0  0  0  0
  9 29  1  0  0  0  0
  7  8  1  0  0  0  0
  7  9  1  0  0  0  0
 33 34  1  0  0  0  0
 33 35  1  0  0  0  0
 33 36  1  0  0  0  0
 31 32  1  0  0  0  0
 31 33  1  0  0  0  0
M  END
$$$$
default_name
  -OEChem-12212115393D

 36 37  0     1  0  0  0  0  0999 V2000
   -4.0843   -4.0736    1.2944 H   0  0  0  0  0  0  0  0  0  0  0  0
   -4.0342   -3.2816    0.5484 C   0  0  0  0  0  0  0  0  0  0  0  0
   -4.8842   -2.6126    0.6694 H   0  0  0  0  0  0  0  0  0  0  0  0
   -4.0433   -3.7186   -0.4486 H   0  0  0  0  0  0  0  0  0  0  0  0
   -2.7532   -2.5046    0.7444 C   0  0  0  0  0  0  0  0  0  0  0  0
   -1.9803   -2.8096    1.6434 O   0  0  0  0  0  0  0  0  0  0  0  0
   -2.5332   -1.4966   -0.0966 N   0  0  0  0  0  0  0  0  0  0  0  0
   -3.2312   -1.2816   -0.7936 H   0  0  0  0  0  0  0  0  0  0  0  0
   -1.3593   -0.6196   -0.0536 C   0  0  1  0  0  0  0  0  0  0  0  0
   -1.1983   -0.3017    0.9772 H   0  0  0  0  0  0  0  0  0  0  0  0
   -0.1186   -1.4014   -0.5134 C   0  0  0  0  0  0  0  0  0  0  0  0
    0.7521   -0.7459   -0.4538 H   0  0  0  0  0  0  0  0  0  0  0  0
    0.0447   -2.2309    0.1768 H   0  0  0  0  0  0  0  0  0  0  0  0
   -0.1914   -1.9497   -1.9062 C   0  0  0  0  0  0  0  0  0  0  0  0
    0.1764   -1.2941   -3.0299 C   0  0  0  0  0  0  0  0  0  0  0  0
    0.5532   -0.2775   -3.0560 H   0  0  0  0  0  0  0  0  0  0  0  0
    0.0171   -2.1222   -4.1237 N   0  0  0  0  0  0  0  0  0  0  0  0
    0.2267   -1.8410   -5.0704 H   0  0  0  0  0  0  0  0  0  0  0  0
   -0.4484   -3.3664   -3.7549 C   0  0  0  0  0  0  0  0  0  0  0  0
   -0.7363   -4.5341   -4.4759 C   0  0  0  0  0  0  0  0  0  0  0  0
   -0.6027   -4.5628   -5.5473 H   0  0  0  0  0  0  0  0  0  0  0  0
   -1.2027   -5.6656   -3.7851 C   0  0  0  0  0  0  0  0  0  0  0  0
   -1.4309   -6.5748   -4.3248 H   0  0  0  0  0  0  0  0  0  0  0  0
   -1.3790   -5.6120   -2.3904 C   0  0  0  0  0  0  0  0  0  0  0  0
   -1.7459   -6.4822   -1.8640 H   0  0  0  0  0  0  0  0  0  0  0  0
   -1.0883   -4.4323   -1.6761 C   0  0  0  0  0  0  0  0  0  0  0  0
   -1.2408   -4.4005   -0.6067 H   0  0  0  0  0  0  0  0  0  0  0  0
   -0.6124   -3.2808   -2.3399 C   0  0  0  0  0  0  0  0  0  0  0  0
   -1.5796    0.6449   -0.8982 C   0  0  0  0  0  0  0  0  0  0  0  0
   -2.0723    1.6512   -0.3898 O   0  0  0  0  0  0  0  0  0  0  0  0
   -1.2167    0.5928   -2.1868 N   0  0  0  0  0  0  0  0  0  0  0  0
   -0.8703   -0.2878   -2.5400 H   0  0  0  0  0  0  0  0  0  0  0  0
   -1.3552    1.7032   -3.1250 C   0  0  0  0  0  0  0  0  0  0  0  0
   -0.8981    2.6005   -2.7035 H   0  0  0  0  0  0  0  0  0  0  0  0
   -0.8680    1.4595   -4.0700 H   0  0  0  0  0  0  0  0  0  0  0  0
   -2.4134    1.9007   -3.3043 H   0  0  0  0  0  0  0  0  0  0  0  0
  5  6  2  0  0  0  0
  5  7  1  0  0  0  0
  2  3  1  0  0  0  0
  2  4  1  0  0  0  0
  2  5  1  0  0  0  0
  1  2  1  0  0  0  0
 29 30  2  0  0  0  0
 29 31  1  0  0  0  0
 26 27  1  0  0  0  0
 26 28  2  0  0  0  0
 24 25  1  0  0  0  0
 24 26  1  0  0  0  0
 22 23  1  0  0  0  0
 22 24  2  0  0  0  0
 20 21  1  0  0  0  0
 20 22  1  0  0  0  0
 19 20  2  0  0  0  0
 19 28  1  0  0  0  0
 17 18  1  0  0  0  0
 17 19  1  0  0  0  0
 15 16  1  0  0  0  0
 15 17  1  0  0  0  0
 14 15  2  0  0  0  0
 14 28  1  0  0  0  0
 11 12  1  0  0  0  0
 11 13  1  0  0  0  0
 11 14  1  0  0  0  0
  9 10  1  0  0  0  0
  9 11  1  0  0  0  0
  9 29  1  0  0  0  0
  7  8  1  0  0  0  0
  7  9  1  0  0  0  0
 33 34  1  0  0  0  0
 33 35  1  0  0  0  0
 33 36  1  0  0  0  0
 31 32  1  0  0  0  0
 31 33  1  0  0  0  0
M  END
$$$$
default_name
  -OEChem-12212115393D

 36 37  0     1  0  0  0  0  0999 V2000
   -4.0843   -4.0736    1.2944 H   0  0  0  0  0  0  0  0  0  0  0  0
   -4.0342   -3.2816    0.5484 C   0  0  0  0  0  0  0  0  0  0  0  0
   -4.8842   -2.6126    0.6694 H   0  0  0  0  0  0  0  0  0  0  0  0
   -4.0433   -3.7186   -0.4486 H   0  0  0  0  0  0  0  0  0  0  0  0
   -2.7532   -2.5046    0.7444 C   0  0  0  0  0  0  0  0  0  0  0  0
   -1.9803   -2.8096    1.6434 O   0  0  0  0  0  0  0  0  0  0  0  0
   -2.5332   -1.4966   -0.0966 N   0  0  0  0  0  0  0  0  0  0  0  0
   -3.2312   -1.2816   -0.7936 H   0  0  0  0  0  0  0  0  0  0  0  0
   -1.3593   -0.6196   -0.0536 C   0  0  1  0  0  0  0  0  0  0  0  0
   -1.1983   -0.3017    0.9772 H   0  0  0  0  0  0  0  0  0  0  0  0
   -0.1186   -1.4014   -0.5134 C   0  0  0  0  0  0  0  0  0  0  0  0
    0.7521   -0.7459   -0.4538 H   0  0  0  0  0  0  0  0  0  0  0  0
    0.0447   -2.2309    0.1768 H   0  0  0  0  0  0  0  0  0  0  0  0
   -0.1914   -1.9497   -1.9062 C   0  0  0  0  0  0  0  0  0  0  0  0
    0.1764   -1.2941   -3.0299 C   0  0  0  0  0  0  0  0  0  0  0  0
    0.5532   -0.2775   -3.0560 H   0  0  0  0  0  0  0  0  0  0  0  0
    0.0171   -2.1222   -4.1237 N   0  0  0  0  0  0  0  0  0  0  0  0
    0.2267   -1.8410   -5.0704 H   0  0  0  0  0  0  0  0  0  0  0  0
   -0.4484   -3.3664   -3.7549 C   0  0  0  0  0  0  0  0  0  0  0  0
   -0.7363   -4.5341   -4.4759 C   0  0  0  0  0  0  0  0  0  0  0  0
   -0.6027   -4.5628   -5.5473 H   0  0  0  0  0  0  0  0  0  0  0  0
   -1.2027   -5.6656   -3.7851 C   0  0  0  0  0  0  0  0  0  0  0  0
   -1.4309   -6.5748   -4.3248 H   0  0  0  0  0  0  0  0  0  0  0  0
   -1.3790   -5.6120   -2.3904 C   0  0  0  0  0  0  0  0  0  0  0  0
   -1.7459   -6.4822   -1.8640 H   0  0  0  0  0  0  0  0  0  0  0  0
   -1.0883   -4.4323   -1.6761 C   0  0  0  0  0  0  0  0  0  0  0  0
   -1.2408   -4.4005   -0.6067 H   0  0  0  0  0  0  0  0  0  0  0  0
   -0.6124   -3.2808   -2.3399 C   0  0  0  0  0  0  0  0  0  0  0  0
   -1.5796    0.6449   -0.8982 C   0  0  0  0  0  0  0  0  0  0  0  0
   -1.8071    1.7232   -0.3511 O   0  0  0  0  0  0  0  0  0  0  0  0
   -1.5140    0.5123   -2.2298 N   0  0  0  0  0  0  0  0  0  0  0  0
   -1.3771   -0.4170   -2.6012 H   0  0  0  0  0  0  0  0  0  0  0  0
   -1.6967    1.6104   -3.1749 C   0  0  0  0  0  0  0  0  0  0  0  0
   -1.0399    2.4401   -2.9067 H   0  0  0  0  0  0  0  0  0  0  0  0
   -1.4633    1.2776   -4.1870 H   0  0  0  0  0  0  0  0  0  0  0  0
   -2.7309    1.9567   -3.1377 H   0  0  0  0  0  0  0  0  0  0  0  0
  5  6  2  0  0  0  0
  5  7  1  0  0  0  0
  2  3  1  0  0  0  0
  2  4  1  0  0  0  0
  2  5  1  0  0  0  0
  1  2  1  0  0  0  0
 29 30  2  0  0  0  0
 29 31  1  0  0  0  0
 26 27  1  0  0  0  0
 26 28  2  0  0  0  0
 24 25  1  0  0  0  0
 24 26  1  0  0  0  0
 22 23  1  0  0  0  0
 22 24  2  0  0  0  0
 20 21  1  0  0  0  0
 20 22  1  0  0  0  0
 19 20  2  0  0  0  0
 19 28  1  0  0  0  0
 17 18  1  0  0  0  0
 17 19  1  0  0  0  0
 15 16  1  0  0  0  0
 15 17  1  0  0  0  0
 14 15  2  0  0  0  0
 14 28  1  0  0  0  0
 11 12  1  0  0  0  0
 11 13  1  0  0  0  0
 11 14  1  0  0  0  0
  9 10  1  0  0  0  0
  9 11  1  0  0  0  0
  9 29  1  0  0  0  0
  7  8  1  0  0  0  0
  7  9  1  0  0  0  0
 33 34  1  0  0  0  0
 33 35  1  0  0  0  0
 33 36  1  0  0  0  0
 31 32  1  0  0  0  0
 31 33  1  0  0  0  0
M  END
$$$$
default_name
  -OEChem-12212115393D

 36 37  0     1  0  0  0  0  0999 V2000
   -4.0843   -4.0736    1.2944 H   0  0  0  0  0  0  0  0  0  0  0  0
   -4.0342   -3.2816    0.5484 C   0  0  0  0  0  0  0  0  0  0  0  0
   -4.8842   -2.6126    0.6694 H   0  0  0  0  0  0  0  0  0  0  0  0
   -4.0433   -3.7186   -0.4486 H   0  0  0  0  0  0  0  0  0  0  0  0
   -2.7532   -2.5046    0.7444 C   0  0  0  0  0  0  0  0  0  0  0  0
   -1.9803   -2.8096    1.6434 O   0  0  0  0  0  0  0  0  0  0  0  0
   -2.5332   -1.4966   -0.0966 N   0  0  0  0  0  0  0  0  0  0  0  0
   -3.2312   -1.2816   -0.7936 H   0  0  0  0  0  0  0  0  0  0  0  0
   -1.3593   -0.6196   -0.0536 C   0  0  1  0  0  0  0  0  0  0  0  0
   -1.1983   -0.3017    0.9772 H   0  0  0  0  0  0  0  0  0  0  0  0
   -0.1186   -1.4014   -0.5134 C   0  0  0  0  0  0  0  0  0  0  0  0
    0.7521   -0.7459   -0.4538 H   0  0  0  0  0  0  0  0  0  0  0  0
    0.0447   -2.2309    0.1768 H   0  0  0  0  0  0  0  0  0  0  0  0
   -0.1914   -1.9497   -1.9062 C   0  0  0  0  0  0  0  0  0  0  0  0
    0.1764   -1.2941   -3.0299 C   0  0  0  0  0  0  0  0  0  0  0  0
    0.5532   -0.2775   -3.0560 H   0  0  0  0  0  0  0  0  0  0  0  0
    0.0171   -2.1222   -4.1237 N   0  0  0  0  0  0  0  0  0  0  0  0
    0.2267   -1.8410   -5.0704 H   0  0  0  0  0  0  0  0  0  0  0  0
   -0.4484   -3.3664   -3.7549 C   0  0  0  0  0  0  0  0  0  0  0  0
   -0.7363   -4.5341   -4.4759 C   0  0  0  0  0  0  0  0  0  0  0  0
   -0.6027   -4.5628   -5.5473 H   0  0  0  0  0  0  0  0  0  0  0  0
   -1.2027   -5.6656   -3.7851 C   0  0  0  0  0  0  0  0  0  0  0  0
   -1.4309   -6.5748   -4.3248 H   0  0  0  0  0  0  0  0  0  0  0  0
   -1.3790   -5.6120   -2.3904 C   0  0  0  0  0  0  0  0  0  0  0  0
   -1.7459   -6.4822   -1.8640 H   0  0  0  0  0  0  0  0  0  0  0  0
   -1.0883   -4.4323   -1.6761 C   0  0  0  0  0  0  0  0  0  0  0  0
   -1.2408   -4.4005   -0.6067 H   0  0  0  0  0  0  0  0  0  0  0  0
   -0.6124   -3.2808   -2.3399 C   0  0  0  0  0  0  0  0  0  0  0  0
   -1.5796    0.6449   -0.8982 C   0  0  0  0  0  0  0  0  0  0  0  0
   -1.5324    1.7565   -0.3729 O   0  0  0  0  0  0  0  0  0  0  0  0
   -1.8217    0.4753   -2.2050 N   0  0  0  0  0  0  0  0  0  0  0  0
   -1.8980   -0.4719   -2.5475 H   0  0  0  0  0  0  0  0  0  0  0  0
   -2.0504    1.5675   -3.1468 C   0  0  0  0  0  0  0  0  0  0  0  0
   -1.2430    2.2978   -3.0667 H   0  0  0  0  0  0  0  0  0  0  0  0
   -2.0891    1.1822   -4.1665 H   0  0  0  0  0  0  0  0  0  0  0  0
   -2.9942    2.0620   -2.9112 H   0  0  0  0  0  0  0  0  0  0  0  0
  5  6  2  0  0  0  0
  5  7  1  0  0  0  0
  2  3  1  0  0  0  0
  2  4  1  0  0  0  0
  2  5  1  0  0  0  0
  1  2  1  0  0  0  0
 29 30  2  0  0  0  0
 29 31  1  0  0  0  0
 26 27  1  0  0  0  0
 26 28  2  0  0  0  0
 24 25  1  0  0  0  0
 24 26  1  0  0  0  0
 22 23  1  0  0  0  0
 22 24  2  0  0  0  0
 20 21  1  0  0  0  0
 20 22  1  0  0  0  0
 19 20  2  0  0  0  0
 19 28  1  0  0  0  0
 17 18  1  0  0  0  0
 17 19  1  0  0  0  0
 15 16  1  0  0  0  0
 15 17  1  0  0  0  0
 14 15  2  0  0  0  0
 14 28  1  0  0  0  0
 11 12  1  0  0  0  0
 11 13  1  0  0  0  0
 11 14  1  0  0  0  0
  9 10  1  0  0  0  0
  9 11  1  0  0  0  0
  9 29  1  0  0  0  0
  7  8  1  0  0  0  0
  7  9  1  0  0  0  0
 33 34  1  0  0  0  0
 33 35  1  0  0  0  0
 33 36  1  0  0  0  0
 31 32  1  0  0  0  0
 31 33  1  0  0  0  0
M  END
$$$$
default_name
  -OEChem-12212115393D

 36 37  0     1  0  0  0  0  0999 V2000
   -4.0843   -4.0736    1.2944 H   0  0  0  0  0  0  0  0  0  0  0  0
   -4.0342   -3.2816    0.5484 C   0  0  0  0  0  0  0  0  0  0  0  0
   -4.8842   -2.6126    0.6694 H   0  0  0  0  0  0  0  0  0  0  0  0
   -4.0433   -3.7186   -0.4486 H   0  0  0  0  0  0  0  0  0  0  0  0
   -2.7532   -2.5046    0.7444 C   0  0  0  0  0  0  0  0  0  0  0  0
   -1.9803   -2.8096    1.6434 O   0  0  0  0  0  0  0  0  0  0  0  0
   -2.5332   -1.4966   -0.0966 N   0  0  0  0  0  0  0  0  0  0  0  0
   -3.2312   -1.2816   -0.7936 H   0  0  0  0  0  0  0  0  0  0  0  0
   -1.3593   -0.6196   -0.0536 C   0  0  1  0  0  0  0  0  0  0  0  0
   -1.1983   -0.3017    0.9772 H   0  0  0  0  0  0  0  0  0  0  0  0
   -0.1186   -1.4014   -0.5134 C   0  0  0  0  0  0  0  0  0  0  0  0
    0.7521   -0.7459   -0.4538 H   0  0  0  0  0  0  0  0  0  0  0  0
    0.0447   -2.2309    0.1768 H   0  0  0  0  0  0  0  0  0  0  0  0
   -0.1914   -1.9497   -1.9062 C   0  0  0  0  0  0  0  0  0  0  0  0
    0.1764   -1.2941   -3.0299 C   0  0  0  0  0  0  0  0  0  0  0  0
    0.5532   -0.2775   -3.0560 H   0  0  0  0  0  0  0  0  0  0  0  0
    0.0171   -2.1222   -4.1237 N   0  0  0  0  0  0  0  0  0  0  0  0
    0.2267   -1.8410   -5.0704 H   0  0  0  0  0  0  0  0  0  0  0  0
   -0.4484   -3.3664   -3.7549 C   0  0  0  0  0  0  0  0  0  0  0  0
   -0.7363   -4.5341   -4.4759 C   0  0  0  0  0  0  0  0  0  0  0  0
   -0.6027   -4.5628   -5.5473 H   0  0  0  0  0  0  0  0  0  0  0  0
   -1.2027   -5.6656   -3.7851 C   0  0  0  0  0  0  0  0  0  0  0  0
   -1.4309   -6.5748   -4.3248 H   0  0  0  0  0  0  0  0  0  0  0  0
   -1.3790   -5.6120   -2.3904 C   0  0  0  0  0  0  0  0  0  0  0  0
   -1.7459   -6.4822   -1.8640 H   0  0  0  0  0  0  0  0  0  0  0  0
   -1.0883   -4.4323   -1.6761 C   0  0  0  0  0  0  0  0  0  0  0  0
   -1.2408   -4.4005   -0.6067 H   0  0  0  0  0  0  0  0  0  0  0  0
   -0.6124   -3.2808   -2.3399 C   0  0  0  0  0  0  0  0  0  0  0  0
   -1.5796    0.6449   -0.8982 C   0  0  0  0  0  0  0  0  0  0  0  0
   -1.2671    1.7488   -0.4537 O   0  0  0  0  0  0  0  0  0  0  0  0
   -2.1190    0.4842   -2.1141 N   0  0  0  0  0  0  0  0  0  0  0  0
   -2.3975   -0.4488   -2.3826 H   0  0  0  0  0  0  0  0  0  0  0  0
   -2.3922    1.5774   -3.0428 C   0  0  0  0  0  0  0  0  0  0  0  0
   -1.4935    2.1833   -3.1728 H   0  0  0  0  0  0  0  0  0  0  0  0
   -2.7028    1.1799   -4.0098 H   0  0  0  0  0  0  0  0  0  0  0  0
   -3.1853    2.2097   -2.6402 H   0  0  0  0  0  0  0  0  0  0  0  0
  5  6  2  0  0  0  0
  5  7  1  0  0  0  0
  2  3  1  0  0  0  0
  2  4  1  0  0  0  0
  2  5  1  0  0  0  0
  1  2  1  0  0  0  0
 29 30  2  0  0  0  0
 29 31  1  0  0  0  0
 26 27  1  0  0  0  0
 26 28  2  0  0  0  0
 24 25  1  0  0  0  0
 24 26  1  0  0  0  0
 22 23  1  0  0  0  0
 22 24  2  0  0  0  0
 20 21  1  0  0  0  0
 20 22  1  0  0  0  0
 19 20  2  0  0  0  0
 19 28  1  0  0  0  0
 17 18  1  0  0  0  0
 17 19  1  0  0  0  0
 15 16  1  0  0  0  0
 15 17  1  0  0  0  0
 14 15  2  0  0  0  0
 14 28  1  0  0  0  0
 11 12  1  0  0  0  0
 11 13  1  0  0  0  0
 11 14  1  0  0  0  0
  9 10  1  0  0  0  0
  9 11  1  0  0  0  0
  9 29  1  0  0  0  0
  7  8  1  0  0  0  0
  7  9  1  0  0  0  0
 33 34  1  0  0  0  0
 33 35  1  0  0  0  0
 33 36  1  0  0  0  0
 31 32  1  0  0  0  0
 31 33  1  0  0  0  0
M  END
$$$$
default_name
  -OEChem-12212115393D

 36 37  0     1  0  0  0  0  0999 V2000
   -4.0843   -4.0736    1.2944 H   0  0  0  0  0  0  0  0  0  0  0  0
   -4.0342   -3.2816    0.5484 C   0  0  0  0  0  0  0  0  0  0  0  0
   -4.8842   -2.6126    0.6694 H   0  0  0  0  0  0  0  0  0  0  0  0
   -4.0433   -3.7186   -0.4486 H   0  0  0  0  0  0  0  0  0  0  0  0
   -2.7532   -2.5046    0.7444 C   0  0  0  0  0  0  0  0  0  0  0  0
   -1.9803   -2.8096    1.6434 O   0  0  0  0  0  0  0  0  0  0  0  0
   -2.5332   -1.4966   -0.0966 N   0  0  0  0  0  0  0  0  0  0  0  0
   -3.2312   -1.2816   -0.7936 H   0  0  0  0  0  0  0  0  0  0  0  0
   -1.3593   -0.6196   -0.0536 C   0  0  1  0  0  0  0  0  0  0  0  0
   -1.1983   -0.3017    0.9772 H   0  0  0  0  0  0  0  0  0  0  0  0
   -0.1186   -1.4014   -0.5134 C   0  0  0  0  0  0  0  0  0  0  0  0
    0.7521   -0.7459   -0.4538 H   0  0  0  0  0  0  0  0  0  0  0  0
    0.0447   -2.2309    0.1768 H   0  0  0  0  0  0  0  0  0  0  0  0
   -0.1914   -1.9497   -1.9062 C   0  0  0  0  0  0  0  0  0  0  0  0
    0.1764   -1.2941   -3.0299 C   0  0  0  0  0  0  0  0  0  0  0  0
    0.5532   -0.2775   -3.0560 H   0  0  0  0  0  0  0  0  0  0  0  0
    0.0171   -2.1222   -4.1237 N   0  0  0  0  0  0  0  0  0  0  0  0
    0.2267   -1.8410   -5.0704 H   0  0  0  0  0  0  0  0  0  0  0  0
   -0.4484   -3.3664   -3.7549 C   0  0  0  0  0  0  0  0  0  0  0  0
   -0.7363   -4.5341   -4.4759 C   0  0  0  0  0  0  0  0  0  0  0  0
   -0.6027   -4.5628   -5.5473 H   0  0  0  0  0  0  0  0  0  0  0  0
   -1.2027   -5.6656   -3.7851 C   0  0  0  0  0  0  0  0  0  0  0  0
   -1.4309   -6.5748   -4.3248 H   0  0  0  0  0  0  0  0  0  0  0  0
   -1.3790   -5.6120   -2.3904 C   0  0  0  0  0  0  0  0  0  0  0  0
   -1.7459   -6.4822   -1.8640 H   0  0  0  0  0  0  0  0  0  0  0  0
   -1.0883   -4.4323   -1.6761 C   0  0  0  0  0  0  0  0  0  0  0  0
   -1.2408   -4.4005   -0.6067 H   0  0  0  0  0  0  0  0  0  0  0  0
   -0.6124   -3.2808   -2.3399 C   0  0  0  0  0  0  0  0  0  0  0  0
   -1.5796    0.6449   -0.8982 C   0  0  0  0  0  0  0  0  0  0  0  0
   -1.0290    1.7006   -0.5880 O   0  0  0  0  0  0  0  0  0  0  0  0
   -2.3854    0.5385   -1.9633 N   0  0  0  0  0  0  0  0  0  0  0  0
   -2.8416   -0.3494   -2.1179 H   0  0  0  0  0  0  0  0  0  0  0  0
   -2.6988    1.6395   -2.8699 C   0  0  0  0  0  0  0  0  0  0  0  0
   -1.7743    2.1044   -3.2176 H   0  0  0  0  0  0  0  0  0  0  0  0
   -3.2626    1.2708   -3.7277 H   0  0  0  0  0  0  0  0  0  0  0  0
   -3.2912    2.3896   -2.3433 H   0  0  0  0  0  0  0  0  0  0  0  0
  5  6  2  0  0  0  0
  5  7  1  0  0  0  0
  2  3  1  0  0  0  0
  2  4  1  0  0  0  0
  2  5  1  0  0  0  0
  1  2  1  0  0  0  0
 29 30  2  0  0  0  0
 29 31  1  0  0  0  0
 26 27  1  0  0  0  0
 26 28  2  0  0  0  0
 24 25  1  0  0  0  0
 24 26  1  0  0  0  0
 22 23  1  0  0  0  0
 22 24  2  0  0  0  0
 20 21  1  0  0  0  0
 20 22  1  0  0  0  0
 19 20  2  0  0  0  0
 19 28  1  0  0  0  0
 17 18  1  0  0  0  0
 17 19  1  0  0  0  0
 15 16  1  0  0  0  0
 15 17  1  0  0  0  0
 14 15  2  0  0  0  0
 14 28  1  0  0  0  0
 11 12  1  0  0  0  0
 11 13  1  0  0  0  0
 11 14  1  0  0  0  0
  9 10  1  0  0  0  0
  9 11  1  0  0  0  0
  9 29  1  0  0  0  0
  7  8  1  0  0  0  0
  7  9  1  0  0  0  0
 33 34  1  0  0  0  0
 33 35  1  0  0  0  0
 33 36  1  0  0  0  0
 31 32  1  0  0  0  0
 31 33  1  0  0  0  0
M  END
$$$$
default_name
  -OEChem-12212115393D

 36 37  0     1  0  0  0  0  0999 V2000
   -4.0843   -4.0736    1.2944 H   0  0  0  0  0  0  0  0  0  0  0  0
   -4.0342   -3.2816    0.5484 C   0  0  0  0  0  0  0  0  0  0  0  0
   -4.8842   -2.6126    0.6694 H   0  0  0  0  0  0  0  0  0  0  0  0
   -4.0433   -3.7186   -0.4486 H   0  0  0  0  0  0  0  0  0  0  0  0
   -2.7532   -2.5046    0.7444 C   0  0  0  0  0  0  0  0  0  0  0  0
   -1.9803   -2.8096    1.6434 O   0  0  0  0  0  0  0  0  0  0  0  0
   -2.5332   -1.4966   -0.0966 N   0  0  0  0  0  0  0  0  0  0  0  0
   -3.2312   -1.2816   -0.7936 H   0  0  0  0  0  0  0  0  0  0  0  0
   -1.3593   -0.6196   -0.0536 C   0  0  1  0  0  0  0  0  0  0  0  0
   -1.1983   -0.3017    0.9772 H   0  0  0  0  0  0  0  0  0  0  0  0
   -0.1186   -1.4014   -0.5134 C   0  0  0  0  0  0  0  0  0  0  0  0
    0.7521   -0.7459   -0.4538 H   0  0  0  0  0  0  0  0  0  0  0  0
    0.0447   -2.2309    0.1768 H   0  0  0  0  0  0  0  0  0  0  0  0
   -0.1914   -1.9497   -1.9062 C   0  0  0  0  0  0  0  0  0  0  0  0
    0.1764   -1.2941   -3.0299 C   0  0  0  0  0  0  0  0  0  0  0  0
    0.5532   -0.2775   -3.0560 H   0  0  0  0  0  0  0  0  0  0  0  0
    0.0171   -2.1222   -4.1237 N   0  0  0  0  0  0  0  0  0  0  0  0
    0.2267   -1.8410   -5.0704 H   0  0  0  0  0  0  0  0  0  0  0  0
   -0.4484   -3.3664   -3.7549 C   0  0  0  0  0  0  0  0  0  0  0  0
   -0.7363   -4.5341   -4.4759 C   0  0  0  0  0  0  0  0  0  0  0  0
   -0.6027   -4.5628   -5.5473 H   0  0  0  0  0  0  0  0  0  0  0  0
   -1.2027   -5.6656   -3.7851 C   0  0  0  0  0  0  0  0  0  0  0  0
   -1.4309   -6.5748   -4.3248 H   0  0  0  0  0  0  0  0  0  0  0  0
   -1.3790   -5.6120   -2.3904 C   0  0  0  0  0  0  0  0  0  0  0  0
   -1.7459   -6.4822   -1.8640 H   0  0  0  0  0  0  0  0  0  0  0  0
   -1.0883   -4.4323   -1.6761 C   0  0  0  0  0  0  0  0  0  0  0  0
   -1.2408   -4.4005   -0.6067 H   0  0  0  0  0  0  0  0  0  0  0  0
   -0.6124   -3.2808   -2.3399 C   0  0  0  0  0  0  0  0  0  0  0  0
   -1.5796    0.6449   -0.8982 C   0  0  0  0  0  0  0  0  0  0  0  0
   -0.8346    1.6151   -0.7666 O   0  0  0  0  0  0  0  0  0  0  0  0
   -2.6030    0.6344   -1.7629 N   0  0  0  0  0  0  0  0  0  0  0  0
   -3.2000   -0.1803   -1.7712 H   0  0  0  0  0  0  0  0  0  0  0  0
   -2.9492    1.7495   -2.6398 C   0  0  0  0  0  0  0  0  0  0  0  0
   -2.0664    2.0665   -3.1982 H   0  0  0  0  0  0  0  0  0  0  0  0
   -3.7302    1.4487   -3.3393 H   0  0  0  0  0  0  0  0  0  0  0  0
   -3.3046    2.5894   -2.0406 H   0  0  0  0  0  0  0  0  0  0  0  0
  5  6  2  0  0  0  0
  5  7  1  0  0  0  0
  2  3  1  0  0  0  0
  2  4  1  0  0  0  0
  2  5  1  0  0  0  0
  1  2  1  0  0  0  0
 29 30  2  0  0  0  0
 29 31  1  0  0  0  0
 26 27  1  0  0  0  0
 26 28  2  0  0  0  0
 24 25  1  0  0  0  0
 24 26  1  0  0  0  0
 22 23  1  0  0  0  0
 22 24  2  0  0  0  0
 20 21  1  0  0  0  0
 20 22  1  0  0  0  0
 19 20  2  0  0  0  0
 19 28  1  0  0  0  0
 17 18  1  0  0  0  0
 17 19  1  0  0  0  0
 15 16  1  0  0  0  0
 15 17  1  0  0  0  0
 14 15  2  0  0  0  0
 14 28  1  0  0  0  0
 11 12  1  0  0  0  0
 11 13  1  0  0  0  0
 11 14  1  0  0  0  0
  9 10  1  0  0  0  0
  9 11  1  0  0  0  0
  9 29  1  0  0  0  0
  7  8  1  0  0  0  0
  7  9  1  0  0  0  0
 33 34  1  0  0  0  0
 33 35  1  0  0  0  0
 33 36  1  0  0  0  0
 31 32  1  0  0  0  0
 31 33  1  0  0  0  0
M  END
$$$$
default_name
  -OEChem-12212115393D

 36 37  0     1  0  0  0  0  0999 V2000
   -4.0843   -4.0736    1.2944 H   0  0  0  0  0  0  0  0  0  0  0  0
   -4.0342   -3.2816    0.5484 C   0  0  0  0  0  0  0  0  0  0  0  0
   -4.8842   -2.6126    0.6694 H   0  0  0  0  0  0  0  0  0  0  0  0
   -4.0433   -3.7186   -0.4486 H   0  0  0  0  0  0  0  0  0  0  0  0
   -2.7532   -2.5046    0.7444 C   0  0  0  0  0  0  0  0  0  0  0  0
   -1.9803   -2.8096    1.6434 O   0  0  0  0  0  0  0  0  0  0  0  0
   -2.5332   -1.4966   -0.0966 N   0  0  0  0  0  0  0  0  0  0  0  0
   -3.2312   -1.2816   -0.7936 H   0  0  0  0  0  0  0  0  0  0  0  0
   -1.3593   -0.6196   -0.0536 C   0  0  1  0  0  0  0  0  0  0  0  0
   -1.1983   -0.3017    0.9772 H   0  0  0  0  0  0  0  0  0  0  0  0
   -0.1186   -1.4014   -0.5134 C   0  0  0  0  0  0  0  0  0  0  0  0
    0.7521   -0.7459   -0.4538 H   0  0  0  0  0  0  0  0  0  0  0  0
    0.0447   -2.2309    0.1768 H   0  0  0  0  0  0  0  0  0  0  0  0
   -0.1914   -1.9497   -1.9062 C   0  0  0  0  0  0  0  0  0  0  0  0
    0.1764   -1.2941   -3.0299 C   0  0  0  0  0  0  0  0  0  0  0  0
    0.5532   -0.2775   -3.0560 H   0  0  0  0  0  0  0  0  0  0  0  0
    0.0171   -2.1222   -4.1237 N   0  0  0  0  0  0  0  0  0  0  0  0
    0.2267   -1.8410   -5.0704 H   0  0  0  0  0  0  0  0  0  0  0  0
   -0.4484   -3.3664   -3.7549 C   0  0  0  0  0  0  0  0  0  0  0  0
   -0.7363   -4.5341   -4.4759 C   0  0  0  0  0  0  0  0  0  0  0  0
   -0.6027   -4.5628   -5.5473 H   0  0  0  0  0  0  0  0  0  0  0  0
   -1.2027   -5.6656   -3.7851 C   0  0  0  0  0  0  0  0  0  0  0  0
   -1.4309   -6.5748   -4.3248 H   0  0  0  0  0  0  0  0  0  0  0  0
   -1.3790   -5.6120   -2.3904 C   0  0  0  0  0  0  0  0  0  0  0  0
   -1.7459   -6.4822   -1.8640 H   0  0  0  0  0  0  0  0  0  0  0  0
   -1.0883   -4.4323   -1.6761 C   0  0  0  0  0  0  0  0  0  0  0  0
   -1.2408   -4.4005   -0.6067 H   0  0  0  0  0  0  0  0  0  0  0  0
   -0.6124   -3.2808   -2.3399 C   0  0  0  0  0  0  0  0  0  0  0  0
   -1.5796    0.6449   -0.8982 C   0  0  0  0  0  0  0  0  0  0  0  0
   -0.6970    1.4983   -0.9774 O   0  0  0  0  0  0  0  0  0  0  0  0
   -2.7568    0.7655   -1.5265 N   0  0  0  0  0  0  0  0  0  0  0  0
   -3.4483    0.0468   -1.3663 H   0  0  0  0  0  0  0  0  0  0  0  0
   -3.1265    1.8999   -2.3684 C   0  0  0  0  0  0  0  0  0  0  0  0
   -2.3497    2.0722   -3.1158 H   0  0  0  0  0  0  0  0  0  0  0  0
   -4.0739    1.7015   -2.8712 H   0  0  0  0  0  0  0  0  0  0  0  0
   -3.2246    2.7955   -1.7527 H   0  0  0  0  0  0  0  0  0  0  0  0
  5  6  2  0  0  0  0
  5  7  1  0  0  0  0
  2  3  1  0  0  0  0
  2  4  1  0  0  0  0
  2  5  1  0  0  0  0
  1  2  1  0  0  0  0
 29 30  2  0  0  0  0
 29 31  1  0  0  0  0
 26 27  1  0  0  0  0
 26 28  2  0  0  0  0
 24 25  1  0  0  0  0
 24 26  1  0  0  0  0
 22 23  1  0  0  0  0
 22 24  2  0  0  0  0
 20 21  1  0  0  0  0
 20 22  1  0  0  0  0
 19 20  2  0  0  0  0
 19 28  1  0  0  0  0
 17 18  1  0  0  0  0
 17 19  1  0  0  0  0
 15 16  1  0  0  0  0
 15 17  1  0  0  0  0
 14 15  2  0  0  0  0
 14 28  1  0  0  0  0
 11 12  1  0  0  0  0
 11 13  1  0  0  0  0
 11 14  1  0  0  0  0
  9 10  1  0  0  0  0
  9 11  1  0  0  0  0
  9 29  1  0  0  0  0
  7  8  1  0  0  0  0
  7  9  1  0  0  0  0
 33 34  1  0  0  0  0
 33 35  1  0  0  0  0
 33 36  1  0  0  0  0
 31 32  1  0  0  0  0
 31 33  1  0  0  0  0
M  END
$$$$
default_name
  -OEChem-12212115393D

 36 37  0     1  0  0  0  0  0999 V2000
   -4.0843   -4.0736    1.2944 H   0  0  0  0  0  0  0  0  0  0  0  0
   -4.0342   -3.2816    0.5484 C   0  0  0  0  0  0  0  0  0  0  0  0
   -4.8842   -2.6126    0.6694 H   0  0  0  0  0  0  0  0  0  0  0  0
   -4.0433   -3.7186   -0.4486 H   0  0  0  0  0  0  0  0  0  0  0  0
   -2.7532   -2.5046    0.7444 C   0  0  0  0  0  0  0  0  0  0  0  0
   -1.9803   -2.8096    1.6434 O   0  0  0  0  0  0  0  0  0  0  0  0
   -2.5332   -1.4966   -0.0966 N   0  0  0  0  0  0  0  0  0  0  0  0
   -3.2312   -1.2816   -0.7936 H   0  0  0  0  0  0  0  0  0  0  0  0
   -1.3593   -0.6196   -0.0536 C   0  0  1  0  0  0  0  0  0  0  0  0
   -1.1983   -0.3017    0.9772 H   0  0  0  0  0  0  0  0  0  0  0  0
   -0.1186   -1.4014   -0.5134 C   0  0  0  0  0  0  0  0  0  0  0  0
    0.7521   -0.7459   -0.4538 H   0  0  0  0  0  0  0  0  0  0  0  0
    0.0447   -2.2309    0.1768 H   0  0  0  0  0  0  0  0  0  0  0  0
   -0.1914   -1.9497   -1.9062 C   0  0  0  0  0  0  0  0  0  0  0  0
    0.1764   -1.2941   -3.0299 C   0  0  0  0  0  0  0  0  0  0  0  0
    0.5532   -0.2775   -3.0560 H   0  0  0  0  0  0  0  0  0  0  0  0
    0.0171   -2.1222   -4.1237 N   0  0  0  0  0  0  0  0  0  0  0  0
    0.2267   -1.8410   -5.0704 H   0  0  0  0  0  0  0  0  0  0  0  0
   -0.4484   -3.3664   -3.7549 C   0  0  0  0  0  0  0  0  0  0  0  0
   -0.7363   -4.5341   -4.4759 C   0  0  0  0  0  0  0  0  0  0  0  0
   -0.6027   -4.5628   -5.5473 H   0  0  0  0  0  0  0  0  0  0  0  0
   -1.2027   -5.6656   -3.7851 C   0  0  0  0  0  0  0  0  0  0  0  0
   -1.4309   -6.5748   -4.3248 H   0  0  0  0  0  0  0  0  0  0  0  0
   -1.3790   -5.6120   -2.3904 C   0  0  0  0  0  0  0  0  0  0  0  0
   -1.7459   -6.4822   -1.8640 H   0  0  0  0  0  0  0  0  0  0  0  0
   -1.0883   -4.4323   -1.6761 C   0  0  0  0  0  0  0  0  0  0  0  0
   -1.2408   -4.4005   -0.6067 H   0  0  0  0  0  0  0  0  0  0  0  0
   -0.6124   -3.2808   -2.3399 C   0  0  0  0  0  0  0  0  0  0  0  0
   -1.5796    0.6449   -0.8982 C   0  0  0  0  0  0  0  0  0  0  0  0
   -0.6256    1.3581   -1.2060 O   0  0  0  0  0  0  0  0  0  0  0  0
   -2.8364    0.9227   -1.2703 N   0  0  0  0  0  0  0  0  0  0  0  0
   -3.5696    0.3166   -0.9307 H   0  0  0  0  0  0  0  0  0  0  0  0
   -3.2185    2.0804   -2.0740 C   0  0  0  0  0  0  0  0  0  0  0  0
   -2.6050    2.1210   -2.9761 H   0  0  0  0  0  0  0  0  0  0  0  0
   -4.2702    2.0119   -2.3552 H   0  0  0  0  0  0  0  0  0  0  0  0
   -3.0568    2.9940   -1.4994 H   0  0  0  0  0  0  0  0  0  0  0  0
  5  6  2  0  0  0  0
  5  7  1  0  0  0  0
  2  3  1  0  0  0  0
  2  4  1  0  0  0  0
  2  5  1  0  0  0  0
  1  2  1  0  0  0  0
 29 30  2  0  0  0  0
 29 31  1  0  0  0  0
 26 27  1  0  0  0  0
 26 28  2  0  0  0  0
 24 25  1  0  0  0  0
 24 26  1  0  0  0  0
 22 23  1  0  0  0  0
 22 24  2  0  0  0  0
 20 21  1  0  0  0  0
 20 22  1  0  0  0  0
 19 20  2  0  0  0  0
 19 28  1  0  0  0  0
 17 18  1  0  0  0  0
 17 19  1  0  0  0  0
 15 16  1  0  0  0  0
 15 17  1  0  0  0  0
 14 15  2  0  0  0  0
 14 28  1  0  0  0  0
 11 12  1  0  0  0  0
 11 13  1  0  0  0  0
 11 14  1  0  0  0  0
  9 10  1  0  0  0  0
  9 11  1  0  0  0  0
  9 29  1  0  0  0  0
  7  8  1  0  0  0  0
  7  9  1  0  0  0  0
 33 34  1  0  0  0  0
 33 35  1  0  0  0  0
 33 36  1  0  0  0  0
 31 32  1  0  0  0  0
 31 33  1  0  0  0  0
M  END
$$$$
default_name
  -OEChem-12212115393D

 36 37  0     1  0  0  0  0  0999 V2000
   -4.0843   -4.0736    1.2944 H   0  0  0  0  0  0  0  0  0  0  0  0
   -4.0342   -3.2816    0.5484 C   0  0  0  0  0  0  0  0  0  0  0  0
   -4.8842   -2.6126    0.6694 H   0  0  0  0  0  0  0  0  0  0  0  0
   -4.0433   -3.7186   -0.4486 H   0  0  0  0  0  0  0  0  0  0  0  0
   -2.7532   -2.5046    0.7444 C   0  0  0  0  0  0  0  0  0  0  0  0
   -1.9803   -2.8096    1.6434 O   0  0  0  0  0  0  0  0  0  0  0  0
   -2.5332   -1.4966   -0.0966 N   0  0  0  0  0  0  0  0  0  0  0  0
   -3.2312   -1.2816   -0.7936 H   0  0  0  0  0  0  0  0  0  0  0  0
   -1.3593   -0.6196   -0.0536 C   0  0  1  0  0  0  0  0  0  0  0  0
   -1.1983   -0.3017    0.9772 H   0  0  0  0  0  0  0  0  0  0  0  0
   -0.1186   -1.4014   -0.5134 C   0  0  0  0  0  0  0  0  0  0  0  0
    0.7521   -0.7459   -0.4538 H   0  0  0  0  0  0  0  0  0  0  0  0
    0.0447   -2.2309    0.1768 H   0  0  0  0  0  0  0  0  0  0  0  0
   -0.1914   -1.9497   -1.9062 C   0  0  0  0  0  0  0  0  0  0  0  0
    0.1764   -1.2941   -3.0299 C   0  0  0  0  0  0  0  0  0  0  0  0
    0.5532   -0.2775   -3.0560 H   0  0  0  0  0  0  0  0  0  0  0  0
    0.0171   -2.1222   -4.1237 N   0  0  0  0  0  0  0  0  0  0  0  0
    0.2267   -1.8410   -5.0704 H   0  0  0  0  0  0  0  0  0  0  0  0
   -0.4484   -3.3664   -3.7549 C   0  0  0  0  0  0  0  0  0  0  0  0
   -0.7363   -4.5341   -4.4759 C   0  0  0  0  0  0  0  0  0  0  0  0
   -0.6027   -4.5628   -5.5473 H   0  0  0  0  0  0  0  0  0  0  0  0
   -1.2027   -5.6656   -3.7851 C   0  0  0  0  0  0  0  0  0  0  0  0
   -1.4309   -6.5748   -4.3248 H   0  0  0  0  0  0  0  0  0  0  0  0
   -1.3790   -5.6120   -2.3904 C   0  0  0  0  0  0  0  0  0  0  0  0
   -1.7459   -6.4822   -1.8640 H   0  0  0  0  0  0  0  0  0  0  0  0
   -1.0883   -4.4323   -1.6761 C   0  0  0  0  0  0  0  0  0  0  0  0
   -1.2408   -4.4005   -0.6067 H   0  0  0  0  0  0  0  0  0  0  0  0
   -0.6124   -3.2808   -2.3399 C   0  0  0  0  0  0  0  0  0  0  0  0
   -1.5796    0.6449   -0.8982 C   0  0  0  0  0  0  0  0  0  0  0  0
   -0.6252    1.2041   -1.4368 O   0  0  0  0  0  0  0  0  0  0  0  0
   -2.8363    1.0954   -1.0117 N   0  0  0  0  0  0  0  0  0  0  0  0
   -3.5556    0.6106   -0.4941 H   0  0  0  0  0  0  0  0  0  0  0  0
   -3.2190    2.2789   -1.7768 C   0  0  0  0  0  0  0  0  0  0  0  0
   -2.8150    2.2097   -2.7885 H   0  0  0  0  0  0  0  0  0  0  0  0
   -4.3057    2.3588   -1.8265 H   0  0  0  0  0  0  0  0  0  0  0  0
   -2.8125    3.1712   -1.2978 H   0  0  0  0  0  0  0  0  0  0  0  0
  5  6  2  0  0  0  0
  5  7  1  0  0  0  0
  2  3  1  0  0  0  0
  2  4  1  0  0  0  0
  2  5  1  0  0  0  0
  1  2  1  0  0  0  0
 29 30  2  0  0  0  0
 29 31  1  0  0  0  0
 26 27  1  0  0  0  0
 26 28  2  0  0  0  0
 24 25  1  0  0  0  0
 24 26  1  0  0  0  0
 22 23  1  0  0  0  0
 22 24  2  0  0  0  0
 20 21  1  0  0  0  0
 20 22  1  0  0  0  0
 19 20  2  0  0  0  0
 19 28  1  0  0  0  0
 17 18  1  0  0  0  0
 17 19  1  0  0  0  0
 15 16  1  0  0  0  0
 15 17  1  0  0  0  0
 14 15  2  0  0  0  0
 14 28  1  0  0  0  0
 11 12  1  0  0  0  0
 11 13  1  0  0  0  0
 11 14  1  0  0  0  0
  9 10  1  0  0  0  0
  9 11  1  0  0  0  0
  9 29  1  0  0  0  0
  7  8  1  0  0  0  0
  7  9  1  0  0  0  0
 33 34  1  0  0  0  0
 33 35  1  0  0  0  0
 33 36  1  0  0  0  0
 31 32  1  0  0  0  0
 31 33  1  0  0  0  0
M  END
$$$$
default_name
  -OEChem-12212115393D

 36 37  0     1  0  0  0  0  0999 V2000
   -4.0843   -4.0736    1.2944 H   0  0  0  0  0  0  0  0  0  0  0  0
   -4.0342   -3.2816    0.5484 C   0  0  0  0  0  0  0  0  0  0  0  0
   -4.8842   -2.6126    0.6694 H   0  0  0  0  0  0  0  0  0  0  0  0
   -4.0433   -3.7186   -0.4486 H   0  0  0  0  0  0  0  0  0  0  0  0
   -2.7532   -2.5046    0.7444 C   0  0  0  0  0  0  0  0  0  0  0  0
   -1.9803   -2.8096    1.6434 O   0  0  0  0  0  0  0  0  0  0  0  0
   -2.5332   -1.4966   -0.0966 N   0  0  0  0  0  0  0  0  0  0  0  0
   -3.2312   -1.2816   -0.7936 H   0  0  0  0  0  0  0  0  0  0  0  0
   -1.3593   -0.6196   -0.0536 C   0  0  1  0  0  0  0  0  0  0  0  0
   -1.1983   -0.3017    0.9772 H   0  0  0  0  0  0  0  0  0  0  0  0
   -0.1186   -1.4014   -0.5134 C   0  0  0  0  0  0  0  0  0  0  0  0
    0.7521   -0.7459   -0.4538 H   0  0  0  0  0  0  0  0  0  0  0  0
    0.0447   -2.2309    0.1768 H   0  0  0  0  0  0  0  0  0  0  0  0
   -0.1914   -1.9497   -1.9062 C   0  0  0  0  0  0  0  0  0  0  0  0
    0.1764   -1.2941   -3.0299 C   0  0  0  0  0  0  0  0  0  0  0  0
    0.5532   -0.2775   -3.0560 H   0  0  0  0  0  0  0  0  0  0  0  0
    0.0171   -2.1222   -4.1237 N   0  0  0  0  0  0  0  0  0  0  0  0
    0.2267   -1.8410   -5.0704 H   0  0  0  0  0  0  0  0  0  0  0  0
   -0.4484   -3.3664   -3.7549 C   0  0  0  0  0  0  0  0  0  0  0  0
   -0.7363   -4.5341   -4.4759 C   0  0  0  0  0  0  0  0  0  0  0  0
   -0.6027   -4.5628   -5.5473 H   0  0  0  0  0  0  0  0  0  0  0  0
   -1.2027   -5.6656   -3.7851 C   0  0  0  0  0  0  0  0  0  0  0  0
   -1.4309   -6.5748   -4.3248 H   0  0  0  0  0  0  0  0  0  0  0  0
   -1.3790   -5.6120   -2.3904 C   0  0  0  0  0  0  0  0  0  0  0  0
   -1.7459   -6.4822   -1.8640 H   0  0  0  0  0  0  0  0  0  0  0  0
   -1.0883   -4.4323   -1.6761 C   0  0  0  0  0  0  0  0  0  0  0  0
   -1.2408   -4.4005   -0.6067 H   0  0  0  0  0  0  0  0  0  0  0  0
   -0.6124   -3.2808   -2.3399 C   0  0  0  0  0  0  0  0  0  0  0  0
   -1.5796    0.6449   -0.8982 C   0  0  0  0  0  0  0  0  0  0  0  0
   -0.6960    1.0466   -1.6541 O   0  0  0  0  0  0  0  0  0  0  0  0
   -2.7566    1.2718   -0.7684 N   0  0  0  0  0  0  0  0  0  0  0  0
   -3.4073    0.9088   -0.0864 H   0  0  0  0  0  0  0  0  0  0  0  0
   -3.1279    2.4816   -1.4969 C   0  0  0  0  0  0  0  0  0  0  0  0
   -2.9652    2.3321   -2.5660 H   0  0  0  0  0  0  0  0  0  0  0  0
   -4.1780    2.7186   -1.3211 H   0  0  0  0  0  0  0  0  0  0  0  0
   -2.5083    3.3151   -1.1617 H   0  0  0  0  0  0  0  0  0  0  0  0
  5  6  2  0  0  0  0
  5  7  1  0  0  0  0
  2  3  1  0  0  0  0
  2  4  1  0  0  0  0
  2  5  1  0  0  0  0
  1  2  1  0  0  0  0
 29 30  2  0  0  0  0
 29 31  1  0  0  0  0
 26 27  1  0  0  0  0
 26 28  2  0  0  0  0
 24 25  1  0  0  0  0
 24 26  1  0  0  0  0
 22 23  1  0  0  0  0
 22 24  2  0  0  0  0
 20 21  1  0  0  0  0
 20 22  1  0  0  0  0
 19 20  2  0  0  0  0
 19 28  1  0  0  0  0
 17 18  1  0  0  0  0
 17 19  1  0  0  0  0
 15 16  1  0  0  0  0
 15 17  1  0  0  0  0
 14 15  2  0  0  0  0
 14 28  1  0  0  0  0
 11 12  1  0  0  0  0
 11 13  1  0  0  0  0
 11 14  1  0  0  0  0
  9 10  1  0  0  0  0
  9 11  1  0  0  0  0
  9 29  1  0  0  0  0
  7  8  1  0  0  0  0
  7  9  1  0  0  0  0
 33 34  1  0  0  0  0
 33 35  1  0  0  0  0
 33 36  1  0  0  0  0
 31 32  1  0  0  0  0
 31 33  1  0  0  0  0
M  END
$$$$
default_name
  -OEChem-12212115393D

 36 37  0     1  0  0  0  0  0999 V2000
   -4.0843   -4.0736    1.2944 H   0  0  0  0  0  0  0  0  0  0  0  0
   -4.0342   -3.2816    0.5484 C   0  0  0  0  0  0  0  0  0  0  0  0
   -4.8842   -2.6126    0.6694 H   0  0  0  0  0  0  0  0  0  0  0  0
   -4.0433   -3.7186   -0.4486 H   0  0  0  0  0  0  0  0  0  0  0  0
   -2.7532   -2.5046    0.7444 C   0  0  0  0  0  0  0  0  0  0  0  0
   -1.9803   -2.8096    1.6434 O   0  0  0  0  0  0  0  0  0  0  0  0
   -2.5332   -1.4966   -0.0966 N   0  0  0  0  0  0  0  0  0  0  0  0
   -3.2312   -1.2816   -0.7936 H   0  0  0  0  0  0  0  0  0  0  0  0
   -1.3593   -0.6196   -0.0536 C   0  0  1  0  0  0  0  0  0  0  0  0
   -1.1983   -0.3017    0.9772 H   0  0  0  0  0  0  0  0  0  0  0  0
   -0.1186   -1.4014   -0.5134 C   0  0  0  0  0  0  0  0  0  0  0  0
    0.7521   -0.7459   -0.4538 H   0  0  0  0  0  0  0  0  0  0  0  0
    0.0447   -2.2309    0.1768 H   0  0  0  0  0  0  0  0  0  0  0  0
   -0.1914   -1.9497   -1.9062 C   0  0  0  0  0  0  0  0  0  0  0  0
    0.1764   -1.2941   -3.0299 C   0  0  0  0  0  0  0  0  0  0  0  0
    0.5532   -0.2775   -3.0560 H   0  0  0  0  0  0  0  0  0  0  0  0
    0.0171   -2.1222   -4.1237 N   0  0  0  0  0  0  0  0  0  0  0  0
    0.2267   -1.8410   -5.0704 H   0  0  0  0  0  0  0  0  0  0  0  0
   -0.4484   -3.3664   -3.7549 C   0  0  0  0  0  0  0  0  0  0  0  0
   -0.7363   -4.5341   -4.4759 C   0  0  0  0  0  0  0  0  0  0  0  0
   -0.6027   -4.5628   -5.5473 H   0  0  0  0  0  0  0  0  0  0  0  0
   -1.2027   -5.6656   -3.7851 C   0  0  0  0  0  0  0  0  0  0  0  0
   -1.4309   -6.5748   -4.3248 H   0  0  0  0  0  0  0  0  0  0  0  0
   -1.3790   -5.6120   -2.3904 C   0  0  0  0  0  0  0  0  0  0  0  0
   -1.7459   -6.4822   -1.8640 H   0  0  0  0  0  0  0  0  0  0  0  0
   -1.0883   -4.4323   -1.6761 C   0  0  0  0  0  0  0  0  0  0  0  0
   -1.2408   -4.4005   -0.6067 H   0  0  0  0  0  0  0  0  0  0  0  0
   -0.6124   -3.2808   -2.3399 C   0  0  0  0  0  0  0  0  0  0  0  0
   -1.5796    0.6449   -0.8982 C   0  0  0  0  0  0  0  0  0  0  0  0
   -0.8330    0.8965   -1.8431 O   0  0  0  0  0  0  0  0  0  0  0  0
   -2.6027    1.4399   -0.5568 N   0  0  0  0  0  0  0  0  0  0  0  0
   -3.1347    1.1908    0.2649 H   0  0  0  0  0  0  0  0  0  0  0  0
   -2.9515    2.6749   -1.2535 C   0  0  0  0  0  0  0  0  0  0  0  0
   -3.0454    2.4801   -2.3235 H   0  0  0  0  0  0  0  0  0  0  0  0
   -3.8959    3.0667   -0.8734 H   0  0  0  0  0  0  0  0  0  0  0  0
   -2.1650    3.4158   -1.1004 H   0  0  0  0  0  0  0  0  0  0  0  0
  5  6  2  0  0  0  0
  5  7  1  0  0  0  0
  2  3  1  0  0  0  0
  2  4  1  0  0  0  0
  2  5  1  0  0  0  0
  1  2  1  0  0  0  0
 29 30  2  0  0  0  0
 29 31  1  0  0  0  0
 26 27  1  0  0  0  0
 26 28  2  0  0  0  0
 24 25  1  0  0  0  0
 24 26  1  0  0  0  0
 22 23  1  0  0  0  0
 22 24  2  0  0  0  0
 20 21  1  0  0  0  0
 20 22  1  0  0  0  0
 19 20  2  0  0  0  0
 19 28  1  0  0  0  0
 17 18  1  0  0  0  0
 17 19  1  0  0  0  0
 15 16  1  0  0  0  0
 15 17  1  0  0  0  0
 14 15  2  0  0  0  0
 14 28  1  0  0  0  0
 11 12  1  0  0  0  0
 11 13  1  0  0  0  0
 11 14  1  0  0  0  0
  9 10  1  0  0  0  0
  9 11  1  0  0  0  0
  9 29  1  0  0  0  0
  7  8  1  0  0  0  0
  7  9  1  0  0  0  0
 33 34  1  0  0  0  0
 33 35  1  0  0  0  0
 33 36  1  0  0  0  0
 31 32  1  0  0  0  0
 31 33  1  0  0  0  0
M  END
$$$$
default_name
  -OEChem-12212115393D

 36 37  0     1  0  0  0  0  0999 V2000
   -4.0843   -4.0736    1.2944 H   0  0  0  0  0  0  0  0  0  0  0  0
   -4.0342   -3.2816    0.5484 C   0  0  0  0  0  0  0  0  0  0  0  0
   -4.8842   -2.6126    0.6694 H   0  0  0  0  0  0  0  0  0  0  0  0
   -4.0433   -3.7186   -0.4486 H   0  0  0  0  0  0  0  0  0  0  0  0
   -2.7532   -2.5046    0.7444 C   0  0  0  0  0  0  0  0  0  0  0  0
   -1.9803   -2.8096    1.6434 O   0  0  0  0  0  0  0  0  0  0  0  0
   -2.5332   -1.4966   -0.0966 N   0  0  0  0  0  0  0  0  0  0  0  0
   -3.2312   -1.2816   -0.7936 H   0  0  0  0  0  0  0  0  0  0  0  0
   -1.3593   -0.6196   -0.0536 C   0  0  1  0  0  0  0  0  0  0  0  0
   -1.1983   -0.3017    0.9772 H   0  0  0  0  0  0  0  0  0  0  0  0
   -0.1186   -1.4014   -0.5134 C   0  0  0  0  0  0  0  0  0  0  0  0
    0.7521   -0.7459   -0.4538 H   0  0  0  0  0  0  0  0  0  0  0  0
    0.0447   -2.2309    0.1768 H   0  0  0  0  0  0  0  0  0  0  0  0
   -0.1914   -1.9497   -1.9062 C   0  0  0  0  0  0  0  0  0  0  0  0
    0.1764   -1.2941   -3.0299 C   0  0  0  0  0  0  0  0  0  0  0  0
    0.5532   -0.2775   -3.0560 H   0  0  0  0  0  0  0  0  0  0  0  0
    0.0171   -2.1222   -4.1237 N   0  0  0  0  0  0  0  0  0  0  0  0
    0.2267   -1.8410   -5.0704 H   0  0  0  0  0  0  0  0  0  0  0  0
   -0.4484   -3.3664   -3.7549 C   0  0  0  0  0  0  0  0  0  0  0  0
   -0.7363   -4.5341   -4.4759 C   0  0  0  0  0  0  0  0  0  0  0  0
   -0.6027   -4.5628   -5.5473 H   0  0  0  0  0  0  0  0  0  0  0  0
   -1.2027   -5.6656   -3.7851 C   0  0  0  0  0  0  0  0  0  0  0  0
   -1.4309   -6.5748   -4.3248 H   0  0  0  0  0  0  0  0  0  0  0  0
   -1.3790   -5.6120   -2.3904 C   0  0  0  0  0  0  0  0  0  0  0  0
   -1.7459   -6.4822   -1.8640 H   0  0  0  0  0  0  0  0  0  0  0  0
   -1.0883   -4.4323   -1.6761 C   0  0  0  0  0  0  0  0  0  0  0  0
   -1.2408   -4.4005   -0.6067 H   0  0  0  0  0  0  0  0  0  0  0  0
   -0.6124   -3.2808   -2.3399 C   0  0  0  0  0  0  0  0  0  0  0  0
   -1.5796    0.6449   -0.8982 C   0  0  0  0  0  0  0  0  0  0  0  0
   -1.0269    0.7640   -1.9909 O   0  0  0  0  0  0  0  0  0  0  0  0
   -2.3850    1.5882   -0.3915 N   0  0  0  0  0  0  0  0  0  0  0  0
   -2.7565    1.4376    0.5356 H   0  0  0  0  0  0  0  0  0  0  0  0
   -2.7017    2.8456   -1.0632 C   0  0  0  0  0  0  0  0  0  0  0  0
   -3.0503    2.6434   -2.0777 H   0  0  0  0  0  0  0  0  0  0  0  0
   -3.4785    3.3794   -0.5141 H   0  0  0  0  0  0  0  0  0  0  0  0
   -1.8061    3.4666   -1.1180 H   0  0  0  0  0  0  0  0  0  0  0  0
  5  6  2  0  0  0  0
  5  7  1  0  0  0  0
  2  3  1  0  0  0  0
  2  4  1  0  0  0  0
  2  5  1  0  0  0  0
  1  2  1  0  0  0  0
 29 30  2  0  0  0  0
 29 31  1  0  0  0  0
 26 27  1  0  0  0  0
 26 28  2  0  0  0  0
 24 25  1  0  0  0  0
 24 26  1  0  0  0  0
 22 23  1  0  0  0  0
 22 24  2  0  0  0  0
 20 21  1  0  0  0  0
 20 22  1  0  0  0  0
 19 20  2  0  0  0  0
 19 28  1  0  0  0  0
 17 18  1  0  0  0  0
 17 19  1  0  0  0  0
 15 16  1  0  0  0  0
 15 17  1  0  0  0  0
 14 15  2  0  0  0  0
 14 28  1  0  0  0  0
 11 12  1  0  0  0  0
 11 13  1  0  0  0  0
 11 14  1  0  0  0  0
  9 10  1  0  0  0  0
  9 11  1  0  0  0  0
  9 29  1  0  0  0  0
  7  8  1  0  0  0  0
  7  9  1  0  0  0  0
 33 34  1  0  0  0  0
 33 35  1  0  0  0  0
 33 36  1  0  0  0  0
 31 32  1  0  0  0  0
 31 33  1  0  0  0  0
M  END
$$$$
default_name
  -OEChem-12212115393D

 36 37  0     1  0  0  0  0  0999 V2000
   -4.0843   -4.0736    1.2944 H   0  0  0  0  0  0  0  0  0  0  0  0
   -4.0342   -3.2816    0.5484 C   0  0  0  0  0  0  0  0  0  0  0  0
   -4.8842   -2.6126    0.6694 H   0  0  0  0  0  0  0  0  0  0  0  0
   -4.0433   -3.7186   -0.4486 H   0  0  0  0  0  0  0  0  0  0  0  0
   -2.7532   -2.5046    0.7444 C   0  0  0  0  0  0  0  0  0  0  0  0
   -1.9803   -2.8096    1.6434 O   0  0  0  0  0  0  0  0  0  0  0  0
   -2.5332   -1.4966   -0.0966 N   0  0  0  0  0  0  0  0  0  0  0  0
   -3.2312   -1.2816   -0.7936 H   0  0  0  0  0  0  0  0  0  0  0  0
   -1.3593   -0.6196   -0.0536 C   0  0  1  0  0  0  0  0  0  0  0  0
   -1.1983   -0.3017    0.9772 H   0  0  0  0  0  0  0  0  0  0  0  0
   -0.1186   -1.4014   -0.5134 C   0  0  0  0  0  0  0  0  0  0  0  0
    0.7521   -0.7459   -0.4538 H   0  0  0  0  0  0  0  0  0  0  0  0
    0.0447   -2.2309    0.1768 H   0  0  0  0  0  0  0  0  0  0  0  0
   -0.1914   -1.9497   -1.9062 C   0  0  0  0  0  0  0  0  0  0  0  0
    0.1764   -1.2941   -3.0299 C   0  0  0  0  0  0  0  0  0  0  0  0
    0.5532   -0.2775   -3.0560 H   0  0  0  0  0  0  0  0  0  0  0  0
    0.0171   -2.1222   -4.1237 N   0  0  0  0  0  0  0  0  0  0  0  0
    0.2267   -1.8410   -5.0704 H   0  0  0  0  0  0  0  0  0  0  0  0
   -0.4484   -3.3664   -3.7549 C   0  0  0  0  0  0  0  0  0  0  0  0
   -0.7363   -4.5341   -4.4759 C   0  0  0  0  0  0  0  0  0  0  0  0
   -0.6027   -4.5628   -5.5473 H   0  0  0  0  0  0  0  0  0  0  0  0
   -1.2027   -5.6656   -3.7851 C   0  0  0  0  0  0  0  0  0  0  0  0
   -1.4309   -6.5748   -4.3248 H   0  0  0  0  0  0  0  0  0  0  0  0
   -1.3790   -5.6120   -2.3904 C   0  0  0  0  0  0  0  0  0  0  0  0
   -1.7459   -6.4822   -1.8640 H   0  0  0  0  0  0  0  0  0  0  0  0
   -1.0883   -4.4323   -1.6761 C   0  0  0  0  0  0  0  0  0  0  0  0
   -1.2408   -4.4005   -0.6067 H   0  0  0  0  0  0  0  0  0  0  0  0
   -0.6124   -3.2808   -2.3399 C   0  0  0  0  0  0  0  0  0  0  0  0
   -1.5796    0.6449   -0.8982 C   0  0  0  0  0  0  0  0  0  0  0  0
   -1.2646    0.6582   -2.0874 O   0  0  0  0  0  0  0  0  0  0  0  0
   -2.1185    1.7067   -0.2837 N   0  0  0  0  0  0  0  0  0  0  0  0
   -2.2984    1.6321    0.7074 H   0  0  0  0  0  0  0  0  0  0  0  0
   -2.3957    2.9820   -0.9388 C   0  0  0  0  0  0  0  0  0  0  0  0
   -2.9794    2.8109   -1.8453 H   0  0  0  0  0  0  0  0  0  0  0  0
   -2.9543    3.6354   -0.2675 H   0  0  0  0  0  0  0  0  0  0  0  0
   -1.4559    3.4640   -1.2134 H   0  0  0  0  0  0  0  0  0  0  0  0
  5  6  2  0  0  0  0
  5  7  1  0  0  0  0
  2  3  1  0  0  0  0
  2  4  1  0  0  0  0
  2  5  1  0  0  0  0
  1  2  1  0  0  0  0
 29 30  2  0  0  0  0
 29 31  1  0  0  0  0
 26 27  1  0  0  0  0
 26 28  2  0  0  0  0
 24 25  1  0  0  0  0
 24 26  1  0  0  0  0
 22 23  1  0  0  0  0
 22 24  2  0  0  0  0
 20 21  1  0  0  0  0
 20 22  1  0  0  0  0
 19 20  2  0  0  0  0
 19 28  1  0  0  0  0
 17 18  1  0  0  0  0
 17 19  1  0  0  0  0
 15 16  1  0  0  0  0
 15 17  1  0  0  0  0
 14 15  2  0  0  0  0
 14 28  1  0  0  0  0
 11 12  1  0  0  0  0
 11 13  1  0  0  0  0
 11 14  1  0  0  0  0
  9 10  1  0  0  0  0
  9 11  1  0  0  0  0
  9 29  1  0  0  0  0
  7  8  1  0  0  0  0
  7  9  1  0  0  0  0
 33 34  1  0  0  0  0
 33 35  1  0  0  0  0
 33 36  1  0  0  0  0
 31 32  1  0  0  0  0
 31 33  1  0  0  0  0
M  END
$$$$
default_name
  -OEChem-12212115393D

 36 37  0     1  0  0  0  0  0999 V2000
   -4.0843   -4.0736    1.2944 H   0  0  0  0  0  0  0  0  0  0  0  0
   -4.0342   -3.2816    0.5484 C   0  0  0  0  0  0  0  0  0  0  0  0
   -4.8842   -2.6126    0.6694 H   0  0  0  0  0  0  0  0  0  0  0  0
   -4.0433   -3.7186   -0.4486 H   0  0  0  0  0  0  0  0  0  0  0  0
   -2.7532   -2.5046    0.7444 C   0  0  0  0  0  0  0  0  0  0  0  0
   -1.9803   -2.8096    1.6434 O   0  0  0  0  0  0  0  0  0  0  0  0
   -2.5332   -1.4966   -0.0966 N   0  0  0  0  0  0  0  0  0  0  0  0
   -3.2312   -1.2816   -0.7936 H   0  0  0  0  0  0  0  0  0  0  0  0
   -1.3593   -0.6196   -0.0536 C   0  0  1  0  0  0  0  0  0  0  0  0
   -1.1983   -0.3017    0.9772 H   0  0  0  0  0  0  0  0  0  0  0  0
   -0.1186   -1.4014   -0.5134 C   0  0  0  0  0  0  0  0  0  0  0  0
    0.7521   -0.7459   -0.4538 H   0  0  0  0  0  0  0  0  0  0  0  0
    0.0447   -2.2309    0.1768 H   0  0  0  0  0  0  0  0  0  0  0  0
   -0.1914   -1.9497   -1.9062 C   0  0  0  0  0  0  0  0  0  0  0  0
    0.1764   -1.2941   -3.0299 C   0  0  0  0  0  0  0  0  0  0  0  0
    0.5532   -0.2775   -3.0560 H   0  0  0  0  0  0  0  0  0  0  0  0
    0.0171   -2.1222   -4.1237 N   0  0  0  0  0  0  0  0  0  0  0  0
    0.2267   -1.8410   -5.0704 H   0  0  0  0  0  0  0  0  0  0  0  0
   -0.4484   -3.3664   -3.7549 C   0  0  0  0  0  0  0  0  0  0  0  0
   -0.7363   -4.5341   -4.4759 C   0  0  0  0  0  0  0  0  0  0  0  0
   -0.6027   -4.5628   -5.5473 H   0  0  0  0  0  0  0  0  0  0  0  0
   -1.2027   -5.6656   -3.7851 C   0  0  0  0  0  0  0  0  0  0  0  0
   -1.4309   -6.5748   -4.3248 H   0  0  0  0  0  0  0  0  0  0  0  0
   -1.3790   -5.6120   -2.3904 C   0  0  0  0  0  0  0  0  0  0  0  0
   -1.7459   -6.4822   -1.8640 H   0  0  0  0  0  0  0  0  0  0  0  0
   -1.0883   -4.4323   -1.6761 C   0  0  0  0  0  0  0  0  0  0  0  0
   -1.2408   -4.4005   -0.6067 H   0  0  0  0  0  0  0  0  0  0  0  0
   -0.6124   -3.2808   -2.3399 C   0  0  0  0  0  0  0  0  0  0  0  0
   -1.5796    0.6449   -0.8982 C   0  0  0  0  0  0  0  0  0  0  0  0
   -1.5298    0.5861   -2.1260 O   0  0  0  0  0  0  0  0  0  0  0  0
   -1.8212    1.7871   -0.2408 N   0  0  0  0  0  0  0  0  0  0  0  0
   -1.7916    1.7612    0.7685 H   0  0  0  0  0  0  0  0  0  0  0  0
   -2.0541    3.0747   -0.8890 C   0  0  0  0  0  0  0  0  0  0  0  0
   -2.8375    2.9713   -1.6422 H   0  0  0  0  0  0  0  0  0  0  0  0
   -2.3590    3.8173   -0.1505 H   0  0  0  0  0  0  0  0  0  0  0  0
   -1.1383    3.4080   -1.3800 H   0  0  0  0  0  0  0  0  0  0  0  0
  5  6  2  0  0  0  0
  5  7  1  0  0  0  0
  2  3  1  0  0  0  0
  2  4  1  0  0  0  0
  2  5  1  0  0  0  0
  1  2  1  0  0  0  0
 29 30  2  0  0  0  0
 29 31  1  0  0  0  0
 26 27  1  0  0  0  0
 26 28  2  0  0  0  0
 24 25  1  0  0  0  0
 24 26  1  0  0  0  0
 22 23  1  0  0  0  0
 22 24  2  0  0  0  0
 20 21  1  0  0  0  0
 20 22  1  0  0  0  0
 19 20  2  0  0  0  0
 19 28  1  0  0  0  0
 17 18  1  0  0  0  0
 17 19  1  0  0  0  0
 15 16  1  0  0  0  0
 15 17  1  0  0  0  0
 14 15  2  0  0  0  0
 14 28  1  0  0  0  0
 11 12  1  0  0  0  0
 11 13  1  0  0  0  0
 11 14  1  0  0  0  0
  9 10  1  0  0  0  0
  9 11  1  0  0  0  0
  9 29  1  0  0  0  0
  7  8  1  0  0  0  0
  7  9  1  0  0  0  0
 33 34  1  0  0  0  0
 33 35  1  0  0  0  0
 33 36  1  0  0  0  0
 31 32  1  0  0  0  0
 31 33  1  0  0  0  0
M  END
$$$$
default_name
  -OEChem-12212115393D

 36 37  0     1  0  0  0  0  0999 V2000
   -4.0843   -4.0736    1.2944 H   0  0  0  0  0  0  0  0  0  0  0  0
   -4.0342   -3.2816    0.5484 C   0  0  0  0  0  0  0  0  0  0  0  0
   -4.8842   -2.6126    0.6694 H   0  0  0  0  0  0  0  0  0  0  0  0
   -4.0433   -3.7186   -0.4486 H   0  0  0  0  0  0  0  0  0  0  0  0
   -2.7532   -2.5046    0.7444 C   0  0  0  0  0  0  0  0  0  0  0  0
   -1.9803   -2.8096    1.6434 O   0  0  0  0  0  0  0  0  0  0  0  0
   -2.5332   -1.4966   -0.0966 N   0  0  0  0  0  0  0  0  0  0  0  0
   -3.2312   -1.2816   -0.7936 H   0  0  0  0  0  0  0  0  0  0  0  0
   -1.3593   -0.6196   -0.0536 C   0  0  1  0  0  0  0  0  0  0  0  0
   -1.1983   -0.3017    0.9772 H   0  0  0  0  0  0  0  0  0  0  0  0
   -0.1186   -1.4014   -0.5134 C   0  0  0  0  0  0  0  0  0  0  0  0
    0.7521   -0.7459   -0.4538 H   0  0  0  0  0  0  0  0  0  0  0  0
    0.0447   -2.2309    0.1768 H   0  0  0  0  0  0  0  0  0  0  0  0
   -0.1914   -1.9497   -1.9062 C   0  0  0  0  0  0  0  0  0  0  0  0
    0.1764   -1.2941   -3.0299 C   0  0  0  0  0  0  0  0  0  0  0  0
    0.5532   -0.2775   -3.0560 H   0  0  0  0  0  0  0  0  0  0  0  0
    0.0171   -2.1222   -4.1237 N   0  0  0  0  0  0  0  0  0  0  0  0
    0.2267   -1.8410   -5.0704 H   0  0  0  0  0  0  0  0  0  0  0  0
   -0.4484   -3.3664   -3.7549 C   0  0  0  0  0  0  0  0  0  0  0  0
   -0.7363   -4.5341   -4.4759 C   0  0  0  0  0  0  0  0  0  0  0  0
   -0.6027   -4.5628   -5.5473 H   0  0  0  0  0  0  0  0  0  0  0  0
   -1.2027   -5.6656   -3.7851 C   0  0  0  0  0  0  0  0  0  0  0  0
   -1.4309   -6.5748   -4.3248 H   0  0  0  0  0  0  0  0  0  0  0  0
   -1.3790   -5.6120   -2.3904 C   0  0  0  0  0  0  0  0  0  0  0  0
   -1.7459   -6.4822   -1.8640 H   0  0  0  0  0  0  0  0  0  0  0  0
   -1.0883   -4.4323   -1.6761 C   0  0  0  0  0  0  0  0  0  0  0  0
   -1.2408   -4.4005   -0.6067 H   0  0  0  0  0  0  0  0  0  0  0  0
   -0.6124   -3.2808   -2.3399 C   0  0  0  0  0  0  0  0  0  0  0  0
   -1.5796    0.6449   -0.8982 C   0  0  0  0  0  0  0  0  0  0  0  0
   -1.8044    0.5528   -2.1042 O   0  0  0  0  0  0  0  0  0  0  0  0
   -1.5134    1.8242   -0.2656 N   0  0  0  0  0  0  0  0  0  0  0  0
   -1.2707    1.8162    0.7148 H   0  0  0  0  0  0  0  0  0  0  0  0
   -1.7005    3.1176   -0.9170 C   0  0  0  0  0  0  0  0  0  0  0  0
   -2.6345    3.1136   -1.4821 H   0  0  0  0  0  0  0  0  0  0  0  0
   -1.7331    3.9127   -0.1710 H   0  0  0  0  0  0  0  0  0  0  0  0
   -0.8750    3.3026   -1.6065 H   0  0  0  0  0  0  0  0  0  0  0  0
  5  6  2  0  0  0  0
  5  7  1  0  0  0  0
  2  3  1  0  0  0  0
  2  4  1  0  0  0  0
  2  5  1  0  0  0  0
  1  2  1  0  0  0  0
 29 30  2  0  0  0  0
 29 31  1  0  0  0  0
 26 27  1  0  0  0  0
 26 28  2  0  0  0  0
 24 25  1  0  0  0  0
 24 26  1  0  0  0  0
 22 23  1  0  0  0  0
 22 24  2  0  0  0  0
 20 21  1  0  0  0  0
 20 22  1  0  0  0  0
 19 20  2  0  0  0  0
 19 28  1  0  0  0  0
 17 18  1  0  0  0  0
 17 19  1  0  0  0  0
 15 16  1  0  0  0  0
 15 17  1  0  0  0  0
 14 15  2  0  0  0  0
 14 28  1  0  0  0  0
 11 12  1  0  0  0  0
 11 13  1  0  0  0  0
 11 14  1  0  0  0  0
  9 10  1  0  0  0  0
  9 11  1  0  0  0  0
  9 29  1  0  0  0  0
  7  8  1  0  0  0  0
  7  9  1  0  0  0  0
 33 34  1  0  0  0  0
 33 35  1  0  0  0  0
 33 36  1  0  0  0  0
 31 32  1  0  0  0  0
 31 33  1  0  0  0  0
M  END
$$$$
default_name
  -OEChem-12212115393D

 36 37  0     1  0  0  0  0  0999 V2000
   -4.0843   -4.0736    1.2944 H   0  0  0  0  0  0  0  0  0  0  0  0
   -4.0342   -3.2816    0.5484 C   0  0  0  0  0  0  0  0  0  0  0  0
   -4.8842   -2.6126    0.6694 H   0  0  0  0  0  0  0  0  0  0  0  0
   -4.0433   -3.7186   -0.4486 H   0  0  0  0  0  0  0  0  0  0  0  0
   -2.7532   -2.5046    0.7444 C   0  0  0  0  0  0  0  0  0  0  0  0
   -1.9803   -2.8096    1.6434 O   0  0  0  0  0  0  0  0  0  0  0  0
   -2.5332   -1.4966   -0.0966 N   0  0  0  0  0  0  0  0  0  0  0  0
   -3.2312   -1.2816   -0.7936 H   0  0  0  0  0  0  0  0  0  0  0  0
   -1.3593   -0.6196   -0.0536 C   0  0  1  0  0  0  0  0  0  0  0  0
   -1.1983   -0.3017    0.9772 H   0  0  0  0  0  0  0  0  0  0  0  0
   -0.1186   -1.4014   -0.5134 C   0  0  0  0  0  0  0  0  0  0  0  0
    0.7521   -0.7459   -0.4538 H   0  0  0  0  0  0  0  0  0  0  0  0
    0.0447   -2.2309    0.1768 H   0  0  0  0  0  0  0  0  0  0  0  0
   -0.1914   -1.9497   -1.9062 C   0  0  0  0  0  0  0  0  0  0  0  0
    0.1764   -1.2941   -3.0299 C   0  0  0  0  0  0  0  0  0  0  0  0
    0.5532   -0.2775   -3.0560 H   0  0  0  0  0  0  0  0  0  0  0  0
    0.0171   -2.1222   -4.1237 N   0  0  0  0  0  0  0  0  0  0  0  0
    0.2267   -1.8410   -5.0704 H   0  0  0  0  0  0  0  0  0  0  0  0
   -0.4484   -3.3664   -3.7549 C   0  0  0  0  0  0  0  0  0  0  0  0
   -0.7363   -4.5341   -4.4759 C   0  0  0  0  0  0  0  0  0  0  0  0
   -0.6027   -4.5628   -5.5473 H   0  0  0  0  0  0  0  0  0  0  0  0
   -1.2027   -5.6656   -3.7851 C   0  0  0  0  0  0  0  0  0  0  0  0
   -1.4309   -6.5748   -4.3248 H   0  0  0  0  0  0  0  0  0  0  0  0
   -1.3790   -5.6120   -2.3904 C   0  0  0  0  0  0  0  0  0  0  0  0
   -1.7459   -6.4822   -1.8640 H   0  0  0  0  0  0  0  0  0  0  0  0
   -1.0883   -4.4323   -1.6761 C   0  0  0  0  0  0  0  0  0  0  0  0
   -1.2408   -4.4005   -0.6067 H   0  0  0  0  0  0  0  0  0  0  0  0
   -0.6124   -3.2808   -2.3399 C   0  0  0  0  0  0  0  0  0  0  0  0
   -1.5796    0.6449   -0.8982 C   0  0  0  0  0  0  0  0  0  0  0  0
   -2.0698    0.5605   -2.0234 O   0  0  0  0  0  0  0  0  0  0  0  0
   -1.2162    1.8153   -0.3565 N   0  0  0  0  0  0  0  0  0  0  0  0
   -0.7712    1.7931    0.5500 H   0  0  0  0  0  0  0  0  0  0  0  0
   -1.3587    3.1077   -1.0211 C   0  0  0  0  0  0  0  0  0  0  0  0
   -2.3840    3.2281   -1.3761 H   0  0  0  0  0  0  0  0  0  0  0  0
   -1.1195    3.9150   -0.3276 H   0  0  0  0  0  0  0  0  0  0  0  0
   -0.6840    3.1550   -1.8775 H   0  0  0  0  0  0  0  0  0  0  0  0
  5  6  2  0  0  0  0
  5  7  1  0  0  0  0
  2  3  1  0  0  0  0
  2  4  1  0  0  0  0
  2  5  1  0  0  0  0
  1  2  1  0  0  0  0
 29 30  2  0  0  0  0
 29 31  1  0  0  0  0
 26 27  1  0  0  0  0
 26 28  2  0  0  0  0
 24 25  1  0  0  0  0
 24 26  1  0  0  0  0
 22 23  1  0  0  0  0
 22 24  2  0  0  0  0
 20 21  1  0  0  0  0
 20 22  1  0  0  0  0
 19 20  2  0  0  0  0
 19 28  1  0  0  0  0
 17 18  1  0  0  0  0
 17 19  1  0  0  0  0
 15 16  1  0  0  0  0
 15 17  1  0  0  0  0
 14 15  2  0  0  0  0
 14 28  1  0  0  0  0
 11 12  1  0  0  0  0
 11 13  1  0  0  0  0
 11 14  1  0  0  0  0
  9 10  1  0  0  0  0
  9 11  1  0  0  0  0
  9 29  1  0  0  0  0
  7  8  1  0  0  0  0
  7  9  1  0  0  0  0
 33 34  1  0  0  0  0
 33 35  1  0  0  0  0
 33 36  1  0  0  0  0
 31 32  1  0  0  0  0
 31 33  1  0  0  0  0
M  END
$$$$
default_name
  -OEChem-12212115393D

 36 37  0     1  0  0  0  0  0999 V2000
   -4.0843   -4.0736    1.2944 H   0  0  0  0  0  0  0  0  0  0  0  0
   -4.0342   -3.2816    0.5484 C   0  0  0  0  0  0  0  0  0  0  0  0
   -4.8842   -2.6126    0.6694 H   0  0  0  0  0  0  0  0  0  0  0  0
   -4.0433   -3.7186   -0.4486 H   0  0  0  0  0  0  0  0  0  0  0  0
   -2.7532   -2.5046    0.7444 C   0  0  0  0  0  0  0  0  0  0  0  0
   -1.9803   -2.8096    1.6434 O   0  0  0  0  0  0  0  0  0  0  0  0
   -2.5332   -1.4966   -0.0966 N   0  0  0  0  0  0  0  0  0  0  0  0
   -3.2312   -1.2816   -0.7936 H   0  0  0  0  0  0  0  0  0  0  0  0
   -1.3593   -0.6196   -0.0536 C   0  0  1  0  0  0  0  0  0  0  0  0
   -1.1983   -0.3017    0.9772 H   0  0  0  0  0  0  0  0  0  0  0  0
   -0.1186   -1.4014   -0.5134 C   0  0  0  0  0  0  0  0  0  0  0  0
    0.7521   -0.7459   -0.4538 H   0  0  0  0  0  0  0  0  0  0  0  0
    0.0447   -2.2309    0.1768 H   0  0  0  0  0  0  0  0  0  0  0  0
   -0.1914   -1.9497   -1.9062 C   0  0  0  0  0  0  0  0  0  0  0  0
    0.1764   -1.2941   -3.0299 C   0  0  0  0  0  0  0  0  0  0  0  0
    0.5532   -0.2775   -3.0560 H   0  0  0  0  0  0  0  0  0  0  0  0
    0.0171   -2.1222   -4.1237 N   0  0  0  0  0  0  0  0  0  0  0  0
    0.2267   -1.8410   -5.0704 H   0  0  0  0  0  0  0  0  0  0  0  0
   -0.4484   -3.3664   -3.7549 C   0  0  0  0  0  0  0  0  0  0  0  0
   -0.7363   -4.5341   -4.4759 C   0  0  0  0  0  0  0  0  0  0  0  0
   -0.6027   -4.5628   -5.5473 H   0  0  0  0  0  0  0  0  0  0  0  0
   -1.2027   -5.6656   -3.7851 C   0  0  0  0  0  0  0  0  0  0  0  0
   -1.4309   -6.5748   -4.3248 H   0  0  0  0  0  0  0  0  0  0  0  0
   -1.3790   -5.6120   -2.3904 C   0  0  0  0  0  0  0  0  0  0  0  0
   -1.7459   -6.4822   -1.8640 H   0  0  0  0  0  0  0  0  0  0  0  0
   -1.0883   -4.4323   -1.6761 C   0  0  0  0  0  0  0  0  0  0  0  0
   -1.2408   -4.4005   -0.6067 H   0  0  0  0  0  0  0  0  0  0  0  0
   -0.6124   -3.2808   -2.3399 C   0  0  0  0  0  0  0  0  0  0  0  0
   -1.5796    0.6449   -0.8982 C   0  0  0  0  0  0  0  0  0  0  0  0
   -2.3078    0.6088   -1.8891 O   0  0  0  0  0  0  0  0  0  0  0  0
   -0.9497    1.7610   -0.5073 N   0  0  0  0  0  0  0  0  0  0  0  0
   -0.3271    1.6937    0.2852 H   0  0  0  0  0  0  0  0  0  0  0  0
   -1.0521    3.0457   -1.1940 C   0  0  0  0  0  0  0  0  0  0  0  0
   -2.1031    3.3070   -1.3312 H   0  0  0  0  0  0  0  0  0  0  0  0
   -0.5597    3.8241   -0.6098 H   0  0  0  0  0  0  0  0  0  0  0  0
   -0.5781    2.9751   -2.1744 H   0  0  0  0  0  0  0  0  0  0  0  0
  5  6  2  0  0  0  0
  5  7  1  0  0  0  0
  2  3  1  0  0  0  0
  2  4  1  0  0  0  0
  2  5  1  0  0  0  0
  1  2  1  0  0  0  0
 29 30  2  0  0  0  0
 29 31  1  0  0  0  0
 26 27  1  0  0  0  0
 26 28  2  0  0  0  0
 24 25  1  0  0  0  0
 24 26  1  0  0  0  0
 22 23  1  0  0  0  0
 22 24  2  0  0  0  0
 20 21  1  0  0  0  0
 20 22  1  0  0  0  0
 19 20  2  0  0  0  0
 19 28  1  0  0  0  0
 17 18  1  0  0  0  0
 17 19  1  0  0  0  0
 15 16  1  0  0  0  0
 15 17  1  0  0  0  0
 14 15  2  0  0  0  0
 14 28  1  0  0  0  0
 11 12  1  0  0  0  0
 11 13  1  0  0  0  0
 11 14  1  0  0  0  0
  9 10  1  0  0  0  0
  9 11  1  0  0  0  0
  9 29  1  0  0  0  0
  7  8  1  0  0  0  0
  7  9  1  0  0  0  0
 33 34  1  0  0  0  0
 33 35  1  0  0  0  0
 33 36  1  0  0  0  0
 31 32  1  0  0  0  0
 31 33  1  0  0  0  0
M  END
$$$$
default_name
  -OEChem-12212115393D

 36 37  0     1  0  0  0  0  0999 V2000
   -4.0843   -4.0736    1.2944 H   0  0  0  0  0  0  0  0  0  0  0  0
   -4.0342   -3.2816    0.5484 C   0  0  0  0  0  0  0  0  0  0  0  0
   -4.8842   -2.6126    0.6694 H   0  0  0  0  0  0  0  0  0  0  0  0
   -4.0433   -3.7186   -0.4486 H   0  0  0  0  0  0  0  0  0  0  0  0
   -2.7532   -2.5046    0.7444 C   0  0  0  0  0  0  0  0  0  0  0  0
   -1.9803   -2.8096    1.6434 O   0  0  0  0  0  0  0  0  0  0  0  0
   -2.5332   -1.4966   -0.0966 N   0  0  0  0  0  0  0  0  0  0  0  0
   -3.2312   -1.2816   -0.7936 H   0  0  0  0  0  0  0  0  0  0  0  0
   -1.3593   -0.6196   -0.0536 C   0  0  1  0  0  0  0  0  0  0  0  0
   -1.1983   -0.3017    0.9772 H   0  0  0  0  0  0  0  0  0  0  0  0
   -0.1186   -1.4014   -0.5134 C   0  0  0  0  0  0  0  0  0  0  0  0
    0.7521   -0.7459   -0.4538 H   0  0  0  0  0  0  0  0  0  0  0  0
    0.0447   -2.2309    0.1768 H   0  0  0  0  0  0  0  0  0  0  0  0
   -0.1914   -1.9497   -1.9062 C   0  0  0  0  0  0  0  0  0  0  0  0
    0.1764   -1.2941   -3.0299 C   0  0  0  0  0  0  0  0  0  0  0  0
    0.5532   -0.2775   -3.0560 H   0  0  0  0  0  0  0  0  0  0  0  0
    0.0171   -2.1222   -4.1237 N   0  0  0  0  0  0  0  0  0  0  0  0
    0.2267   -1.8410   -5.0704 H   0  0  0  0  0  0  0  0  0  0  0  0
   -0.4484   -3.3664   -3.7549 C   0  0  0  0  0  0  0  0  0  0  0  0
   -0.7363   -4.5341   -4.4759 C   0  0  0  0  0  0  0  0  0  0  0  0
   -0.6027   -4.5628   -5.5473 H   0  0  0  0  0  0  0  0  0  0  0  0
   -1.2027   -5.6656   -3.7851 C   0  0  0  0  0  0  0  0  0  0  0  0
   -1.4309   -6.5748   -4.3248 H   0  0  0  0  0  0  0  0  0  0  0  0
   -1.3790   -5.6120   -2.3904 C   0  0  0  0  0  0  0  0  0  0  0  0
   -1.7459   -6.4822   -1.8640 H   0  0  0  0  0  0  0  0  0  0  0  0
   -1.0883   -4.4323   -1.6761 C   0  0  0  0  0  0  0  0  0  0  0  0
   -1.2408   -4.4005   -0.6067 H   0  0  0  0  0  0  0  0  0  0  0  0
   -0.6124   -3.2808   -2.3399 C   0  0  0  0  0  0  0  0  0  0  0  0
   -1.5796    0.6449   -0.8982 C   0  0  0  0  0  0  0  0  0  0  0  0
   -2.5023    0.6942   -1.7105 O   0  0  0  0  0  0  0  0  0  0  0  0
   -0.7322    1.6651   -0.7077 N   0  0  0  0  0  0  0  0  0  0  0  0
    0.0313    1.5246   -0.0614 H   0  0  0  0  0  0  0  0  0  0  0  0
   -0.8017    2.9357   -1.4240 C   0  0  0  0  0  0  0  0  0  0  0  0
   -1.8111    3.3449   -1.3507 H   0  0  0  0  0  0  0  0  0  0  0  0
   -0.0921    3.6462   -0.9982 H   0  0  0  0  0  0  0  0  0  0  0  0
   -0.5647    2.7753   -2.4771 H   0  0  0  0  0  0  0  0  0  0  0  0
  5  6  2  0  0  0  0
  5  7  1  0  0  0  0
  2  3  1  0  0  0  0
  2  4  1  0  0  0  0
  2  5  1  0  0  0  0
  1  2  1  0  0  0  0
 29 30  2  0  0  0  0
 29 31  1  0  0  0  0
 26 27  1  0  0  0  0
 26 28  2  0  0  0  0
 24 25  1  0  0  0  0
 24 26  1  0  0  0  0
 22 23  1  0  0  0  0
 22 24  2  0  0  0  0
 20 21  1  0  0  0  0
 20 22  1  0  0  0  0
 19 20  2  0  0  0  0
 19 28  1  0  0  0  0
 17 18  1  0  0  0  0
 17 19  1  0  0  0  0
 15 16  1  0  0  0  0
 15 17  1  0  0  0  0
 14 15  2  0  0  0  0
 14 28  1  0  0  0  0
 11 12  1  0  0  0  0
 11 13  1  0  0  0  0
 11 14  1  0  0  0  0
  9 10  1  0  0  0  0
  9 11  1  0  0  0  0
  9 29  1  0  0  0  0
  7  8  1  0  0  0  0
  7  9  1  0  0  0  0
 33 34  1  0  0  0  0
 33 35  1  0  0  0  0
 33 36  1  0  0  0  0
 31 32  1  0  0  0  0
 31 33  1  0  0  0  0
M  END
$$$$
default_name
  -OEChem-12212115393D

 36 37  0     1  0  0  0  0  0999 V2000
   -4.0843   -4.0736    1.2944 H   0  0  0  0  0  0  0  0  0  0  0  0
   -4.0342   -3.2816    0.5484 C   0  0  0  0  0  0  0  0  0  0  0  0
   -4.8842   -2.6126    0.6694 H   0  0  0  0  0  0  0  0  0  0  0  0
   -4.0433   -3.7186   -0.4486 H   0  0  0  0  0  0  0  0  0  0  0  0
   -2.7532   -2.5046    0.7444 C   0  0  0  0  0  0  0  0  0  0  0  0
   -1.9803   -2.8096    1.6434 O   0  0  0  0  0  0  0  0  0  0  0  0
   -2.5332   -1.4966   -0.0966 N   0  0  0  0  0  0  0  0  0  0  0  0
   -3.2312   -1.2816   -0.7936 H   0  0  0  0  0  0  0  0  0  0  0  0
   -1.3593   -0.6196   -0.0536 C   0  0  1  0  0  0  0  0  0  0  0  0
   -1.0371   -0.5178    0.9834 H   0  0  0  0  0  0  0  0  0  0  0  0
   -0.2121   -1.2596   -0.8513 C   0  0  0  0  0  0  0  0  0  0  0  0
    0.6629   -0.6100   -0.7916 H   0  0  0  0  0  0  0  0  0  0  0  0
    0.0493   -2.2096   -0.3822 H   0  0  0  0  0  0  0  0  0  0  0  0
   -0.5056   -1.5098   -2.2995 C   0  0  0  0  0  0  0  0  0  0  0  0
   -0.3115   -0.6275   -3.3053 C   0  0  0  0  0  0  0  0  0  0  0  0
    0.0655    0.3812   -3.1772 H   0  0  0  0  0  0  0  0  0  0  0  0
   -0.6462   -1.2153   -4.5094 N   0  0  0  0  0  0  0  0  0  0  0  0
   -0.5841   -0.7396   -5.3977 H   0  0  0  0  0  0  0  0  0  0  0  0
   -1.0596   -2.5196   -4.3401 C   0  0  0  0  0  0  0  0  0  0  0  0
   -1.4663   -3.5196   -5.2350 C   0  0  0  0  0  0  0  0  0  0  0  0
   -1.5013   -3.3231   -6.2965 H   0  0  0  0  0  0  0  0  0  0  0  0
   -1.8294   -4.7803   -4.7311 C   0  0  0  0  0  0  0  0  0  0  0  0
   -2.1467   -5.5635   -5.4062 H   0  0  0  0  0  0  0  0  0  0  0  0
   -1.7860   -5.0203   -3.3455 C   0  0  0  0  0  0  0  0  0  0  0  0
   -2.0742   -5.9891   -2.9614 H   0  0  0  0  0  0  0  0  0  0  0  0
   -1.3774   -4.0071   -2.4551 C   0  0  0  0  0  0  0  0  0  0  0  0
   -1.3614   -4.2006   -1.3920 H   0  0  0  0  0  0  0  0  0  0  0  0
   -1.0006   -2.7323   -2.9302 C   0  0  0  0  0  0  0  0  0  0  0  0
   -1.6973    0.7865   -0.5726 C   0  0  0  0  0  0  0  0  0  0  0  0
   -2.8368    1.0479   -0.9559 O   0  0  0  0  0  0  0  0  0  0  0  0
   -0.7077    1.6896   -0.5864 N   0  0  0  0  0  0  0  0  0  0  0  0
    0.2121    1.3800   -0.3062 H   0  0  0  0  0  0  0  0  0  0  0  0
   -0.8592    3.0677   -1.0450 C   0  0  0  0  0  0  0  0  0  0  0  0
   -1.7058    3.5337   -0.5373 H   0  0  0  0  0  0  0  0  0  0  0  0
    0.0471    3.6361   -0.8322 H   0  0  0  0  0  0  0  0  0  0  0  0
   -1.0475    3.0768   -2.1199 H   0  0  0  0  0  0  0  0  0  0  0  0
  5  6  2  0  0  0  0
  5  7  1  0  0  0  0
  2  3  1  0  0  0  0
  2  4  1  0  0  0  0
  2  5  1  0  0  0  0
  1  2  1  0  0  0  0
 29 30  2  0  0  0  0
 29 31  1  0  0  0  0
 26 27  1  0  0  0  0
 26 28  2  0  0  0  0
 24 25  1  0  0  0  0
 24 26  1  0  0  0  0
 22 23  1  0  0  0  0
 22 24  2  0  0  0  0
 20 21  1  0  0  0  0
 20 22  1  0  0  0  0
 19 20  2  0  0  0  0
 19 28  1  0  0  0  0
 17 18  1  0  0  0  0
 17 19  1  0  0  0  0
 15 16  1  0  0  0  0
 15 17  1  0  0  0  0
 14 15  2  0  0  0  0
 14 28  1  0  0  0  0
 11 12  1  0  0  0  0
 11 13  1  0  0  0  0
 11 14  1  0  0  0  0
  9 10  1  0  0  0  0
  9 11  1  0  0  0  0
  9 29  1  0  0  0  0
  7  8  1  0  0  0  0
  7  9  1  0  0  0  0
 33 34  1  0  0  0  0
 33 35  1  0  0  0  0
 33 36  1  0  0  0  0
 31 32  1  0  0  0  0
 31 33  1  0  0  0  0
M  END
$$$$
default_name
  -OEChem-12212115393D

 36 37  0     1  0  0  0  0  0999 V2000
   -4.0843   -4.0736    1.2944 H   0  0  0  0  0  0  0  0  0  0  0  0
   -4.0342   -3.2816    0.5484 C   0  0  0  0  0  0  0  0  0  0  0  0
   -4.8842   -2.6126    0.6694 H   0  0  0  0  0  0  0  0  0  0  0  0
   -4.0433   -3.7186   -0.4486 H   0  0  0  0  0  0  0  0  0  0  0  0
   -2.7532   -2.5046    0.7444 C   0  0  0  0  0  0  0  0  0  0  0  0
   -1.9803   -2.8096    1.6434 O   0  0  0  0  0  0  0  0  0  0  0  0
   -2.5332   -1.4966   -0.0966 N   0  0  0  0  0  0  0  0  0  0  0  0
   -3.2312   -1.2816   -0.7936 H   0  0  0  0  0  0  0  0  0  0  0  0
   -1.3593   -0.6196   -0.0536 C   0  0  1  0  0  0  0  0  0  0  0  0
   -1.0371   -0.5178    0.9834 H   0  0  0  0  0  0  0  0  0  0  0  0
   -0.2121   -1.2596   -0.8513 C   0  0  0  0  0  0  0  0  0  0  0  0
    0.6629   -0.6100   -0.7916 H   0  0  0  0  0  0  0  0  0  0  0  0
    0.0493   -2.2096   -0.3822 H   0  0  0  0  0  0  0  0  0  0  0  0
   -0.5056   -1.5098   -2.2995 C   0  0  0  0  0  0  0  0  0  0  0  0
   -0.3115   -0.6275   -3.3053 C   0  0  0  0  0  0  0  0  0  0  0  0
    0.0655    0.3812   -3.1772 H   0  0  0  0  0  0  0  0  0  0  0  0
   -0.6462   -1.2153   -4.5094 N   0  0  0  0  0  0  0  0  0  0  0  0
   -0.5841   -0.7396   -5.3977 H   0  0  0  0  0  0  0  0  0  0  0  0
   -1.0596   -2.5196   -4.3401 C   0  0  0  0  0  0  0  0  0  0  0  0
   -1.4663   -3.5196   -5.2350 C   0  0  0  0  0  0  0  0  0  0  0  0
   -1.5013   -3.3231   -6.2965 H   0  0  0  0  0  0  0  0  0  0  0  0
   -1.8294   -4.7803   -4.7311 C   0  0  0  0  0  0  0  0  0  0  0  0
   -2.1467   -5.5635   -5.4062 H   0  0  0  0  0  0  0  0  0  0  0  0
   -1.7860   -5.0203   -3.3455 C   0  0  0  0  0  0  0  0  0  0  0  0
   -2.0742   -5.9891   -2.9614 H   0  0  0  0  0  0  0  0  0  0  0  0
   -1.3774   -4.0071   -2.4551 C   0  0  0  0  0  0  0  0  0  0  0  0
   -1.3614   -4.2006   -1.3920 H   0  0  0  0  0  0  0  0  0  0  0  0
   -1.0006   -2.7323   -2.9302 C   0  0  0  0  0  0  0  0  0  0  0  0
   -1.6973    0.7865   -0.5726 C   0  0  0  0  0  0  0  0  0  0  0  0
   -2.8706    1.1361   -0.6949 O   0  0  0  0  0  0  0  0  0  0  0  0
   -0.6703    1.5907   -0.8788 N   0  0  0  0  0  0  0  0  0  0  0  0
    0.2617    1.2091   -0.8017 H   0  0  0  0  0  0  0  0  0  0  0  0
   -0.8157    2.9541   -1.3811 C   0  0  0  0  0  0  0  0  0  0  0  0
   -1.4757    3.5209   -0.7217 H   0  0  0  0  0  0  0  0  0  0  0  0
    0.1580    3.4438   -1.4254 H   0  0  0  0  0  0  0  0  0  0  0  0
   -1.2545    2.9310   -2.3800 H   0  0  0  0  0  0  0  0  0  0  0  0
  5  6  2  0  0  0  0
  5  7  1  0  0  0  0
  2  3  1  0  0  0  0
  2  4  1  0  0  0  0
  2  5  1  0  0  0  0
  1  2  1  0  0  0  0
 29 30  2  0  0  0  0
 29 31  1  0  0  0  0
 26 27  1  0  0  0  0
 26 28  2  0  0  0  0
 24 25  1  0  0  0  0
 24 26  1  0  0  0  0
 22 23  1  0  0  0  0
 22 24  2  0  0  0  0
 20 21  1  0  0  0  0
 20 22  1  0  0  0  0
 19 20  2  0  0  0  0
 19 28  1  0  0  0  0
 17 18  1  0  0  0  0
 17 19  1  0  0  0  0
 15 16  1  0  0  0  0
 15 17  1  0  0  0  0
 14 15  2  0  0  0  0
 14 28  1  0  0  0  0
 11 12  1  0  0  0  0
 11 13  1  0  0  0  0
 11 14  1  0  0  0  0
  9 10  1  0  0  0  0
  9 11  1  0  0  0  0
  9 29  1  0  0  0  0
  7  8  1  0  0  0  0
  7  9  1  0  0  0  0
 33 34  1  0  0  0  0
 33 35  1  0  0  0  0
 33 36  1  0  0  0  0
 31 32  1  0  0  0  0
 31 33  1  0  0  0  0
M  END
$$$$
default_name
  -OEChem-12212115393D

 36 37  0     1  0  0  0  0  0999 V2000
   -4.0843   -4.0736    1.2944 H   0  0  0  0  0  0  0  0  0  0  0  0
   -4.0342   -3.2816    0.5484 C   0  0  0  0  0  0  0  0  0  0  0  0
   -4.8842   -2.6126    0.6694 H   0  0  0  0  0  0  0  0  0  0  0  0
   -4.0433   -3.7186   -0.4486 H   0  0  0  0  0  0  0  0  0  0  0  0
   -2.7532   -2.5046    0.7444 C   0  0  0  0  0  0  0  0  0  0  0  0
   -1.9803   -2.8096    1.6434 O   0  0  0  0  0  0  0  0  0  0  0  0
   -2.5332   -1.4966   -0.0966 N   0  0  0  0  0  0  0  0  0  0  0  0
   -3.2312   -1.2816   -0.7936 H   0  0  0  0  0  0  0  0  0  0  0  0
   -1.3593   -0.6196   -0.0536 C   0  0  1  0  0  0  0  0  0  0  0  0
   -1.0371   -0.5178    0.9834 H   0  0  0  0  0  0  0  0  0  0  0  0
   -0.2121   -1.2596   -0.8513 C   0  0  0  0  0  0  0  0  0  0  0  0
    0.6629   -0.6100   -0.7916 H   0  0  0  0  0  0  0  0  0  0  0  0
    0.0493   -2.2096   -0.3822 H   0  0  0  0  0  0  0  0  0  0  0  0
   -0.5056   -1.5098   -2.2995 C   0  0  0  0  0  0  0  0  0  0  0  0
   -0.3115   -0.6275   -3.3053 C   0  0  0  0  0  0  0  0  0  0  0  0
    0.0655    0.3812   -3.1772 H   0  0  0  0  0  0  0  0  0  0  0  0
   -0.6462   -1.2153   -4.5094 N   0  0  0  0  0  0  0  0  0  0  0  0
   -0.5841   -0.7396   -5.3977 H   0  0  0  0  0  0  0  0  0  0  0  0
   -1.0596   -2.5196   -4.3401 C   0  0  0  0  0  0  0  0  0  0  0  0
   -1.4663   -3.5196   -5.2350 C   0  0  0  0  0  0  0  0  0  0  0  0
   -1.5013   -3.3231   -6.2965 H   0  0  0  0  0  0  0  0  0  0  0  0
   -1.8294   -4.7803   -4.7311 C   0  0  0  0  0  0  0  0  0  0  0  0
   -2.1467   -5.5635   -5.4062 H   0  0  0  0  0  0  0  0  0  0  0  0
   -1.7860   -5.0203   -3.3455 C   0  0  0  0  0  0  0  0  0  0  0  0
   -2.0742   -5.9891   -2.9614 H   0  0  0  0  0  0  0  0  0  0  0  0
   -1.3774   -4.0071   -2.4551 C   0  0  0  0  0  0  0  0  0  0  0  0
   -1.3614   -4.2006   -1.3920 H   0  0  0  0  0  0  0  0  0  0  0  0
   -1.0006   -2.7323   -2.9302 C   0  0  0  0  0  0  0  0  0  0  0  0
   -1.6973    0.7865   -0.5726 C   0  0  0  0  0  0  0  0  0  0  0  0
   -2.8336    1.2391   -0.4399 O   0  0  0  0  0  0  0  0  0  0  0  0
   -0.7121    1.4752   -1.1645 N   0  0  0  0  0  0  0  0  0  0  0  0
    0.1774    1.0114   -1.2824 H   0  0  0  0  0  0  0  0  0  0  0  0
   -0.8632    2.8215   -1.7095 C   0  0  0  0  0  0  0  0  0  0  0  0
   -1.2983    3.4779   -0.9536 H   0  0  0  0  0  0  0  0  0  0  0  0
    0.1077    3.2146   -2.0137 H   0  0  0  0  0  0  0  0  0  0  0  0
   -1.5287    2.7935   -2.5739 H   0  0  0  0  0  0  0  0  0  0  0  0
  5  6  2  0  0  0  0
  5  7  1  0  0  0  0
  2  3  1  0  0  0  0
  2  4  1  0  0  0  0
  2  5  1  0  0  0  0
  1  2  1  0  0  0  0
 29 30  2  0  0  0  0
 29 31  1  0  0  0  0
 26 27  1  0  0  0  0
 26 28  2  0  0  0  0
 24 25  1  0  0  0  0
 24 26  1  0  0  0  0
 22 23  1  0  0  0  0
 22 24  2  0  0  0  0
 20 21  1  0  0  0  0
 20 22  1  0  0  0  0
 19 20  2  0  0  0  0
 19 28  1  0  0  0  0
 17 18  1  0  0  0  0
 17 19  1  0  0  0  0
 15 16  1  0  0  0  0
 15 17  1  0  0  0  0
 14 15  2  0  0  0  0
 14 28  1  0  0  0  0
 11 12  1  0  0  0  0
 11 13  1  0  0  0  0
 11 14  1  0  0  0  0
  9 10  1  0  0  0  0
  9 11  1  0  0  0  0
  9 29  1  0  0  0  0
  7  8  1  0  0  0  0
  7  9  1  0  0  0  0
 33 34  1  0  0  0  0
 33 35  1  0  0  0  0
 33 36  1  0  0  0  0
 31 32  1  0  0  0  0
 31 33  1  0  0  0  0
M  END
$$$$
default_name
  -OEChem-12212115393D

 36 37  0     1  0  0  0  0  0999 V2000
   -4.0843   -4.0736    1.2944 H   0  0  0  0  0  0  0  0  0  0  0  0
   -4.0342   -3.2816    0.5484 C   0  0  0  0  0  0  0  0  0  0  0  0
   -4.8842   -2.6126    0.6694 H   0  0  0  0  0  0  0  0  0  0  0  0
   -4.0433   -3.7186   -0.4486 H   0  0  0  0  0  0  0  0  0  0  0  0
   -2.7532   -2.5046    0.7444 C   0  0  0  0  0  0  0  0  0  0  0  0
   -1.9803   -2.8096    1.6434 O   0  0  0  0  0  0  0  0  0  0  0  0
   -2.5332   -1.4966   -0.0966 N   0  0  0  0  0  0  0  0  0  0  0  0
   -3.2312   -1.2816   -0.7936 H   0  0  0  0  0  0  0  0  0  0  0  0
   -1.3593   -0.6196   -0.0536 C   0  0  1  0  0  0  0  0  0  0  0  0
   -1.0371   -0.5178    0.9834 H   0  0  0  0  0  0  0  0  0  0  0  0
   -0.2121   -1.2596   -0.8513 C   0  0  0  0  0  0  0  0  0  0  0  0
    0.6629   -0.6100   -0.7916 H   0  0  0  0  0  0  0  0  0  0  0  0
    0.0493   -2.2096   -0.3822 H   0  0  0  0  0  0  0  0  0  0  0  0
   -0.5056   -1.5098   -2.2995 C   0  0  0  0  0  0  0  0  0  0  0  0
   -0.3115   -0.6275   -3.3053 C   0  0  0  0  0  0  0  0  0  0  0  0
    0.0655    0.3812   -3.1772 H   0  0  0  0  0  0  0  0  0  0  0  0
   -0.6462   -1.2153   -4.5094 N   0  0  0  0  0  0  0  0  0  0  0  0
   -0.5841   -0.7396   -5.3977 H   0  0  0  0  0  0  0  0  0  0  0  0
   -1.0596   -2.5196   -4.3401 C   0  0  0  0  0  0  0  0  0  0  0  0
   -1.4663   -3.5196   -5.2350 C   0  0  0  0  0  0  0  0  0  0  0  0
   -1.5013   -3.3231   -6.2965 H   0  0  0  0  0  0  0  0  0  0  0  0
   -1.8294   -4.7803   -4.7311 C   0  0  0  0  0  0  0  0  0  0  0  0
   -2.1467   -5.5635   -5.4062 H   0  0  0  0  0  0  0  0  0  0  0  0
   -1.7860   -5.0203   -3.3455 C   0  0  0  0  0  0  0  0  0  0  0  0
   -2.0742   -5.9891   -2.9614 H   0  0  0  0  0  0  0  0  0  0  0  0
   -1.3774   -4.0071   -2.4551 C   0  0  0  0  0  0  0  0  0  0  0  0
   -1.3614   -4.2006   -1.3920 H   0  0  0  0  0  0  0  0  0  0  0  0
   -1.0006   -2.7323   -2.9302 C   0  0  0  0  0  0  0  0  0  0  0  0
   -1.6973    0.7865   -0.5726 C   0  0  0  0  0  0  0  0  0  0  0  0
   -2.7286    1.3499   -0.2082 O   0  0  0  0  0  0  0  0  0  0  0  0
   -0.8303    1.3510   -1.4239 N   0  0  0  0  0  0  0  0  0  0  0  0
   -0.0352    0.8004   -1.7154 H   0  0  0  0  0  0  0  0  0  0  0  0
   -0.9985    2.6788   -2.0080 C   0  0  0  0  0  0  0  0  0  0  0  0
   -1.1857    3.4077   -1.2172 H   0  0  0  0  0  0  0  0  0  0  0  0
   -0.1002    2.9641   -2.5570 H   0  0  0  0  0  0  0  0  0  0  0  0
   -1.8516    2.6736   -2.6884 H   0  0  0  0  0  0  0  0  0  0  0  0
  5  6  2  0  0  0  0
  5  7  1  0  0  0  0
  2  3  1  0  0  0  0
  2  4  1  0  0  0  0
  2  5  1  0  0  0  0
  1  2  1  0  0  0  0
 29 30  2  0  0  0  0
 29 31  1  0  0  0  0
 26 27  1  0  0  0  0
 26 28  2  0  0  0  0
 24 25  1  0  0  0  0
 24 26  1  0  0  0  0
 22 23  1  0  0  0  0
 22 24  2  0  0  0  0
 20 21  1  0  0  0  0
 20 22  1  0  0  0  0
 19 20  2  0  0  0  0
 19 28  1  0  0  0  0
 17 18  1  0  0  0  0
 17 19  1  0  0  0  0
 15 16  1  0  0  0  0
 15 17  1  0  0  0  0
 14 15  2  0  0  0  0
 14 28  1  0  0  0  0
 11 12  1  0  0  0  0
 11 13  1  0  0  0  0
 11 14  1  0  0  0  0
  9 10  1  0  0  0  0
  9 11  1  0  0  0  0
  9 29  1  0  0  0  0
  7  8  1  0  0  0  0
  7  9  1  0  0  0  0
 33 34  1  0  0  0  0
 33 35  1  0  0  0  0
 33 36  1  0  0  0  0
 31 32  1  0  0  0  0
 31 33  1  0  0  0  0
M  END
$$$$
default_name
  -OEChem-12212115393D

 36 37  0     1  0  0  0  0  0999 V2000
   -4.0843   -4.0736    1.2944 H   0  0  0  0  0  0  0  0  0  0  0  0
   -4.0342   -3.2816    0.5484 C   0  0  0  0  0  0  0  0  0  0  0  0
   -4.8842   -2.6126    0.6694 H   0  0  0  0  0  0  0  0  0  0  0  0
   -4.0433   -3.7186   -0.4486 H   0  0  0  0  0  0  0  0  0  0  0  0
   -2.7532   -2.5046    0.7444 C   0  0  0  0  0  0  0  0  0  0  0  0
   -1.9803   -2.8096    1.6434 O   0  0  0  0  0  0  0  0  0  0  0  0
   -2.5332   -1.4966   -0.0966 N   0  0  0  0  0  0  0  0  0  0  0  0
   -3.2312   -1.2816   -0.7936 H   0  0  0  0  0  0  0  0  0  0  0  0
   -1.3593   -0.6196   -0.0536 C   0  0  1  0  0  0  0  0  0  0  0  0
   -1.0371   -0.5178    0.9834 H   0  0  0  0  0  0  0  0  0  0  0  0
   -0.2121   -1.2596   -0.8513 C   0  0  0  0  0  0  0  0  0  0  0  0
    0.6629   -0.6100   -0.7916 H   0  0  0  0  0  0  0  0  0  0  0  0
    0.0493   -2.2096   -0.3822 H   0  0  0  0  0  0  0  0  0  0  0  0
   -0.5056   -1.5098   -2.2995 C   0  0  0  0  0  0  0  0  0  0  0  0
   -0.3115   -0.6275   -3.3053 C   0  0  0  0  0  0  0  0  0  0  0  0
    0.0655    0.3812   -3.1772 H   0  0  0  0  0  0  0  0  0  0  0  0
   -0.6462   -1.2153   -4.5094 N   0  0  0  0  0  0  0  0  0  0  0  0
   -0.5841   -0.7396   -5.3977 H   0  0  0  0  0  0  0  0  0  0  0  0
   -1.0596   -2.5196   -4.3401 C   0  0  0  0  0  0  0  0  0  0  0  0
   -1.4663   -3.5196   -5.2350 C   0  0  0  0  0  0  0  0  0  0  0  0
   -1.5013   -3.3231   -6.2965 H   0  0  0  0  0  0  0  0  0  0  0  0
   -1.8294   -4.7803   -4.7311 C   0  0  0  0  0  0  0  0  0  0  0  0
   -2.1467   -5.5635   -5.4062 H   0  0  0  0  0  0  0  0  0  0  0  0
   -1.7860   -5.0203   -3.3455 C   0  0  0  0  0  0  0  0  0  0  0  0
   -2.0742   -5.9891   -2.9614 H   0  0  0  0  0  0  0  0  0  0  0  0
   -1.3774   -4.0071   -2.4551 C   0  0  0  0  0  0  0  0  0  0  0  0
   -1.3614   -4.2006   -1.3920 H   0  0  0  0  0  0  0  0  0  0  0  0
   -1.0006   -2.7323   -2.9302 C   0  0  0  0  0  0  0  0  0  0  0  0
   -1.6973    0.7865   -0.5726 C   0  0  0  0  0  0  0  0  0  0  0  0
   -2.5625    1.4609   -0.0155 O   0  0  0  0  0  0  0  0  0  0  0  0
   -1.0167    1.2266   -1.6395 N   0  0  0  0  0  0  0  0  0  0  0  0
   -0.3615    0.5906   -2.0714 H   0  0  0  0  0  0  0  0  0  0  0  0
   -1.2123    2.5358   -2.2561 C   0  0  0  0  0  0  0  0  0  0  0  0
   -1.1454    3.3151   -1.4945 H   0  0  0  0  0  0  0  0  0  0  0  0
   -0.4516    2.7094   -3.0183 H   0  0  0  0  0  0  0  0  0  0  0  0
   -2.2011    2.5795   -2.7157 H   0  0  0  0  0  0  0  0  0  0  0  0
  5  6  2  0  0  0  0
  5  7  1  0  0  0  0
  2  3  1  0  0  0  0
  2  4  1  0  0  0  0
  2  5  1  0  0  0  0
  1  2  1  0  0  0  0
 29 30  2  0  0  0  0
 29 31  1  0  0  0  0
 26 27  1  0  0  0  0
 26 28  2  0  0  0  0
 24 25  1  0  0  0  0
 24 26  1  0  0  0  0
 22 23  1  0  0  0  0
 22 24  2  0  0  0  0
 20 21  1  0  0  0  0
 20 22  1  0  0  0  0
 19 20  2  0  0  0  0
 19 28  1  0  0  0  0
 17 18  1  0  0  0  0
 17 19  1  0  0  0  0
 15 16  1  0  0  0  0
 15 17  1  0  0  0  0
 14 15  2  0  0  0  0
 14 28  1  0  0  0  0
 11 12  1  0  0  0  0
 11 13  1  0  0  0  0
 11 14  1  0  0  0  0
  9 10  1  0  0  0  0
  9 11  1  0  0  0  0
  9 29  1  0  0  0  0
  7  8  1  0  0  0  0
  7  9  1  0  0  0  0
 33 34  1  0  0  0  0
 33 35  1  0  0  0  0
 33 36  1  0  0  0  0
 31 32  1  0  0  0  0
 31 33  1  0  0  0  0
M  END
$$$$
default_name
  -OEChem-12212115393D

 36 37  0     1  0  0  0  0  0999 V2000
   -4.0843   -4.0736    1.2944 H   0  0  0  0  0  0  0  0  0  0  0  0
   -4.0342   -3.2816    0.5484 C   0  0  0  0  0  0  0  0  0  0  0  0
   -4.8842   -2.6126    0.6694 H   0  0  0  0  0  0  0  0  0  0  0  0
   -4.0433   -3.7186   -0.4486 H   0  0  0  0  0  0  0  0  0  0  0  0
   -2.7532   -2.5046    0.7444 C   0  0  0  0  0  0  0  0  0  0  0  0
   -1.9803   -2.8096    1.6434 O   0  0  0  0  0  0  0  0  0  0  0  0
   -2.5332   -1.4966   -0.0966 N   0  0  0  0  0  0  0  0  0  0  0  0
   -3.2312   -1.2816   -0.7936 H   0  0  0  0  0  0  0  0  0  0  0  0
   -1.3593   -0.6196   -0.0536 C   0  0  1  0  0  0  0  0  0  0  0  0
   -1.0371   -0.5178    0.9834 H   0  0  0  0  0  0  0  0  0  0  0  0
   -0.2121   -1.2596   -0.8513 C   0  0  0  0  0  0  0  0  0  0  0  0
    0.6629   -0.6100   -0.7916 H   0  0  0  0  0  0  0  0  0  0  0  0
    0.0493   -2.2096   -0.3822 H   0  0  0  0  0  0  0  0  0  0  0  0
   -0.5056   -1.5098   -2.2995 C   0  0  0  0  0  0  0  0  0  0  0  0
   -0.3115   -0.6275   -3.3053 C   0  0  0  0  0  0  0  0  0  0  0  0
    0.0655    0.3812   -3.1772 H   0  0  0  0  0  0  0  0  0  0  0  0
   -0.6462   -1.2153   -4.5094 N   0  0  0  0  0  0  0  0  0  0  0  0
   -0.5841   -0.7396   -5.3977 H   0  0  0  0  0  0  0  0  0  0  0  0
   -1.0596   -2.5196   -4.3401 C   0  0  0  0  0  0  0  0  0  0  0  0
   -1.4663   -3.5196   -5.2350 C   0  0  0  0  0  0  0  0  0  0  0  0
   -1.5013   -3.3231   -6.2965 H   0  0  0  0  0  0  0  0  0  0  0  0
   -1.8294   -4.7803   -4.7311 C   0  0  0  0  0  0  0  0  0  0  0  0
   -2.1467   -5.5635   -5.4062 H   0  0  0  0  0  0  0  0  0  0  0  0
   -1.7860   -5.0203   -3.3455 C   0  0  0  0  0  0  0  0  0  0  0  0
   -2.0742   -5.9891   -2.9614 H   0  0  0  0  0  0  0  0  0  0  0  0
   -1.3774   -4.0071   -2.4551 C   0  0  0  0  0  0  0  0  0  0  0  0
   -1.3614   -4.2006   -1.3920 H   0  0  0  0  0  0  0  0  0  0  0  0
   -1.0006   -2.7323   -2.9302 C   0  0  0  0  0  0  0  0  0  0  0  0
   -1.6973    0.7865   -0.5726 C   0  0  0  0  0  0  0  0  0  0  0  0
   -2.3468    1.5646    0.1249 O   0  0  0  0  0  0  0  0  0  0  0  0
   -1.2587    1.1105   -1.7965 N   0  0  0  0  0  0  0  0  0  0  0  0
   -0.7794    0.3962   -2.3259 H   0  0  0  0  0  0  0  0  0  0  0  0
   -1.4901    2.4022   -2.4370 C   0  0  0  0  0  0  0  0  0  0  0  0
   -1.1803    3.2062   -1.7666 H   0  0  0  0  0  0  0  0  0  0  0  0
   -0.9225    2.4678   -3.3661 H   0  0  0  0  0  0  0  0  0  0  0  0
   -2.5533    2.5176   -2.6540 H   0  0  0  0  0  0  0  0  0  0  0  0
  5  6  2  0  0  0  0
  5  7  1  0  0  0  0
  2  3  1  0  0  0  0
  2  4  1  0  0  0  0
  2  5  1  0  0  0  0
  1  2  1  0  0  0  0
 29 30  2  0  0  0  0
 29 31  1  0  0  0  0
 26 27  1  0  0  0  0
 26 28  2  0  0  0  0
 24 25  1  0  0  0  0
 24 26  1  0  0  0  0
 22 23  1  0  0  0  0
 22 24  2  0  0  0  0
 20 21  1  0  0  0  0
 20 22  1  0  0  0  0
 19 20  2  0  0  0  0
 19 28  1  0  0  0  0
 17 18  1  0  0  0  0
 17 19  1  0  0  0  0
 15 16  1  0  0  0  0
 15 17  1  0  0  0  0
 14 15  2  0  0  0  0
 14 28  1  0  0  0  0
 11 12  1  0  0  0  0
 11 13  1  0  0  0  0
 11 14  1  0  0  0  0
  9 10  1  0  0  0  0
  9 11  1  0  0  0  0
  9 29  1  0  0  0  0
  7  8  1  0  0  0  0
  7  9  1  0  0  0  0
 33 34  1  0  0  0  0
 33 35  1  0  0  0  0
 33 36  1  0  0  0  0
 31 32  1  0  0  0  0
 31 33  1  0  0  0  0
M  END
$$$$
default_name
  -OEChem-12212115393D

 36 37  0     1  0  0  0  0  0999 V2000
   -4.0843   -4.0736    1.2944 H   0  0  0  0  0  0  0  0  0  0  0  0
   -4.0342   -3.2816    0.5484 C   0  0  0  0  0  0  0  0  0  0  0  0
   -4.8842   -2.6126    0.6694 H   0  0  0  0  0  0  0  0  0  0  0  0
   -4.0433   -3.7186   -0.4486 H   0  0  0  0  0  0  0  0  0  0  0  0
   -2.7532   -2.5046    0.7444 C   0  0  0  0  0  0  0  0  0  0  0  0
   -1.9803   -2.8096    1.6434 O   0  0  0  0  0  0  0  0  0  0  0  0
   -2.5332   -1.4966   -0.0966 N   0  0  0  0  0  0  0  0  0  0  0  0
   -3.2312   -1.2816   -0.7936 H   0  0  0  0  0  0  0  0  0  0  0  0
   -1.3593   -0.6196   -0.0536 C   0  0  1  0  0  0  0  0  0  0  0  0
   -1.0371   -0.5178    0.9834 H   0  0  0  0  0  0  0  0  0  0  0  0
   -0.2121   -1.2596   -0.8513 C   0  0  0  0  0  0  0  0  0  0  0  0
    0.6629   -0.6100   -0.7916 H   0  0  0  0  0  0  0  0  0  0  0  0
    0.0493   -2.2096   -0.3822 H   0  0  0  0  0  0  0  0  0  0  0  0
   -0.5056   -1.5098   -2.2995 C   0  0  0  0  0  0  0  0  0  0  0  0
   -0.3115   -0.6275   -3.3053 C   0  0  0  0  0  0  0  0  0  0  0  0
    0.0655    0.3812   -3.1772 H   0  0  0  0  0  0  0  0  0  0  0  0
   -0.6462   -1.2153   -4.5094 N   0  0  0  0  0  0  0  0  0  0  0  0
   -0.5841   -0.7396   -5.3977 H   0  0  0  0  0  0  0  0  0  0  0  0
   -1.0596   -2.5196   -4.3401 C   0  0  0  0  0  0  0  0  0  0  0  0
   -1.4663   -3.5196   -5.2350 C   0  0  0  0  0  0  0  0  0  0  0  0
   -1.5013   -3.3231   -6.2965 H   0  0  0  0  0  0  0  0  0  0  0  0
   -1.8294   -4.7803   -4.7311 C   0  0  0  0  0  0  0  0  0  0  0  0
   -2.1467   -5.5635   -5.4062 H   0  0  0  0  0  0  0  0  0  0  0  0
   -1.7860   -5.0203   -3.3455 C   0  0  0  0  0  0  0  0  0  0  0  0
   -2.0742   -5.9891   -2.9614 H   0  0  0  0  0  0  0  0  0  0  0  0
   -1.3774   -4.0071   -2.4551 C   0  0  0  0  0  0  0  0  0  0  0  0
   -1.3614   -4.2006   -1.3920 H   0  0  0  0  0  0  0  0  0  0  0  0
   -1.0006   -2.7323   -2.9302 C   0  0  0  0  0  0  0  0  0  0  0  0
   -1.6973    0.7865   -0.5726 C   0  0  0  0  0  0  0  0  0  0  0  0
   -2.0960    1.6539    0.2035 O   0  0  0  0  0  0  0  0  0  0  0  0
   -1.5398    1.0106   -1.8841 N   0  0  0  0  0  0  0  0  0  0  0  0
   -1.2604    0.2305   -2.4617 H   0  0  0  0  0  0  0  0  0  0  0  0
   -1.8130    2.2872   -2.5382 C   0  0  0  0  0  0  0  0  0  0  0  0
   -1.2880    3.0887   -2.0150 H   0  0  0  0  0  0  0  0  0  0  0  0
   -1.4809    2.2558   -3.5768 H   0  0  0  0  0  0  0  0  0  0  0  0
   -2.8844    2.4922   -2.5074 H   0  0  0  0  0  0  0  0  0  0  0  0
  5  6  2  0  0  0  0
  5  7  1  0  0  0  0
  2  3  1  0  0  0  0
  2  4  1  0  0  0  0
  2  5  1  0  0  0  0
  1  2  1  0  0  0  0
 29 30  2  0  0  0  0
 29 31  1  0  0  0  0
 26 27  1  0  0  0  0
 26 28  2  0  0  0  0
 24 25  1  0  0  0  0
 24 26  1  0  0  0  0
 22 23  1  0  0  0  0
 22 24  2  0  0  0  0
 20 21  1  0  0  0  0
 20 22  1  0  0  0  0
 19 20  2  0  0  0  0
 19 28  1  0  0  0  0
 17 18  1  0  0  0  0
 17 19  1  0  0  0  0
 15 16  1  0  0  0  0
 15 17  1  0  0  0  0
 14 15  2  0  0  0  0
 14 28  1  0  0  0  0
 11 12  1  0  0  0  0
 11 13  1  0  0  0  0
 11 14  1  0  0  0  0
  9 10  1  0  0  0  0
  9 11  1  0  0  0  0
  9 29  1  0  0  0  0
  7  8  1  0  0  0  0
  7  9  1  0  0  0  0
 33 34  1  0  0  0  0
 33 35  1  0  0  0  0
 33 36  1  0  0  0  0
 31 32  1  0  0  0  0
 31 33  1  0  0  0  0
M  END
$$$$
default_name
  -OEChem-12212115393D

 36 37  0     1  0  0  0  0  0999 V2000
   -4.0843   -4.0736    1.2944 H   0  0  0  0  0  0  0  0  0  0  0  0
   -4.0342   -3.2816    0.5484 C   0  0  0  0  0  0  0  0  0  0  0  0
   -4.8842   -2.6126    0.6694 H   0  0  0  0  0  0  0  0  0  0  0  0
   -4.0433   -3.7186   -0.4486 H   0  0  0  0  0  0  0  0  0  0  0  0
   -2.7532   -2.5046    0.7444 C   0  0  0  0  0  0  0  0  0  0  0  0
   -1.9803   -2.8096    1.6434 O   0  0  0  0  0  0  0  0  0  0  0  0
   -2.5332   -1.4966   -0.0966 N   0  0  0  0  0  0  0  0  0  0  0  0
   -3.2312   -1.2816   -0.7936 H   0  0  0  0  0  0  0  0  0  0  0  0
   -1.3593   -0.6196   -0.0536 C   0  0  1  0  0  0  0  0  0  0  0  0
   -1.0371   -0.5178    0.9834 H   0  0  0  0  0  0  0  0  0  0  0  0
   -0.2121   -1.2596   -0.8513 C   0  0  0  0  0  0  0  0  0  0  0  0
    0.6629   -0.6100   -0.7916 H   0  0  0  0  0  0  0  0  0  0  0  0
    0.0493   -2.2096   -0.3822 H   0  0  0  0  0  0  0  0  0  0  0  0
   -0.5056   -1.5098   -2.2995 C   0  0  0  0  0  0  0  0  0  0  0  0
   -0.3115   -0.6275   -3.3053 C   0  0  0  0  0  0  0  0  0  0  0  0
    0.0655    0.3812   -3.1772 H   0  0  0  0  0  0  0  0  0  0  0  0
   -0.6462   -1.2153   -4.5094 N   0  0  0  0  0  0  0  0  0  0  0  0
   -0.5841   -0.7396   -5.3977 H   0  0  0  0  0  0  0  0  0  0  0  0
   -1.0596   -2.5196   -4.3401 C   0  0  0  0  0  0  0  0  0  0  0  0
   -1.4663   -3.5196   -5.2350 C   0  0  0  0  0  0  0  0  0  0  0  0
   -1.5013   -3.3231   -6.2965 H   0  0  0  0  0  0  0  0  0  0  0  0
   -1.8294   -4.7803   -4.7311 C   0  0  0  0  0  0  0  0  0  0  0  0
   -2.1467   -5.5635   -5.4062 H   0  0  0  0  0  0  0  0  0  0  0  0
   -1.7860   -5.0203   -3.3455 C   0  0  0  0  0  0  0  0  0  0  0  0
   -2.0742   -5.9891   -2.9614 H   0  0  0  0  0  0  0  0  0  0  0  0
   -1.3774   -4.0071   -2.4551 C   0  0  0  0  0  0  0  0  0  0  0  0
   -1.3614   -4.2006   -1.3920 H   0  0  0  0  0  0  0  0  0  0  0  0
   -1.0006   -2.7323   -2.9302 C   0  0  0  0  0  0  0  0  0  0  0  0
   -1.6973    0.7865   -0.5726 C   0  0  0  0  0  0  0  0  0  0  0  0
   -1.8274    1.7227    0.2150 O   0  0  0  0  0  0  0  0  0  0  0  0
   -1.8409    0.9336   -1.8966 N   0  0  0  0  0  0  0  0  0  0  0  0
   -1.7716    0.1047   -2.4696 H   0  0  0  0  0  0  0  0  0  0  0  0
   -2.1589    2.1986   -2.5531 C   0  0  0  0  0  0  0  0  0  0  0  0
   -1.4611    2.9704   -2.2227 H   0  0  0  0  0  0  0  0  0  0  0  0
   -2.0888    2.0878   -3.6359 H   0  0  0  0  0  0  0  0  0  0  0  0
   -3.1716    2.5048   -2.2859 H   0  0  0  0  0  0  0  0  0  0  0  0
  5  6  2  0  0  0  0
  5  7  1  0  0  0  0
  2  3  1  0  0  0  0
  2  4  1  0  0  0  0
  2  5  1  0  0  0  0
  1  2  1  0  0  0  0
 29 30  2  0  0  0  0
 29 31  1  0  0  0  0
 26 27  1  0  0  0  0
 26 28  2  0  0  0  0
 24 25  1  0  0  0  0
 24 26  1  0  0  0  0
 22 23  1  0  0  0  0
 22 24  2  0  0  0  0
 20 21  1  0  0  0  0
 20 22  1  0  0  0  0
 19 20  2  0  0  0  0
 19 28  1  0  0  0  0
 17 18  1  0  0  0  0
 17 19  1  0  0  0  0
 15 16  1  0  0  0  0
 15 17  1  0  0  0  0
 14 15  2  0  0  0  0
 14 28  1  0  0  0  0
 11 12  1  0  0  0  0
 11 13  1  0  0  0  0
 11 14  1  0  0  0  0
  9 10  1  0  0  0  0
  9 11  1  0  0  0  0
  9 29  1  0  0  0  0
  7  8  1  0  0  0  0
  7  9  1  0  0  0  0
 33 34  1  0  0  0  0
 33 35  1  0  0  0  0
 33 36  1  0  0  0  0
 31 32  1  0  0  0  0
 31 33  1  0  0  0  0
M  END
$$$$
default_name
  -OEChem-12212115393D

 36 37  0     1  0  0  0  0  0999 V2000
   -4.0843   -4.0736    1.2944 H   0  0  0  0  0  0  0  0  0  0  0  0
   -4.0342   -3.2816    0.5484 C   0  0  0  0  0  0  0  0  0  0  0  0
   -4.8842   -2.6126    0.6694 H   0  0  0  0  0  0  0  0  0  0  0  0
   -4.0433   -3.7186   -0.4486 H   0  0  0  0  0  0  0  0  0  0  0  0
   -2.7532   -2.5046    0.7444 C   0  0  0  0  0  0  0  0  0  0  0  0
   -1.9803   -2.8096    1.6434 O   0  0  0  0  0  0  0  0  0  0  0  0
   -2.5332   -1.4966   -0.0966 N   0  0  0  0  0  0  0  0  0  0  0  0
   -3.2312   -1.2816   -0.7936 H   0  0  0  0  0  0  0  0  0  0  0  0
   -1.3593   -0.6196   -0.0536 C   0  0  1  0  0  0  0  0  0  0  0  0
   -1.0371   -0.5178    0.9834 H   0  0  0  0  0  0  0  0  0  0  0  0
   -0.2121   -1.2596   -0.8513 C   0  0  0  0  0  0  0  0  0  0  0  0
    0.6629   -0.6100   -0.7916 H   0  0  0  0  0  0  0  0  0  0  0  0
    0.0493   -2.2096   -0.3822 H   0  0  0  0  0  0  0  0  0  0  0  0
   -0.5056   -1.5098   -2.2995 C   0  0  0  0  0  0  0  0  0  0  0  0
   -0.3115   -0.6275   -3.3053 C   0  0  0  0  0  0  0  0  0  0  0  0
    0.0655    0.3812   -3.1772 H   0  0  0  0  0  0  0  0  0  0  0  0
   -0.6462   -1.2153   -4.5094 N   0  0  0  0  0  0  0  0  0  0  0  0
   -0.5841   -0.7396   -5.3977 H   0  0  0  0  0  0  0  0  0  0  0  0
   -1.0596   -2.5196   -4.3401 C   0  0  0  0  0  0  0  0  0  0  0  0
   -1.4663   -3.5196   -5.2350 C   0  0  0  0  0  0  0  0  0  0  0  0
   -1.5013   -3.3231   -6.2965 H   0  0  0  0  0  0  0  0  0  0  0  0
   -1.8294   -4.7803   -4.7311 C   0  0  0  0  0  0  0  0  0  0  0  0
   -2.1467   -5.5635   -5.4062 H   0  0  0  0  0  0  0  0  0  0  0  0
   -1.7860   -5.0203   -3.3455 C   0  0  0  0  0  0  0  0  0  0  0  0
   -2.0742   -5.9891   -2.9614 H   0  0  0  0  0  0  0  0  0  0  0  0
   -1.3774   -4.0071   -2.4551 C   0  0  0  0  0  0  0  0  0  0  0  0
   -1.3614   -4.2006   -1.3920 H   0  0  0  0  0  0  0  0  0  0  0  0
   -1.0006   -2.7323   -2.9302 C   0  0  0  0  0  0  0  0  0  0  0  0
   -1.6973    0.7865   -0.5726 C   0  0  0  0  0  0  0  0  0  0  0  0
   -1.5593    1.7663    0.1585 O   0  0  0  0  0  0  0  0  0  0  0  0
   -2.1413    0.8849   -1.8329 N   0  0  0  0  0  0  0  0  0  0  0  0
   -2.2782    0.0274   -2.3489 H   0  0  0  0  0  0  0  0  0  0  0  0
   -2.5043    2.1424   -2.4804 C   0  0  0  0  0  0  0  0  0  0  0  0
   -1.6878    2.8595   -2.3756 H   0  0  0  0  0  0  0  0  0  0  0  0
   -2.7046    1.9753   -3.5395 H   0  0  0  0  0  0  0  0  0  0  0  0
   -3.3956    2.5548   -2.0046 H   0  0  0  0  0  0  0  0  0  0  0  0
  5  6  2  0  0  0  0
  5  7  1  0  0  0  0
  2  3  1  0  0  0  0
  2  4  1  0  0  0  0
  2  5  1  0  0  0  0
  1  2  1  0  0  0  0
 29 30  2  0  0  0  0
 29 31  1  0  0  0  0
 26 27  1  0  0  0  0
 26 28  2  0  0  0  0
 24 25  1  0  0  0  0
 24 26  1  0  0  0  0
 22 23  1  0  0  0  0
 22 24  2  0  0  0  0
 20 21  1  0  0  0  0
 20 22  1  0  0  0  0
 19 20  2  0  0  0  0
 19 28  1  0  0  0  0
 17 18  1  0  0  0  0
 17 19  1  0  0  0  0
 15 16  1  0  0  0  0
 15 17  1  0  0  0  0
 14 15  2  0  0  0  0
 14 28  1  0  0  0  0
 11 12  1  0  0  0  0
 11 13  1  0  0  0  0
 11 14  1  0  0  0  0
  9 10  1  0  0  0  0
  9 11  1  0  0  0  0
  9 29  1  0  0  0  0
  7  8  1  0  0  0  0
  7  9  1  0  0  0  0
 33 34  1  0  0  0  0
 33 35  1  0  0  0  0
 33 36  1  0  0  0  0
 31 32  1  0  0  0  0
 31 33  1  0  0  0  0
M  END
$$$$
default_name
  -OEChem-12212115393D

 36 37  0     1  0  0  0  0  0999 V2000
   -4.0843   -4.0736    1.2944 H   0  0  0  0  0  0  0  0  0  0  0  0
   -4.0342   -3.2816    0.5484 C   0  0  0  0  0  0  0  0  0  0  0  0
   -4.8842   -2.6126    0.6694 H   0  0  0  0  0  0  0  0  0  0  0  0
   -4.0433   -3.7186   -0.4486 H   0  0  0  0  0  0  0  0  0  0  0  0
   -2.7532   -2.5046    0.7444 C   0  0  0  0  0  0  0  0  0  0  0  0
   -1.9803   -2.8096    1.6434 O   0  0  0  0  0  0  0  0  0  0  0  0
   -2.5332   -1.4966   -0.0966 N   0  0  0  0  0  0  0  0  0  0  0  0
   -3.2312   -1.2816   -0.7936 H   0  0  0  0  0  0  0  0  0  0  0  0
   -1.3593   -0.6196   -0.0536 C   0  0  1  0  0  0  0  0  0  0  0  0
   -1.0371   -0.5178    0.9834 H   0  0  0  0  0  0  0  0  0  0  0  0
   -0.2121   -1.2596   -0.8513 C   0  0  0  0  0  0  0  0  0  0  0  0
    0.6629   -0.6100   -0.7916 H   0  0  0  0  0  0  0  0  0  0  0  0
    0.0493   -2.2096   -0.3822 H   0  0  0  0  0  0  0  0  0  0  0  0
   -0.5056   -1.5098   -2.2995 C   0  0  0  0  0  0  0  0  0  0  0  0
   -0.3115   -0.6275   -3.3053 C   0  0  0  0  0  0  0  0  0  0  0  0
    0.0655    0.3812   -3.1772 H   0  0  0  0  0  0  0  0  0  0  0  0
   -0.6462   -1.2153   -4.5094 N   0  0  0  0  0  0  0  0  0  0  0  0
   -0.5841   -0.7396   -5.3977 H   0  0  0  0  0  0  0  0  0  0  0  0
   -1.0596   -2.5196   -4.3401 C   0  0  0  0  0  0  0  0  0  0  0  0
   -1.4663   -3.5196   -5.2350 C   0  0  0  0  0  0  0  0  0  0  0  0
   -1.5013   -3.3231   -6.2965 H   0  0  0  0  0  0  0  0  0  0  0  0
   -1.8294   -4.7803   -4.7311 C   0  0  0  0  0  0  0  0  0  0  0  0
   -2.1467   -5.5635   -5.4062 H   0  0  0  0  0  0  0  0  0  0  0  0
   -1.7860   -5.0203   -3.3455 C   0  0  0  0  0  0  0  0  0  0  0  0
   -2.0742   -5.9891   -2.9614 H   0  0  0  0  0  0  0  0  0  0  0  0
   -1.3774   -4.0071   -2.4551 C   0  0  0  0  0  0  0  0  0  0  0  0
   -1.3614   -4.2006   -1.3920 H   0  0  0  0  0  0  0  0  0  0  0  0
   -1.0006   -2.7323   -2.9302 C   0  0  0  0  0  0  0  0  0  0  0  0
   -1.6973    0.7865   -0.5726 C   0  0  0  0  0  0  0  0  0  0  0  0
   -1.3098    1.7818    0.0380 O   0  0  0  0  0  0  0  0  0  0  0  0
   -2.4207    0.8677   -1.6974 N   0  0  0  0  0  0  0  0  0  0  0  0
   -2.7458    0.0039   -2.1079 H   0  0  0  0  0  0  0  0  0  0  0  0
   -2.8256    2.1224   -2.3252 C   0  0  0  0  0  0  0  0  0  0  0  0
   -1.9528    2.7634   -2.4633 H   0  0  0  0  0  0  0  0  0  0  0  0
   -3.2864    1.9260   -3.2942 H   0  0  0  0  0  0  0  0  0  0  0  0
   -3.5409    2.6387   -1.6828 H   0  0  0  0  0  0  0  0  0  0  0  0
  5  6  2  0  0  0  0
  5  7  1  0  0  0  0
  2  3  1  0  0  0  0
  2  4  1  0  0  0  0
  2  5  1  0  0  0  0
  1  2  1  0  0  0  0
 29 30  2  0  0  0  0
 29 31  1  0  0  0  0
 26 27  1  0  0  0  0
 26 28  2  0  0  0  0
 24 25  1  0  0  0  0
 24 26  1  0  0  0  0
 22 23  1  0  0  0  0
 22 24  2  0  0  0  0
 20 21  1  0  0  0  0
 20 22  1  0  0  0  0
 19 20  2  0  0  0  0
 19 28  1  0  0  0  0
 17 18  1  0  0  0  0
 17 19  1  0  0  0  0
 15 16  1  0  0  0  0
 15 17  1  0  0  0  0
 14 15  2  0  0  0  0
 14 28  1  0  0  0  0
 11 12  1  0  0  0  0
 11 13  1  0  0  0  0
 11 14  1  0  0  0  0
  9 10  1  0  0  0  0
  9 11  1  0  0  0  0
  9 29  1  0  0  0  0
  7  8  1  0  0  0  0
  7  9  1  0  0  0  0
 33 34  1  0  0  0  0
 33 35  1  0  0  0  0
 33 36  1  0  0  0  0
 31 32  1  0  0  0  0
 31 33  1  0  0  0  0
M  END
$$$$
default_name
  -OEChem-12212115393D

 36 37  0     1  0  0  0  0  0999 V2000
   -4.0843   -4.0736    1.2944 H   0  0  0  0  0  0  0  0  0  0  0  0
   -4.0342   -3.2816    0.5484 C   0  0  0  0  0  0  0  0  0  0  0  0
   -4.8842   -2.6126    0.6694 H   0  0  0  0  0  0  0  0  0  0  0  0
   -4.0433   -3.7186   -0.4486 H   0  0  0  0  0  0  0  0  0  0  0  0
   -2.7532   -2.5046    0.7444 C   0  0  0  0  0  0  0  0  0  0  0  0
   -1.9803   -2.8096    1.6434 O   0  0  0  0  0  0  0  0  0  0  0  0
   -2.5332   -1.4966   -0.0966 N   0  0  0  0  0  0  0  0  0  0  0  0
   -3.2312   -1.2816   -0.7936 H   0  0  0  0  0  0  0  0  0  0  0  0
   -1.3593   -0.6196   -0.0536 C   0  0  1  0  0  0  0  0  0  0  0  0
   -1.0371   -0.5178    0.9834 H   0  0  0  0  0  0  0  0  0  0  0  0
   -0.2121   -1.2596   -0.8513 C   0  0  0  0  0  0  0  0  0  0  0  0
    0.6629   -0.6100   -0.7916 H   0  0  0  0  0  0  0  0  0  0  0  0
    0.0493   -2.2096   -0.3822 H   0  0  0  0  0  0  0  0  0  0  0  0
   -0.5056   -1.5098   -2.2995 C   0  0  0  0  0  0  0  0  0  0  0  0
   -0.3115   -0.6275   -3.3053 C   0  0  0  0  0  0  0  0  0  0  0  0
    0.0655    0.3812   -3.1772 H   0  0  0  0  0  0  0  0  0  0  0  0
   -0.6462   -1.2153   -4.5094 N   0  0  0  0  0  0  0  0  0  0  0  0
   -0.5841   -0.7396   -5.3977 H   0  0  0  0  0  0  0  0  0  0  0  0
   -1.0596   -2.5196   -4.3401 C   0  0  0  0  0  0  0  0  0  0  0  0
   -1.4663   -3.5196   -5.2350 C   0  0  0  0  0  0  0  0  0  0  0  0
   -1.5013   -3.3231   -6.2965 H   0  0  0  0  0  0  0  0  0  0  0  0
   -1.8294   -4.7803   -4.7311 C   0  0  0  0  0  0  0  0  0  0  0  0
   -2.1467   -5.5635   -5.4062 H   0  0  0  0  0  0  0  0  0  0  0  0
   -1.7860   -5.0203   -3.3455 C   0  0  0  0  0  0  0  0  0  0  0  0
   -2.0742   -5.9891   -2.9614 H   0  0  0  0  0  0  0  0  0  0  0  0
   -1.3774   -4.0071   -2.4551 C   0  0  0  0  0  0  0  0  0  0  0  0
   -1.3614   -4.2006   -1.3920 H   0  0  0  0  0  0  0  0  0  0  0  0
   -1.0006   -2.7323   -2.9302 C   0  0  0  0  0  0  0  0  0  0  0  0
   -1.6973    0.7865   -0.5726 C   0  0  0  0  0  0  0  0  0  0  0  0
   -1.0960    1.7681   -0.1384 O   0  0  0  0  0  0  0  0  0  0  0  0
   -2.6600    0.8833   -1.4995 N   0  0  0  0  0  0  0  0  0  0  0  0
   -3.1424    0.0359   -1.7631 H   0  0  0  0  0  0  0  0  0  0  0  0
   -3.1009    2.1401   -2.0981 C   0  0  0  0  0  0  0  0  0  0  0  0
   -2.2379    2.6888   -2.4798 H   0  0  0  0  0  0  0  0  0  0  0  0
   -3.7946    1.9432   -2.9165 H   0  0  0  0  0  0  0  0  0  0  0  0
   -3.5976    2.7507   -1.3422 H   0  0  0  0  0  0  0  0  0  0  0  0
  5  6  2  0  0  0  0
  5  7  1  0  0  0  0
  2  3  1  0  0  0  0
  2  4  1  0  0  0  0
  2  5  1  0  0  0  0
  1  2  1  0  0  0  0
 29 30  2  0  0  0  0
 29 31  1  0  0  0  0
 26 27  1  0  0  0  0
 26 28  2  0  0  0  0
 24 25  1  0  0  0  0
 24 26  1  0  0  0  0
 22 23  1  0  0  0  0
 22 24  2  0  0  0  0
 20 21  1  0  0  0  0
 20 22  1  0  0  0  0
 19 20  2  0  0  0  0
 19 28  1  0  0  0  0
 17 18  1  0  0  0  0
 17 19  1  0  0  0  0
 15 16  1  0  0  0  0
 15 17  1  0  0  0  0
 14 15  2  0  0  0  0
 14 28  1  0  0  0  0
 11 12  1  0  0  0  0
 11 13  1  0  0  0  0
 11 14  1  0  0  0  0
  9 10  1  0  0  0  0
  9 11  1  0  0  0  0
  9 29  1  0  0  0  0
  7  8  1  0  0  0  0
  7  9  1  0  0  0  0
 33 34  1  0  0  0  0
 33 35  1  0  0  0  0
 33 36  1  0  0  0  0
 31 32  1  0  0  0  0
 31 33  1  0  0  0  0
M  END
$$$$
default_name
  -OEChem-12212115393D

 36 37  0     1  0  0  0  0  0999 V2000
   -4.0843   -4.0736    1.2944 H   0  0  0  0  0  0  0  0  0  0  0  0
   -4.0342   -3.2816    0.5484 C   0  0  0  0  0  0  0  0  0  0  0  0
   -4.8842   -2.6126    0.6694 H   0  0  0  0  0  0  0  0  0  0  0  0
   -4.0433   -3.7186   -0.4486 H   0  0  0  0  0  0  0  0  0  0  0  0
   -2.7532   -2.5046    0.7444 C   0  0  0  0  0  0  0  0  0  0  0  0
   -1.9803   -2.8096    1.6434 O   0  0  0  0  0  0  0  0  0  0  0  0
   -2.5332   -1.4966   -0.0966 N   0  0  0  0  0  0  0  0  0  0  0  0
   -3.2312   -1.2816   -0.7936 H   0  0  0  0  0  0  0  0  0  0  0  0
   -1.3593   -0.6196   -0.0536 C   0  0  1  0  0  0  0  0  0  0  0  0
   -1.0371   -0.5178    0.9834 H   0  0  0  0  0  0  0  0  0  0  0  0
   -0.2121   -1.2596   -0.8513 C   0  0  0  0  0  0  0  0  0  0  0  0
    0.6629   -0.6100   -0.7916 H   0  0  0  0  0  0  0  0  0  0  0  0
    0.0493   -2.2096   -0.3822 H   0  0  0  0  0  0  0  0  0  0  0  0
   -0.5056   -1.5098   -2.2995 C   0  0  0  0  0  0  0  0  0  0  0  0
   -0.3115   -0.6275   -3.3053 C   0  0  0  0  0  0  0  0  0  0  0  0
    0.0655    0.3812   -3.1772 H   0  0  0  0  0  0  0  0  0  0  0  0
   -0.6462   -1.2153   -4.5094 N   0  0  0  0  0  0  0  0  0  0  0  0
   -0.5841   -0.7396   -5.3977 H   0  0  0  0  0  0  0  0  0  0  0  0
   -1.0596   -2.5196   -4.3401 C   0  0  0  0  0  0  0  0  0  0  0  0
   -1.4663   -3.5196   -5.2350 C   0  0  0  0  0  0  0  0  0  0  0  0
   -1.5013   -3.3231   -6.2965 H   0  0  0  0  0  0  0  0  0  0  0  0
   -1.8294   -4.7803   -4.7311 C   0  0  0  0  0  0  0  0  0  0  0  0
   -2.1467   -5.5635   -5.4062 H   0  0  0  0  0  0  0  0  0  0  0  0
   -1.7860   -5.0203   -3.3455 C   0  0  0  0  0  0  0  0  0  0  0  0
   -2.0742   -5.9891   -2.9614 H   0  0  0  0  0  0  0  0  0  0  0  0
   -1.3774   -4.0071   -2.4551 C   0  0  0  0  0  0  0  0  0  0  0  0
   -1.3614   -4.2006   -1.3920 H   0  0  0  0  0  0  0  0  0  0  0  0
   -1.0006   -2.7323   -2.9302 C   0  0  0  0  0  0  0  0  0  0  0  0
   -1.6973    0.7865   -0.5726 C   0  0  0  0  0  0  0  0  0  0  0  0
   -0.9325    1.7261   -0.3586 O   0  0  0  0  0  0  0  0  0  0  0  0
   -2.8429    0.9305   -1.2524 N   0  0  0  0  0  0  0  0  0  0  0  0
   -3.4410    0.1210   -1.3379 H   0  0  0  0  0  0  0  0  0  0  0  0
   -3.3116    2.1941   -1.8144 C   0  0  0  0  0  0  0  0  0  0  0  0
   -2.5236    2.6407   -2.4239 H   0  0  0  0  0  0  0  0  0  0  0  0
   -4.1945    2.0258   -2.4324 H   0  0  0  0  0  0  0  0  0  0  0  0
   -3.5620    2.8833   -1.0062 H   0  0  0  0  0  0  0  0  0  0  0  0
  5  6  2  0  0  0  0
  5  7  1  0  0  0  0
  2  3  1  0  0  0  0
  2  4  1  0  0  0  0
  2  5  1  0  0  0  0
  1  2  1  0  0  0  0
 29 30  2  0  0  0  0
 29 31  1  0  0  0  0
 26 27  1  0  0  0  0
 26 28  2  0  0  0  0
 24 25  1  0  0  0  0
 24 26  1  0  0  0  0
 22 23  1  0  0  0  0
 22 24  2  0  0  0  0
 20 21  1  0  0  0  0
 20 22  1  0  0  0  0
 19 20  2  0  0  0  0
 19 28  1  0  0  0  0
 17 18  1  0  0  0  0
 17 19  1  0  0  0  0
 15 16  1  0  0  0  0
 15 17  1  0  0  0  0
 14 15  2  0  0  0  0
 14 28  1  0  0  0  0
 11 12  1  0  0  0  0
 11 13  1  0  0  0  0
 11 14  1  0  0  0  0
  9 10  1  0  0  0  0
  9 11  1  0  0  0  0
  9 29  1  0  0  0  0
  7  8  1  0  0  0  0
  7  9  1  0  0  0  0
 33 34  1  0  0  0  0
 33 35  1  0  0  0  0
 33 36  1  0  0  0  0
 31 32  1  0  0  0  0
 31 33  1  0  0  0  0
M  END
$$$$
default_name
  -OEChem-12212115393D

 36 37  0     1  0  0  0  0  0999 V2000
   -4.0843   -4.0736    1.2944 H   0  0  0  0  0  0  0  0  0  0  0  0
   -4.0342   -3.2816    0.5484 C   0  0  0  0  0  0  0  0  0  0  0  0
   -4.8842   -2.6126    0.6694 H   0  0  0  0  0  0  0  0  0  0  0  0
   -4.0433   -3.7186   -0.4486 H   0  0  0  0  0  0  0  0  0  0  0  0
   -2.7532   -2.5046    0.7444 C   0  0  0  0  0  0  0  0  0  0  0  0
   -1.9803   -2.8096    1.6434 O   0  0  0  0  0  0  0  0  0  0  0  0
   -2.5332   -1.4966   -0.0966 N   0  0  0  0  0  0  0  0  0  0  0  0
   -3.2312   -1.2816   -0.7936 H   0  0  0  0  0  0  0  0  0  0  0  0
   -1.3593   -0.6196   -0.0536 C   0  0  1  0  0  0  0  0  0  0  0  0
   -1.0371   -0.5178    0.9834 H   0  0  0  0  0  0  0  0  0  0  0  0
   -0.2121   -1.2596   -0.8513 C   0  0  0  0  0  0  0  0  0  0  0  0
    0.6629   -0.6100   -0.7916 H   0  0  0  0  0  0  0  0  0  0  0  0
    0.0493   -2.2096   -0.3822 H   0  0  0  0  0  0  0  0  0  0  0  0
   -0.5056   -1.5098   -2.2995 C   0  0  0  0  0  0  0  0  0  0  0  0
   -0.3115   -0.6275   -3.3053 C   0  0  0  0  0  0  0  0  0  0  0  0
    0.0655    0.3812   -3.1772 H   0  0  0  0  0  0  0  0  0  0  0  0
   -0.6462   -1.2153   -4.5094 N   0  0  0  0  0  0  0  0  0  0  0  0
   -0.5841   -0.7396   -5.3977 H   0  0  0  0  0  0  0  0  0  0  0  0
   -1.0596   -2.5196   -4.3401 C   0  0  0  0  0  0  0  0  0  0  0  0
   -1.4663   -3.5196   -5.2350 C   0  0  0  0  0  0  0  0  0  0  0  0
   -1.5013   -3.3231   -6.2965 H   0  0  0  0  0  0  0  0  0  0  0  0
   -1.8294   -4.7803   -4.7311 C   0  0  0  0  0  0  0  0  0  0  0  0
   -2.1467   -5.5635   -5.4062 H   0  0  0  0  0  0  0  0  0  0  0  0
   -1.7860   -5.0203   -3.3455 C   0  0  0  0  0  0  0  0  0  0  0  0
   -2.0742   -5.9891   -2.9614 H   0  0  0  0  0  0  0  0  0  0  0  0
   -1.3774   -4.0071   -2.4551 C   0  0  0  0  0  0  0  0  0  0  0  0
   -1.3614   -4.2006   -1.3920 H   0  0  0  0  0  0  0  0  0  0  0  0
   -1.0006   -2.7323   -2.9302 C   0  0  0  0  0  0  0  0  0  0  0  0
   -1.6973    0.7865   -0.5726 C   0  0  0  0  0  0  0  0  0  0  0  0
   -0.8303    1.6588   -0.6077 O   0  0  0  0  0  0  0  0  0  0  0  0
   -2.9569    1.0061   -0.9732 N   0  0  0  0  0  0  0  0  0  0  0  0
   -3.6212    0.2536   -0.8613 H   0  0  0  0  0  0  0  0  0  0  0  0
   -3.4431    2.2809   -1.4937 C   0  0  0  0  0  0  0  0  0  0  0  0
   -2.7907    2.6224   -2.2995 H   0  0  0  0  0  0  0  0  0  0  0  0
   -4.4589    2.1680   -1.8747 H   0  0  0  0  0  0  0  0  0  0  0  0
   -3.4365    3.0274   -0.6977 H   0  0  0  0  0  0  0  0  0  0  0  0
  5  6  2  0  0  0  0
  5  7  1  0  0  0  0
  2  3  1  0  0  0  0
  2  4  1  0  0  0  0
  2  5  1  0  0  0  0
  1  2  1  0  0  0  0
 29 30  2  0  0  0  0
 29 31  1  0  0  0  0
 26 27  1  0  0  0  0
 26 28  2  0  0  0  0
 24 25  1  0  0  0  0
 24 26  1  0  0  0  0
 22 23  1  0  0  0  0
 22 24  2  0  0  0  0
 20 21  1  0  0  0  0
 20 22  1  0  0  0  0
 19 20  2  0  0  0  0
 19 28  1  0  0  0  0
 17 18  1  0  0  0  0
 17 19  1  0  0  0  0
 15 16  1  0  0  0  0
 15 17  1  0  0  0  0
 14 15  2  0  0  0  0
 14 28  1  0  0  0  0
 11 12  1  0  0  0  0
 11 13  1  0  0  0  0
 11 14  1  0  0  0  0
  9 10  1  0  0  0  0
  9 11  1  0  0  0  0
  9 29  1  0  0  0  0
  7  8  1  0  0  0  0
  7  9  1  0  0  0  0
 33 34  1  0  0  0  0
 33 35  1  0  0  0  0
 33 36  1  0  0  0  0
 31 32  1  0  0  0  0
 31 33  1  0  0  0  0
M  END
$$$$
default_name
  -OEChem-12212115393D

 36 37  0     1  0  0  0  0  0999 V2000
   -4.0843   -4.0736    1.2944 H   0  0  0  0  0  0  0  0  0  0  0  0
   -4.0342   -3.2816    0.5484 C   0  0  0  0  0  0  0  0  0  0  0  0
   -4.8842   -2.6126    0.6694 H   0  0  0  0  0  0  0  0  0  0  0  0
   -4.0433   -3.7186   -0.4486 H   0  0  0  0  0  0  0  0  0  0  0  0
   -2.7532   -2.5046    0.7444 C   0  0  0  0  0  0  0  0  0  0  0  0
   -1.9803   -2.8096    1.6434 O   0  0  0  0  0  0  0  0  0  0  0  0
   -2.5332   -1.4966   -0.0966 N   0  0  0  0  0  0  0  0  0  0  0  0
   -3.2312   -1.2816   -0.7936 H   0  0  0  0  0  0  0  0  0  0  0  0
   -1.3593   -0.6196   -0.0536 C   0  0  1  0  0  0  0  0  0  0  0  0
   -1.0371   -0.5178    0.9834 H   0  0  0  0  0  0  0  0  0  0  0  0
   -0.2121   -1.2596   -0.8513 C   0  0  0  0  0  0  0  0  0  0  0  0
    0.6629   -0.6100   -0.7916 H   0  0  0  0  0  0  0  0  0  0  0  0
    0.0493   -2.2096   -0.3822 H   0  0  0  0  0  0  0  0  0  0  0  0
   -0.5056   -1.5098   -2.2995 C   0  0  0  0  0  0  0  0  0  0  0  0
   -0.3115   -0.6275   -3.3053 C   0  0  0  0  0  0  0  0  0  0  0  0
    0.0655    0.3812   -3.1772 H   0  0  0  0  0  0  0  0  0  0  0  0
   -0.6462   -1.2153   -4.5094 N   0  0  0  0  0  0  0  0  0  0  0  0
   -0.5841   -0.7396   -5.3977 H   0  0  0  0  0  0  0  0  0  0  0  0
   -1.0596   -2.5196   -4.3401 C   0  0  0  0  0  0  0  0  0  0  0  0
   -1.4663   -3.5196   -5.2350 C   0  0  0  0  0  0  0  0  0  0  0  0
   -1.5013   -3.3231   -6.2965 H   0  0  0  0  0  0  0  0  0  0  0  0
   -1.8294   -4.7803   -4.7311 C   0  0  0  0  0  0  0  0  0  0  0  0
   -2.1467   -5.5635   -5.4062 H   0  0  0  0  0  0  0  0  0  0  0  0
   -1.7860   -5.0203   -3.3455 C   0  0  0  0  0  0  0  0  0  0  0  0
   -2.0742   -5.9891   -2.9614 H   0  0  0  0  0  0  0  0  0  0  0  0
   -1.3774   -4.0071   -2.4551 C   0  0  0  0  0  0  0  0  0  0  0  0
   -1.3614   -4.2006   -1.3920 H   0  0  0  0  0  0  0  0  0  0  0  0
   -1.0006   -2.7323   -2.9302 C   0  0  0  0  0  0  0  0  0  0  0  0
   -1.6973    0.7865   -0.5726 C   0  0  0  0  0  0  0  0  0  0  0  0
   -0.7966    1.5706   -0.8687 O   0  0  0  0  0  0  0  0  0  0  0  0
   -2.9942    1.1051   -0.6808 N   0  0  0  0  0  0  0  0  0  0  0  0
   -3.6709    0.4245   -0.3658 H   0  0  0  0  0  0  0  0  0  0  0  0
   -3.4866    2.3944   -1.1576 C   0  0  0  0  0  0  0  0  0  0  0  0
   -3.0207    2.6352   -2.1150 H   0  0  0  0  0  0  0  0  0  0  0  0
   -4.5698    2.3603   -1.2815 H   0  0  0  0  0  0  0  0  0  0  0  0
   -3.2295    3.1731   -0.4376 H   0  0  0  0  0  0  0  0  0  0  0  0
  5  6  2  0  0  0  0
  5  7  1  0  0  0  0
  2  3  1  0  0  0  0
  2  4  1  0  0  0  0
  2  5  1  0  0  0  0
  1  2  1  0  0  0  0
 29 30  2  0  0  0  0
 29 31  1  0  0  0  0
 26 27  1  0  0  0  0
 26 28  2  0  0  0  0
 24 25  1  0  0  0  0
 24 26  1  0  0  0  0
 22 23  1  0  0  0  0
 22 24  2  0  0  0  0
 20 21  1  0  0  0  0
 20 22  1  0  0  0  0
 19 20  2  0  0  0  0
 19 28  1  0  0  0  0
 17 18  1  0  0  0  0
 17 19  1  0  0  0  0
 15 16  1  0  0  0  0
 15 17  1  0  0  0  0
 14 15  2  0  0  0  0
 14 28  1  0  0  0  0
 11 12  1  0  0  0  0
 11 13  1  0  0  0  0
 11 14  1  0  0  0  0
  9 10  1  0  0  0  0
  9 11  1  0  0  0  0
  9 29  1  0  0  0  0
  7  8  1  0  0  0  0
  7  9  1  0  0  0  0
 33 34  1  0  0  0  0
 33 35  1  0  0  0  0
 33 36  1  0  0  0  0
 31 32  1  0  0  0  0
 31 33  1  0  0  0  0
M  END
$$$$
default_name
  -OEChem-12212115393D

 36 37  0     1  0  0  0  0  0999 V2000
   -4.0843   -4.0736    1.2944 H   0  0  0  0  0  0  0  0  0  0  0  0
   -4.0342   -3.2816    0.5484 C   0  0  0  0  0  0  0  0  0  0  0  0
   -4.8842   -2.6126    0.6694 H   0  0  0  0  0  0  0  0  0  0  0  0
   -4.0433   -3.7186   -0.4486 H   0  0  0  0  0  0  0  0  0  0  0  0
   -2.7532   -2.5046    0.7444 C   0  0  0  0  0  0  0  0  0  0  0  0
   -1.9803   -2.8096    1.6434 O   0  0  0  0  0  0  0  0  0  0  0  0
   -2.5332   -1.4966   -0.0966 N   0  0  0  0  0  0  0  0  0  0  0  0
   -3.2312   -1.2816   -0.7936 H   0  0  0  0  0  0  0  0  0  0  0  0
   -1.3593   -0.6196   -0.0536 C   0  0  1  0  0  0  0  0  0  0  0  0
   -1.0371   -0.5178    0.9834 H   0  0  0  0  0  0  0  0  0  0  0  0
   -0.2121   -1.2596   -0.8513 C   0  0  0  0  0  0  0  0  0  0  0  0
    0.6629   -0.6100   -0.7916 H   0  0  0  0  0  0  0  0  0  0  0  0
    0.0493   -2.2096   -0.3822 H   0  0  0  0  0  0  0  0  0  0  0  0
   -0.5056   -1.5098   -2.2995 C   0  0  0  0  0  0  0  0  0  0  0  0
   -0.3115   -0.6275   -3.3053 C   0  0  0  0  0  0  0  0  0  0  0  0
    0.0655    0.3812   -3.1772 H   0  0  0  0  0  0  0  0  0  0  0  0
   -0.6462   -1.2153   -4.5094 N   0  0  0  0  0  0  0  0  0  0  0  0
   -0.5841   -0.7396   -5.3977 H   0  0  0  0  0  0  0  0  0  0  0  0
   -1.0596   -2.5196   -4.3401 C   0  0  0  0  0  0  0  0  0  0  0  0
   -1.4663   -3.5196   -5.2350 C   0  0  0  0  0  0  0  0  0  0  0  0
   -1.5013   -3.3231   -6.2965 H   0  0  0  0  0  0  0  0  0  0  0  0
   -1.8294   -4.7803   -4.7311 C   0  0  0  0  0  0  0  0  0  0  0  0
   -2.1467   -5.5635   -5.4062 H   0  0  0  0  0  0  0  0  0  0  0  0
   -1.7860   -5.0203   -3.3455 C   0  0  0  0  0  0  0  0  0  0  0  0
   -2.0742   -5.9891   -2.9614 H   0  0  0  0  0  0  0  0  0  0  0  0
   -1.3774   -4.0071   -2.4551 C   0  0  0  0  0  0  0  0  0  0  0  0
   -1.3614   -4.2006   -1.3920 H   0  0  0  0  0  0  0  0  0  0  0  0
   -1.0006   -2.7323   -2.9302 C   0  0  0  0  0  0  0  0  0  0  0  0
   -1.6973    0.7865   -0.5726 C   0  0  0  0  0  0  0  0  0  0  0  0
   -0.8335    1.4676   -1.1237 O   0  0  0  0  0  0  0  0  0  0  0  0
   -2.9524    1.2206   -0.3951 N   0  0  0  0  0  0  0  0  0  0  0  0
   -3.5866    0.6222    0.1149 H   0  0  0  0  0  0  0  0  0  0  0  0
   -3.4391    2.5271   -0.8292 C   0  0  0  0  0  0  0  0  0  0  0  0
   -3.1981    2.6782   -1.8831 H   0  0  0  0  0  0  0  0  0  0  0  0
   -4.5196    2.5895   -0.6932 H   0  0  0  0  0  0  0  0  0  0  0  0
   -2.9552    3.3106   -0.2437 H   0  0  0  0  0  0  0  0  0  0  0  0
  5  6  2  0  0  0  0
  5  7  1  0  0  0  0
  2  3  1  0  0  0  0
  2  4  1  0  0  0  0
  2  5  1  0  0  0  0
  1  2  1  0  0  0  0
 29 30  2  0  0  0  0
 29 31  1  0  0  0  0
 26 27  1  0  0  0  0
 26 28  2  0  0  0  0
 24 25  1  0  0  0  0
 24 26  1  0  0  0  0
 22 23  1  0  0  0  0
 22 24  2  0  0  0  0
 20 21  1  0  0  0  0
 20 22  1  0  0  0  0
 19 20  2  0  0  0  0
 19 28  1  0  0  0  0
 17 18  1  0  0  0  0
 17 19  1  0  0  0  0
 15 16  1  0  0  0  0
 15 17  1  0  0  0  0
 14 15  2  0  0  0  0
 14 28  1  0  0  0  0
 11 12  1  0  0  0  0
 11 13  1  0  0  0  0
 11 14  1  0  0  0  0
  9 10  1  0  0  0  0
  9 11  1  0  0  0  0
  9 29  1  0  0  0  0
  7  8  1  0  0  0  0
  7  9  1  0  0  0  0
 33 34  1  0  0  0  0
 33 35  1  0  0  0  0
 33 36  1  0  0  0  0
 31 32  1  0  0  0  0
 31 33  1  0  0  0  0
M  END
$$$$
default_name
  -OEChem-12212115393D

 36 37  0     1  0  0  0  0  0999 V2000
   -4.0843   -4.0736    1.2944 H   0  0  0  0  0  0  0  0  0  0  0  0
   -4.0342   -3.2816    0.5484 C   0  0  0  0  0  0  0  0  0  0  0  0
   -4.8842   -2.6126    0.6694 H   0  0  0  0  0  0  0  0  0  0  0  0
   -4.0433   -3.7186   -0.4486 H   0  0  0  0  0  0  0  0  0  0  0  0
   -2.7532   -2.5046    0.7444 C   0  0  0  0  0  0  0  0  0  0  0  0
   -1.9803   -2.8096    1.6434 O   0  0  0  0  0  0  0  0  0  0  0  0
   -2.5332   -1.4966   -0.0966 N   0  0  0  0  0  0  0  0  0  0  0  0
   -3.2312   -1.2816   -0.7936 H   0  0  0  0  0  0  0  0  0  0  0  0
   -1.3593   -0.6196   -0.0536 C   0  0  1  0  0  0  0  0  0  0  0  0
   -1.0371   -0.5178    0.9834 H   0  0  0  0  0  0  0  0  0  0  0  0
   -0.2121   -1.2596   -0.8513 C   0  0  0  0  0  0  0  0  0  0  0  0
    0.6629   -0.6100   -0.7916 H   0  0  0  0  0  0  0  0  0  0  0  0
    0.0493   -2.2096   -0.3822 H   0  0  0  0  0  0  0  0  0  0  0  0
   -0.5056   -1.5098   -2.2995 C   0  0  0  0  0  0  0  0  0  0  0  0
   -0.3115   -0.6275   -3.3053 C   0  0  0  0  0  0  0  0  0  0  0  0
    0.0655    0.3812   -3.1772 H   0  0  0  0  0  0  0  0  0  0  0  0
   -0.6462   -1.2153   -4.5094 N   0  0  0  0  0  0  0  0  0  0  0  0
   -0.5841   -0.7396   -5.3977 H   0  0  0  0  0  0  0  0  0  0  0  0
   -1.0596   -2.5196   -4.3401 C   0  0  0  0  0  0  0  0  0  0  0  0
   -1.4663   -3.5196   -5.2350 C   0  0  0  0  0  0  0  0  0  0  0  0
   -1.5013   -3.3231   -6.2965 H   0  0  0  0  0  0  0  0  0  0  0  0
   -1.8294   -4.7803   -4.7311 C   0  0  0  0  0  0  0  0  0  0  0  0
   -2.1467   -5.5635   -5.4062 H   0  0  0  0  0  0  0  0  0  0  0  0
   -1.7860   -5.0203   -3.3455 C   0  0  0  0  0  0  0  0  0  0  0  0
   -2.0742   -5.9891   -2.9614 H   0  0  0  0  0  0  0  0  0  0  0  0
   -1.3774   -4.0071   -2.4551 C   0  0  0  0  0  0  0  0  0  0  0  0
   -1.3614   -4.2006   -1.3920 H   0  0  0  0  0  0  0  0  0  0  0  0
   -1.0006   -2.7323   -2.9302 C   0  0  0  0  0  0  0  0  0  0  0  0
   -1.6973    0.7865   -0.5726 C   0  0  0  0  0  0  0  0  0  0  0  0
   -0.9386    1.3568   -1.3554 O   0  0  0  0  0  0  0  0  0  0  0  0
   -2.8342    1.3447   -0.1356 N   0  0  0  0  0  0  0  0  0  0  0  0
   -3.3740    0.8331    0.5479 H   0  0  0  0  0  0  0  0  0  0  0  0
   -3.3038    2.6698   -0.5307 C   0  0  0  0  0  0  0  0  0  0  0  0
   -3.3108    2.7484   -1.6195 H   0  0  0  0  0  0  0  0  0  0  0  0
   -4.3117    2.8400   -0.1499 H   0  0  0  0  0  0  0  0  0  0  0  0
   -2.6324    3.4305   -0.1292 H   0  0  0  0  0  0  0  0  0  0  0  0
  5  6  2  0  0  0  0
  5  7  1  0  0  0  0
  2  3  1  0  0  0  0
  2  4  1  0  0  0  0
  2  5  1  0  0  0  0
  1  2  1  0  0  0  0
 29 30  2  0  0  0  0
 29 31  1  0  0  0  0
 26 27  1  0  0  0  0
 26 28  2  0  0  0  0
 24 25  1  0  0  0  0
 24 26  1  0  0  0  0
 22 23  1  0  0  0  0
 22 24  2  0  0  0  0
 20 21  1  0  0  0  0
 20 22  1  0  0  0  0
 19 20  2  0  0  0  0
 19 28  1  0  0  0  0
 17 18  1  0  0  0  0
 17 19  1  0  0  0  0
 15 16  1  0  0  0  0
 15 17  1  0  0  0  0
 14 15  2  0  0  0  0
 14 28  1  0  0  0  0
 11 12  1  0  0  0  0
 11 13  1  0  0  0  0
 11 14  1  0  0  0  0
  9 10  1  0  0  0  0
  9 11  1  0  0  0  0
  9 29  1  0  0  0  0
  7  8  1  0  0  0  0
  7  9  1  0  0  0  0
 33 34  1  0  0  0  0
 33 35  1  0  0  0  0
 33 36  1  0  0  0  0
 31 32  1  0  0  0  0
 31 33  1  0  0  0  0
M  END
$$$$
default_name
  -OEChem-12212115393D

 36 37  0     1  0  0  0  0  0999 V2000
   -4.0843   -4.0736    1.2944 H   0  0  0  0  0  0  0  0  0  0  0  0
   -4.0342   -3.2816    0.5484 C   0  0  0  0  0  0  0  0  0  0  0  0
   -4.8842   -2.6126    0.6694 H   0  0  0  0  0  0  0  0  0  0  0  0
   -4.0433   -3.7186   -0.4486 H   0  0  0  0  0  0  0  0  0  0  0  0
   -2.7532   -2.5046    0.7444 C   0  0  0  0  0  0  0  0  0  0  0  0
   -1.9803   -2.8096    1.6434 O   0  0  0  0  0  0  0  0  0  0  0  0
   -2.5332   -1.4966   -0.0966 N   0  0  0  0  0  0  0  0  0  0  0  0
   -3.2312   -1.2816   -0.7936 H   0  0  0  0  0  0  0  0  0  0  0  0
   -1.3593   -0.6196   -0.0536 C   0  0  1  0  0  0  0  0  0  0  0  0
   -1.0371   -0.5178    0.9834 H   0  0  0  0  0  0  0  0  0  0  0  0
   -0.2121   -1.2596   -0.8513 C   0  0  0  0  0  0  0  0  0  0  0  0
    0.6629   -0.6100   -0.7916 H   0  0  0  0  0  0  0  0  0  0  0  0
    0.0493   -2.2096   -0.3822 H   0  0  0  0  0  0  0  0  0  0  0  0
   -0.5056   -1.5098   -2.2995 C   0  0  0  0  0  0  0  0  0  0  0  0
   -0.3115   -0.6275   -3.3053 C   0  0  0  0  0  0  0  0  0  0  0  0
    0.0655    0.3812   -3.1772 H   0  0  0  0  0  0  0  0  0  0  0  0
   -0.6462   -1.2153   -4.5094 N   0  0  0  0  0  0  0  0  0  0  0  0
   -0.5841   -0.7396   -5.3977 H   0  0  0  0  0  0  0  0  0  0  0  0
   -1.0596   -2.5196   -4.3401 C   0  0  0  0  0  0  0  0  0  0  0  0
   -1.4663   -3.5196   -5.2350 C   0  0  0  0  0  0  0  0  0  0  0  0
   -1.5013   -3.3231   -6.2965 H   0  0  0  0  0  0  0  0  0  0  0  0
   -1.8294   -4.7803   -4.7311 C   0  0  0  0  0  0  0  0  0  0  0  0
   -2.1467   -5.5635   -5.4062 H   0  0  0  0  0  0  0  0  0  0  0  0
   -1.7860   -5.0203   -3.3455 C   0  0  0  0  0  0  0  0  0  0  0  0
   -2.0742   -5.9891   -2.9614 H   0  0  0  0  0  0  0  0  0  0  0  0
   -1.3774   -4.0071   -2.4551 C   0  0  0  0  0  0  0  0  0  0  0  0
   -1.3614   -4.2006   -1.3920 H   0  0  0  0  0  0  0  0  0  0  0  0
   -1.0006   -2.7323   -2.9302 C   0  0  0  0  0  0  0  0  0  0  0  0
   -1.6973    0.7865   -0.5726 C   0  0  0  0  0  0  0  0  0  0  0  0
   -1.1047    1.2458   -1.5481 O   0  0  0  0  0  0  0  0  0  0  0  0
   -2.6478    1.4691    0.0799 N   0  0  0  0  0  0  0  0  0  0  0  0
   -3.0476    1.0429    0.9038 H   0  0  0  0  0  0  0  0  0  0  0  0
   -3.0900    2.8128   -0.2826 C   0  0  0  0  0  0  0  0  0  0  0  0
   -3.3510    2.8410   -1.3422 H   0  0  0  0  0  0  0  0  0  0  0  0
   -3.9603    3.0948    0.3114 H   0  0  0  0  0  0  0  0  0  0  0  0
   -2.2829    3.5246   -0.1018 H   0  0  0  0  0  0  0  0  0  0  0  0
  5  6  2  0  0  0  0
  5  7  1  0  0  0  0
  2  3  1  0  0  0  0
  2  4  1  0  0  0  0
  2  5  1  0  0  0  0
  1  2  1  0  0  0  0
 29 30  2  0  0  0  0
 29 31  1  0  0  0  0
 26 27  1  0  0  0  0
 26 28  2  0  0  0  0
 24 25  1  0  0  0  0
 24 26  1  0  0  0  0
 22 23  1  0  0  0  0
 22 24  2  0  0  0  0
 20 21  1  0  0  0  0
 20 22  1  0  0  0  0
 19 20  2  0  0  0  0
 19 28  1  0  0  0  0
 17 18  1  0  0  0  0
 17 19  1  0  0  0  0
 15 16  1  0  0  0  0
 15 17  1  0  0  0  0
 14 15  2  0  0  0  0
 14 28  1  0  0  0  0
 11 12  1  0  0  0  0
 11 13  1  0  0  0  0
 11 14  1  0  0  0  0
  9 10  1  0  0  0  0
  9 11  1  0  0  0  0
  9 29  1  0  0  0  0
  7  8  1  0  0  0  0
  7  9  1  0  0  0  0
 33 34  1  0  0  0  0
 33 35  1  0  0  0  0
 33 36  1  0  0  0  0
 31 32  1  0  0  0  0
 31 33  1  0  0  0  0
M  END
$$$$
default_name
  -OEChem-12212115393D

 36 37  0     1  0  0  0  0  0999 V2000
   -4.0843   -4.0736    1.2944 H   0  0  0  0  0  0  0  0  0  0  0  0
   -4.0342   -3.2816    0.5484 C   0  0  0  0  0  0  0  0  0  0  0  0
   -4.8842   -2.6126    0.6694 H   0  0  0  0  0  0  0  0  0  0  0  0
   -4.0433   -3.7186   -0.4486 H   0  0  0  0  0  0  0  0  0  0  0  0
   -2.7532   -2.5046    0.7444 C   0  0  0  0  0  0  0  0  0  0  0  0
   -1.9803   -2.8096    1.6434 O   0  0  0  0  0  0  0  0  0  0  0  0
   -2.5332   -1.4966   -0.0966 N   0  0  0  0  0  0  0  0  0  0  0  0
   -3.2312   -1.2816   -0.7936 H   0  0  0  0  0  0  0  0  0  0  0  0
   -1.3593   -0.6196   -0.0536 C   0  0  1  0  0  0  0  0  0  0  0  0
   -1.0371   -0.5178    0.9834 H   0  0  0  0  0  0  0  0  0  0  0  0
   -0.2121   -1.2596   -0.8513 C   0  0  0  0  0  0  0  0  0  0  0  0
    0.6629   -0.6100   -0.7916 H   0  0  0  0  0  0  0  0  0  0  0  0
    0.0493   -2.2096   -0.3822 H   0  0  0  0  0  0  0  0  0  0  0  0
   -0.5056   -1.5098   -2.2995 C   0  0  0  0  0  0  0  0  0  0  0  0
   -0.3115   -0.6275   -3.3053 C   0  0  0  0  0  0  0  0  0  0  0  0
    0.0655    0.3812   -3.1772 H   0  0  0  0  0  0  0  0  0  0  0  0
   -0.6462   -1.2153   -4.5094 N   0  0  0  0  0  0  0  0  0  0  0  0
   -0.5841   -0.7396   -5.3977 H   0  0  0  0  0  0  0  0  0  0  0  0
   -1.0596   -2.5196   -4.3401 C   0  0  0  0  0  0  0  0  0  0  0  0
   -1.4663   -3.5196   -5.2350 C   0  0  0  0  0  0  0  0  0  0  0  0
   -1.5013   -3.3231   -6.2965 H   0  0  0  0  0  0  0  0  0  0  0  0
   -1.8294   -4.7803   -4.7311 C   0  0  0  0  0  0  0  0  0  0  0  0
   -2.1467   -5.5635   -5.4062 H   0  0  0  0  0  0  0  0  0  0  0  0
   -1.7860   -5.0203   -3.3455 C   0  0  0  0  0  0  0  0  0  0  0  0
   -2.0742   -5.9891   -2.9614 H   0  0  0  0  0  0  0  0  0  0  0  0
   -1.3774   -4.0071   -2.4551 C   0  0  0  0  0  0  0  0  0  0  0  0
   -1.3614   -4.2006   -1.3920 H   0  0  0  0  0  0  0  0  0  0  0  0
   -1.0006   -2.7323   -2.9302 C   0  0  0  0  0  0  0  0  0  0  0  0
   -1.6973    0.7865   -0.5726 C   0  0  0  0  0  0  0  0  0  0  0  0
   -1.3204    1.1421   -1.6885 O   0  0  0  0  0  0  0  0  0  0  0  0
   -2.4058    1.5852    0.2369 N   0  0  0  0  0  0  0  0  0  0  0  0
   -2.6297    1.2374    1.1584 H   0  0  0  0  0  0  0  0  0  0  0  0
   -2.8122    2.9463   -0.1017 C   0  0  0  0  0  0  0  0  0  0  0  0
   -3.3161    2.9499   -1.0701 H   0  0  0  0  0  0  0  0  0  0  0  0
   -3.4893    3.3364    0.6593 H   0  0  0  0  0  0  0  0  0  0  0  0
   -1.9306    3.5865   -0.1636 H   0  0  0  0  0  0  0  0  0  0  0  0
  5  6  2  0  0  0  0
  5  7  1  0  0  0  0
  2  3  1  0  0  0  0
  2  4  1  0  0  0  0
  2  5  1  0  0  0  0
  1  2  1  0  0  0  0
 29 30  2  0  0  0  0
 29 31  1  0  0  0  0
 26 27  1  0  0  0  0
 26 28  2  0  0  0  0
 24 25  1  0  0  0  0
 24 26  1  0  0  0  0
 22 23  1  0  0  0  0
 22 24  2  0  0  0  0
 20 21  1  0  0  0  0
 20 22  1  0  0  0  0
 19 20  2  0  0  0  0
 19 28  1  0  0  0  0
 17 18  1  0  0  0  0
 17 19  1  0  0  0  0
 15 16  1  0  0  0  0
 15 17  1  0  0  0  0
 14 15  2  0  0  0  0
 14 28  1  0  0  0  0
 11 12  1  0  0  0  0
 11 13  1  0  0  0  0
 11 14  1  0  0  0  0
  9 10  1  0  0  0  0
  9 11  1  0  0  0  0
  9 29  1  0  0  0  0
  7  8  1  0  0  0  0
  7  9  1  0  0  0  0
 33 34  1  0  0  0  0
 33 35  1  0  0  0  0
 33 36  1  0  0  0  0
 31 32  1  0  0  0  0
 31 33  1  0  0  0  0
M  END
$$$$
default_name
  -OEChem-12212115393D

 36 37  0     1  0  0  0  0  0999 V2000
   -4.0843   -4.0736    1.2944 H   0  0  0  0  0  0  0  0  0  0  0  0
   -4.0342   -3.2816    0.5484 C   0  0  0  0  0  0  0  0  0  0  0  0
   -4.8842   -2.6126    0.6694 H   0  0  0  0  0  0  0  0  0  0  0  0
   -4.0433   -3.7186   -0.4486 H   0  0  0  0  0  0  0  0  0  0  0  0
   -2.7532   -2.5046    0.7444 C   0  0  0  0  0  0  0  0  0  0  0  0
   -1.9803   -2.8096    1.6434 O   0  0  0  0  0  0  0  0  0  0  0  0
   -2.5332   -1.4966   -0.0966 N   0  0  0  0  0  0  0  0  0  0  0  0
   -3.2312   -1.2816   -0.7936 H   0  0  0  0  0  0  0  0  0  0  0  0
   -1.3593   -0.6196   -0.0536 C   0  0  1  0  0  0  0  0  0  0  0  0
   -1.0371   -0.5178    0.9834 H   0  0  0  0  0  0  0  0  0  0  0  0
   -0.2121   -1.2596   -0.8513 C   0  0  0  0  0  0  0  0  0  0  0  0
    0.6629   -0.6100   -0.7916 H   0  0  0  0  0  0  0  0  0  0  0  0
    0.0493   -2.2096   -0.3822 H   0  0  0  0  0  0  0  0  0  0  0  0
   -0.5056   -1.5098   -2.2995 C   0  0  0  0  0  0  0  0  0  0  0  0
   -0.3115   -0.6275   -3.3053 C   0  0  0  0  0  0  0  0  0  0  0  0
    0.0655    0.3812   -3.1772 H   0  0  0  0  0  0  0  0  0  0  0  0
   -0.6462   -1.2153   -4.5094 N   0  0  0  0  0  0  0  0  0  0  0  0
   -0.5841   -0.7396   -5.3977 H   0  0  0  0  0  0  0  0  0  0  0  0
   -1.0596   -2.5196   -4.3401 C   0  0  0  0  0  0  0  0  0  0  0  0
   -1.4663   -3.5196   -5.2350 C   0  0  0  0  0  0  0  0  0  0  0  0
   -1.5013   -3.3231   -6.2965 H   0  0  0  0  0  0  0  0  0  0  0  0
   -1.8294   -4.7803   -4.7311 C   0  0  0  0  0  0  0  0  0  0  0  0
   -2.1467   -5.5635   -5.4062 H   0  0  0  0  0  0  0  0  0  0  0  0
   -1.7860   -5.0203   -3.3455 C   0  0  0  0  0  0  0  0  0  0  0  0
   -2.0742   -5.9891   -2.9614 H   0  0  0  0  0  0  0  0  0  0  0  0
   -1.3774   -4.0071   -2.4551 C   0  0  0  0  0  0  0  0  0  0  0  0
   -1.3614   -4.2006   -1.3920 H   0  0  0  0  0  0  0  0  0  0  0  0
   -1.0006   -2.7323   -2.9302 C   0  0  0  0  0  0  0  0  0  0  0  0
   -1.6973    0.7865   -0.5726 C   0  0  0  0  0  0  0  0  0  0  0  0
   -1.5711    1.0528   -1.7671 O   0  0  0  0  0  0  0  0  0  0  0  0
   -2.1247    1.6852    0.3246 N   0  0  0  0  0  0  0  0  0  0  0  0
   -2.1488    1.4031    1.2942 H   0  0  0  0  0  0  0  0  0  0  0  0
   -2.4893    3.0613   -0.0004 C   0  0  0  0  0  0  0  0  0  0  0  0
   -3.2085    3.0674   -0.8217 H   0  0  0  0  0  0  0  0  0  0  0  0
   -2.9309    3.5484    0.8699 H   0  0  0  0  0  0  0  0  0  0  0  0
   -1.5996    3.6120   -0.3102 H   0  0  0  0  0  0  0  0  0  0  0  0
  5  6  2  0  0  0  0
  5  7  1  0  0  0  0
  2  3  1  0  0  0  0
  2  4  1  0  0  0  0
  2  5  1  0  0  0  0
  1  2  1  0  0  0  0
 29 30  2  0  0  0  0
 29 31  1  0  0  0  0
 26 27  1  0  0  0  0
 26 28  2  0  0  0  0
 24 25  1  0  0  0  0
 24 26  1  0  0  0  0
 22 23  1  0  0  0  0
 22 24  2  0  0  0  0
 20 21  1  0  0  0  0
 20 22  1  0  0  0  0
 19 20  2  0  0  0  0
 19 28  1  0  0  0  0
 17 18  1  0  0  0  0
 17 19  1  0  0  0  0
 15 16  1  0  0  0  0
 15 17  1  0  0  0  0
 14 15  2  0  0  0  0
 14 28  1  0  0  0  0
 11 12  1  0  0  0  0
 11 13  1  0  0  0  0
 11 14  1  0  0  0  0
  9 10  1  0  0  0  0
  9 11  1  0  0  0  0
  9 29  1  0  0  0  0
  7  8  1  0  0  0  0
  7  9  1  0  0  0  0
 33 34  1  0  0  0  0
 33 35  1  0  0  0  0
 33 36  1  0  0  0  0
 31 32  1  0  0  0  0
 31 33  1  0  0  0  0
M  END
$$$$
default_name
  -OEChem-12212115393D

 36 37  0     1  0  0  0  0  0999 V2000
   -4.0843   -4.0736    1.2944 H   0  0  0  0  0  0  0  0  0  0  0  0
   -4.0342   -3.2816    0.5484 C   0  0  0  0  0  0  0  0  0  0  0  0
   -4.8842   -2.6126    0.6694 H   0  0  0  0  0  0  0  0  0  0  0  0
   -4.0433   -3.7186   -0.4486 H   0  0  0  0  0  0  0  0  0  0  0  0
   -2.7532   -2.5046    0.7444 C   0  0  0  0  0  0  0  0  0  0  0  0
   -1.9803   -2.8096    1.6434 O   0  0  0  0  0  0  0  0  0  0  0  0
   -2.5332   -1.4966   -0.0966 N   0  0  0  0  0  0  0  0  0  0  0  0
   -3.2312   -1.2816   -0.7936 H   0  0  0  0  0  0  0  0  0  0  0  0
   -1.3593   -0.6196   -0.0536 C   0  0  1  0  0  0  0  0  0  0  0  0
   -1.0371   -0.5178    0.9834 H   0  0  0  0  0  0  0  0  0  0  0  0
   -0.2121   -1.2596   -0.8513 C   0  0  0  0  0  0  0  0  0  0  0  0
    0.6629   -0.6100   -0.7916 H   0  0  0  0  0  0  0  0  0  0  0  0
    0.0493   -2.2096   -0.3822 H   0  0  0  0  0  0  0  0  0  0  0  0
   -0.5056   -1.5098   -2.2995 C   0  0  0  0  0  0  0  0  0  0  0  0
   -0.3115   -0.6275   -3.3053 C   0  0  0  0  0  0  0  0  0  0  0  0
    0.0655    0.3812   -3.1772 H   0  0  0  0  0  0  0  0  0  0  0  0
   -0.6462   -1.2153   -4.5094 N   0  0  0  0  0  0  0  0  0  0  0  0
   -0.5841   -0.7396   -5.3977 H   0  0  0  0  0  0  0  0  0  0  0  0
   -1.0596   -2.5196   -4.3401 C   0  0  0  0  0  0  0  0  0  0  0  0
   -1.4663   -3.5196   -5.2350 C   0  0  0  0  0  0  0  0  0  0  0  0
   -1.5013   -3.3231   -6.2965 H   0  0  0  0  0  0  0  0  0  0  0  0
   -1.8294   -4.7803   -4.7311 C   0  0  0  0  0  0  0  0  0  0  0  0
   -2.1467   -5.5635   -5.4062 H   0  0  0  0  0  0  0  0  0  0  0  0
   -1.7860   -5.0203   -3.3455 C   0  0  0  0  0  0  0  0  0  0  0  0
   -2.0742   -5.9891   -2.9614 H   0  0  0  0  0  0  0  0  0  0  0  0
   -1.3774   -4.0071   -2.4551 C   0  0  0  0  0  0  0  0  0  0  0  0
   -1.3614   -4.2006   -1.3920 H   0  0  0  0  0  0  0  0  0  0  0  0
   -1.0006   -2.7323   -2.9302 C   0  0  0  0  0  0  0  0  0  0  0  0
   -1.6973    0.7865   -0.5726 C   0  0  0  0  0  0  0  0  0  0  0  0
   -1.8397    0.9840   -1.7786 O   0  0  0  0  0  0  0  0  0  0  0  0
   -1.8237    1.7621    0.3370 N   0  0  0  0  0  0  0  0  0  0  0  0
   -1.6376    1.5289    1.3020 H   0  0  0  0  0  0  0  0  0  0  0  0
   -2.1434    3.1499    0.0144 C   0  0  0  0  0  0  0  0  0  0  0  0
   -3.0353    3.1857   -0.6140 H   0  0  0  0  0  0  0  0  0  0  0  0
   -2.3231    3.7164    0.9291 H   0  0  0  0  0  0  0  0  0  0  0  0
   -1.3123    3.5993   -0.5317 H   0  0  0  0  0  0  0  0  0  0  0  0
  5  6  2  0  0  0  0
  5  7  1  0  0  0  0
  2  3  1  0  0  0  0
  2  4  1  0  0  0  0
  2  5  1  0  0  0  0
  1  2  1  0  0  0  0
 29 30  2  0  0  0  0
 29 31  1  0  0  0  0
 26 27  1  0  0  0  0
 26 28  2  0  0  0  0
 24 25  1  0  0  0  0
 24 26  1  0  0  0  0
 22 23  1  0  0  0  0
 22 24  2  0  0  0  0
 20 21  1  0  0  0  0
 20 22  1  0  0  0  0
 19 20  2  0  0  0  0
 19 28  1  0  0  0  0
 17 18  1  0  0  0  0
 17 19  1  0  0  0  0
 15 16  1  0  0  0  0
 15 17  1  0  0  0  0
 14 15  2  0  0  0  0
 14 28  1  0  0  0  0
 11 12  1  0  0  0  0
 11 13  1  0  0  0  0
 11 14  1  0  0  0  0
  9 10  1  0  0  0  0
  9 11  1  0  0  0  0
  9 29  1  0  0  0  0
  7  8  1  0  0  0  0
  7  9  1  0  0  0  0
 33 34  1  0  0  0  0
 33 35  1  0  0  0  0
 33 36  1  0  0  0  0
 31 32  1  0  0  0  0
 31 33  1  0  0  0  0
M  END
$$$$
default_name
  -OEChem-12212115393D

 36 37  0     1  0  0  0  0  0999 V2000
   -4.0843   -4.0736    1.2944 H   0  0  0  0  0  0  0  0  0  0  0  0
   -4.0342   -3.2816    0.5484 C   0  0  0  0  0  0  0  0  0  0  0  0
   -4.8842   -2.6126    0.6694 H   0  0  0  0  0  0  0  0  0  0  0  0
   -4.0433   -3.7186   -0.4486 H   0  0  0  0  0  0  0  0  0  0  0  0
   -2.7532   -2.5046    0.7444 C   0  0  0  0  0  0  0  0  0  0  0  0
   -1.9803   -2.8096    1.6434 O   0  0  0  0  0  0  0  0  0  0  0  0
   -2.5332   -1.4966   -0.0966 N   0  0  0  0  0  0  0  0  0  0  0  0
   -3.2312   -1.2816   -0.7936 H   0  0  0  0  0  0  0  0  0  0  0  0
   -1.3593   -0.6196   -0.0536 C   0  0  1  0  0  0  0  0  0  0  0  0
   -1.0371   -0.5178    0.9834 H   0  0  0  0  0  0  0  0  0  0  0  0
   -0.2121   -1.2596   -0.8513 C   0  0  0  0  0  0  0  0  0  0  0  0
    0.6629   -0.6100   -0.7916 H   0  0  0  0  0  0  0  0  0  0  0  0
    0.0493   -2.2096   -0.3822 H   0  0  0  0  0  0  0  0  0  0  0  0
   -0.5056   -1.5098   -2.2995 C   0  0  0  0  0  0  0  0  0  0  0  0
   -0.3115   -0.6275   -3.3053 C   0  0  0  0  0  0  0  0  0  0  0  0
    0.0655    0.3812   -3.1772 H   0  0  0  0  0  0  0  0  0  0  0  0
   -0.6462   -1.2153   -4.5094 N   0  0  0  0  0  0  0  0  0  0  0  0
   -0.5841   -0.7396   -5.3977 H   0  0  0  0  0  0  0  0  0  0  0  0
   -1.0596   -2.5196   -4.3401 C   0  0  0  0  0  0  0  0  0  0  0  0
   -1.4663   -3.5196   -5.2350 C   0  0  0  0  0  0  0  0  0  0  0  0
   -1.5013   -3.3231   -6.2965 H   0  0  0  0  0  0  0  0  0  0  0  0
   -1.8294   -4.7803   -4.7311 C   0  0  0  0  0  0  0  0  0  0  0  0
   -2.1467   -5.5635   -5.4062 H   0  0  0  0  0  0  0  0  0  0  0  0
   -1.7860   -5.0203   -3.3455 C   0  0  0  0  0  0  0  0  0  0  0  0
   -2.0742   -5.9891   -2.9614 H   0  0  0  0  0  0  0  0  0  0  0  0
   -1.3774   -4.0071   -2.4551 C   0  0  0  0  0  0  0  0  0  0  0  0
   -1.3614   -4.2006   -1.3920 H   0  0  0  0  0  0  0  0  0  0  0  0
   -1.0006   -2.7323   -2.9302 C   0  0  0  0  0  0  0  0  0  0  0  0
   -1.6973    0.7865   -0.5726 C   0  0  0  0  0  0  0  0  0  0  0  0
   -2.1079    0.9403   -1.7221 O   0  0  0  0  0  0  0  0  0  0  0  0
   -1.5232    1.8108    0.2733 N   0  0  0  0  0  0  0  0  0  0  0  0
   -1.1310    1.6062    1.1814 H   0  0  0  0  0  0  0  0  0  0  0  0
   -1.7980    3.2062   -0.0583 C   0  0  0  0  0  0  0  0  0  0  0  0
   -2.8086    3.2966   -0.4611 H   0  0  0  0  0  0  0  0  0  0  0  0
   -1.7073    3.8288    0.8327 H   0  0  0  0  0  0  0  0  0  0  0  0
   -1.0884    3.5493   -0.8129 H   0  0  0  0  0  0  0  0  0  0  0  0
  5  6  2  0  0  0  0
  5  7  1  0  0  0  0
  2  3  1  0  0  0  0
  2  4  1  0  0  0  0
  2  5  1  0  0  0  0
  1  2  1  0  0  0  0
 29 30  2  0  0  0  0
 29 31  1  0  0  0  0
 26 27  1  0  0  0  0
 26 28  2  0  0  0  0
 24 25  1  0  0  0  0
 24 26  1  0  0  0  0
 22 23  1  0  0  0  0
 22 24  2  0  0  0  0
 20 21  1  0  0  0  0
 20 22  1  0  0  0  0
 19 20  2  0  0  0  0
 19 28  1  0  0  0  0
 17 18  1  0  0  0  0
 17 19  1  0  0  0  0
 15 16  1  0  0  0  0
 15 17  1  0  0  0  0
 14 15  2  0  0  0  0
 14 28  1  0  0  0  0
 11 12  1  0  0  0  0
 11 13  1  0  0  0  0
 11 14  1  0  0  0  0
  9 10  1  0  0  0  0
  9 11  1  0  0  0  0
  9 29  1  0  0  0  0
  7  8  1  0  0  0  0
  7  9  1  0  0  0  0
 33 34  1  0  0  0  0
 33 35  1  0  0  0  0
 33 36  1  0  0  0  0
 31 32  1  0  0  0  0
 31 33  1  0  0  0  0
M  END
$$$$
default_name
  -OEChem-12212115393D

 36 37  0     1  0  0  0  0  0999 V2000
   -4.0843   -4.0736    1.2944 H   0  0  0  0  0  0  0  0  0  0  0  0
   -4.0342   -3.2816    0.5484 C   0  0  0  0  0  0  0  0  0  0  0  0
   -4.8842   -2.6126    0.6694 H   0  0  0  0  0  0  0  0  0  0  0  0
   -4.0433   -3.7186   -0.4486 H   0  0  0  0  0  0  0  0  0  0  0  0
   -2.7532   -2.5046    0.7444 C   0  0  0  0  0  0  0  0  0  0  0  0
   -1.9803   -2.8096    1.6434 O   0  0  0  0  0  0  0  0  0  0  0  0
   -2.5332   -1.4966   -0.0966 N   0  0  0  0  0  0  0  0  0  0  0  0
   -3.2312   -1.2816   -0.7936 H   0  0  0  0  0  0  0  0  0  0  0  0
   -1.3593   -0.6196   -0.0536 C   0  0  1  0  0  0  0  0  0  0  0  0
   -1.0371   -0.5178    0.9834 H   0  0  0  0  0  0  0  0  0  0  0  0
   -0.2121   -1.2596   -0.8513 C   0  0  0  0  0  0  0  0  0  0  0  0
    0.6629   -0.6100   -0.7916 H   0  0  0  0  0  0  0  0  0  0  0  0
    0.0493   -2.2096   -0.3822 H   0  0  0  0  0  0  0  0  0  0  0  0
   -0.5056   -1.5098   -2.2995 C   0  0  0  0  0  0  0  0  0  0  0  0
   -0.3115   -0.6275   -3.3053 C   0  0  0  0  0  0  0  0  0  0  0  0
    0.0655    0.3812   -3.1772 H   0  0  0  0  0  0  0  0  0  0  0  0
   -0.6462   -1.2153   -4.5094 N   0  0  0  0  0  0  0  0  0  0  0  0
   -0.5841   -0.7396   -5.3977 H   0  0  0  0  0  0  0  0  0  0  0  0
   -1.0596   -2.5196   -4.3401 C   0  0  0  0  0  0  0  0  0  0  0  0
   -1.4663   -3.5196   -5.2350 C   0  0  0  0  0  0  0  0  0  0  0  0
   -1.5013   -3.3231   -6.2965 H   0  0  0  0  0  0  0  0  0  0  0  0
   -1.8294   -4.7803   -4.7311 C   0  0  0  0  0  0  0  0  0  0  0  0
   -2.1467   -5.5635   -5.4062 H   0  0  0  0  0  0  0  0  0  0  0  0
   -1.7860   -5.0203   -3.3455 C   0  0  0  0  0  0  0  0  0  0  0  0
   -2.0742   -5.9891   -2.9614 H   0  0  0  0  0  0  0  0  0  0  0  0
   -1.3774   -4.0071   -2.4551 C   0  0  0  0  0  0  0  0  0  0  0  0
   -1.3614   -4.2006   -1.3920 H   0  0  0  0  0  0  0  0  0  0  0  0
   -1.0006   -2.7323   -2.9302 C   0  0  0  0  0  0  0  0  0  0  0  0
   -1.6973    0.7865   -0.5726 C   0  0  0  0  0  0  0  0  0  0  0  0
   -2.3574    0.9248   -1.6016 O   0  0  0  0  0  0  0  0  0  0  0  0
   -1.2438    1.8280    0.1379 N   0  0  0  0  0  0  0  0  0  0  0  0
   -0.6634    1.6296    0.9404 H   0  0  0  0  0  0  0  0  0  0  0  0
   -1.4767    3.2261   -0.2135 C   0  0  0  0  0  0  0  0  0  0  0  0
   -2.5437    3.3927   -0.3734 H   0  0  0  0  0  0  0  0  0  0  0  0
   -1.1254    3.8781    0.5873 H   0  0  0  0  0  0  0  0  0  0  0  0
   -0.9431    3.4655   -1.1348 H   0  0  0  0  0  0  0  0  0  0  0  0
  5  6  2  0  0  0  0
  5  7  1  0  0  0  0
  2  3  1  0  0  0  0
  2  4  1  0  0  0  0
  2  5  1  0  0  0  0
  1  2  1  0  0  0  0
 29 30  2  0  0  0  0
 29 31  1  0  0  0  0
 26 27  1  0  0  0  0
 26 28  2  0  0  0  0
 24 25  1  0  0  0  0
 24 26  1  0  0  0  0
 22 23  1  0  0  0  0
 22 24  2  0  0  0  0
 20 21  1  0  0  0  0
 20 22  1  0  0  0  0
 19 20  2  0  0  0  0
 19 28  1  0  0  0  0
 17 18  1  0  0  0  0
 17 19  1  0  0  0  0
 15 16  1  0  0  0  0
 15 17  1  0  0  0  0
 14 15  2  0  0  0  0
 14 28  1  0  0  0  0
 11 12  1  0  0  0  0
 11 13  1  0  0  0  0
 11 14  1  0  0  0  0
  9 10  1  0  0  0  0
  9 11  1  0  0  0  0
  9 29  1  0  0  0  0
  7  8  1  0  0  0  0
  7  9  1  0  0  0  0
 33 34  1  0  0  0  0
 33 35  1  0  0  0  0
 33 36  1  0  0  0  0
 31 32  1  0  0  0  0
 31 33  1  0  0  0  0
M  END
$$$$
default_name
  -OEChem-12212115393D

 36 37  0     1  0  0  0  0  0999 V2000
   -4.0843   -4.0736    1.2944 H   0  0  0  0  0  0  0  0  0  0  0  0
   -4.0342   -3.2816    0.5484 C   0  0  0  0  0  0  0  0  0  0  0  0
   -4.8842   -2.6126    0.6694 H   0  0  0  0  0  0  0  0  0  0  0  0
   -4.0433   -3.7186   -0.4486 H   0  0  0  0  0  0  0  0  0  0  0  0
   -2.7532   -2.5046    0.7444 C   0  0  0  0  0  0  0  0  0  0  0  0
   -1.9803   -2.8096    1.6434 O   0  0  0  0  0  0  0  0  0  0  0  0
   -2.5332   -1.4966   -0.0966 N   0  0  0  0  0  0  0  0  0  0  0  0
   -3.2312   -1.2816   -0.7936 H   0  0  0  0  0  0  0  0  0  0  0  0
   -1.3593   -0.6196   -0.0536 C   0  0  1  0  0  0  0  0  0  0  0  0
   -1.0371   -0.5178    0.9834 H   0  0  0  0  0  0  0  0  0  0  0  0
   -0.2121   -1.2596   -0.8513 C   0  0  0  0  0  0  0  0  0  0  0  0
    0.6629   -0.6100   -0.7916 H   0  0  0  0  0  0  0  0  0  0  0  0
    0.0493   -2.2096   -0.3822 H   0  0  0  0  0  0  0  0  0  0  0  0
   -0.5056   -1.5098   -2.2995 C   0  0  0  0  0  0  0  0  0  0  0  0
   -0.3115   -0.6275   -3.3053 C   0  0  0  0  0  0  0  0  0  0  0  0
    0.0655    0.3812   -3.1772 H   0  0  0  0  0  0  0  0  0  0  0  0
   -0.6462   -1.2153   -4.5094 N   0  0  0  0  0  0  0  0  0  0  0  0
   -0.5841   -0.7396   -5.3977 H   0  0  0  0  0  0  0  0  0  0  0  0
   -1.0596   -2.5196   -4.3401 C   0  0  0  0  0  0  0  0  0  0  0  0
   -1.4663   -3.5196   -5.2350 C   0  0  0  0  0  0  0  0  0  0  0  0
   -1.5013   -3.3231   -6.2965 H   0  0  0  0  0  0  0  0  0  0  0  0
   -1.8294   -4.7803   -4.7311 C   0  0  0  0  0  0  0  0  0  0  0  0
   -2.1467   -5.5635   -5.4062 H   0  0  0  0  0  0  0  0  0  0  0  0
   -1.7860   -5.0203   -3.3455 C   0  0  0  0  0  0  0  0  0  0  0  0
   -2.0742   -5.9891   -2.9614 H   0  0  0  0  0  0  0  0  0  0  0  0
   -1.3774   -4.0071   -2.4551 C   0  0  0  0  0  0  0  0  0  0  0  0
   -1.3614   -4.2006   -1.3920 H   0  0  0  0  0  0  0  0  0  0  0  0
   -1.0006   -2.7323   -2.9302 C   0  0  0  0  0  0  0  0  0  0  0  0
   -1.6973    0.7865   -0.5726 C   0  0  0  0  0  0  0  0  0  0  0  0
   -2.5712    0.9385   -1.4252 O   0  0  0  0  0  0  0  0  0  0  0  0
   -1.0045    1.8125   -0.0601 N   0  0  0  0  0  0  0  0  0  0  0  0
   -0.2668    1.5977    0.5956 H   0  0  0  0  0  0  0  0  0  0  0  0
   -1.2013    3.2085   -0.4406 C   0  0  0  0  0  0  0  0  0  0  0  0
   -2.2586    3.4673   -0.3570 H   0  0  0  0  0  0  0  0  0  0  0  0
   -0.6172    3.8609    0.2097 H   0  0  0  0  0  0  0  0  0  0  0  0
   -0.8863    3.3534   -1.4753 H   0  0  0  0  0  0  0  0  0  0  0  0
  5  6  2  0  0  0  0
  5  7  1  0  0  0  0
  2  3  1  0  0  0  0
  2  4  1  0  0  0  0
  2  5  1  0  0  0  0
  1  2  1  0  0  0  0
 29 30  2  0  0  0  0
 29 31  1  0  0  0  0
 26 27  1  0  0  0  0
 26 28  2  0  0  0  0
 24 25  1  0  0  0  0
 24 26  1  0  0  0  0
 22 23  1  0  0  0  0
 22 24  2  0  0  0  0
 20 21  1  0  0  0  0
 20 22  1  0  0  0  0
 19 20  2  0  0  0  0
 19 28  1  0  0  0  0
 17 18  1  0  0  0  0
 17 19  1  0  0  0  0
 15 16  1  0  0  0  0
 15 17  1  0  0  0  0
 14 15  2  0  0  0  0
 14 28  1  0  0  0  0
 11 12  1  0  0  0  0
 11 13  1  0  0  0  0
 11 14  1  0  0  0  0
  9 10  1  0  0  0  0
  9 11  1  0  0  0  0
  9 29  1  0  0  0  0
  7  8  1  0  0  0  0
  7  9  1  0  0  0  0
 33 34  1  0  0  0  0
 33 35  1  0  0  0  0
 33 36  1  0  0  0  0
 31 32  1  0  0  0  0
 31 33  1  0  0  0  0
M  END
$$$$
default_name
  -OEChem-12212115393D

 36 37  0     1  0  0  0  0  0999 V2000
   -4.0843   -4.0736    1.2944 H   0  0  0  0  0  0  0  0  0  0  0  0
   -4.0342   -3.2816    0.5484 C   0  0  0  0  0  0  0  0  0  0  0  0
   -4.8842   -2.6126    0.6694 H   0  0  0  0  0  0  0  0  0  0  0  0
   -4.0433   -3.7186   -0.4486 H   0  0  0  0  0  0  0  0  0  0  0  0
   -2.7532   -2.5046    0.7444 C   0  0  0  0  0  0  0  0  0  0  0  0
   -1.9803   -2.8096    1.6434 O   0  0  0  0  0  0  0  0  0  0  0  0
   -2.5332   -1.4966   -0.0966 N   0  0  0  0  0  0  0  0  0  0  0  0
   -3.2312   -1.2816   -0.7936 H   0  0  0  0  0  0  0  0  0  0  0  0
   -1.3593   -0.6196   -0.0536 C   0  0  1  0  0  0  0  0  0  0  0  0
   -1.0371   -0.5178    0.9834 H   0  0  0  0  0  0  0  0  0  0  0  0
   -0.2121   -1.2596   -0.8513 C   0  0  0  0  0  0  0  0  0  0  0  0
    0.6629   -0.6100   -0.7916 H   0  0  0  0  0  0  0  0  0  0  0  0
    0.0493   -2.2096   -0.3822 H   0  0  0  0  0  0  0  0  0  0  0  0
   -0.5056   -1.5098   -2.2995 C   0  0  0  0  0  0  0  0  0  0  0  0
   -0.3115   -0.6275   -3.3053 C   0  0  0  0  0  0  0  0  0  0  0  0
    0.0655    0.3812   -3.1772 H   0  0  0  0  0  0  0  0  0  0  0  0
   -0.6462   -1.2153   -4.5094 N   0  0  0  0  0  0  0  0  0  0  0  0
   -0.5841   -0.7396   -5.3977 H   0  0  0  0  0  0  0  0  0  0  0  0
   -1.0596   -2.5196   -4.3401 C   0  0  0  0  0  0  0  0  0  0  0  0
   -1.4663   -3.5196   -5.2350 C   0  0  0  0  0  0  0  0  0  0  0  0
   -1.5013   -3.3231   -6.2965 H   0  0  0  0  0  0  0  0  0  0  0  0
   -1.8294   -4.7803   -4.7311 C   0  0  0  0  0  0  0  0  0  0  0  0
   -2.1467   -5.5635   -5.4062 H   0  0  0  0  0  0  0  0  0  0  0  0
   -1.7860   -5.0203   -3.3455 C   0  0  0  0  0  0  0  0  0  0  0  0
   -2.0742   -5.9891   -2.9614 H   0  0  0  0  0  0  0  0  0  0  0  0
   -1.3774   -4.0071   -2.4551 C   0  0  0  0  0  0  0  0  0  0  0  0
   -1.3614   -4.2006   -1.3920 H   0  0  0  0  0  0  0  0  0  0  0  0
   -1.0006   -2.7323   -2.9302 C   0  0  0  0  0  0  0  0  0  0  0  0
   -1.6973    0.7865   -0.5726 C   0  0  0  0  0  0  0  0  0  0  0  0
   -2.7347    0.9805   -1.2050 O   0  0  0  0  0  0  0  0  0  0  0  0
   -0.8217    1.7653   -0.3071 N   0  0  0  0  0  0  0  0  0  0  0  0
    0.0318    1.5126    0.1704 H   0  0  0  0  0  0  0  0  0  0  0  0
   -0.9907    3.1544   -0.7242 C   0  0  0  0  0  0  0  0  0  0  0  0
   -1.9728    3.5154   -0.4129 H   0  0  0  0  0  0  0  0  0  0  0  0
   -0.2173    3.7784   -0.2745 H   0  0  0  0  0  0  0  0  0  0  0  0
   -0.9219    3.2209   -1.8113 H   0  0  0  0  0  0  0  0  0  0  0  0
  5  6  2  0  0  0  0
  5  7  1  0  0  0  0
  2  3  1  0  0  0  0
  2  4  1  0  0  0  0
  2  5  1  0  0  0  0
  1  2  1  0  0  0  0
 29 30  2  0  0  0  0
 29 31  1  0  0  0  0
 26 27  1  0  0  0  0
 26 28  2  0  0  0  0
 24 25  1  0  0  0  0
 24 26  1  0  0  0  0
 22 23  1  0  0  0  0
 22 24  2  0  0  0  0
 20 21  1  0  0  0  0
 20 22  1  0  0  0  0
 19 20  2  0  0  0  0
 19 28  1  0  0  0  0
 17 18  1  0  0  0  0
 17 19  1  0  0  0  0
 15 16  1  0  0  0  0
 15 17  1  0  0  0  0
 14 15  2  0  0  0  0
 14 28  1  0  0  0  0
 11 12  1  0  0  0  0
 11 13  1  0  0  0  0
 11 14  1  0  0  0  0
  9 10  1  0  0  0  0
  9 11  1  0  0  0  0
  9 29  1  0  0  0  0
  7  8  1  0  0  0  0
  7  9  1  0  0  0  0
 33 34  1  0  0  0  0
 33 35  1  0  0  0  0
 33 36  1  0  0  0  0
 31 32  1  0  0  0  0
 31 33  1  0  0  0  0
M  END
$$$$
default_name
  -OEChem-12212115393D

 36 37  0     1  0  0  0  0  0999 V2000
   -4.0843   -4.0736    1.2944 H   0  0  0  0  0  0  0  0  0  0  0  0
   -4.0342   -3.2816    0.5484 C   0  0  0  0  0  0  0  0  0  0  0  0
   -4.8842   -2.6126    0.6694 H   0  0  0  0  0  0  0  0  0  0  0  0
   -4.0433   -3.7186   -0.4486 H   0  0  0  0  0  0  0  0  0  0  0  0
   -2.7532   -2.5046    0.7444 C   0  0  0  0  0  0  0  0  0  0  0  0
   -1.9803   -2.8096    1.6434 O   0  0  0  0  0  0  0  0  0  0  0  0
   -2.5332   -1.4966   -0.0966 N   0  0  0  0  0  0  0  0  0  0  0  0
   -3.2312   -1.2816   -0.7936 H   0  0  0  0  0  0  0  0  0  0  0  0
   -1.3593   -0.6196   -0.0536 C   0  0  1  0  0  0  0  0  0  0  0  0
   -0.8788   -0.7266    0.9196 H   0  0  0  0  0  0  0  0  0  0  0  0
   -0.3559   -1.0533   -1.1339 C   0  0  0  0  0  0  0  0  0  0  0  0
    0.5234   -0.4093   -1.0760 H   0  0  0  0  0  0  0  0  0  0  0  0
   -0.0329   -2.0733   -0.9185 H   0  0  0  0  0  0  0  0  0  0  0  0
   -0.8733   -1.0058   -2.5396 C   0  0  0  0  0  0  0  0  0  0  0  0
   -0.8304    0.0697   -3.3576 C   0  0  0  0  0  0  0  0  0  0  0  0
   -0.4293    1.0389   -3.0823 H   0  0  0  0  0  0  0  0  0  0  0  0
   -1.3536   -0.2643   -4.5914 N   0  0  0  0  0  0  0  0  0  0  0  0
   -1.4263    0.3860   -5.3601 H   0  0  0  0  0  0  0  0  0  0  0  0
   -1.7469   -1.5850   -4.6352 C   0  0  0  0  0  0  0  0  0  0  0  0
   -2.2967   -2.3879   -5.6449 C   0  0  0  0  0  0  0  0  0  0  0  0
   -2.4948   -1.9772   -6.6240 H   0  0  0  0  0  0  0  0  0  0  0  0
   -2.5880   -3.7338   -5.3642 C   0  0  0  0  0  0  0  0  0  0  0  0
   -3.0133   -4.3680   -6.1303 H   0  0  0  0  0  0  0  0  0  0  0  0
   -2.3315   -4.2539   -4.0824 C   0  0  0  0  0  0  0  0  0  0  0  0
   -2.5648   -5.2877   -3.8684 H   0  0  0  0  0  0  0  0  0  0  0  0
   -1.7805   -3.4371   -3.0747 C   0  0  0  0  0  0  0  0  0  0  0  0
   -1.6009   -3.8457   -2.0904 H   0  0  0  0  0  0  0  0  0  0  0  0
   -1.4711   -2.0830   -3.3267 C   0  0  0  0  0  0  0  0  0  0  0  0
   -1.7617    0.8549   -0.2106 C   0  0  0  0  0  0  0  0  0  0  0  0
   -2.9446    1.1625   -0.3510 O   0  0  0  0  0  0  0  0  0  0  0  0
   -0.7784    1.7648   -0.1886 N   0  0  0  0  0  0  0  0  0  0  0  0
    0.1710    1.4260   -0.1240 H   0  0  0  0  0  0  0  0  0  0  0  0
   -0.9874    3.2038   -0.3218 C   0  0  0  0  0  0  0  0  0  0  0  0
   -1.7406    3.5344    0.3959 H   0  0  0  0  0  0  0  0  0  0  0  0
   -0.0541    3.7375   -0.1377 H   0  0  0  0  0  0  0  0  0  0  0  0
   -1.3406    3.4304   -1.3292 H   0  0  0  0  0  0  0  0  0  0  0  0
  5  6  2  0  0  0  0
  5  7  1  0  0  0  0
  2  3  1  0  0  0  0
  2  4  1  0  0  0  0
  2  5  1  0  0  0  0
  1  2  1  0  0  0  0
 29 30  2  0  0  0  0
 29 31  1  0  0  0  0
 26 27  1  0  0  0  0
 26 28  2  0  0  0  0
 24 25  1  0  0  0  0
 24 26  1  0  0  0  0
 22 23  1  0  0  0  0
 22 24  2  0  0  0  0
 20 21  1  0  0  0  0
 20 22  1  0  0  0  0
 19 20  2  0  0  0  0
 19 28  1  0  0  0  0
 17 18  1  0  0  0  0
 17 19  1  0  0  0  0
 15 16  1  0  0  0  0
 15 17  1  0  0  0  0
 14 15  2  0  0  0  0
 14 28  1  0  0  0  0
 11 12  1  0  0  0  0
 11 13  1  0  0  0  0
 11 14  1  0  0  0  0
  9 10  1  0  0  0  0
  9 11  1  0  0  0  0
  9 29  1  0  0  0  0
  7  8  1  0  0  0  0
  7  9  1  0  0  0  0
 33 34  1  0  0  0  0
 33 35  1  0  0  0  0
 33 36  1  0  0  0  0
 31 32  1  0  0  0  0
 31 33  1  0  0  0  0
M  END
$$$$
default_name
  -OEChem-12212115393D

 36 37  0     1  0  0  0  0  0999 V2000
   -4.0843   -4.0736    1.2944 H   0  0  0  0  0  0  0  0  0  0  0  0
   -4.0342   -3.2816    0.5484 C   0  0  0  0  0  0  0  0  0  0  0  0
   -4.8842   -2.6126    0.6694 H   0  0  0  0  0  0  0  0  0  0  0  0
   -4.0433   -3.7186   -0.4486 H   0  0  0  0  0  0  0  0  0  0  0  0
   -2.7532   -2.5046    0.7444 C   0  0  0  0  0  0  0  0  0  0  0  0
   -1.9803   -2.8096    1.6434 O   0  0  0  0  0  0  0  0  0  0  0  0
   -2.5332   -1.4966   -0.0966 N   0  0  0  0  0  0  0  0  0  0  0  0
   -3.2312   -1.2816   -0.7936 H   0  0  0  0  0  0  0  0  0  0  0  0
   -1.3593   -0.6196   -0.0536 C   0  0  1  0  0  0  0  0  0  0  0  0
   -0.8788   -0.7266    0.9196 H   0  0  0  0  0  0  0  0  0  0  0  0
   -0.3559   -1.0533   -1.1339 C   0  0  0  0  0  0  0  0  0  0  0  0
    0.5234   -0.4093   -1.0760 H   0  0  0  0  0  0  0  0  0  0  0  0
   -0.0329   -2.0733   -0.9185 H   0  0  0  0  0  0  0  0  0  0  0  0
   -0.8733   -1.0058   -2.5396 C   0  0  0  0  0  0  0  0  0  0  0  0
   -0.8304    0.0697   -3.3576 C   0  0  0  0  0  0  0  0  0  0  0  0
   -0.4293    1.0389   -3.0823 H   0  0  0  0  0  0  0  0  0  0  0  0
   -1.3536   -0.2643   -4.5914 N   0  0  0  0  0  0  0  0  0  0  0  0
   -1.4263    0.3860   -5.3601 H   0  0  0  0  0  0  0  0  0  0  0  0
   -1.7469   -1.5850   -4.6352 C   0  0  0  0  0  0  0  0  0  0  0  0
   -2.2967   -2.3879   -5.6449 C   0  0  0  0  0  0  0  0  0  0  0  0
   -2.4948   -1.9772   -6.6240 H   0  0  0  0  0  0  0  0  0  0  0  0
   -2.5880   -3.7338   -5.3642 C   0  0  0  0  0  0  0  0  0  0  0  0
   -3.0133   -4.3680   -6.1303 H   0  0  0  0  0  0  0  0  0  0  0  0
   -2.3315   -4.2539   -4.0824 C   0  0  0  0  0  0  0  0  0  0  0  0
   -2.5648   -5.2877   -3.8684 H   0  0  0  0  0  0  0  0  0  0  0  0
   -1.7805   -3.4371   -3.0747 C   0  0  0  0  0  0  0  0  0  0  0  0
   -1.6009   -3.8457   -2.0904 H   0  0  0  0  0  0  0  0  0  0  0  0
   -1.4711   -2.0830   -3.3267 C   0  0  0  0  0  0  0  0  0  0  0  0
   -1.7617    0.8549   -0.2106 C   0  0  0  0  0  0  0  0  0  0  0  0
   -2.9366    1.1941   -0.0754 O   0  0  0  0  0  0  0  0  0  0  0  0
   -0.7878    1.7293   -0.4974 N   0  0  0  0  0  0  0  0  0  0  0  0
    0.1415    1.3624   -0.6458 H   0  0  0  0  0  0  0  0  0  0  0  0
   -0.9977    3.1632   -0.6768 C   0  0  0  0  0  0  0  0  0  0  0  0
   -1.5421    3.5656    0.1796 H   0  0  0  0  0  0  0  0  0  0  0  0
   -0.0386    3.6747   -0.7677 H   0  0  0  0  0  0  0  0  0  0  0  0
   -1.5868    3.3366   -1.5789 H   0  0  0  0  0  0  0  0  0  0  0  0
  5  6  2  0  0  0  0
  5  7  1  0  0  0  0
  2  3  1  0  0  0  0
  2  4  1  0  0  0  0
  2  5  1  0  0  0  0
  1  2  1  0  0  0  0
 29 30  2  0  0  0  0
 29 31  1  0  0  0  0
 26 27  1  0  0  0  0
 26 28  2  0  0  0  0
 24 25  1  0  0  0  0
 24 26  1  0  0  0  0
 22 23  1  0  0  0  0
 22 24  2  0  0  0  0
 20 21  1  0  0  0  0
 20 22  1  0  0  0  0
 19 20  2  0  0  0  0
 19 28  1  0  0  0  0
 17 18  1  0  0  0  0
 17 19  1  0  0  0  0
 15 16  1  0  0  0  0
 15 17  1  0  0  0  0
 14 15  2  0  0  0  0
 14 28  1  0  0  0  0
 11 12  1  0  0  0  0
 11 13  1  0  0  0  0
 11 14  1  0  0  0  0
  9 10  1  0  0  0  0
  9 11  1  0  0  0  0
  9 29  1  0  0  0  0
  7  8  1  0  0  0  0
  7  9  1  0  0  0  0
 33 34  1  0  0  0  0
 33 35  1  0  0  0  0
 33 36  1  0  0  0  0
 31 32  1  0  0  0  0
 31 33  1  0  0  0  0
M  END
$$$$
default_name
  -OEChem-12212115393D

 36 37  0     1  0  0  0  0  0999 V2000
   -4.0843   -4.0736    1.2944 H   0  0  0  0  0  0  0  0  0  0  0  0
   -4.0342   -3.2816    0.5484 C   0  0  0  0  0  0  0  0  0  0  0  0
   -4.8842   -2.6126    0.6694 H   0  0  0  0  0  0  0  0  0  0  0  0
   -4.0433   -3.7186   -0.4486 H   0  0  0  0  0  0  0  0  0  0  0  0
   -2.7532   -2.5046    0.7444 C   0  0  0  0  0  0  0  0  0  0  0  0
   -1.9803   -2.8096    1.6434 O   0  0  0  0  0  0  0  0  0  0  0  0
   -2.5332   -1.4966   -0.0966 N   0  0  0  0  0  0  0  0  0  0  0  0
   -3.2312   -1.2816   -0.7936 H   0  0  0  0  0  0  0  0  0  0  0  0
   -1.3593   -0.6196   -0.0536 C   0  0  1  0  0  0  0  0  0  0  0  0
   -0.8788   -0.7266    0.9196 H   0  0  0  0  0  0  0  0  0  0  0  0
   -0.3559   -1.0533   -1.1339 C   0  0  0  0  0  0  0  0  0  0  0  0
    0.5234   -0.4093   -1.0760 H   0  0  0  0  0  0  0  0  0  0  0  0
   -0.0329   -2.0733   -0.9185 H   0  0  0  0  0  0  0  0  0  0  0  0
   -0.8733   -1.0058   -2.5396 C   0  0  0  0  0  0  0  0  0  0  0  0
   -0.8304    0.0697   -3.3576 C   0  0  0  0  0  0  0  0  0  0  0  0
   -0.4293    1.0389   -3.0823 H   0  0  0  0  0  0  0  0  0  0  0  0
   -1.3536   -0.2643   -4.5914 N   0  0  0  0  0  0  0  0  0  0  0  0
   -1.4263    0.3860   -5.3601 H   0  0  0  0  0  0  0  0  0  0  0  0
   -1.7469   -1.5850   -4.6352 C   0  0  0  0  0  0  0  0  0  0  0  0
   -2.2967   -2.3879   -5.6449 C   0  0  0  0  0  0  0  0  0  0  0  0
   -2.4948   -1.9772   -6.6240 H   0  0  0  0  0  0  0  0  0  0  0  0
   -2.5880   -3.7338   -5.3642 C   0  0  0  0  0  0  0  0  0  0  0  0
   -3.0133   -4.3680   -6.1303 H   0  0  0  0  0  0  0  0  0  0  0  0
   -2.3315   -4.2539   -4.0824 C   0  0  0  0  0  0  0  0  0  0  0  0
   -2.5648   -5.2877   -3.8684 H   0  0  0  0  0  0  0  0  0  0  0  0
   -1.7805   -3.4371   -3.0747 C   0  0  0  0  0  0  0  0  0  0  0  0
   -1.6009   -3.8457   -2.0904 H   0  0  0  0  0  0  0  0  0  0  0  0
   -1.4711   -2.0830   -3.3267 C   0  0  0  0  0  0  0  0  0  0  0  0
   -1.7617    0.8549   -0.2106 C   0  0  0  0  0  0  0  0  0  0  0  0
   -2.8595    1.2430    0.1867 O   0  0  0  0  0  0  0  0  0  0  0  0
   -0.8746    1.6744   -0.7909 N   0  0  0  0  0  0  0  0  0  0  0  0
   -0.0184    1.2664   -1.1382 H   0  0  0  0  0  0  0  0  0  0  0  0
   -1.0969    3.1002   -1.0143 C   0  0  0  0  0  0  0  0  0  0  0  0
   -1.4034    3.5757   -0.0806 H   0  0  0  0  0  0  0  0  0  0  0  0
   -0.1818    3.5709   -1.3759 H   0  0  0  0  0  0  0  0  0  0  0  0
   -1.8891    3.2356   -1.7525 H   0  0  0  0  0  0  0  0  0  0  0  0
  5  6  2  0  0  0  0
  5  7  1  0  0  0  0
  2  3  1  0  0  0  0
  2  4  1  0  0  0  0
  2  5  1  0  0  0  0
  1  2  1  0  0  0  0
 29 30  2  0  0  0  0
 29 31  1  0  0  0  0
 26 27  1  0  0  0  0
 26 28  2  0  0  0  0
 24 25  1  0  0  0  0
 24 26  1  0  0  0  0
 22 23  1  0  0  0  0
 22 24  2  0  0  0  0
 20 21  1  0  0  0  0
 20 22  1  0  0  0  0
 19 20  2  0  0  0  0
 19 28  1  0  0  0  0
 17 18  1  0  0  0  0
 17 19  1  0  0  0  0
 15 16  1  0  0  0  0
 15 17  1  0  0  0  0
 14 15  2  0  0  0  0
 14 28  1  0  0  0  0
 11 12  1  0  0  0  0
 11 13  1  0  0  0  0
 11 14  1  0  0  0  0
  9 10  1  0  0  0  0
  9 11  1  0  0  0  0
  9 29  1  0  0  0  0
  7  8  1  0  0  0  0
  7  9  1  0  0  0  0
 33 34  1  0  0  0  0
 33 35  1  0  0  0  0
 33 36  1  0  0  0  0
 31 32  1  0  0  0  0
 31 33  1  0  0  0  0
M  END
$$$$
default_name
  -OEChem-12212115393D

 36 37  0     1  0  0  0  0  0999 V2000
   -4.0843   -4.0736    1.2944 H   0  0  0  0  0  0  0  0  0  0  0  0
   -4.0342   -3.2816    0.5484 C   0  0  0  0  0  0  0  0  0  0  0  0
   -4.8842   -2.6126    0.6694 H   0  0  0  0  0  0  0  0  0  0  0  0
   -4.0433   -3.7186   -0.4486 H   0  0  0  0  0  0  0  0  0  0  0  0
   -2.7532   -2.5046    0.7444 C   0  0  0  0  0  0  0  0  0  0  0  0
   -1.9803   -2.8096    1.6434 O   0  0  0  0  0  0  0  0  0  0  0  0
   -2.5332   -1.4966   -0.0966 N   0  0  0  0  0  0  0  0  0  0  0  0
   -3.2312   -1.2816   -0.7936 H   0  0  0  0  0  0  0  0  0  0  0  0
   -1.3593   -0.6196   -0.0536 C   0  0  1  0  0  0  0  0  0  0  0  0
   -0.8788   -0.7266    0.9196 H   0  0  0  0  0  0  0  0  0  0  0  0
   -0.3559   -1.0533   -1.1339 C   0  0  0  0  0  0  0  0  0  0  0  0
    0.5234   -0.4093   -1.0760 H   0  0  0  0  0  0  0  0  0  0  0  0
   -0.0329   -2.0733   -0.9185 H   0  0  0  0  0  0  0  0  0  0  0  0
   -0.8733   -1.0058   -2.5396 C   0  0  0  0  0  0  0  0  0  0  0  0
   -0.8304    0.0697   -3.3576 C   0  0  0  0  0  0  0  0  0  0  0  0
   -0.4293    1.0389   -3.0823 H   0  0  0  0  0  0  0  0  0  0  0  0
   -1.3536   -0.2643   -4.5914 N   0  0  0  0  0  0  0  0  0  0  0  0
   -1.4263    0.3860   -5.3601 H   0  0  0  0  0  0  0  0  0  0  0  0
   -1.7469   -1.5850   -4.6352 C   0  0  0  0  0  0  0  0  0  0  0  0
   -2.2967   -2.3879   -5.6449 C   0  0  0  0  0  0  0  0  0  0  0  0
   -2.4948   -1.9772   -6.6240 H   0  0  0  0  0  0  0  0  0  0  0  0
   -2.5880   -3.7338   -5.3642 C   0  0  0  0  0  0  0  0  0  0  0  0
   -3.0133   -4.3680   -6.1303 H   0  0  0  0  0  0  0  0  0  0  0  0
   -2.3315   -4.2539   -4.0824 C   0  0  0  0  0  0  0  0  0  0  0  0
   -2.5648   -5.2877   -3.8684 H   0  0  0  0  0  0  0  0  0  0  0  0
   -1.7805   -3.4371   -3.0747 C   0  0  0  0  0  0  0  0  0  0  0  0
   -1.6009   -3.8457   -2.0904 H   0  0  0  0  0  0  0  0  0  0  0  0
   -1.4711   -2.0830   -3.3267 C   0  0  0  0  0  0  0  0  0  0  0  0
   -1.7617    0.8549   -0.2106 C   0  0  0  0  0  0  0  0  0  0  0  0
   -2.7187    1.3060    0.4174 O   0  0  0  0  0  0  0  0  0  0  0  0
   -1.0328    1.6037   -1.0491 N   0  0  0  0  0  0  0  0  0  0  0  0
   -0.2976    1.1445   -1.5676 H   0  0  0  0  0  0  0  0  0  0  0  0
   -1.2782    3.0191   -1.3114 C   0  0  0  0  0  0  0  0  0  0  0  0
   -1.3337    3.5642   -0.3672 H   0  0  0  0  0  0  0  0  0  0  0  0
   -0.4739    3.4332   -1.9208 H   0  0  0  0  0  0  0  0  0  0  0  0
   -2.2269    3.1343   -1.8383 H   0  0  0  0  0  0  0  0  0  0  0  0
  5  6  2  0  0  0  0
  5  7  1  0  0  0  0
  2  3  1  0  0  0  0
  2  4  1  0  0  0  0
  2  5  1  0  0  0  0
  1  2  1  0  0  0  0
 29 30  2  0  0  0  0
 29 31  1  0  0  0  0
 26 27  1  0  0  0  0
 26 28  2  0  0  0  0
 24 25  1  0  0  0  0
 24 26  1  0  0  0  0
 22 23  1  0  0  0  0
 22 24  2  0  0  0  0
 20 21  1  0  0  0  0
 20 22  1  0  0  0  0
 19 20  2  0  0  0  0
 19 28  1  0  0  0  0
 17 18  1  0  0  0  0
 17 19  1  0  0  0  0
 15 16  1  0  0  0  0
 15 17  1  0  0  0  0
 14 15  2  0  0  0  0
 14 28  1  0  0  0  0
 11 12  1  0  0  0  0
 11 13  1  0  0  0  0
 11 14  1  0  0  0  0
  9 10  1  0  0  0  0
  9 11  1  0  0  0  0
  9 29  1  0  0  0  0
  7  8  1  0  0  0  0
  7  9  1  0  0  0  0
 33 34  1  0  0  0  0
 33 35  1  0  0  0  0
 33 36  1  0  0  0  0
 31 32  1  0  0  0  0
 31 33  1  0  0  0  0
M  END
$$$$
default_name
  -OEChem-12212115393D

 36 37  0     1  0  0  0  0  0999 V2000
   -4.0843   -4.0736    1.2944 H   0  0  0  0  0  0  0  0  0  0  0  0
   -4.0342   -3.2816    0.5484 C   0  0  0  0  0  0  0  0  0  0  0  0
   -4.8842   -2.6126    0.6694 H   0  0  0  0  0  0  0  0  0  0  0  0
   -4.0433   -3.7186   -0.4486 H   0  0  0  0  0  0  0  0  0  0  0  0
   -2.7532   -2.5046    0.7444 C   0  0  0  0  0  0  0  0  0  0  0  0
   -1.9803   -2.8096    1.6434 O   0  0  0  0  0  0  0  0  0  0  0  0
   -2.5332   -1.4966   -0.0966 N   0  0  0  0  0  0  0  0  0  0  0  0
   -3.2312   -1.2816   -0.7936 H   0  0  0  0  0  0  0  0  0  0  0  0
   -1.3593   -0.6196   -0.0536 C   0  0  1  0  0  0  0  0  0  0  0  0
   -0.8788   -0.7266    0.9196 H   0  0  0  0  0  0  0  0  0  0  0  0
   -0.3559   -1.0533   -1.1339 C   0  0  0  0  0  0  0  0  0  0  0  0
    0.5234   -0.4093   -1.0760 H   0  0  0  0  0  0  0  0  0  0  0  0
   -0.0329   -2.0733   -0.9185 H   0  0  0  0  0  0  0  0  0  0  0  0
   -0.8733   -1.0058   -2.5396 C   0  0  0  0  0  0  0  0  0  0  0  0
   -0.8304    0.0697   -3.3576 C   0  0  0  0  0  0  0  0  0  0  0  0
   -0.4293    1.0389   -3.0823 H   0  0  0  0  0  0  0  0  0  0  0  0
   -1.3536   -0.2643   -4.5914 N   0  0  0  0  0  0  0  0  0  0  0  0
   -1.4263    0.3860   -5.3601 H   0  0  0  0  0  0  0  0  0  0  0  0
   -1.7469   -1.5850   -4.6352 C   0  0  0  0  0  0  0  0  0  0  0  0
   -2.2967   -2.3879   -5.6449 C   0  0  0  0  0  0  0  0  0  0  0  0
   -2.4948   -1.9772   -6.6240 H   0  0  0  0  0  0  0  0  0  0  0  0
   -2.5880   -3.7338   -5.3642 C   0  0  0  0  0  0  0  0  0  0  0  0
   -3.0133   -4.3680   -6.1303 H   0  0  0  0  0  0  0  0  0  0  0  0
   -2.3315   -4.2539   -4.0824 C   0  0  0  0  0  0  0  0  0  0  0  0
   -2.5648   -5.2877   -3.8684 H   0  0  0  0  0  0  0  0  0  0  0  0
   -1.7805   -3.4371   -3.0747 C   0  0  0  0  0  0  0  0  0  0  0  0
   -1.6009   -3.8457   -2.0904 H   0  0  0  0  0  0  0  0  0  0  0  0
   -1.4711   -2.0830   -3.3267 C   0  0  0  0  0  0  0  0  0  0  0  0
   -1.7617    0.8549   -0.2106 C   0  0  0  0  0  0  0  0  0  0  0  0
   -2.5237    1.3787    0.6010 O   0  0  0  0  0  0  0  0  0  0  0  0
   -1.2516    1.5222   -1.2545 N   0  0  0  0  0  0  0  0  0  0  0  0
   -0.6772    1.0050   -1.9048 H   0  0  0  0  0  0  0  0  0  0  0  0
   -1.5293    2.9254   -1.5478 C   0  0  0  0  0  0  0  0  0  0  0  0
   -1.3379    3.5319   -0.6605 H   0  0  0  0  0  0  0  0  0  0  0  0
   -0.8950    3.2709   -2.3652 H   0  0  0  0  0  0  0  0  0  0  0  0
   -2.5772    3.0396   -1.8304 H   0  0  0  0  0  0  0  0  0  0  0  0
  5  6  2  0  0  0  0
  5  7  1  0  0  0  0
  2  3  1  0  0  0  0
  2  4  1  0  0  0  0
  2  5  1  0  0  0  0
  1  2  1  0  0  0  0
 29 30  2  0  0  0  0
 29 31  1  0  0  0  0
 26 27  1  0  0  0  0
 26 28  2  0  0  0  0
 24 25  1  0  0  0  0
 24 26  1  0  0  0  0
 22 23  1  0  0  0  0
 22 24  2  0  0  0  0
 20 21  1  0  0  0  0
 20 22  1  0  0  0  0
 19 20  2  0  0  0  0
 19 28  1  0  0  0  0
 17 18  1  0  0  0  0
 17 19  1  0  0  0  0
 15 16  1  0  0  0  0
 15 17  1  0  0  0  0
 14 15  2  0  0  0  0
 14 28  1  0  0  0  0
 11 12  1  0  0  0  0
 11 13  1  0  0  0  0
 11 14  1  0  0  0  0
  9 10  1  0  0  0  0
  9 11  1  0  0  0  0
  9 29  1  0  0  0  0
  7  8  1  0  0  0  0
  7  9  1  0  0  0  0
 33 34  1  0  0  0  0
 33 35  1  0  0  0  0
 33 36  1  0  0  0  0
 31 32  1  0  0  0  0
 31 33  1  0  0  0  0
M  END
$$$$
default_name
  -OEChem-12212115393D

 36 37  0     1  0  0  0  0  0999 V2000
   -4.0843   -4.0736    1.2944 H   0  0  0  0  0  0  0  0  0  0  0  0
   -4.0342   -3.2816    0.5484 C   0  0  0  0  0  0  0  0  0  0  0  0
   -4.8842   -2.6126    0.6694 H   0  0  0  0  0  0  0  0  0  0  0  0
   -4.0433   -3.7186   -0.4486 H   0  0  0  0  0  0  0  0  0  0  0  0
   -2.7532   -2.5046    0.7444 C   0  0  0  0  0  0  0  0  0  0  0  0
   -1.9803   -2.8096    1.6434 O   0  0  0  0  0  0  0  0  0  0  0  0
   -2.5332   -1.4966   -0.0966 N   0  0  0  0  0  0  0  0  0  0  0  0
   -3.2312   -1.2816   -0.7936 H   0  0  0  0  0  0  0  0  0  0  0  0
   -1.3593   -0.6196   -0.0536 C   0  0  1  0  0  0  0  0  0  0  0  0
   -0.8788   -0.7266    0.9196 H   0  0  0  0  0  0  0  0  0  0  0  0
   -0.3559   -1.0533   -1.1339 C   0  0  0  0  0  0  0  0  0  0  0  0
    0.5234   -0.4093   -1.0760 H   0  0  0  0  0  0  0  0  0  0  0  0
   -0.0329   -2.0733   -0.9185 H   0  0  0  0  0  0  0  0  0  0  0  0
   -0.8733   -1.0058   -2.5396 C   0  0  0  0  0  0  0  0  0  0  0  0
   -0.8304    0.0697   -3.3576 C   0  0  0  0  0  0  0  0  0  0  0  0
   -0.4293    1.0389   -3.0823 H   0  0  0  0  0  0  0  0  0  0  0  0
   -1.3536   -0.2643   -4.5914 N   0  0  0  0  0  0  0  0  0  0  0  0
   -1.4263    0.3860   -5.3601 H   0  0  0  0  0  0  0  0  0  0  0  0
   -1.7469   -1.5850   -4.6352 C   0  0  0  0  0  0  0  0  0  0  0  0
   -2.2967   -2.3879   -5.6449 C   0  0  0  0  0  0  0  0  0  0  0  0
   -2.4948   -1.9772   -6.6240 H   0  0  0  0  0  0  0  0  0  0  0  0
   -2.5880   -3.7338   -5.3642 C   0  0  0  0  0  0  0  0  0  0  0  0
   -3.0133   -4.3680   -6.1303 H   0  0  0  0  0  0  0  0  0  0  0  0
   -2.3315   -4.2539   -4.0824 C   0  0  0  0  0  0  0  0  0  0  0  0
   -2.5648   -5.2877   -3.8684 H   0  0  0  0  0  0  0  0  0  0  0  0
   -1.7805   -3.4371   -3.0747 C   0  0  0  0  0  0  0  0  0  0  0  0
   -1.6009   -3.8457   -2.0904 H   0  0  0  0  0  0  0  0  0  0  0  0
   -1.4711   -2.0830   -3.3267 C   0  0  0  0  0  0  0  0  0  0  0  0
   -1.7617    0.8549   -0.2106 C   0  0  0  0  0  0  0  0  0  0  0  0
   -2.2878    1.4563    0.7249 O   0  0  0  0  0  0  0  0  0  0  0  0
   -1.5161    1.4352   -1.3930 N   0  0  0  0  0  0  0  0  0  0  0  0
   -1.1313    0.8574   -2.1267 H   0  0  0  0  0  0  0  0  0  0  0  0
   -1.8330    2.8255   -1.7075 C   0  0  0  0  0  0  0  0  0  0  0  0
   -1.4157    3.4808   -0.9406 H   0  0  0  0  0  0  0  0  0  0  0  0
   -1.4164    3.0952   -2.6788 H   0  0  0  0  0  0  0  0  0  0  0  0
   -2.9160    2.9578   -1.7294 H   0  0  0  0  0  0  0  0  0  0  0  0
  5  6  2  0  0  0  0
  5  7  1  0  0  0  0
  2  3  1  0  0  0  0
  2  4  1  0  0  0  0
  2  5  1  0  0  0  0
  1  2  1  0  0  0  0
 29 30  2  0  0  0  0
 29 31  1  0  0  0  0
 26 27  1  0  0  0  0
 26 28  2  0  0  0  0
 24 25  1  0  0  0  0
 24 26  1  0  0  0  0
 22 23  1  0  0  0  0
 22 24  2  0  0  0  0
 20 21  1  0  0  0  0
 20 22  1  0  0  0  0
 19 20  2  0  0  0  0
 19 28  1  0  0  0  0
 17 18  1  0  0  0  0
 17 19  1  0  0  0  0
 15 16  1  0  0  0  0
 15 17  1  0  0  0  0
 14 15  2  0  0  0  0
 14 28  1  0  0  0  0
 11 12  1  0  0  0  0
 11 13  1  0  0  0  0
 11 14  1  0  0  0  0
  9 10  1  0  0  0  0
  9 11  1  0  0  0  0
  9 29  1  0  0  0  0
  7  8  1  0  0  0  0
  7  9  1  0  0  0  0
 33 34  1  0  0  0  0
 33 35  1  0  0  0  0
 33 36  1  0  0  0  0
 31 32  1  0  0  0  0
 31 33  1  0  0  0  0
M  END
$$$$
default_name
  -OEChem-12212115393D

 36 37  0     1  0  0  0  0  0999 V2000
   -4.0843   -4.0736    1.2944 H   0  0  0  0  0  0  0  0  0  0  0  0
   -4.0342   -3.2816    0.5484 C   0  0  0  0  0  0  0  0  0  0  0  0
   -4.8842   -2.6126    0.6694 H   0  0  0  0  0  0  0  0  0  0  0  0
   -4.0433   -3.7186   -0.4486 H   0  0  0  0  0  0  0  0  0  0  0  0
   -2.7532   -2.5046    0.7444 C   0  0  0  0  0  0  0  0  0  0  0  0
   -1.9803   -2.8096    1.6434 O   0  0  0  0  0  0  0  0  0  0  0  0
   -2.5332   -1.4966   -0.0966 N   0  0  0  0  0  0  0  0  0  0  0  0
   -3.2312   -1.2816   -0.7936 H   0  0  0  0  0  0  0  0  0  0  0  0
   -1.3593   -0.6196   -0.0536 C   0  0  1  0  0  0  0  0  0  0  0  0
   -0.8788   -0.7266    0.9196 H   0  0  0  0  0  0  0  0  0  0  0  0
   -0.3559   -1.0533   -1.1339 C   0  0  0  0  0  0  0  0  0  0  0  0
    0.5234   -0.4093   -1.0760 H   0  0  0  0  0  0  0  0  0  0  0  0
   -0.0329   -2.0733   -0.9185 H   0  0  0  0  0  0  0  0  0  0  0  0
   -0.8733   -1.0058   -2.5396 C   0  0  0  0  0  0  0  0  0  0  0  0
   -0.8304    0.0697   -3.3576 C   0  0  0  0  0  0  0  0  0  0  0  0
   -0.4293    1.0389   -3.0823 H   0  0  0  0  0  0  0  0  0  0  0  0
   -1.3536   -0.2643   -4.5914 N   0  0  0  0  0  0  0  0  0  0  0  0
   -1.4263    0.3860   -5.3601 H   0  0  0  0  0  0  0  0  0  0  0  0
   -1.7469   -1.5850   -4.6352 C   0  0  0  0  0  0  0  0  0  0  0  0
   -2.2967   -2.3879   -5.6449 C   0  0  0  0  0  0  0  0  0  0  0  0
   -2.4948   -1.9772   -6.6240 H   0  0  0  0  0  0  0  0  0  0  0  0
   -2.5880   -3.7338   -5.3642 C   0  0  0  0  0  0  0  0  0  0  0  0
   -3.0133   -4.3680   -6.1303 H   0  0  0  0  0  0  0  0  0  0  0  0
   -2.3315   -4.2539   -4.0824 C   0  0  0  0  0  0  0  0  0  0  0  0
   -2.5648   -5.2877   -3.8684 H   0  0  0  0  0  0  0  0  0  0  0  0
   -1.7805   -3.4371   -3.0747 C   0  0  0  0  0  0  0  0  0  0  0  0
   -1.6009   -3.8457   -2.0904 H   0  0  0  0  0  0  0  0  0  0  0  0
   -1.4711   -2.0830   -3.3267 C   0  0  0  0  0  0  0  0  0  0  0  0
   -1.7617    0.8549   -0.2106 C   0  0  0  0  0  0  0  0  0  0  0  0
   -2.0272    1.5334    0.7808 O   0  0  0  0  0  0  0  0  0  0  0  0
   -1.8083    1.3489   -1.4552 N   0  0  0  0  0  0  0  0  0  0  0  0
   -1.6289    0.7119   -2.2183 H   0  0  0  0  0  0  0  0  0  0  0  0
   -2.1687    2.7263   -1.7795 C   0  0  0  0  0  0  0  0  0  0  0  0
   -1.5617    3.4146   -1.1884 H   0  0  0  0  0  0  0  0  0  0  0  0
   -2.0027    2.9181   -2.8404 H   0  0  0  0  0  0  0  0  0  0  0  0
   -3.2204    2.8947   -1.5421 H   0  0  0  0  0  0  0  0  0  0  0  0
  5  6  2  0  0  0  0
  5  7  1  0  0  0  0
  2  3  1  0  0  0  0
  2  4  1  0  0  0  0
  2  5  1  0  0  0  0
  1  2  1  0  0  0  0
 29 30  2  0  0  0  0
 29 31  1  0  0  0  0
 26 27  1  0  0  0  0
 26 28  2  0  0  0  0
 24 25  1  0  0  0  0
 24 26  1  0  0  0  0
 22 23  1  0  0  0  0
 22 24  2  0  0  0  0
 20 21  1  0  0  0  0
 20 22  1  0  0  0  0
 19 20  2  0  0  0  0
 19 28  1  0  0  0  0
 17 18  1  0  0  0  0
 17 19  1  0  0  0  0
 15 16  1  0  0  0  0
 15 17  1  0  0  0  0
 14 15  2  0  0  0  0
 14 28  1  0  0  0  0
 11 12  1  0  0  0  0
 11 13  1  0  0  0  0
 11 14  1  0  0  0  0
  9 10  1  0  0  0  0
  9 11  1  0  0  0  0
  9 29  1  0  0  0  0
  7  8  1  0  0  0  0
  7  9  1  0  0  0  0
 33 34  1  0  0  0  0
 33 35  1  0  0  0  0
 33 36  1  0  0  0  0
 31 32  1  0  0  0  0
 31 33  1  0  0  0  0
M  END
$$$$
default_name
  -OEChem-12212115393D

 36 37  0     1  0  0  0  0  0999 V2000
   -4.0843   -4.0736    1.2944 H   0  0  0  0  0  0  0  0  0  0  0  0
   -4.0342   -3.2816    0.5484 C   0  0  0  0  0  0  0  0  0  0  0  0
   -4.8842   -2.6126    0.6694 H   0  0  0  0  0  0  0  0  0  0  0  0
   -4.0433   -3.7186   -0.4486 H   0  0  0  0  0  0  0  0  0  0  0  0
   -2.7532   -2.5046    0.7444 C   0  0  0  0  0  0  0  0  0  0  0  0
   -1.9803   -2.8096    1.6434 O   0  0  0  0  0  0  0  0  0  0  0  0
   -2.5332   -1.4966   -0.0966 N   0  0  0  0  0  0  0  0  0  0  0  0
   -3.2312   -1.2816   -0.7936 H   0  0  0  0  0  0  0  0  0  0  0  0
   -1.3593   -0.6196   -0.0536 C   0  0  1  0  0  0  0  0  0  0  0  0
   -0.8788   -0.7266    0.9196 H   0  0  0  0  0  0  0  0  0  0  0  0
   -0.3559   -1.0533   -1.1339 C   0  0  0  0  0  0  0  0  0  0  0  0
    0.5234   -0.4093   -1.0760 H   0  0  0  0  0  0  0  0  0  0  0  0
   -0.0329   -2.0733   -0.9185 H   0  0  0  0  0  0  0  0  0  0  0  0
   -0.8733   -1.0058   -2.5396 C   0  0  0  0  0  0  0  0  0  0  0  0
   -0.8304    0.0697   -3.3576 C   0  0  0  0  0  0  0  0  0  0  0  0
   -0.4293    1.0389   -3.0823 H   0  0  0  0  0  0  0  0  0  0  0  0
   -1.3536   -0.2643   -4.5914 N   0  0  0  0  0  0  0  0  0  0  0  0
   -1.4263    0.3860   -5.3601 H   0  0  0  0  0  0  0  0  0  0  0  0
   -1.7469   -1.5850   -4.6352 C   0  0  0  0  0  0  0  0  0  0  0  0
   -2.2967   -2.3879   -5.6449 C   0  0  0  0  0  0  0  0  0  0  0  0
   -2.4948   -1.9772   -6.6240 H   0  0  0  0  0  0  0  0  0  0  0  0
   -2.5880   -3.7338   -5.3642 C   0  0  0  0  0  0  0  0  0  0  0  0
   -3.0133   -4.3680   -6.1303 H   0  0  0  0  0  0  0  0  0  0  0  0
   -2.3315   -4.2539   -4.0824 C   0  0  0  0  0  0  0  0  0  0  0  0
   -2.5648   -5.2877   -3.8684 H   0  0  0  0  0  0  0  0  0  0  0  0
   -1.7805   -3.4371   -3.0747 C   0  0  0  0  0  0  0  0  0  0  0  0
   -1.6009   -3.8457   -2.0904 H   0  0  0  0  0  0  0  0  0  0  0  0
   -1.4711   -2.0830   -3.3267 C   0  0  0  0  0  0  0  0  0  0  0  0
   -1.7617    0.8549   -0.2106 C   0  0  0  0  0  0  0  0  0  0  0  0
   -1.7595    1.6047    0.7648 O   0  0  0  0  0  0  0  0  0  0  0  0
   -2.1082    1.2690   -1.4368 N   0  0  0  0  0  0  0  0  0  0  0  0
   -2.1362    0.5782   -2.1733 H   0  0  0  0  0  0  0  0  0  0  0  0
   -2.5135    2.6344   -1.7590 C   0  0  0  0  0  0  0  0  0  0  0  0
   -1.7661    3.3377   -1.3870 H   0  0  0  0  0  0  0  0  0  0  0  0
   -2.6137    2.7515   -2.8388 H   0  0  0  0  0  0  0  0  0  0  0  0
   -3.4696    2.8545   -1.2813 H   0  0  0  0  0  0  0  0  0  0  0  0
  5  6  2  0  0  0  0
  5  7  1  0  0  0  0
  2  3  1  0  0  0  0
  2  4  1  0  0  0  0
  2  5  1  0  0  0  0
  1  2  1  0  0  0  0
 29 30  2  0  0  0  0
 29 31  1  0  0  0  0
 26 27  1  0  0  0  0
 26 28  2  0  0  0  0
 24 25  1  0  0  0  0
 24 26  1  0  0  0  0
 22 23  1  0  0  0  0
 22 24  2  0  0  0  0
 20 21  1  0  0  0  0
 20 22  1  0  0  0  0
 19 20  2  0  0  0  0
 19 28  1  0  0  0  0
 17 18  1  0  0  0  0
 17 19  1  0  0  0  0
 15 16  1  0  0  0  0
 15 17  1  0  0  0  0
 14 15  2  0  0  0  0
 14 28  1  0  0  0  0
 11 12  1  0  0  0  0
 11 13  1  0  0  0  0
 11 14  1  0  0  0  0
  9 10  1  0  0  0  0
  9 11  1  0  0  0  0
  9 29  1  0  0  0  0
  7  8  1  0  0  0  0
  7  9  1  0  0  0  0
 33 34  1  0  0  0  0
 33 35  1  0  0  0  0
 33 36  1  0  0  0  0
 31 32  1  0  0  0  0
 31 33  1  0  0  0  0
M  END
$$$$
default_name
  -OEChem-12212115393D

 36 37  0     1  0  0  0  0  0999 V2000
   -4.0843   -4.0736    1.2944 H   0  0  0  0  0  0  0  0  0  0  0  0
   -4.0342   -3.2816    0.5484 C   0  0  0  0  0  0  0  0  0  0  0  0
   -4.8842   -2.6126    0.6694 H   0  0  0  0  0  0  0  0  0  0  0  0
   -4.0433   -3.7186   -0.4486 H   0  0  0  0  0  0  0  0  0  0  0  0
   -2.7532   -2.5046    0.7444 C   0  0  0  0  0  0  0  0  0  0  0  0
   -1.9803   -2.8096    1.6434 O   0  0  0  0  0  0  0  0  0  0  0  0
   -2.5332   -1.4966   -0.0966 N   0  0  0  0  0  0  0  0  0  0  0  0
   -3.2312   -1.2816   -0.7936 H   0  0  0  0  0  0  0  0  0  0  0  0
   -1.3593   -0.6196   -0.0536 C   0  0  1  0  0  0  0  0  0  0  0  0
   -0.8788   -0.7266    0.9196 H   0  0  0  0  0  0  0  0  0  0  0  0
   -0.3559   -1.0533   -1.1339 C   0  0  0  0  0  0  0  0  0  0  0  0
    0.5234   -0.4093   -1.0760 H   0  0  0  0  0  0  0  0  0  0  0  0
   -0.0329   -2.0733   -0.9185 H   0  0  0  0  0  0  0  0  0  0  0  0
   -0.8733   -1.0058   -2.5396 C   0  0  0  0  0  0  0  0  0  0  0  0
   -0.8304    0.0697   -3.3576 C   0  0  0  0  0  0  0  0  0  0  0  0
   -0.4293    1.0389   -3.0823 H   0  0  0  0  0  0  0  0  0  0  0  0
   -1.3536   -0.2643   -4.5914 N   0  0  0  0  0  0  0  0  0  0  0  0
   -1.4263    0.3860   -5.3601 H   0  0  0  0  0  0  0  0  0  0  0  0
   -1.7469   -1.5850   -4.6352 C   0  0  0  0  0  0  0  0  0  0  0  0
   -2.2967   -2.3879   -5.6449 C   0  0  0  0  0  0  0  0  0  0  0  0
   -2.4948   -1.9772   -6.6240 H   0  0  0  0  0  0  0  0  0  0  0  0
   -2.5880   -3.7338   -5.3642 C   0  0  0  0  0  0  0  0  0  0  0  0
   -3.0133   -4.3680   -6.1303 H   0  0  0  0  0  0  0  0  0  0  0  0
   -2.3315   -4.2539   -4.0824 C   0  0  0  0  0  0  0  0  0  0  0  0
   -2.5648   -5.2877   -3.8684 H   0  0  0  0  0  0  0  0  0  0  0  0
   -1.7805   -3.4371   -3.0747 C   0  0  0  0  0  0  0  0  0  0  0  0
   -1.6009   -3.8457   -2.0904 H   0  0  0  0  0  0  0  0  0  0  0  0
   -1.4711   -2.0830   -3.3267 C   0  0  0  0  0  0  0  0  0  0  0  0
   -1.7617    0.8549   -0.2106 C   0  0  0  0  0  0  0  0  0  0  0  0
   -1.5030    1.6655    0.6781 O   0  0  0  0  0  0  0  0  0  0  0  0
   -2.3955    1.2010   -1.3391 N   0  0  0  0  0  0  0  0  0  0  0  0
   -2.6185    0.4656   -1.9947 H   0  0  0  0  0  0  0  0  0  0  0  0
   -2.8438    2.5561   -1.6473 C   0  0  0  0  0  0  0  0  0  0  0  0
   -2.0148    3.2554   -1.5228 H   0  0  0  0  0  0  0  0  0  0  0  0
   -3.2080    2.6068   -2.6742 H   0  0  0  0  0  0  0  0  0  0  0  0
   -3.6466    2.8399   -0.9647 H   0  0  0  0  0  0  0  0  0  0  0  0
  5  6  2  0  0  0  0
  5  7  1  0  0  0  0
  2  3  1  0  0  0  0
  2  4  1  0  0  0  0
  2  5  1  0  0  0  0
  1  2  1  0  0  0  0
 29 30  2  0  0  0  0
 29 31  1  0  0  0  0
 26 27  1  0  0  0  0
 26 28  2  0  0  0  0
 24 25  1  0  0  0  0
 24 26  1  0  0  0  0
 22 23  1  0  0  0  0
 22 24  2  0  0  0  0
 20 21  1  0  0  0  0
 20 22  1  0  0  0  0
 19 20  2  0  0  0  0
 19 28  1  0  0  0  0
 17 18  1  0  0  0  0
 17 19  1  0  0  0  0
 15 16  1  0  0  0  0
 15 17  1  0  0  0  0
 14 15  2  0  0  0  0
 14 28  1  0  0  0  0
 11 12  1  0  0  0  0
 11 13  1  0  0  0  0
 11 14  1  0  0  0  0
  9 10  1  0  0  0  0
  9 11  1  0  0  0  0
  9 29  1  0  0  0  0
  7  8  1  0  0  0  0
  7  9  1  0  0  0  0
 33 34  1  0  0  0  0
 33 35  1  0  0  0  0
 33 36  1  0  0  0  0
 31 32  1  0  0  0  0
 31 33  1  0  0  0  0
M  END
$$$$
default_name
  -OEChem-12212115393D

 36 37  0     1  0  0  0  0  0999 V2000
   -4.0843   -4.0736    1.2944 H   0  0  0  0  0  0  0  0  0  0  0  0
   -4.0342   -3.2816    0.5484 C   0  0  0  0  0  0  0  0  0  0  0  0
   -4.8842   -2.6126    0.6694 H   0  0  0  0  0  0  0  0  0  0  0  0
   -4.0433   -3.7186   -0.4486 H   0  0  0  0  0  0  0  0  0  0  0  0
   -2.7532   -2.5046    0.7444 C   0  0  0  0  0  0  0  0  0  0  0  0
   -1.9803   -2.8096    1.6434 O   0  0  0  0  0  0  0  0  0  0  0  0
   -2.5332   -1.4966   -0.0966 N   0  0  0  0  0  0  0  0  0  0  0  0
   -3.2312   -1.2816   -0.7936 H   0  0  0  0  0  0  0  0  0  0  0  0
   -1.3593   -0.6196   -0.0536 C   0  0  1  0  0  0  0  0  0  0  0  0
   -0.8788   -0.7266    0.9196 H   0  0  0  0  0  0  0  0  0  0  0  0
   -0.3559   -1.0533   -1.1339 C   0  0  0  0  0  0  0  0  0  0  0  0
    0.5234   -0.4093   -1.0760 H   0  0  0  0  0  0  0  0  0  0  0  0
   -0.0329   -2.0733   -0.9185 H   0  0  0  0  0  0  0  0  0  0  0  0
   -0.8733   -1.0058   -2.5396 C   0  0  0  0  0  0  0  0  0  0  0  0
   -0.8304    0.0697   -3.3576 C   0  0  0  0  0  0  0  0  0  0  0  0
   -0.4293    1.0389   -3.0823 H   0  0  0  0  0  0  0  0  0  0  0  0
   -1.3536   -0.2643   -4.5914 N   0  0  0  0  0  0  0  0  0  0  0  0
   -1.4263    0.3860   -5.3601 H   0  0  0  0  0  0  0  0  0  0  0  0
   -1.7469   -1.5850   -4.6352 C   0  0  0  0  0  0  0  0  0  0  0  0
   -2.2967   -2.3879   -5.6449 C   0  0  0  0  0  0  0  0  0  0  0  0
   -2.4948   -1.9772   -6.6240 H   0  0  0  0  0  0  0  0  0  0  0  0
   -2.5880   -3.7338   -5.3642 C   0  0  0  0  0  0  0  0  0  0  0  0
   -3.0133   -4.3680   -6.1303 H   0  0  0  0  0  0  0  0  0  0  0  0
   -2.3315   -4.2539   -4.0824 C   0  0  0  0  0  0  0  0  0  0  0  0
   -2.5648   -5.2877   -3.8684 H   0  0  0  0  0  0  0  0  0  0  0  0
   -1.7805   -3.4371   -3.0747 C   0  0  0  0  0  0  0  0  0  0  0  0
   -1.6009   -3.8457   -2.0904 H   0  0  0  0  0  0  0  0  0  0  0  0
   -1.4711   -2.0830   -3.3267 C   0  0  0  0  0  0  0  0  0  0  0  0
   -1.7617    0.8549   -0.2106 C   0  0  0  0  0  0  0  0  0  0  0  0
   -1.2752    1.7115    0.5264 O   0  0  0  0  0  0  0  0  0  0  0  0
   -2.6506    1.1495   -1.1688 N   0  0  0  0  0  0  0  0  0  0  0  0
   -3.0431    0.3817   -1.6948 H   0  0  0  0  0  0  0  0  0  0  0  0
   -3.1373    2.4968   -1.4521 C   0  0  0  0  0  0  0  0  0  0  0  0
   -2.2910    3.1732   -1.5866 H   0  0  0  0  0  0  0  0  0  0  0  0
   -3.7449    2.4939   -2.3578 H   0  0  0  0  0  0  0  0  0  0  0  0
   -3.7393    2.8519   -0.6140 H   0  0  0  0  0  0  0  0  0  0  0  0
  5  6  2  0  0  0  0
  5  7  1  0  0  0  0
  2  3  1  0  0  0  0
  2  4  1  0  0  0  0
  2  5  1  0  0  0  0
  1  2  1  0  0  0  0
 29 30  2  0  0  0  0
 29 31  1  0  0  0  0
 26 27  1  0  0  0  0
 26 28  2  0  0  0  0
 24 25  1  0  0  0  0
 24 26  1  0  0  0  0
 22 23  1  0  0  0  0
 22 24  2  0  0  0  0
 20 21  1  0  0  0  0
 20 22  1  0  0  0  0
 19 20  2  0  0  0  0
 19 28  1  0  0  0  0
 17 18  1  0  0  0  0
 17 19  1  0  0  0  0
 15 16  1  0  0  0  0
 15 17  1  0  0  0  0
 14 15  2  0  0  0  0
 14 28  1  0  0  0  0
 11 12  1  0  0  0  0
 11 13  1  0  0  0  0
 11 14  1  0  0  0  0
  9 10  1  0  0  0  0
  9 11  1  0  0  0  0
  9 29  1  0  0  0  0
  7  8  1  0  0  0  0
  7  9  1  0  0  0  0
 33 34  1  0  0  0  0
 33 35  1  0  0  0  0
 33 36  1  0  0  0  0
 31 32  1  0  0  0  0
 31 33  1  0  0  0  0
M  END
$$$$
default_name
  -OEChem-12212115393D

 36 37  0     1  0  0  0  0  0999 V2000
   -4.0843   -4.0736    1.2944 H   0  0  0  0  0  0  0  0  0  0  0  0
   -4.0342   -3.2816    0.5484 C   0  0  0  0  0  0  0  0  0  0  0  0
   -4.8842   -2.6126    0.6694 H   0  0  0  0  0  0  0  0  0  0  0  0
   -4.0433   -3.7186   -0.4486 H   0  0  0  0  0  0  0  0  0  0  0  0
   -2.7532   -2.5046    0.7444 C   0  0  0  0  0  0  0  0  0  0  0  0
   -1.9803   -2.8096    1.6434 O   0  0  0  0  0  0  0  0  0  0  0  0
   -2.5332   -1.4966   -0.0966 N   0  0  0  0  0  0  0  0  0  0  0  0
   -3.2312   -1.2816   -0.7936 H   0  0  0  0  0  0  0  0  0  0  0  0
   -1.3593   -0.6196   -0.0536 C   0  0  1  0  0  0  0  0  0  0  0  0
   -0.8788   -0.7266    0.9196 H   0  0  0  0  0  0  0  0  0  0  0  0
   -0.3559   -1.0533   -1.1339 C   0  0  0  0  0  0  0  0  0  0  0  0
    0.5234   -0.4093   -1.0760 H   0  0  0  0  0  0  0  0  0  0  0  0
   -0.0329   -2.0733   -0.9185 H   0  0  0  0  0  0  0  0  0  0  0  0
   -0.8733   -1.0058   -2.5396 C   0  0  0  0  0  0  0  0  0  0  0  0
   -0.8304    0.0697   -3.3576 C   0  0  0  0  0  0  0  0  0  0  0  0
   -0.4293    1.0389   -3.0823 H   0  0  0  0  0  0  0  0  0  0  0  0
   -1.3536   -0.2643   -4.5914 N   0  0  0  0  0  0  0  0  0  0  0  0
   -1.4263    0.3860   -5.3601 H   0  0  0  0  0  0  0  0  0  0  0  0
   -1.7469   -1.5850   -4.6352 C   0  0  0  0  0  0  0  0  0  0  0  0
   -2.2967   -2.3879   -5.6449 C   0  0  0  0  0  0  0  0  0  0  0  0
   -2.4948   -1.9772   -6.6240 H   0  0  0  0  0  0  0  0  0  0  0  0
   -2.5880   -3.7338   -5.3642 C   0  0  0  0  0  0  0  0  0  0  0  0
   -3.0133   -4.3680   -6.1303 H   0  0  0  0  0  0  0  0  0  0  0  0
   -2.3315   -4.2539   -4.0824 C   0  0  0  0  0  0  0  0  0  0  0  0
   -2.5648   -5.2877   -3.8684 H   0  0  0  0  0  0  0  0  0  0  0  0
   -1.7805   -3.4371   -3.0747 C   0  0  0  0  0  0  0  0  0  0  0  0
   -1.6009   -3.8457   -2.0904 H   0  0  0  0  0  0  0  0  0  0  0  0
   -1.4711   -2.0830   -3.3267 C   0  0  0  0  0  0  0  0  0  0  0  0
   -1.7617    0.8549   -0.2106 C   0  0  0  0  0  0  0  0  0  0  0  0
   -1.0915    1.7397    0.3203 O   0  0  0  0  0  0  0  0  0  0  0  0
   -2.8560    1.1181   -0.9375 N   0  0  0  0  0  0  0  0  0  0  0  0
   -3.3809    0.3322   -1.2940 H   0  0  0  0  0  0  0  0  0  0  0  0
   -3.3737    2.4605   -1.1866 C   0  0  0  0  0  0  0  0  0  0  0  0
   -2.5758    3.0968   -1.5741 H   0  0  0  0  0  0  0  0  0  0  0  0
   -4.1880    2.4206   -1.9112 H   0  0  0  0  0  0  0  0  0  0  0  0
   -3.7414    2.8898   -0.2530 H   0  0  0  0  0  0  0  0  0  0  0  0
  5  6  2  0  0  0  0
  5  7  1  0  0  0  0
  2  3  1  0  0  0  0
  2  4  1  0  0  0  0
  2  5  1  0  0  0  0
  1  2  1  0  0  0  0
 29 30  2  0  0  0  0
 29 31  1  0  0  0  0
 26 27  1  0  0  0  0
 26 28  2  0  0  0  0
 24 25  1  0  0  0  0
 24 26  1  0  0  0  0
 22 23  1  0  0  0  0
 22 24  2  0  0  0  0
 20 21  1  0  0  0  0
 20 22  1  0  0  0  0
 19 20  2  0  0  0  0
 19 28  1  0  0  0  0
 17 18  1  0  0  0  0
 17 19  1  0  0  0  0
 15 16  1  0  0  0  0
 15 17  1  0  0  0  0
 14 15  2  0  0  0  0
 14 28  1  0  0  0  0
 11 12  1  0  0  0  0
 11 13  1  0  0  0  0
 11 14  1  0  0  0  0
  9 10  1  0  0  0  0
  9 11  1  0  0  0  0
  9 29  1  0  0  0  0
  7  8  1  0  0  0  0
  7  9  1  0  0  0  0
 33 34  1  0  0  0  0
 33 35  1  0  0  0  0
 33 36  1  0  0  0  0
 31 32  1  0  0  0  0
 31 33  1  0  0  0  0
M  END
$$$$
default_name
  -OEChem-12212115393D

 36 37  0     1  0  0  0  0  0999 V2000
   -4.0843   -4.0736    1.2944 H   0  0  0  0  0  0  0  0  0  0  0  0
   -4.0342   -3.2816    0.5484 C   0  0  0  0  0  0  0  0  0  0  0  0
   -4.8842   -2.6126    0.6694 H   0  0  0  0  0  0  0  0  0  0  0  0
   -4.0433   -3.7186   -0.4486 H   0  0  0  0  0  0  0  0  0  0  0  0
   -2.7532   -2.5046    0.7444 C   0  0  0  0  0  0  0  0  0  0  0  0
   -1.9803   -2.8096    1.6434 O   0  0  0  0  0  0  0  0  0  0  0  0
   -2.5332   -1.4966   -0.0966 N   0  0  0  0  0  0  0  0  0  0  0  0
   -3.2312   -1.2816   -0.7936 H   0  0  0  0  0  0  0  0  0  0  0  0
   -1.3593   -0.6196   -0.0536 C   0  0  1  0  0  0  0  0  0  0  0  0
   -0.8788   -0.7266    0.9196 H   0  0  0  0  0  0  0  0  0  0  0  0
   -0.3559   -1.0533   -1.1339 C   0  0  0  0  0  0  0  0  0  0  0  0
    0.5234   -0.4093   -1.0760 H   0  0  0  0  0  0  0  0  0  0  0  0
   -0.0329   -2.0733   -0.9185 H   0  0  0  0  0  0  0  0  0  0  0  0
   -0.8733   -1.0058   -2.5396 C   0  0  0  0  0  0  0  0  0  0  0  0
   -0.8304    0.0697   -3.3576 C   0  0  0  0  0  0  0  0  0  0  0  0
   -0.4293    1.0389   -3.0823 H   0  0  0  0  0  0  0  0  0  0  0  0
   -1.3536   -0.2643   -4.5914 N   0  0  0  0  0  0  0  0  0  0  0  0
   -1.4263    0.3860   -5.3601 H   0  0  0  0  0  0  0  0  0  0  0  0
   -1.7469   -1.5850   -4.6352 C   0  0  0  0  0  0  0  0  0  0  0  0
   -2.2967   -2.3879   -5.6449 C   0  0  0  0  0  0  0  0  0  0  0  0
   -2.4948   -1.9772   -6.6240 H   0  0  0  0  0  0  0  0  0  0  0  0
   -2.5880   -3.7338   -5.3642 C   0  0  0  0  0  0  0  0  0  0  0  0
   -3.0133   -4.3680   -6.1303 H   0  0  0  0  0  0  0  0  0  0  0  0
   -2.3315   -4.2539   -4.0824 C   0  0  0  0  0  0  0  0  0  0  0  0
   -2.5648   -5.2877   -3.8684 H   0  0  0  0  0  0  0  0  0  0  0  0
   -1.7805   -3.4371   -3.0747 C   0  0  0  0  0  0  0  0  0  0  0  0
   -1.6009   -3.8457   -2.0904 H   0  0  0  0  0  0  0  0  0  0  0  0
   -1.4711   -2.0830   -3.3267 C   0  0  0  0  0  0  0  0  0  0  0  0
   -1.7617    0.8549   -0.2106 C   0  0  0  0  0  0  0  0  0  0  0  0
   -0.9647    1.7481    0.0736 O   0  0  0  0  0  0  0  0  0  0  0  0
   -2.9978    1.1088   -0.6609 N   0  0  0  0  0  0  0  0  0  0  0  0
   -3.6089    0.3204   -0.8196 H   0  0  0  0  0  0  0  0  0  0  0  0
   -3.5372    2.4497   -0.8689 C   0  0  0  0  0  0  0  0  0  0  0  0
   -2.8498    3.0314   -1.4861 H   0  0  0  0  0  0  0  0  0  0  0  0
   -4.5070    2.3917   -1.3648 H   0  0  0  0  0  0  0  0  0  0  0  0
   -3.6528    2.9508    0.0936 H   0  0  0  0  0  0  0  0  0  0  0  0
  5  6  2  0  0  0  0
  5  7  1  0  0  0  0
  2  3  1  0  0  0  0
  2  4  1  0  0  0  0
  2  5  1  0  0  0  0
  1  2  1  0  0  0  0
 29 30  2  0  0  0  0
 29 31  1  0  0  0  0
 26 27  1  0  0  0  0
 26 28  2  0  0  0  0
 24 25  1  0  0  0  0
 24 26  1  0  0  0  0
 22 23  1  0  0  0  0
 22 24  2  0  0  0  0
 20 21  1  0  0  0  0
 20 22  1  0  0  0  0
 19 20  2  0  0  0  0
 19 28  1  0  0  0  0
 17 18  1  0  0  0  0
 17 19  1  0  0  0  0
 15 16  1  0  0  0  0
 15 17  1  0  0  0  0
 14 15  2  0  0  0  0
 14 28  1  0  0  0  0
 11 12  1  0  0  0  0
 11 13  1  0  0  0  0
 11 14  1  0  0  0  0
  9 10  1  0  0  0  0
  9 11  1  0  0  0  0
  9 29  1  0  0  0  0
  7  8  1  0  0  0  0
  7  9  1  0  0  0  0
 33 34  1  0  0  0  0
 33 35  1  0  0  0  0
 33 36  1  0  0  0  0
 31 32  1  0  0  0  0
 31 33  1  0  0  0  0
M  END
$$$$
default_name
  -OEChem-12212115393D

 36 37  0     1  0  0  0  0  0999 V2000
   -4.0843   -4.0736    1.2944 H   0  0  0  0  0  0  0  0  0  0  0  0
   -4.0342   -3.2816    0.5484 C   0  0  0  0  0  0  0  0  0  0  0  0
   -4.8842   -2.6126    0.6694 H   0  0  0  0  0  0  0  0  0  0  0  0
   -4.0433   -3.7186   -0.4486 H   0  0  0  0  0  0  0  0  0  0  0  0
   -2.7532   -2.5046    0.7444 C   0  0  0  0  0  0  0  0  0  0  0  0
   -1.9803   -2.8096    1.6434 O   0  0  0  0  0  0  0  0  0  0  0  0
   -2.5332   -1.4966   -0.0966 N   0  0  0  0  0  0  0  0  0  0  0  0
   -3.2312   -1.2816   -0.7936 H   0  0  0  0  0  0  0  0  0  0  0  0
   -1.3593   -0.6196   -0.0536 C   0  0  1  0  0  0  0  0  0  0  0  0
   -0.8788   -0.7266    0.9196 H   0  0  0  0  0  0  0  0  0  0  0  0
   -0.3559   -1.0533   -1.1339 C   0  0  0  0  0  0  0  0  0  0  0  0
    0.5234   -0.4093   -1.0760 H   0  0  0  0  0  0  0  0  0  0  0  0
   -0.0329   -2.0733   -0.9185 H   0  0  0  0  0  0  0  0  0  0  0  0
   -0.8733   -1.0058   -2.5396 C   0  0  0  0  0  0  0  0  0  0  0  0
   -0.8304    0.0697   -3.3576 C   0  0  0  0  0  0  0  0  0  0  0  0
   -0.4293    1.0389   -3.0823 H   0  0  0  0  0  0  0  0  0  0  0  0
   -1.3536   -0.2643   -4.5914 N   0  0  0  0  0  0  0  0  0  0  0  0
   -1.4263    0.3860   -5.3601 H   0  0  0  0  0  0  0  0  0  0  0  0
   -1.7469   -1.5850   -4.6352 C   0  0  0  0  0  0  0  0  0  0  0  0
   -2.2967   -2.3879   -5.6449 C   0  0  0  0  0  0  0  0  0  0  0  0
   -2.4948   -1.9772   -6.6240 H   0  0  0  0  0  0  0  0  0  0  0  0
   -2.5880   -3.7338   -5.3642 C   0  0  0  0  0  0  0  0  0  0  0  0
   -3.0133   -4.3680   -6.1303 H   0  0  0  0  0  0  0  0  0  0  0  0
   -2.3315   -4.2539   -4.0824 C   0  0  0  0  0  0  0  0  0  0  0  0
   -2.5648   -5.2877   -3.8684 H   0  0  0  0  0  0  0  0  0  0  0  0
   -1.7805   -3.4371   -3.0747 C   0  0  0  0  0  0  0  0  0  0  0  0
   -1.6009   -3.8457   -2.0904 H   0  0  0  0  0  0  0  0  0  0  0  0
   -1.4711   -2.0830   -3.3267 C   0  0  0  0  0  0  0  0  0  0  0  0
   -1.7617    0.8549   -0.2106 C   0  0  0  0  0  0  0  0  0  0  0  0
   -0.9032    1.7361   -0.1967 O   0  0  0  0  0  0  0  0  0  0  0  0
   -3.0662    1.1224   -0.3579 N   0  0  0  0  0  0  0  0  0  0  0  0
   -3.7117    0.3473   -0.3039 H   0  0  0  0  0  0  0  0  0  0  0  0
   -3.6164    2.4652   -0.5208 C   0  0  0  0  0  0  0  0  0  0  0  0
   -3.0944    2.9814   -1.3286 H   0  0  0  0  0  0  0  0  0  0  0  0
   -4.6801    2.4093   -0.7558 H   0  0  0  0  0  0  0  0  0  0  0  0
   -3.4795    3.0310    0.4023 H   0  0  0  0  0  0  0  0  0  0  0  0
  5  6  2  0  0  0  0
  5  7  1  0  0  0  0
  2  3  1  0  0  0  0
  2  4  1  0  0  0  0
  2  5  1  0  0  0  0
  1  2  1  0  0  0  0
 29 30  2  0  0  0  0
 29 31  1  0  0  0  0
 26 27  1  0  0  0  0
 26 28  2  0  0  0  0
 24 25  1  0  0  0  0
 24 26  1  0  0  0  0
 22 23  1  0  0  0  0
 22 24  2  0  0  0  0
 20 21  1  0  0  0  0
 20 22  1  0  0  0  0
 19 20  2  0  0  0  0
 19 28  1  0  0  0  0
 17 18  1  0  0  0  0
 17 19  1  0  0  0  0
 15 16  1  0  0  0  0
 15 17  1  0  0  0  0
 14 15  2  0  0  0  0
 14 28  1  0  0  0  0
 11 12  1  0  0  0  0
 11 13  1  0  0  0  0
 11 14  1  0  0  0  0
  9 10  1  0  0  0  0
  9 11  1  0  0  0  0
  9 29  1  0  0  0  0
  7  8  1  0  0  0  0
  7  9  1  0  0  0  0
 33 34  1  0  0  0  0
 33 35  1  0  0  0  0
 33 36  1  0  0  0  0
 31 32  1  0  0  0  0
 31 33  1  0  0  0  0
M  END
$$$$
default_name
  -OEChem-12212115393D

 36 37  0     1  0  0  0  0  0999 V2000
   -4.0843   -4.0736    1.2944 H   0  0  0  0  0  0  0  0  0  0  0  0
   -4.0342   -3.2816    0.5484 C   0  0  0  0  0  0  0  0  0  0  0  0
   -4.8842   -2.6126    0.6694 H   0  0  0  0  0  0  0  0  0  0  0  0
   -4.0433   -3.7186   -0.4486 H   0  0  0  0  0  0  0  0  0  0  0  0
   -2.7532   -2.5046    0.7444 C   0  0  0  0  0  0  0  0  0  0  0  0
   -1.9803   -2.8096    1.6434 O   0  0  0  0  0  0  0  0  0  0  0  0
   -2.5332   -1.4966   -0.0966 N   0  0  0  0  0  0  0  0  0  0  0  0
   -3.2312   -1.2816   -0.7936 H   0  0  0  0  0  0  0  0  0  0  0  0
   -1.3593   -0.6196   -0.0536 C   0  0  1  0  0  0  0  0  0  0  0  0
   -0.8788   -0.7266    0.9196 H   0  0  0  0  0  0  0  0  0  0  0  0
   -0.3559   -1.0533   -1.1339 C   0  0  0  0  0  0  0  0  0  0  0  0
    0.5234   -0.4093   -1.0760 H   0  0  0  0  0  0  0  0  0  0  0  0
   -0.0329   -2.0733   -0.9185 H   0  0  0  0  0  0  0  0  0  0  0  0
   -0.8733   -1.0058   -2.5396 C   0  0  0  0  0  0  0  0  0  0  0  0
   -0.8304    0.0697   -3.3576 C   0  0  0  0  0  0  0  0  0  0  0  0
   -0.4293    1.0389   -3.0823 H   0  0  0  0  0  0  0  0  0  0  0  0
   -1.3536   -0.2643   -4.5914 N   0  0  0  0  0  0  0  0  0  0  0  0
   -1.4263    0.3860   -5.3601 H   0  0  0  0  0  0  0  0  0  0  0  0
   -1.7469   -1.5850   -4.6352 C   0  0  0  0  0  0  0  0  0  0  0  0
   -2.2967   -2.3879   -5.6449 C   0  0  0  0  0  0  0  0  0  0  0  0
   -2.4948   -1.9772   -6.6240 H   0  0  0  0  0  0  0  0  0  0  0  0
   -2.5880   -3.7338   -5.3642 C   0  0  0  0  0  0  0  0  0  0  0  0
   -3.0133   -4.3680   -6.1303 H   0  0  0  0  0  0  0  0  0  0  0  0
   -2.3315   -4.2539   -4.0824 C   0  0  0  0  0  0  0  0  0  0  0  0
   -2.5648   -5.2877   -3.8684 H   0  0  0  0  0  0  0  0  0  0  0  0
   -1.7805   -3.4371   -3.0747 C   0  0  0  0  0  0  0  0  0  0  0  0
   -1.6009   -3.8457   -2.0904 H   0  0  0  0  0  0  0  0  0  0  0  0
   -1.4711   -2.0830   -3.3267 C   0  0  0  0  0  0  0  0  0  0  0  0
   -1.7617    0.8549   -0.2106 C   0  0  0  0  0  0  0  0  0  0  0  0
   -0.9112    1.7045   -0.4723 O   0  0  0  0  0  0  0  0  0  0  0  0
   -3.0568    1.1578   -0.0491 N   0  0  0  0  0  0  0  0  0  0  0  0
   -3.6821    0.4109    0.2179 H   0  0  0  0  0  0  0  0  0  0  0  0
   -3.6061    2.5058   -0.1658 C   0  0  0  0  0  0  0  0  0  0  0  0
   -3.2928    2.9503   -1.1124 H   0  0  0  0  0  0  0  0  0  0  0  0
   -4.6956    2.4721   -0.1257 H   0  0  0  0  0  0  0  0  0  0  0  0
   -3.2333    3.1248    0.6519 H   0  0  0  0  0  0  0  0  0  0  0  0
  5  6  2  0  0  0  0
  5  7  1  0  0  0  0
  2  3  1  0  0  0  0
  2  4  1  0  0  0  0
  2  5  1  0  0  0  0
  1  2  1  0  0  0  0
 29 30  2  0  0  0  0
 29 31  1  0  0  0  0
 26 27  1  0  0  0  0
 26 28  2  0  0  0  0
 24 25  1  0  0  0  0
 24 26  1  0  0  0  0
 22 23  1  0  0  0  0
 22 24  2  0  0  0  0
 20 21  1  0  0  0  0
 20 22  1  0  0  0  0
 19 20  2  0  0  0  0
 19 28  1  0  0  0  0
 17 18  1  0  0  0  0
 17 19  1  0  0  0  0
 15 16  1  0  0  0  0
 15 17  1  0  0  0  0
 14 15  2  0  0  0  0
 14 28  1  0  0  0  0
 11 12  1  0  0  0  0
 11 13  1  0  0  0  0
 11 14  1  0  0  0  0
  9 10  1  0  0  0  0
  9 11  1  0  0  0  0
  9 29  1  0  0  0  0
  7  8  1  0  0  0  0
  7  9  1  0  0  0  0
 33 34  1  0  0  0  0
 33 35  1  0  0  0  0
 33 36  1  0  0  0  0
 31 32  1  0  0  0  0
 31 33  1  0  0  0  0
M  END
$$$$
default_name
  -OEChem-12212115393D

 36 37  0     1  0  0  0  0  0999 V2000
   -4.0843   -4.0736    1.2944 H   0  0  0  0  0  0  0  0  0  0  0  0
   -4.0342   -3.2816    0.5484 C   0  0  0  0  0  0  0  0  0  0  0  0
   -4.8842   -2.6126    0.6694 H   0  0  0  0  0  0  0  0  0  0  0  0
   -4.0433   -3.7186   -0.4486 H   0  0  0  0  0  0  0  0  0  0  0  0
   -2.7532   -2.5046    0.7444 C   0  0  0  0  0  0  0  0  0  0  0  0
   -1.9803   -2.8096    1.6434 O   0  0  0  0  0  0  0  0  0  0  0  0
   -2.5332   -1.4966   -0.0966 N   0  0  0  0  0  0  0  0  0  0  0  0
   -3.2312   -1.2816   -0.7936 H   0  0  0  0  0  0  0  0  0  0  0  0
   -1.3593   -0.6196   -0.0536 C   0  0  1  0  0  0  0  0  0  0  0  0
   -0.8788   -0.7266    0.9196 H   0  0  0  0  0  0  0  0  0  0  0  0
   -0.3559   -1.0533   -1.1339 C   0  0  0  0  0  0  0  0  0  0  0  0
    0.5234   -0.4093   -1.0760 H   0  0  0  0  0  0  0  0  0  0  0  0
   -0.0329   -2.0733   -0.9185 H   0  0  0  0  0  0  0  0  0  0  0  0
   -0.8733   -1.0058   -2.5396 C   0  0  0  0  0  0  0  0  0  0  0  0
   -0.8304    0.0697   -3.3576 C   0  0  0  0  0  0  0  0  0  0  0  0
   -0.4293    1.0389   -3.0823 H   0  0  0  0  0  0  0  0  0  0  0  0
   -1.3536   -0.2643   -4.5914 N   0  0  0  0  0  0  0  0  0  0  0  0
   -1.4263    0.3860   -5.3601 H   0  0  0  0  0  0  0  0  0  0  0  0
   -1.7469   -1.5850   -4.6352 C   0  0  0  0  0  0  0  0  0  0  0  0
   -2.2967   -2.3879   -5.6449 C   0  0  0  0  0  0  0  0  0  0  0  0
   -2.4948   -1.9772   -6.6240 H   0  0  0  0  0  0  0  0  0  0  0  0
   -2.5880   -3.7338   -5.3642 C   0  0  0  0  0  0  0  0  0  0  0  0
   -3.0133   -4.3680   -6.1303 H   0  0  0  0  0  0  0  0  0  0  0  0
   -2.3315   -4.2539   -4.0824 C   0  0  0  0  0  0  0  0  0  0  0  0
   -2.5648   -5.2877   -3.8684 H   0  0  0  0  0  0  0  0  0  0  0  0
   -1.7805   -3.4371   -3.0747 C   0  0  0  0  0  0  0  0  0  0  0  0
   -1.6009   -3.8457   -2.0904 H   0  0  0  0  0  0  0  0  0  0  0  0
   -1.4711   -2.0830   -3.3267 C   0  0  0  0  0  0  0  0  0  0  0  0
   -1.7617    0.8549   -0.2106 C   0  0  0  0  0  0  0  0  0  0  0  0
   -0.9883    1.6556   -0.7344 O   0  0  0  0  0  0  0  0  0  0  0  0
   -2.9700    1.2128    0.2444 N   0  0  0  0  0  0  0  0  0  0  0  0
   -3.5223    0.5069    0.7103 H   0  0  0  0  0  0  0  0  0  0  0  0
   -3.5069    2.5688    0.1717 C   0  0  0  0  0  0  0  0  0  0  0  0
   -3.4315    2.9401   -0.8521 H   0  0  0  0  0  0  0  0  0  0  0  0
   -4.5524    2.5759    0.4824 H   0  0  0  0  0  0  0  0  0  0  0  0
   -2.9310    3.2257    0.8256 H   0  0  0  0  0  0  0  0  0  0  0  0
  5  6  2  0  0  0  0
  5  7  1  0  0  0  0
  2  3  1  0  0  0  0
  2  4  1  0  0  0  0
  2  5  1  0  0  0  0
  1  2  1  0  0  0  0
 29 30  2  0  0  0  0
 29 31  1  0  0  0  0
 26 27  1  0  0  0  0
 26 28  2  0  0  0  0
 24 25  1  0  0  0  0
 24 26  1  0  0  0  0
 22 23  1  0  0  0  0
 22 24  2  0  0  0  0
 20 21  1  0  0  0  0
 20 22  1  0  0  0  0
 19 20  2  0  0  0  0
 19 28  1  0  0  0  0
 17 18  1  0  0  0  0
 17 19  1  0  0  0  0
 15 16  1  0  0  0  0
 15 17  1  0  0  0  0
 14 15  2  0  0  0  0
 14 28  1  0  0  0  0
 11 12  1  0  0  0  0
 11 13  1  0  0  0  0
 11 14  1  0  0  0  0
  9 10  1  0  0  0  0
  9 11  1  0  0  0  0
  9 29  1  0  0  0  0
  7  8  1  0  0  0  0
  7  9  1  0  0  0  0
 33 34  1  0  0  0  0
 33 35  1  0  0  0  0
 33 36  1  0  0  0  0
 31 32  1  0  0  0  0
 31 33  1  0  0  0  0
M  END
$$$$
default_name
  -OEChem-12212115393D

 36 37  0     1  0  0  0  0  0999 V2000
   -4.0843   -4.0736    1.2944 H   0  0  0  0  0  0  0  0  0  0  0  0
   -4.0342   -3.2816    0.5484 C   0  0  0  0  0  0  0  0  0  0  0  0
   -4.8842   -2.6126    0.6694 H   0  0  0  0  0  0  0  0  0  0  0  0
   -4.0433   -3.7186   -0.4486 H   0  0  0  0  0  0  0  0  0  0  0  0
   -2.7532   -2.5046    0.7444 C   0  0  0  0  0  0  0  0  0  0  0  0
   -1.9803   -2.8096    1.6434 O   0  0  0  0  0  0  0  0  0  0  0  0
   -2.5332   -1.4966   -0.0966 N   0  0  0  0  0  0  0  0  0  0  0  0
   -3.2312   -1.2816   -0.7936 H   0  0  0  0  0  0  0  0  0  0  0  0
   -1.3593   -0.6196   -0.0536 C   0  0  1  0  0  0  0  0  0  0  0  0
   -0.8788   -0.7266    0.9196 H   0  0  0  0  0  0  0  0  0  0  0  0
   -0.3559   -1.0533   -1.1339 C   0  0  0  0  0  0  0  0  0  0  0  0
    0.5234   -0.4093   -1.0760 H   0  0  0  0  0  0  0  0  0  0  0  0
   -0.0329   -2.0733   -0.9185 H   0  0  0  0  0  0  0  0  0  0  0  0
   -0.8733   -1.0058   -2.5396 C   0  0  0  0  0  0  0  0  0  0  0  0
   -0.8304    0.0697   -3.3576 C   0  0  0  0  0  0  0  0  0  0  0  0
   -0.4293    1.0389   -3.0823 H   0  0  0  0  0  0  0  0  0  0  0  0
   -1.3536   -0.2643   -4.5914 N   0  0  0  0  0  0  0  0  0  0  0  0
   -1.4263    0.3860   -5.3601 H   0  0  0  0  0  0  0  0  0  0  0  0
   -1.7469   -1.5850   -4.6352 C   0  0  0  0  0  0  0  0  0  0  0  0
   -2.2967   -2.3879   -5.6449 C   0  0  0  0  0  0  0  0  0  0  0  0
   -2.4948   -1.9772   -6.6240 H   0  0  0  0  0  0  0  0  0  0  0  0
   -2.5880   -3.7338   -5.3642 C   0  0  0  0  0  0  0  0  0  0  0  0
   -3.0133   -4.3680   -6.1303 H   0  0  0  0  0  0  0  0  0  0  0  0
   -2.3315   -4.2539   -4.0824 C   0  0  0  0  0  0  0  0  0  0  0  0
   -2.5648   -5.2877   -3.8684 H   0  0  0  0  0  0  0  0  0  0  0  0
   -1.7805   -3.4371   -3.0747 C   0  0  0  0  0  0  0  0  0  0  0  0
   -1.6009   -3.8457   -2.0904 H   0  0  0  0  0  0  0  0  0  0  0  0
   -1.4711   -2.0830   -3.3267 C   0  0  0  0  0  0  0  0  0  0  0  0
   -1.7617    0.8549   -0.2106 C   0  0  0  0  0  0  0  0  0  0  0  0
   -1.1291    1.5926   -0.9651 O   0  0  0  0  0  0  0  0  0  0  0  0
   -2.8118    1.2834    0.5027 N   0  0  0  0  0  0  0  0  0  0  0  0
   -3.2431    0.6288    1.1397 H   0  0  0  0  0  0  0  0  0  0  0  0
   -3.3256    2.6499    0.4688 C   0  0  0  0  0  0  0  0  0  0  0  0
   -3.5012    2.9516   -0.5655 H   0  0  0  0  0  0  0  0  0  0  0  0
   -4.2603    2.7136    1.0273 H   0  0  0  0  0  0  0  0  0  0  0  0
   -2.5932    3.3271    0.9114 H   0  0  0  0  0  0  0  0  0  0  0  0
  5  6  2  0  0  0  0
  5  7  1  0  0  0  0
  2  3  1  0  0  0  0
  2  4  1  0  0  0  0
  2  5  1  0  0  0  0
  1  2  1  0  0  0  0
 29 30  2  0  0  0  0
 29 31  1  0  0  0  0
 26 27  1  0  0  0  0
 26 28  2  0  0  0  0
 24 25  1  0  0  0  0
 24 26  1  0  0  0  0
 22 23  1  0  0  0  0
 22 24  2  0  0  0  0
 20 21  1  0  0  0  0
 20 22  1  0  0  0  0
 19 20  2  0  0  0  0
 19 28  1  0  0  0  0
 17 18  1  0  0  0  0
 17 19  1  0  0  0  0
 15 16  1  0  0  0  0
 15 17  1  0  0  0  0
 14 15  2  0  0  0  0
 14 28  1  0  0  0  0
 11 12  1  0  0  0  0
 11 13  1  0  0  0  0
 11 14  1  0  0  0  0
  9 10  1  0  0  0  0
  9 11  1  0  0  0  0
  9 29  1  0  0  0  0
  7  8  1  0  0  0  0
  7  9  1  0  0  0  0
 33 34  1  0  0  0  0
 33 35  1  0  0  0  0
 33 36  1  0  0  0  0
 31 32  1  0  0  0  0
 31 33  1  0  0  0  0
M  END
$$$$
default_name
  -OEChem-12212115393D

 36 37  0     1  0  0  0  0  0999 V2000
   -4.0843   -4.0736    1.2944 H   0  0  0  0  0  0  0  0  0  0  0  0
   -4.0342   -3.2816    0.5484 C   0  0  0  0  0  0  0  0  0  0  0  0
   -4.8842   -2.6126    0.6694 H   0  0  0  0  0  0  0  0  0  0  0  0
   -4.0433   -3.7186   -0.4486 H   0  0  0  0  0  0  0  0  0  0  0  0
   -2.7532   -2.5046    0.7444 C   0  0  0  0  0  0  0  0  0  0  0  0
   -1.9803   -2.8096    1.6434 O   0  0  0  0  0  0  0  0  0  0  0  0
   -2.5332   -1.4966   -0.0966 N   0  0  0  0  0  0  0  0  0  0  0  0
   -3.2312   -1.2816   -0.7936 H   0  0  0  0  0  0  0  0  0  0  0  0
   -1.3593   -0.6196   -0.0536 C   0  0  1  0  0  0  0  0  0  0  0  0
   -0.8788   -0.7266    0.9196 H   0  0  0  0  0  0  0  0  0  0  0  0
   -0.3559   -1.0533   -1.1339 C   0  0  0  0  0  0  0  0  0  0  0  0
    0.5234   -0.4093   -1.0760 H   0  0  0  0  0  0  0  0  0  0  0  0
   -0.0329   -2.0733   -0.9185 H   0  0  0  0  0  0  0  0  0  0  0  0
   -0.8733   -1.0058   -2.5396 C   0  0  0  0  0  0  0  0  0  0  0  0
   -0.8304    0.0697   -3.3576 C   0  0  0  0  0  0  0  0  0  0  0  0
   -0.4293    1.0389   -3.0823 H   0  0  0  0  0  0  0  0  0  0  0  0
   -1.3536   -0.2643   -4.5914 N   0  0  0  0  0  0  0  0  0  0  0  0
   -1.4263    0.3860   -5.3601 H   0  0  0  0  0  0  0  0  0  0  0  0
   -1.7469   -1.5850   -4.6352 C   0  0  0  0  0  0  0  0  0  0  0  0
   -2.2967   -2.3879   -5.6449 C   0  0  0  0  0  0  0  0  0  0  0  0
   -2.4948   -1.9772   -6.6240 H   0  0  0  0  0  0  0  0  0  0  0  0
   -2.5880   -3.7338   -5.3642 C   0  0  0  0  0  0  0  0  0  0  0  0
   -3.0133   -4.3680   -6.1303 H   0  0  0  0  0  0  0  0  0  0  0  0
   -2.3315   -4.2539   -4.0824 C   0  0  0  0  0  0  0  0  0  0  0  0
   -2.5648   -5.2877   -3.8684 H   0  0  0  0  0  0  0  0  0  0  0  0
   -1.7805   -3.4371   -3.0747 C   0  0  0  0  0  0  0  0  0  0  0  0
   -1.6009   -3.8457   -2.0904 H   0  0  0  0  0  0  0  0  0  0  0  0
   -1.4711   -2.0830   -3.3267 C   0  0  0  0  0  0  0  0  0  0  0  0
   -1.7617    0.8549   -0.2106 C   0  0  0  0  0  0  0  0  0  0  0  0
   -1.3241    1.5199   -1.1487 O   0  0  0  0  0  0  0  0  0  0  0  0
   -2.5930    1.3650    0.7080 N   0  0  0  0  0  0  0  0  0  0  0  0
   -2.8635    0.7683    1.4769 H   0  0  0  0  0  0  0  0  0  0  0  0
   -3.0745    2.7436    0.7052 C   0  0  0  0  0  0  0  0  0  0  0  0
   -3.4970    2.9840   -0.2722 H   0  0  0  0  0  0  0  0  0  0  0  0
   -3.8392    2.8759    1.4717 H   0  0  0  0  0  0  0  0  0  0  0  0
   -2.2429    3.4218    0.9035 H   0  0  0  0  0  0  0  0  0  0  0  0
  5  6  2  0  0  0  0
  5  7  1  0  0  0  0
  2  3  1  0  0  0  0
  2  4  1  0  0  0  0
  2  5  1  0  0  0  0
  1  2  1  0  0  0  0
 29 30  2  0  0  0  0
 29 31  1  0  0  0  0
 26 27  1  0  0  0  0
 26 28  2  0  0  0  0
 24 25  1  0  0  0  0
 24 26  1  0  0  0  0
 22 23  1  0  0  0  0
 22 24  2  0  0  0  0
 20 21  1  0  0  0  0
 20 22  1  0  0  0  0
 19 20  2  0  0  0  0
 19 28  1  0  0  0  0
 17 18  1  0  0  0  0
 17 19  1  0  0  0  0
 15 16  1  0  0  0  0
 15 17  1  0  0  0  0
 14 15  2  0  0  0  0
 14 28  1  0  0  0  0
 11 12  1  0  0  0  0
 11 13  1  0  0  0  0
 11 14  1  0  0  0  0
  9 10  1  0  0  0  0
  9 11  1  0  0  0  0
  9 29  1  0  0  0  0
  7  8  1  0  0  0  0
  7  9  1  0  0  0  0
 33 34  1  0  0  0  0
 33 35  1  0  0  0  0
 33 36  1  0  0  0  0
 31 32  1  0  0  0  0
 31 33  1  0  0  0  0
M  END
$$$$
default_name
  -OEChem-12212115393D

 36 37  0     1  0  0  0  0  0999 V2000
   -4.0843   -4.0736    1.2944 H   0  0  0  0  0  0  0  0  0  0  0  0
   -4.0342   -3.2816    0.5484 C   0  0  0  0  0  0  0  0  0  0  0  0
   -4.8842   -2.6126    0.6694 H   0  0  0  0  0  0  0  0  0  0  0  0
   -4.0433   -3.7186   -0.4486 H   0  0  0  0  0  0  0  0  0  0  0  0
   -2.7532   -2.5046    0.7444 C   0  0  0  0  0  0  0  0  0  0  0  0
   -1.9803   -2.8096    1.6434 O   0  0  0  0  0  0  0  0  0  0  0  0
   -2.5332   -1.4966   -0.0966 N   0  0  0  0  0  0  0  0  0  0  0  0
   -3.2312   -1.2816   -0.7936 H   0  0  0  0  0  0  0  0  0  0  0  0
   -1.3593   -0.6196   -0.0536 C   0  0  1  0  0  0  0  0  0  0  0  0
   -0.8788   -0.7266    0.9196 H   0  0  0  0  0  0  0  0  0  0  0  0
   -0.3559   -1.0533   -1.1339 C   0  0  0  0  0  0  0  0  0  0  0  0
    0.5234   -0.4093   -1.0760 H   0  0  0  0  0  0  0  0  0  0  0  0
   -0.0329   -2.0733   -0.9185 H   0  0  0  0  0  0  0  0  0  0  0  0
   -0.8733   -1.0058   -2.5396 C   0  0  0  0  0  0  0  0  0  0  0  0
   -0.8304    0.0697   -3.3576 C   0  0  0  0  0  0  0  0  0  0  0  0
   -0.4293    1.0389   -3.0823 H   0  0  0  0  0  0  0  0  0  0  0  0
   -1.3536   -0.2643   -4.5914 N   0  0  0  0  0  0  0  0  0  0  0  0
   -1.4263    0.3860   -5.3601 H   0  0  0  0  0  0  0  0  0  0  0  0
   -1.7469   -1.5850   -4.6352 C   0  0  0  0  0  0  0  0  0  0  0  0
   -2.2967   -2.3879   -5.6449 C   0  0  0  0  0  0  0  0  0  0  0  0
   -2.4948   -1.9772   -6.6240 H   0  0  0  0  0  0  0  0  0  0  0  0
   -2.5880   -3.7338   -5.3642 C   0  0  0  0  0  0  0  0  0  0  0  0
   -3.0133   -4.3680   -6.1303 H   0  0  0  0  0  0  0  0  0  0  0  0
   -2.3315   -4.2539   -4.0824 C   0  0  0  0  0  0  0  0  0  0  0  0
   -2.5648   -5.2877   -3.8684 H   0  0  0  0  0  0  0  0  0  0  0  0
   -1.7805   -3.4371   -3.0747 C   0  0  0  0  0  0  0  0  0  0  0  0
   -1.6009   -3.8457   -2.0904 H   0  0  0  0  0  0  0  0  0  0  0  0
   -1.4711   -2.0830   -3.3267 C   0  0  0  0  0  0  0  0  0  0  0  0
   -1.7617    0.8549   -0.2106 C   0  0  0  0  0  0  0  0  0  0  0  0
   -1.5599    1.4423   -1.2726 O   0  0  0  0  0  0  0  0  0  0  0  0
   -2.3285    1.4519    0.8465 N   0  0  0  0  0  0  0  0  0  0  0  0
   -2.4094    0.9159    1.6988 H   0  0  0  0  0  0  0  0  0  0  0  0
   -2.7708    2.8435    0.8649 C   0  0  0  0  0  0  0  0  0  0  0  0
   -3.4192    3.0350    0.0079 H   0  0  0  0  0  0  0  0  0  0  0  0
   -3.3178    3.0516    1.7854 H   0  0  0  0  0  0  0  0  0  0  0  0
   -1.9040    3.5035    0.8024 H   0  0  0  0  0  0  0  0  0  0  0  0
  5  6  2  0  0  0  0
  5  7  1  0  0  0  0
  2  3  1  0  0  0  0
  2  4  1  0  0  0  0
  2  5  1  0  0  0  0
  1  2  1  0  0  0  0
 29 30  2  0  0  0  0
 29 31  1  0  0  0  0
 26 27  1  0  0  0  0
 26 28  2  0  0  0  0
 24 25  1  0  0  0  0
 24 26  1  0  0  0  0
 22 23  1  0  0  0  0
 22 24  2  0  0  0  0
 20 21  1  0  0  0  0
 20 22  1  0  0  0  0
 19 20  2  0  0  0  0
 19 28  1  0  0  0  0
 17 18  1  0  0  0  0
 17 19  1  0  0  0  0
 15 16  1  0  0  0  0
 15 17  1  0  0  0  0
 14 15  2  0  0  0  0
 14 28  1  0  0  0  0
 11 12  1  0  0  0  0
 11 13  1  0  0  0  0
 11 14  1  0  0  0  0
  9 10  1  0  0  0  0
  9 11  1  0  0  0  0
  9 29  1  0  0  0  0
  7  8  1  0  0  0  0
  7  9  1  0  0  0  0
 33 34  1  0  0  0  0
 33 35  1  0  0  0  0
 33 36  1  0  0  0  0
 31 32  1  0  0  0  0
 31 33  1  0  0  0  0
M  END
$$$$
default_name
  -OEChem-12212115393D

 36 37  0     1  0  0  0  0  0999 V2000
   -4.0843   -4.0736    1.2944 H   0  0  0  0  0  0  0  0  0  0  0  0
   -4.0342   -3.2816    0.5484 C   0  0  0  0  0  0  0  0  0  0  0  0
   -4.8842   -2.6126    0.6694 H   0  0  0  0  0  0  0  0  0  0  0  0
   -4.0433   -3.7186   -0.4486 H   0  0  0  0  0  0  0  0  0  0  0  0
   -2.7532   -2.5046    0.7444 C   0  0  0  0  0  0  0  0  0  0  0  0
   -1.9803   -2.8096    1.6434 O   0  0  0  0  0  0  0  0  0  0  0  0
   -2.5332   -1.4966   -0.0966 N   0  0  0  0  0  0  0  0  0  0  0  0
   -3.2312   -1.2816   -0.7936 H   0  0  0  0  0  0  0  0  0  0  0  0
   -1.3593   -0.6196   -0.0536 C   0  0  1  0  0  0  0  0  0  0  0  0
   -0.8788   -0.7266    0.9196 H   0  0  0  0  0  0  0  0  0  0  0  0
   -0.3559   -1.0533   -1.1339 C   0  0  0  0  0  0  0  0  0  0  0  0
    0.5234   -0.4093   -1.0760 H   0  0  0  0  0  0  0  0  0  0  0  0
   -0.0329   -2.0733   -0.9185 H   0  0  0  0  0  0  0  0  0  0  0  0
   -0.8733   -1.0058   -2.5396 C   0  0  0  0  0  0  0  0  0  0  0  0
   -0.8304    0.0697   -3.3576 C   0  0  0  0  0  0  0  0  0  0  0  0
   -0.4293    1.0389   -3.0823 H   0  0  0  0  0  0  0  0  0  0  0  0
   -1.3536   -0.2643   -4.5914 N   0  0  0  0  0  0  0  0  0  0  0  0
   -1.4263    0.3860   -5.3601 H   0  0  0  0  0  0  0  0  0  0  0  0
   -1.7469   -1.5850   -4.6352 C   0  0  0  0  0  0  0  0  0  0  0  0
   -2.2967   -2.3879   -5.6449 C   0  0  0  0  0  0  0  0  0  0  0  0
   -2.4948   -1.9772   -6.6240 H   0  0  0  0  0  0  0  0  0  0  0  0
   -2.5880   -3.7338   -5.3642 C   0  0  0  0  0  0  0  0  0  0  0  0
   -3.0133   -4.3680   -6.1303 H   0  0  0  0  0  0  0  0  0  0  0  0
   -2.3315   -4.2539   -4.0824 C   0  0  0  0  0  0  0  0  0  0  0  0
   -2.5648   -5.2877   -3.8684 H   0  0  0  0  0  0  0  0  0  0  0  0
   -1.7805   -3.4371   -3.0747 C   0  0  0  0  0  0  0  0  0  0  0  0
   -1.6009   -3.8457   -2.0904 H   0  0  0  0  0  0  0  0  0  0  0  0
   -1.4711   -2.0830   -3.3267 C   0  0  0  0  0  0  0  0  0  0  0  0
   -1.7617    0.8549   -0.2106 C   0  0  0  0  0  0  0  0  0  0  0  0
   -1.8206    1.3652   -1.3285 O   0  0  0  0  0  0  0  0  0  0  0  0
   -2.0363    1.5383    0.9087 N   0  0  0  0  0  0  0  0  0  0  0  0
   -1.9117    1.0614    1.7904 H   0  0  0  0  0  0  0  0  0  0  0  0
   -2.4351    2.9427    0.9369 C   0  0  0  0  0  0  0  0  0  0  0  0
   -3.2732    3.1013    0.2557 H   0  0  0  0  0  0  0  0  0  0  0  0
   -2.7316    3.2287    1.9469 H   0  0  0  0  0  0  0  0  0  0  0  0
   -1.5996    3.5667    0.6151 H   0  0  0  0  0  0  0  0  0  0  0  0
  5  6  2  0  0  0  0
  5  7  1  0  0  0  0
  2  3  1  0  0  0  0
  2  4  1  0  0  0  0
  2  5  1  0  0  0  0
  1  2  1  0  0  0  0
 29 30  2  0  0  0  0
 29 31  1  0  0  0  0
 26 27  1  0  0  0  0
 26 28  2  0  0  0  0
 24 25  1  0  0  0  0
 24 26  1  0  0  0  0
 22 23  1  0  0  0  0
 22 24  2  0  0  0  0
 20 21  1  0  0  0  0
 20 22  1  0  0  0  0
 19 20  2  0  0  0  0
 19 28  1  0  0  0  0
 17 18  1  0  0  0  0
 17 19  1  0  0  0  0
 15 16  1  0  0  0  0
 15 17  1  0  0  0  0
 14 15  2  0  0  0  0
 14 28  1  0  0  0  0
 11 12  1  0  0  0  0
 11 13  1  0  0  0  0
 11 14  1  0  0  0  0
  9 10  1  0  0  0  0
  9 11  1  0  0  0  0
  9 29  1  0  0  0  0
  7  8  1  0  0  0  0
  7  9  1  0  0  0  0
 33 34  1  0  0  0  0
 33 35  1  0  0  0  0
 33 36  1  0  0  0  0
 31 32  1  0  0  0  0
 31 33  1  0  0  0  0
M  END
$$$$
default_name
  -OEChem-12212115393D

 36 37  0     1  0  0  0  0  0999 V2000
   -4.0843   -4.0736    1.2944 H   0  0  0  0  0  0  0  0  0  0  0  0
   -4.0342   -3.2816    0.5484 C   0  0  0  0  0  0  0  0  0  0  0  0
   -4.8842   -2.6126    0.6694 H   0  0  0  0  0  0  0  0  0  0  0  0
   -4.0433   -3.7186   -0.4486 H   0  0  0  0  0  0  0  0  0  0  0  0
   -2.7532   -2.5046    0.7444 C   0  0  0  0  0  0  0  0  0  0  0  0
   -1.9803   -2.8096    1.6434 O   0  0  0  0  0  0  0  0  0  0  0  0
   -2.5332   -1.4966   -0.0966 N   0  0  0  0  0  0  0  0  0  0  0  0
   -3.2312   -1.2816   -0.7936 H   0  0  0  0  0  0  0  0  0  0  0  0
   -1.3593   -0.6196   -0.0536 C   0  0  1  0  0  0  0  0  0  0  0  0
   -0.8788   -0.7266    0.9196 H   0  0  0  0  0  0  0  0  0  0  0  0
   -0.3559   -1.0533   -1.1339 C   0  0  0  0  0  0  0  0  0  0  0  0
    0.5234   -0.4093   -1.0760 H   0  0  0  0  0  0  0  0  0  0  0  0
   -0.0329   -2.0733   -0.9185 H   0  0  0  0  0  0  0  0  0  0  0  0
   -0.8733   -1.0058   -2.5396 C   0  0  0  0  0  0  0  0  0  0  0  0
   -0.8304    0.0697   -3.3576 C   0  0  0  0  0  0  0  0  0  0  0  0
   -0.4293    1.0389   -3.0823 H   0  0  0  0  0  0  0  0  0  0  0  0
   -1.3536   -0.2643   -4.5914 N   0  0  0  0  0  0  0  0  0  0  0  0
   -1.4263    0.3860   -5.3601 H   0  0  0  0  0  0  0  0  0  0  0  0
   -1.7469   -1.5850   -4.6352 C   0  0  0  0  0  0  0  0  0  0  0  0
   -2.2967   -2.3879   -5.6449 C   0  0  0  0  0  0  0  0  0  0  0  0
   -2.4948   -1.9772   -6.6240 H   0  0  0  0  0  0  0  0  0  0  0  0
   -2.5880   -3.7338   -5.3642 C   0  0  0  0  0  0  0  0  0  0  0  0
   -3.0133   -4.3680   -6.1303 H   0  0  0  0  0  0  0  0  0  0  0  0
   -2.3315   -4.2539   -4.0824 C   0  0  0  0  0  0  0  0  0  0  0  0
   -2.5648   -5.2877   -3.8684 H   0  0  0  0  0  0  0  0  0  0  0  0
   -1.7805   -3.4371   -3.0747 C   0  0  0  0  0  0  0  0  0  0  0  0
   -1.6009   -3.8457   -2.0904 H   0  0  0  0  0  0  0  0  0  0  0  0
   -1.4711   -2.0830   -3.3267 C   0  0  0  0  0  0  0  0  0  0  0  0
   -1.7617    0.8549   -0.2106 C   0  0  0  0  0  0  0  0  0  0  0  0
   -2.0883    1.2939   -1.3125 O   0  0  0  0  0  0  0  0  0  0  0  0
   -1.7364    1.6182    0.8903 N   0  0  0  0  0  0  0  0  0  0  0  0
   -1.4045    1.1951    1.7453 H   0  0  0  0  0  0  0  0  0  0  0  0
   -2.0903    3.0346    0.9164 C   0  0  0  0  0  0  0  0  0  0  0  0
   -3.0688    3.1782    0.4542 H   0  0  0  0  0  0  0  0  0  0  0  0
   -2.1205    3.3953    1.9454 H   0  0  0  0  0  0  0  0  0  0  0  0
   -1.3504    3.6069    0.3543 H   0  0  0  0  0  0  0  0  0  0  0  0
  5  6  2  0  0  0  0
  5  7  1  0  0  0  0
  2  3  1  0  0  0  0
  2  4  1  0  0  0  0
  2  5  1  0  0  0  0
  1  2  1  0  0  0  0
 29 30  2  0  0  0  0
 29 31  1  0  0  0  0
 26 27  1  0  0  0  0
 26 28  2  0  0  0  0
 24 25  1  0  0  0  0
 24 26  1  0  0  0  0
 22 23  1  0  0  0  0
 22 24  2  0  0  0  0
 20 21  1  0  0  0  0
 20 22  1  0  0  0  0
 19 20  2  0  0  0  0
 19 28  1  0  0  0  0
 17 18  1  0  0  0  0
 17 19  1  0  0  0  0
 15 16  1  0  0  0  0
 15 17  1  0  0  0  0
 14 15  2  0  0  0  0
 14 28  1  0  0  0  0
 11 12  1  0  0  0  0
 11 13  1  0  0  0  0
 11 14  1  0  0  0  0
  9 10  1  0  0  0  0
  9 11  1  0  0  0  0
  9 29  1  0  0  0  0
  7  8  1  0  0  0  0
  7  9  1  0  0  0  0
 33 34  1  0  0  0  0
 33 35  1  0  0  0  0
 33 36  1  0  0  0  0
 31 32  1  0  0  0  0
 31 33  1  0  0  0  0
M  END
$$$$
default_name
  -OEChem-12212115393D

 36 37  0     1  0  0  0  0  0999 V2000
   -4.0843   -4.0736    1.2944 H   0  0  0  0  0  0  0  0  0  0  0  0
   -4.0342   -3.2816    0.5484 C   0  0  0  0  0  0  0  0  0  0  0  0
   -4.8842   -2.6126    0.6694 H   0  0  0  0  0  0  0  0  0  0  0  0
   -4.0433   -3.7186   -0.4486 H   0  0  0  0  0  0  0  0  0  0  0  0
   -2.7532   -2.5046    0.7444 C   0  0  0  0  0  0  0  0  0  0  0  0
   -1.9803   -2.8096    1.6434 O   0  0  0  0  0  0  0  0  0  0  0  0
   -2.5332   -1.4966   -0.0966 N   0  0  0  0  0  0  0  0  0  0  0  0
   -3.2312   -1.2816   -0.7936 H   0  0  0  0  0  0  0  0  0  0  0  0
   -1.3593   -0.6196   -0.0536 C   0  0  1  0  0  0  0  0  0  0  0  0
   -0.8788   -0.7266    0.9196 H   0  0  0  0  0  0  0  0  0  0  0  0
   -0.3559   -1.0533   -1.1339 C   0  0  0  0  0  0  0  0  0  0  0  0
    0.5234   -0.4093   -1.0760 H   0  0  0  0  0  0  0  0  0  0  0  0
   -0.0329   -2.0733   -0.9185 H   0  0  0  0  0  0  0  0  0  0  0  0
   -0.8733   -1.0058   -2.5396 C   0  0  0  0  0  0  0  0  0  0  0  0
   -0.8304    0.0697   -3.3576 C   0  0  0  0  0  0  0  0  0  0  0  0
   -0.4293    1.0389   -3.0823 H   0  0  0  0  0  0  0  0  0  0  0  0
   -1.3536   -0.2643   -4.5914 N   0  0  0  0  0  0  0  0  0  0  0  0
   -1.4263    0.3860   -5.3601 H   0  0  0  0  0  0  0  0  0  0  0  0
   -1.7469   -1.5850   -4.6352 C   0  0  0  0  0  0  0  0  0  0  0  0
   -2.2967   -2.3879   -5.6449 C   0  0  0  0  0  0  0  0  0  0  0  0
   -2.4948   -1.9772   -6.6240 H   0  0  0  0  0  0  0  0  0  0  0  0
   -2.5880   -3.7338   -5.3642 C   0  0  0  0  0  0  0  0  0  0  0  0
   -3.0133   -4.3680   -6.1303 H   0  0  0  0  0  0  0  0  0  0  0  0
   -2.3315   -4.2539   -4.0824 C   0  0  0  0  0  0  0  0  0  0  0  0
   -2.5648   -5.2877   -3.8684 H   0  0  0  0  0  0  0  0  0  0  0  0
   -1.7805   -3.4371   -3.0747 C   0  0  0  0  0  0  0  0  0  0  0  0
   -1.6009   -3.8457   -2.0904 H   0  0  0  0  0  0  0  0  0  0  0  0
   -1.4711   -2.0830   -3.3267 C   0  0  0  0  0  0  0  0  0  0  0  0
   -1.7617    0.8549   -0.2106 C   0  0  0  0  0  0  0  0  0  0  0  0
   -2.3448    1.2331   -1.2258 O   0  0  0  0  0  0  0  0  0  0  0  0
   -1.4491    1.6862    0.7927 N   0  0  0  0  0  0  0  0  0  0  0  0
   -0.9221    1.3077    1.5668 H   0  0  0  0  0  0  0  0  0  0  0  0
   -1.7600    3.1129    0.8047 C   0  0  0  0  0  0  0  0  0  0  0  0
   -2.8201    3.2605    0.5901 H   0  0  0  0  0  0  0  0  0  0  0  0
   -1.5262    3.5400    1.7808 H   0  0  0  0  0  0  0  0  0  0  0  0
   -1.1735    3.6215    0.0378 H   0  0  0  0  0  0  0  0  0  0  0  0
  5  6  2  0  0  0  0
  5  7  1  0  0  0  0
  2  3  1  0  0  0  0
  2  4  1  0  0  0  0
  2  5  1  0  0  0  0
  1  2  1  0  0  0  0
 29 30  2  0  0  0  0
 29 31  1  0  0  0  0
 26 27  1  0  0  0  0
 26 28  2  0  0  0  0
 24 25  1  0  0  0  0
 24 26  1  0  0  0  0
 22 23  1  0  0  0  0
 22 24  2  0  0  0  0
 20 21  1  0  0  0  0
 20 22  1  0  0  0  0
 19 20  2  0  0  0  0
 19 28  1  0  0  0  0
 17 18  1  0  0  0  0
 17 19  1  0  0  0  0
 15 16  1  0  0  0  0
 15 17  1  0  0  0  0
 14 15  2  0  0  0  0
 14 28  1  0  0  0  0
 11 12  1  0  0  0  0
 11 13  1  0  0  0  0
 11 14  1  0  0  0  0
  9 10  1  0  0  0  0
  9 11  1  0  0  0  0
  9 29  1  0  0  0  0
  7  8  1  0  0  0  0
  7  9  1  0  0  0  0
 33 34  1  0  0  0  0
 33 35  1  0  0  0  0
 33 36  1  0  0  0  0
 31 32  1  0  0  0  0
 31 33  1  0  0  0  0
M  END
$$$$
default_name
  -OEChem-12212115393D

 36 37  0     1  0  0  0  0  0999 V2000
   -4.0843   -4.0736    1.2944 H   0  0  0  0  0  0  0  0  0  0  0  0
   -4.0342   -3.2816    0.5484 C   0  0  0  0  0  0  0  0  0  0  0  0
   -4.8842   -2.6126    0.6694 H   0  0  0  0  0  0  0  0  0  0  0  0
   -4.0433   -3.7186   -0.4486 H   0  0  0  0  0  0  0  0  0  0  0  0
   -2.7532   -2.5046    0.7444 C   0  0  0  0  0  0  0  0  0  0  0  0
   -1.9803   -2.8096    1.6434 O   0  0  0  0  0  0  0  0  0  0  0  0
   -2.5332   -1.4966   -0.0966 N   0  0  0  0  0  0  0  0  0  0  0  0
   -3.2312   -1.2816   -0.7936 H   0  0  0  0  0  0  0  0  0  0  0  0
   -1.3593   -0.6196   -0.0536 C   0  0  1  0  0  0  0  0  0  0  0  0
   -0.8788   -0.7266    0.9196 H   0  0  0  0  0  0  0  0  0  0  0  0
   -0.3559   -1.0533   -1.1339 C   0  0  0  0  0  0  0  0  0  0  0  0
    0.5234   -0.4093   -1.0760 H   0  0  0  0  0  0  0  0  0  0  0  0
   -0.0329   -2.0733   -0.9185 H   0  0  0  0  0  0  0  0  0  0  0  0
   -0.8733   -1.0058   -2.5396 C   0  0  0  0  0  0  0  0  0  0  0  0
   -0.8304    0.0697   -3.3576 C   0  0  0  0  0  0  0  0  0  0  0  0
   -0.4293    1.0389   -3.0823 H   0  0  0  0  0  0  0  0  0  0  0  0
   -1.3536   -0.2643   -4.5914 N   0  0  0  0  0  0  0  0  0  0  0  0
   -1.4263    0.3860   -5.3601 H   0  0  0  0  0  0  0  0  0  0  0  0
   -1.7469   -1.5850   -4.6352 C   0  0  0  0  0  0  0  0  0  0  0  0
   -2.2967   -2.3879   -5.6449 C   0  0  0  0  0  0  0  0  0  0  0  0
   -2.4948   -1.9772   -6.6240 H   0  0  0  0  0  0  0  0  0  0  0  0
   -2.5880   -3.7338   -5.3642 C   0  0  0  0  0  0  0  0  0  0  0  0
   -3.0133   -4.3680   -6.1303 H   0  0  0  0  0  0  0  0  0  0  0  0
   -2.3315   -4.2539   -4.0824 C   0  0  0  0  0  0  0  0  0  0  0  0
   -2.5648   -5.2877   -3.8684 H   0  0  0  0  0  0  0  0  0  0  0  0
   -1.7805   -3.4371   -3.0747 C   0  0  0  0  0  0  0  0  0  0  0  0
   -1.6009   -3.8457   -2.0904 H   0  0  0  0  0  0  0  0  0  0  0  0
   -1.4711   -2.0830   -3.3267 C   0  0  0  0  0  0  0  0  0  0  0  0
   -1.7617    0.8549   -0.2106 C   0  0  0  0  0  0  0  0  0  0  0  0
   -2.5726    1.1871   -1.0741 O   0  0  0  0  0  0  0  0  0  0  0  0
   -1.1941    1.7377    0.6223 N   0  0  0  0  0  0  0  0  0  0  0  0
   -0.4976    1.3916    1.2669 H   0  0  0  0  0  0  0  0  0  0  0  0
   -1.4666    3.1722    0.6095 C   0  0  0  0  0  0  0  0  0  0  0  0
   -2.5439    3.3427    0.6539 H   0  0  0  0  0  0  0  0  0  0  0  0
   -0.9893    3.6529    1.4644 H   0  0  0  0  0  0  0  0  0  0  0  0
   -1.0808    3.6095   -0.3129 H   0  0  0  0  0  0  0  0  0  0  0  0
  5  6  2  0  0  0  0
  5  7  1  0  0  0  0
  2  3  1  0  0  0  0
  2  4  1  0  0  0  0
  2  5  1  0  0  0  0
  1  2  1  0  0  0  0
 29 30  2  0  0  0  0
 29 31  1  0  0  0  0
 26 27  1  0  0  0  0
 26 28  2  0  0  0  0
 24 25  1  0  0  0  0
 24 26  1  0  0  0  0
 22 23  1  0  0  0  0
 22 24  2  0  0  0  0
 20 21  1  0  0  0  0
 20 22  1  0  0  0  0
 19 20  2  0  0  0  0
 19 28  1  0  0  0  0
 17 18  1  0  0  0  0
 17 19  1  0  0  0  0
 15 16  1  0  0  0  0
 15 17  1  0  0  0  0
 14 15  2  0  0  0  0
 14 28  1  0  0  0  0
 11 12  1  0  0  0  0
 11 13  1  0  0  0  0
 11 14  1  0  0  0  0
  9 10  1  0  0  0  0
  9 11  1  0  0  0  0
  9 29  1  0  0  0  0
  7  8  1  0  0  0  0
  7  9  1  0  0  0  0
 33 34  1  0  0  0  0
 33 35  1  0  0  0  0
 33 36  1  0  0  0  0
 31 32  1  0  0  0  0
 31 33  1  0  0  0  0
M  END
$$$$
default_name
  -OEChem-12212115393D

 36 37  0     1  0  0  0  0  0999 V2000
   -4.0843   -4.0736    1.2944 H   0  0  0  0  0  0  0  0  0  0  0  0
   -4.0342   -3.2816    0.5484 C   0  0  0  0  0  0  0  0  0  0  0  0
   -4.8842   -2.6126    0.6694 H   0  0  0  0  0  0  0  0  0  0  0  0
   -4.0433   -3.7186   -0.4486 H   0  0  0  0  0  0  0  0  0  0  0  0
   -2.7532   -2.5046    0.7444 C   0  0  0  0  0  0  0  0  0  0  0  0
   -1.9803   -2.8096    1.6434 O   0  0  0  0  0  0  0  0  0  0  0  0
   -2.5332   -1.4966   -0.0966 N   0  0  0  0  0  0  0  0  0  0  0  0
   -3.2312   -1.2816   -0.7936 H   0  0  0  0  0  0  0  0  0  0  0  0
   -1.3593   -0.6196   -0.0536 C   0  0  1  0  0  0  0  0  0  0  0  0
   -0.8788   -0.7266    0.9196 H   0  0  0  0  0  0  0  0  0  0  0  0
   -0.3559   -1.0533   -1.1339 C   0  0  0  0  0  0  0  0  0  0  0  0
    0.5234   -0.4093   -1.0760 H   0  0  0  0  0  0  0  0  0  0  0  0
   -0.0329   -2.0733   -0.9185 H   0  0  0  0  0  0  0  0  0  0  0  0
   -0.8733   -1.0058   -2.5396 C   0  0  0  0  0  0  0  0  0  0  0  0
   -0.8304    0.0697   -3.3576 C   0  0  0  0  0  0  0  0  0  0  0  0
   -0.4293    1.0389   -3.0823 H   0  0  0  0  0  0  0  0  0  0  0  0
   -1.3536   -0.2643   -4.5914 N   0  0  0  0  0  0  0  0  0  0  0  0
   -1.4263    0.3860   -5.3601 H   0  0  0  0  0  0  0  0  0  0  0  0
   -1.7469   -1.5850   -4.6352 C   0  0  0  0  0  0  0  0  0  0  0  0
   -2.2967   -2.3879   -5.6449 C   0  0  0  0  0  0  0  0  0  0  0  0
   -2.4948   -1.9772   -6.6240 H   0  0  0  0  0  0  0  0  0  0  0  0
   -2.5880   -3.7338   -5.3642 C   0  0  0  0  0  0  0  0  0  0  0  0
   -3.0133   -4.3680   -6.1303 H   0  0  0  0  0  0  0  0  0  0  0  0
   -2.3315   -4.2539   -4.0824 C   0  0  0  0  0  0  0  0  0  0  0  0
   -2.5648   -5.2877   -3.8684 H   0  0  0  0  0  0  0  0  0  0  0  0
   -1.7805   -3.4371   -3.0747 C   0  0  0  0  0  0  0  0  0  0  0  0
   -1.6009   -3.8457   -2.0904 H   0  0  0  0  0  0  0  0  0  0  0  0
   -1.4711   -2.0830   -3.3267 C   0  0  0  0  0  0  0  0  0  0  0  0
   -1.7617    0.8549   -0.2106 C   0  0  0  0  0  0  0  0  0  0  0  0
   -2.7562    1.1589   -0.8680 O   0  0  0  0  0  0  0  0  0  0  0  0
   -0.9887    1.7691    0.3910 N   0  0  0  0  0  0  0  0  0  0  0  0
   -0.1598    1.4412    0.8661 H   0  0  0  0  0  0  0  0  0  0  0  0
   -1.2301    3.2085    0.3440 C   0  0  0  0  0  0  0  0  0  0  0  0
   -2.2591    3.4191    0.6414 H   0  0  0  0  0  0  0  0  0  0  0  0
   -0.5462    3.7262    1.0178 H   0  0  0  0  0  0  0  0  0  0  0  0
   -1.0787    3.5716   -0.6739 H   0  0  0  0  0  0  0  0  0  0  0  0
  5  6  2  0  0  0  0
  5  7  1  0  0  0  0
  2  3  1  0  0  0  0
  2  4  1  0  0  0  0
  2  5  1  0  0  0  0
  1  2  1  0  0  0  0
 29 30  2  0  0  0  0
 29 31  1  0  0  0  0
 26 27  1  0  0  0  0
 26 28  2  0  0  0  0
 24 25  1  0  0  0  0
 24 26  1  0  0  0  0
 22 23  1  0  0  0  0
 22 24  2  0  0  0  0
 20 21  1  0  0  0  0
 20 22  1  0  0  0  0
 19 20  2  0  0  0  0
 19 28  1  0  0  0  0
 17 18  1  0  0  0  0
 17 19  1  0  0  0  0
 15 16  1  0  0  0  0
 15 17  1  0  0  0  0
 14 15  2  0  0  0  0
 14 28  1  0  0  0  0
 11 12  1  0  0  0  0
 11 13  1  0  0  0  0
 11 14  1  0  0  0  0
  9 10  1  0  0  0  0
  9 11  1  0  0  0  0
  9 29  1  0  0  0  0
  7  8  1  0  0  0  0
  7  9  1  0  0  0  0
 33 34  1  0  0  0  0
 33 35  1  0  0  0  0
 33 36  1  0  0  0  0
 31 32  1  0  0  0  0
 31 33  1  0  0  0  0
M  END
$$$$
default_name
  -OEChem-12212115393D

 36 37  0     1  0  0  0  0  0999 V2000
   -4.0843   -4.0736    1.2944 H   0  0  0  0  0  0  0  0  0  0  0  0
   -4.0342   -3.2816    0.5484 C   0  0  0  0  0  0  0  0  0  0  0  0
   -4.8842   -2.6126    0.6694 H   0  0  0  0  0  0  0  0  0  0  0  0
   -4.0433   -3.7186   -0.4486 H   0  0  0  0  0  0  0  0  0  0  0  0
   -2.7532   -2.5046    0.7444 C   0  0  0  0  0  0  0  0  0  0  0  0
   -1.9803   -2.8096    1.6434 O   0  0  0  0  0  0  0  0  0  0  0  0
   -2.5332   -1.4966   -0.0966 N   0  0  0  0  0  0  0  0  0  0  0  0
   -3.2312   -1.2816   -0.7936 H   0  0  0  0  0  0  0  0  0  0  0  0
   -1.3593   -0.6196   -0.0536 C   0  0  1  0  0  0  0  0  0  0  0  0
   -0.8788   -0.7266    0.9196 H   0  0  0  0  0  0  0  0  0  0  0  0
   -0.3559   -1.0533   -1.1339 C   0  0  0  0  0  0  0  0  0  0  0  0
    0.5234   -0.4093   -1.0760 H   0  0  0  0  0  0  0  0  0  0  0  0
   -0.0329   -2.0733   -0.9185 H   0  0  0  0  0  0  0  0  0  0  0  0
   -0.8733   -1.0058   -2.5396 C   0  0  0  0  0  0  0  0  0  0  0  0
   -0.8304    0.0697   -3.3576 C   0  0  0  0  0  0  0  0  0  0  0  0
   -0.4293    1.0389   -3.0823 H   0  0  0  0  0  0  0  0  0  0  0  0
   -1.3536   -0.2643   -4.5914 N   0  0  0  0  0  0  0  0  0  0  0  0
   -1.4263    0.3860   -5.3601 H   0  0  0  0  0  0  0  0  0  0  0  0
   -1.7469   -1.5850   -4.6352 C   0  0  0  0  0  0  0  0  0  0  0  0
   -2.2967   -2.3879   -5.6449 C   0  0  0  0  0  0  0  0  0  0  0  0
   -2.4948   -1.9772   -6.6240 H   0  0  0  0  0  0  0  0  0  0  0  0
   -2.5880   -3.7338   -5.3642 C   0  0  0  0  0  0  0  0  0  0  0  0
   -3.0133   -4.3680   -6.1303 H   0  0  0  0  0  0  0  0  0  0  0  0
   -2.3315   -4.2539   -4.0824 C   0  0  0  0  0  0  0  0  0  0  0  0
   -2.5648   -5.2877   -3.8684 H   0  0  0  0  0  0  0  0  0  0  0  0
   -1.7805   -3.4371   -3.0747 C   0  0  0  0  0  0  0  0  0  0  0  0
   -1.6009   -3.8457   -2.0904 H   0  0  0  0  0  0  0  0  0  0  0  0
   -1.4711   -2.0830   -3.3267 C   0  0  0  0  0  0  0  0  0  0  0  0
   -1.7617    0.8549   -0.2106 C   0  0  0  0  0  0  0  0  0  0  0  0
   -2.8831    1.1505   -0.6213 O   0  0  0  0  0  0  0  0  0  0  0  0
   -0.8469    1.7783    0.1144 N   0  0  0  0  0  0  0  0  0  0  0  0
    0.0683    1.4529    0.3917 H   0  0  0  0  0  0  0  0  0  0  0  0
   -1.0666    3.2193    0.0263 C   0  0  0  0  0  0  0  0  0  0  0  0
   -1.9851    3.4845    0.5534 H   0  0  0  0  0  0  0  0  0  0  0  0
   -0.2272    3.7551    0.4713 H   0  0  0  0  0  0  0  0  0  0  0  0
   -1.1673    3.5105   -1.0205 H   0  0  0  0  0  0  0  0  0  0  0  0
  5  6  2  0  0  0  0
  5  7  1  0  0  0  0
  2  3  1  0  0  0  0
  2  4  1  0  0  0  0
  2  5  1  0  0  0  0
  1  2  1  0  0  0  0
 29 30  2  0  0  0  0
 29 31  1  0  0  0  0
 26 27  1  0  0  0  0
 26 28  2  0  0  0  0
 24 25  1  0  0  0  0
 24 26  1  0  0  0  0
 22 23  1  0  0  0  0
 22 24  2  0  0  0  0
 20 21  1  0  0  0  0
 20 22  1  0  0  0  0
 19 20  2  0  0  0  0
 19 28  1  0  0  0  0
 17 18  1  0  0  0  0
 17 19  1  0  0  0  0
 15 16  1  0  0  0  0
 15 17  1  0  0  0  0
 14 15  2  0  0  0  0
 14 28  1  0  0  0  0
 11 12  1  0  0  0  0
 11 13  1  0  0  0  0
 11 14  1  0  0  0  0
  9 10  1  0  0  0  0
  9 11  1  0  0  0  0
  9 29  1  0  0  0  0
  7  8  1  0  0  0  0
  7  9  1  0  0  0  0
 33 34  1  0  0  0  0
 33 35  1  0  0  0  0
 33 36  1  0  0  0  0
 31 32  1  0  0  0  0
 31 33  1  0  0  0  0
M  END
$$$$
default_name
  -OEChem-12212115393D

 36 37  0     1  0  0  0  0  0999 V2000
   -4.0843   -4.0736    1.2944 H   0  0  0  0  0  0  0  0  0  0  0  0
   -4.0342   -3.2816    0.5484 C   0  0  0  0  0  0  0  0  0  0  0  0
   -4.8842   -2.6126    0.6694 H   0  0  0  0  0  0  0  0  0  0  0  0
   -4.0433   -3.7186   -0.4486 H   0  0  0  0  0  0  0  0  0  0  0  0
   -2.7532   -2.5046    0.7444 C   0  0  0  0  0  0  0  0  0  0  0  0
   -1.9803   -2.8096    1.6434 O   0  0  0  0  0  0  0  0  0  0  0  0
   -2.5332   -1.4966   -0.0966 N   0  0  0  0  0  0  0  0  0  0  0  0
   -3.2312   -1.2816   -0.7936 H   0  0  0  0  0  0  0  0  0  0  0  0
   -1.3593   -0.6196   -0.0536 C   0  0  1  0  0  0  0  0  0  0  0  0
   -0.7341   -0.9139    0.7903 H   0  0  0  0  0  0  0  0  0  0  0  0
   -0.5400   -0.7966   -1.3418 C   0  0  0  0  0  0  0  0  0  0  0  0
    0.3431   -0.1576   -1.2874 H   0  0  0  0  0  0  0  0  0  0  0  0
   -0.1964   -1.8310   -1.3955 H   0  0  0  0  0  0  0  0  0  0  0  0
   -1.2695   -0.4719   -2.6101 C   0  0  0  0  0  0  0  0  0  0  0  0
   -1.3450    0.7501   -3.1833 C   0  0  0  0  0  0  0  0  0  0  0  0
   -0.8975    1.6508   -2.7777 H   0  0  0  0  0  0  0  0  0  0  0  0
   -2.0568    0.6659   -4.3639 N   0  0  0  0  0  0  0  0  0  0  0  0
   -2.2426    1.4591   -4.9601 H   0  0  0  0  0  0  0  0  0  0  0  0
   -2.4637   -0.6262   -4.6202 C   0  0  0  0  0  0  0  0  0  0  0  0
   -3.1709   -1.2161   -5.6777 C   0  0  0  0  0  0  0  0  0  0  0  0
   -3.5153   -0.6167   -6.5076 H   0  0  0  0  0  0  0  0  0  0  0  0
   -3.4266   -2.5975   -5.6415 C   0  0  0  0  0  0  0  0  0  0  0  0
   -3.9715   -3.0697   -6.4478 H   0  0  0  0  0  0  0  0  0  0  0  0
   -2.9783   -3.3650   -4.5509 C   0  0  0  0  0  0  0  0  0  0  0  0
   -3.1846   -4.4261   -4.5231 H   0  0  0  0  0  0  0  0  0  0  0  0
   -2.2702   -2.7612   -3.4926 C   0  0  0  0  0  0  0  0  0  0  0  0
   -1.9431   -3.3600   -2.6544 H   0  0  0  0  0  0  0  0  0  0  0  0
   -1.9919   -1.3772   -3.5022 C   0  0  0  0  0  0  0  0  0  0  0  0
   -1.7683    0.8455    0.1633 C   0  0  0  0  0  0  0  0  0  0  0  0
   -2.9559    1.1471    0.2738 O   0  0  0  0  0  0  0  0  0  0  0  0
   -0.7857    1.7544    0.2221 N   0  0  0  0  0  0  0  0  0  0  0  0
    0.1592    1.4324    0.0679 H   0  0  0  0  0  0  0  0  0  0  0  0
   -1.0003    3.1845    0.4248 C   0  0  0  0  0  0  0  0  0  0  0  0
   -1.6297    3.3415    1.3028 H   0  0  0  0  0  0  0  0  0  0  0  0
   -0.0451    3.6908    0.5699 H   0  0  0  0  0  0  0  0  0  0  0  0
   -1.5040    3.6058   -0.4468 H   0  0  0  0  0  0  0  0  0  0  0  0
  5  6  2  0  0  0  0
  5  7  1  0  0  0  0
  2  3  1  0  0  0  0
  2  4  1  0  0  0  0
  2  5  1  0  0  0  0
  1  2  1  0  0  0  0
 29 30  2  0  0  0  0
 29 31  1  0  0  0  0
 26 27  1  0  0  0  0
 26 28  2  0  0  0  0
 24 25  1  0  0  0  0
 24 26  1  0  0  0  0
 22 23  1  0  0  0  0
 22 24  2  0  0  0  0
 20 21  1  0  0  0  0
 20 22  1  0  0  0  0
 19 20  2  0  0  0  0
 19 28  1  0  0  0  0
 17 18  1  0  0  0  0
 17 19  1  0  0  0  0
 15 16  1  0  0  0  0
 15 17  1  0  0  0  0
 14 15  2  0  0  0  0
 14 28  1  0  0  0  0
 11 12  1  0  0  0  0
 11 13  1  0  0  0  0
 11 14  1  0  0  0  0
  9 10  1  0  0  0  0
  9 11  1  0  0  0  0
  9 29  1  0  0  0  0
  7  8  1  0  0  0  0
  7  9  1  0  0  0  0
 33 34  1  0  0  0  0
 33 35  1  0  0  0  0
 33 36  1  0  0  0  0
 31 32  1  0  0  0  0
 31 33  1  0  0  0  0
M  END
$$$$
default_name
  -OEChem-12212115393D

 36 37  0     1  0  0  0  0  0999 V2000
   -4.0843   -4.0736    1.2944 H   0  0  0  0  0  0  0  0  0  0  0  0
   -4.0342   -3.2816    0.5484 C   0  0  0  0  0  0  0  0  0  0  0  0
   -4.8842   -2.6126    0.6694 H   0  0  0  0  0  0  0  0  0  0  0  0
   -4.0433   -3.7186   -0.4486 H   0  0  0  0  0  0  0  0  0  0  0  0
   -2.7532   -2.5046    0.7444 C   0  0  0  0  0  0  0  0  0  0  0  0
   -1.9803   -2.8096    1.6434 O   0  0  0  0  0  0  0  0  0  0  0  0
   -2.5332   -1.4966   -0.0966 N   0  0  0  0  0  0  0  0  0  0  0  0
   -3.2312   -1.2816   -0.7936 H   0  0  0  0  0  0  0  0  0  0  0  0
   -1.3593   -0.6196   -0.0536 C   0  0  1  0  0  0  0  0  0  0  0  0
   -0.7341   -0.9139    0.7903 H   0  0  0  0  0  0  0  0  0  0  0  0
   -0.5400   -0.7966   -1.3418 C   0  0  0  0  0  0  0  0  0  0  0  0
    0.3431   -0.1576   -1.2874 H   0  0  0  0  0  0  0  0  0  0  0  0
   -0.1964   -1.8310   -1.3955 H   0  0  0  0  0  0  0  0  0  0  0  0
   -1.2695   -0.4719   -2.6101 C   0  0  0  0  0  0  0  0  0  0  0  0
   -1.3450    0.7501   -3.1833 C   0  0  0  0  0  0  0  0  0  0  0  0
   -0.8975    1.6508   -2.7777 H   0  0  0  0  0  0  0  0  0  0  0  0
   -2.0568    0.6659   -4.3639 N   0  0  0  0  0  0  0  0  0  0  0  0
   -2.2426    1.4591   -4.9601 H   0  0  0  0  0  0  0  0  0  0  0  0
   -2.4637   -0.6262   -4.6202 C   0  0  0  0  0  0  0  0  0  0  0  0
   -3.1709   -1.2161   -5.6777 C   0  0  0  0  0  0  0  0  0  0  0  0
   -3.5153   -0.6167   -6.5076 H   0  0  0  0  0  0  0  0  0  0  0  0
   -3.4266   -2.5975   -5.6415 C   0  0  0  0  0  0  0  0  0  0  0  0
   -3.9715   -3.0697   -6.4478 H   0  0  0  0  0  0  0  0  0  0  0  0
   -2.9783   -3.3650   -4.5509 C   0  0  0  0  0  0  0  0  0  0  0  0
   -3.1846   -4.4261   -4.5231 H   0  0  0  0  0  0  0  0  0  0  0  0
   -2.2702   -2.7612   -3.4926 C   0  0  0  0  0  0  0  0  0  0  0  0
   -1.9431   -3.3600   -2.6544 H   0  0  0  0  0  0  0  0  0  0  0  0
   -1.9919   -1.3772   -3.5022 C   0  0  0  0  0  0  0  0  0  0  0  0
   -1.7683    0.8455    0.1633 C   0  0  0  0  0  0  0  0  0  0  0  0
   -2.9048    1.1212    0.5453 O   0  0  0  0  0  0  0  0  0  0  0  0
   -0.8434    1.7833   -0.0820 N   0  0  0  0  0  0  0  0  0  0  0  0
    0.0483    1.4773   -0.4448 H   0  0  0  0  0  0  0  0  0  0  0  0
   -1.0661    3.2179    0.0751 C   0  0  0  0  0  0  0  0  0  0  0  0
   -1.4671    3.4214    1.0698 H   0  0  0  0  0  0  0  0  0  0  0  0
   -0.1284    3.7599   -0.0542 H   0  0  0  0  0  0  0  0  0  0  0  0
   -1.7868    3.5598   -0.6695 H   0  0  0  0  0  0  0  0  0  0  0  0
  5  6  2  0  0  0  0
  5  7  1  0  0  0  0
  2  3  1  0  0  0  0
  2  4  1  0  0  0  0
  2  5  1  0  0  0  0
  1  2  1  0  0  0  0
 29 30  2  0  0  0  0
 29 31  1  0  0  0  0
 26 27  1  0  0  0  0
 26 28  2  0  0  0  0
 24 25  1  0  0  0  0
 24 26  1  0  0  0  0
 22 23  1  0  0  0  0
 22 24  2  0  0  0  0
 20 21  1  0  0  0  0
 20 22  1  0  0  0  0
 19 20  2  0  0  0  0
 19 28  1  0  0  0  0
 17 18  1  0  0  0  0
 17 19  1  0  0  0  0
 15 16  1  0  0  0  0
 15 17  1  0  0  0  0
 14 15  2  0  0  0  0
 14 28  1  0  0  0  0
 11 12  1  0  0  0  0
 11 13  1  0  0  0  0
 11 14  1  0  0  0  0
  9 10  1  0  0  0  0
  9 11  1  0  0  0  0
  9 29  1  0  0  0  0
  7  8  1  0  0  0  0
  7  9  1  0  0  0  0
 33 34  1  0  0  0  0
 33 35  1  0  0  0  0
 33 36  1  0  0  0  0
 31 32  1  0  0  0  0
 31 33  1  0  0  0  0
M  END
$$$$
default_name
  -OEChem-12212115393D

 36 37  0     1  0  0  0  0  0999 V2000
   -4.0843   -4.0736    1.2944 H   0  0  0  0  0  0  0  0  0  0  0  0
   -4.0342   -3.2816    0.5484 C   0  0  0  0  0  0  0  0  0  0  0  0
   -4.8842   -2.6126    0.6694 H   0  0  0  0  0  0  0  0  0  0  0  0
   -4.0433   -3.7186   -0.4486 H   0  0  0  0  0  0  0  0  0  0  0  0
   -2.7532   -2.5046    0.7444 C   0  0  0  0  0  0  0  0  0  0  0  0
   -1.9803   -2.8096    1.6434 O   0  0  0  0  0  0  0  0  0  0  0  0
   -2.5332   -1.4966   -0.0966 N   0  0  0  0  0  0  0  0  0  0  0  0
   -3.2312   -1.2816   -0.7936 H   0  0  0  0  0  0  0  0  0  0  0  0
   -1.3593   -0.6196   -0.0536 C   0  0  1  0  0  0  0  0  0  0  0  0
   -0.7341   -0.9139    0.7903 H   0  0  0  0  0  0  0  0  0  0  0  0
   -0.5400   -0.7966   -1.3418 C   0  0  0  0  0  0  0  0  0  0  0  0
    0.3431   -0.1576   -1.2874 H   0  0  0  0  0  0  0  0  0  0  0  0
   -0.1964   -1.8310   -1.3955 H   0  0  0  0  0  0  0  0  0  0  0  0
   -1.2695   -0.4719   -2.6101 C   0  0  0  0  0  0  0  0  0  0  0  0
   -1.3450    0.7501   -3.1833 C   0  0  0  0  0  0  0  0  0  0  0  0
   -0.8975    1.6508   -2.7777 H   0  0  0  0  0  0  0  0  0  0  0  0
   -2.0568    0.6659   -4.3639 N   0  0  0  0  0  0  0  0  0  0  0  0
   -2.2426    1.4591   -4.9601 H   0  0  0  0  0  0  0  0  0  0  0  0
   -2.4637   -0.6262   -4.6202 C   0  0  0  0  0  0  0  0  0  0  0  0
   -3.1709   -1.2161   -5.6777 C   0  0  0  0  0  0  0  0  0  0  0  0
   -3.5153   -0.6167   -6.5076 H   0  0  0  0  0  0  0  0  0  0  0  0
   -3.4266   -2.5975   -5.6415 C   0  0  0  0  0  0  0  0  0  0  0  0
   -3.9715   -3.0697   -6.4478 H   0  0  0  0  0  0  0  0  0  0  0  0
   -2.9783   -3.3650   -4.5509 C   0  0  0  0  0  0  0  0  0  0  0  0
   -3.1846   -4.4261   -4.5231 H   0  0  0  0  0  0  0  0  0  0  0  0
   -2.2702   -2.7612   -3.4926 C   0  0  0  0  0  0  0  0  0  0  0  0
   -1.9431   -3.3600   -2.6544 H   0  0  0  0  0  0  0  0  0  0  0  0
   -1.9919   -1.3772   -3.5022 C   0  0  0  0  0  0  0  0  0  0  0  0
   -1.7683    0.8455    0.1633 C   0  0  0  0  0  0  0  0  0  0  0  0
   -2.7875    1.1167    0.7968 O   0  0  0  0  0  0  0  0  0  0  0  0
   -0.9753    1.7882   -0.3636 N   0  0  0  0  0  0  0  0  0  0  0  0
   -0.1871    1.4813   -0.9158 H   0  0  0  0  0  0  0  0  0  0  0  0
   -1.2171    3.2237   -0.2488 C   0  0  0  0  0  0  0  0  0  0  0  0
   -1.3704    3.4885    0.7991 H   0  0  0  0  0  0  0  0  0  0  0  0
   -0.3654    3.7806   -0.6412 H   0  0  0  0  0  0  0  0  0  0  0  0
   -2.1133    3.4897   -0.8117 H   0  0  0  0  0  0  0  0  0  0  0  0
  5  6  2  0  0  0  0
  5  7  1  0  0  0  0
  2  3  1  0  0  0  0
  2  4  1  0  0  0  0
  2  5  1  0  0  0  0
  1  2  1  0  0  0  0
 29 30  2  0  0  0  0
 29 31  1  0  0  0  0
 26 27  1  0  0  0  0
 26 28  2  0  0  0  0
 24 25  1  0  0  0  0
 24 26  1  0  0  0  0
 22 23  1  0  0  0  0
 22 24  2  0  0  0  0
 20 21  1  0  0  0  0
 20 22  1  0  0  0  0
 19 20  2  0  0  0  0
 19 28  1  0  0  0  0
 17 18  1  0  0  0  0
 17 19  1  0  0  0  0
 15 16  1  0  0  0  0
 15 17  1  0  0  0  0
 14 15  2  0  0  0  0
 14 28  1  0  0  0  0
 11 12  1  0  0  0  0
 11 13  1  0  0  0  0
 11 14  1  0  0  0  0
  9 10  1  0  0  0  0
  9 11  1  0  0  0  0
  9 29  1  0  0  0  0
  7  8  1  0  0  0  0
  7  9  1  0  0  0  0
 33 34  1  0  0  0  0
 33 35  1  0  0  0  0
 33 36  1  0  0  0  0
 31 32  1  0  0  0  0
 31 33  1  0  0  0  0
M  END
$$$$
default_name
  -OEChem-12212115393D

 36 37  0     1  0  0  0  0  0999 V2000
   -4.0843   -4.0736    1.2944 H   0  0  0  0  0  0  0  0  0  0  0  0
   -4.0342   -3.2816    0.5484 C   0  0  0  0  0  0  0  0  0  0  0  0
   -4.8842   -2.6126    0.6694 H   0  0  0  0  0  0  0  0  0  0  0  0
   -4.0433   -3.7186   -0.4486 H   0  0  0  0  0  0  0  0  0  0  0  0
   -2.7532   -2.5046    0.7444 C   0  0  0  0  0  0  0  0  0  0  0  0
   -1.9803   -2.8096    1.6434 O   0  0  0  0  0  0  0  0  0  0  0  0
   -2.5332   -1.4966   -0.0966 N   0  0  0  0  0  0  0  0  0  0  0  0
   -3.2312   -1.2816   -0.7936 H   0  0  0  0  0  0  0  0  0  0  0  0
   -1.3593   -0.6196   -0.0536 C   0  0  1  0  0  0  0  0  0  0  0  0
   -0.7341   -0.9139    0.7903 H   0  0  0  0  0  0  0  0  0  0  0  0
   -0.5400   -0.7966   -1.3418 C   0  0  0  0  0  0  0  0  0  0  0  0
    0.3431   -0.1576   -1.2874 H   0  0  0  0  0  0  0  0  0  0  0  0
   -0.1964   -1.8310   -1.3955 H   0  0  0  0  0  0  0  0  0  0  0  0
   -1.2695   -0.4719   -2.6101 C   0  0  0  0  0  0  0  0  0  0  0  0
   -1.3450    0.7501   -3.1833 C   0  0  0  0  0  0  0  0  0  0  0  0
   -0.8975    1.6508   -2.7777 H   0  0  0  0  0  0  0  0  0  0  0  0
   -2.0568    0.6659   -4.3639 N   0  0  0  0  0  0  0  0  0  0  0  0
   -2.2426    1.4591   -4.9601 H   0  0  0  0  0  0  0  0  0  0  0  0
   -2.4637   -0.6262   -4.6202 C   0  0  0  0  0  0  0  0  0  0  0  0
   -3.1709   -1.2161   -5.6777 C   0  0  0  0  0  0  0  0  0  0  0  0
   -3.5153   -0.6167   -6.5076 H   0  0  0  0  0  0  0  0  0  0  0  0
   -3.4266   -2.5975   -5.6415 C   0  0  0  0  0  0  0  0  0  0  0  0
   -3.9715   -3.0697   -6.4478 H   0  0  0  0  0  0  0  0  0  0  0  0
   -2.9783   -3.3650   -4.5509 C   0  0  0  0  0  0  0  0  0  0  0  0
   -3.1846   -4.4261   -4.5231 H   0  0  0  0  0  0  0  0  0  0  0  0
   -2.2702   -2.7612   -3.4926 C   0  0  0  0  0  0  0  0  0  0  0  0
   -1.9431   -3.3600   -2.6544 H   0  0  0  0  0  0  0  0  0  0  0  0
   -1.9919   -1.3772   -3.5022 C   0  0  0  0  0  0  0  0  0  0  0  0
   -1.7683    0.8455    0.1633 C   0  0  0  0  0  0  0  0  0  0  0  0
   -2.6119    1.1340    1.0110 O   0  0  0  0  0  0  0  0  0  0  0  0
   -1.1723    1.7686   -0.6034 N   0  0  0  0  0  0  0  0  0  0  0  0
   -0.5308    1.4442   -1.3129 H   0  0  0  0  0  0  0  0  0  0  0  0
   -1.4432    3.2014   -0.5247 C   0  0  0  0  0  0  0  0  0  0  0  0
   -1.3463    3.5381    0.5092 H   0  0  0  0  0  0  0  0  0  0  0  0
   -0.7399    3.7515   -1.1512 H   0  0  0  0  0  0  0  0  0  0  0  0
   -2.4612    3.4003   -0.8636 H   0  0  0  0  0  0  0  0  0  0  0  0
  5  6  2  0  0  0  0
  5  7  1  0  0  0  0
  2  3  1  0  0  0  0
  2  4  1  0  0  0  0
  2  5  1  0  0  0  0
  1  2  1  0  0  0  0
 29 30  2  0  0  0  0
 29 31  1  0  0  0  0
 26 27  1  0  0  0  0
 26 28  2  0  0  0  0
 24 25  1  0  0  0  0
 24 26  1  0  0  0  0
 22 23  1  0  0  0  0
 22 24  2  0  0  0  0
 20 21  1  0  0  0  0
 20 22  1  0  0  0  0
 19 20  2  0  0  0  0
 19 28  1  0  0  0  0
 17 18  1  0  0  0  0
 17 19  1  0  0  0  0
 15 16  1  0  0  0  0
 15 17  1  0  0  0  0
 14 15  2  0  0  0  0
 14 28  1  0  0  0  0
 11 12  1  0  0  0  0
 11 13  1  0  0  0  0
 11 14  1  0  0  0  0
  9 10  1  0  0  0  0
  9 11  1  0  0  0  0
  9 29  1  0  0  0  0
  7  8  1  0  0  0  0
  7  9  1  0  0  0  0
 33 34  1  0  0  0  0
 33 35  1  0  0  0  0
 33 36  1  0  0  0  0
 31 32  1  0  0  0  0
 31 33  1  0  0  0  0
M  END
$$$$
default_name
  -OEChem-12212115393D

 36 37  0     1  0  0  0  0  0999 V2000
   -4.0843   -4.0736    1.2944 H   0  0  0  0  0  0  0  0  0  0  0  0
   -4.0342   -3.2816    0.5484 C   0  0  0  0  0  0  0  0  0  0  0  0
   -4.8842   -2.6126    0.6694 H   0  0  0  0  0  0  0  0  0  0  0  0
   -4.0433   -3.7186   -0.4486 H   0  0  0  0  0  0  0  0  0  0  0  0
   -2.7532   -2.5046    0.7444 C   0  0  0  0  0  0  0  0  0  0  0  0
   -1.9803   -2.8096    1.6434 O   0  0  0  0  0  0  0  0  0  0  0  0
   -2.5332   -1.4966   -0.0966 N   0  0  0  0  0  0  0  0  0  0  0  0
   -3.2312   -1.2816   -0.7936 H   0  0  0  0  0  0  0  0  0  0  0  0
   -1.3593   -0.6196   -0.0536 C   0  0  1  0  0  0  0  0  0  0  0  0
   -0.7341   -0.9139    0.7903 H   0  0  0  0  0  0  0  0  0  0  0  0
   -0.5400   -0.7966   -1.3418 C   0  0  0  0  0  0  0  0  0  0  0  0
    0.3431   -0.1576   -1.2874 H   0  0  0  0  0  0  0  0  0  0  0  0
   -0.1964   -1.8310   -1.3955 H   0  0  0  0  0  0  0  0  0  0  0  0
   -1.2695   -0.4719   -2.6101 C   0  0  0  0  0  0  0  0  0  0  0  0
   -1.3450    0.7501   -3.1833 C   0  0  0  0  0  0  0  0  0  0  0  0
   -0.8975    1.6508   -2.7777 H   0  0  0  0  0  0  0  0  0  0  0  0
   -2.0568    0.6659   -4.3639 N   0  0  0  0  0  0  0  0  0  0  0  0
   -2.2426    1.4591   -4.9601 H   0  0  0  0  0  0  0  0  0  0  0  0
   -2.4637   -0.6262   -4.6202 C   0  0  0  0  0  0  0  0  0  0  0  0
   -3.1709   -1.2161   -5.6777 C   0  0  0  0  0  0  0  0  0  0  0  0
   -3.5153   -0.6167   -6.5076 H   0  0  0  0  0  0  0  0  0  0  0  0
   -3.4266   -2.5975   -5.6415 C   0  0  0  0  0  0  0  0  0  0  0  0
   -3.9715   -3.0697   -6.4478 H   0  0  0  0  0  0  0  0  0  0  0  0
   -2.9783   -3.3650   -4.5509 C   0  0  0  0  0  0  0  0  0  0  0  0
   -3.1846   -4.4261   -4.5231 H   0  0  0  0  0  0  0  0  0  0  0  0
   -2.2702   -2.7612   -3.4926 C   0  0  0  0  0  0  0  0  0  0  0  0
   -1.9431   -3.3600   -2.6544 H   0  0  0  0  0  0  0  0  0  0  0  0
   -1.9919   -1.3772   -3.5022 C   0  0  0  0  0  0  0  0  0  0  0  0
   -1.7683    0.8455    0.1633 C   0  0  0  0  0  0  0  0  0  0  0  0
   -2.3901    1.1719    1.1734 O   0  0  0  0  0  0  0  0  0  0  0  0
   -1.4211    1.7261   -0.7850 N   0  0  0  0  0  0  0  0  0  0  0  0
   -0.9594    1.3683   -1.6091 H   0  0  0  0  0  0  0  0  0  0  0  0
   -1.7288    3.1526   -0.7339 C   0  0  0  0  0  0  0  0  0  0  0  0
   -1.3964    3.5670    0.2198 H   0  0  0  0  0  0  0  0  0  0  0  0
   -1.2264    3.6746   -1.5493 H   0  0  0  0  0  0  0  0  0  0  0  0
   -2.8068    3.2976   -0.8218 H   0  0  0  0  0  0  0  0  0  0  0  0
  5  6  2  0  0  0  0
  5  7  1  0  0  0  0
  2  3  1  0  0  0  0
  2  4  1  0  0  0  0
  2  5  1  0  0  0  0
  1  2  1  0  0  0  0
 29 30  2  0  0  0  0
 29 31  1  0  0  0  0
 26 27  1  0  0  0  0
 26 28  2  0  0  0  0
 24 25  1  0  0  0  0
 24 26  1  0  0  0  0
 22 23  1  0  0  0  0
 22 24  2  0  0  0  0
 20 21  1  0  0  0  0
 20 22  1  0  0  0  0
 19 20  2  0  0  0  0
 19 28  1  0  0  0  0
 17 18  1  0  0  0  0
 17 19  1  0  0  0  0
 15 16  1  0  0  0  0
 15 17  1  0  0  0  0
 14 15  2  0  0  0  0
 14 28  1  0  0  0  0
 11 12  1  0  0  0  0
 11 13  1  0  0  0  0
 11 14  1  0  0  0  0
  9 10  1  0  0  0  0
  9 11  1  0  0  0  0
  9 29  1  0  0  0  0
  7  8  1  0  0  0  0
  7  9  1  0  0  0  0
 33 34  1  0  0  0  0
 33 35  1  0  0  0  0
 33 36  1  0  0  0  0
 31 32  1  0  0  0  0
 31 33  1  0  0  0  0
M  END
$$$$
default_name
  -OEChem-12212115393D

 36 37  0     1  0  0  0  0  0999 V2000
   -4.0843   -4.0736    1.2944 H   0  0  0  0  0  0  0  0  0  0  0  0
   -4.0342   -3.2816    0.5484 C   0  0  0  0  0  0  0  0  0  0  0  0
   -4.8842   -2.6126    0.6694 H   0  0  0  0  0  0  0  0  0  0  0  0
   -4.0433   -3.7186   -0.4486 H   0  0  0  0  0  0  0  0  0  0  0  0
   -2.7532   -2.5046    0.7444 C   0  0  0  0  0  0  0  0  0  0  0  0
   -1.9803   -2.8096    1.6434 O   0  0  0  0  0  0  0  0  0  0  0  0
   -2.5332   -1.4966   -0.0966 N   0  0  0  0  0  0  0  0  0  0  0  0
   -3.2312   -1.2816   -0.7936 H   0  0  0  0  0  0  0  0  0  0  0  0
   -1.3593   -0.6196   -0.0536 C   0  0  1  0  0  0  0  0  0  0  0  0
   -0.7341   -0.9139    0.7903 H   0  0  0  0  0  0  0  0  0  0  0  0
   -0.5400   -0.7966   -1.3418 C   0  0  0  0  0  0  0  0  0  0  0  0
    0.3431   -0.1576   -1.2874 H   0  0  0  0  0  0  0  0  0  0  0  0
   -0.1964   -1.8310   -1.3955 H   0  0  0  0  0  0  0  0  0  0  0  0
   -1.2695   -0.4719   -2.6101 C   0  0  0  0  0  0  0  0  0  0  0  0
   -1.3450    0.7501   -3.1833 C   0  0  0  0  0  0  0  0  0  0  0  0
   -0.8975    1.6508   -2.7777 H   0  0  0  0  0  0  0  0  0  0  0  0
   -2.0568    0.6659   -4.3639 N   0  0  0  0  0  0  0  0  0  0  0  0
   -2.2426    1.4591   -4.9601 H   0  0  0  0  0  0  0  0  0  0  0  0
   -2.4637   -0.6262   -4.6202 C   0  0  0  0  0  0  0  0  0  0  0  0
   -3.1709   -1.2161   -5.6777 C   0  0  0  0  0  0  0  0  0  0  0  0
   -3.5153   -0.6167   -6.5076 H   0  0  0  0  0  0  0  0  0  0  0  0
   -3.4266   -2.5975   -5.6415 C   0  0  0  0  0  0  0  0  0  0  0  0
   -3.9715   -3.0697   -6.4478 H   0  0  0  0  0  0  0  0  0  0  0  0
   -2.9783   -3.3650   -4.5509 C   0  0  0  0  0  0  0  0  0  0  0  0
   -3.1846   -4.4261   -4.5231 H   0  0  0  0  0  0  0  0  0  0  0  0
   -2.2702   -2.7612   -3.4926 C   0  0  0  0  0  0  0  0  0  0  0  0
   -1.9431   -3.3600   -2.6544 H   0  0  0  0  0  0  0  0  0  0  0  0
   -1.9919   -1.3772   -3.5022 C   0  0  0  0  0  0  0  0  0  0  0  0
   -1.7683    0.8455    0.1633 C   0  0  0  0  0  0  0  0  0  0  0  0
   -2.1372    1.2278    1.2730 O   0  0  0  0  0  0  0  0  0  0  0  0
   -1.7047    1.6633   -0.8961 N   0  0  0  0  0  0  0  0  0  0  0  0
   -1.4438    1.2590   -1.7842 H   0  0  0  0  0  0  0  0  0  0  0  0
   -2.0546    3.0806   -0.8621 C   0  0  0  0  0  0  0  0  0  0  0  0
   -1.5172    3.5731   -0.0494 H   0  0  0  0  0  0  0  0  0  0  0  0
   -1.7918    3.5551   -1.8085 H   0  0  0  0  0  0  0  0  0  0  0  0
   -3.1266    3.1887   -0.6889 H   0  0  0  0  0  0  0  0  0  0  0  0
  5  6  2  0  0  0  0
  5  7  1  0  0  0  0
  2  3  1  0  0  0  0
  2  4  1  0  0  0  0
  2  5  1  0  0  0  0
  1  2  1  0  0  0  0
 29 30  2  0  0  0  0
 29 31  1  0  0  0  0
 26 27  1  0  0  0  0
 26 28  2  0  0  0  0
 24 25  1  0  0  0  0
 24 26  1  0  0  0  0
 22 23  1  0  0  0  0
 22 24  2  0  0  0  0
 20 21  1  0  0  0  0
 20 22  1  0  0  0  0
 19 20  2  0  0  0  0
 19 28  1  0  0  0  0
 17 18  1  0  0  0  0
 17 19  1  0  0  0  0
 15 16  1  0  0  0  0
 15 17  1  0  0  0  0
 14 15  2  0  0  0  0
 14 28  1  0  0  0  0
 11 12  1  0  0  0  0
 11 13  1  0  0  0  0
 11 14  1  0  0  0  0
  9 10  1  0  0  0  0
  9 11  1  0  0  0  0
  9 29  1  0  0  0  0
  7  8  1  0  0  0  0
  7  9  1  0  0  0  0
 33 34  1  0  0  0  0
 33 35  1  0  0  0  0
 33 36  1  0  0  0  0
 31 32  1  0  0  0  0
 31 33  1  0  0  0  0
M  END
$$$$
default_name
  -OEChem-12212115393D

 36 37  0     1  0  0  0  0  0999 V2000
   -4.0843   -4.0736    1.2944 H   0  0  0  0  0  0  0  0  0  0  0  0
   -4.0342   -3.2816    0.5484 C   0  0  0  0  0  0  0  0  0  0  0  0
   -4.8842   -2.6126    0.6694 H   0  0  0  0  0  0  0  0  0  0  0  0
   -4.0433   -3.7186   -0.4486 H   0  0  0  0  0  0  0  0  0  0  0  0
   -2.7532   -2.5046    0.7444 C   0  0  0  0  0  0  0  0  0  0  0  0
   -1.9803   -2.8096    1.6434 O   0  0  0  0  0  0  0  0  0  0  0  0
   -2.5332   -1.4966   -0.0966 N   0  0  0  0  0  0  0  0  0  0  0  0
   -3.2312   -1.2816   -0.7936 H   0  0  0  0  0  0  0  0  0  0  0  0
   -1.3593   -0.6196   -0.0536 C   0  0  1  0  0  0  0  0  0  0  0  0
   -0.7341   -0.9139    0.7903 H   0  0  0  0  0  0  0  0  0  0  0  0
   -0.5400   -0.7966   -1.3418 C   0  0  0  0  0  0  0  0  0  0  0  0
    0.3431   -0.1576   -1.2874 H   0  0  0  0  0  0  0  0  0  0  0  0
   -0.1964   -1.8310   -1.3955 H   0  0  0  0  0  0  0  0  0  0  0  0
   -1.2695   -0.4719   -2.6101 C   0  0  0  0  0  0  0  0  0  0  0  0
   -1.3450    0.7501   -3.1833 C   0  0  0  0  0  0  0  0  0  0  0  0
   -0.8975    1.6508   -2.7777 H   0  0  0  0  0  0  0  0  0  0  0  0
   -2.0568    0.6659   -4.3639 N   0  0  0  0  0  0  0  0  0  0  0  0
   -2.2426    1.4591   -4.9601 H   0  0  0  0  0  0  0  0  0  0  0  0
   -2.4637   -0.6262   -4.6202 C   0  0  0  0  0  0  0  0  0  0  0  0
   -3.1709   -1.2161   -5.6777 C   0  0  0  0  0  0  0  0  0  0  0  0
   -3.5153   -0.6167   -6.5076 H   0  0  0  0  0  0  0  0  0  0  0  0
   -3.4266   -2.5975   -5.6415 C   0  0  0  0  0  0  0  0  0  0  0  0
   -3.9715   -3.0697   -6.4478 H   0  0  0  0  0  0  0  0  0  0  0  0
   -2.9783   -3.3650   -4.5509 C   0  0  0  0  0  0  0  0  0  0  0  0
   -3.1846   -4.4261   -4.5231 H   0  0  0  0  0  0  0  0  0  0  0  0
   -2.2702   -2.7612   -3.4926 C   0  0  0  0  0  0  0  0  0  0  0  0
   -1.9431   -3.3600   -2.6544 H   0  0  0  0  0  0  0  0  0  0  0  0
   -1.9919   -1.3772   -3.5022 C   0  0  0  0  0  0  0  0  0  0  0  0
   -1.7683    0.8455    0.1633 C   0  0  0  0  0  0  0  0  0  0  0  0
   -1.8703    1.2979    1.3028 O   0  0  0  0  0  0  0  0  0  0  0  0
   -2.0037    1.5847   -0.9291 N   0  0  0  0  0  0  0  0  0  0  0  0
   -1.9509    1.1237   -1.8263 H   0  0  0  0  0  0  0  0  0  0  0  0
   -2.3982    2.9904   -0.9006 C   0  0  0  0  0  0  0  0  0  0  0  0
   -1.7006    3.5560   -0.2800 H   0  0  0  0  0  0  0  0  0  0  0  0
   -2.3976    3.4012   -1.9111 H   0  0  0  0  0  0  0  0  0  0  0  0
   -3.3987    3.0809   -0.4742 H   0  0  0  0  0  0  0  0  0  0  0  0
  5  6  2  0  0  0  0
  5  7  1  0  0  0  0
  2  3  1  0  0  0  0
  2  4  1  0  0  0  0
  2  5  1  0  0  0  0
  1  2  1  0  0  0  0
 29 30  2  0  0  0  0
 29 31  1  0  0  0  0
 26 27  1  0  0  0  0
 26 28  2  0  0  0  0
 24 25  1  0  0  0  0
 24 26  1  0  0  0  0
 22 23  1  0  0  0  0
 22 24  2  0  0  0  0
 20 21  1  0  0  0  0
 20 22  1  0  0  0  0
 19 20  2  0  0  0  0
 19 28  1  0  0  0  0
 17 18  1  0  0  0  0
 17 19  1  0  0  0  0
 15 16  1  0  0  0  0
 15 17  1  0  0  0  0
 14 15  2  0  0  0  0
 14 28  1  0  0  0  0
 11 12  1  0  0  0  0
 11 13  1  0  0  0  0
 11 14  1  0  0  0  0
  9 10  1  0  0  0  0
  9 11  1  0  0  0  0
  9 29  1  0  0  0  0
  7  8  1  0  0  0  0
  7  9  1  0  0  0  0
 33 34  1  0  0  0  0
 33 35  1  0  0  0  0
 33 36  1  0  0  0  0
 31 32  1  0  0  0  0
 31 33  1  0  0  0  0
M  END
$$$$
default_name
  -OEChem-12212115393D

 36 37  0     1  0  0  0  0  0999 V2000
   -4.0843   -4.0736    1.2944 H   0  0  0  0  0  0  0  0  0  0  0  0
   -4.0342   -3.2816    0.5484 C   0  0  0  0  0  0  0  0  0  0  0  0
   -4.8842   -2.6126    0.6694 H   0  0  0  0  0  0  0  0  0  0  0  0
   -4.0433   -3.7186   -0.4486 H   0  0  0  0  0  0  0  0  0  0  0  0
   -2.7532   -2.5046    0.7444 C   0  0  0  0  0  0  0  0  0  0  0  0
   -1.9803   -2.8096    1.6434 O   0  0  0  0  0  0  0  0  0  0  0  0
   -2.5332   -1.4966   -0.0966 N   0  0  0  0  0  0  0  0  0  0  0  0
   -3.2312   -1.2816   -0.7936 H   0  0  0  0  0  0  0  0  0  0  0  0
   -1.3593   -0.6196   -0.0536 C   0  0  1  0  0  0  0  0  0  0  0  0
   -0.7341   -0.9139    0.7903 H   0  0  0  0  0  0  0  0  0  0  0  0
   -0.5400   -0.7966   -1.3418 C   0  0  0  0  0  0  0  0  0  0  0  0
    0.3431   -0.1576   -1.2874 H   0  0  0  0  0  0  0  0  0  0  0  0
   -0.1964   -1.8310   -1.3955 H   0  0  0  0  0  0  0  0  0  0  0  0
   -1.2695   -0.4719   -2.6101 C   0  0  0  0  0  0  0  0  0  0  0  0
   -1.3450    0.7501   -3.1833 C   0  0  0  0  0  0  0  0  0  0  0  0
   -0.8975    1.6508   -2.7777 H   0  0  0  0  0  0  0  0  0  0  0  0
   -2.0568    0.6659   -4.3639 N   0  0  0  0  0  0  0  0  0  0  0  0
   -2.2426    1.4591   -4.9601 H   0  0  0  0  0  0  0  0  0  0  0  0
   -2.4637   -0.6262   -4.6202 C   0  0  0  0  0  0  0  0  0  0  0  0
   -3.1709   -1.2161   -5.6777 C   0  0  0  0  0  0  0  0  0  0  0  0
   -3.5153   -0.6167   -6.5076 H   0  0  0  0  0  0  0  0  0  0  0  0
   -3.4266   -2.5975   -5.6415 C   0  0  0  0  0  0  0  0  0  0  0  0
   -3.9715   -3.0697   -6.4478 H   0  0  0  0  0  0  0  0  0  0  0  0
   -2.9783   -3.3650   -4.5509 C   0  0  0  0  0  0  0  0  0  0  0  0
   -3.1846   -4.4261   -4.5231 H   0  0  0  0  0  0  0  0  0  0  0  0
   -2.2702   -2.7612   -3.4926 C   0  0  0  0  0  0  0  0  0  0  0  0
   -1.9431   -3.3600   -2.6544 H   0  0  0  0  0  0  0  0  0  0  0  0
   -1.9919   -1.3772   -3.5022 C   0  0  0  0  0  0  0  0  0  0  0  0
   -1.7683    0.8455    0.1633 C   0  0  0  0  0  0  0  0  0  0  0  0
   -1.6078    1.3774    1.2610 O   0  0  0  0  0  0  0  0  0  0  0  0
   -2.2979    1.4956   -0.8818 N   0  0  0  0  0  0  0  0  0  0  0  0
   -2.4461    0.9715   -1.7324 H   0  0  0  0  0  0  0  0  0  0  0  0
   -2.7364    2.8880   -0.8468 C   0  0  0  0  0  0  0  0  0  0  0  0
   -1.9341    3.5169   -0.4563 H   0  0  0  0  0  0  0  0  0  0  0  0
   -3.0024    3.2233   -1.8501 H   0  0  0  0  0  0  0  0  0  0  0  0
   -3.6045    2.9817   -0.1923 H   0  0  0  0  0  0  0  0  0  0  0  0
  5  6  2  0  0  0  0
  5  7  1  0  0  0  0
  2  3  1  0  0  0  0
  2  4  1  0  0  0  0
  2  5  1  0  0  0  0
  1  2  1  0  0  0  0
 29 30  2  0  0  0  0
 29 31  1  0  0  0  0
 26 27  1  0  0  0  0
 26 28  2  0  0  0  0
 24 25  1  0  0  0  0
 24 26  1  0  0  0  0
 22 23  1  0  0  0  0
 22 24  2  0  0  0  0
 20 21  1  0  0  0  0
 20 22  1  0  0  0  0
 19 20  2  0  0  0  0
 19 28  1  0  0  0  0
 17 18  1  0  0  0  0
 17 19  1  0  0  0  0
 15 16  1  0  0  0  0
 15 17  1  0  0  0  0
 14 15  2  0  0  0  0
 14 28  1  0  0  0  0
 11 12  1  0  0  0  0
 11 13  1  0  0  0  0
 11 14  1  0  0  0  0
  9 10  1  0  0  0  0
  9 11  1  0  0  0  0
  9 29  1  0  0  0  0
  7  8  1  0  0  0  0
  7  9  1  0  0  0  0
 33 34  1  0  0  0  0
 33 35  1  0  0  0  0
 33 36  1  0  0  0  0
 31 32  1  0  0  0  0
 31 33  1  0  0  0  0
M  END
$$$$
default_name
  -OEChem-12212115393D

 36 37  0     1  0  0  0  0  0999 V2000
   -4.0843   -4.0736    1.2944 H   0  0  0  0  0  0  0  0  0  0  0  0
   -4.0342   -3.2816    0.5484 C   0  0  0  0  0  0  0  0  0  0  0  0
   -4.8842   -2.6126    0.6694 H   0  0  0  0  0  0  0  0  0  0  0  0
   -4.0433   -3.7186   -0.4486 H   0  0  0  0  0  0  0  0  0  0  0  0
   -2.7532   -2.5046    0.7444 C   0  0  0  0  0  0  0  0  0  0  0  0
   -1.9803   -2.8096    1.6434 O   0  0  0  0  0  0  0  0  0  0  0  0
   -2.5332   -1.4966   -0.0966 N   0  0  0  0  0  0  0  0  0  0  0  0
   -3.2312   -1.2816   -0.7936 H   0  0  0  0  0  0  0  0  0  0  0  0
   -1.3593   -0.6196   -0.0536 C   0  0  1  0  0  0  0  0  0  0  0  0
   -0.7341   -0.9139    0.7903 H   0  0  0  0  0  0  0  0  0  0  0  0
   -0.5400   -0.7966   -1.3418 C   0  0  0  0  0  0  0  0  0  0  0  0
    0.3431   -0.1576   -1.2874 H   0  0  0  0  0  0  0  0  0  0  0  0
   -0.1964   -1.8310   -1.3955 H   0  0  0  0  0  0  0  0  0  0  0  0
   -1.2695   -0.4719   -2.6101 C   0  0  0  0  0  0  0  0  0  0  0  0
   -1.3450    0.7501   -3.1833 C   0  0  0  0  0  0  0  0  0  0  0  0
   -0.8975    1.6508   -2.7777 H   0  0  0  0  0  0  0  0  0  0  0  0
   -2.0568    0.6659   -4.3639 N   0  0  0  0  0  0  0  0  0  0  0  0
   -2.2426    1.4591   -4.9601 H   0  0  0  0  0  0  0  0  0  0  0  0
   -2.4637   -0.6262   -4.6202 C   0  0  0  0  0  0  0  0  0  0  0  0
   -3.1709   -1.2161   -5.6777 C   0  0  0  0  0  0  0  0  0  0  0  0
   -3.5153   -0.6167   -6.5076 H   0  0  0  0  0  0  0  0  0  0  0  0
   -3.4266   -2.5975   -5.6415 C   0  0  0  0  0  0  0  0  0  0  0  0
   -3.9715   -3.0697   -6.4478 H   0  0  0  0  0  0  0  0  0  0  0  0
   -2.9783   -3.3650   -4.5509 C   0  0  0  0  0  0  0  0  0  0  0  0
   -3.1846   -4.4261   -4.5231 H   0  0  0  0  0  0  0  0  0  0  0  0
   -2.2702   -2.7612   -3.4926 C   0  0  0  0  0  0  0  0  0  0  0  0
   -1.9431   -3.3600   -2.6544 H   0  0  0  0  0  0  0  0  0  0  0  0
   -1.9919   -1.3772   -3.5022 C   0  0  0  0  0  0  0  0  0  0  0  0
   -1.7683    0.8455    0.1633 C   0  0  0  0  0  0  0  0  0  0  0  0
   -1.3674    1.4609    1.1503 O   0  0  0  0  0  0  0  0  0  0  0  0
   -2.5670    1.4020   -0.7573 N   0  0  0  0  0  0  0  0  0  0  0  0
   -2.8958    0.8129   -1.5091 H   0  0  0  0  0  0  0  0  0  0  0  0
   -3.0460    2.7805   -0.7043 C   0  0  0  0  0  0  0  0  0  0  0  0
   -2.2016    3.4585   -0.5663 H   0  0  0  0  0  0  0  0  0  0  0  0
   -3.5651    3.0336   -1.6296 H   0  0  0  0  0  0  0  0  0  0  0  0
   -3.7302    2.8978    0.1377 H   0  0  0  0  0  0  0  0  0  0  0  0
  5  6  2  0  0  0  0
  5  7  1  0  0  0  0
  2  3  1  0  0  0  0
  2  4  1  0  0  0  0
  2  5  1  0  0  0  0
  1  2  1  0  0  0  0
 29 30  2  0  0  0  0
 29 31  1  0  0  0  0
 26 27  1  0  0  0  0
 26 28  2  0  0  0  0
 24 25  1  0  0  0  0
 24 26  1  0  0  0  0
 22 23  1  0  0  0  0
 22 24  2  0  0  0  0
 20 21  1  0  0  0  0
 20 22  1  0  0  0  0
 19 20  2  0  0  0  0
 19 28  1  0  0  0  0
 17 18  1  0  0  0  0
 17 19  1  0  0  0  0
 15 16  1  0  0  0  0
 15 17  1  0  0  0  0
 14 15  2  0  0  0  0
 14 28  1  0  0  0  0
 11 12  1  0  0  0  0
 11 13  1  0  0  0  0
 11 14  1  0  0  0  0
  9 10  1  0  0  0  0
  9 11  1  0  0  0  0
  9 29  1  0  0  0  0
  7  8  1  0  0  0  0
  7  9  1  0  0  0  0
 33 34  1  0  0  0  0
 33 35  1  0  0  0  0
 33 36  1  0  0  0  0
 31 32  1  0  0  0  0
 31 33  1  0  0  0  0
M  END
$$$$
default_name
  -OEChem-12212115393D

 36 37  0     1  0  0  0  0  0999 V2000
   -4.0843   -4.0736    1.2944 H   0  0  0  0  0  0  0  0  0  0  0  0
   -4.0342   -3.2816    0.5484 C   0  0  0  0  0  0  0  0  0  0  0  0
   -4.8842   -2.6126    0.6694 H   0  0  0  0  0  0  0  0  0  0  0  0
   -4.0433   -3.7186   -0.4486 H   0  0  0  0  0  0  0  0  0  0  0  0
   -2.7532   -2.5046    0.7444 C   0  0  0  0  0  0  0  0  0  0  0  0
   -1.9803   -2.8096    1.6434 O   0  0  0  0  0  0  0  0  0  0  0  0
   -2.5332   -1.4966   -0.0966 N   0  0  0  0  0  0  0  0  0  0  0  0
   -3.2312   -1.2816   -0.7936 H   0  0  0  0  0  0  0  0  0  0  0  0
   -1.3593   -0.6196   -0.0536 C   0  0  1  0  0  0  0  0  0  0  0  0
   -0.7341   -0.9139    0.7903 H   0  0  0  0  0  0  0  0  0  0  0  0
   -0.5400   -0.7966   -1.3418 C   0  0  0  0  0  0  0  0  0  0  0  0
    0.3431   -0.1576   -1.2874 H   0  0  0  0  0  0  0  0  0  0  0  0
   -0.1964   -1.8310   -1.3955 H   0  0  0  0  0  0  0  0  0  0  0  0
   -1.2695   -0.4719   -2.6101 C   0  0  0  0  0  0  0  0  0  0  0  0
   -1.3450    0.7501   -3.1833 C   0  0  0  0  0  0  0  0  0  0  0  0
   -0.8975    1.6508   -2.7777 H   0  0  0  0  0  0  0  0  0  0  0  0
   -2.0568    0.6659   -4.3639 N   0  0  0  0  0  0  0  0  0  0  0  0
   -2.2426    1.4591   -4.9601 H   0  0  0  0  0  0  0  0  0  0  0  0
   -2.4637   -0.6262   -4.6202 C   0  0  0  0  0  0  0  0  0  0  0  0
   -3.1709   -1.2161   -5.6777 C   0  0  0  0  0  0  0  0  0  0  0  0
   -3.5153   -0.6167   -6.5076 H   0  0  0  0  0  0  0  0  0  0  0  0
   -3.4266   -2.5975   -5.6415 C   0  0  0  0  0  0  0  0  0  0  0  0
   -3.9715   -3.0697   -6.4478 H   0  0  0  0  0  0  0  0  0  0  0  0
   -2.9783   -3.3650   -4.5509 C   0  0  0  0  0  0  0  0  0  0  0  0
   -3.1846   -4.4261   -4.5231 H   0  0  0  0  0  0  0  0  0  0  0  0
   -2.2702   -2.7612   -3.4926 C   0  0  0  0  0  0  0  0  0  0  0  0
   -1.9431   -3.3600   -2.6544 H   0  0  0  0  0  0  0  0  0  0  0  0
   -1.9919   -1.3772   -3.5022 C   0  0  0  0  0  0  0  0  0  0  0  0
   -1.7683    0.8455    0.1633 C   0  0  0  0  0  0  0  0  0  0  0  0
   -1.1656    1.5427    0.9783 O   0  0  0  0  0  0  0  0  0  0  0  0
   -2.7929    1.3104   -0.5642 N   0  0  0  0  0  0  0  0  0  0  0  0
   -3.2692    0.6587   -1.1714 H   0  0  0  0  0  0  0  0  0  0  0  0
   -3.3059    2.6751   -0.4828 C   0  0  0  0  0  0  0  0  0  0  0  0
   -2.4851    3.3847   -0.6025 H   0  0  0  0  0  0  0  0  0  0  0  0
   -4.0472    2.8450   -1.2647 H   0  0  0  0  0  0  0  0  0  0  0  0
   -3.7671    2.8348    0.4933 H   0  0  0  0  0  0  0  0  0  0  0  0
  5  6  2  0  0  0  0
  5  7  1  0  0  0  0
  2  3  1  0  0  0  0
  2  4  1  0  0  0  0
  2  5  1  0  0  0  0
  1  2  1  0  0  0  0
 29 30  2  0  0  0  0
 29 31  1  0  0  0  0
 26 27  1  0  0  0  0
 26 28  2  0  0  0  0
 24 25  1  0  0  0  0
 24 26  1  0  0  0  0
 22 23  1  0  0  0  0
 22 24  2  0  0  0  0
 20 21  1  0  0  0  0
 20 22  1  0  0  0  0
 19 20  2  0  0  0  0
 19 28  1  0  0  0  0
 17 18  1  0  0  0  0
 17 19  1  0  0  0  0
 15 16  1  0  0  0  0
 15 17  1  0  0  0  0
 14 15  2  0  0  0  0
 14 28  1  0  0  0  0
 11 12  1  0  0  0  0
 11 13  1  0  0  0  0
 11 14  1  0  0  0  0
  9 10  1  0  0  0  0
  9 11  1  0  0  0  0
  9 29  1  0  0  0  0
  7  8  1  0  0  0  0
  7  9  1  0  0  0  0
 33 34  1  0  0  0  0
 33 35  1  0  0  0  0
 33 36  1  0  0  0  0
 31 32  1  0  0  0  0
 31 33  1  0  0  0  0
M  END
$$$$
default_name
  -OEChem-12212115393D

 36 37  0     1  0  0  0  0  0999 V2000
   -4.0843   -4.0736    1.2944 H   0  0  0  0  0  0  0  0  0  0  0  0
   -4.0342   -3.2816    0.5484 C   0  0  0  0  0  0  0  0  0  0  0  0
   -4.8842   -2.6126    0.6694 H   0  0  0  0  0  0  0  0  0  0  0  0
   -4.0433   -3.7186   -0.4486 H   0  0  0  0  0  0  0  0  0  0  0  0
   -2.7532   -2.5046    0.7444 C   0  0  0  0  0  0  0  0  0  0  0  0
   -1.9803   -2.8096    1.6434 O   0  0  0  0  0  0  0  0  0  0  0  0
   -2.5332   -1.4966   -0.0966 N   0  0  0  0  0  0  0  0  0  0  0  0
   -3.2312   -1.2816   -0.7936 H   0  0  0  0  0  0  0  0  0  0  0  0
   -1.3593   -0.6196   -0.0536 C   0  0  1  0  0  0  0  0  0  0  0  0
   -0.7341   -0.9139    0.7903 H   0  0  0  0  0  0  0  0  0  0  0  0
   -0.5400   -0.7966   -1.3418 C   0  0  0  0  0  0  0  0  0  0  0  0
    0.3431   -0.1576   -1.2874 H   0  0  0  0  0  0  0  0  0  0  0  0
   -0.1964   -1.8310   -1.3955 H   0  0  0  0  0  0  0  0  0  0  0  0
   -1.2695   -0.4719   -2.6101 C   0  0  0  0  0  0  0  0  0  0  0  0
   -1.3450    0.7501   -3.1833 C   0  0  0  0  0  0  0  0  0  0  0  0
   -0.8975    1.6508   -2.7777 H   0  0  0  0  0  0  0  0  0  0  0  0
   -2.0568    0.6659   -4.3639 N   0  0  0  0  0  0  0  0  0  0  0  0
   -2.2426    1.4591   -4.9601 H   0  0  0  0  0  0  0  0  0  0  0  0
   -2.4637   -0.6262   -4.6202 C   0  0  0  0  0  0  0  0  0  0  0  0
   -3.1709   -1.2161   -5.6777 C   0  0  0  0  0  0  0  0  0  0  0  0
   -3.5153   -0.6167   -6.5076 H   0  0  0  0  0  0  0  0  0  0  0  0
   -3.4266   -2.5975   -5.6415 C   0  0  0  0  0  0  0  0  0  0  0  0
   -3.9715   -3.0697   -6.4478 H   0  0  0  0  0  0  0  0  0  0  0  0
   -2.9783   -3.3650   -4.5509 C   0  0  0  0  0  0  0  0  0  0  0  0
   -3.1846   -4.4261   -4.5231 H   0  0  0  0  0  0  0  0  0  0  0  0
   -2.2702   -2.7612   -3.4926 C   0  0  0  0  0  0  0  0  0  0  0  0
   -1.9431   -3.3600   -2.6544 H   0  0  0  0  0  0  0  0  0  0  0  0
   -1.9919   -1.3772   -3.5022 C   0  0  0  0  0  0  0  0  0  0  0  0
   -1.7683    0.8455    0.1633 C   0  0  0  0  0  0  0  0  0  0  0  0
   -1.0160    1.6172    0.7567 O   0  0  0  0  0  0  0  0  0  0  0  0
   -2.9601    1.2269   -0.3157 N   0  0  0  0  0  0  0  0  0  0  0  0
   -3.5409    0.5193   -0.7425 H   0  0  0  0  0  0  0  0  0  0  0  0
   -3.4985    2.5791   -0.1975 C   0  0  0  0  0  0  0  0  0  0  0  0
   -2.7651    3.3006   -0.5625 H   0  0  0  0  0  0  0  0  0  0  0  0
   -4.4160    2.6703   -0.7803 H   0  0  0  0  0  0  0  0  0  0  0  0
   -3.7127    2.7972    0.8501 H   0  0  0  0  0  0  0  0  0  0  0  0
  5  6  2  0  0  0  0
  5  7  1  0  0  0  0
  2  3  1  0  0  0  0
  2  4  1  0  0  0  0
  2  5  1  0  0  0  0
  1  2  1  0  0  0  0
 29 30  2  0  0  0  0
 29 31  1  0  0  0  0
 26 27  1  0  0  0  0
 26 28  2  0  0  0  0
 24 25  1  0  0  0  0
 24 26  1  0  0  0  0
 22 23  1  0  0  0  0
 22 24  2  0  0  0  0
 20 21  1  0  0  0  0
 20 22  1  0  0  0  0
 19 20  2  0  0  0  0
 19 28  1  0  0  0  0
 17 18  1  0  0  0  0
 17 19  1  0  0  0  0
 15 16  1  0  0  0  0
 15 17  1  0  0  0  0
 14 15  2  0  0  0  0
 14 28  1  0  0  0  0
 11 12  1  0  0  0  0
 11 13  1  0  0  0  0
 11 14  1  0  0  0  0
  9 10  1  0  0  0  0
  9 11  1  0  0  0  0
  9 29  1  0  0  0  0
  7  8  1  0  0  0  0
  7  9  1  0  0  0  0
 33 34  1  0  0  0  0
 33 35  1  0  0  0  0
 33 36  1  0  0  0  0
 31 32  1  0  0  0  0
 31 33  1  0  0  0  0
M  END
$$$$
default_name
  -OEChem-12212115393D

 36 37  0     1  0  0  0  0  0999 V2000
   -4.0843   -4.0736    1.2944 H   0  0  0  0  0  0  0  0  0  0  0  0
   -4.0342   -3.2816    0.5484 C   0  0  0  0  0  0  0  0  0  0  0  0
   -4.8842   -2.6126    0.6694 H   0  0  0  0  0  0  0  0  0  0  0  0
   -4.0433   -3.7186   -0.4486 H   0  0  0  0  0  0  0  0  0  0  0  0
   -2.7532   -2.5046    0.7444 C   0  0  0  0  0  0  0  0  0  0  0  0
   -1.9803   -2.8096    1.6434 O   0  0  0  0  0  0  0  0  0  0  0  0
   -2.5332   -1.4966   -0.0966 N   0  0  0  0  0  0  0  0  0  0  0  0
   -3.2312   -1.2816   -0.7936 H   0  0  0  0  0  0  0  0  0  0  0  0
   -1.3593   -0.6196   -0.0536 C   0  0  1  0  0  0  0  0  0  0  0  0
   -0.7341   -0.9139    0.7903 H   0  0  0  0  0  0  0  0  0  0  0  0
   -0.5400   -0.7966   -1.3418 C   0  0  0  0  0  0  0  0  0  0  0  0
    0.3431   -0.1576   -1.2874 H   0  0  0  0  0  0  0  0  0  0  0  0
   -0.1964   -1.8310   -1.3955 H   0  0  0  0  0  0  0  0  0  0  0  0
   -1.2695   -0.4719   -2.6101 C   0  0  0  0  0  0  0  0  0  0  0  0
   -1.3450    0.7501   -3.1833 C   0  0  0  0  0  0  0  0  0  0  0  0
   -0.8975    1.6508   -2.7777 H   0  0  0  0  0  0  0  0  0  0  0  0
   -2.0568    0.6659   -4.3639 N   0  0  0  0  0  0  0  0  0  0  0  0
   -2.2426    1.4591   -4.9601 H   0  0  0  0  0  0  0  0  0  0  0  0
   -2.4637   -0.6262   -4.6202 C   0  0  0  0  0  0  0  0  0  0  0  0
   -3.1709   -1.2161   -5.6777 C   0  0  0  0  0  0  0  0  0  0  0  0
   -3.5153   -0.6167   -6.5076 H   0  0  0  0  0  0  0  0  0  0  0  0
   -3.4266   -2.5975   -5.6415 C   0  0  0  0  0  0  0  0  0  0  0  0
   -3.9715   -3.0697   -6.4478 H   0  0  0  0  0  0  0  0  0  0  0  0
   -2.9783   -3.3650   -4.5509 C   0  0  0  0  0  0  0  0  0  0  0  0
   -3.1846   -4.4261   -4.5231 H   0  0  0  0  0  0  0  0  0  0  0  0
   -2.2702   -2.7612   -3.4926 C   0  0  0  0  0  0  0  0  0  0  0  0
   -1.9431   -3.3600   -2.6544 H   0  0  0  0  0  0  0  0  0  0  0  0
   -1.9919   -1.3772   -3.5022 C   0  0  0  0  0  0  0  0  0  0  0  0
   -1.7683    0.8455    0.1633 C   0  0  0  0  0  0  0  0  0  0  0  0
   -0.9290    1.6794    0.5006 O   0  0  0  0  0  0  0  0  0  0  0  0
   -3.0571    1.1573   -0.0286 N   0  0  0  0  0  0  0  0  0  0  0  0
   -3.6924    0.4044   -0.2516 H   0  0  0  0  0  0  0  0  0  0  0  0
   -3.6106    2.4990    0.1323 C   0  0  0  0  0  0  0  0  0  0  0  0
   -3.0227    3.2119   -0.4489 H   0  0  0  0  0  0  0  0  0  0  0  0
   -4.6463    2.5215   -0.2094 H   0  0  0  0  0  0  0  0  0  0  0  0
   -3.5707    2.7874    1.1840 H   0  0  0  0  0  0  0  0  0  0  0  0
  5  6  2  0  0  0  0
  5  7  1  0  0  0  0
  2  3  1  0  0  0  0
  2  4  1  0  0  0  0
  2  5  1  0  0  0  0
  1  2  1  0  0  0  0
 29 30  2  0  0  0  0
 29 31  1  0  0  0  0
 26 27  1  0  0  0  0
 26 28  2  0  0  0  0
 24 25  1  0  0  0  0
 24 26  1  0  0  0  0
 22 23  1  0  0  0  0
 22 24  2  0  0  0  0
 20 21  1  0  0  0  0
 20 22  1  0  0  0  0
 19 20  2  0  0  0  0
 19 28  1  0  0  0  0
 17 18  1  0  0  0  0
 17 19  1  0  0  0  0
 15 16  1  0  0  0  0
 15 17  1  0  0  0  0
 14 15  2  0  0  0  0
 14 28  1  0  0  0  0
 11 12  1  0  0  0  0
 11 13  1  0  0  0  0
 11 14  1  0  0  0  0
  9 10  1  0  0  0  0
  9 11  1  0  0  0  0
  9 29  1  0  0  0  0
  7  8  1  0  0  0  0
  7  9  1  0  0  0  0
 33 34  1  0  0  0  0
 33 35  1  0  0  0  0
 33 36  1  0  0  0  0
 31 32  1  0  0  0  0
 31 33  1  0  0  0  0
M  END
$$$$
default_name
  -OEChem-12212115393D

 36 37  0     1  0  0  0  0  0999 V2000
   -4.0843   -4.0736    1.2944 H   0  0  0  0  0  0  0  0  0  0  0  0
   -4.0342   -3.2816    0.5484 C   0  0  0  0  0  0  0  0  0  0  0  0
   -4.8842   -2.6126    0.6694 H   0  0  0  0  0  0  0  0  0  0  0  0
   -4.0433   -3.7186   -0.4486 H   0  0  0  0  0  0  0  0  0  0  0  0
   -2.7532   -2.5046    0.7444 C   0  0  0  0  0  0  0  0  0  0  0  0
   -1.9803   -2.8096    1.6434 O   0  0  0  0  0  0  0  0  0  0  0  0
   -2.5332   -1.4966   -0.0966 N   0  0  0  0  0  0  0  0  0  0  0  0
   -3.2312   -1.2816   -0.7936 H   0  0  0  0  0  0  0  0  0  0  0  0
   -1.3593   -0.6196   -0.0536 C   0  0  1  0  0  0  0  0  0  0  0  0
   -0.7341   -0.9139    0.7903 H   0  0  0  0  0  0  0  0  0  0  0  0
   -0.5400   -0.7966   -1.3418 C   0  0  0  0  0  0  0  0  0  0  0  0
    0.3431   -0.1576   -1.2874 H   0  0  0  0  0  0  0  0  0  0  0  0
   -0.1964   -1.8310   -1.3955 H   0  0  0  0  0  0  0  0  0  0  0  0
   -1.2695   -0.4719   -2.6101 C   0  0  0  0  0  0  0  0  0  0  0  0
   -1.3450    0.7501   -3.1833 C   0  0  0  0  0  0  0  0  0  0  0  0
   -0.8975    1.6508   -2.7777 H   0  0  0  0  0  0  0  0  0  0  0  0
   -2.0568    0.6659   -4.3639 N   0  0  0  0  0  0  0  0  0  0  0  0
   -2.2426    1.4591   -4.9601 H   0  0  0  0  0  0  0  0  0  0  0  0
   -2.4637   -0.6262   -4.6202 C   0  0  0  0  0  0  0  0  0  0  0  0
   -3.1709   -1.2161   -5.6777 C   0  0  0  0  0  0  0  0  0  0  0  0
   -3.5153   -0.6167   -6.5076 H   0  0  0  0  0  0  0  0  0  0  0  0
   -3.4266   -2.5975   -5.6415 C   0  0  0  0  0  0  0  0  0  0  0  0
   -3.9715   -3.0697   -6.4478 H   0  0  0  0  0  0  0  0  0  0  0  0
   -2.9783   -3.3650   -4.5509 C   0  0  0  0  0  0  0  0  0  0  0  0
   -3.1846   -4.4261   -4.5231 H   0  0  0  0  0  0  0  0  0  0  0  0
   -2.2702   -2.7612   -3.4926 C   0  0  0  0  0  0  0  0  0  0  0  0
   -1.9431   -3.3600   -2.6544 H   0  0  0  0  0  0  0  0  0  0  0  0
   -1.9919   -1.3772   -3.5022 C   0  0  0  0  0  0  0  0  0  0  0  0
   -1.7683    0.8455    0.1633 C   0  0  0  0  0  0  0  0  0  0  0  0
   -0.9104    1.7250    0.2275 O   0  0  0  0  0  0  0  0  0  0  0  0
   -3.0775    1.1063    0.2775 N   0  0  0  0  0  0  0  0  0  0  0  0
   -3.7134    0.3216    0.2680 H   0  0  0  0  0  0  0  0  0  0  0  0
   -3.6346    2.4402    0.4840 C   0  0  0  0  0  0  0  0  0  0  0  0
   -3.2401    3.1246   -0.2695 H   0  0  0  0  0  0  0  0  0  0  0  0
   -4.7223    2.4087    0.4092 H   0  0  0  0  0  0  0  0  0  0  0  0
   -3.3507    2.8062    1.4721 H   0  0  0  0  0  0  0  0  0  0  0  0
  5  6  2  0  0  0  0
  5  7  1  0  0  0  0
  2  3  1  0  0  0  0
  2  4  1  0  0  0  0
  2  5  1  0  0  0  0
  1  2  1  0  0  0  0
 29 30  2  0  0  0  0
 29 31  1  0  0  0  0
 26 27  1  0  0  0  0
 26 28  2  0  0  0  0
 24 25  1  0  0  0  0
 24 26  1  0  0  0  0
 22 23  1  0  0  0  0
 22 24  2  0  0  0  0
 20 21  1  0  0  0  0
 20 22  1  0  0  0  0
 19 20  2  0  0  0  0
 19 28  1  0  0  0  0
 17 18  1  0  0  0  0
 17 19  1  0  0  0  0
 15 16  1  0  0  0  0
 15 17  1  0  0  0  0
 14 15  2  0  0  0  0
 14 28  1  0  0  0  0
 11 12  1  0  0  0  0
 11 13  1  0  0  0  0
 11 14  1  0  0  0  0
  9 10  1  0  0  0  0
  9 11  1  0  0  0  0
  9 29  1  0  0  0  0
  7  8  1  0  0  0  0
  7  9  1  0  0  0  0
 33 34  1  0  0  0  0
 33 35  1  0  0  0  0
 33 36  1  0  0  0  0
 31 32  1  0  0  0  0
 31 33  1  0  0  0  0
M  END
$$$$
default_name
  -OEChem-12212115393D

 36 37  0     1  0  0  0  0  0999 V2000
   -4.0843   -4.0736    1.2944 H   0  0  0  0  0  0  0  0  0  0  0  0
   -4.0342   -3.2816    0.5484 C   0  0  0  0  0  0  0  0  0  0  0  0
   -4.8842   -2.6126    0.6694 H   0  0  0  0  0  0  0  0  0  0  0  0
   -4.0433   -3.7186   -0.4486 H   0  0  0  0  0  0  0  0  0  0  0  0
   -2.7532   -2.5046    0.7444 C   0  0  0  0  0  0  0  0  0  0  0  0
   -1.9803   -2.8096    1.6434 O   0  0  0  0  0  0  0  0  0  0  0  0
   -2.5332   -1.4966   -0.0966 N   0  0  0  0  0  0  0  0  0  0  0  0
   -3.2312   -1.2816   -0.7936 H   0  0  0  0  0  0  0  0  0  0  0  0
   -1.3593   -0.6196   -0.0536 C   0  0  1  0  0  0  0  0  0  0  0  0
   -0.7341   -0.9139    0.7903 H   0  0  0  0  0  0  0  0  0  0  0  0
   -0.5400   -0.7966   -1.3418 C   0  0  0  0  0  0  0  0  0  0  0  0
    0.3431   -0.1576   -1.2874 H   0  0  0  0  0  0  0  0  0  0  0  0
   -0.1964   -1.8310   -1.3955 H   0  0  0  0  0  0  0  0  0  0  0  0
   -1.2695   -0.4719   -2.6101 C   0  0  0  0  0  0  0  0  0  0  0  0
   -1.3450    0.7501   -3.1833 C   0  0  0  0  0  0  0  0  0  0  0  0
   -0.8975    1.6508   -2.7777 H   0  0  0  0  0  0  0  0  0  0  0  0
   -2.0568    0.6659   -4.3639 N   0  0  0  0  0  0  0  0  0  0  0  0
   -2.2426    1.4591   -4.9601 H   0  0  0  0  0  0  0  0  0  0  0  0
   -2.4637   -0.6262   -4.6202 C   0  0  0  0  0  0  0  0  0  0  0  0
   -3.1709   -1.2161   -5.6777 C   0  0  0  0  0  0  0  0  0  0  0  0
   -3.5153   -0.6167   -6.5076 H   0  0  0  0  0  0  0  0  0  0  0  0
   -3.4266   -2.5975   -5.6415 C   0  0  0  0  0  0  0  0  0  0  0  0
   -3.9715   -3.0697   -6.4478 H   0  0  0  0  0  0  0  0  0  0  0  0
   -2.9783   -3.3650   -4.5509 C   0  0  0  0  0  0  0  0  0  0  0  0
   -3.1846   -4.4261   -4.5231 H   0  0  0  0  0  0  0  0  0  0  0  0
   -2.2702   -2.7612   -3.4926 C   0  0  0  0  0  0  0  0  0  0  0  0
   -1.9431   -3.3600   -2.6544 H   0  0  0  0  0  0  0  0  0  0  0  0
   -1.9919   -1.3772   -3.5022 C   0  0  0  0  0  0  0  0  0  0  0  0
   -1.7683    0.8455    0.1633 C   0  0  0  0  0  0  0  0  0  0  0  0
   -0.9615    1.7509   -0.0440 O   0  0  0  0  0  0  0  0  0  0  0  0
   -3.0198    1.0774    0.5817 N   0  0  0  0  0  0  0  0  0  0  0  0
   -3.6025    0.2767    0.7807 H   0  0  0  0  0  0  0  0  0  0  0  0
   -3.5688    2.4068    0.8337 C   0  0  0  0  0  0  0  0  0  0  0  0
   -3.4028    3.0447   -0.0365 H   0  0  0  0  0  0  0  0  0  0  0  0
   -4.6391    2.3396    1.0333 H   0  0  0  0  0  0  0  0  0  0  0  0
   -3.0679    2.8522    1.6949 H   0  0  0  0  0  0  0  0  0  0  0  0
  5  6  2  0  0  0  0
  5  7  1  0  0  0  0
  2  3  1  0  0  0  0
  2  4  1  0  0  0  0
  2  5  1  0  0  0  0
  1  2  1  0  0  0  0
 29 30  2  0  0  0  0
 29 31  1  0  0  0  0
 26 27  1  0  0  0  0
 26 28  2  0  0  0  0
 24 25  1  0  0  0  0
 24 26  1  0  0  0  0
 22 23  1  0  0  0  0
 22 24  2  0  0  0  0
 20 21  1  0  0  0  0
 20 22  1  0  0  0  0
 19 20  2  0  0  0  0
 19 28  1  0  0  0  0
 17 18  1  0  0  0  0
 17 19  1  0  0  0  0
 15 16  1  0  0  0  0
 15 17  1  0  0  0  0
 14 15  2  0  0  0  0
 14 28  1  0  0  0  0
 11 12  1  0  0  0  0
 11 13  1  0  0  0  0
 11 14  1  0  0  0  0
  9 10  1  0  0  0  0
  9 11  1  0  0  0  0
  9 29  1  0  0  0  0
  7  8  1  0  0  0  0
  7  9  1  0  0  0  0
 33 34  1  0  0  0  0
 33 35  1  0  0  0  0
 33 36  1  0  0  0  0
 31 32  1  0  0  0  0
 31 33  1  0  0  0  0
M  END
$$$$
default_name
  -OEChem-12212115393D

 36 37  0     1  0  0  0  0  0999 V2000
   -4.0843   -4.0736    1.2944 H   0  0  0  0  0  0  0  0  0  0  0  0
   -4.0342   -3.2816    0.5484 C   0  0  0  0  0  0  0  0  0  0  0  0
   -4.8842   -2.6126    0.6694 H   0  0  0  0  0  0  0  0  0  0  0  0
   -4.0433   -3.7186   -0.4486 H   0  0  0  0  0  0  0  0  0  0  0  0
   -2.7532   -2.5046    0.7444 C   0  0  0  0  0  0  0  0  0  0  0  0
   -1.9803   -2.8096    1.6434 O   0  0  0  0  0  0  0  0  0  0  0  0
   -2.5332   -1.4966   -0.0966 N   0  0  0  0  0  0  0  0  0  0  0  0
   -3.2312   -1.2816   -0.7936 H   0  0  0  0  0  0  0  0  0  0  0  0
   -1.3593   -0.6196   -0.0536 C   0  0  1  0  0  0  0  0  0  0  0  0
   -0.7341   -0.9139    0.7903 H   0  0  0  0  0  0  0  0  0  0  0  0
   -0.5400   -0.7966   -1.3418 C   0  0  0  0  0  0  0  0  0  0  0  0
    0.3431   -0.1576   -1.2874 H   0  0  0  0  0  0  0  0  0  0  0  0
   -0.1964   -1.8310   -1.3955 H   0  0  0  0  0  0  0  0  0  0  0  0
   -1.2695   -0.4719   -2.6101 C   0  0  0  0  0  0  0  0  0  0  0  0
   -1.3450    0.7501   -3.1833 C   0  0  0  0  0  0  0  0  0  0  0  0
   -0.8975    1.6508   -2.7777 H   0  0  0  0  0  0  0  0  0  0  0  0
   -2.0568    0.6659   -4.3639 N   0  0  0  0  0  0  0  0  0  0  0  0
   -2.2426    1.4591   -4.9601 H   0  0  0  0  0  0  0  0  0  0  0  0
   -2.4637   -0.6262   -4.6202 C   0  0  0  0  0  0  0  0  0  0  0  0
   -3.1709   -1.2161   -5.6777 C   0  0  0  0  0  0  0  0  0  0  0  0
   -3.5153   -0.6167   -6.5076 H   0  0  0  0  0  0  0  0  0  0  0  0
   -3.4266   -2.5975   -5.6415 C   0  0  0  0  0  0  0  0  0  0  0  0
   -3.9715   -3.0697   -6.4478 H   0  0  0  0  0  0  0  0  0  0  0  0
   -2.9783   -3.3650   -4.5509 C   0  0  0  0  0  0  0  0  0  0  0  0
   -3.1846   -4.4261   -4.5231 H   0  0  0  0  0  0  0  0  0  0  0  0
   -2.2702   -2.7612   -3.4926 C   0  0  0  0  0  0  0  0  0  0  0  0
   -1.9431   -3.3600   -2.6544 H   0  0  0  0  0  0  0  0  0  0  0  0
   -1.9919   -1.3772   -3.5022 C   0  0  0  0  0  0  0  0  0  0  0  0
   -1.7683    0.8455    0.1633 C   0  0  0  0  0  0  0  0  0  0  0  0
   -1.0789    1.7554   -0.2954 O   0  0  0  0  0  0  0  0  0  0  0  0
   -2.8879    1.0726    0.8633 N   0  0  0  0  0  0  0  0  0  0  0  0
   -3.3671    0.2727    1.2517 H   0  0  0  0  0  0  0  0  0  0  0  0
   -3.4178    2.4011    1.1576 C   0  0  0  0  0  0  0  0  0  0  0  0
   -3.4994    2.9777    0.2342 H   0  0  0  0  0  0  0  0  0  0  0  0
   -4.4021    2.3189    1.6203 H   0  0  0  0  0  0  0  0  0  0  0  0
   -2.7414    2.9223    1.8370 H   0  0  0  0  0  0  0  0  0  0  0  0
  5  6  2  0  0  0  0
  5  7  1  0  0  0  0
  2  3  1  0  0  0  0
  2  4  1  0  0  0  0
  2  5  1  0  0  0  0
  1  2  1  0  0  0  0
 29 30  2  0  0  0  0
 29 31  1  0  0  0  0
 26 27  1  0  0  0  0
 26 28  2  0  0  0  0
 24 25  1  0  0  0  0
 24 26  1  0  0  0  0
 22 23  1  0  0  0  0
 22 24  2  0  0  0  0
 20 21  1  0  0  0  0
 20 22  1  0  0  0  0
 19 20  2  0  0  0  0
 19 28  1  0  0  0  0
 17 18  1  0  0  0  0
 17 19  1  0  0  0  0
 15 16  1  0  0  0  0
 15 17  1  0  0  0  0
 14 15  2  0  0  0  0
 14 28  1  0  0  0  0
 11 12  1  0  0  0  0
 11 13  1  0  0  0  0
 11 14  1  0  0  0  0
  9 10  1  0  0  0  0
  9 11  1  0  0  0  0
  9 29  1  0  0  0  0
  7  8  1  0  0  0  0
  7  9  1  0  0  0  0
 33 34  1  0  0  0  0
 33 35  1  0  0  0  0
 33 36  1  0  0  0  0
 31 32  1  0  0  0  0
 31 33  1  0  0  0  0
M  END
$$$$
default_name
  -OEChem-12212115393D

 36 37  0     1  0  0  0  0  0999 V2000
   -4.0843   -4.0736    1.2944 H   0  0  0  0  0  0  0  0  0  0  0  0
   -4.0342   -3.2816    0.5484 C   0  0  0  0  0  0  0  0  0  0  0  0
   -4.8842   -2.6126    0.6694 H   0  0  0  0  0  0  0  0  0  0  0  0
   -4.0433   -3.7186   -0.4486 H   0  0  0  0  0  0  0  0  0  0  0  0
   -2.7532   -2.5046    0.7444 C   0  0  0  0  0  0  0  0  0  0  0  0
   -1.9803   -2.8096    1.6434 O   0  0  0  0  0  0  0  0  0  0  0  0
   -2.5332   -1.4966   -0.0966 N   0  0  0  0  0  0  0  0  0  0  0  0
   -3.2312   -1.2816   -0.7936 H   0  0  0  0  0  0  0  0  0  0  0  0
   -1.3593   -0.6196   -0.0536 C   0  0  1  0  0  0  0  0  0  0  0  0
   -0.7341   -0.9139    0.7903 H   0  0  0  0  0  0  0  0  0  0  0  0
   -0.5400   -0.7966   -1.3418 C   0  0  0  0  0  0  0  0  0  0  0  0
    0.3431   -0.1576   -1.2874 H   0  0  0  0  0  0  0  0  0  0  0  0
   -0.1964   -1.8310   -1.3955 H   0  0  0  0  0  0  0  0  0  0  0  0
   -1.2695   -0.4719   -2.6101 C   0  0  0  0  0  0  0  0  0  0  0  0
   -1.3450    0.7501   -3.1833 C   0  0  0  0  0  0  0  0  0  0  0  0
   -0.8975    1.6508   -2.7777 H   0  0  0  0  0  0  0  0  0  0  0  0
   -2.0568    0.6659   -4.3639 N   0  0  0  0  0  0  0  0  0  0  0  0
   -2.2426    1.4591   -4.9601 H   0  0  0  0  0  0  0  0  0  0  0  0
   -2.4637   -0.6262   -4.6202 C   0  0  0  0  0  0  0  0  0  0  0  0
   -3.1709   -1.2161   -5.6777 C   0  0  0  0  0  0  0  0  0  0  0  0
   -3.5153   -0.6167   -6.5076 H   0  0  0  0  0  0  0  0  0  0  0  0
   -3.4266   -2.5975   -5.6415 C   0  0  0  0  0  0  0  0  0  0  0  0
   -3.9715   -3.0697   -6.4478 H   0  0  0  0  0  0  0  0  0  0  0  0
   -2.9783   -3.3650   -4.5509 C   0  0  0  0  0  0  0  0  0  0  0  0
   -3.1846   -4.4261   -4.5231 H   0  0  0  0  0  0  0  0  0  0  0  0
   -2.2702   -2.7612   -3.4926 C   0  0  0  0  0  0  0  0  0  0  0  0
   -1.9431   -3.3600   -2.6544 H   0  0  0  0  0  0  0  0  0  0  0  0
   -1.9919   -1.3772   -3.5022 C   0  0  0  0  0  0  0  0  0  0  0  0
   -1.7683    0.8455    0.1633 C   0  0  0  0  0  0  0  0  0  0  0  0
   -1.2544    1.7381   -0.5097 O   0  0  0  0  0  0  0  0  0  0  0  0
   -2.6909    1.0921    1.1030 N   0  0  0  0  0  0  0  0  0  0  0  0
   -3.0234    0.3098    1.6488 H   0  0  0  0  0  0  0  0  0  0  0  0
   -3.1917    2.4234    1.4335 C   0  0  0  0  0  0  0  0  0  0  0  0
   -3.5235    2.9280    0.5241 H   0  0  0  0  0  0  0  0  0  0  0  0
   -4.0276    2.3479    2.1302 H   0  0  0  0  0  0  0  0  0  0  0  0
   -2.3935    3.0118    1.8889 H   0  0  0  0  0  0  0  0  0  0  0  0
  5  6  2  0  0  0  0
  5  7  1  0  0  0  0
  2  3  1  0  0  0  0
  2  4  1  0  0  0  0
  2  5  1  0  0  0  0
  1  2  1  0  0  0  0
 29 30  2  0  0  0  0
 29 31  1  0  0  0  0
 26 27  1  0  0  0  0
 26 28  2  0  0  0  0
 24 25  1  0  0  0  0
 24 26  1  0  0  0  0
 22 23  1  0  0  0  0
 22 24  2  0  0  0  0
 20 21  1  0  0  0  0
 20 22  1  0  0  0  0
 19 20  2  0  0  0  0
 19 28  1  0  0  0  0
 17 18  1  0  0  0  0
 17 19  1  0  0  0  0
 15 16  1  0  0  0  0
 15 17  1  0  0  0  0
 14 15  2  0  0  0  0
 14 28  1  0  0  0  0
 11 12  1  0  0  0  0
 11 13  1  0  0  0  0
 11 14  1  0  0  0  0
  9 10  1  0  0  0  0
  9 11  1  0  0  0  0
  9 29  1  0  0  0  0
  7  8  1  0  0  0  0
  7  9  1  0  0  0  0
 33 34  1  0  0  0  0
 33 35  1  0  0  0  0
 33 36  1  0  0  0  0
 31 32  1  0  0  0  0
 31 33  1  0  0  0  0
M  END
$$$$
default_name
  -OEChem-12212115393D

 36 37  0     1  0  0  0  0  0999 V2000
   -4.0843   -4.0736    1.2944 H   0  0  0  0  0  0  0  0  0  0  0  0
   -4.0342   -3.2816    0.5484 C   0  0  0  0  0  0  0  0  0  0  0  0
   -4.8842   -2.6126    0.6694 H   0  0  0  0  0  0  0  0  0  0  0  0
   -4.0433   -3.7186   -0.4486 H   0  0  0  0  0  0  0  0  0  0  0  0
   -2.7532   -2.5046    0.7444 C   0  0  0  0  0  0  0  0  0  0  0  0
   -1.9803   -2.8096    1.6434 O   0  0  0  0  0  0  0  0  0  0  0  0
   -2.5332   -1.4966   -0.0966 N   0  0  0  0  0  0  0  0  0  0  0  0
   -3.2312   -1.2816   -0.7936 H   0  0  0  0  0  0  0  0  0  0  0  0
   -1.3593   -0.6196   -0.0536 C   0  0  1  0  0  0  0  0  0  0  0  0
   -0.7341   -0.9139    0.7903 H   0  0  0  0  0  0  0  0  0  0  0  0
   -0.5400   -0.7966   -1.3418 C   0  0  0  0  0  0  0  0  0  0  0  0
    0.3431   -0.1576   -1.2874 H   0  0  0  0  0  0  0  0  0  0  0  0
   -0.1964   -1.8310   -1.3955 H   0  0  0  0  0  0  0  0  0  0  0  0
   -1.2695   -0.4719   -2.6101 C   0  0  0  0  0  0  0  0  0  0  0  0
   -1.3450    0.7501   -3.1833 C   0  0  0  0  0  0  0  0  0  0  0  0
   -0.8975    1.6508   -2.7777 H   0  0  0  0  0  0  0  0  0  0  0  0
   -2.0568    0.6659   -4.3639 N   0  0  0  0  0  0  0  0  0  0  0  0
   -2.2426    1.4591   -4.9601 H   0  0  0  0  0  0  0  0  0  0  0  0
   -2.4637   -0.6262   -4.6202 C   0  0  0  0  0  0  0  0  0  0  0  0
   -3.1709   -1.2161   -5.6777 C   0  0  0  0  0  0  0  0  0  0  0  0
   -3.5153   -0.6167   -6.5076 H   0  0  0  0  0  0  0  0  0  0  0  0
   -3.4266   -2.5975   -5.6415 C   0  0  0  0  0  0  0  0  0  0  0  0
   -3.9715   -3.0697   -6.4478 H   0  0  0  0  0  0  0  0  0  0  0  0
   -2.9783   -3.3650   -4.5509 C   0  0  0  0  0  0  0  0  0  0  0  0
   -3.1846   -4.4261   -4.5231 H   0  0  0  0  0  0  0  0  0  0  0  0
   -2.2702   -2.7612   -3.4926 C   0  0  0  0  0  0  0  0  0  0  0  0
   -1.9431   -3.3600   -2.6544 H   0  0  0  0  0  0  0  0  0  0  0  0
   -1.9919   -1.3772   -3.5022 C   0  0  0  0  0  0  0  0  0  0  0  0
   -1.7683    0.8455    0.1633 C   0  0  0  0  0  0  0  0  0  0  0  0
   -1.4762    1.7002   -0.6721 O   0  0  0  0  0  0  0  0  0  0  0  0
   -2.4421    1.1347    1.2847 N   0  0  0  0  0  0  0  0  0  0  0  0
   -2.5948    0.3857    1.9450 H   0  0  0  0  0  0  0  0  0  0  0  0
   -2.9061    2.4721    1.6427 C   0  0  0  0  0  0  0  0  0  0  0  0
   -3.4734    2.8992    0.8136 H   0  0  0  0  0  0  0  0  0  0  0  0
   -3.5410    2.4248    2.5283 H   0  0  0  0  0  0  0  0  0  0  0  0
   -2.0479    3.1144    1.8471 H   0  0  0  0  0  0  0  0  0  0  0  0
  5  6  2  0  0  0  0
  5  7  1  0  0  0  0
  2  3  1  0  0  0  0
  2  4  1  0  0  0  0
  2  5  1  0  0  0  0
  1  2  1  0  0  0  0
 29 30  2  0  0  0  0
 29 31  1  0  0  0  0
 26 27  1  0  0  0  0
 26 28  2  0  0  0  0
 24 25  1  0  0  0  0
 24 26  1  0  0  0  0
 22 23  1  0  0  0  0
 22 24  2  0  0  0  0
 20 21  1  0  0  0  0
 20 22  1  0  0  0  0
 19 20  2  0  0  0  0
 19 28  1  0  0  0  0
 17 18  1  0  0  0  0
 17 19  1  0  0  0  0
 15 16  1  0  0  0  0
 15 17  1  0  0  0  0
 14 15  2  0  0  0  0
 14 28  1  0  0  0  0
 11 12  1  0  0  0  0
 11 13  1  0  0  0  0
 11 14  1  0  0  0  0
  9 10  1  0  0  0  0
  9 11  1  0  0  0  0
  9 29  1  0  0  0  0
  7  8  1  0  0  0  0
  7  9  1  0  0  0  0
 33 34  1  0  0  0  0
 33 35  1  0  0  0  0
 33 36  1  0  0  0  0
 31 32  1  0  0  0  0
 31 33  1  0  0  0  0
M  END
$$$$
default_name
  -OEChem-12212115393D

 36 37  0     1  0  0  0  0  0999 V2000
   -4.0843   -4.0736    1.2944 H   0  0  0  0  0  0  0  0  0  0  0  0
   -4.0342   -3.2816    0.5484 C   0  0  0  0  0  0  0  0  0  0  0  0
   -4.8842   -2.6126    0.6694 H   0  0  0  0  0  0  0  0  0  0  0  0
   -4.0433   -3.7186   -0.4486 H   0  0  0  0  0  0  0  0  0  0  0  0
   -2.7532   -2.5046    0.7444 C   0  0  0  0  0  0  0  0  0  0  0  0
   -1.9803   -2.8096    1.6434 O   0  0  0  0  0  0  0  0  0  0  0  0
   -2.5332   -1.4966   -0.0966 N   0  0  0  0  0  0  0  0  0  0  0  0
   -3.2312   -1.2816   -0.7936 H   0  0  0  0  0  0  0  0  0  0  0  0
   -1.3593   -0.6196   -0.0536 C   0  0  1  0  0  0  0  0  0  0  0  0
   -0.7341   -0.9139    0.7903 H   0  0  0  0  0  0  0  0  0  0  0  0
   -0.5400   -0.7966   -1.3418 C   0  0  0  0  0  0  0  0  0  0  0  0
    0.3431   -0.1576   -1.2874 H   0  0  0  0  0  0  0  0  0  0  0  0
   -0.1964   -1.8310   -1.3955 H   0  0  0  0  0  0  0  0  0  0  0  0
   -1.2695   -0.4719   -2.6101 C   0  0  0  0  0  0  0  0  0  0  0  0
   -1.3450    0.7501   -3.1833 C   0  0  0  0  0  0  0  0  0  0  0  0
   -0.8975    1.6508   -2.7777 H   0  0  0  0  0  0  0  0  0  0  0  0
   -2.0568    0.6659   -4.3639 N   0  0  0  0  0  0  0  0  0  0  0  0
   -2.2426    1.4591   -4.9601 H   0  0  0  0  0  0  0  0  0  0  0  0
   -2.4637   -0.6262   -4.6202 C   0  0  0  0  0  0  0  0  0  0  0  0
   -3.1709   -1.2161   -5.6777 C   0  0  0  0  0  0  0  0  0  0  0  0
   -3.5153   -0.6167   -6.5076 H   0  0  0  0  0  0  0  0  0  0  0  0
   -3.4266   -2.5975   -5.6415 C   0  0  0  0  0  0  0  0  0  0  0  0
   -3.9715   -3.0697   -6.4478 H   0  0  0  0  0  0  0  0  0  0  0  0
   -2.9783   -3.3650   -4.5509 C   0  0  0  0  0  0  0  0  0  0  0  0
   -3.1846   -4.4261   -4.5231 H   0  0  0  0  0  0  0  0  0  0  0  0
   -2.2702   -2.7612   -3.4926 C   0  0  0  0  0  0  0  0  0  0  0  0
   -1.9431   -3.3600   -2.6544 H   0  0  0  0  0  0  0  0  0  0  0  0
   -1.9919   -1.3772   -3.5022 C   0  0  0  0  0  0  0  0  0  0  0  0
   -1.7683    0.8455    0.1633 C   0  0  0  0  0  0  0  0  0  0  0  0
   -1.7292    1.6443   -0.7716 O   0  0  0  0  0  0  0  0  0  0  0  0
   -2.1585    1.1974    1.3958 N   0  0  0  0  0  0  0  0  0  0  0  0
   -2.1104    0.4950    2.1201 H   0  0  0  0  0  0  0  0  0  0  0  0
   -2.5803    2.5441    1.7709 C   0  0  0  0  0  0  0  0  0  0  0  0
   -3.3526    2.8931    1.0827 H   0  0  0  0  0  0  0  0  0  0  0  0
   -2.9756    2.5443    2.7875 H   0  0  0  0  0  0  0  0  0  0  0  0
   -1.7281    3.2234    1.7143 H   0  0  0  0  0  0  0  0  0  0  0  0
  5  6  2  0  0  0  0
  5  7  1  0  0  0  0
  2  3  1  0  0  0  0
  2  4  1  0  0  0  0
  2  5  1  0  0  0  0
  1  2  1  0  0  0  0
 29 30  2  0  0  0  0
 29 31  1  0  0  0  0
 26 27  1  0  0  0  0
 26 28  2  0  0  0  0
 24 25  1  0  0  0  0
 24 26  1  0  0  0  0
 22 23  1  0  0  0  0
 22 24  2  0  0  0  0
 20 21  1  0  0  0  0
 20 22  1  0  0  0  0
 19 20  2  0  0  0  0
 19 28  1  0  0  0  0
 17 18  1  0  0  0  0
 17 19  1  0  0  0  0
 15 16  1  0  0  0  0
 15 17  1  0  0  0  0
 14 15  2  0  0  0  0
 14 28  1  0  0  0  0
 11 12  1  0  0  0  0
 11 13  1  0  0  0  0
 11 14  1  0  0  0  0
  9 10  1  0  0  0  0
  9 11  1  0  0  0  0
  9 29  1  0  0  0  0
  7  8  1  0  0  0  0
  7  9  1  0  0  0  0
 33 34  1  0  0  0  0
 33 35  1  0  0  0  0
 33 36  1  0  0  0  0
 31 32  1  0  0  0  0
 31 33  1  0  0  0  0
M  END
$$$$
default_name
  -OEChem-12212115393D

 36 37  0     1  0  0  0  0  0999 V2000
   -4.0843   -4.0736    1.2944 H   0  0  0  0  0  0  0  0  0  0  0  0
   -4.0342   -3.2816    0.5484 C   0  0  0  0  0  0  0  0  0  0  0  0
   -4.8842   -2.6126    0.6694 H   0  0  0  0  0  0  0  0  0  0  0  0
   -4.0433   -3.7186   -0.4486 H   0  0  0  0  0  0  0  0  0  0  0  0
   -2.7532   -2.5046    0.7444 C   0  0  0  0  0  0  0  0  0  0  0  0
   -1.9803   -2.8096    1.6434 O   0  0  0  0  0  0  0  0  0  0  0  0
   -2.5332   -1.4966   -0.0966 N   0  0  0  0  0  0  0  0  0  0  0  0
   -3.2312   -1.2816   -0.7936 H   0  0  0  0  0  0  0  0  0  0  0  0
   -1.3593   -0.6196   -0.0536 C   0  0  1  0  0  0  0  0  0  0  0  0
   -0.7341   -0.9139    0.7903 H   0  0  0  0  0  0  0  0  0  0  0  0
   -0.5400   -0.7966   -1.3418 C   0  0  0  0  0  0  0  0  0  0  0  0
    0.3431   -0.1576   -1.2874 H   0  0  0  0  0  0  0  0  0  0  0  0
   -0.1964   -1.8310   -1.3955 H   0  0  0  0  0  0  0  0  0  0  0  0
   -1.2695   -0.4719   -2.6101 C   0  0  0  0  0  0  0  0  0  0  0  0
   -1.3450    0.7501   -3.1833 C   0  0  0  0  0  0  0  0  0  0  0  0
   -0.8975    1.6508   -2.7777 H   0  0  0  0  0  0  0  0  0  0  0  0
   -2.0568    0.6659   -4.3639 N   0  0  0  0  0  0  0  0  0  0  0  0
   -2.2426    1.4591   -4.9601 H   0  0  0  0  0  0  0  0  0  0  0  0
   -2.4637   -0.6262   -4.6202 C   0  0  0  0  0  0  0  0  0  0  0  0
   -3.1709   -1.2161   -5.6777 C   0  0  0  0  0  0  0  0  0  0  0  0
   -3.5153   -0.6167   -6.5076 H   0  0  0  0  0  0  0  0  0  0  0  0
   -3.4266   -2.5975   -5.6415 C   0  0  0  0  0  0  0  0  0  0  0  0
   -3.9715   -3.0697   -6.4478 H   0  0  0  0  0  0  0  0  0  0  0  0
   -2.9783   -3.3650   -4.5509 C   0  0  0  0  0  0  0  0  0  0  0  0
   -3.1846   -4.4261   -4.5231 H   0  0  0  0  0  0  0  0  0  0  0  0
   -2.2702   -2.7612   -3.4926 C   0  0  0  0  0  0  0  0  0  0  0  0
   -1.9431   -3.3600   -2.6544 H   0  0  0  0  0  0  0  0  0  0  0  0
   -1.9919   -1.3772   -3.5022 C   0  0  0  0  0  0  0  0  0  0  0  0
   -1.7683    0.8455    0.1633 C   0  0  0  0  0  0  0  0  0  0  0  0
   -1.9960    1.5742   -0.8015 O   0  0  0  0  0  0  0  0  0  0  0  0
   -1.8595    1.2760    1.4288 N   0  0  0  0  0  0  0  0  0  0  0  0
   -1.6033    0.6303    2.1621 H   0  0  0  0  0  0  0  0  0  0  0  0
   -2.2367    2.6344    1.8094 C   0  0  0  0  0  0  0  0  0  0  0  0
   -3.1692    2.9102    1.3134 H   0  0  0  0  0  0  0  0  0  0  0  0
   -2.3698    2.6983    2.8901 H   0  0  0  0  0  0  0  0  0  0  0  0
   -1.4560    3.3311    1.4996 H   0  0  0  0  0  0  0  0  0  0  0  0
  5  6  2  0  0  0  0
  5  7  1  0  0  0  0
  2  3  1  0  0  0  0
  2  4  1  0  0  0  0
  2  5  1  0  0  0  0
  1  2  1  0  0  0  0
 29 30  2  0  0  0  0
 29 31  1  0  0  0  0
 26 27  1  0  0  0  0
 26 28  2  0  0  0  0
 24 25  1  0  0  0  0
 24 26  1  0  0  0  0
 22 23  1  0  0  0  0
 22 24  2  0  0  0  0
 20 21  1  0  0  0  0
 20 22  1  0  0  0  0
 19 20  2  0  0  0  0
 19 28  1  0  0  0  0
 17 18  1  0  0  0  0
 17 19  1  0  0  0  0
 15 16  1  0  0  0  0
 15 17  1  0  0  0  0
 14 15  2  0  0  0  0
 14 28  1  0  0  0  0
 11 12  1  0  0  0  0
 11 13  1  0  0  0  0
 11 14  1  0  0  0  0
  9 10  1  0  0  0  0
  9 11  1  0  0  0  0
  9 29  1  0  0  0  0
  7  8  1  0  0  0  0
  7  9  1  0  0  0  0
 33 34  1  0  0  0  0
 33 35  1  0  0  0  0
 33 36  1  0  0  0  0
 31 32  1  0  0  0  0
 31 33  1  0  0  0  0
M  END
$$$$
default_name
  -OEChem-12212115393D

 36 37  0     1  0  0  0  0  0999 V2000
   -4.0843   -4.0736    1.2944 H   0  0  0  0  0  0  0  0  0  0  0  0
   -4.0342   -3.2816    0.5484 C   0  0  0  0  0  0  0  0  0  0  0  0
   -4.8842   -2.6126    0.6694 H   0  0  0  0  0  0  0  0  0  0  0  0
   -4.0433   -3.7186   -0.4486 H   0  0  0  0  0  0  0  0  0  0  0  0
   -2.7532   -2.5046    0.7444 C   0  0  0  0  0  0  0  0  0  0  0  0
   -1.9803   -2.8096    1.6434 O   0  0  0  0  0  0  0  0  0  0  0  0
   -2.5332   -1.4966   -0.0966 N   0  0  0  0  0  0  0  0  0  0  0  0
   -3.2312   -1.2816   -0.7936 H   0  0  0  0  0  0  0  0  0  0  0  0
   -1.3593   -0.6196   -0.0536 C   0  0  1  0  0  0  0  0  0  0  0  0
   -0.7341   -0.9139    0.7903 H   0  0  0  0  0  0  0  0  0  0  0  0
   -0.5400   -0.7966   -1.3418 C   0  0  0  0  0  0  0  0  0  0  0  0
    0.3431   -0.1576   -1.2874 H   0  0  0  0  0  0  0  0  0  0  0  0
   -0.1964   -1.8310   -1.3955 H   0  0  0  0  0  0  0  0  0  0  0  0
   -1.2695   -0.4719   -2.6101 C   0  0  0  0  0  0  0  0  0  0  0  0
   -1.3450    0.7501   -3.1833 C   0  0  0  0  0  0  0  0  0  0  0  0
   -0.8975    1.6508   -2.7777 H   0  0  0  0  0  0  0  0  0  0  0  0
   -2.0568    0.6659   -4.3639 N   0  0  0  0  0  0  0  0  0  0  0  0
   -2.2426    1.4591   -4.9601 H   0  0  0  0  0  0  0  0  0  0  0  0
   -2.4637   -0.6262   -4.6202 C   0  0  0  0  0  0  0  0  0  0  0  0
   -3.1709   -1.2161   -5.6777 C   0  0  0  0  0  0  0  0  0  0  0  0
   -3.5153   -0.6167   -6.5076 H   0  0  0  0  0  0  0  0  0  0  0  0
   -3.4266   -2.5975   -5.6415 C   0  0  0  0  0  0  0  0  0  0  0  0
   -3.9715   -3.0697   -6.4478 H   0  0  0  0  0  0  0  0  0  0  0  0
   -2.9783   -3.3650   -4.5509 C   0  0  0  0  0  0  0  0  0  0  0  0
   -3.1846   -4.4261   -4.5231 H   0  0  0  0  0  0  0  0  0  0  0  0
   -2.2702   -2.7612   -3.4926 C   0  0  0  0  0  0  0  0  0  0  0  0
   -1.9431   -3.3600   -2.6544 H   0  0  0  0  0  0  0  0  0  0  0  0
   -1.9919   -1.3772   -3.5022 C   0  0  0  0  0  0  0  0  0  0  0  0
   -1.7683    0.8455    0.1633 C   0  0  0  0  0  0  0  0  0  0  0  0
   -2.2586    1.4947   -0.7596 O   0  0  0  0  0  0  0  0  0  0  0  0
   -1.5653    1.3651    1.3814 N   0  0  0  0  0  0  0  0  0  0  0  0
   -1.1081    0.7825    2.0683 H   0  0  0  0  0  0  0  0  0  0  0  0
   -1.8985    2.7367    1.7556 C   0  0  0  0  0  0  0  0  0  0  0  0
   -2.9358    2.9492    1.4897 H   0  0  0  0  0  0  0  0  0  0  0  0
   -1.7650    2.8762    2.8291 H   0  0  0  0  0  0  0  0  0  0  0  0
   -1.2502    3.4303    1.2176 H   0  0  0  0  0  0  0  0  0  0  0  0
  5  6  2  0  0  0  0
  5  7  1  0  0  0  0
  2  3  1  0  0  0  0
  2  4  1  0  0  0  0
  2  5  1  0  0  0  0
  1  2  1  0  0  0  0
 29 30  2  0  0  0  0
 29 31  1  0  0  0  0
 26 27  1  0  0  0  0
 26 28  2  0  0  0  0
 24 25  1  0  0  0  0
 24 26  1  0  0  0  0
 22 23  1  0  0  0  0
 22 24  2  0  0  0  0
 20 21  1  0  0  0  0
 20 22  1  0  0  0  0
 19 20  2  0  0  0  0
 19 28  1  0  0  0  0
 17 18  1  0  0  0  0
 17 19  1  0  0  0  0
 15 16  1  0  0  0  0
 15 17  1  0  0  0  0
 14 15  2  0  0  0  0
 14 28  1  0  0  0  0
 11 12  1  0  0  0  0
 11 13  1  0  0  0  0
 11 14  1  0  0  0  0
  9 10  1  0  0  0  0
  9 11  1  0  0  0  0
  9 29  1  0  0  0  0
  7  8  1  0  0  0  0
  7  9  1  0  0  0  0
 33 34  1  0  0  0  0
 33 35  1  0  0  0  0
 33 36  1  0  0  0  0
 31 32  1  0  0  0  0
 31 33  1  0  0  0  0
M  END
$$$$
default_name
  -OEChem-12212115393D

 36 37  0     1  0  0  0  0  0999 V2000
   -4.0843   -4.0736    1.2944 H   0  0  0  0  0  0  0  0  0  0  0  0
   -4.0342   -3.2816    0.5484 C   0  0  0  0  0  0  0  0  0  0  0  0
   -4.8842   -2.6126    0.6694 H   0  0  0  0  0  0  0  0  0  0  0  0
   -4.0433   -3.7186   -0.4486 H   0  0  0  0  0  0  0  0  0  0  0  0
   -2.7532   -2.5046    0.7444 C   0  0  0  0  0  0  0  0  0  0  0  0
   -1.9803   -2.8096    1.6434 O   0  0  0  0  0  0  0  0  0  0  0  0
   -2.5332   -1.4966   -0.0966 N   0  0  0  0  0  0  0  0  0  0  0  0
   -3.2312   -1.2816   -0.7936 H   0  0  0  0  0  0  0  0  0  0  0  0
   -1.3593   -0.6196   -0.0536 C   0  0  1  0  0  0  0  0  0  0  0  0
   -0.7341   -0.9139    0.7903 H   0  0  0  0  0  0  0  0  0  0  0  0
   -0.5400   -0.7966   -1.3418 C   0  0  0  0  0  0  0  0  0  0  0  0
    0.3431   -0.1576   -1.2874 H   0  0  0  0  0  0  0  0  0  0  0  0
   -0.1964   -1.8310   -1.3955 H   0  0  0  0  0  0  0  0  0  0  0  0
   -1.2695   -0.4719   -2.6101 C   0  0  0  0  0  0  0  0  0  0  0  0
   -1.3450    0.7501   -3.1833 C   0  0  0  0  0  0  0  0  0  0  0  0
   -0.8975    1.6508   -2.7777 H   0  0  0  0  0  0  0  0  0  0  0  0
   -2.0568    0.6659   -4.3639 N   0  0  0  0  0  0  0  0  0  0  0  0
   -2.2426    1.4591   -4.9601 H   0  0  0  0  0  0  0  0  0  0  0  0
   -2.4637   -0.6262   -4.6202 C   0  0  0  0  0  0  0  0  0  0  0  0
   -3.1709   -1.2161   -5.6777 C   0  0  0  0  0  0  0  0  0  0  0  0
   -3.5153   -0.6167   -6.5076 H   0  0  0  0  0  0  0  0  0  0  0  0
   -3.4266   -2.5975   -5.6415 C   0  0  0  0  0  0  0  0  0  0  0  0
   -3.9715   -3.0697   -6.4478 H   0  0  0  0  0  0  0  0  0  0  0  0
   -2.9783   -3.3650   -4.5509 C   0  0  0  0  0  0  0  0  0  0  0  0
   -3.1846   -4.4261   -4.5231 H   0  0  0  0  0  0  0  0  0  0  0  0
   -2.2702   -2.7612   -3.4926 C   0  0  0  0  0  0  0  0  0  0  0  0
   -1.9431   -3.3600   -2.6544 H   0  0  0  0  0  0  0  0  0  0  0  0
   -1.9919   -1.3772   -3.5022 C   0  0  0  0  0  0  0  0  0  0  0  0
   -1.7683    0.8455    0.1633 C   0  0  0  0  0  0  0  0  0  0  0  0
   -2.4990    1.4112   -0.6490 O   0  0  0  0  0  0  0  0  0  0  0  0
   -1.2962    1.4587    1.2570 N   0  0  0  0  0  0  0  0  0  0  0  0
   -0.6584    0.9411    1.8449 H   0  0  0  0  0  0  0  0  0  0  0  0
   -1.5889    2.8443    1.6131 C   0  0  0  0  0  0  0  0  0  0  0  0
   -2.6682    3.0076    1.5997 H   0  0  0  0  0  0  0  0  0  0  0  0
   -1.2024    3.0659    2.6087 H   0  0  0  0  0  0  0  0  0  0  0  0
   -1.1245    3.5143    0.8876 H   0  0  0  0  0  0  0  0  0  0  0  0
  5  6  2  0  0  0  0
  5  7  1  0  0  0  0
  2  3  1  0  0  0  0
  2  4  1  0  0  0  0
  2  5  1  0  0  0  0
  1  2  1  0  0  0  0
 29 30  2  0  0  0  0
 29 31  1  0  0  0  0
 26 27  1  0  0  0  0
 26 28  2  0  0  0  0
 24 25  1  0  0  0  0
 24 26  1  0  0  0  0
 22 23  1  0  0  0  0
 22 24  2  0  0  0  0
 20 21  1  0  0  0  0
 20 22  1  0  0  0  0
 19 20  2  0  0  0  0
 19 28  1  0  0  0  0
 17 18  1  0  0  0  0
 17 19  1  0  0  0  0
 15 16  1  0  0  0  0
 15 17  1  0  0  0  0
 14 15  2  0  0  0  0
 14 28  1  0  0  0  0
 11 12  1  0  0  0  0
 11 13  1  0  0  0  0
 11 14  1  0  0  0  0
  9 10  1  0  0  0  0
  9 11  1  0  0  0  0
  9 29  1  0  0  0  0
  7  8  1  0  0  0  0
  7  9  1  0  0  0  0
 33 34  1  0  0  0  0
 33 35  1  0  0  0  0
 33 36  1  0  0  0  0
 31 32  1  0  0  0  0
 31 33  1  0  0  0  0
M  END
$$$$
default_name
  -OEChem-12212115393D

 36 37  0     1  0  0  0  0  0999 V2000
   -4.0843   -4.0736    1.2944 H   0  0  0  0  0  0  0  0  0  0  0  0
   -4.0342   -3.2816    0.5484 C   0  0  0  0  0  0  0  0  0  0  0  0
   -4.8842   -2.6126    0.6694 H   0  0  0  0  0  0  0  0  0  0  0  0
   -4.0433   -3.7186   -0.4486 H   0  0  0  0  0  0  0  0  0  0  0  0
   -2.7532   -2.5046    0.7444 C   0  0  0  0  0  0  0  0  0  0  0  0
   -1.9803   -2.8096    1.6434 O   0  0  0  0  0  0  0  0  0  0  0  0
   -2.5332   -1.4966   -0.0966 N   0  0  0  0  0  0  0  0  0  0  0  0
   -3.2312   -1.2816   -0.7936 H   0  0  0  0  0  0  0  0  0  0  0  0
   -1.3593   -0.6196   -0.0536 C   0  0  1  0  0  0  0  0  0  0  0  0
   -0.7341   -0.9139    0.7903 H   0  0  0  0  0  0  0  0  0  0  0  0
   -0.5400   -0.7966   -1.3418 C   0  0  0  0  0  0  0  0  0  0  0  0
    0.3431   -0.1576   -1.2874 H   0  0  0  0  0  0  0  0  0  0  0  0
   -0.1964   -1.8310   -1.3955 H   0  0  0  0  0  0  0  0  0  0  0  0
   -1.2695   -0.4719   -2.6101 C   0  0  0  0  0  0  0  0  0  0  0  0
   -1.3450    0.7501   -3.1833 C   0  0  0  0  0  0  0  0  0  0  0  0
   -0.8975    1.6508   -2.7777 H   0  0  0  0  0  0  0  0  0  0  0  0
   -2.0568    0.6659   -4.3639 N   0  0  0  0  0  0  0  0  0  0  0  0
   -2.2426    1.4591   -4.9601 H   0  0  0  0  0  0  0  0  0  0  0  0
   -2.4637   -0.6262   -4.6202 C   0  0  0  0  0  0  0  0  0  0  0  0
   -3.1709   -1.2161   -5.6777 C   0  0  0  0  0  0  0  0  0  0  0  0
   -3.5153   -0.6167   -6.5076 H   0  0  0  0  0  0  0  0  0  0  0  0
   -3.4266   -2.5975   -5.6415 C   0  0  0  0  0  0  0  0  0  0  0  0
   -3.9715   -3.0697   -6.4478 H   0  0  0  0  0  0  0  0  0  0  0  0
   -2.9783   -3.3650   -4.5509 C   0  0  0  0  0  0  0  0  0  0  0  0
   -3.1846   -4.4261   -4.5231 H   0  0  0  0  0  0  0  0  0  0  0  0
   -2.2702   -2.7612   -3.4926 C   0  0  0  0  0  0  0  0  0  0  0  0
   -1.9431   -3.3600   -2.6544 H   0  0  0  0  0  0  0  0  0  0  0  0
   -1.9919   -1.3772   -3.5022 C   0  0  0  0  0  0  0  0  0  0  0  0
   -1.7683    0.8455    0.1633 C   0  0  0  0  0  0  0  0  0  0  0  0
   -2.7008    1.3294   -0.4770 O   0  0  0  0  0  0  0  0  0  0  0  0
   -1.0703    1.5503    1.0639 N   0  0  0  0  0  0  0  0  0  0  0  0
   -0.2850    1.0953    1.5073 H   0  0  0  0  0  0  0  0  0  0  0  0
   -1.3290    2.9496    1.3916 C   0  0  0  0  0  0  0  0  0  0  0  0
   -2.3847    3.0814    1.6359 H   0  0  0  0  0  0  0  0  0  0  0  0
   -0.7202    3.2545    2.2438 H   0  0  0  0  0  0  0  0  0  0  0  0
   -1.0876    3.5772    0.5321 H   0  0  0  0  0  0  0  0  0  0  0  0
  5  6  2  0  0  0  0
  5  7  1  0  0  0  0
  2  3  1  0  0  0  0
  2  4  1  0  0  0  0
  2  5  1  0  0  0  0
  1  2  1  0  0  0  0
 29 30  2  0  0  0  0
 29 31  1  0  0  0  0
 26 27  1  0  0  0  0
 26 28  2  0  0  0  0
 24 25  1  0  0  0  0
 24 26  1  0  0  0  0
 22 23  1  0  0  0  0
 22 24  2  0  0  0  0
 20 21  1  0  0  0  0
 20 22  1  0  0  0  0
 19 20  2  0  0  0  0
 19 28  1  0  0  0  0
 17 18  1  0  0  0  0
 17 19  1  0  0  0  0
 15 16  1  0  0  0  0
 15 17  1  0  0  0  0
 14 15  2  0  0  0  0
 14 28  1  0  0  0  0
 11 12  1  0  0  0  0
 11 13  1  0  0  0  0
 11 14  1  0  0  0  0
  9 10  1  0  0  0  0
  9 11  1  0  0  0  0
  9 29  1  0  0  0  0
  7  8  1  0  0  0  0
  7  9  1  0  0  0  0
 33 34  1  0  0  0  0
 33 35  1  0  0  0  0
 33 36  1  0  0  0  0
 31 32  1  0  0  0  0
 31 33  1  0  0  0  0
M  END
$$$$
default_name
  -OEChem-12212115393D

 36 37  0     1  0  0  0  0  0999 V2000
   -4.0843   -4.0736    1.2944 H   0  0  0  0  0  0  0  0  0  0  0  0
   -4.0342   -3.2816    0.5484 C   0  0  0  0  0  0  0  0  0  0  0  0
   -4.8842   -2.6126    0.6694 H   0  0  0  0  0  0  0  0  0  0  0  0
   -4.0433   -3.7186   -0.4486 H   0  0  0  0  0  0  0  0  0  0  0  0
   -2.7532   -2.5046    0.7444 C   0  0  0  0  0  0  0  0  0  0  0  0
   -1.9803   -2.8096    1.6434 O   0  0  0  0  0  0  0  0  0  0  0  0
   -2.5332   -1.4966   -0.0966 N   0  0  0  0  0  0  0  0  0  0  0  0
   -3.2312   -1.2816   -0.7936 H   0  0  0  0  0  0  0  0  0  0  0  0
   -1.3593   -0.6196   -0.0536 C   0  0  1  0  0  0  0  0  0  0  0  0
   -0.7341   -0.9139    0.7903 H   0  0  0  0  0  0  0  0  0  0  0  0
   -0.5400   -0.7966   -1.3418 C   0  0  0  0  0  0  0  0  0  0  0  0
    0.3431   -0.1576   -1.2874 H   0  0  0  0  0  0  0  0  0  0  0  0
   -0.1964   -1.8310   -1.3955 H   0  0  0  0  0  0  0  0  0  0  0  0
   -1.2695   -0.4719   -2.6101 C   0  0  0  0  0  0  0  0  0  0  0  0
   -1.3450    0.7501   -3.1833 C   0  0  0  0  0  0  0  0  0  0  0  0
   -0.8975    1.6508   -2.7777 H   0  0  0  0  0  0  0  0  0  0  0  0
   -2.0568    0.6659   -4.3639 N   0  0  0  0  0  0  0  0  0  0  0  0
   -2.2426    1.4591   -4.9601 H   0  0  0  0  0  0  0  0  0  0  0  0
   -2.4637   -0.6262   -4.6202 C   0  0  0  0  0  0  0  0  0  0  0  0
   -3.1709   -1.2161   -5.6777 C   0  0  0  0  0  0  0  0  0  0  0  0
   -3.5153   -0.6167   -6.5076 H   0  0  0  0  0  0  0  0  0  0  0  0
   -3.4266   -2.5975   -5.6415 C   0  0  0  0  0  0  0  0  0  0  0  0
   -3.9715   -3.0697   -6.4478 H   0  0  0  0  0  0  0  0  0  0  0  0
   -2.9783   -3.3650   -4.5509 C   0  0  0  0  0  0  0  0  0  0  0  0
   -3.1846   -4.4261   -4.5231 H   0  0  0  0  0  0  0  0  0  0  0  0
   -2.2702   -2.7612   -3.4926 C   0  0  0  0  0  0  0  0  0  0  0  0
   -1.9431   -3.3600   -2.6544 H   0  0  0  0  0  0  0  0  0  0  0  0
   -1.9919   -1.3772   -3.5022 C   0  0  0  0  0  0  0  0  0  0  0  0
   -1.7683    0.8455    0.1633 C   0  0  0  0  0  0  0  0  0  0  0  0
   -2.8503    1.2549   -0.2554 O   0  0  0  0  0  0  0  0  0  0  0  0
   -0.9031    1.6338    0.8153 N   0  0  0  0  0  0  0  0  0  0  0  0
   -0.0133    1.2347    1.0784 H   0  0  0  0  0  0  0  0  0  0  0  0
   -1.1364    3.0456    1.1062 C   0  0  0  0  0  0  0  0  0  0  0  0
   -2.1047    3.1655    1.5958 H   0  0  0  0  0  0  0  0  0  0  0  0
   -0.3515    3.4292    1.7594 H   0  0  0  0  0  0  0  0  0  0  0  0
   -1.1420    3.6148    0.1752 H   0  0  0  0  0  0  0  0  0  0  0  0
  5  6  2  0  0  0  0
  5  7  1  0  0  0  0
  2  3  1  0  0  0  0
  2  4  1  0  0  0  0
  2  5  1  0  0  0  0
  1  2  1  0  0  0  0
 29 30  2  0  0  0  0
 29 31  1  0  0  0  0
 26 27  1  0  0  0  0
 26 28  2  0  0  0  0
 24 25  1  0  0  0  0
 24 26  1  0  0  0  0
 22 23  1  0  0  0  0
 22 24  2  0  0  0  0
 20 21  1  0  0  0  0
 20 22  1  0  0  0  0
 19 20  2  0  0  0  0
 19 28  1  0  0  0  0
 17 18  1  0  0  0  0
 17 19  1  0  0  0  0
 15 16  1  0  0  0  0
 15 17  1  0  0  0  0
 14 15  2  0  0  0  0
 14 28  1  0  0  0  0
 11 12  1  0  0  0  0
 11 13  1  0  0  0  0
 11 14  1  0  0  0  0
  9 10  1  0  0  0  0
  9 11  1  0  0  0  0
  9 29  1  0  0  0  0
  7  8  1  0  0  0  0
  7  9  1  0  0  0  0
 33 34  1  0  0  0  0
 33 35  1  0  0  0  0
 33 36  1  0  0  0  0
 31 32  1  0  0  0  0
 31 33  1  0  0  0  0
M  END
$$$$
default_name
  -OEChem-12212115393D

 36 37  0     1  0  0  0  0  0999 V2000
   -4.0843   -4.0736    1.2944 H   0  0  0  0  0  0  0  0  0  0  0  0
   -4.0342   -3.2816    0.5484 C   0  0  0  0  0  0  0  0  0  0  0  0
   -4.8842   -2.6126    0.6694 H   0  0  0  0  0  0  0  0  0  0  0  0
   -4.0433   -3.7186   -0.4486 H   0  0  0  0  0  0  0  0  0  0  0  0
   -2.7532   -2.5046    0.7444 C   0  0  0  0  0  0  0  0  0  0  0  0
   -1.9803   -2.8096    1.6434 O   0  0  0  0  0  0  0  0  0  0  0  0
   -2.5332   -1.4966   -0.0966 N   0  0  0  0  0  0  0  0  0  0  0  0
   -3.2312   -1.2816   -0.7936 H   0  0  0  0  0  0  0  0  0  0  0  0
   -1.3593   -0.6196   -0.0536 C   0  0  1  0  0  0  0  0  0  0  0  0
   -0.7341   -0.9139    0.7903 H   0  0  0  0  0  0  0  0  0  0  0  0
   -0.5400   -0.7966   -1.3418 C   0  0  0  0  0  0  0  0  0  0  0  0
    0.3431   -0.1576   -1.2874 H   0  0  0  0  0  0  0  0  0  0  0  0
   -0.1964   -1.8310   -1.3955 H   0  0  0  0  0  0  0  0  0  0  0  0
   -1.2695   -0.4719   -2.6101 C   0  0  0  0  0  0  0  0  0  0  0  0
   -1.3450    0.7501   -3.1833 C   0  0  0  0  0  0  0  0  0  0  0  0
   -0.8975    1.6508   -2.7777 H   0  0  0  0  0  0  0  0  0  0  0  0
   -2.0568    0.6659   -4.3639 N   0  0  0  0  0  0  0  0  0  0  0  0
   -2.2426    1.4591   -4.9601 H   0  0  0  0  0  0  0  0  0  0  0  0
   -2.4637   -0.6262   -4.6202 C   0  0  0  0  0  0  0  0  0  0  0  0
   -3.1709   -1.2161   -5.6777 C   0  0  0  0  0  0  0  0  0  0  0  0
   -3.5153   -0.6167   -6.5076 H   0  0  0  0  0  0  0  0  0  0  0  0
   -3.4266   -2.5975   -5.6415 C   0  0  0  0  0  0  0  0  0  0  0  0
   -3.9715   -3.0697   -6.4478 H   0  0  0  0  0  0  0  0  0  0  0  0
   -2.9783   -3.3650   -4.5509 C   0  0  0  0  0  0  0  0  0  0  0  0
   -3.1846   -4.4261   -4.5231 H   0  0  0  0  0  0  0  0  0  0  0  0
   -2.2702   -2.7612   -3.4926 C   0  0  0  0  0  0  0  0  0  0  0  0
   -1.9431   -3.3600   -2.6544 H   0  0  0  0  0  0  0  0  0  0  0  0
   -1.9919   -1.3772   -3.5022 C   0  0  0  0  0  0  0  0  0  0  0  0
   -1.7683    0.8455    0.1633 C   0  0  0  0  0  0  0  0  0  0  0  0
   -2.9374    1.1927    0.0007 O   0  0  0  0  0  0  0  0  0  0  0  0
   -0.8060    1.7034    0.5282 N   0  0  0  0  0  0  0  0  0  0  0  0
    0.1382    1.3497    0.5874 H   0  0  0  0  0  0  0  0  0  0  0  0
   -1.0243    3.1258    0.7765 C   0  0  0  0  0  0  0  0  0  0  0  0
   -1.8471    3.2543    1.4822 H   0  0  0  0  0  0  0  0  0  0  0  0
   -0.1212    3.5780    1.1884 H   0  0  0  0  0  0  0  0  0  0  0  0
   -1.2840    3.6246   -0.1587 H   0  0  0  0  0  0  0  0  0  0  0  0
  5  6  2  0  0  0  0
  5  7  1  0  0  0  0
  2  3  1  0  0  0  0
  2  4  1  0  0  0  0
  2  5  1  0  0  0  0
  1  2  1  0  0  0  0
 29 30  2  0  0  0  0
 29 31  1  0  0  0  0
 26 27  1  0  0  0  0
 26 28  2  0  0  0  0
 24 25  1  0  0  0  0
 24 26  1  0  0  0  0
 22 23  1  0  0  0  0
 22 24  2  0  0  0  0
 20 21  1  0  0  0  0
 20 22  1  0  0  0  0
 19 20  2  0  0  0  0
 19 28  1  0  0  0  0
 17 18  1  0  0  0  0
 17 19  1  0  0  0  0
 15 16  1  0  0  0  0
 15 17  1  0  0  0  0
 14 15  2  0  0  0  0
 14 28  1  0  0  0  0
 11 12  1  0  0  0  0
 11 13  1  0  0  0  0
 11 14  1  0  0  0  0
  9 10  1  0  0  0  0
  9 11  1  0  0  0  0
  9 29  1  0  0  0  0
  7  8  1  0  0  0  0
  7  9  1  0  0  0  0
 33 34  1  0  0  0  0
 33 35  1  0  0  0  0
 33 36  1  0  0  0  0
 31 32  1  0  0  0  0
 31 33  1  0  0  0  0
M  END
$$$$
default_name
  -OEChem-12212115393D

 36 37  0     1  0  0  0  0  0999 V2000
   -4.0843   -4.0736    1.2944 H   0  0  0  0  0  0  0  0  0  0  0  0
   -4.0342   -3.2816    0.5484 C   0  0  0  0  0  0  0  0  0  0  0  0
   -4.8842   -2.6126    0.6694 H   0  0  0  0  0  0  0  0  0  0  0  0
   -4.0433   -3.7186   -0.4486 H   0  0  0  0  0  0  0  0  0  0  0  0
   -2.7532   -2.5046    0.7444 C   0  0  0  0  0  0  0  0  0  0  0  0
   -1.9803   -2.8096    1.6434 O   0  0  0  0  0  0  0  0  0  0  0  0
   -2.5332   -1.4966   -0.0966 N   0  0  0  0  0  0  0  0  0  0  0  0
   -3.2312   -1.2816   -0.7936 H   0  0  0  0  0  0  0  0  0  0  0  0
   -1.3593   -0.6196   -0.0536 C   0  0  1  0  0  0  0  0  0  0  0  0
   -0.6130   -1.0670    0.6041 H   0  0  0  0  0  0  0  0  0  0  0  0
   -0.7521   -0.5069   -1.4609 C   0  0  0  0  0  0  0  0  0  0  0  0
    0.1344    0.1280   -1.4116 H   0  0  0  0  0  0  0  0  0  0  0  0
   -0.4300   -1.4994   -1.7807 H   0  0  0  0  0  0  0  0  0  0  0  0
   -1.6672    0.0553   -2.5062 C   0  0  0  0  0  0  0  0  0  0  0  0
   -1.8203    1.3673   -2.7942 C   0  0  0  0  0  0  0  0  0  0  0  0
   -1.3073    2.1751   -2.2841 H   0  0  0  0  0  0  0  0  0  0  0  0
   -2.7078    1.5118   -3.8425 N   0  0  0  0  0  0  0  0  0  0  0  0
   -2.9772    2.4065   -4.2249 H   0  0  0  0  0  0  0  0  0  0  0  0
   -3.1609    0.2912   -4.2960 C   0  0  0  0  0  0  0  0  0  0  0  0
   -4.0292   -0.0841   -5.3312 C   0  0  0  0  0  0  0  0  0  0  0  0
   -4.4933    0.6654   -5.9552 H   0  0  0  0  0  0  0  0  0  0  0  0
   -4.2883   -1.4489   -5.5439 C   0  0  0  0  0  0  0  0  0  0  0  0
   -4.9561   -1.7571   -6.3370 H   0  0  0  0  0  0  0  0  0  0  0  0
   -3.6824   -2.4143   -4.7191 C   0  0  0  0  0  0  0  0  0  0  0  0
   -3.8911   -3.4627   -4.8810 H   0  0  0  0  0  0  0  0  0  0  0  0
   -2.8129   -2.0254   -3.6803 C   0  0  0  0  0  0  0  0  0  0  0  0
   -2.3647   -2.7765   -3.0456 H   0  0  0  0  0  0  0  0  0  0  0  0
   -2.5275   -0.6631   -3.4448 C   0  0  0  0  0  0  0  0  0  0  0  0
   -1.7168    0.7588    0.5234 C   0  0  0  0  0  0  0  0  0  0  0  0
   -2.8700    1.0026    0.8758 O   0  0  0  0  0  0  0  0  0  0  0  0
   -0.7290    1.6592    0.6179 N   0  0  0  0  0  0  0  0  0  0  0  0
    0.1775    1.3987    0.2564 H   0  0  0  0  0  0  0  0  0  0  0  0
   -0.8970    3.0110    1.1439 C   0  0  0  0  0  0  0  0  0  0  0  0
   -1.3807    2.9681    2.1216 H   0  0  0  0  0  0  0  0  0  0  0  0
    0.0735    3.4990    1.2422 H   0  0  0  0  0  0  0  0  0  0  0  0
   -1.5265    3.5912    0.4672 H   0  0  0  0  0  0  0  0  0  0  0  0
  5  6  2  0  0  0  0
  5  7  1  0  0  0  0
  2  3  1  0  0  0  0
  2  4  1  0  0  0  0
  2  5  1  0  0  0  0
  1  2  1  0  0  0  0
 29 30  2  0  0  0  0
 29 31  1  0  0  0  0
 26 27  1  0  0  0  0
 26 28  2  0  0  0  0
 24 25  1  0  0  0  0
 24 26  1  0  0  0  0
 22 23  1  0  0  0  0
 22 24  2  0  0  0  0
 20 21  1  0  0  0  0
 20 22  1  0  0  0  0
 19 20  2  0  0  0  0
 19 28  1  0  0  0  0
 17 18  1  0  0  0  0
 17 19  1  0  0  0  0
 15 16  1  0  0  0  0
 15 17  1  0  0  0  0
 14 15  2  0  0  0  0
 14 28  1  0  0  0  0
 11 12  1  0  0  0  0
 11 13  1  0  0  0  0
 11 14  1  0  0  0  0
  9 10  1  0  0  0  0
  9 11  1  0  0  0  0
  9 29  1  0  0  0  0
  7  8  1  0  0  0  0
  7  9  1  0  0  0  0
 33 34  1  0  0  0  0
 33 35  1  0  0  0  0
 33 36  1  0  0  0  0
 31 32  1  0  0  0  0
 31 33  1  0  0  0  0
M  END
$$$$
default_name
  -OEChem-12212115393D

 36 37  0     1  0  0  0  0  0999 V2000
   -4.0843   -4.0736    1.2944 H   0  0  0  0  0  0  0  0  0  0  0  0
   -4.0342   -3.2816    0.5484 C   0  0  0  0  0  0  0  0  0  0  0  0
   -4.8842   -2.6126    0.6694 H   0  0  0  0  0  0  0  0  0  0  0  0
   -4.0433   -3.7186   -0.4486 H   0  0  0  0  0  0  0  0  0  0  0  0
   -2.7532   -2.5046    0.7444 C   0  0  0  0  0  0  0  0  0  0  0  0
   -1.9803   -2.8096    1.6434 O   0  0  0  0  0  0  0  0  0  0  0  0
   -2.5332   -1.4966   -0.0966 N   0  0  0  0  0  0  0  0  0  0  0  0
   -3.2312   -1.2816   -0.7936 H   0  0  0  0  0  0  0  0  0  0  0  0
   -1.3593   -0.6196   -0.0536 C   0  0  1  0  0  0  0  0  0  0  0  0
   -0.6130   -1.0670    0.6041 H   0  0  0  0  0  0  0  0  0  0  0  0
   -0.7521   -0.5069   -1.4609 C   0  0  0  0  0  0  0  0  0  0  0  0
    0.1344    0.1280   -1.4116 H   0  0  0  0  0  0  0  0  0  0  0  0
   -0.4300   -1.4994   -1.7807 H   0  0  0  0  0  0  0  0  0  0  0  0
   -1.6672    0.0553   -2.5062 C   0  0  0  0  0  0  0  0  0  0  0  0
   -1.8203    1.3673   -2.7942 C   0  0  0  0  0  0  0  0  0  0  0  0
   -1.3073    2.1751   -2.2841 H   0  0  0  0  0  0  0  0  0  0  0  0
   -2.7078    1.5118   -3.8425 N   0  0  0  0  0  0  0  0  0  0  0  0
   -2.9772    2.4065   -4.2249 H   0  0  0  0  0  0  0  0  0  0  0  0
   -3.1609    0.2912   -4.2960 C   0  0  0  0  0  0  0  0  0  0  0  0
   -4.0292   -0.0841   -5.3312 C   0  0  0  0  0  0  0  0  0  0  0  0
   -4.4933    0.6654   -5.9552 H   0  0  0  0  0  0  0  0  0  0  0  0
   -4.2883   -1.4489   -5.5439 C   0  0  0  0  0  0  0  0  0  0  0  0
   -4.9561   -1.7571   -6.3370 H   0  0  0  0  0  0  0  0  0  0  0  0
   -3.6824   -2.4143   -4.7191 C   0  0  0  0  0  0  0  0  0  0  0  0
   -3.8911   -3.4627   -4.8810 H   0  0  0  0  0  0  0  0  0  0  0  0
   -2.8129   -2.0254   -3.6803 C   0  0  0  0  0  0  0  0  0  0  0  0
   -2.3647   -2.7765   -3.0456 H   0  0  0  0  0  0  0  0  0  0  0  0
   -2.5275   -0.6631   -3.4448 C   0  0  0  0  0  0  0  0  0  0  0  0
   -1.7168    0.7588    0.5234 C   0  0  0  0  0  0  0  0  0  0  0  0
   -2.7775    0.9223    1.1248 O   0  0  0  0  0  0  0  0  0  0  0  0
   -0.8331    1.7489    0.3389 N   0  0  0  0  0  0  0  0  0  0  0  0
   -0.0115    1.5460   -0.2124 H   0  0  0  0  0  0  0  0  0  0  0  0
   -1.0161    3.1144    0.8232 C   0  0  0  0  0  0  0  0  0  0  0  0
   -1.2556    3.0983    1.8881 H   0  0  0  0  0  0  0  0  0  0  0  0
   -0.1053    3.6936    0.6666 H   0  0  0  0  0  0  0  0  0  0  0  0
   -1.8410    3.5855    0.2860 H   0  0  0  0  0  0  0  0  0  0  0  0
  5  6  2  0  0  0  0
  5  7  1  0  0  0  0
  2  3  1  0  0  0  0
  2  4  1  0  0  0  0
  2  5  1  0  0  0  0
  1  2  1  0  0  0  0
 29 30  2  0  0  0  0
 29 31  1  0  0  0  0
 26 27  1  0  0  0  0
 26 28  2  0  0  0  0
 24 25  1  0  0  0  0
 24 26  1  0  0  0  0
 22 23  1  0  0  0  0
 22 24  2  0  0  0  0
 20 21  1  0  0  0  0
 20 22  1  0  0  0  0
 19 20  2  0  0  0  0
 19 28  1  0  0  0  0
 17 18  1  0  0  0  0
 17 19  1  0  0  0  0
 15 16  1  0  0  0  0
 15 17  1  0  0  0  0
 14 15  2  0  0  0  0
 14 28  1  0  0  0  0
 11 12  1  0  0  0  0
 11 13  1  0  0  0  0
 11 14  1  0  0  0  0
  9 10  1  0  0  0  0
  9 11  1  0  0  0  0
  9 29  1  0  0  0  0
  7  8  1  0  0  0  0
  7  9  1  0  0  0  0
 33 34  1  0  0  0  0
 33 35  1  0  0  0  0
 33 36  1  0  0  0  0
 31 32  1  0  0  0  0
 31 33  1  0  0  0  0
M  END
$$$$
default_name
  -OEChem-12212115393D

 36 37  0     1  0  0  0  0  0999 V2000
   -4.0843   -4.0736    1.2944 H   0  0  0  0  0  0  0  0  0  0  0  0
   -4.0342   -3.2816    0.5484 C   0  0  0  0  0  0  0  0  0  0  0  0
   -4.8842   -2.6126    0.6694 H   0  0  0  0  0  0  0  0  0  0  0  0
   -4.0433   -3.7186   -0.4486 H   0  0  0  0  0  0  0  0  0  0  0  0
   -2.7532   -2.5046    0.7444 C   0  0  0  0  0  0  0  0  0  0  0  0
   -1.9803   -2.8096    1.6434 O   0  0  0  0  0  0  0  0  0  0  0  0
   -2.5332   -1.4966   -0.0966 N   0  0  0  0  0  0  0  0  0  0  0  0
   -3.2312   -1.2816   -0.7936 H   0  0  0  0  0  0  0  0  0  0  0  0
   -1.3593   -0.6196   -0.0536 C   0  0  1  0  0  0  0  0  0  0  0  0
   -0.6130   -1.0670    0.6041 H   0  0  0  0  0  0  0  0  0  0  0  0
   -0.7521   -0.5069   -1.4609 C   0  0  0  0  0  0  0  0  0  0  0  0
    0.1344    0.1280   -1.4116 H   0  0  0  0  0  0  0  0  0  0  0  0
   -0.4300   -1.4994   -1.7807 H   0  0  0  0  0  0  0  0  0  0  0  0
   -1.6672    0.0553   -2.5062 C   0  0  0  0  0  0  0  0  0  0  0  0
   -1.8203    1.3673   -2.7942 C   0  0  0  0  0  0  0  0  0  0  0  0
   -1.3073    2.1751   -2.2841 H   0  0  0  0  0  0  0  0  0  0  0  0
   -2.7078    1.5118   -3.8425 N   0  0  0  0  0  0  0  0  0  0  0  0
   -2.9772    2.4065   -4.2249 H   0  0  0  0  0  0  0  0  0  0  0  0
   -3.1609    0.2912   -4.2960 C   0  0  0  0  0  0  0  0  0  0  0  0
   -4.0292   -0.0841   -5.3312 C   0  0  0  0  0  0  0  0  0  0  0  0
   -4.4933    0.6654   -5.9552 H   0  0  0  0  0  0  0  0  0  0  0  0
   -4.2883   -1.4489   -5.5439 C   0  0  0  0  0  0  0  0  0  0  0  0
   -4.9561   -1.7571   -6.3370 H   0  0  0  0  0  0  0  0  0  0  0  0
   -3.6824   -2.4143   -4.7191 C   0  0  0  0  0  0  0  0  0  0  0  0
   -3.8911   -3.4627   -4.8810 H   0  0  0  0  0  0  0  0  0  0  0  0
   -2.8129   -2.0254   -3.6803 C   0  0  0  0  0  0  0  0  0  0  0  0
   -2.3647   -2.7765   -3.0456 H   0  0  0  0  0  0  0  0  0  0  0  0
   -2.5275   -0.6631   -3.4448 C   0  0  0  0  0  0  0  0  0  0  0  0
   -1.7168    0.7588    0.5234 C   0  0  0  0  0  0  0  0  0  0  0  0
   -2.6225    0.8688    1.3487 O   0  0  0  0  0  0  0  0  0  0  0  0
   -1.0072    1.8087    0.0883 N   0  0  0  0  0  0  0  0  0  0  0  0
   -0.3173    1.6416   -0.6303 H   0  0  0  0  0  0  0  0  0  0  0  0
   -1.2157    3.1833    0.5348 C   0  0  0  0  0  0  0  0  0  0  0  0
   -1.2017    3.2221    1.6257 H   0  0  0  0  0  0  0  0  0  0  0  0
   -0.4305    3.8296    0.1403 H   0  0  0  0  0  0  0  0  0  0  0  0
   -2.1862    3.5384    0.1844 H   0  0  0  0  0  0  0  0  0  0  0  0
  5  6  2  0  0  0  0
  5  7  1  0  0  0  0
  2  3  1  0  0  0  0
  2  4  1  0  0  0  0
  2  5  1  0  0  0  0
  1  2  1  0  0  0  0
 29 30  2  0  0  0  0
 29 31  1  0  0  0  0
 26 27  1  0  0  0  0
 26 28  2  0  0  0  0
 24 25  1  0  0  0  0
 24 26  1  0  0  0  0
 22 23  1  0  0  0  0
 22 24  2  0  0  0  0
 20 21  1  0  0  0  0
 20 22  1  0  0  0  0
 19 20  2  0  0  0  0
 19 28  1  0  0  0  0
 17 18  1  0  0  0  0
 17 19  1  0  0  0  0
 15 16  1  0  0  0  0
 15 17  1  0  0  0  0
 14 15  2  0  0  0  0
 14 28  1  0  0  0  0
 11 12  1  0  0  0  0
 11 13  1  0  0  0  0
 11 14  1  0  0  0  0
  9 10  1  0  0  0  0
  9 11  1  0  0  0  0
  9 29  1  0  0  0  0
  7  8  1  0  0  0  0
  7  9  1  0  0  0  0
 33 34  1  0  0  0  0
 33 35  1  0  0  0  0
 33 36  1  0  0  0  0
 31 32  1  0  0  0  0
 31 33  1  0  0  0  0
M  END
$$$$
default_name
  -OEChem-12212115393D

 36 37  0     1  0  0  0  0  0999 V2000
   -4.0843   -4.0736    1.2944 H   0  0  0  0  0  0  0  0  0  0  0  0
   -4.0342   -3.2816    0.5484 C   0  0  0  0  0  0  0  0  0  0  0  0
   -4.8842   -2.6126    0.6694 H   0  0  0  0  0  0  0  0  0  0  0  0
   -4.0433   -3.7186   -0.4486 H   0  0  0  0  0  0  0  0  0  0  0  0
   -2.7532   -2.5046    0.7444 C   0  0  0  0  0  0  0  0  0  0  0  0
   -1.9803   -2.8096    1.6434 O   0  0  0  0  0  0  0  0  0  0  0  0
   -2.5332   -1.4966   -0.0966 N   0  0  0  0  0  0  0  0  0  0  0  0
   -3.2312   -1.2816   -0.7936 H   0  0  0  0  0  0  0  0  0  0  0  0
   -1.3593   -0.6196   -0.0536 C   0  0  1  0  0  0  0  0  0  0  0  0
   -0.6130   -1.0670    0.6041 H   0  0  0  0  0  0  0  0  0  0  0  0
   -0.7521   -0.5069   -1.4609 C   0  0  0  0  0  0  0  0  0  0  0  0
    0.1344    0.1280   -1.4116 H   0  0  0  0  0  0  0  0  0  0  0  0
   -0.4300   -1.4994   -1.7807 H   0  0  0  0  0  0  0  0  0  0  0  0
   -1.6672    0.0553   -2.5062 C   0  0  0  0  0  0  0  0  0  0  0  0
   -1.8203    1.3673   -2.7942 C   0  0  0  0  0  0  0  0  0  0  0  0
   -1.3073    2.1751   -2.2841 H   0  0  0  0  0  0  0  0  0  0  0  0
   -2.7078    1.5118   -3.8425 N   0  0  0  0  0  0  0  0  0  0  0  0
   -2.9772    2.4065   -4.2249 H   0  0  0  0  0  0  0  0  0  0  0  0
   -3.1609    0.2912   -4.2960 C   0  0  0  0  0  0  0  0  0  0  0  0
   -4.0292   -0.0841   -5.3312 C   0  0  0  0  0  0  0  0  0  0  0  0
   -4.4933    0.6654   -5.9552 H   0  0  0  0  0  0  0  0  0  0  0  0
   -4.2883   -1.4489   -5.5439 C   0  0  0  0  0  0  0  0  0  0  0  0
   -4.9561   -1.7571   -6.3370 H   0  0  0  0  0  0  0  0  0  0  0  0
   -3.6824   -2.4143   -4.7191 C   0  0  0  0  0  0  0  0  0  0  0  0
   -3.8911   -3.4627   -4.8810 H   0  0  0  0  0  0  0  0  0  0  0  0
   -2.8129   -2.0254   -3.6803 C   0  0  0  0  0  0  0  0  0  0  0  0
   -2.3647   -2.7765   -3.0456 H   0  0  0  0  0  0  0  0  0  0  0  0
   -2.5275   -0.6631   -3.4448 C   0  0  0  0  0  0  0  0  0  0  0  0
   -1.7168    0.7588    0.5234 C   0  0  0  0  0  0  0  0  0  0  0  0
   -2.4156    0.8457    1.5322 O   0  0  0  0  0  0  0  0  0  0  0  0
   -1.2393    1.8345   -0.1170 N   0  0  0  0  0  0  0  0  0  0  0  0
   -0.7189    1.6791   -0.9687 H   0  0  0  0  0  0  0  0  0  0  0  0
   -1.4821    3.2131    0.2985 C   0  0  0  0  0  0  0  0  0  0  0  0
   -1.2226    3.3311    1.3523 H   0  0  0  0  0  0  0  0  0  0  0  0
   -0.8801    3.8975   -0.3006 H   0  0  0  0  0  0  0  0  0  0  0  0
   -2.5387    3.4534    0.1693 H   0  0  0  0  0  0  0  0  0  0  0  0
  5  6  2  0  0  0  0
  5  7  1  0  0  0  0
  2  3  1  0  0  0  0
  2  4  1  0  0  0  0
  2  5  1  0  0  0  0
  1  2  1  0  0  0  0
 29 30  2  0  0  0  0
 29 31  1  0  0  0  0
 26 27  1  0  0  0  0
 26 28  2  0  0  0  0
 24 25  1  0  0  0  0
 24 26  1  0  0  0  0
 22 23  1  0  0  0  0
 22 24  2  0  0  0  0
 20 21  1  0  0  0  0
 20 22  1  0  0  0  0
 19 20  2  0  0  0  0
 19 28  1  0  0  0  0
 17 18  1  0  0  0  0
 17 19  1  0  0  0  0
 15 16  1  0  0  0  0
 15 17  1  0  0  0  0
 14 15  2  0  0  0  0
 14 28  1  0  0  0  0
 11 12  1  0  0  0  0
 11 13  1  0  0  0  0
 11 14  1  0  0  0  0
  9 10  1  0  0  0  0
  9 11  1  0  0  0  0
  9 29  1  0  0  0  0
  7  8  1  0  0  0  0
  7  9  1  0  0  0  0
 33 34  1  0  0  0  0
 33 35  1  0  0  0  0
 33 36  1  0  0  0  0
 31 32  1  0  0  0  0
 31 33  1  0  0  0  0
M  END
$$$$
default_name
  -OEChem-12212115393D

 36 37  0     1  0  0  0  0  0999 V2000
   -4.0843   -4.0736    1.2944 H   0  0  0  0  0  0  0  0  0  0  0  0
   -4.0342   -3.2816    0.5484 C   0  0  0  0  0  0  0  0  0  0  0  0
   -4.8842   -2.6126    0.6694 H   0  0  0  0  0  0  0  0  0  0  0  0
   -4.0433   -3.7186   -0.4486 H   0  0  0  0  0  0  0  0  0  0  0  0
   -2.7532   -2.5046    0.7444 C   0  0  0  0  0  0  0  0  0  0  0  0
   -1.9803   -2.8096    1.6434 O   0  0  0  0  0  0  0  0  0  0  0  0
   -2.5332   -1.4966   -0.0966 N   0  0  0  0  0  0  0  0  0  0  0  0
   -3.2312   -1.2816   -0.7936 H   0  0  0  0  0  0  0  0  0  0  0  0
   -1.3593   -0.6196   -0.0536 C   0  0  1  0  0  0  0  0  0  0  0  0
   -0.6130   -1.0670    0.6041 H   0  0  0  0  0  0  0  0  0  0  0  0
   -0.7521   -0.5069   -1.4609 C   0  0  0  0  0  0  0  0  0  0  0  0
    0.1344    0.1280   -1.4116 H   0  0  0  0  0  0  0  0  0  0  0  0
   -0.4300   -1.4994   -1.7807 H   0  0  0  0  0  0  0  0  0  0  0  0
   -1.6672    0.0553   -2.5062 C   0  0  0  0  0  0  0  0  0  0  0  0
   -1.8203    1.3673   -2.7942 C   0  0  0  0  0  0  0  0  0  0  0  0
   -1.3073    2.1751   -2.2841 H   0  0  0  0  0  0  0  0  0  0  0  0
   -2.7078    1.5118   -3.8425 N   0  0  0  0  0  0  0  0  0  0  0  0
   -2.9772    2.4065   -4.2249 H   0  0  0  0  0  0  0  0  0  0  0  0
   -3.1609    0.2912   -4.2960 C   0  0  0  0  0  0  0  0  0  0  0  0
   -4.0292   -0.0841   -5.3312 C   0  0  0  0  0  0  0  0  0  0  0  0
   -4.4933    0.6654   -5.9552 H   0  0  0  0  0  0  0  0  0  0  0  0
   -4.2883   -1.4489   -5.5439 C   0  0  0  0  0  0  0  0  0  0  0  0
   -4.9561   -1.7571   -6.3370 H   0  0  0  0  0  0  0  0  0  0  0  0
   -3.6824   -2.4143   -4.7191 C   0  0  0  0  0  0  0  0  0  0  0  0
   -3.8911   -3.4627   -4.8810 H   0  0  0  0  0  0  0  0  0  0  0  0
   -2.8129   -2.0254   -3.6803 C   0  0  0  0  0  0  0  0  0  0  0  0
   -2.3647   -2.7765   -3.0456 H   0  0  0  0  0  0  0  0  0  0  0  0
   -2.5275   -0.6631   -3.4448 C   0  0  0  0  0  0  0  0  0  0  0  0
   -1.7168    0.7588    0.5234 C   0  0  0  0  0  0  0  0  0  0  0  0
   -2.1709    0.8544    1.6628 O   0  0  0  0  0  0  0  0  0  0  0  0
   -1.5137    1.8244   -0.2630 N   0  0  0  0  0  0  0  0  0  0  0  0
   -1.1891    1.6559   -1.2045 H   0  0  0  0  0  0  0  0  0  0  0  0
   -1.7972    3.2018    0.1303 C   0  0  0  0  0  0  0  0  0  0  0  0
   -1.3168    3.4180    1.0864 H   0  0  0  0  0  0  0  0  0  0  0  0
   -1.4233    3.8930   -0.6262 H   0  0  0  0  0  0  0  0  0  0  0  0
   -2.8745    3.3360    0.2416 H   0  0  0  0  0  0  0  0  0  0  0  0
  5  6  2  0  0  0  0
  5  7  1  0  0  0  0
  2  3  1  0  0  0  0
  2  4  1  0  0  0  0
  2  5  1  0  0  0  0
  1  2  1  0  0  0  0
 29 30  2  0  0  0  0
 29 31  1  0  0  0  0
 26 27  1  0  0  0  0
 26 28  2  0  0  0  0
 24 25  1  0  0  0  0
 24 26  1  0  0  0  0
 22 23  1  0  0  0  0
 22 24  2  0  0  0  0
 20 21  1  0  0  0  0
 20 22  1  0  0  0  0
 19 20  2  0  0  0  0
 19 28  1  0  0  0  0
 17 18  1  0  0  0  0
 17 19  1  0  0  0  0
 15 16  1  0  0  0  0
 15 17  1  0  0  0  0
 14 15  2  0  0  0  0
 14 28  1  0  0  0  0
 11 12  1  0  0  0  0
 11 13  1  0  0  0  0
 11 14  1  0  0  0  0
  9 10  1  0  0  0  0
  9 11  1  0  0  0  0
  9 29  1  0  0  0  0
  7  8  1  0  0  0  0
  7  9  1  0  0  0  0
 33 34  1  0  0  0  0
 33 35  1  0  0  0  0
 33 36  1  0  0  0  0
 31 32  1  0  0  0  0
 31 33  1  0  0  0  0
M  END
$$$$
default_name
  -OEChem-12212115393D

 36 37  0     1  0  0  0  0  0999 V2000
   -4.0843   -4.0736    1.2944 H   0  0  0  0  0  0  0  0  0  0  0  0
   -4.0342   -3.2816    0.5484 C   0  0  0  0  0  0  0  0  0  0  0  0
   -4.8842   -2.6126    0.6694 H   0  0  0  0  0  0  0  0  0  0  0  0
   -4.0433   -3.7186   -0.4486 H   0  0  0  0  0  0  0  0  0  0  0  0
   -2.7532   -2.5046    0.7444 C   0  0  0  0  0  0  0  0  0  0  0  0
   -1.9803   -2.8096    1.6434 O   0  0  0  0  0  0  0  0  0  0  0  0
   -2.5332   -1.4966   -0.0966 N   0  0  0  0  0  0  0  0  0  0  0  0
   -3.2312   -1.2816   -0.7936 H   0  0  0  0  0  0  0  0  0  0  0  0
   -1.3593   -0.6196   -0.0536 C   0  0  1  0  0  0  0  0  0  0  0  0
   -0.6130   -1.0670    0.6041 H   0  0  0  0  0  0  0  0  0  0  0  0
   -0.7521   -0.5069   -1.4609 C   0  0  0  0  0  0  0  0  0  0  0  0
    0.1344    0.1280   -1.4116 H   0  0  0  0  0  0  0  0  0  0  0  0
   -0.4300   -1.4994   -1.7807 H   0  0  0  0  0  0  0  0  0  0  0  0
   -1.6672    0.0553   -2.5062 C   0  0  0  0  0  0  0  0  0  0  0  0
   -1.8203    1.3673   -2.7942 C   0  0  0  0  0  0  0  0  0  0  0  0
   -1.3073    2.1751   -2.2841 H   0  0  0  0  0  0  0  0  0  0  0  0
   -2.7078    1.5118   -3.8425 N   0  0  0  0  0  0  0  0  0  0  0  0
   -2.9772    2.4065   -4.2249 H   0  0  0  0  0  0  0  0  0  0  0  0
   -3.1609    0.2912   -4.2960 C   0  0  0  0  0  0  0  0  0  0  0  0
   -4.0292   -0.0841   -5.3312 C   0  0  0  0  0  0  0  0  0  0  0  0
   -4.4933    0.6654   -5.9552 H   0  0  0  0  0  0  0  0  0  0  0  0
   -4.2883   -1.4489   -5.5439 C   0  0  0  0  0  0  0  0  0  0  0  0
   -4.9561   -1.7571   -6.3370 H   0  0  0  0  0  0  0  0  0  0  0  0
   -3.6824   -2.4143   -4.7191 C   0  0  0  0  0  0  0  0  0  0  0  0
   -3.8911   -3.4627   -4.8810 H   0  0  0  0  0  0  0  0  0  0  0  0
   -2.8129   -2.0254   -3.6803 C   0  0  0  0  0  0  0  0  0  0  0  0
   -2.3647   -2.7765   -3.0456 H   0  0  0  0  0  0  0  0  0  0  0  0
   -2.5275   -0.6631   -3.4448 C   0  0  0  0  0  0  0  0  0  0  0  0
   -1.7168    0.7588    0.5234 C   0  0  0  0  0  0  0  0  0  0  0  0
   -1.9051    0.8946    1.7316 O   0  0  0  0  0  0  0  0  0  0  0  0
   -1.8116    1.7792   -0.3397 N   0  0  0  0  0  0  0  0  0  0  0  0
   -1.6957    1.5735   -1.3218 H   0  0  0  0  0  0  0  0  0  0  0  0
   -2.1396    3.1501    0.0416 C   0  0  0  0  0  0  0  0  0  0  0  0
   -1.4780    3.4767    0.8463 H   0  0  0  0  0  0  0  0  0  0  0  0
   -2.0232    3.8161   -0.8143 H   0  0  0  0  0  0  0  0  0  0  0  0
   -3.1706    3.1944    0.3965 H   0  0  0  0  0  0  0  0  0  0  0  0
  5  6  2  0  0  0  0
  5  7  1  0  0  0  0
  2  3  1  0  0  0  0
  2  4  1  0  0  0  0
  2  5  1  0  0  0  0
  1  2  1  0  0  0  0
 29 30  2  0  0  0  0
 29 31  1  0  0  0  0
 26 27  1  0  0  0  0
 26 28  2  0  0  0  0
 24 25  1  0  0  0  0
 24 26  1  0  0  0  0
 22 23  1  0  0  0  0
 22 24  2  0  0  0  0
 20 21  1  0  0  0  0
 20 22  1  0  0  0  0
 19 20  2  0  0  0  0
 19 28  1  0  0  0  0
 17 18  1  0  0  0  0
 17 19  1  0  0  0  0
 15 16  1  0  0  0  0
 15 17  1  0  0  0  0
 14 15  2  0  0  0  0
 14 28  1  0  0  0  0
 11 12  1  0  0  0  0
 11 13  1  0  0  0  0
 11 14  1  0  0  0  0
  9 10  1  0  0  0  0
  9 11  1  0  0  0  0
  9 29  1  0  0  0  0
  7  8  1  0  0  0  0
  7  9  1  0  0  0  0
 33 34  1  0  0  0  0
 33 35  1  0  0  0  0
 33 36  1  0  0  0  0
 31 32  1  0  0  0  0
 31 33  1  0  0  0  0
M  END
$$$$
default_name
  -OEChem-12212115393D

 36 37  0     1  0  0  0  0  0999 V2000
   -4.0843   -4.0736    1.2944 H   0  0  0  0  0  0  0  0  0  0  0  0
   -4.0342   -3.2816    0.5484 C   0  0  0  0  0  0  0  0  0  0  0  0
   -4.8842   -2.6126    0.6694 H   0  0  0  0  0  0  0  0  0  0  0  0
   -4.0433   -3.7186   -0.4486 H   0  0  0  0  0  0  0  0  0  0  0  0
   -2.7532   -2.5046    0.7444 C   0  0  0  0  0  0  0  0  0  0  0  0
   -1.9803   -2.8096    1.6434 O   0  0  0  0  0  0  0  0  0  0  0  0
   -2.5332   -1.4966   -0.0966 N   0  0  0  0  0  0  0  0  0  0  0  0
   -3.2312   -1.2816   -0.7936 H   0  0  0  0  0  0  0  0  0  0  0  0
   -1.3593   -0.6196   -0.0536 C   0  0  1  0  0  0  0  0  0  0  0  0
   -0.6130   -1.0670    0.6041 H   0  0  0  0  0  0  0  0  0  0  0  0
   -0.7521   -0.5069   -1.4609 C   0  0  0  0  0  0  0  0  0  0  0  0
    0.1344    0.1280   -1.4116 H   0  0  0  0  0  0  0  0  0  0  0  0
   -0.4300   -1.4994   -1.7807 H   0  0  0  0  0  0  0  0  0  0  0  0
   -1.6672    0.0553   -2.5062 C   0  0  0  0  0  0  0  0  0  0  0  0
   -1.8203    1.3673   -2.7942 C   0  0  0  0  0  0  0  0  0  0  0  0
   -1.3073    2.1751   -2.2841 H   0  0  0  0  0  0  0  0  0  0  0  0
   -2.7078    1.5118   -3.8425 N   0  0  0  0  0  0  0  0  0  0  0  0
   -2.9772    2.4065   -4.2249 H   0  0  0  0  0  0  0  0  0  0  0  0
   -3.1609    0.2912   -4.2960 C   0  0  0  0  0  0  0  0  0  0  0  0
   -4.0292   -0.0841   -5.3312 C   0  0  0  0  0  0  0  0  0  0  0  0
   -4.4933    0.6654   -5.9552 H   0  0  0  0  0  0  0  0  0  0  0  0
   -4.2883   -1.4489   -5.5439 C   0  0  0  0  0  0  0  0  0  0  0  0
   -4.9561   -1.7571   -6.3370 H   0  0  0  0  0  0  0  0  0  0  0  0
   -3.6824   -2.4143   -4.7191 C   0  0  0  0  0  0  0  0  0  0  0  0
   -3.8911   -3.4627   -4.8810 H   0  0  0  0  0  0  0  0  0  0  0  0
   -2.8129   -2.0254   -3.6803 C   0  0  0  0  0  0  0  0  0  0  0  0
   -2.3647   -2.7765   -3.0456 H   0  0  0  0  0  0  0  0  0  0  0  0
   -2.5275   -0.6631   -3.4448 C   0  0  0  0  0  0  0  0  0  0  0  0
   -1.7168    0.7588    0.5234 C   0  0  0  0  0  0  0  0  0  0  0  0
   -1.6363    0.9634    1.7339 O   0  0  0  0  0  0  0  0  0  0  0  0
   -2.1129    1.7020   -0.3418 N   0  0  0  0  0  0  0  0  0  0  0  0
   -2.2043    1.4377   -1.3124 H   0  0  0  0  0  0  0  0  0  0  0  0
   -2.4858    3.0616    0.0386 C   0  0  0  0  0  0  0  0  0  0  0  0
   -1.6952    3.5033    0.6482 H   0  0  0  0  0  0  0  0  0  0  0  0
   -2.6389    3.6723   -0.8521 H   0  0  0  0  0  0  0  0  0  0  0  0
   -3.4069    3.0381    0.6234 H   0  0  0  0  0  0  0  0  0  0  0  0
  5  6  2  0  0  0  0
  5  7  1  0  0  0  0
  2  3  1  0  0  0  0
  2  4  1  0  0  0  0
  2  5  1  0  0  0  0
  1  2  1  0  0  0  0
 29 30  2  0  0  0  0
 29 31  1  0  0  0  0
 26 27  1  0  0  0  0
 26 28  2  0  0  0  0
 24 25  1  0  0  0  0
 24 26  1  0  0  0  0
 22 23  1  0  0  0  0
 22 24  2  0  0  0  0
 20 21  1  0  0  0  0
 20 22  1  0  0  0  0
 19 20  2  0  0  0  0
 19 28  1  0  0  0  0
 17 18  1  0  0  0  0
 17 19  1  0  0  0  0
 15 16  1  0  0  0  0
 15 17  1  0  0  0  0
 14 15  2  0  0  0  0
 14 28  1  0  0  0  0
 11 12  1  0  0  0  0
 11 13  1  0  0  0  0
 11 14  1  0  0  0  0
  9 10  1  0  0  0  0
  9 11  1  0  0  0  0
  9 29  1  0  0  0  0
  7  8  1  0  0  0  0
  7  9  1  0  0  0  0
 33 34  1  0  0  0  0
 33 35  1  0  0  0  0
 33 36  1  0  0  0  0
 31 32  1  0  0  0  0
 31 33  1  0  0  0  0
M  END
$$$$
default_name
  -OEChem-12212115393D

 36 37  0     1  0  0  0  0  0999 V2000
   -4.0843   -4.0736    1.2944 H   0  0  0  0  0  0  0  0  0  0  0  0
   -4.0342   -3.2816    0.5484 C   0  0  0  0  0  0  0  0  0  0  0  0
   -4.8842   -2.6126    0.6694 H   0  0  0  0  0  0  0  0  0  0  0  0
   -4.0433   -3.7186   -0.4486 H   0  0  0  0  0  0  0  0  0  0  0  0
   -2.7532   -2.5046    0.7444 C   0  0  0  0  0  0  0  0  0  0  0  0
   -1.9803   -2.8096    1.6434 O   0  0  0  0  0  0  0  0  0  0  0  0
   -2.5332   -1.4966   -0.0966 N   0  0  0  0  0  0  0  0  0  0  0  0
   -3.2312   -1.2816   -0.7936 H   0  0  0  0  0  0  0  0  0  0  0  0
   -1.3593   -0.6196   -0.0536 C   0  0  1  0  0  0  0  0  0  0  0  0
   -0.6130   -1.0670    0.6041 H   0  0  0  0  0  0  0  0  0  0  0  0
   -0.7521   -0.5069   -1.4609 C   0  0  0  0  0  0  0  0  0  0  0  0
    0.1344    0.1280   -1.4116 H   0  0  0  0  0  0  0  0  0  0  0  0
   -0.4300   -1.4994   -1.7807 H   0  0  0  0  0  0  0  0  0  0  0  0
   -1.6672    0.0553   -2.5062 C   0  0  0  0  0  0  0  0  0  0  0  0
   -1.8203    1.3673   -2.7942 C   0  0  0  0  0  0  0  0  0  0  0  0
   -1.3073    2.1751   -2.2841 H   0  0  0  0  0  0  0  0  0  0  0  0
   -2.7078    1.5118   -3.8425 N   0  0  0  0  0  0  0  0  0  0  0  0
   -2.9772    2.4065   -4.2249 H   0  0  0  0  0  0  0  0  0  0  0  0
   -3.1609    0.2912   -4.2960 C   0  0  0  0  0  0  0  0  0  0  0  0
   -4.0292   -0.0841   -5.3312 C   0  0  0  0  0  0  0  0  0  0  0  0
   -4.4933    0.6654   -5.9552 H   0  0  0  0  0  0  0  0  0  0  0  0
   -4.2883   -1.4489   -5.5439 C   0  0  0  0  0  0  0  0  0  0  0  0
   -4.9561   -1.7571   -6.3370 H   0  0  0  0  0  0  0  0  0  0  0  0
   -3.6824   -2.4143   -4.7191 C   0  0  0  0  0  0  0  0  0  0  0  0
   -3.8911   -3.4627   -4.8810 H   0  0  0  0  0  0  0  0  0  0  0  0
   -2.8129   -2.0254   -3.6803 C   0  0  0  0  0  0  0  0  0  0  0  0
   -2.3647   -2.7765   -3.0456 H   0  0  0  0  0  0  0  0  0  0  0  0
   -2.5275   -0.6631   -3.4448 C   0  0  0  0  0  0  0  0  0  0  0  0
   -1.7168    0.7588    0.5234 C   0  0  0  0  0  0  0  0  0  0  0  0
   -1.3827    1.0560    1.6696 O   0  0  0  0  0  0  0  0  0  0  0  0
   -2.3968    1.5980   -0.2693 N   0  0  0  0  0  0  0  0  0  0  0  0
   -2.6802    1.2576   -1.1771 H   0  0  0  0  0  0  0  0  0  0  0  0
   -2.8124    2.9422    0.1214 C   0  0  0  0  0  0  0  0  0  0  0  0
   -1.9536    3.4959    0.5057 H   0  0  0  0  0  0  0  0  0  0  0  0
   -3.2283    3.4712   -0.7370 H   0  0  0  0  0  0  0  0  0  0  0  0
   -3.5672    2.8779    0.9069 H   0  0  0  0  0  0  0  0  0  0  0  0
  5  6  2  0  0  0  0
  5  7  1  0  0  0  0
  2  3  1  0  0  0  0
  2  4  1  0  0  0  0
  2  5  1  0  0  0  0
  1  2  1  0  0  0  0
 29 30  2  0  0  0  0
 29 31  1  0  0  0  0
 26 27  1  0  0  0  0
 26 28  2  0  0  0  0
 24 25  1  0  0  0  0
 24 26  1  0  0  0  0
 22 23  1  0  0  0  0
 22 24  2  0  0  0  0
 20 21  1  0  0  0  0
 20 22  1  0  0  0  0
 19 20  2  0  0  0  0
 19 28  1  0  0  0  0
 17 18  1  0  0  0  0
 17 19  1  0  0  0  0
 15 16  1  0  0  0  0
 15 17  1  0  0  0  0
 14 15  2  0  0  0  0
 14 28  1  0  0  0  0
 11 12  1  0  0  0  0
 11 13  1  0  0  0  0
 11 14  1  0  0  0  0
  9 10  1  0  0  0  0
  9 11  1  0  0  0  0
  9 29  1  0  0  0  0
  7  8  1  0  0  0  0
  7  9  1  0  0  0  0
 33 34  1  0  0  0  0
 33 35  1  0  0  0  0
 33 36  1  0  0  0  0
 31 32  1  0  0  0  0
 31 33  1  0  0  0  0
M  END
$$$$
default_name
  -OEChem-12212115393D

 36 37  0     1  0  0  0  0  0999 V2000
   -4.0843   -4.0736    1.2944 H   0  0  0  0  0  0  0  0  0  0  0  0
   -4.0342   -3.2816    0.5484 C   0  0  0  0  0  0  0  0  0  0  0  0
   -4.8842   -2.6126    0.6694 H   0  0  0  0  0  0  0  0  0  0  0  0
   -4.0433   -3.7186   -0.4486 H   0  0  0  0  0  0  0  0  0  0  0  0
   -2.7532   -2.5046    0.7444 C   0  0  0  0  0  0  0  0  0  0  0  0
   -1.9803   -2.8096    1.6434 O   0  0  0  0  0  0  0  0  0  0  0  0
   -2.5332   -1.4966   -0.0966 N   0  0  0  0  0  0  0  0  0  0  0  0
   -3.2312   -1.2816   -0.7936 H   0  0  0  0  0  0  0  0  0  0  0  0
   -1.3593   -0.6196   -0.0536 C   0  0  1  0  0  0  0  0  0  0  0  0
   -0.6130   -1.0670    0.6041 H   0  0  0  0  0  0  0  0  0  0  0  0
   -0.7521   -0.5069   -1.4609 C   0  0  0  0  0  0  0  0  0  0  0  0
    0.1344    0.1280   -1.4116 H   0  0  0  0  0  0  0  0  0  0  0  0
   -0.4300   -1.4994   -1.7807 H   0  0  0  0  0  0  0  0  0  0  0  0
   -1.6672    0.0553   -2.5062 C   0  0  0  0  0  0  0  0  0  0  0  0
   -1.8203    1.3673   -2.7942 C   0  0  0  0  0  0  0  0  0  0  0  0
   -1.3073    2.1751   -2.2841 H   0  0  0  0  0  0  0  0  0  0  0  0
   -2.7078    1.5118   -3.8425 N   0  0  0  0  0  0  0  0  0  0  0  0
   -2.9772    2.4065   -4.2249 H   0  0  0  0  0  0  0  0  0  0  0  0
   -3.1609    0.2912   -4.2960 C   0  0  0  0  0  0  0  0  0  0  0  0
   -4.0292   -0.0841   -5.3312 C   0  0  0  0  0  0  0  0  0  0  0  0
   -4.4933    0.6654   -5.9552 H   0  0  0  0  0  0  0  0  0  0  0  0
   -4.2883   -1.4489   -5.5439 C   0  0  0  0  0  0  0  0  0  0  0  0
   -4.9561   -1.7571   -6.3370 H   0  0  0  0  0  0  0  0  0  0  0  0
   -3.6824   -2.4143   -4.7191 C   0  0  0  0  0  0  0  0  0  0  0  0
   -3.8911   -3.4627   -4.8810 H   0  0  0  0  0  0  0  0  0  0  0  0
   -2.8129   -2.0254   -3.6803 C   0  0  0  0  0  0  0  0  0  0  0  0
   -2.3647   -2.7765   -3.0456 H   0  0  0  0  0  0  0  0  0  0  0  0
   -2.5275   -0.6631   -3.4448 C   0  0  0  0  0  0  0  0  0  0  0  0
   -1.7168    0.7588    0.5234 C   0  0  0  0  0  0  0  0  0  0  0  0
   -1.1618    1.1663    1.5430 O   0  0  0  0  0  0  0  0  0  0  0  0
   -2.6441    1.4743   -0.1271 N   0  0  0  0  0  0  0  0  0  0  0  0
   -3.0910    1.0456   -0.9251 H   0  0  0  0  0  0  0  0  0  0  0  0
   -3.0969    2.8002    0.2844 C   0  0  0  0  0  0  0  0  0  0  0  0
   -2.2355    3.4551    0.4285 H   0  0  0  0  0  0  0  0  0  0  0  0
   -3.7515    3.2266   -0.4768 H   0  0  0  0  0  0  0  0  0  0  0  0
   -3.6407    2.7246    1.2275 H   0  0  0  0  0  0  0  0  0  0  0  0
  5  6  2  0  0  0  0
  5  7  1  0  0  0  0
  2  3  1  0  0  0  0
  2  4  1  0  0  0  0
  2  5  1  0  0  0  0
  1  2  1  0  0  0  0
 29 30  2  0  0  0  0
 29 31  1  0  0  0  0
 26 27  1  0  0  0  0
 26 28  2  0  0  0  0
 24 25  1  0  0  0  0
 24 26  1  0  0  0  0
 22 23  1  0  0  0  0
 22 24  2  0  0  0  0
 20 21  1  0  0  0  0
 20 22  1  0  0  0  0
 19 20  2  0  0  0  0
 19 28  1  0  0  0  0
 17 18  1  0  0  0  0
 17 19  1  0  0  0  0
 15 16  1  0  0  0  0
 15 17  1  0  0  0  0
 14 15  2  0  0  0  0
 14 28  1  0  0  0  0
 11 12  1  0  0  0  0
 11 13  1  0  0  0  0
 11 14  1  0  0  0  0
  9 10  1  0  0  0  0
  9 11  1  0  0  0  0
  9 29  1  0  0  0  0
  7  8  1  0  0  0  0
  7  9  1  0  0  0  0
 33 34  1  0  0  0  0
 33 35  1  0  0  0  0
 33 36  1  0  0  0  0
 31 32  1  0  0  0  0
 31 33  1  0  0  0  0
M  END
$$$$
default_name
  -OEChem-12212115393D

 36 37  0     1  0  0  0  0  0999 V2000
   -4.0843   -4.0736    1.2944 H   0  0  0  0  0  0  0  0  0  0  0  0
   -4.0342   -3.2816    0.5484 C   0  0  0  0  0  0  0  0  0  0  0  0
   -4.8842   -2.6126    0.6694 H   0  0  0  0  0  0  0  0  0  0  0  0
   -4.0433   -3.7186   -0.4486 H   0  0  0  0  0  0  0  0  0  0  0  0
   -2.7532   -2.5046    0.7444 C   0  0  0  0  0  0  0  0  0  0  0  0
   -1.9803   -2.8096    1.6434 O   0  0  0  0  0  0  0  0  0  0  0  0
   -2.5332   -1.4966   -0.0966 N   0  0  0  0  0  0  0  0  0  0  0  0
   -3.2312   -1.2816   -0.7936 H   0  0  0  0  0  0  0  0  0  0  0  0
   -1.3593   -0.6196   -0.0536 C   0  0  1  0  0  0  0  0  0  0  0  0
   -0.6130   -1.0670    0.6041 H   0  0  0  0  0  0  0  0  0  0  0  0
   -0.7521   -0.5069   -1.4609 C   0  0  0  0  0  0  0  0  0  0  0  0
    0.1344    0.1280   -1.4116 H   0  0  0  0  0  0  0  0  0  0  0  0
   -0.4300   -1.4994   -1.7807 H   0  0  0  0  0  0  0  0  0  0  0  0
   -1.6672    0.0553   -2.5062 C   0  0  0  0  0  0  0  0  0  0  0  0
   -1.8203    1.3673   -2.7942 C   0  0  0  0  0  0  0  0  0  0  0  0
   -1.3073    2.1751   -2.2841 H   0  0  0  0  0  0  0  0  0  0  0  0
   -2.7078    1.5118   -3.8425 N   0  0  0  0  0  0  0  0  0  0  0  0
   -2.9772    2.4065   -4.2249 H   0  0  0  0  0  0  0  0  0  0  0  0
   -3.1609    0.2912   -4.2960 C   0  0  0  0  0  0  0  0  0  0  0  0
   -4.0292   -0.0841   -5.3312 C   0  0  0  0  0  0  0  0  0  0  0  0
   -4.4933    0.6654   -5.9552 H   0  0  0  0  0  0  0  0  0  0  0  0
   -4.2883   -1.4489   -5.5439 C   0  0  0  0  0  0  0  0  0  0  0  0
   -4.9561   -1.7571   -6.3370 H   0  0  0  0  0  0  0  0  0  0  0  0
   -3.6824   -2.4143   -4.7191 C   0  0  0  0  0  0  0  0  0  0  0  0
   -3.8911   -3.4627   -4.8810 H   0  0  0  0  0  0  0  0  0  0  0  0
   -2.8129   -2.0254   -3.6803 C   0  0  0  0  0  0  0  0  0  0  0  0
   -2.3647   -2.7765   -3.0456 H   0  0  0  0  0  0  0  0  0  0  0  0
   -2.5275   -0.6631   -3.4448 C   0  0  0  0  0  0  0  0  0  0  0  0
   -1.7168    0.7588    0.5234 C   0  0  0  0  0  0  0  0  0  0  0  0
   -0.9884    1.2867    1.3628 O   0  0  0  0  0  0  0  0  0  0  0  0
   -2.8380    1.3394    0.0752 N   0  0  0  0  0  0  0  0  0  0  0  0
   -3.4086    0.8160   -0.5735 H   0  0  0  0  0  0  0  0  0  0  0  0
   -3.3202    2.6452    0.5165 C   0  0  0  0  0  0  0  0  0  0  0  0
   -2.5218    3.3836    0.4219 H   0  0  0  0  0  0  0  0  0  0  0  0
   -4.1726    2.9552   -0.0893 H   0  0  0  0  0  0  0  0  0  0  0  0
   -3.6224    2.5887    1.5636 H   0  0  0  0  0  0  0  0  0  0  0  0
  5  6  2  0  0  0  0
  5  7  1  0  0  0  0
  2  3  1  0  0  0  0
  2  4  1  0  0  0  0
  2  5  1  0  0  0  0
  1  2  1  0  0  0  0
 29 30  2  0  0  0  0
 29 31  1  0  0  0  0
 26 27  1  0  0  0  0
 26 28  2  0  0  0  0
 24 25  1  0  0  0  0
 24 26  1  0  0  0  0
 22 23  1  0  0  0  0
 22 24  2  0  0  0  0
 20 21  1  0  0  0  0
 20 22  1  0  0  0  0
 19 20  2  0  0  0  0
 19 28  1  0  0  0  0
 17 18  1  0  0  0  0
 17 19  1  0  0  0  0
 15 16  1  0  0  0  0
 15 17  1  0  0  0  0
 14 15  2  0  0  0  0
 14 28  1  0  0  0  0
 11 12  1  0  0  0  0
 11 13  1  0  0  0  0
 11 14  1  0  0  0  0
  9 10  1  0  0  0  0
  9 11  1  0  0  0  0
  9 29  1  0  0  0  0
  7  8  1  0  0  0  0
  7  9  1  0  0  0  0
 33 34  1  0  0  0  0
 33 35  1  0  0  0  0
 33 36  1  0  0  0  0
 31 32  1  0  0  0  0
 31 33  1  0  0  0  0
M  END
$$$$
default_name
  -OEChem-12212115393D

 36 37  0     1  0  0  0  0  0999 V2000
   -4.0843   -4.0736    1.2944 H   0  0  0  0  0  0  0  0  0  0  0  0
   -4.0342   -3.2816    0.5484 C   0  0  0  0  0  0  0  0  0  0  0  0
   -4.8842   -2.6126    0.6694 H   0  0  0  0  0  0  0  0  0  0  0  0
   -4.0433   -3.7186   -0.4486 H   0  0  0  0  0  0  0  0  0  0  0  0
   -2.7532   -2.5046    0.7444 C   0  0  0  0  0  0  0  0  0  0  0  0
   -1.9803   -2.8096    1.6434 O   0  0  0  0  0  0  0  0  0  0  0  0
   -2.5332   -1.4966   -0.0966 N   0  0  0  0  0  0  0  0  0  0  0  0
   -3.2312   -1.2816   -0.7936 H   0  0  0  0  0  0  0  0  0  0  0  0
   -1.3593   -0.6196   -0.0536 C   0  0  1  0  0  0  0  0  0  0  0  0
   -0.6130   -1.0670    0.6041 H   0  0  0  0  0  0  0  0  0  0  0  0
   -0.7521   -0.5069   -1.4609 C   0  0  0  0  0  0  0  0  0  0  0  0
    0.1344    0.1280   -1.4116 H   0  0  0  0  0  0  0  0  0  0  0  0
   -0.4300   -1.4994   -1.7807 H   0  0  0  0  0  0  0  0  0  0  0  0
   -1.6672    0.0553   -2.5062 C   0  0  0  0  0  0  0  0  0  0  0  0
   -1.8203    1.3673   -2.7942 C   0  0  0  0  0  0  0  0  0  0  0  0
   -1.3073    2.1751   -2.2841 H   0  0  0  0  0  0  0  0  0  0  0  0
   -2.7078    1.5118   -3.8425 N   0  0  0  0  0  0  0  0  0  0  0  0
   -2.9772    2.4065   -4.2249 H   0  0  0  0  0  0  0  0  0  0  0  0
   -3.1609    0.2912   -4.2960 C   0  0  0  0  0  0  0  0  0  0  0  0
   -4.0292   -0.0841   -5.3312 C   0  0  0  0  0  0  0  0  0  0  0  0
   -4.4933    0.6654   -5.9552 H   0  0  0  0  0  0  0  0  0  0  0  0
   -4.2883   -1.4489   -5.5439 C   0  0  0  0  0  0  0  0  0  0  0  0
   -4.9561   -1.7571   -6.3370 H   0  0  0  0  0  0  0  0  0  0  0  0
   -3.6824   -2.4143   -4.7191 C   0  0  0  0  0  0  0  0  0  0  0  0
   -3.8911   -3.4627   -4.8810 H   0  0  0  0  0  0  0  0  0  0  0  0
   -2.8129   -2.0254   -3.6803 C   0  0  0  0  0  0  0  0  0  0  0  0
   -2.3647   -2.7765   -3.0456 H   0  0  0  0  0  0  0  0  0  0  0  0
   -2.5275   -0.6631   -3.4448 C   0  0  0  0  0  0  0  0  0  0  0  0
   -1.7168    0.7588    0.5234 C   0  0  0  0  0  0  0  0  0  0  0  0
   -0.8746    1.4090    1.1412 O   0  0  0  0  0  0  0  0  0  0  0  0
   -2.9652    1.2024    0.3237 N   0  0  0  0  0  0  0  0  0  0  0  0
   -3.6115    0.5846   -0.1463 H   0  0  0  0  0  0  0  0  0  0  0  0
   -3.4668    2.4877    0.8018 C   0  0  0  0  0  0  0  0  0  0  0  0
   -2.7929    3.2864    0.4863 H   0  0  0  0  0  0  0  0  0  0  0  0
   -4.4630    2.6754    0.3991 H   0  0  0  0  0  0  0  0  0  0  0  0
   -3.5134    2.4794    1.8921 H   0  0  0  0  0  0  0  0  0  0  0  0
  5  6  2  0  0  0  0
  5  7  1  0  0  0  0
  2  3  1  0  0  0  0
  2  4  1  0  0  0  0
  2  5  1  0  0  0  0
  1  2  1  0  0  0  0
 29 30  2  0  0  0  0
 29 31  1  0  0  0  0
 26 27  1  0  0  0  0
 26 28  2  0  0  0  0
 24 25  1  0  0  0  0
 24 26  1  0  0  0  0
 22 23  1  0  0  0  0
 22 24  2  0  0  0  0
 20 21  1  0  0  0  0
 20 22  1  0  0  0  0
 19 20  2  0  0  0  0
 19 28  1  0  0  0  0
 17 18  1  0  0  0  0
 17 19  1  0  0  0  0
 15 16  1  0  0  0  0
 15 17  1  0  0  0  0
 14 15  2  0  0  0  0
 14 28  1  0  0  0  0
 11 12  1  0  0  0  0
 11 13  1  0  0  0  0
 11 14  1  0  0  0  0
  9 10  1  0  0  0  0
  9 11  1  0  0  0  0
  9 29  1  0  0  0  0
  7  8  1  0  0  0  0
  7  9  1  0  0  0  0
 33 34  1  0  0  0  0
 33 35  1  0  0  0  0
 33 36  1  0  0  0  0
 31 32  1  0  0  0  0
 31 33  1  0  0  0  0
M  END
$$$$
default_name
  -OEChem-12212115393D

 36 37  0     1  0  0  0  0  0999 V2000
   -4.0843   -4.0736    1.2944 H   0  0  0  0  0  0  0  0  0  0  0  0
   -4.0342   -3.2816    0.5484 C   0  0  0  0  0  0  0  0  0  0  0  0
   -4.8842   -2.6126    0.6694 H   0  0  0  0  0  0  0  0  0  0  0  0
   -4.0433   -3.7186   -0.4486 H   0  0  0  0  0  0  0  0  0  0  0  0
   -2.7532   -2.5046    0.7444 C   0  0  0  0  0  0  0  0  0  0  0  0
   -1.9803   -2.8096    1.6434 O   0  0  0  0  0  0  0  0  0  0  0  0
   -2.5332   -1.4966   -0.0966 N   0  0  0  0  0  0  0  0  0  0  0  0
   -3.2312   -1.2816   -0.7936 H   0  0  0  0  0  0  0  0  0  0  0  0
   -1.3593   -0.6196   -0.0536 C   0  0  1  0  0  0  0  0  0  0  0  0
   -0.6130   -1.0670    0.6041 H   0  0  0  0  0  0  0  0  0  0  0  0
   -0.7521   -0.5069   -1.4609 C   0  0  0  0  0  0  0  0  0  0  0  0
    0.1344    0.1280   -1.4116 H   0  0  0  0  0  0  0  0  0  0  0  0
   -0.4300   -1.4994   -1.7807 H   0  0  0  0  0  0  0  0  0  0  0  0
   -1.6672    0.0553   -2.5062 C   0  0  0  0  0  0  0  0  0  0  0  0
   -1.8203    1.3673   -2.7942 C   0  0  0  0  0  0  0  0  0  0  0  0
   -1.3073    2.1751   -2.2841 H   0  0  0  0  0  0  0  0  0  0  0  0
   -2.7078    1.5118   -3.8425 N   0  0  0  0  0  0  0  0  0  0  0  0
   -2.9772    2.4065   -4.2249 H   0  0  0  0  0  0  0  0  0  0  0  0
   -3.1609    0.2912   -4.2960 C   0  0  0  0  0  0  0  0  0  0  0  0
   -4.0292   -0.0841   -5.3312 C   0  0  0  0  0  0  0  0  0  0  0  0
   -4.4933    0.6654   -5.9552 H   0  0  0  0  0  0  0  0  0  0  0  0
   -4.2883   -1.4489   -5.5439 C   0  0  0  0  0  0  0  0  0  0  0  0
   -4.9561   -1.7571   -6.3370 H   0  0  0  0  0  0  0  0  0  0  0  0
   -3.6824   -2.4143   -4.7191 C   0  0  0  0  0  0  0  0  0  0  0  0
   -3.8911   -3.4627   -4.8810 H   0  0  0  0  0  0  0  0  0  0  0  0
   -2.8129   -2.0254   -3.6803 C   0  0  0  0  0  0  0  0  0  0  0  0
   -2.3647   -2.7765   -3.0456 H   0  0  0  0  0  0  0  0  0  0  0  0
   -2.5275   -0.6631   -3.4448 C   0  0  0  0  0  0  0  0  0  0  0  0
   -1.7168    0.7588    0.5234 C   0  0  0  0  0  0  0  0  0  0  0  0
   -0.8279    1.5248    0.8934 O   0  0  0  0  0  0  0  0  0  0  0  0
   -3.0170    1.0727    0.6015 N   0  0  0  0  0  0  0  0  0  0  0  0
   -3.6858    0.3671    0.3274 H   0  0  0  0  0  0  0  0  0  0  0  0
   -3.5270    2.3385    1.1210 C   0  0  0  0  0  0  0  0  0  0  0  0
   -3.0304    3.1700    0.6172 H   0  0  0  0  0  0  0  0  0  0  0  0
   -4.6029    2.4064    0.9551 H   0  0  0  0  0  0  0  0  0  0  0  0
   -3.3213    2.4042    2.1907 H   0  0  0  0  0  0  0  0  0  0  0  0
  5  6  2  0  0  0  0
  5  7  1  0  0  0  0
  2  3  1  0  0  0  0
  2  4  1  0  0  0  0
  2  5  1  0  0  0  0
  1  2  1  0  0  0  0
 29 30  2  0  0  0  0
 29 31  1  0  0  0  0
 26 27  1  0  0  0  0
 26 28  2  0  0  0  0
 24 25  1  0  0  0  0
 24 26  1  0  0  0  0
 22 23  1  0  0  0  0
 22 24  2  0  0  0  0
 20 21  1  0  0  0  0
 20 22  1  0  0  0  0
 19 20  2  0  0  0  0
 19 28  1  0  0  0  0
 17 18  1  0  0  0  0
 17 19  1  0  0  0  0
 15 16  1  0  0  0  0
 15 17  1  0  0  0  0
 14 15  2  0  0  0  0
 14 28  1  0  0  0  0
 11 12  1  0  0  0  0
 11 13  1  0  0  0  0
 11 14  1  0  0  0  0
  9 10  1  0  0  0  0
  9 11  1  0  0  0  0
  9 29  1  0  0  0  0
  7  8  1  0  0  0  0
  7  9  1  0  0  0  0
 33 34  1  0  0  0  0
 33 35  1  0  0  0  0
 33 36  1  0  0  0  0
 31 32  1  0  0  0  0
 31 33  1  0  0  0  0
M  END
$$$$
default_name
  -OEChem-12212115393D

 36 37  0     1  0  0  0  0  0999 V2000
   -4.0843   -4.0736    1.2944 H   0  0  0  0  0  0  0  0  0  0  0  0
   -4.0342   -3.2816    0.5484 C   0  0  0  0  0  0  0  0  0  0  0  0
   -4.8842   -2.6126    0.6694 H   0  0  0  0  0  0  0  0  0  0  0  0
   -4.0433   -3.7186   -0.4486 H   0  0  0  0  0  0  0  0  0  0  0  0
   -2.7532   -2.5046    0.7444 C   0  0  0  0  0  0  0  0  0  0  0  0
   -1.9803   -2.8096    1.6434 O   0  0  0  0  0  0  0  0  0  0  0  0
   -2.5332   -1.4966   -0.0966 N   0  0  0  0  0  0  0  0  0  0  0  0
   -3.2312   -1.2816   -0.7936 H   0  0  0  0  0  0  0  0  0  0  0  0
   -1.3593   -0.6196   -0.0536 C   0  0  1  0  0  0  0  0  0  0  0  0
   -0.6130   -1.0670    0.6041 H   0  0  0  0  0  0  0  0  0  0  0  0
   -0.7521   -0.5069   -1.4609 C   0  0  0  0  0  0  0  0  0  0  0  0
    0.1344    0.1280   -1.4116 H   0  0  0  0  0  0  0  0  0  0  0  0
   -0.4300   -1.4994   -1.7807 H   0  0  0  0  0  0  0  0  0  0  0  0
   -1.6672    0.0553   -2.5062 C   0  0  0  0  0  0  0  0  0  0  0  0
   -1.8203    1.3673   -2.7942 C   0  0  0  0  0  0  0  0  0  0  0  0
   -1.3073    2.1751   -2.2841 H   0  0  0  0  0  0  0  0  0  0  0  0
   -2.7078    1.5118   -3.8425 N   0  0  0  0  0  0  0  0  0  0  0  0
   -2.9772    2.4065   -4.2249 H   0  0  0  0  0  0  0  0  0  0  0  0
   -3.1609    0.2912   -4.2960 C   0  0  0  0  0  0  0  0  0  0  0  0
   -4.0292   -0.0841   -5.3312 C   0  0  0  0  0  0  0  0  0  0  0  0
   -4.4933    0.6654   -5.9552 H   0  0  0  0  0  0  0  0  0  0  0  0
   -4.2883   -1.4489   -5.5439 C   0  0  0  0  0  0  0  0  0  0  0  0
   -4.9561   -1.7571   -6.3370 H   0  0  0  0  0  0  0  0  0  0  0  0
   -3.6824   -2.4143   -4.7191 C   0  0  0  0  0  0  0  0  0  0  0  0
   -3.8911   -3.4627   -4.8810 H   0  0  0  0  0  0  0  0  0  0  0  0
   -2.8129   -2.0254   -3.6803 C   0  0  0  0  0  0  0  0  0  0  0  0
   -2.3647   -2.7765   -3.0456 H   0  0  0  0  0  0  0  0  0  0  0  0
   -2.5275   -0.6631   -3.4448 C   0  0  0  0  0  0  0  0  0  0  0  0
   -1.7168    0.7588    0.5234 C   0  0  0  0  0  0  0  0  0  0  0  0
   -0.8517    1.6263    0.6362 O   0  0  0  0  0  0  0  0  0  0  0  0
   -2.9899    0.9590    0.8897 N   0  0  0  0  0  0  0  0  0  0  0  0
   -3.6264    0.1782    0.8153 H   0  0  0  0  0  0  0  0  0  0  0  0
   -3.4964    2.2078    1.4522 C   0  0  0  0  0  0  0  0  0  0  0  0
   -3.2181    3.0423    0.8059 H   0  0  0  0  0  0  0  0  0  0  0  0
   -4.5828    2.1664    1.5409 H   0  0  0  0  0  0  0  0  0  0  0  0
   -3.0590    2.3683    2.4390 H   0  0  0  0  0  0  0  0  0  0  0  0
  5  6  2  0  0  0  0
  5  7  1  0  0  0  0
  2  3  1  0  0  0  0
  2  4  1  0  0  0  0
  2  5  1  0  0  0  0
  1  2  1  0  0  0  0
 29 30  2  0  0  0  0
 29 31  1  0  0  0  0
 26 27  1  0  0  0  0
 26 28  2  0  0  0  0
 24 25  1  0  0  0  0
 24 26  1  0  0  0  0
 22 23  1  0  0  0  0
 22 24  2  0  0  0  0
 20 21  1  0  0  0  0
 20 22  1  0  0  0  0
 19 20  2  0  0  0  0
 19 28  1  0  0  0  0
 17 18  1  0  0  0  0
 17 19  1  0  0  0  0
 15 16  1  0  0  0  0
 15 17  1  0  0  0  0
 14 15  2  0  0  0  0
 14 28  1  0  0  0  0
 11 12  1  0  0  0  0
 11 13  1  0  0  0  0
 11 14  1  0  0  0  0
  9 10  1  0  0  0  0
  9 11  1  0  0  0  0
  9 29  1  0  0  0  0
  7  8  1  0  0  0  0
  7  9  1  0  0  0  0
 33 34  1  0  0  0  0
 33 35  1  0  0  0  0
 33 36  1  0  0  0  0
 31 32  1  0  0  0  0
 31 33  1  0  0  0  0
M  END
$$$$
default_name
  -OEChem-12212115393D

 36 37  0     1  0  0  0  0  0999 V2000
   -4.0843   -4.0736    1.2944 H   0  0  0  0  0  0  0  0  0  0  0  0
   -4.0342   -3.2816    0.5484 C   0  0  0  0  0  0  0  0  0  0  0  0
   -4.8842   -2.6126    0.6694 H   0  0  0  0  0  0  0  0  0  0  0  0
   -4.0433   -3.7186   -0.4486 H   0  0  0  0  0  0  0  0  0  0  0  0
   -2.7532   -2.5046    0.7444 C   0  0  0  0  0  0  0  0  0  0  0  0
   -1.9803   -2.8096    1.6434 O   0  0  0  0  0  0  0  0  0  0  0  0
   -2.5332   -1.4966   -0.0966 N   0  0  0  0  0  0  0  0  0  0  0  0
   -3.2312   -1.2816   -0.7936 H   0  0  0  0  0  0  0  0  0  0  0  0
   -1.3593   -0.6196   -0.0536 C   0  0  1  0  0  0  0  0  0  0  0  0
   -0.6130   -1.0670    0.6041 H   0  0  0  0  0  0  0  0  0  0  0  0
   -0.7521   -0.5069   -1.4609 C   0  0  0  0  0  0  0  0  0  0  0  0
    0.1344    0.1280   -1.4116 H   0  0  0  0  0  0  0  0  0  0  0  0
   -0.4300   -1.4994   -1.7807 H   0  0  0  0  0  0  0  0  0  0  0  0
   -1.6672    0.0553   -2.5062 C   0  0  0  0  0  0  0  0  0  0  0  0
   -1.8203    1.3673   -2.7942 C   0  0  0  0  0  0  0  0  0  0  0  0
   -1.3073    2.1751   -2.2841 H   0  0  0  0  0  0  0  0  0  0  0  0
   -2.7078    1.5118   -3.8425 N   0  0  0  0  0  0  0  0  0  0  0  0
   -2.9772    2.4065   -4.2249 H   0  0  0  0  0  0  0  0  0  0  0  0
   -3.1609    0.2912   -4.2960 C   0  0  0  0  0  0  0  0  0  0  0  0
   -4.0292   -0.0841   -5.3312 C   0  0  0  0  0  0  0  0  0  0  0  0
   -4.4933    0.6654   -5.9552 H   0  0  0  0  0  0  0  0  0  0  0  0
   -4.2883   -1.4489   -5.5439 C   0  0  0  0  0  0  0  0  0  0  0  0
   -4.9561   -1.7571   -6.3370 H   0  0  0  0  0  0  0  0  0  0  0  0
   -3.6824   -2.4143   -4.7191 C   0  0  0  0  0  0  0  0  0  0  0  0
   -3.8911   -3.4627   -4.8810 H   0  0  0  0  0  0  0  0  0  0  0  0
   -2.8129   -2.0254   -3.6803 C   0  0  0  0  0  0  0  0  0  0  0  0
   -2.3647   -2.7765   -3.0456 H   0  0  0  0  0  0  0  0  0  0  0  0
   -2.5275   -0.6631   -3.4448 C   0  0  0  0  0  0  0  0  0  0  0  0
   -1.7168    0.7588    0.5234 C   0  0  0  0  0  0  0  0  0  0  0  0
   -0.9442    1.7066    0.3872 O   0  0  0  0  0  0  0  0  0  0  0  0
   -2.8858    0.8693    1.1686 N   0  0  0  0  0  0  0  0  0  0  0  0
   -3.4374    0.0310    1.2841 H   0  0  0  0  0  0  0  0  0  0  0  0
   -3.3773    2.1044    1.7729 C   0  0  0  0  0  0  0  0  0  0  0  0
   -3.3431    2.9122    1.0394 H   0  0  0  0  0  0  0  0  0  0  0  0
   -4.4040    1.9718    2.1165 H   0  0  0  0  0  0  0  0  0  0  0  0
   -2.7446    2.3740    2.6202 H   0  0  0  0  0  0  0  0  0  0  0  0
  5  6  2  0  0  0  0
  5  7  1  0  0  0  0
  2  3  1  0  0  0  0
  2  4  1  0  0  0  0
  2  5  1  0  0  0  0
  1  2  1  0  0  0  0
 29 30  2  0  0  0  0
 29 31  1  0  0  0  0
 26 27  1  0  0  0  0
 26 28  2  0  0  0  0
 24 25  1  0  0  0  0
 24 26  1  0  0  0  0
 22 23  1  0  0  0  0
 22 24  2  0  0  0  0
 20 21  1  0  0  0  0
 20 22  1  0  0  0  0
 19 20  2  0  0  0  0
 19 28  1  0  0  0  0
 17 18  1  0  0  0  0
 17 19  1  0  0  0  0
 15 16  1  0  0  0  0
 15 17  1  0  0  0  0
 14 15  2  0  0  0  0
 14 28  1  0  0  0  0
 11 12  1  0  0  0  0
 11 13  1  0  0  0  0
 11 14  1  0  0  0  0
  9 10  1  0  0  0  0
  9 11  1  0  0  0  0
  9 29  1  0  0  0  0
  7  8  1  0  0  0  0
  7  9  1  0  0  0  0
 33 34  1  0  0  0  0
 33 35  1  0  0  0  0
 33 36  1  0  0  0  0
 31 32  1  0  0  0  0
 31 33  1  0  0  0  0
M  END
$$$$
default_name
  -OEChem-12212115393D

 36 37  0     1  0  0  0  0  0999 V2000
   -4.0843   -4.0736    1.2944 H   0  0  0  0  0  0  0  0  0  0  0  0
   -4.0342   -3.2816    0.5484 C   0  0  0  0  0  0  0  0  0  0  0  0
   -4.8842   -2.6126    0.6694 H   0  0  0  0  0  0  0  0  0  0  0  0
   -4.0433   -3.7186   -0.4486 H   0  0  0  0  0  0  0  0  0  0  0  0
   -2.7532   -2.5046    0.7444 C   0  0  0  0  0  0  0  0  0  0  0  0
   -1.9803   -2.8096    1.6434 O   0  0  0  0  0  0  0  0  0  0  0  0
   -2.5332   -1.4966   -0.0966 N   0  0  0  0  0  0  0  0  0  0  0  0
   -3.2312   -1.2816   -0.7936 H   0  0  0  0  0  0  0  0  0  0  0  0
   -1.3593   -0.6196   -0.0536 C   0  0  1  0  0  0  0  0  0  0  0  0
   -0.6130   -1.0670    0.6041 H   0  0  0  0  0  0  0  0  0  0  0  0
   -0.7521   -0.5069   -1.4609 C   0  0  0  0  0  0  0  0  0  0  0  0
    0.1344    0.1280   -1.4116 H   0  0  0  0  0  0  0  0  0  0  0  0
   -0.4300   -1.4994   -1.7807 H   0  0  0  0  0  0  0  0  0  0  0  0
   -1.6672    0.0553   -2.5062 C   0  0  0  0  0  0  0  0  0  0  0  0
   -1.8203    1.3673   -2.7942 C   0  0  0  0  0  0  0  0  0  0  0  0
   -1.3073    2.1751   -2.2841 H   0  0  0  0  0  0  0  0  0  0  0  0
   -2.7078    1.5118   -3.8425 N   0  0  0  0  0  0  0  0  0  0  0  0
   -2.9772    2.4065   -4.2249 H   0  0  0  0  0  0  0  0  0  0  0  0
   -3.1609    0.2912   -4.2960 C   0  0  0  0  0  0  0  0  0  0  0  0
   -4.0292   -0.0841   -5.3312 C   0  0  0  0  0  0  0  0  0  0  0  0
   -4.4933    0.6654   -5.9552 H   0  0  0  0  0  0  0  0  0  0  0  0
   -4.2883   -1.4489   -5.5439 C   0  0  0  0  0  0  0  0  0  0  0  0
   -4.9561   -1.7571   -6.3370 H   0  0  0  0  0  0  0  0  0  0  0  0
   -3.6824   -2.4143   -4.7191 C   0  0  0  0  0  0  0  0  0  0  0  0
   -3.8911   -3.4627   -4.8810 H   0  0  0  0  0  0  0  0  0  0  0  0
   -2.8129   -2.0254   -3.6803 C   0  0  0  0  0  0  0  0  0  0  0  0
   -2.3647   -2.7765   -3.0456 H   0  0  0  0  0  0  0  0  0  0  0  0
   -2.5275   -0.6631   -3.4448 C   0  0  0  0  0  0  0  0  0  0  0  0
   -1.7168    0.7588    0.5234 C   0  0  0  0  0  0  0  0  0  0  0  0
   -1.0992    1.7601    0.1633 O   0  0  0  0  0  0  0  0  0  0  0  0
   -2.7118    0.8095    1.4193 N   0  0  0  0  0  0  0  0  0  0  0  0
   -3.1316   -0.0646    1.7020 H   0  0  0  0  0  0  0  0  0  0  0  0
   -3.1777    2.0355    2.0613 C   0  0  0  0  0  0  0  0  0  0  0  0
   -3.3970    2.7883    1.3018 H   0  0  0  0  0  0  0  0  0  0  0  0
   -4.0787    1.8359    2.6428 H   0  0  0  0  0  0  0  0  0  0  0  0
   -2.3993    2.4210    2.7218 H   0  0  0  0  0  0  0  0  0  0  0  0
  5  6  2  0  0  0  0
  5  7  1  0  0  0  0
  2  3  1  0  0  0  0
  2  4  1  0  0  0  0
  2  5  1  0  0  0  0
  1  2  1  0  0  0  0
 29 30  2  0  0  0  0
 29 31  1  0  0  0  0
 26 27  1  0  0  0  0
 26 28  2  0  0  0  0
 24 25  1  0  0  0  0
 24 26  1  0  0  0  0
 22 23  1  0  0  0  0
 22 24  2  0  0  0  0
 20 21  1  0  0  0  0
 20 22  1  0  0  0  0
 19 20  2  0  0  0  0
 19 28  1  0  0  0  0
 17 18  1  0  0  0  0
 17 19  1  0  0  0  0
 15 16  1  0  0  0  0
 15 17  1  0  0  0  0
 14 15  2  0  0  0  0
 14 28  1  0  0  0  0
 11 12  1  0  0  0  0
 11 13  1  0  0  0  0
 11 14  1  0  0  0  0
  9 10  1  0  0  0  0
  9 11  1  0  0  0  0
  9 29  1  0  0  0  0
  7  8  1  0  0  0  0
  7  9  1  0  0  0  0
 33 34  1  0  0  0  0
 33 35  1  0  0  0  0
 33 36  1  0  0  0  0
 31 32  1  0  0  0  0
 31 33  1  0  0  0  0
M  END
$$$$
default_name
  -OEChem-12212115393D

 36 37  0     1  0  0  0  0  0999 V2000
   -4.0843   -4.0736    1.2944 H   0  0  0  0  0  0  0  0  0  0  0  0
   -4.0342   -3.2816    0.5484 C   0  0  0  0  0  0  0  0  0  0  0  0
   -4.8842   -2.6126    0.6694 H   0  0  0  0  0  0  0  0  0  0  0  0
   -4.0433   -3.7186   -0.4486 H   0  0  0  0  0  0  0  0  0  0  0  0
   -2.7532   -2.5046    0.7444 C   0  0  0  0  0  0  0  0  0  0  0  0
   -1.9803   -2.8096    1.6434 O   0  0  0  0  0  0  0  0  0  0  0  0
   -2.5332   -1.4966   -0.0966 N   0  0  0  0  0  0  0  0  0  0  0  0
   -3.2312   -1.2816   -0.7936 H   0  0  0  0  0  0  0  0  0  0  0  0
   -1.3593   -0.6196   -0.0536 C   0  0  1  0  0  0  0  0  0  0  0  0
   -0.6130   -1.0670    0.6041 H   0  0  0  0  0  0  0  0  0  0  0  0
   -0.7521   -0.5069   -1.4609 C   0  0  0  0  0  0  0  0  0  0  0  0
    0.1344    0.1280   -1.4116 H   0  0  0  0  0  0  0  0  0  0  0  0
   -0.4300   -1.4994   -1.7807 H   0  0  0  0  0  0  0  0  0  0  0  0
   -1.6672    0.0553   -2.5062 C   0  0  0  0  0  0  0  0  0  0  0  0
   -1.8203    1.3673   -2.7942 C   0  0  0  0  0  0  0  0  0  0  0  0
   -1.3073    2.1751   -2.2841 H   0  0  0  0  0  0  0  0  0  0  0  0
   -2.7078    1.5118   -3.8425 N   0  0  0  0  0  0  0  0  0  0  0  0
   -2.9772    2.4065   -4.2249 H   0  0  0  0  0  0  0  0  0  0  0  0
   -3.1609    0.2912   -4.2960 C   0  0  0  0  0  0  0  0  0  0  0  0
   -4.0292   -0.0841   -5.3312 C   0  0  0  0  0  0  0  0  0  0  0  0
   -4.4933    0.6654   -5.9552 H   0  0  0  0  0  0  0  0  0  0  0  0
   -4.2883   -1.4489   -5.5439 C   0  0  0  0  0  0  0  0  0  0  0  0
   -4.9561   -1.7571   -6.3370 H   0  0  0  0  0  0  0  0  0  0  0  0
   -3.6824   -2.4143   -4.7191 C   0  0  0  0  0  0  0  0  0  0  0  0
   -3.8911   -3.4627   -4.8810 H   0  0  0  0  0  0  0  0  0  0  0  0
   -2.8129   -2.0254   -3.6803 C   0  0  0  0  0  0  0  0  0  0  0  0
   -2.3647   -2.7765   -3.0456 H   0  0  0  0  0  0  0  0  0  0  0  0
   -2.5275   -0.6631   -3.4448 C   0  0  0  0  0  0  0  0  0  0  0  0
   -1.7168    0.7588    0.5234 C   0  0  0  0  0  0  0  0  0  0  0  0
   -1.3061    1.7833   -0.0202 O   0  0  0  0  0  0  0  0  0  0  0  0
   -2.4796    0.7837    1.6246 N   0  0  0  0  0  0  0  0  0  0  0  0
   -2.7300   -0.1021    2.0403 H   0  0  0  0  0  0  0  0  0  0  0  0
   -2.9113    2.0056    2.2976 C   0  0  0  0  0  0  0  0  0  0  0  0
   -3.3762    2.6793    1.5753 H   0  0  0  0  0  0  0  0  0  0  0  0
   -3.6292    1.7679    3.0837 H   0  0  0  0  0  0  0  0  0  0  0  0
   -2.0468    2.5061    2.7369 H   0  0  0  0  0  0  0  0  0  0  0  0
  5  6  2  0  0  0  0
  5  7  1  0  0  0  0
  2  3  1  0  0  0  0
  2  4  1  0  0  0  0
  2  5  1  0  0  0  0
  1  2  1  0  0  0  0
 29 30  2  0  0  0  0
 29 31  1  0  0  0  0
 26 27  1  0  0  0  0
 26 28  2  0  0  0  0
 24 25  1  0  0  0  0
 24 26  1  0  0  0  0
 22 23  1  0  0  0  0
 22 24  2  0  0  0  0
 20 21  1  0  0  0  0
 20 22  1  0  0  0  0
 19 20  2  0  0  0  0
 19 28  1  0  0  0  0
 17 18  1  0  0  0  0
 17 19  1  0  0  0  0
 15 16  1  0  0  0  0
 15 17  1  0  0  0  0
 14 15  2  0  0  0  0
 14 28  1  0  0  0  0
 11 12  1  0  0  0  0
 11 13  1  0  0  0  0
 11 14  1  0  0  0  0
  9 10  1  0  0  0  0
  9 11  1  0  0  0  0
  9 29  1  0  0  0  0
  7  8  1  0  0  0  0
  7  9  1  0  0  0  0
 33 34  1  0  0  0  0
 33 35  1  0  0  0  0
 33 36  1  0  0  0  0
 31 32  1  0  0  0  0
 31 33  1  0  0  0  0
M  END
$$$$
default_name
  -OEChem-12212115393D

 36 37  0     1  0  0  0  0  0999 V2000
   -4.0843   -4.0736    1.2944 H   0  0  0  0  0  0  0  0  0  0  0  0
   -4.0342   -3.2816    0.5484 C   0  0  0  0  0  0  0  0  0  0  0  0
   -4.8842   -2.6126    0.6694 H   0  0  0  0  0  0  0  0  0  0  0  0
   -4.0433   -3.7186   -0.4486 H   0  0  0  0  0  0  0  0  0  0  0  0
   -2.7532   -2.5046    0.7444 C   0  0  0  0  0  0  0  0  0  0  0  0
   -1.9803   -2.8096    1.6434 O   0  0  0  0  0  0  0  0  0  0  0  0
   -2.5332   -1.4966   -0.0966 N   0  0  0  0  0  0  0  0  0  0  0  0
   -3.2312   -1.2816   -0.7936 H   0  0  0  0  0  0  0  0  0  0  0  0
   -1.3593   -0.6196   -0.0536 C   0  0  1  0  0  0  0  0  0  0  0  0
   -0.6130   -1.0670    0.6041 H   0  0  0  0  0  0  0  0  0  0  0  0
   -0.7521   -0.5069   -1.4609 C   0  0  0  0  0  0  0  0  0  0  0  0
    0.1344    0.1280   -1.4116 H   0  0  0  0  0  0  0  0  0  0  0  0
   -0.4300   -1.4994   -1.7807 H   0  0  0  0  0  0  0  0  0  0  0  0
   -1.6672    0.0553   -2.5062 C   0  0  0  0  0  0  0  0  0  0  0  0
   -1.8203    1.3673   -2.7942 C   0  0  0  0  0  0  0  0  0  0  0  0
   -1.3073    2.1751   -2.2841 H   0  0  0  0  0  0  0  0  0  0  0  0
   -2.7078    1.5118   -3.8425 N   0  0  0  0  0  0  0  0  0  0  0  0
   -2.9772    2.4065   -4.2249 H   0  0  0  0  0  0  0  0  0  0  0  0
   -3.1609    0.2912   -4.2960 C   0  0  0  0  0  0  0  0  0  0  0  0
   -4.0292   -0.0841   -5.3312 C   0  0  0  0  0  0  0  0  0  0  0  0
   -4.4933    0.6654   -5.9552 H   0  0  0  0  0  0  0  0  0  0  0  0
   -4.2883   -1.4489   -5.5439 C   0  0  0  0  0  0  0  0  0  0  0  0
   -4.9561   -1.7571   -6.3370 H   0  0  0  0  0  0  0  0  0  0  0  0
   -3.6824   -2.4143   -4.7191 C   0  0  0  0  0  0  0  0  0  0  0  0
   -3.8911   -3.4627   -4.8810 H   0  0  0  0  0  0  0  0  0  0  0  0
   -2.8129   -2.0254   -3.6803 C   0  0  0  0  0  0  0  0  0  0  0  0
   -2.3647   -2.7765   -3.0456 H   0  0  0  0  0  0  0  0  0  0  0  0
   -2.5275   -0.6631   -3.4448 C   0  0  0  0  0  0  0  0  0  0  0  0
   -1.7168    0.7588    0.5234 C   0  0  0  0  0  0  0  0  0  0  0  0
   -1.5508    1.7745   -0.1508 O   0  0  0  0  0  0  0  0  0  0  0  0
   -2.2053    0.7938    1.7705 N   0  0  0  0  0  0  0  0  0  0  0  0
   -2.2598   -0.0789    2.2762 H   0  0  0  0  0  0  0  0  0  0  0  0
   -2.5962    2.0169    2.4659 C   0  0  0  0  0  0  0  0  0  0  0  0
   -3.2819    2.5924    1.8411 H   0  0  0  0  0  0  0  0  0  0  0  0
   -3.0859    1.7725    3.4093 H   0  0  0  0  0  0  0  0  0  0  0  0
   -1.7110    2.6235    2.6646 H   0  0  0  0  0  0  0  0  0  0  0  0
  5  6  2  0  0  0  0
  5  7  1  0  0  0  0
  2  3  1  0  0  0  0
  2  4  1  0  0  0  0
  2  5  1  0  0  0  0
  1  2  1  0  0  0  0
 29 30  2  0  0  0  0
 29 31  1  0  0  0  0
 26 27  1  0  0  0  0
 26 28  2  0  0  0  0
 24 25  1  0  0  0  0
 24 26  1  0  0  0  0
 22 23  1  0  0  0  0
 22 24  2  0  0  0  0
 20 21  1  0  0  0  0
 20 22  1  0  0  0  0
 19 20  2  0  0  0  0
 19 28  1  0  0  0  0
 17 18  1  0  0  0  0
 17 19  1  0  0  0  0
 15 16  1  0  0  0  0
 15 17  1  0  0  0  0
 14 15  2  0  0  0  0
 14 28  1  0  0  0  0
 11 12  1  0  0  0  0
 11 13  1  0  0  0  0
 11 14  1  0  0  0  0
  9 10  1  0  0  0  0
  9 11  1  0  0  0  0
  9 29  1  0  0  0  0
  7  8  1  0  0  0  0
  7  9  1  0  0  0  0
 33 34  1  0  0  0  0
 33 35  1  0  0  0  0
 33 36  1  0  0  0  0
 31 32  1  0  0  0  0
 31 33  1  0  0  0  0
M  END
$$$$
default_name
  -OEChem-12212115393D

 36 37  0     1  0  0  0  0  0999 V2000
   -4.0843   -4.0736    1.2944 H   0  0  0  0  0  0  0  0  0  0  0  0
   -4.0342   -3.2816    0.5484 C   0  0  0  0  0  0  0  0  0  0  0  0
   -4.8842   -2.6126    0.6694 H   0  0  0  0  0  0  0  0  0  0  0  0
   -4.0433   -3.7186   -0.4486 H   0  0  0  0  0  0  0  0  0  0  0  0
   -2.7532   -2.5046    0.7444 C   0  0  0  0  0  0  0  0  0  0  0  0
   -1.9803   -2.8096    1.6434 O   0  0  0  0  0  0  0  0  0  0  0  0
   -2.5332   -1.4966   -0.0966 N   0  0  0  0  0  0  0  0  0  0  0  0
   -3.2312   -1.2816   -0.7936 H   0  0  0  0  0  0  0  0  0  0  0  0
   -1.3593   -0.6196   -0.0536 C   0  0  1  0  0  0  0  0  0  0  0  0
   -0.6130   -1.0670    0.6041 H   0  0  0  0  0  0  0  0  0  0  0  0
   -0.7521   -0.5069   -1.4609 C   0  0  0  0  0  0  0  0  0  0  0  0
    0.1344    0.1280   -1.4116 H   0  0  0  0  0  0  0  0  0  0  0  0
   -0.4300   -1.4994   -1.7807 H   0  0  0  0  0  0  0  0  0  0  0  0
   -1.6672    0.0553   -2.5062 C   0  0  0  0  0  0  0  0  0  0  0  0
   -1.8203    1.3673   -2.7942 C   0  0  0  0  0  0  0  0  0  0  0  0
   -1.3073    2.1751   -2.2841 H   0  0  0  0  0  0  0  0  0  0  0  0
   -2.7078    1.5118   -3.8425 N   0  0  0  0  0  0  0  0  0  0  0  0
   -2.9772    2.4065   -4.2249 H   0  0  0  0  0  0  0  0  0  0  0  0
   -3.1609    0.2912   -4.2960 C   0  0  0  0  0  0  0  0  0  0  0  0
   -4.0292   -0.0841   -5.3312 C   0  0  0  0  0  0  0  0  0  0  0  0
   -4.4933    0.6654   -5.9552 H   0  0  0  0  0  0  0  0  0  0  0  0
   -4.2883   -1.4489   -5.5439 C   0  0  0  0  0  0  0  0  0  0  0  0
   -4.9561   -1.7571   -6.3370 H   0  0  0  0  0  0  0  0  0  0  0  0
   -3.6824   -2.4143   -4.7191 C   0  0  0  0  0  0  0  0  0  0  0  0
   -3.8911   -3.4627   -4.8810 H   0  0  0  0  0  0  0  0  0  0  0  0
   -2.8129   -2.0254   -3.6803 C   0  0  0  0  0  0  0  0  0  0  0  0
   -2.3647   -2.7765   -3.0456 H   0  0  0  0  0  0  0  0  0  0  0  0
   -2.5275   -0.6631   -3.4448 C   0  0  0  0  0  0  0  0  0  0  0  0
   -1.7168    0.7588    0.5234 C   0  0  0  0  0  0  0  0  0  0  0  0
   -1.8166    1.7343   -0.2196 O   0  0  0  0  0  0  0  0  0  0  0  0
   -1.9073    0.8390    1.8472 N   0  0  0  0  0  0  0  0  0  0  0  0
   -1.7532    0.0034    2.3934 H   0  0  0  0  0  0  0  0  0  0  0  0
   -2.2538    2.0686    2.5545 C   0  0  0  0  0  0  0  0  0  0  0  0
   -3.1207    2.5337    2.0812 H   0  0  0  0  0  0  0  0  0  0  0  0
   -2.4860    1.8493    3.5974 H   0  0  0  0  0  0  0  0  0  0  0  0
   -1.4149    2.7651    2.5097 H   0  0  0  0  0  0  0  0  0  0  0  0
  5  6  2  0  0  0  0
  5  7  1  0  0  0  0
  2  3  1  0  0  0  0
  2  4  1  0  0  0  0
  2  5  1  0  0  0  0
  1  2  1  0  0  0  0
 29 30  2  0  0  0  0
 29 31  1  0  0  0  0
 26 27  1  0  0  0  0
 26 28  2  0  0  0  0
 24 25  1  0  0  0  0
 24 26  1  0  0  0  0
 22 23  1  0  0  0  0
 22 24  2  0  0  0  0
 20 21  1  0  0  0  0
 20 22  1  0  0  0  0
 19 20  2  0  0  0  0
 19 28  1  0  0  0  0
 17 18  1  0  0  0  0
 17 19  1  0  0  0  0
 15 16  1  0  0  0  0
 15 17  1  0  0  0  0
 14 15  2  0  0  0  0
 14 28  1  0  0  0  0
 11 12  1  0  0  0  0
 11 13  1  0  0  0  0
 11 14  1  0  0  0  0
  9 10  1  0  0  0  0
  9 11  1  0  0  0  0
  9 29  1  0  0  0  0
  7  8  1  0  0  0  0
  7  9  1  0  0  0  0
 33 34  1  0  0  0  0
 33 35  1  0  0  0  0
 33 36  1  0  0  0  0
 31 32  1  0  0  0  0
 31 33  1  0  0  0  0
M  END
$$$$
default_name
  -OEChem-12212115393D

 36 37  0     1  0  0  0  0  0999 V2000
   -4.0843   -4.0736    1.2944 H   0  0  0  0  0  0  0  0  0  0  0  0
   -4.0342   -3.2816    0.5484 C   0  0  0  0  0  0  0  0  0  0  0  0
   -4.8842   -2.6126    0.6694 H   0  0  0  0  0  0  0  0  0  0  0  0
   -4.0433   -3.7186   -0.4486 H   0  0  0  0  0  0  0  0  0  0  0  0
   -2.7532   -2.5046    0.7444 C   0  0  0  0  0  0  0  0  0  0  0  0
   -1.9803   -2.8096    1.6434 O   0  0  0  0  0  0  0  0  0  0  0  0
   -2.5332   -1.4966   -0.0966 N   0  0  0  0  0  0  0  0  0  0  0  0
   -3.2312   -1.2816   -0.7936 H   0  0  0  0  0  0  0  0  0  0  0  0
   -1.3593   -0.6196   -0.0536 C   0  0  1  0  0  0  0  0  0  0  0  0
   -0.6130   -1.0670    0.6041 H   0  0  0  0  0  0  0  0  0  0  0  0
   -0.7521   -0.5069   -1.4609 C   0  0  0  0  0  0  0  0  0  0  0  0
    0.1344    0.1280   -1.4116 H   0  0  0  0  0  0  0  0  0  0  0  0
   -0.4300   -1.4994   -1.7807 H   0  0  0  0  0  0  0  0  0  0  0  0
   -1.6672    0.0553   -2.5062 C   0  0  0  0  0  0  0  0  0  0  0  0
   -1.8203    1.3673   -2.7942 C   0  0  0  0  0  0  0  0  0  0  0  0
   -1.3073    2.1751   -2.2841 H   0  0  0  0  0  0  0  0  0  0  0  0
   -2.7078    1.5118   -3.8425 N   0  0  0  0  0  0  0  0  0  0  0  0
   -2.9772    2.4065   -4.2249 H   0  0  0  0  0  0  0  0  0  0  0  0
   -3.1609    0.2912   -4.2960 C   0  0  0  0  0  0  0  0  0  0  0  0
   -4.0292   -0.0841   -5.3312 C   0  0  0  0  0  0  0  0  0  0  0  0
   -4.4933    0.6654   -5.9552 H   0  0  0  0  0  0  0  0  0  0  0  0
   -4.2883   -1.4489   -5.5439 C   0  0  0  0  0  0  0  0  0  0  0  0
   -4.9561   -1.7571   -6.3370 H   0  0  0  0  0  0  0  0  0  0  0  0
   -3.6824   -2.4143   -4.7191 C   0  0  0  0  0  0  0  0  0  0  0  0
   -3.8911   -3.4627   -4.8810 H   0  0  0  0  0  0  0  0  0  0  0  0
   -2.8129   -2.0254   -3.6803 C   0  0  0  0  0  0  0  0  0  0  0  0
   -2.3647   -2.7765   -3.0456 H   0  0  0  0  0  0  0  0  0  0  0  0
   -2.5275   -0.6631   -3.4448 C   0  0  0  0  0  0  0  0  0  0  0  0
   -1.7168    0.7588    0.5234 C   0  0  0  0  0  0  0  0  0  0  0  0
   -2.0855    1.6656   -0.2219 O   0  0  0  0  0  0  0  0  0  0  0  0
   -1.6061    0.9162    1.8494 N   0  0  0  0  0  0  0  0  0  0  0  0
   -1.2446    0.1392    2.3841 H   0  0  0  0  0  0  0  0  0  0  0  0
   -1.9076    2.1572    2.5575 C   0  0  0  0  0  0  0  0  0  0  0  0
   -2.9035    2.5071    2.2793 H   0  0  0  0  0  0  0  0  0  0  0  0
   -1.8704    1.9932    3.6352 H   0  0  0  0  0  0  0  0  0  0  0  0
   -1.1786    2.9214    2.2828 H   0  0  0  0  0  0  0  0  0  0  0  0
  5  6  2  0  0  0  0
  5  7  1  0  0  0  0
  2  3  1  0  0  0  0
  2  4  1  0  0  0  0
  2  5  1  0  0  0  0
  1  2  1  0  0  0  0
 29 30  2  0  0  0  0
 29 31  1  0  0  0  0
 26 27  1  0  0  0  0
 26 28  2  0  0  0  0
 24 25  1  0  0  0  0
 24 26  1  0  0  0  0
 22 23  1  0  0  0  0
 22 24  2  0  0  0  0
 20 21  1  0  0  0  0
 20 22  1  0  0  0  0
 19 20  2  0  0  0  0
 19 28  1  0  0  0  0
 17 18  1  0  0  0  0
 17 19  1  0  0  0  0
 15 16  1  0  0  0  0
 15 17  1  0  0  0  0
 14 15  2  0  0  0  0
 14 28  1  0  0  0  0
 11 12  1  0  0  0  0
 11 13  1  0  0  0  0
 11 14  1  0  0  0  0
  9 10  1  0  0  0  0
  9 11  1  0  0  0  0
  9 29  1  0  0  0  0
  7  8  1  0  0  0  0
  7  9  1  0  0  0  0
 33 34  1  0  0  0  0
 33 35  1  0  0  0  0
 33 36  1  0  0  0  0
 31 32  1  0  0  0  0
 31 33  1  0  0  0  0
M  END
$$$$
default_name
  -OEChem-12212115393D

 36 37  0     1  0  0  0  0  0999 V2000
   -4.0843   -4.0736    1.2944 H   0  0  0  0  0  0  0  0  0  0  0  0
   -4.0342   -3.2816    0.5484 C   0  0  0  0  0  0  0  0  0  0  0  0
   -4.8842   -2.6126    0.6694 H   0  0  0  0  0  0  0  0  0  0  0  0
   -4.0433   -3.7186   -0.4486 H   0  0  0  0  0  0  0  0  0  0  0  0
   -2.7532   -2.5046    0.7444 C   0  0  0  0  0  0  0  0  0  0  0  0
   -1.9803   -2.8096    1.6434 O   0  0  0  0  0  0  0  0  0  0  0  0
   -2.5332   -1.4966   -0.0966 N   0  0  0  0  0  0  0  0  0  0  0  0
   -3.2312   -1.2816   -0.7936 H   0  0  0  0  0  0  0  0  0  0  0  0
   -1.3593   -0.6196   -0.0536 C   0  0  1  0  0  0  0  0  0  0  0  0
   -0.6130   -1.0670    0.6041 H   0  0  0  0  0  0  0  0  0  0  0  0
   -0.7521   -0.5069   -1.4609 C   0  0  0  0  0  0  0  0  0  0  0  0
    0.1344    0.1280   -1.4116 H   0  0  0  0  0  0  0  0  0  0  0  0
   -0.4300   -1.4994   -1.7807 H   0  0  0  0  0  0  0  0  0  0  0  0
   -1.6672    0.0553   -2.5062 C   0  0  0  0  0  0  0  0  0  0  0  0
   -1.8203    1.3673   -2.7942 C   0  0  0  0  0  0  0  0  0  0  0  0
   -1.3073    2.1751   -2.2841 H   0  0  0  0  0  0  0  0  0  0  0  0
   -2.7078    1.5118   -3.8425 N   0  0  0  0  0  0  0  0  0  0  0  0
   -2.9772    2.4065   -4.2249 H   0  0  0  0  0  0  0  0  0  0  0  0
   -3.1609    0.2912   -4.2960 C   0  0  0  0  0  0  0  0  0  0  0  0
   -4.0292   -0.0841   -5.3312 C   0  0  0  0  0  0  0  0  0  0  0  0
   -4.4933    0.6654   -5.9552 H   0  0  0  0  0  0  0  0  0  0  0  0
   -4.2883   -1.4489   -5.5439 C   0  0  0  0  0  0  0  0  0  0  0  0
   -4.9561   -1.7571   -6.3370 H   0  0  0  0  0  0  0  0  0  0  0  0
   -3.6824   -2.4143   -4.7191 C   0  0  0  0  0  0  0  0  0  0  0  0
   -3.8911   -3.4627   -4.8810 H   0  0  0  0  0  0  0  0  0  0  0  0
   -2.8129   -2.0254   -3.6803 C   0  0  0  0  0  0  0  0  0  0  0  0
   -2.3647   -2.7765   -3.0456 H   0  0  0  0  0  0  0  0  0  0  0  0
   -2.5275   -0.6631   -3.4448 C   0  0  0  0  0  0  0  0  0  0  0  0
   -1.7168    0.7588    0.5234 C   0  0  0  0  0  0  0  0  0  0  0  0
   -2.3390    1.5729   -0.1576 O   0  0  0  0  0  0  0  0  0  0  0  0
   -1.3221    1.0202    1.7769 N   0  0  0  0  0  0  0  0  0  0  0  0
   -0.7687    0.3193    2.2488 H   0  0  0  0  0  0  0  0  0  0  0  0
   -1.5811    2.2765    2.4747 C   0  0  0  0  0  0  0  0  0  0  0  0
   -2.6451    2.5145    2.4218 H   0  0  0  0  0  0  0  0  0  0  0  0
   -1.2809    2.1942    3.5201 H   0  0  0  0  0  0  0  0  0  0  0  0
   -1.0183    3.0816    1.9993 H   0  0  0  0  0  0  0  0  0  0  0  0
  5  6  2  0  0  0  0
  5  7  1  0  0  0  0
  2  3  1  0  0  0  0
  2  4  1  0  0  0  0
  2  5  1  0  0  0  0
  1  2  1  0  0  0  0
 29 30  2  0  0  0  0
 29 31  1  0  0  0  0
 26 27  1  0  0  0  0
 26 28  2  0  0  0  0
 24 25  1  0  0  0  0
 24 26  1  0  0  0  0
 22 23  1  0  0  0  0
 22 24  2  0  0  0  0
 20 21  1  0  0  0  0
 20 22  1  0  0  0  0
 19 20  2  0  0  0  0
 19 28  1  0  0  0  0
 17 18  1  0  0  0  0
 17 19  1  0  0  0  0
 15 16  1  0  0  0  0
 15 17  1  0  0  0  0
 14 15  2  0  0  0  0
 14 28  1  0  0  0  0
 11 12  1  0  0  0  0
 11 13  1  0  0  0  0
 11 14  1  0  0  0  0
  9 10  1  0  0  0  0
  9 11  1  0  0  0  0
  9 29  1  0  0  0  0
  7  8  1  0  0  0  0
  7  9  1  0  0  0  0
 33 34  1  0  0  0  0
 33 35  1  0  0  0  0
 33 36  1  0  0  0  0
 31 32  1  0  0  0  0
 31 33  1  0  0  0  0
M  END
$$$$
default_name
  -OEChem-12212115393D

 36 37  0     1  0  0  0  0  0999 V2000
   -4.0843   -4.0736    1.2944 H   0  0  0  0  0  0  0  0  0  0  0  0
   -4.0342   -3.2816    0.5484 C   0  0  0  0  0  0  0  0  0  0  0  0
   -4.8842   -2.6126    0.6694 H   0  0  0  0  0  0  0  0  0  0  0  0
   -4.0433   -3.7186   -0.4486 H   0  0  0  0  0  0  0  0  0  0  0  0
   -2.7532   -2.5046    0.7444 C   0  0  0  0  0  0  0  0  0  0  0  0
   -1.9803   -2.8096    1.6434 O   0  0  0  0  0  0  0  0  0  0  0  0
   -2.5332   -1.4966   -0.0966 N   0  0  0  0  0  0  0  0  0  0  0  0
   -3.2312   -1.2816   -0.7936 H   0  0  0  0  0  0  0  0  0  0  0  0
   -1.3593   -0.6196   -0.0536 C   0  0  1  0  0  0  0  0  0  0  0  0
   -0.6130   -1.0670    0.6041 H   0  0  0  0  0  0  0  0  0  0  0  0
   -0.7521   -0.5069   -1.4609 C   0  0  0  0  0  0  0  0  0  0  0  0
    0.1344    0.1280   -1.4116 H   0  0  0  0  0  0  0  0  0  0  0  0
   -0.4300   -1.4994   -1.7807 H   0  0  0  0  0  0  0  0  0  0  0  0
   -1.6672    0.0553   -2.5062 C   0  0  0  0  0  0  0  0  0  0  0  0
   -1.8203    1.3673   -2.7942 C   0  0  0  0  0  0  0  0  0  0  0  0
   -1.3073    2.1751   -2.2841 H   0  0  0  0  0  0  0  0  0  0  0  0
   -2.7078    1.5118   -3.8425 N   0  0  0  0  0  0  0  0  0  0  0  0
   -2.9772    2.4065   -4.2249 H   0  0  0  0  0  0  0  0  0  0  0  0
   -3.1609    0.2912   -4.2960 C   0  0  0  0  0  0  0  0  0  0  0  0
   -4.0292   -0.0841   -5.3312 C   0  0  0  0  0  0  0  0  0  0  0  0
   -4.4933    0.6654   -5.9552 H   0  0  0  0  0  0  0  0  0  0  0  0
   -4.2883   -1.4489   -5.5439 C   0  0  0  0  0  0  0  0  0  0  0  0
   -4.9561   -1.7571   -6.3370 H   0  0  0  0  0  0  0  0  0  0  0  0
   -3.6824   -2.4143   -4.7191 C   0  0  0  0  0  0  0  0  0  0  0  0
   -3.8911   -3.4627   -4.8810 H   0  0  0  0  0  0  0  0  0  0  0  0
   -2.8129   -2.0254   -3.6803 C   0  0  0  0  0  0  0  0  0  0  0  0
   -2.3647   -2.7765   -3.0456 H   0  0  0  0  0  0  0  0  0  0  0  0
   -2.5275   -0.6631   -3.4448 C   0  0  0  0  0  0  0  0  0  0  0  0
   -1.7168    0.7588    0.5234 C   0  0  0  0  0  0  0  0  0  0  0  0
   -2.5600    1.4626   -0.0310 O   0  0  0  0  0  0  0  0  0  0  0  0
   -1.0748    1.1439    1.6346 N   0  0  0  0  0  0  0  0  0  0  0  0
   -0.3579    0.5313    1.9968 H   0  0  0  0  0  0  0  0  0  0  0  0
   -1.2965    2.4185    2.3117 C   0  0  0  0  0  0  0  0  0  0  0  0
   -2.3632    2.5553    2.4990 H   0  0  0  0  0  0  0  0  0  0  0  0
   -0.7578    2.4388    3.2599 H   0  0  0  0  0  0  0  0  0  0  0  0
   -0.9448    3.2349    1.6787 H   0  0  0  0  0  0  0  0  0  0  0  0
  5  6  2  0  0  0  0
  5  7  1  0  0  0  0
  2  3  1  0  0  0  0
  2  4  1  0  0  0  0
  2  5  1  0  0  0  0
  1  2  1  0  0  0  0
 29 30  2  0  0  0  0
 29 31  1  0  0  0  0
 26 27  1  0  0  0  0
 26 28  2  0  0  0  0
 24 25  1  0  0  0  0
 24 26  1  0  0  0  0
 22 23  1  0  0  0  0
 22 24  2  0  0  0  0
 20 21  1  0  0  0  0
 20 22  1  0  0  0  0
 19 20  2  0  0  0  0
 19 28  1  0  0  0  0
 17 18  1  0  0  0  0
 17 19  1  0  0  0  0
 15 16  1  0  0  0  0
 15 17  1  0  0  0  0
 14 15  2  0  0  0  0
 14 28  1  0  0  0  0
 11 12  1  0  0  0  0
 11 13  1  0  0  0  0
 11 14  1  0  0  0  0
  9 10  1  0  0  0  0
  9 11  1  0  0  0  0
  9 29  1  0  0  0  0
  7  8  1  0  0  0  0
  7  9  1  0  0  0  0
 33 34  1  0  0  0  0
 33 35  1  0  0  0  0
 33 36  1  0  0  0  0
 31 32  1  0  0  0  0
 31 33  1  0  0  0  0
M  END
$$$$
default_name
  -OEChem-12212115393D

 36 37  0     1  0  0  0  0  0999 V2000
   -4.0843   -4.0736    1.2944 H   0  0  0  0  0  0  0  0  0  0  0  0
   -4.0342   -3.2816    0.5484 C   0  0  0  0  0  0  0  0  0  0  0  0
   -4.8842   -2.6126    0.6694 H   0  0  0  0  0  0  0  0  0  0  0  0
   -4.0433   -3.7186   -0.4486 H   0  0  0  0  0  0  0  0  0  0  0  0
   -2.7532   -2.5046    0.7444 C   0  0  0  0  0  0  0  0  0  0  0  0
   -1.9803   -2.8096    1.6434 O   0  0  0  0  0  0  0  0  0  0  0  0
   -2.5332   -1.4966   -0.0966 N   0  0  0  0  0  0  0  0  0  0  0  0
   -3.2312   -1.2816   -0.7936 H   0  0  0  0  0  0  0  0  0  0  0  0
   -1.3593   -0.6196   -0.0536 C   0  0  1  0  0  0  0  0  0  0  0  0
   -0.6130   -1.0670    0.6041 H   0  0  0  0  0  0  0  0  0  0  0  0
   -0.7521   -0.5069   -1.4609 C   0  0  0  0  0  0  0  0  0  0  0  0
    0.1344    0.1280   -1.4116 H   0  0  0  0  0  0  0  0  0  0  0  0
   -0.4300   -1.4994   -1.7807 H   0  0  0  0  0  0  0  0  0  0  0  0
   -1.6672    0.0553   -2.5062 C   0  0  0  0  0  0  0  0  0  0  0  0
   -1.8203    1.3673   -2.7942 C   0  0  0  0  0  0  0  0  0  0  0  0
   -1.3073    2.1751   -2.2841 H   0  0  0  0  0  0  0  0  0  0  0  0
   -2.7078    1.5118   -3.8425 N   0  0  0  0  0  0  0  0  0  0  0  0
   -2.9772    2.4065   -4.2249 H   0  0  0  0  0  0  0  0  0  0  0  0
   -3.1609    0.2912   -4.2960 C   0  0  0  0  0  0  0  0  0  0  0  0
   -4.0292   -0.0841   -5.3312 C   0  0  0  0  0  0  0  0  0  0  0  0
   -4.4933    0.6654   -5.9552 H   0  0  0  0  0  0  0  0  0  0  0  0
   -4.2883   -1.4489   -5.5439 C   0  0  0  0  0  0  0  0  0  0  0  0
   -4.9561   -1.7571   -6.3370 H   0  0  0  0  0  0  0  0  0  0  0  0
   -3.6824   -2.4143   -4.7191 C   0  0  0  0  0  0  0  0  0  0  0  0
   -3.8911   -3.4627   -4.8810 H   0  0  0  0  0  0  0  0  0  0  0  0
   -2.8129   -2.0254   -3.6803 C   0  0  0  0  0  0  0  0  0  0  0  0
   -2.3647   -2.7765   -3.0456 H   0  0  0  0  0  0  0  0  0  0  0  0
   -2.5275   -0.6631   -3.4448 C   0  0  0  0  0  0  0  0  0  0  0  0
   -1.7168    0.7588    0.5234 C   0  0  0  0  0  0  0  0  0  0  0  0
   -2.7333    1.3422    0.1492 O   0  0  0  0  0  0  0  0  0  0  0  0
   -0.8810    1.2788    1.4324 N   0  0  0  0  0  0  0  0  0  0  0  0
   -0.0403    0.7609    1.6452 H   0  0  0  0  0  0  0  0  0  0  0  0
   -1.0732    2.5736    2.0796 C   0  0  0  0  0  0  0  0  0  0  0  0
   -2.0769    2.6268    2.5056 H   0  0  0  0  0  0  0  0  0  0  0  0
   -0.3367    2.7102    2.8724 H   0  0  0  0  0  0  0  0  0  0  0  0
   -0.9631    3.3708    1.3426 H   0  0  0  0  0  0  0  0  0  0  0  0
  5  6  2  0  0  0  0
  5  7  1  0  0  0  0
  2  3  1  0  0  0  0
  2  4  1  0  0  0  0
  2  5  1  0  0  0  0
  1  2  1  0  0  0  0
 29 30  2  0  0  0  0
 29 31  1  0  0  0  0
 26 27  1  0  0  0  0
 26 28  2  0  0  0  0
 24 25  1  0  0  0  0
 24 26  1  0  0  0  0
 22 23  1  0  0  0  0
 22 24  2  0  0  0  0
 20 21  1  0  0  0  0
 20 22  1  0  0  0  0
 19 20  2  0  0  0  0
 19 28  1  0  0  0  0
 17 18  1  0  0  0  0
 17 19  1  0  0  0  0
 15 16  1  0  0  0  0
 15 17  1  0  0  0  0
 14 15  2  0  0  0  0
 14 28  1  0  0  0  0
 11 12  1  0  0  0  0
 11 13  1  0  0  0  0
 11 14  1  0  0  0  0
  9 10  1  0  0  0  0
  9 11  1  0  0  0  0
  9 29  1  0  0  0  0
  7  8  1  0  0  0  0
  7  9  1  0  0  0  0
 33 34  1  0  0  0  0
 33 35  1  0  0  0  0
 33 36  1  0  0  0  0
 31 32  1  0  0  0  0
 31 33  1  0  0  0  0
M  END
$$$$
default_name
  -OEChem-12212115393D

 36 37  0     1  0  0  0  0  0999 V2000
   -4.0843   -4.0736    1.2944 H   0  0  0  0  0  0  0  0  0  0  0  0
   -4.0342   -3.2816    0.5484 C   0  0  0  0  0  0  0  0  0  0  0  0
   -4.8842   -2.6126    0.6694 H   0  0  0  0  0  0  0  0  0  0  0  0
   -4.0433   -3.7186   -0.4486 H   0  0  0  0  0  0  0  0  0  0  0  0
   -2.7532   -2.5046    0.7444 C   0  0  0  0  0  0  0  0  0  0  0  0
   -1.9803   -2.8096    1.6434 O   0  0  0  0  0  0  0  0  0  0  0  0
   -2.5332   -1.4966   -0.0966 N   0  0  0  0  0  0  0  0  0  0  0  0
   -3.2312   -1.2816   -0.7936 H   0  0  0  0  0  0  0  0  0  0  0  0
   -1.3593   -0.6196   -0.0536 C   0  0  1  0  0  0  0  0  0  0  0  0
   -0.6130   -1.0670    0.6041 H   0  0  0  0  0  0  0  0  0  0  0  0
   -0.7521   -0.5069   -1.4609 C   0  0  0  0  0  0  0  0  0  0  0  0
    0.1344    0.1280   -1.4116 H   0  0  0  0  0  0  0  0  0  0  0  0
   -0.4300   -1.4994   -1.7807 H   0  0  0  0  0  0  0  0  0  0  0  0
   -1.6672    0.0553   -2.5062 C   0  0  0  0  0  0  0  0  0  0  0  0
   -1.8203    1.3673   -2.7942 C   0  0  0  0  0  0  0  0  0  0  0  0
   -1.3073    2.1751   -2.2841 H   0  0  0  0  0  0  0  0  0  0  0  0
   -2.7078    1.5118   -3.8425 N   0  0  0  0  0  0  0  0  0  0  0  0
   -2.9772    2.4065   -4.2249 H   0  0  0  0  0  0  0  0  0  0  0  0
   -3.1609    0.2912   -4.2960 C   0  0  0  0  0  0  0  0  0  0  0  0
   -4.0292   -0.0841   -5.3312 C   0  0  0  0  0  0  0  0  0  0  0  0
   -4.4933    0.6654   -5.9552 H   0  0  0  0  0  0  0  0  0  0  0  0
   -4.2883   -1.4489   -5.5439 C   0  0  0  0  0  0  0  0  0  0  0  0
   -4.9561   -1.7571   -6.3370 H   0  0  0  0  0  0  0  0  0  0  0  0
   -3.6824   -2.4143   -4.7191 C   0  0  0  0  0  0  0  0  0  0  0  0
   -3.8911   -3.4627   -4.8810 H   0  0  0  0  0  0  0  0  0  0  0  0
   -2.8129   -2.0254   -3.6803 C   0  0  0  0  0  0  0  0  0  0  0  0
   -2.3647   -2.7765   -3.0456 H   0  0  0  0  0  0  0  0  0  0  0  0
   -2.5275   -0.6631   -3.4448 C   0  0  0  0  0  0  0  0  0  0  0  0
   -1.7168    0.7588    0.5234 C   0  0  0  0  0  0  0  0  0  0  0  0
   -2.8471    1.2199    0.3708 O   0  0  0  0  0  0  0  0  0  0  0  0
   -0.7538    1.4158    1.1839 N   0  0  0  0  0  0  0  0  0  0  0  0
    0.1626    0.9924    1.2180 H   0  0  0  0  0  0  0  0  0  0  0  0
   -0.9266    2.7311    1.7943 C   0  0  0  0  0  0  0  0  0  0  0  0
   -1.8058    2.7240    2.4413 H   0  0  0  0  0  0  0  0  0  0  0  0
   -0.0463    2.9900    2.3840 H   0  0  0  0  0  0  0  0  0  0  0  0
   -1.0721    3.4801    1.0141 H   0  0  0  0  0  0  0  0  0  0  0  0
  5  6  2  0  0  0  0
  5  7  1  0  0  0  0
  2  3  1  0  0  0  0
  2  4  1  0  0  0  0
  2  5  1  0  0  0  0
  1  2  1  0  0  0  0
 29 30  2  0  0  0  0
 29 31  1  0  0  0  0
 26 27  1  0  0  0  0
 26 28  2  0  0  0  0
 24 25  1  0  0  0  0
 24 26  1  0  0  0  0
 22 23  1  0  0  0  0
 22 24  2  0  0  0  0
 20 21  1  0  0  0  0
 20 22  1  0  0  0  0
 19 20  2  0  0  0  0
 19 28  1  0  0  0  0
 17 18  1  0  0  0  0
 17 19  1  0  0  0  0
 15 16  1  0  0  0  0
 15 17  1  0  0  0  0
 14 15  2  0  0  0  0
 14 28  1  0  0  0  0
 11 12  1  0  0  0  0
 11 13  1  0  0  0  0
 11 14  1  0  0  0  0
  9 10  1  0  0  0  0
  9 11  1  0  0  0  0
  9 29  1  0  0  0  0
  7  8  1  0  0  0  0
  7  9  1  0  0  0  0
 33 34  1  0  0  0  0
 33 35  1  0  0  0  0
 33 36  1  0  0  0  0
 31 32  1  0  0  0  0
 31 33  1  0  0  0  0
M  END
$$$$
default_name
  -OEChem-12212115393D

 36 37  0     1  0  0  0  0  0999 V2000
   -4.0843   -4.0736    1.2944 H   0  0  0  0  0  0  0  0  0  0  0  0
   -4.0342   -3.2816    0.5484 C   0  0  0  0  0  0  0  0  0  0  0  0
   -4.8842   -2.6126    0.6694 H   0  0  0  0  0  0  0  0  0  0  0  0
   -4.0433   -3.7186   -0.4486 H   0  0  0  0  0  0  0  0  0  0  0  0
   -2.7532   -2.5046    0.7444 C   0  0  0  0  0  0  0  0  0  0  0  0
   -1.9803   -2.8096    1.6434 O   0  0  0  0  0  0  0  0  0  0  0  0
   -2.5332   -1.4966   -0.0966 N   0  0  0  0  0  0  0  0  0  0  0  0
   -3.2312   -1.2816   -0.7936 H   0  0  0  0  0  0  0  0  0  0  0  0
   -1.3593   -0.6196   -0.0536 C   0  0  1  0  0  0  0  0  0  0  0  0
   -0.6130   -1.0670    0.6041 H   0  0  0  0  0  0  0  0  0  0  0  0
   -0.7521   -0.5069   -1.4609 C   0  0  0  0  0  0  0  0  0  0  0  0
    0.1344    0.1280   -1.4116 H   0  0  0  0  0  0  0  0  0  0  0  0
   -0.4300   -1.4994   -1.7807 H   0  0  0  0  0  0  0  0  0  0  0  0
   -1.6672    0.0553   -2.5062 C   0  0  0  0  0  0  0  0  0  0  0  0
   -1.8203    1.3673   -2.7942 C   0  0  0  0  0  0  0  0  0  0  0  0
   -1.3073    2.1751   -2.2841 H   0  0  0  0  0  0  0  0  0  0  0  0
   -2.7078    1.5118   -3.8425 N   0  0  0  0  0  0  0  0  0  0  0  0
   -2.9772    2.4065   -4.2249 H   0  0  0  0  0  0  0  0  0  0  0  0
   -3.1609    0.2912   -4.2960 C   0  0  0  0  0  0  0  0  0  0  0  0
   -4.0292   -0.0841   -5.3312 C   0  0  0  0  0  0  0  0  0  0  0  0
   -4.4933    0.6654   -5.9552 H   0  0  0  0  0  0  0  0  0  0  0  0
   -4.2883   -1.4489   -5.5439 C   0  0  0  0  0  0  0  0  0  0  0  0
   -4.9561   -1.7571   -6.3370 H   0  0  0  0  0  0  0  0  0  0  0  0
   -3.6824   -2.4143   -4.7191 C   0  0  0  0  0  0  0  0  0  0  0  0
   -3.8911   -3.4627   -4.8810 H   0  0  0  0  0  0  0  0  0  0  0  0
   -2.8129   -2.0254   -3.6803 C   0  0  0  0  0  0  0  0  0  0  0  0
   -2.3647   -2.7765   -3.0456 H   0  0  0  0  0  0  0  0  0  0  0  0
   -2.5275   -0.6631   -3.4448 C   0  0  0  0  0  0  0  0  0  0  0  0
   -1.7168    0.7588    0.5234 C   0  0  0  0  0  0  0  0  0  0  0  0
   -2.8938    1.1041    0.6186 O   0  0  0  0  0  0  0  0  0  0  0  0
   -0.7020    1.5456    0.9061 N   0  0  0  0  0  0  0  0  0  0  0  0
    0.2369    1.2099    0.7443 H   0  0  0  0  0  0  0  0  0  0  0  0
   -0.8665    2.8803    1.4751 C   0  0  0  0  0  0  0  0  0  0  0  0
   -1.5683    2.8404    2.3103 H   0  0  0  0  0  0  0  0  0  0  0  0
    0.0936    3.2590    1.8280 H   0  0  0  0  0  0  0  0  0  0  0  0
   -1.2643    3.5552    0.7155 H   0  0  0  0  0  0  0  0  0  0  0  0
  5  6  2  0  0  0  0
  5  7  1  0  0  0  0
  2  3  1  0  0  0  0
  2  4  1  0  0  0  0
  2  5  1  0  0  0  0
  1  2  1  0  0  0  0
 29 30  2  0  0  0  0
 29 31  1  0  0  0  0
 26 27  1  0  0  0  0
 26 28  2  0  0  0  0
 24 25  1  0  0  0  0
 24 26  1  0  0  0  0
 22 23  1  0  0  0  0
 22 24  2  0  0  0  0
 20 21  1  0  0  0  0
 20 22  1  0  0  0  0
 19 20  2  0  0  0  0
 19 28  1  0  0  0  0
 17 18  1  0  0  0  0
 17 19  1  0  0  0  0
 15 16  1  0  0  0  0
 15 17  1  0  0  0  0
 14 15  2  0  0  0  0
 14 28  1  0  0  0  0
 11 12  1  0  0  0  0
 11 13  1  0  0  0  0
 11 14  1  0  0  0  0
  9 10  1  0  0  0  0
  9 11  1  0  0  0  0
  9 29  1  0  0  0  0
  7  8  1  0  0  0  0
  7  9  1  0  0  0  0
 33 34  1  0  0  0  0
 33 35  1  0  0  0  0
 33 36  1  0  0  0  0
 31 32  1  0  0  0  0
 31 33  1  0  0  0  0
M  END
$$$$
default_name
  -OEChem-12212115393D

 36 37  0     1  0  0  0  0  0999 V2000
   -4.0843   -4.0736    1.2944 H   0  0  0  0  0  0  0  0  0  0  0  0
   -4.0342   -3.2816    0.5484 C   0  0  0  0  0  0  0  0  0  0  0  0
   -4.8842   -2.6126    0.6694 H   0  0  0  0  0  0  0  0  0  0  0  0
   -4.0433   -3.7186   -0.4486 H   0  0  0  0  0  0  0  0  0  0  0  0
   -2.7532   -2.5046    0.7444 C   0  0  0  0  0  0  0  0  0  0  0  0
   -1.9803   -2.8096    1.6434 O   0  0  0  0  0  0  0  0  0  0  0  0
   -2.5332   -1.4966   -0.0966 N   0  0  0  0  0  0  0  0  0  0  0  0
   -3.2312   -1.2816   -0.7936 H   0  0  0  0  0  0  0  0  0  0  0  0
   -1.3593   -0.6196   -0.0536 C   0  0  1  0  0  0  0  0  0  0  0  0
   -0.5237   -1.1752    0.3738 H   0  0  0  0  0  0  0  0  0  0  0  0
   -0.9775   -0.2040   -1.4831 C   0  0  0  0  0  0  0  0  0  0  0  0
   -0.0887    0.4280   -1.4400 H   0  0  0  0  0  0  0  0  0  0  0  0
   -0.7179   -1.1010   -2.0479 H   0  0  0  0  0  0  0  0  0  0  0  0
   -2.0392    0.5400   -2.2349 C   0  0  0  0  0  0  0  0  0  0  0  0
   -2.2239    1.8791   -2.2169 C   0  0  0  0  0  0  0  0  0  0  0  0
   -1.6306    2.5762   -1.6353 H   0  0  0  0  0  0  0  0  0  0  0  0
   -3.2624    2.2160   -3.0628 N   0  0  0  0  0  0  0  0  0  0  0  0
   -3.5802    3.1636   -3.2047 H   0  0  0  0  0  0  0  0  0  0  0  0
   -3.7912    1.1050   -3.6847 C   0  0  0  0  0  0  0  0  0  0  0  0
   -4.8132    0.9310   -4.6289 C   0  0  0  0  0  0  0  0  0  0  0  0
   -5.3623    1.7820   -5.0044 H   0  0  0  0  0  0  0  0  0  0  0  0
   -5.1142   -0.3661   -5.0782 C   0  0  0  0  0  0  0  0  0  0  0  0
   -5.8999   -0.5197   -5.8055 H   0  0  0  0  0  0  0  0  0  0  0  0
   -4.3958   -1.4664   -4.5754 C   0  0  0  0  0  0  0  0  0  0  0  0
   -4.6362   -2.4634   -4.9177 H   0  0  0  0  0  0  0  0  0  0  0  0
   -3.3719   -1.2799   -3.6251 C   0  0  0  0  0  0  0  0  0  0  0  0
   -2.8368   -2.1350   -3.2372 H   0  0  0  0  0  0  0  0  0  0  0  0
   -3.0413    0.0108   -3.1584 C   0  0  0  0  0  0  0  0  0  0  0  0
   -1.6106    0.6009    0.8454 C   0  0  0  0  0  0  0  0  0  0  0  0
   -2.6928    0.7389    1.4141 O   0  0  0  0  0  0  0  0  0  0  0  0
   -0.6123    1.4856    0.9716 N   0  0  0  0  0  0  0  0  0  0  0  0
    0.2246    1.3272    0.4287 H   0  0  0  0  0  0  0  0  0  0  0  0
   -0.6846    2.6951    1.7866 C   0  0  0  0  0  0  0  0  0  0  0  0
   -1.0106    2.4395    2.7966 H   0  0  0  0  0  0  0  0  0  0  0  0
    0.2936    3.1754    1.8335 H   0  0  0  0  0  0  0  0  0  0  0  0
   -1.4066    3.3874    1.3505 H   0  0  0  0  0  0  0  0  0  0  0  0
  5  6  2  0  0  0  0
  5  7  1  0  0  0  0
  2  3  1  0  0  0  0
  2  4  1  0  0  0  0
  2  5  1  0  0  0  0
  1  2  1  0  0  0  0
 29 30  2  0  0  0  0
 29 31  1  0  0  0  0
 26 27  1  0  0  0  0
 26 28  2  0  0  0  0
 24 25  1  0  0  0  0
 24 26  1  0  0  0  0
 22 23  1  0  0  0  0
 22 24  2  0  0  0  0
 20 21  1  0  0  0  0
 20 22  1  0  0  0  0
 19 20  2  0  0  0  0
 19 28  1  0  0  0  0
 17 18  1  0  0  0  0
 17 19  1  0  0  0  0
 15 16  1  0  0  0  0
 15 17  1  0  0  0  0
 14 15  2  0  0  0  0
 14 28  1  0  0  0  0
 11 12  1  0  0  0  0
 11 13  1  0  0  0  0
 11 14  1  0  0  0  0
  9 10  1  0  0  0  0
  9 11  1  0  0  0  0
  9 29  1  0  0  0  0
  7  8  1  0  0  0  0
  7  9  1  0  0  0  0
 33 34  1  0  0  0  0
 33 35  1  0  0  0  0
 33 36  1  0  0  0  0
 31 32  1  0  0  0  0
 31 33  1  0  0  0  0
M  END
$$$$
default_name
  -OEChem-12212115393D

 36 37  0     1  0  0  0  0  0999 V2000
   -4.0843   -4.0736    1.2944 H   0  0  0  0  0  0  0  0  0  0  0  0
   -4.0342   -3.2816    0.5484 C   0  0  0  0  0  0  0  0  0  0  0  0
   -4.8842   -2.6126    0.6694 H   0  0  0  0  0  0  0  0  0  0  0  0
   -4.0433   -3.7186   -0.4486 H   0  0  0  0  0  0  0  0  0  0  0  0
   -2.7532   -2.5046    0.7444 C   0  0  0  0  0  0  0  0  0  0  0  0
   -1.9803   -2.8096    1.6434 O   0  0  0  0  0  0  0  0  0  0  0  0
   -2.5332   -1.4966   -0.0966 N   0  0  0  0  0  0  0  0  0  0  0  0
   -3.2312   -1.2816   -0.7936 H   0  0  0  0  0  0  0  0  0  0  0  0
   -1.3593   -0.6196   -0.0536 C   0  0  1  0  0  0  0  0  0  0  0  0
   -0.5237   -1.1752    0.3738 H   0  0  0  0  0  0  0  0  0  0  0  0
   -0.9775   -0.2040   -1.4831 C   0  0  0  0  0  0  0  0  0  0  0  0
   -0.0887    0.4280   -1.4400 H   0  0  0  0  0  0  0  0  0  0  0  0
   -0.7179   -1.1010   -2.0479 H   0  0  0  0  0  0  0  0  0  0  0  0
   -2.0392    0.5400   -2.2349 C   0  0  0  0  0  0  0  0  0  0  0  0
   -2.2239    1.8791   -2.2169 C   0  0  0  0  0  0  0  0  0  0  0  0
   -1.6306    2.5762   -1.6353 H   0  0  0  0  0  0  0  0  0  0  0  0
   -3.2624    2.2160   -3.0628 N   0  0  0  0  0  0  0  0  0  0  0  0
   -3.5802    3.1636   -3.2047 H   0  0  0  0  0  0  0  0  0  0  0  0
   -3.7912    1.1050   -3.6847 C   0  0  0  0  0  0  0  0  0  0  0  0
   -4.8132    0.9310   -4.6289 C   0  0  0  0  0  0  0  0  0  0  0  0
   -5.3623    1.7820   -5.0044 H   0  0  0  0  0  0  0  0  0  0  0  0
   -5.1142   -0.3661   -5.0782 C   0  0  0  0  0  0  0  0  0  0  0  0
   -5.8999   -0.5197   -5.8055 H   0  0  0  0  0  0  0  0  0  0  0  0
   -4.3958   -1.4664   -4.5754 C   0  0  0  0  0  0  0  0  0  0  0  0
   -4.6362   -2.4634   -4.9177 H   0  0  0  0  0  0  0  0  0  0  0  0
   -3.3719   -1.2799   -3.6251 C   0  0  0  0  0  0  0  0  0  0  0  0
   -2.8368   -2.1350   -3.2372 H   0  0  0  0  0  0  0  0  0  0  0  0
   -3.0413    0.0108   -3.1584 C   0  0  0  0  0  0  0  0  0  0  0  0
   -1.6106    0.6009    0.8454 C   0  0  0  0  0  0  0  0  0  0  0  0
   -2.5633    0.6111    1.6237 O   0  0  0  0  0  0  0  0  0  0  0  0
   -0.7578    1.6286    0.7369 N   0  0  0  0  0  0  0  0  0  0  0  0
   -0.0338    1.5636    0.0355 H   0  0  0  0  0  0  0  0  0  0  0  0
   -0.8512    2.8597    1.5166 C   0  0  0  0  0  0  0  0  0  0  0  0
   -0.9222    2.6181    2.5789 H   0  0  0  0  0  0  0  0  0  0  0  0
    0.0291    3.4804    1.3454 H   0  0  0  0  0  0  0  0  0  0  0  0
   -1.7455    3.4117    1.2227 H   0  0  0  0  0  0  0  0  0  0  0  0
  5  6  2  0  0  0  0
  5  7  1  0  0  0  0
  2  3  1  0  0  0  0
  2  4  1  0  0  0  0
  2  5  1  0  0  0  0
  1  2  1  0  0  0  0
 29 30  2  0  0  0  0
 29 31  1  0  0  0  0
 26 27  1  0  0  0  0
 26 28  2  0  0  0  0
 24 25  1  0  0  0  0
 24 26  1  0  0  0  0
 22 23  1  0  0  0  0
 22 24  2  0  0  0  0
 20 21  1  0  0  0  0
 20 22  1  0  0  0  0
 19 20  2  0  0  0  0
 19 28  1  0  0  0  0
 17 18  1  0  0  0  0
 17 19  1  0  0  0  0
 15 16  1  0  0  0  0
 15 17  1  0  0  0  0
 14 15  2  0  0  0  0
 14 28  1  0  0  0  0
 11 12  1  0  0  0  0
 11 13  1  0  0  0  0
 11 14  1  0  0  0  0
  9 10  1  0  0  0  0
  9 11  1  0  0  0  0
  9 29  1  0  0  0  0
  7  8  1  0  0  0  0
  7  9  1  0  0  0  0
 33 34  1  0  0  0  0
 33 35  1  0  0  0  0
 33 36  1  0  0  0  0
 31 32  1  0  0  0  0
 31 33  1  0  0  0  0
M  END
$$$$
default_name
  -OEChem-12212115393D

 36 37  0     1  0  0  0  0  0999 V2000
   -4.0843   -4.0736    1.2944 H   0  0  0  0  0  0  0  0  0  0  0  0
   -4.0342   -3.2816    0.5484 C   0  0  0  0  0  0  0  0  0  0  0  0
   -4.8842   -2.6126    0.6694 H   0  0  0  0  0  0  0  0  0  0  0  0
   -4.0433   -3.7186   -0.4486 H   0  0  0  0  0  0  0  0  0  0  0  0
   -2.7532   -2.5046    0.7444 C   0  0  0  0  0  0  0  0  0  0  0  0
   -1.9803   -2.8096    1.6434 O   0  0  0  0  0  0  0  0  0  0  0  0
   -2.5332   -1.4966   -0.0966 N   0  0  0  0  0  0  0  0  0  0  0  0
   -3.2312   -1.2816   -0.7936 H   0  0  0  0  0  0  0  0  0  0  0  0
   -1.3593   -0.6196   -0.0536 C   0  0  1  0  0  0  0  0  0  0  0  0
   -0.5237   -1.1752    0.3738 H   0  0  0  0  0  0  0  0  0  0  0  0
   -0.9775   -0.2040   -1.4831 C   0  0  0  0  0  0  0  0  0  0  0  0
   -0.0887    0.4280   -1.4400 H   0  0  0  0  0  0  0  0  0  0  0  0
   -0.7179   -1.1010   -2.0479 H   0  0  0  0  0  0  0  0  0  0  0  0
   -2.0392    0.5400   -2.2349 C   0  0  0  0  0  0  0  0  0  0  0  0
   -2.2239    1.8791   -2.2169 C   0  0  0  0  0  0  0  0  0  0  0  0
   -1.6306    2.5762   -1.6353 H   0  0  0  0  0  0  0  0  0  0  0  0
   -3.2624    2.2160   -3.0628 N   0  0  0  0  0  0  0  0  0  0  0  0
   -3.5802    3.1636   -3.2047 H   0  0  0  0  0  0  0  0  0  0  0  0
   -3.7912    1.1050   -3.6847 C   0  0  0  0  0  0  0  0  0  0  0  0
   -4.8132    0.9310   -4.6289 C   0  0  0  0  0  0  0  0  0  0  0  0
   -5.3623    1.7820   -5.0044 H   0  0  0  0  0  0  0  0  0  0  0  0
   -5.1142   -0.3661   -5.0782 C   0  0  0  0  0  0  0  0  0  0  0  0
   -5.8999   -0.5197   -5.8055 H   0  0  0  0  0  0  0  0  0  0  0  0
   -4.3958   -1.4664   -4.5754 C   0  0  0  0  0  0  0  0  0  0  0  0
   -4.6362   -2.4634   -4.9177 H   0  0  0  0  0  0  0  0  0  0  0  0
   -3.3719   -1.2799   -3.6251 C   0  0  0  0  0  0  0  0  0  0  0  0
   -2.8368   -2.1350   -3.2372 H   0  0  0  0  0  0  0  0  0  0  0  0
   -3.0413    0.0108   -3.1584 C   0  0  0  0  0  0  0  0  0  0  0  0
   -1.6106    0.6009    0.8454 C   0  0  0  0  0  0  0  0  0  0  0  0
   -2.3758    0.5162    1.8050 O   0  0  0  0  0  0  0  0  0  0  0  0
   -0.9682    1.7347    0.5340 N   0  0  0  0  0  0  0  0  0  0  0  0
   -0.4000    1.7362   -0.3011 H   0  0  0  0  0  0  0  0  0  0  0  0
   -1.0927    2.9819    1.2832 C   0  0  0  0  0  0  0  0  0  0  0  0
   -0.9087    2.7947    2.3428 H   0  0  0  0  0  0  0  0  0  0  0  0
   -0.3728    3.7143    0.9155 H   0  0  0  0  0  0  0  0  0  0  0  0
   -2.1028    3.3785    1.1680 H   0  0  0  0  0  0  0  0  0  0  0  0
  5  6  2  0  0  0  0
  5  7  1  0  0  0  0
  2  3  1  0  0  0  0
  2  4  1  0  0  0  0
  2  5  1  0  0  0  0
  1  2  1  0  0  0  0
 29 30  2  0  0  0  0
 29 31  1  0  0  0  0
 26 27  1  0  0  0  0
 26 28  2  0  0  0  0
 24 25  1  0  0  0  0
 24 26  1  0  0  0  0
 22 23  1  0  0  0  0
 22 24  2  0  0  0  0
 20 21  1  0  0  0  0
 20 22  1  0  0  0  0
 19 20  2  0  0  0  0
 19 28  1  0  0  0  0
 17 18  1  0  0  0  0
 17 19  1  0  0  0  0
 15 16  1  0  0  0  0
 15 17  1  0  0  0  0
 14 15  2  0  0  0  0
 14 28  1  0  0  0  0
 11 12  1  0  0  0  0
 11 13  1  0  0  0  0
 11 14  1  0  0  0  0
  9 10  1  0  0  0  0
  9 11  1  0  0  0  0
  9 29  1  0  0  0  0
  7  8  1  0  0  0  0
  7  9  1  0  0  0  0
 33 34  1  0  0  0  0
 33 35  1  0  0  0  0
 33 36  1  0  0  0  0
 31 32  1  0  0  0  0
 31 33  1  0  0  0  0
M  END
$$$$
default_name
  -OEChem-12212115393D

 36 37  0     1  0  0  0  0  0999 V2000
   -4.0843   -4.0736    1.2944 H   0  0  0  0  0  0  0  0  0  0  0  0
   -4.0342   -3.2816    0.5484 C   0  0  0  0  0  0  0  0  0  0  0  0
   -4.8842   -2.6126    0.6694 H   0  0  0  0  0  0  0  0  0  0  0  0
   -4.0433   -3.7186   -0.4486 H   0  0  0  0  0  0  0  0  0  0  0  0
   -2.7532   -2.5046    0.7444 C   0  0  0  0  0  0  0  0  0  0  0  0
   -1.9803   -2.8096    1.6434 O   0  0  0  0  0  0  0  0  0  0  0  0
   -2.5332   -1.4966   -0.0966 N   0  0  0  0  0  0  0  0  0  0  0  0
   -3.2312   -1.2816   -0.7936 H   0  0  0  0  0  0  0  0  0  0  0  0
   -1.3593   -0.6196   -0.0536 C   0  0  1  0  0  0  0  0  0  0  0  0
   -0.5237   -1.1752    0.3738 H   0  0  0  0  0  0  0  0  0  0  0  0
   -0.9775   -0.2040   -1.4831 C   0  0  0  0  0  0  0  0  0  0  0  0
   -0.0887    0.4280   -1.4400 H   0  0  0  0  0  0  0  0  0  0  0  0
   -0.7179   -1.1010   -2.0479 H   0  0  0  0  0  0  0  0  0  0  0  0
   -2.0392    0.5400   -2.2349 C   0  0  0  0  0  0  0  0  0  0  0  0
   -2.2239    1.8791   -2.2169 C   0  0  0  0  0  0  0  0  0  0  0  0
   -1.6306    2.5762   -1.6353 H   0  0  0  0  0  0  0  0  0  0  0  0
   -3.2624    2.2160   -3.0628 N   0  0  0  0  0  0  0  0  0  0  0  0
   -3.5802    3.1636   -3.2047 H   0  0  0  0  0  0  0  0  0  0  0  0
   -3.7912    1.1050   -3.6847 C   0  0  0  0  0  0  0  0  0  0  0  0
   -4.8132    0.9310   -4.6289 C   0  0  0  0  0  0  0  0  0  0  0  0
   -5.3623    1.7820   -5.0044 H   0  0  0  0  0  0  0  0  0  0  0  0
   -5.1142   -0.3661   -5.0782 C   0  0  0  0  0  0  0  0  0  0  0  0
   -5.8999   -0.5197   -5.8055 H   0  0  0  0  0  0  0  0  0  0  0  0
   -4.3958   -1.4664   -4.5754 C   0  0  0  0  0  0  0  0  0  0  0  0
   -4.6362   -2.4634   -4.9177 H   0  0  0  0  0  0  0  0  0  0  0  0
   -3.3719   -1.2799   -3.6251 C   0  0  0  0  0  0  0  0  0  0  0  0
   -2.8368   -2.1350   -3.2372 H   0  0  0  0  0  0  0  0  0  0  0  0
   -3.0413    0.0108   -3.1584 C   0  0  0  0  0  0  0  0  0  0  0  0
   -1.6106    0.6009    0.8454 C   0  0  0  0  0  0  0  0  0  0  0  0
   -2.1431    0.4606    1.9455 O   0  0  0  0  0  0  0  0  0  0  0  0
   -1.2292    1.7967    0.3768 N   0  0  0  0  0  0  0  0  0  0  0  0
   -0.8491    1.8332   -0.5583 H   0  0  0  0  0  0  0  0  0  0  0  0
   -1.3923    3.0536    1.1021 C   0  0  0  0  0  0  0  0  0  0  0  0
   -0.9709    2.9574    2.1046 H   0  0  0  0  0  0  0  0  0  0  0  0
   -0.8849    3.8612    0.5730 H   0  0  0  0  0  0  0  0  0  0  0  0
   -2.4541    3.2900    1.1900 H   0  0  0  0  0  0  0  0  0  0  0  0
  5  6  2  0  0  0  0
  5  7  1  0  0  0  0
  2  3  1  0  0  0  0
  2  4  1  0  0  0  0
  2  5  1  0  0  0  0
  1  2  1  0  0  0  0
 29 30  2  0  0  0  0
 29 31  1  0  0  0  0
 26 27  1  0  0  0  0
 26 28  2  0  0  0  0
 24 25  1  0  0  0  0
 24 26  1  0  0  0  0
 22 23  1  0  0  0  0
 22 24  2  0  0  0  0
 20 21  1  0  0  0  0
 20 22  1  0  0  0  0
 19 20  2  0  0  0  0
 19 28  1  0  0  0  0
 17 18  1  0  0  0  0
 17 19  1  0  0  0  0
 15 16  1  0  0  0  0
 15 17  1  0  0  0  0
 14 15  2  0  0  0  0
 14 28  1  0  0  0  0
 11 12  1  0  0  0  0
 11 13  1  0  0  0  0
 11 14  1  0  0  0  0
  9 10  1  0  0  0  0
  9 11  1  0  0  0  0
  9 29  1  0  0  0  0
  7  8  1  0  0  0  0
  7  9  1  0  0  0  0
 33 34  1  0  0  0  0
 33 35  1  0  0  0  0
 33 36  1  0  0  0  0
 31 32  1  0  0  0  0
 31 33  1  0  0  0  0
M  END
$$$$
default_name
  -OEChem-12212115393D

 36 37  0     1  0  0  0  0  0999 V2000
   -4.0843   -4.0736    1.2944 H   0  0  0  0  0  0  0  0  0  0  0  0
   -4.0342   -3.2816    0.5484 C   0  0  0  0  0  0  0  0  0  0  0  0
   -4.8842   -2.6126    0.6694 H   0  0  0  0  0  0  0  0  0  0  0  0
   -4.0433   -3.7186   -0.4486 H   0  0  0  0  0  0  0  0  0  0  0  0
   -2.7532   -2.5046    0.7444 C   0  0  0  0  0  0  0  0  0  0  0  0
   -1.9803   -2.8096    1.6434 O   0  0  0  0  0  0  0  0  0  0  0  0
   -2.5332   -1.4966   -0.0966 N   0  0  0  0  0  0  0  0  0  0  0  0
   -3.2312   -1.2816   -0.7936 H   0  0  0  0  0  0  0  0  0  0  0  0
   -1.3593   -0.6196   -0.0536 C   0  0  1  0  0  0  0  0  0  0  0  0
   -0.5237   -1.1752    0.3738 H   0  0  0  0  0  0  0  0  0  0  0  0
   -0.9775   -0.2040   -1.4831 C   0  0  0  0  0  0  0  0  0  0  0  0
   -0.0887    0.4280   -1.4400 H   0  0  0  0  0  0  0  0  0  0  0  0
   -0.7179   -1.1010   -2.0479 H   0  0  0  0  0  0  0  0  0  0  0  0
   -2.0392    0.5400   -2.2349 C   0  0  0  0  0  0  0  0  0  0  0  0
   -2.2239    1.8791   -2.2169 C   0  0  0  0  0  0  0  0  0  0  0  0
   -1.6306    2.5762   -1.6353 H   0  0  0  0  0  0  0  0  0  0  0  0
   -3.2624    2.2160   -3.0628 N   0  0  0  0  0  0  0  0  0  0  0  0
   -3.5802    3.1636   -3.2047 H   0  0  0  0  0  0  0  0  0  0  0  0
   -3.7912    1.1050   -3.6847 C   0  0  0  0  0  0  0  0  0  0  0  0
   -4.8132    0.9310   -4.6289 C   0  0  0  0  0  0  0  0  0  0  0  0
   -5.3623    1.7820   -5.0044 H   0  0  0  0  0  0  0  0  0  0  0  0
   -5.1142   -0.3661   -5.0782 C   0  0  0  0  0  0  0  0  0  0  0  0
   -5.8999   -0.5197   -5.8055 H   0  0  0  0  0  0  0  0  0  0  0  0
   -4.3958   -1.4664   -4.5754 C   0  0  0  0  0  0  0  0  0  0  0  0
   -4.6362   -2.4634   -4.9177 H   0  0  0  0  0  0  0  0  0  0  0  0
   -3.3719   -1.2799   -3.6251 C   0  0  0  0  0  0  0  0  0  0  0  0
   -2.8368   -2.1350   -3.2372 H   0  0  0  0  0  0  0  0  0  0  0  0
   -3.0413    0.0108   -3.1584 C   0  0  0  0  0  0  0  0  0  0  0  0
   -1.6106    0.6009    0.8454 C   0  0  0  0  0  0  0  0  0  0  0  0
   -1.8810    0.4481    2.0358 O   0  0  0  0  0  0  0  0  0  0  0  0
   -1.5230    1.8105    0.2759 N   0  0  0  0  0  0  0  0  0  0  0  0
   -1.3504    1.8480   -0.7186 H   0  0  0  0  0  0  0  0  0  0  0  0
   -1.7299    3.0697    0.9858 C   0  0  0  0  0  0  0  0  0  0  0  0
   -1.1047    3.0951    1.8803 H   0  0  0  0  0  0  0  0  0  0  0  0
   -1.4723    3.9110    0.3411 H   0  0  0  0  0  0  0  0  0  0  0  0
   -2.7755    3.1522    1.2872 H   0  0  0  0  0  0  0  0  0  0  0  0
  5  6  2  0  0  0  0
  5  7  1  0  0  0  0
  2  3  1  0  0  0  0
  2  4  1  0  0  0  0
  2  5  1  0  0  0  0
  1  2  1  0  0  0  0
 29 30  2  0  0  0  0
 29 31  1  0  0  0  0
 26 27  1  0  0  0  0
 26 28  2  0  0  0  0
 24 25  1  0  0  0  0
 24 26  1  0  0  0  0
 22 23  1  0  0  0  0
 22 24  2  0  0  0  0
 20 21  1  0  0  0  0
 20 22  1  0  0  0  0
 19 20  2  0  0  0  0
 19 28  1  0  0  0  0
 17 18  1  0  0  0  0
 17 19  1  0  0  0  0
 15 16  1  0  0  0  0
 15 17  1  0  0  0  0
 14 15  2  0  0  0  0
 14 28  1  0  0  0  0
 11 12  1  0  0  0  0
 11 13  1  0  0  0  0
 11 14  1  0  0  0  0
  9 10  1  0  0  0  0
  9 11  1  0  0  0  0
  9 29  1  0  0  0  0
  7  8  1  0  0  0  0
  7  9  1  0  0  0  0
 33 34  1  0  0  0  0
 33 35  1  0  0  0  0
 33 36  1  0  0  0  0
 31 32  1  0  0  0  0
 31 33  1  0  0  0  0
M  END
$$$$
default_name
  -OEChem-12212115393D

 36 37  0     1  0  0  0  0  0999 V2000
   -4.0843   -4.0736    1.2944 H   0  0  0  0  0  0  0  0  0  0  0  0
   -4.0342   -3.2816    0.5484 C   0  0  0  0  0  0  0  0  0  0  0  0
   -4.8842   -2.6126    0.6694 H   0  0  0  0  0  0  0  0  0  0  0  0
   -4.0433   -3.7186   -0.4486 H   0  0  0  0  0  0  0  0  0  0  0  0
   -2.7532   -2.5046    0.7444 C   0  0  0  0  0  0  0  0  0  0  0  0
   -1.9803   -2.8096    1.6434 O   0  0  0  0  0  0  0  0  0  0  0  0
   -2.5332   -1.4966   -0.0966 N   0  0  0  0  0  0  0  0  0  0  0  0
   -3.2312   -1.2816   -0.7936 H   0  0  0  0  0  0  0  0  0  0  0  0
   -1.3593   -0.6196   -0.0536 C   0  0  1  0  0  0  0  0  0  0  0  0
   -0.5237   -1.1752    0.3738 H   0  0  0  0  0  0  0  0  0  0  0  0
   -0.9775   -0.2040   -1.4831 C   0  0  0  0  0  0  0  0  0  0  0  0
   -0.0887    0.4280   -1.4400 H   0  0  0  0  0  0  0  0  0  0  0  0
   -0.7179   -1.1010   -2.0479 H   0  0  0  0  0  0  0  0  0  0  0  0
   -2.0392    0.5400   -2.2349 C   0  0  0  0  0  0  0  0  0  0  0  0
   -2.2239    1.8791   -2.2169 C   0  0  0  0  0  0  0  0  0  0  0  0
   -1.6306    2.5762   -1.6353 H   0  0  0  0  0  0  0  0  0  0  0  0
   -3.2624    2.2160   -3.0628 N   0  0  0  0  0  0  0  0  0  0  0  0
   -3.5802    3.1636   -3.2047 H   0  0  0  0  0  0  0  0  0  0  0  0
   -3.7912    1.1050   -3.6847 C   0  0  0  0  0  0  0  0  0  0  0  0
   -4.8132    0.9310   -4.6289 C   0  0  0  0  0  0  0  0  0  0  0  0
   -5.3623    1.7820   -5.0044 H   0  0  0  0  0  0  0  0  0  0  0  0
   -5.1142   -0.3661   -5.0782 C   0  0  0  0  0  0  0  0  0  0  0  0
   -5.8999   -0.5197   -5.8055 H   0  0  0  0  0  0  0  0  0  0  0  0
   -4.3958   -1.4664   -4.5754 C   0  0  0  0  0  0  0  0  0  0  0  0
   -4.6362   -2.4634   -4.9177 H   0  0  0  0  0  0  0  0  0  0  0  0
   -3.3719   -1.2799   -3.6251 C   0  0  0  0  0  0  0  0  0  0  0  0
   -2.8368   -2.1350   -3.2372 H   0  0  0  0  0  0  0  0  0  0  0  0
   -3.0413    0.0108   -3.1584 C   0  0  0  0  0  0  0  0  0  0  0  0
   -1.6106    0.6009    0.8454 C   0  0  0  0  0  0  0  0  0  0  0  0
   -1.6074    0.4795    2.0697 O   0  0  0  0  0  0  0  0  0  0  0  0
   -1.8297    1.7750    0.2384 N   0  0  0  0  0  0  0  0  0  0  0  0
   -1.8698    1.7796   -0.7709 H   0  0  0  0  0  0  0  0  0  0  0  0
   -2.0823    3.0293    0.9422 C   0  0  0  0  0  0  0  0  0  0  0  0
   -1.3008    3.1983    1.6854 H   0  0  0  0  0  0  0  0  0  0  0  0
   -2.0948    3.8604    0.2359 H   0  0  0  0  0  0  0  0  0  0  0  0
   -3.0451    2.9746    1.4530 H   0  0  0  0  0  0  0  0  0  0  0  0
  5  6  2  0  0  0  0
  5  7  1  0  0  0  0
  2  3  1  0  0  0  0
  2  4  1  0  0  0  0
  2  5  1  0  0  0  0
  1  2  1  0  0  0  0
 29 30  2  0  0  0  0
 29 31  1  0  0  0  0
 26 27  1  0  0  0  0
 26 28  2  0  0  0  0
 24 25  1  0  0  0  0
 24 26  1  0  0  0  0
 22 23  1  0  0  0  0
 22 24  2  0  0  0  0
 20 21  1  0  0  0  0
 20 22  1  0  0  0  0
 19 20  2  0  0  0  0
 19 28  1  0  0  0  0
 17 18  1  0  0  0  0
 17 19  1  0  0  0  0
 15 16  1  0  0  0  0
 15 17  1  0  0  0  0
 14 15  2  0  0  0  0
 14 28  1  0  0  0  0
 11 12  1  0  0  0  0
 11 13  1  0  0  0  0
 11 14  1  0  0  0  0
  9 10  1  0  0  0  0
  9 11  1  0  0  0  0
  9 29  1  0  0  0  0
  7  8  1  0  0  0  0
  7  9  1  0  0  0  0
 33 34  1  0  0  0  0
 33 35  1  0  0  0  0
 33 36  1  0  0  0  0
 31 32  1  0  0  0  0
 31 33  1  0  0  0  0
M  END
$$$$
default_name
  -OEChem-12212115393D

 36 37  0     1  0  0  0  0  0999 V2000
   -4.0843   -4.0736    1.2944 H   0  0  0  0  0  0  0  0  0  0  0  0
   -4.0342   -3.2816    0.5484 C   0  0  0  0  0  0  0  0  0  0  0  0
   -4.8842   -2.6126    0.6694 H   0  0  0  0  0  0  0  0  0  0  0  0
   -4.0433   -3.7186   -0.4486 H   0  0  0  0  0  0  0  0  0  0  0  0
   -2.7532   -2.5046    0.7444 C   0  0  0  0  0  0  0  0  0  0  0  0
   -1.9803   -2.8096    1.6434 O   0  0  0  0  0  0  0  0  0  0  0  0
   -2.5332   -1.4966   -0.0966 N   0  0  0  0  0  0  0  0  0  0  0  0
   -3.2312   -1.2816   -0.7936 H   0  0  0  0  0  0  0  0  0  0  0  0
   -1.3593   -0.6196   -0.0536 C   0  0  1  0  0  0  0  0  0  0  0  0
   -0.5237   -1.1752    0.3738 H   0  0  0  0  0  0  0  0  0  0  0  0
   -0.9775   -0.2040   -1.4831 C   0  0  0  0  0  0  0  0  0  0  0  0
   -0.0887    0.4280   -1.4400 H   0  0  0  0  0  0  0  0  0  0  0  0
   -0.7179   -1.1010   -2.0479 H   0  0  0  0  0  0  0  0  0  0  0  0
   -2.0392    0.5400   -2.2349 C   0  0  0  0  0  0  0  0  0  0  0  0
   -2.2239    1.8791   -2.2169 C   0  0  0  0  0  0  0  0  0  0  0  0
   -1.6306    2.5762   -1.6353 H   0  0  0  0  0  0  0  0  0  0  0  0
   -3.2624    2.2160   -3.0628 N   0  0  0  0  0  0  0  0  0  0  0  0
   -3.5802    3.1636   -3.2047 H   0  0  0  0  0  0  0  0  0  0  0  0
   -3.7912    1.1050   -3.6847 C   0  0  0  0  0  0  0  0  0  0  0  0
   -4.8132    0.9310   -4.6289 C   0  0  0  0  0  0  0  0  0  0  0  0
   -5.3623    1.7820   -5.0044 H   0  0  0  0  0  0  0  0  0  0  0  0
   -5.1142   -0.3661   -5.0782 C   0  0  0  0  0  0  0  0  0  0  0  0
   -5.8999   -0.5197   -5.8055 H   0  0  0  0  0  0  0  0  0  0  0  0
   -4.3958   -1.4664   -4.5754 C   0  0  0  0  0  0  0  0  0  0  0  0
   -4.6362   -2.4634   -4.9177 H   0  0  0  0  0  0  0  0  0  0  0  0
   -3.3719   -1.2799   -3.6251 C   0  0  0  0  0  0  0  0  0  0  0  0
   -2.8368   -2.1350   -3.2372 H   0  0  0  0  0  0  0  0  0  0  0  0
   -3.0413    0.0108   -3.1584 C   0  0  0  0  0  0  0  0  0  0  0  0
   -1.6106    0.6009    0.8454 C   0  0  0  0  0  0  0  0  0  0  0  0
   -1.3408    0.5527    2.0448 O   0  0  0  0  0  0  0  0  0  0  0  0
   -2.1282    1.6928    0.2666 N   0  0  0  0  0  0  0  0  0  0  0  0
   -2.3719    1.6326   -0.7118 H   0  0  0  0  0  0  0  0  0  0  0  0
   -2.4256    2.9351    0.9742 C   0  0  0  0  0  0  0  0  0  0  0  0
   -1.5459    3.2600    1.5331 H   0  0  0  0  0  0  0  0  0  0  0  0
   -2.7100    3.7128    0.2643 H   0  0  0  0  0  0  0  0  0  0  0  0
   -3.2445    2.7692    1.6760 H   0  0  0  0  0  0  0  0  0  0  0  0
  5  6  2  0  0  0  0
  5  7  1  0  0  0  0
  2  3  1  0  0  0  0
  2  4  1  0  0  0  0
  2  5  1  0  0  0  0
  1  2  1  0  0  0  0
 29 30  2  0  0  0  0
 29 31  1  0  0  0  0
 26 27  1  0  0  0  0
 26 28  2  0  0  0  0
 24 25  1  0  0  0  0
 24 26  1  0  0  0  0
 22 23  1  0  0  0  0
 22 24  2  0  0  0  0
 20 21  1  0  0  0  0
 20 22  1  0  0  0  0
 19 20  2  0  0  0  0
 19 28  1  0  0  0  0
 17 18  1  0  0  0  0
 17 19  1  0  0  0  0
 15 16  1  0  0  0  0
 15 17  1  0  0  0  0
 14 15  2  0  0  0  0
 14 28  1  0  0  0  0
 11 12  1  0  0  0  0
 11 13  1  0  0  0  0
 11 14  1  0  0  0  0
  9 10  1  0  0  0  0
  9 11  1  0  0  0  0
  9 29  1  0  0  0  0
  7  8  1  0  0  0  0
  7  9  1  0  0  0  0
 33 34  1  0  0  0  0
 33 35  1  0  0  0  0
 33 36  1  0  0  0  0
 31 32  1  0  0  0  0
 31 33  1  0  0  0  0
M  END
$$$$
default_name
  -OEChem-12212115393D

 36 37  0     1  0  0  0  0  0999 V2000
   -4.0843   -4.0736    1.2944 H   0  0  0  0  0  0  0  0  0  0  0  0
   -4.0342   -3.2816    0.5484 C   0  0  0  0  0  0  0  0  0  0  0  0
   -4.8842   -2.6126    0.6694 H   0  0  0  0  0  0  0  0  0  0  0  0
   -4.0433   -3.7186   -0.4486 H   0  0  0  0  0  0  0  0  0  0  0  0
   -2.7532   -2.5046    0.7444 C   0  0  0  0  0  0  0  0  0  0  0  0
   -1.9803   -2.8096    1.6434 O   0  0  0  0  0  0  0  0  0  0  0  0
   -2.5332   -1.4966   -0.0966 N   0  0  0  0  0  0  0  0  0  0  0  0
   -3.2312   -1.2816   -0.7936 H   0  0  0  0  0  0  0  0  0  0  0  0
   -1.3593   -0.6196   -0.0536 C   0  0  1  0  0  0  0  0  0  0  0  0
   -0.5237   -1.1752    0.3738 H   0  0  0  0  0  0  0  0  0  0  0  0
   -0.9775   -0.2040   -1.4831 C   0  0  0  0  0  0  0  0  0  0  0  0
   -0.0887    0.4280   -1.4400 H   0  0  0  0  0  0  0  0  0  0  0  0
   -0.7179   -1.1010   -2.0479 H   0  0  0  0  0  0  0  0  0  0  0  0
   -2.0392    0.5400   -2.2349 C   0  0  0  0  0  0  0  0  0  0  0  0
   -2.2239    1.8791   -2.2169 C   0  0  0  0  0  0  0  0  0  0  0  0
   -1.6306    2.5762   -1.6353 H   0  0  0  0  0  0  0  0  0  0  0  0
   -3.2624    2.2160   -3.0628 N   0  0  0  0  0  0  0  0  0  0  0  0
   -3.5802    3.1636   -3.2047 H   0  0  0  0  0  0  0  0  0  0  0  0
   -3.7912    1.1050   -3.6847 C   0  0  0  0  0  0  0  0  0  0  0  0
   -4.8132    0.9310   -4.6289 C   0  0  0  0  0  0  0  0  0  0  0  0
   -5.3623    1.7820   -5.0044 H   0  0  0  0  0  0  0  0  0  0  0  0
   -5.1142   -0.3661   -5.0782 C   0  0  0  0  0  0  0  0  0  0  0  0
   -5.8999   -0.5197   -5.8055 H   0  0  0  0  0  0  0  0  0  0  0  0
   -4.3958   -1.4664   -4.5754 C   0  0  0  0  0  0  0  0  0  0  0  0
   -4.6362   -2.4634   -4.9177 H   0  0  0  0  0  0  0  0  0  0  0  0
   -3.3719   -1.2799   -3.6251 C   0  0  0  0  0  0  0  0  0  0  0  0
   -2.8368   -2.1350   -3.2372 H   0  0  0  0  0  0  0  0  0  0  0  0
   -3.0413    0.0108   -3.1584 C   0  0  0  0  0  0  0  0  0  0  0  0
   -1.6106    0.6009    0.8454 C   0  0  0  0  0  0  0  0  0  0  0  0
   -1.0996    0.6627    1.9629 O   0  0  0  0  0  0  0  0  0  0  0  0
   -2.3983    1.5693    0.3588 N   0  0  0  0  0  0  0  0  0  0  0  0
   -2.8225    1.4172   -0.5452 H   0  0  0  0  0  0  0  0  0  0  0  0
   -2.7363    2.7934    1.0797 C   0  0  0  0  0  0  0  0  0  0  0  0
   -1.8233    3.2761    1.4337 H   0  0  0  0  0  0  0  0  0  0  0  0
   -3.2761    3.4782    0.4245 H   0  0  0  0  0  0  0  0  0  0  0  0
   -3.3602    2.5500    1.9412 H   0  0  0  0  0  0  0  0  0  0  0  0
  5  6  2  0  0  0  0
  5  7  1  0  0  0  0
  2  3  1  0  0  0  0
  2  4  1  0  0  0  0
  2  5  1  0  0  0  0
  1  2  1  0  0  0  0
 29 30  2  0  0  0  0
 29 31  1  0  0  0  0
 26 27  1  0  0  0  0
 26 28  2  0  0  0  0
 24 25  1  0  0  0  0
 24 26  1  0  0  0  0
 22 23  1  0  0  0  0
 22 24  2  0  0  0  0
 20 21  1  0  0  0  0
 20 22  1  0  0  0  0
 19 20  2  0  0  0  0
 19 28  1  0  0  0  0
 17 18  1  0  0  0  0
 17 19  1  0  0  0  0
 15 16  1  0  0  0  0
 15 17  1  0  0  0  0
 14 15  2  0  0  0  0
 14 28  1  0  0  0  0
 11 12  1  0  0  0  0
 11 13  1  0  0  0  0
 11 14  1  0  0  0  0
  9 10  1  0  0  0  0
  9 11  1  0  0  0  0
  9 29  1  0  0  0  0
  7  8  1  0  0  0  0
  7  9  1  0  0  0  0
 33 34  1  0  0  0  0
 33 35  1  0  0  0  0
 33 36  1  0  0  0  0
 31 32  1  0  0  0  0
 31 33  1  0  0  0  0
M  END
$$$$
default_name
  -OEChem-12212115393D

 36 37  0     1  0  0  0  0  0999 V2000
   -4.0843   -4.0736    1.2944 H   0  0  0  0  0  0  0  0  0  0  0  0
   -4.0342   -3.2816    0.5484 C   0  0  0  0  0  0  0  0  0  0  0  0
   -4.8842   -2.6126    0.6694 H   0  0  0  0  0  0  0  0  0  0  0  0
   -4.0433   -3.7186   -0.4486 H   0  0  0  0  0  0  0  0  0  0  0  0
   -2.7532   -2.5046    0.7444 C   0  0  0  0  0  0  0  0  0  0  0  0
   -1.9803   -2.8096    1.6434 O   0  0  0  0  0  0  0  0  0  0  0  0
   -2.5332   -1.4966   -0.0966 N   0  0  0  0  0  0  0  0  0  0  0  0
   -3.2312   -1.2816   -0.7936 H   0  0  0  0  0  0  0  0  0  0  0  0
   -1.3593   -0.6196   -0.0536 C   0  0  1  0  0  0  0  0  0  0  0  0
   -0.5237   -1.1752    0.3738 H   0  0  0  0  0  0  0  0  0  0  0  0
   -0.9775   -0.2040   -1.4831 C   0  0  0  0  0  0  0  0  0  0  0  0
   -0.0887    0.4280   -1.4400 H   0  0  0  0  0  0  0  0  0  0  0  0
   -0.7179   -1.1010   -2.0479 H   0  0  0  0  0  0  0  0  0  0  0  0
   -2.0392    0.5400   -2.2349 C   0  0  0  0  0  0  0  0  0  0  0  0
   -2.2239    1.8791   -2.2169 C   0  0  0  0  0  0  0  0  0  0  0  0
   -1.6306    2.5762   -1.6353 H   0  0  0  0  0  0  0  0  0  0  0  0
   -3.2624    2.2160   -3.0628 N   0  0  0  0  0  0  0  0  0  0  0  0
   -3.5802    3.1636   -3.2047 H   0  0  0  0  0  0  0  0  0  0  0  0
   -3.7912    1.1050   -3.6847 C   0  0  0  0  0  0  0  0  0  0  0  0
   -4.8132    0.9310   -4.6289 C   0  0  0  0  0  0  0  0  0  0  0  0
   -5.3623    1.7820   -5.0044 H   0  0  0  0  0  0  0  0  0  0  0  0
   -5.1142   -0.3661   -5.0782 C   0  0  0  0  0  0  0  0  0  0  0  0
   -5.8999   -0.5197   -5.8055 H   0  0  0  0  0  0  0  0  0  0  0  0
   -4.3958   -1.4664   -4.5754 C   0  0  0  0  0  0  0  0  0  0  0  0
   -4.6362   -2.4634   -4.9177 H   0  0  0  0  0  0  0  0  0  0  0  0
   -3.3719   -1.2799   -3.6251 C   0  0  0  0  0  0  0  0  0  0  0  0
   -2.8368   -2.1350   -3.2372 H   0  0  0  0  0  0  0  0  0  0  0  0
   -3.0413    0.0108   -3.1584 C   0  0  0  0  0  0  0  0  0  0  0  0
   -1.6106    0.6009    0.8454 C   0  0  0  0  0  0  0  0  0  0  0  0
   -0.9001    0.8020    1.8295 O   0  0  0  0  0  0  0  0  0  0  0  0
   -2.6216    1.4130    0.5086 N   0  0  0  0  0  0  0  0  0  0  0  0
   -3.1909    1.1479   -0.2825 H   0  0  0  0  0  0  0  0  0  0  0  0
   -2.9932    2.6140    1.2514 C   0  0  0  0  0  0  0  0  0  0  0  0
   -2.1142    3.2454    1.3941 H   0  0  0  0  0  0  0  0  0  0  0  0
   -3.7545    3.1727    0.7055 H   0  0  0  0  0  0  0  0  0  0  0  0
   -3.3843    2.3321    2.2304 H   0  0  0  0  0  0  0  0  0  0  0  0
  5  6  2  0  0  0  0
  5  7  1  0  0  0  0
  2  3  1  0  0  0  0
  2  4  1  0  0  0  0
  2  5  1  0  0  0  0
  1  2  1  0  0  0  0
 29 30  2  0  0  0  0
 29 31  1  0  0  0  0
 26 27  1  0  0  0  0
 26 28  2  0  0  0  0
 24 25  1  0  0  0  0
 24 26  1  0  0  0  0
 22 23  1  0  0  0  0
 22 24  2  0  0  0  0
 20 21  1  0  0  0  0
 20 22  1  0  0  0  0
 19 20  2  0  0  0  0
 19 28  1  0  0  0  0
 17 18  1  0  0  0  0
 17 19  1  0  0  0  0
 15 16  1  0  0  0  0
 15 17  1  0  0  0  0
 14 15  2  0  0  0  0
 14 28  1  0  0  0  0
 11 12  1  0  0  0  0
 11 13  1  0  0  0  0
 11 14  1  0  0  0  0
  9 10  1  0  0  0  0
  9 11  1  0  0  0  0
  9 29  1  0  0  0  0
  7  8  1  0  0  0  0
  7  9  1  0  0  0  0
 33 34  1  0  0  0  0
 33 35  1  0  0  0  0
 33 36  1  0  0  0  0
 31 32  1  0  0  0  0
 31 33  1  0  0  0  0
M  END
$$$$
default_name
  -OEChem-12212115393D

 36 37  0     1  0  0  0  0  0999 V2000
   -4.0843   -4.0736    1.2944 H   0  0  0  0  0  0  0  0  0  0  0  0
   -4.0342   -3.2816    0.5484 C   0  0  0  0  0  0  0  0  0  0  0  0
   -4.8842   -2.6126    0.6694 H   0  0  0  0  0  0  0  0  0  0  0  0
   -4.0433   -3.7186   -0.4486 H   0  0  0  0  0  0  0  0  0  0  0  0
   -2.7532   -2.5046    0.7444 C   0  0  0  0  0  0  0  0  0  0  0  0
   -1.9803   -2.8096    1.6434 O   0  0  0  0  0  0  0  0  0  0  0  0
   -2.5332   -1.4966   -0.0966 N   0  0  0  0  0  0  0  0  0  0  0  0
   -3.2312   -1.2816   -0.7936 H   0  0  0  0  0  0  0  0  0  0  0  0
   -1.3593   -0.6196   -0.0536 C   0  0  1  0  0  0  0  0  0  0  0  0
   -0.5237   -1.1752    0.3738 H   0  0  0  0  0  0  0  0  0  0  0  0
   -0.9775   -0.2040   -1.4831 C   0  0  0  0  0  0  0  0  0  0  0  0
   -0.0887    0.4280   -1.4400 H   0  0  0  0  0  0  0  0  0  0  0  0
   -0.7179   -1.1010   -2.0479 H   0  0  0  0  0  0  0  0  0  0  0  0
   -2.0392    0.5400   -2.2349 C   0  0  0  0  0  0  0  0  0  0  0  0
   -2.2239    1.8791   -2.2169 C   0  0  0  0  0  0  0  0  0  0  0  0
   -1.6306    2.5762   -1.6353 H   0  0  0  0  0  0  0  0  0  0  0  0
   -3.2624    2.2160   -3.0628 N   0  0  0  0  0  0  0  0  0  0  0  0
   -3.5802    3.1636   -3.2047 H   0  0  0  0  0  0  0  0  0  0  0  0
   -3.7912    1.1050   -3.6847 C   0  0  0  0  0  0  0  0  0  0  0  0
   -4.8132    0.9310   -4.6289 C   0  0  0  0  0  0  0  0  0  0  0  0
   -5.3623    1.7820   -5.0044 H   0  0  0  0  0  0  0  0  0  0  0  0
   -5.1142   -0.3661   -5.0782 C   0  0  0  0  0  0  0  0  0  0  0  0
   -5.8999   -0.5197   -5.8055 H   0  0  0  0  0  0  0  0  0  0  0  0
   -4.3958   -1.4664   -4.5754 C   0  0  0  0  0  0  0  0  0  0  0  0
   -4.6362   -2.4634   -4.9177 H   0  0  0  0  0  0  0  0  0  0  0  0
   -3.3719   -1.2799   -3.6251 C   0  0  0  0  0  0  0  0  0  0  0  0
   -2.8368   -2.1350   -3.2372 H   0  0  0  0  0  0  0  0  0  0  0  0
   -3.0413    0.0108   -3.1584 C   0  0  0  0  0  0  0  0  0  0  0  0
   -1.6106    0.6009    0.8454 C   0  0  0  0  0  0  0  0  0  0  0  0
   -0.7559    0.9612    1.6537 O   0  0  0  0  0  0  0  0  0  0  0  0
   -2.7828    1.2346    0.7057 N   0  0  0  0  0  0  0  0  0  0  0  0
   -3.4520    0.8431    0.0583 H   0  0  0  0  0  0  0  0  0  0  0  0
   -3.1790    2.4090    1.4778 C   0  0  0  0  0  0  0  0  0  0  0  0
   -2.3986    3.1700    1.4169 H   0  0  0  0  0  0  0  0  0  0  0  0
   -4.1125    2.8171    1.0883 H   0  0  0  0  0  0  0  0  0  0  0  0
   -3.3150    2.1301    2.5240 H   0  0  0  0  0  0  0  0  0  0  0  0
  5  6  2  0  0  0  0
  5  7  1  0  0  0  0
  2  3  1  0  0  0  0
  2  4  1  0  0  0  0
  2  5  1  0  0  0  0
  1  2  1  0  0  0  0
 29 30  2  0  0  0  0
 29 31  1  0  0  0  0
 26 27  1  0  0  0  0
 26 28  2  0  0  0  0
 24 25  1  0  0  0  0
 24 26  1  0  0  0  0
 22 23  1  0  0  0  0
 22 24  2  0  0  0  0
 20 21  1  0  0  0  0
 20 22  1  0  0  0  0
 19 20  2  0  0  0  0
 19 28  1  0  0  0  0
 17 18  1  0  0  0  0
 17 19  1  0  0  0  0
 15 16  1  0  0  0  0
 15 17  1  0  0  0  0
 14 15  2  0  0  0  0
 14 28  1  0  0  0  0
 11 12  1  0  0  0  0
 11 13  1  0  0  0  0
 11 14  1  0  0  0  0
  9 10  1  0  0  0  0
  9 11  1  0  0  0  0
  9 29  1  0  0  0  0
  7  8  1  0  0  0  0
  7  9  1  0  0  0  0
 33 34  1  0  0  0  0
 33 35  1  0  0  0  0
 33 36  1  0  0  0  0
 31 32  1  0  0  0  0
 31 33  1  0  0  0  0
M  END
$$$$
default_name
  -OEChem-12212115393D

 36 37  0     1  0  0  0  0  0999 V2000
   -4.0843   -4.0736    1.2944 H   0  0  0  0  0  0  0  0  0  0  0  0
   -4.0342   -3.2816    0.5484 C   0  0  0  0  0  0  0  0  0  0  0  0
   -4.8842   -2.6126    0.6694 H   0  0  0  0  0  0  0  0  0  0  0  0
   -4.0433   -3.7186   -0.4486 H   0  0  0  0  0  0  0  0  0  0  0  0
   -2.7532   -2.5046    0.7444 C   0  0  0  0  0  0  0  0  0  0  0  0
   -1.9803   -2.8096    1.6434 O   0  0  0  0  0  0  0  0  0  0  0  0
   -2.5332   -1.4966   -0.0966 N   0  0  0  0  0  0  0  0  0  0  0  0
   -3.2312   -1.2816   -0.7936 H   0  0  0  0  0  0  0  0  0  0  0  0
   -1.3593   -0.6196   -0.0536 C   0  0  1  0  0  0  0  0  0  0  0  0
   -0.5237   -1.1752    0.3738 H   0  0  0  0  0  0  0  0  0  0  0  0
   -0.9775   -0.2040   -1.4831 C   0  0  0  0  0  0  0  0  0  0  0  0
   -0.0887    0.4280   -1.4400 H   0  0  0  0  0  0  0  0  0  0  0  0
   -0.7179   -1.1010   -2.0479 H   0  0  0  0  0  0  0  0  0  0  0  0
   -2.0392    0.5400   -2.2349 C   0  0  0  0  0  0  0  0  0  0  0  0
   -2.2239    1.8791   -2.2169 C   0  0  0  0  0  0  0  0  0  0  0  0
   -1.6306    2.5762   -1.6353 H   0  0  0  0  0  0  0  0  0  0  0  0
   -3.2624    2.2160   -3.0628 N   0  0  0  0  0  0  0  0  0  0  0  0
   -3.5802    3.1636   -3.2047 H   0  0  0  0  0  0  0  0  0  0  0  0
   -3.7912    1.1050   -3.6847 C   0  0  0  0  0  0  0  0  0  0  0  0
   -4.8132    0.9310   -4.6289 C   0  0  0  0  0  0  0  0  0  0  0  0
   -5.3623    1.7820   -5.0044 H   0  0  0  0  0  0  0  0  0  0  0  0
   -5.1142   -0.3661   -5.0782 C   0  0  0  0  0  0  0  0  0  0  0  0
   -5.8999   -0.5197   -5.8055 H   0  0  0  0  0  0  0  0  0  0  0  0
   -4.3958   -1.4664   -4.5754 C   0  0  0  0  0  0  0  0  0  0  0  0
   -4.6362   -2.4634   -4.9177 H   0  0  0  0  0  0  0  0  0  0  0  0
   -3.3719   -1.2799   -3.6251 C   0  0  0  0  0  0  0  0  0  0  0  0
   -2.8368   -2.1350   -3.2372 H   0  0  0  0  0  0  0  0  0  0  0  0
   -3.0413    0.0108   -3.1584 C   0  0  0  0  0  0  0  0  0  0  0  0
   -1.6106    0.6009    0.8454 C   0  0  0  0  0  0  0  0  0  0  0  0
   -0.6768    1.1293    1.4476 O   0  0  0  0  0  0  0  0  0  0  0  0
   -2.8709    1.0461    0.9369 N   0  0  0  0  0  0  0  0  0  0  0  0
   -3.5879    0.5236    0.4541 H   0  0  0  0  0  0  0  0  0  0  0  0
   -3.2808    2.1925    1.7432 C   0  0  0  0  0  0  0  0  0  0  0  0
   -2.6573    3.0551    1.5006 H   0  0  0  0  0  0  0  0  0  0  0  0
   -4.3258    2.4355    1.5466 H   0  0  0  0  0  0  0  0  0  0  0  0
   -3.1572    1.9580    2.8018 H   0  0  0  0  0  0  0  0  0  0  0  0
  5  6  2  0  0  0  0
  5  7  1  0  0  0  0
  2  3  1  0  0  0  0
  2  4  1  0  0  0  0
  2  5  1  0  0  0  0
  1  2  1  0  0  0  0
 29 30  2  0  0  0  0
 29 31  1  0  0  0  0
 26 27  1  0  0  0  0
 26 28  2  0  0  0  0
 24 25  1  0  0  0  0
 24 26  1  0  0  0  0
 22 23  1  0  0  0  0
 22 24  2  0  0  0  0
 20 21  1  0  0  0  0
 20 22  1  0  0  0  0
 19 20  2  0  0  0  0
 19 28  1  0  0  0  0
 17 18  1  0  0  0  0
 17 19  1  0  0  0  0
 15 16  1  0  0  0  0
 15 17  1  0  0  0  0
 14 15  2  0  0  0  0
 14 28  1  0  0  0  0
 11 12  1  0  0  0  0
 11 13  1  0  0  0  0
 11 14  1  0  0  0  0
  9 10  1  0  0  0  0
  9 11  1  0  0  0  0
  9 29  1  0  0  0  0
  7  8  1  0  0  0  0
  7  9  1  0  0  0  0
 33 34  1  0  0  0  0
 33 35  1  0  0  0  0
 33 36  1  0  0  0  0
 31 32  1  0  0  0  0
 31 33  1  0  0  0  0
M  END
$$$$
default_name
  -OEChem-12212115393D

 36 37  0     1  0  0  0  0  0999 V2000
   -4.0843   -4.0736    1.2944 H   0  0  0  0  0  0  0  0  0  0  0  0
   -4.0342   -3.2816    0.5484 C   0  0  0  0  0  0  0  0  0  0  0  0
   -4.8842   -2.6126    0.6694 H   0  0  0  0  0  0  0  0  0  0  0  0
   -4.0433   -3.7186   -0.4486 H   0  0  0  0  0  0  0  0  0  0  0  0
   -2.7532   -2.5046    0.7444 C   0  0  0  0  0  0  0  0  0  0  0  0
   -1.9803   -2.8096    1.6434 O   0  0  0  0  0  0  0  0  0  0  0  0
   -2.5332   -1.4966   -0.0966 N   0  0  0  0  0  0  0  0  0  0  0  0
   -3.2312   -1.2816   -0.7936 H   0  0  0  0  0  0  0  0  0  0  0  0
   -1.3593   -0.6196   -0.0536 C   0  0  1  0  0  0  0  0  0  0  0  0
   -0.5237   -1.1752    0.3738 H   0  0  0  0  0  0  0  0  0  0  0  0
   -0.9775   -0.2040   -1.4831 C   0  0  0  0  0  0  0  0  0  0  0  0
   -0.0887    0.4280   -1.4400 H   0  0  0  0  0  0  0  0  0  0  0  0
   -0.7179   -1.1010   -2.0479 H   0  0  0  0  0  0  0  0  0  0  0  0
   -2.0392    0.5400   -2.2349 C   0  0  0  0  0  0  0  0  0  0  0  0
   -2.2239    1.8791   -2.2169 C   0  0  0  0  0  0  0  0  0  0  0  0
   -1.6306    2.5762   -1.6353 H   0  0  0  0  0  0  0  0  0  0  0  0
   -3.2624    2.2160   -3.0628 N   0  0  0  0  0  0  0  0  0  0  0  0
   -3.5802    3.1636   -3.2047 H   0  0  0  0  0  0  0  0  0  0  0  0
   -3.7912    1.1050   -3.6847 C   0  0  0  0  0  0  0  0  0  0  0  0
   -4.8132    0.9310   -4.6289 C   0  0  0  0  0  0  0  0  0  0  0  0
   -5.3623    1.7820   -5.0044 H   0  0  0  0  0  0  0  0  0  0  0  0
   -5.1142   -0.3661   -5.0782 C   0  0  0  0  0  0  0  0  0  0  0  0
   -5.8999   -0.5197   -5.8055 H   0  0  0  0  0  0  0  0  0  0  0  0
   -4.3958   -1.4664   -4.5754 C   0  0  0  0  0  0  0  0  0  0  0  0
   -4.6362   -2.4634   -4.9177 H   0  0  0  0  0  0  0  0  0  0  0  0
   -3.3719   -1.2799   -3.6251 C   0  0  0  0  0  0  0  0  0  0  0  0
   -2.8368   -2.1350   -3.2372 H   0  0  0  0  0  0  0  0  0  0  0  0
   -3.0413    0.0108   -3.1584 C   0  0  0  0  0  0  0  0  0  0  0  0
   -1.6106    0.6009    0.8454 C   0  0  0  0  0  0  0  0  0  0  0  0
   -0.6683    1.2949    1.2251 O   0  0  0  0  0  0  0  0  0  0  0  0
   -2.8800    0.8606    1.1863 N   0  0  0  0  0  0  0  0  0  0  0  0
   -3.5894    0.2111    0.8779 H   0  0  0  0  0  0  0  0  0  0  0  0
   -3.2918    1.9792    2.0298 C   0  0  0  0  0  0  0  0  0  0  0  0
   -2.8725    2.9085    1.6395 H   0  0  0  0  0  0  0  0  0  0  0  0
   -4.3798    2.0541    2.0494 H   0  0  0  0  0  0  0  0  0  0  0  0
   -2.9216    1.8273    3.0450 H   0  0  0  0  0  0  0  0  0  0  0  0
  5  6  2  0  0  0  0
  5  7  1  0  0  0  0
  2  3  1  0  0  0  0
  2  4  1  0  0  0  0
  2  5  1  0  0  0  0
  1  2  1  0  0  0  0
 29 30  2  0  0  0  0
 29 31  1  0  0  0  0
 26 27  1  0  0  0  0
 26 28  2  0  0  0  0
 24 25  1  0  0  0  0
 24 26  1  0  0  0  0
 22 23  1  0  0  0  0
 22 24  2  0  0  0  0
 20 21  1  0  0  0  0
 20 22  1  0  0  0  0
 19 20  2  0  0  0  0
 19 28  1  0  0  0  0
 17 18  1  0  0  0  0
 17 19  1  0  0  0  0
 15 16  1  0  0  0  0
 15 17  1  0  0  0  0
 14 15  2  0  0  0  0
 14 28  1  0  0  0  0
 11 12  1  0  0  0  0
 11 13  1  0  0  0  0
 11 14  1  0  0  0  0
  9 10  1  0  0  0  0
  9 11  1  0  0  0  0
  9 29  1  0  0  0  0
  7  8  1  0  0  0  0
  7  9  1  0  0  0  0
 33 34  1  0  0  0  0
 33 35  1  0  0  0  0
 33 36  1  0  0  0  0
 31 32  1  0  0  0  0
 31 33  1  0  0  0  0
M  END
$$$$
default_name
  -OEChem-12212115393D

 36 37  0     1  0  0  0  0  0999 V2000
   -4.0843   -4.0736    1.2944 H   0  0  0  0  0  0  0  0  0  0  0  0
   -4.0342   -3.2816    0.5484 C   0  0  0  0  0  0  0  0  0  0  0  0
   -4.8842   -2.6126    0.6694 H   0  0  0  0  0  0  0  0  0  0  0  0
   -4.0433   -3.7186   -0.4486 H   0  0  0  0  0  0  0  0  0  0  0  0
   -2.7532   -2.5046    0.7444 C   0  0  0  0  0  0  0  0  0  0  0  0
   -1.9803   -2.8096    1.6434 O   0  0  0  0  0  0  0  0  0  0  0  0
   -2.5332   -1.4966   -0.0966 N   0  0  0  0  0  0  0  0  0  0  0  0
   -3.2312   -1.2816   -0.7936 H   0  0  0  0  0  0  0  0  0  0  0  0
   -1.3593   -0.6196   -0.0536 C   0  0  1  0  0  0  0  0  0  0  0  0
   -0.5237   -1.1752    0.3738 H   0  0  0  0  0  0  0  0  0  0  0  0
   -0.9775   -0.2040   -1.4831 C   0  0  0  0  0  0  0  0  0  0  0  0
   -0.0887    0.4280   -1.4400 H   0  0  0  0  0  0  0  0  0  0  0  0
   -0.7179   -1.1010   -2.0479 H   0  0  0  0  0  0  0  0  0  0  0  0
   -2.0392    0.5400   -2.2349 C   0  0  0  0  0  0  0  0  0  0  0  0
   -2.2239    1.8791   -2.2169 C   0  0  0  0  0  0  0  0  0  0  0  0
   -1.6306    2.5762   -1.6353 H   0  0  0  0  0  0  0  0  0  0  0  0
   -3.2624    2.2160   -3.0628 N   0  0  0  0  0  0  0  0  0  0  0  0
   -3.5802    3.1636   -3.2047 H   0  0  0  0  0  0  0  0  0  0  0  0
   -3.7912    1.1050   -3.6847 C   0  0  0  0  0  0  0  0  0  0  0  0
   -4.8132    0.9310   -4.6289 C   0  0  0  0  0  0  0  0  0  0  0  0
   -5.3623    1.7820   -5.0044 H   0  0  0  0  0  0  0  0  0  0  0  0
   -5.1142   -0.3661   -5.0782 C   0  0  0  0  0  0  0  0  0  0  0  0
   -5.8999   -0.5197   -5.8055 H   0  0  0  0  0  0  0  0  0  0  0  0
   -4.3958   -1.4664   -4.5754 C   0  0  0  0  0  0  0  0  0  0  0  0
   -4.6362   -2.4634   -4.9177 H   0  0  0  0  0  0  0  0  0  0  0  0
   -3.3719   -1.2799   -3.6251 C   0  0  0  0  0  0  0  0  0  0  0  0
   -2.8368   -2.1350   -3.2372 H   0  0  0  0  0  0  0  0  0  0  0  0
   -3.0413    0.0108   -3.1584 C   0  0  0  0  0  0  0  0  0  0  0  0
   -1.6106    0.6009    0.8454 C   0  0  0  0  0  0  0  0  0  0  0  0
   -0.7309    1.4468    1.0014 O   0  0  0  0  0  0  0  0  0  0  0  0
   -2.8094    0.6906    1.4369 N   0  0  0  0  0  0  0  0  0  0  0  0
   -3.4565   -0.0730    1.3007 H   0  0  0  0  0  0  0  0  0  0  0  0
   -3.2112    1.7836    2.3178 C   0  0  0  0  0  0  0  0  0  0  0  0
   -3.0296    2.7401    1.8241 H   0  0  0  0  0  0  0  0  0  0  0  0
   -4.2709    1.6988    2.5623 H   0  0  0  0  0  0  0  0  0  0  0  0
   -2.6242    1.7471    3.2370 H   0  0  0  0  0  0  0  0  0  0  0  0
  5  6  2  0  0  0  0
  5  7  1  0  0  0  0
  2  3  1  0  0  0  0
  2  4  1  0  0  0  0
  2  5  1  0  0  0  0
  1  2  1  0  0  0  0
 29 30  2  0  0  0  0
 29 31  1  0  0  0  0
 26 27  1  0  0  0  0
 26 28  2  0  0  0  0
 24 25  1  0  0  0  0
 24 26  1  0  0  0  0
 22 23  1  0  0  0  0
 22 24  2  0  0  0  0
 20 21  1  0  0  0  0
 20 22  1  0  0  0  0
 19 20  2  0  0  0  0
 19 28  1  0  0  0  0
 17 18  1  0  0  0  0
 17 19  1  0  0  0  0
 15 16  1  0  0  0  0
 15 17  1  0  0  0  0
 14 15  2  0  0  0  0
 14 28  1  0  0  0  0
 11 12  1  0  0  0  0
 11 13  1  0  0  0  0
 11 14  1  0  0  0  0
  9 10  1  0  0  0  0
  9 11  1  0  0  0  0
  9 29  1  0  0  0  0
  7  8  1  0  0  0  0
  7  9  1  0  0  0  0
 33 34  1  0  0  0  0
 33 35  1  0  0  0  0
 33 36  1  0  0  0  0
 31 32  1  0  0  0  0
 31 33  1  0  0  0  0
M  END
$$$$
default_name
  -OEChem-12212115393D

 36 37  0     1  0  0  0  0  0999 V2000
   -4.0843   -4.0736    1.2944 H   0  0  0  0  0  0  0  0  0  0  0  0
   -4.0342   -3.2816    0.5484 C   0  0  0  0  0  0  0  0  0  0  0  0
   -4.8842   -2.6126    0.6694 H   0  0  0  0  0  0  0  0  0  0  0  0
   -4.0433   -3.7186   -0.4486 H   0  0  0  0  0  0  0  0  0  0  0  0
   -2.7532   -2.5046    0.7444 C   0  0  0  0  0  0  0  0  0  0  0  0
   -1.9803   -2.8096    1.6434 O   0  0  0  0  0  0  0  0  0  0  0  0
   -2.5332   -1.4966   -0.0966 N   0  0  0  0  0  0  0  0  0  0  0  0
   -3.2312   -1.2816   -0.7936 H   0  0  0  0  0  0  0  0  0  0  0  0
   -1.3593   -0.6196   -0.0536 C   0  0  1  0  0  0  0  0  0  0  0  0
   -0.5237   -1.1752    0.3738 H   0  0  0  0  0  0  0  0  0  0  0  0
   -0.9775   -0.2040   -1.4831 C   0  0  0  0  0  0  0  0  0  0  0  0
   -0.0887    0.4280   -1.4400 H   0  0  0  0  0  0  0  0  0  0  0  0
   -0.7179   -1.1010   -2.0479 H   0  0  0  0  0  0  0  0  0  0  0  0
   -2.0392    0.5400   -2.2349 C   0  0  0  0  0  0  0  0  0  0  0  0
   -2.2239    1.8791   -2.2169 C   0  0  0  0  0  0  0  0  0  0  0  0
   -1.6306    2.5762   -1.6353 H   0  0  0  0  0  0  0  0  0  0  0  0
   -3.2624    2.2160   -3.0628 N   0  0  0  0  0  0  0  0  0  0  0  0
   -3.5802    3.1636   -3.2047 H   0  0  0  0  0  0  0  0  0  0  0  0
   -3.7912    1.1050   -3.6847 C   0  0  0  0  0  0  0  0  0  0  0  0
   -4.8132    0.9310   -4.6289 C   0  0  0  0  0  0  0  0  0  0  0  0
   -5.3623    1.7820   -5.0044 H   0  0  0  0  0  0  0  0  0  0  0  0
   -5.1142   -0.3661   -5.0782 C   0  0  0  0  0  0  0  0  0  0  0  0
   -5.8999   -0.5197   -5.8055 H   0  0  0  0  0  0  0  0  0  0  0  0
   -4.3958   -1.4664   -4.5754 C   0  0  0  0  0  0  0  0  0  0  0  0
   -4.6362   -2.4634   -4.9177 H   0  0  0  0  0  0  0  0  0  0  0  0
   -3.3719   -1.2799   -3.6251 C   0  0  0  0  0  0  0  0  0  0  0  0
   -2.8368   -2.1350   -3.2372 H   0  0  0  0  0  0  0  0  0  0  0  0
   -3.0413    0.0108   -3.1584 C   0  0  0  0  0  0  0  0  0  0  0  0
   -1.6106    0.6009    0.8454 C   0  0  0  0  0  0  0  0  0  0  0  0
   -0.8604    1.5745    0.7918 O   0  0  0  0  0  0  0  0  0  0  0  0
   -2.6639    0.5476    1.6716 N   0  0  0  0  0  0  0  0  0  0  0  0
   -3.1981   -0.3094    1.6939 H   0  0  0  0  0  0  0  0  0  0  0  0
   -3.0446    1.6191    2.5878 C   0  0  0  0  0  0  0  0  0  0  0  0
   -3.1179    2.5615    2.0419 H   0  0  0  0  0  0  0  0  0  0  0  0
   -4.0064    1.3938    3.0503 H   0  0  0  0  0  0  0  0  0  0  0  0
   -2.2854    1.7228    3.3648 H   0  0  0  0  0  0  0  0  0  0  0  0
  5  6  2  0  0  0  0
  5  7  1  0  0  0  0
  2  3  1  0  0  0  0
  2  4  1  0  0  0  0
  2  5  1  0  0  0  0
  1  2  1  0  0  0  0
 29 30  2  0  0  0  0
 29 31  1  0  0  0  0
 26 27  1  0  0  0  0
 26 28  2  0  0  0  0
 24 25  1  0  0  0  0
 24 26  1  0  0  0  0
 22 23  1  0  0  0  0
 22 24  2  0  0  0  0
 20 21  1  0  0  0  0
 20 22  1  0  0  0  0
 19 20  2  0  0  0  0
 19 28  1  0  0  0  0
 17 18  1  0  0  0  0
 17 19  1  0  0  0  0
 15 16  1  0  0  0  0
 15 17  1  0  0  0  0
 14 15  2  0  0  0  0
 14 28  1  0  0  0  0
 11 12  1  0  0  0  0
 11 13  1  0  0  0  0
 11 14  1  0  0  0  0
  9 10  1  0  0  0  0
  9 11  1  0  0  0  0
  9 29  1  0  0  0  0
  7  8  1  0  0  0  0
  7  9  1  0  0  0  0
 33 34  1  0  0  0  0
 33 35  1  0  0  0  0
 33 36  1  0  0  0  0
 31 32  1  0  0  0  0
 31 33  1  0  0  0  0
M  END
$$$$
default_name
  -OEChem-12212115393D

 36 37  0     1  0  0  0  0  0999 V2000
   -4.0843   -4.0736    1.2944 H   0  0  0  0  0  0  0  0  0  0  0  0
   -4.0342   -3.2816    0.5484 C   0  0  0  0  0  0  0  0  0  0  0  0
   -4.8842   -2.6126    0.6694 H   0  0  0  0  0  0  0  0  0  0  0  0
   -4.0433   -3.7186   -0.4486 H   0  0  0  0  0  0  0  0  0  0  0  0
   -2.7532   -2.5046    0.7444 C   0  0  0  0  0  0  0  0  0  0  0  0
   -1.9803   -2.8096    1.6434 O   0  0  0  0  0  0  0  0  0  0  0  0
   -2.5332   -1.4966   -0.0966 N   0  0  0  0  0  0  0  0  0  0  0  0
   -3.2312   -1.2816   -0.7936 H   0  0  0  0  0  0  0  0  0  0  0  0
   -1.3593   -0.6196   -0.0536 C   0  0  1  0  0  0  0  0  0  0  0  0
   -0.5237   -1.1752    0.3738 H   0  0  0  0  0  0  0  0  0  0  0  0
   -0.9775   -0.2040   -1.4831 C   0  0  0  0  0  0  0  0  0  0  0  0
   -0.0887    0.4280   -1.4400 H   0  0  0  0  0  0  0  0  0  0  0  0
   -0.7179   -1.1010   -2.0479 H   0  0  0  0  0  0  0  0  0  0  0  0
   -2.0392    0.5400   -2.2349 C   0  0  0  0  0  0  0  0  0  0  0  0
   -2.2239    1.8791   -2.2169 C   0  0  0  0  0  0  0  0  0  0  0  0
   -1.6306    2.5762   -1.6353 H   0  0  0  0  0  0  0  0  0  0  0  0
   -3.2624    2.2160   -3.0628 N   0  0  0  0  0  0  0  0  0  0  0  0
   -3.5802    3.1636   -3.2047 H   0  0  0  0  0  0  0  0  0  0  0  0
   -3.7912    1.1050   -3.6847 C   0  0  0  0  0  0  0  0  0  0  0  0
   -4.8132    0.9310   -4.6289 C   0  0  0  0  0  0  0  0  0  0  0  0
   -5.3623    1.7820   -5.0044 H   0  0  0  0  0  0  0  0  0  0  0  0
   -5.1142   -0.3661   -5.0782 C   0  0  0  0  0  0  0  0  0  0  0  0
   -5.8999   -0.5197   -5.8055 H   0  0  0  0  0  0  0  0  0  0  0  0
   -4.3958   -1.4664   -4.5754 C   0  0  0  0  0  0  0  0  0  0  0  0
   -4.6362   -2.4634   -4.9177 H   0  0  0  0  0  0  0  0  0  0  0  0
   -3.3719   -1.2799   -3.6251 C   0  0  0  0  0  0  0  0  0  0  0  0
   -2.8368   -2.1350   -3.2372 H   0  0  0  0  0  0  0  0  0  0  0  0
   -3.0413    0.0108   -3.1584 C   0  0  0  0  0  0  0  0  0  0  0  0
   -1.6106    0.6009    0.8454 C   0  0  0  0  0  0  0  0  0  0  0  0
   -1.0478    1.6694    0.6105 O   0  0  0  0  0  0  0  0  0  0  0  0
   -2.4535    0.4415    1.8745 N   0  0  0  0  0  0  0  0  0  0  0  0
   -2.8319   -0.4820    2.0306 H   0  0  0  0  0  0  0  0  0  0  0  0
   -2.8032    1.4968    2.8213 C   0  0  0  0  0  0  0  0  0  0  0  0
   -3.1314    2.3849    2.2779 H   0  0  0  0  0  0  0  0  0  0  0  0
   -3.6044    1.1599    3.4802 H   0  0  0  0  0  0  0  0  0  0  0  0
   -1.9281    1.7561    3.4195 H   0  0  0  0  0  0  0  0  0  0  0  0
  5  6  2  0  0  0  0
  5  7  1  0  0  0  0
  2  3  1  0  0  0  0
  2  4  1  0  0  0  0
  2  5  1  0  0  0  0
  1  2  1  0  0  0  0
 29 30  2  0  0  0  0
 29 31  1  0  0  0  0
 26 27  1  0  0  0  0
 26 28  2  0  0  0  0
 24 25  1  0  0  0  0
 24 26  1  0  0  0  0
 22 23  1  0  0  0  0
 22 24  2  0  0  0  0
 20 21  1  0  0  0  0
 20 22  1  0  0  0  0
 19 20  2  0  0  0  0
 19 28  1  0  0  0  0
 17 18  1  0  0  0  0
 17 19  1  0  0  0  0
 15 16  1  0  0  0  0
 15 17  1  0  0  0  0
 14 15  2  0  0  0  0
 14 28  1  0  0  0  0
 11 12  1  0  0  0  0
 11 13  1  0  0  0  0
 11 14  1  0  0  0  0
  9 10  1  0  0  0  0
  9 11  1  0  0  0  0
  9 29  1  0  0  0  0
  7  8  1  0  0  0  0
  7  9  1  0  0  0  0
 33 34  1  0  0  0  0
 33 35  1  0  0  0  0
 33 36  1  0  0  0  0
 31 32  1  0  0  0  0
 31 33  1  0  0  0  0
M  END
$$$$
default_name
  -OEChem-12212115393D

 36 37  0     1  0  0  0  0  0999 V2000
   -4.0843   -4.0736    1.2944 H   0  0  0  0  0  0  0  0  0  0  0  0
   -4.0342   -3.2816    0.5484 C   0  0  0  0  0  0  0  0  0  0  0  0
   -4.8842   -2.6126    0.6694 H   0  0  0  0  0  0  0  0  0  0  0  0
   -4.0433   -3.7186   -0.4486 H   0  0  0  0  0  0  0  0  0  0  0  0
   -2.7532   -2.5046    0.7444 C   0  0  0  0  0  0  0  0  0  0  0  0
   -1.9803   -2.8096    1.6434 O   0  0  0  0  0  0  0  0  0  0  0  0
   -2.5332   -1.4966   -0.0966 N   0  0  0  0  0  0  0  0  0  0  0  0
   -3.2312   -1.2816   -0.7936 H   0  0  0  0  0  0  0  0  0  0  0  0
   -1.3593   -0.6196   -0.0536 C   0  0  1  0  0  0  0  0  0  0  0  0
   -0.5237   -1.1752    0.3738 H   0  0  0  0  0  0  0  0  0  0  0  0
   -0.9775   -0.2040   -1.4831 C   0  0  0  0  0  0  0  0  0  0  0  0
   -0.0887    0.4280   -1.4400 H   0  0  0  0  0  0  0  0  0  0  0  0
   -0.7179   -1.1010   -2.0479 H   0  0  0  0  0  0  0  0  0  0  0  0
   -2.0392    0.5400   -2.2349 C   0  0  0  0  0  0  0  0  0  0  0  0
   -2.2239    1.8791   -2.2169 C   0  0  0  0  0  0  0  0  0  0  0  0
   -1.6306    2.5762   -1.6353 H   0  0  0  0  0  0  0  0  0  0  0  0
   -3.2624    2.2160   -3.0628 N   0  0  0  0  0  0  0  0  0  0  0  0
   -3.5802    3.1636   -3.2047 H   0  0  0  0  0  0  0  0  0  0  0  0
   -3.7912    1.1050   -3.6847 C   0  0  0  0  0  0  0  0  0  0  0  0
   -4.8132    0.9310   -4.6289 C   0  0  0  0  0  0  0  0  0  0  0  0
   -5.3623    1.7820   -5.0044 H   0  0  0  0  0  0  0  0  0  0  0  0
   -5.1142   -0.3661   -5.0782 C   0  0  0  0  0  0  0  0  0  0  0  0
   -5.8999   -0.5197   -5.8055 H   0  0  0  0  0  0  0  0  0  0  0  0
   -4.3958   -1.4664   -4.5754 C   0  0  0  0  0  0  0  0  0  0  0  0
   -4.6362   -2.4634   -4.9177 H   0  0  0  0  0  0  0  0  0  0  0  0
   -3.3719   -1.2799   -3.6251 C   0  0  0  0  0  0  0  0  0  0  0  0
   -2.8368   -2.1350   -3.2372 H   0  0  0  0  0  0  0  0  0  0  0  0
   -3.0413    0.0108   -3.1584 C   0  0  0  0  0  0  0  0  0  0  0  0
   -1.6106    0.6009    0.8454 C   0  0  0  0  0  0  0  0  0  0  0  0
   -1.2806    1.7251    0.4699 O   0  0  0  0  0  0  0  0  0  0  0  0
   -2.1925    0.3794    2.0317 N   0  0  0  0  0  0  0  0  0  0  0  0
   -2.3829   -0.5790    2.2878 H   0  0  0  0  0  0  0  0  0  0  0  0
   -2.5035    1.4252    3.0023 C   0  0  0  0  0  0  0  0  0  0  0  0
   -3.0692    2.2222    2.5162 H   0  0  0  0  0  0  0  0  0  0  0  0
   -3.0923    1.0130    3.8228 H   0  0  0  0  0  0  0  0  0  0  0  0
   -1.5768    1.8446    3.3975 H   0  0  0  0  0  0  0  0  0  0  0  0
  5  6  2  0  0  0  0
  5  7  1  0  0  0  0
  2  3  1  0  0  0  0
  2  4  1  0  0  0  0
  2  5  1  0  0  0  0
  1  2  1  0  0  0  0
 29 30  2  0  0  0  0
 29 31  1  0  0  0  0
 26 27  1  0  0  0  0
 26 28  2  0  0  0  0
 24 25  1  0  0  0  0
 24 26  1  0  0  0  0
 22 23  1  0  0  0  0
 22 24  2  0  0  0  0
 20 21  1  0  0  0  0
 20 22  1  0  0  0  0
 19 20  2  0  0  0  0
 19 28  1  0  0  0  0
 17 18  1  0  0  0  0
 17 19  1  0  0  0  0
 15 16  1  0  0  0  0
 15 17  1  0  0  0  0
 14 15  2  0  0  0  0
 14 28  1  0  0  0  0
 11 12  1  0  0  0  0
 11 13  1  0  0  0  0
 11 14  1  0  0  0  0
  9 10  1  0  0  0  0
  9 11  1  0  0  0  0
  9 29  1  0  0  0  0
  7  8  1  0  0  0  0
  7  9  1  0  0  0  0
 33 34  1  0  0  0  0
 33 35  1  0  0  0  0
 33 36  1  0  0  0  0
 31 32  1  0  0  0  0
 31 33  1  0  0  0  0
M  END
$$$$
default_name
  -OEChem-12212115393D

 36 37  0     1  0  0  0  0  0999 V2000
   -4.0843   -4.0736    1.2944 H   0  0  0  0  0  0  0  0  0  0  0  0
   -4.0342   -3.2816    0.5484 C   0  0  0  0  0  0  0  0  0  0  0  0
   -4.8842   -2.6126    0.6694 H   0  0  0  0  0  0  0  0  0  0  0  0
   -4.0433   -3.7186   -0.4486 H   0  0  0  0  0  0  0  0  0  0  0  0
   -2.7532   -2.5046    0.7444 C   0  0  0  0  0  0  0  0  0  0  0  0
   -1.9803   -2.8096    1.6434 O   0  0  0  0  0  0  0  0  0  0  0  0
   -2.5332   -1.4966   -0.0966 N   0  0  0  0  0  0  0  0  0  0  0  0
   -3.2312   -1.2816   -0.7936 H   0  0  0  0  0  0  0  0  0  0  0  0
   -1.3593   -0.6196   -0.0536 C   0  0  1  0  0  0  0  0  0  0  0  0
   -0.5237   -1.1752    0.3738 H   0  0  0  0  0  0  0  0  0  0  0  0
   -0.9775   -0.2040   -1.4831 C   0  0  0  0  0  0  0  0  0  0  0  0
   -0.0887    0.4280   -1.4400 H   0  0  0  0  0  0  0  0  0  0  0  0
   -0.7179   -1.1010   -2.0479 H   0  0  0  0  0  0  0  0  0  0  0  0
   -2.0392    0.5400   -2.2349 C   0  0  0  0  0  0  0  0  0  0  0  0
   -2.2239    1.8791   -2.2169 C   0  0  0  0  0  0  0  0  0  0  0  0
   -1.6306    2.5762   -1.6353 H   0  0  0  0  0  0  0  0  0  0  0  0
   -3.2624    2.2160   -3.0628 N   0  0  0  0  0  0  0  0  0  0  0  0
   -3.5802    3.1636   -3.2047 H   0  0  0  0  0  0  0  0  0  0  0  0
   -3.7912    1.1050   -3.6847 C   0  0  0  0  0  0  0  0  0  0  0  0
   -4.8132    0.9310   -4.6289 C   0  0  0  0  0  0  0  0  0  0  0  0
   -5.3623    1.7820   -5.0044 H   0  0  0  0  0  0  0  0  0  0  0  0
   -5.1142   -0.3661   -5.0782 C   0  0  0  0  0  0  0  0  0  0  0  0
   -5.8999   -0.5197   -5.8055 H   0  0  0  0  0  0  0  0  0  0  0  0
   -4.3958   -1.4664   -4.5754 C   0  0  0  0  0  0  0  0  0  0  0  0
   -4.6362   -2.4634   -4.9177 H   0  0  0  0  0  0  0  0  0  0  0  0
   -3.3719   -1.2799   -3.6251 C   0  0  0  0  0  0  0  0  0  0  0  0
   -2.8368   -2.1350   -3.2372 H   0  0  0  0  0  0  0  0  0  0  0  0
   -3.0413    0.0108   -3.1584 C   0  0  0  0  0  0  0  0  0  0  0  0
   -1.6106    0.6009    0.8454 C   0  0  0  0  0  0  0  0  0  0  0  0
   -1.5427    1.7376    0.3796 O   0  0  0  0  0  0  0  0  0  0  0  0
   -1.8987    0.3657    2.1325 N   0  0  0  0  0  0  0  0  0  0  0  0
   -1.8815   -0.5938    2.4480 H   0  0  0  0  0  0  0  0  0  0  0  0
   -2.1659    1.4090    3.1186 C   0  0  0  0  0  0  0  0  0  0  0  0
   -2.9355    2.0846    2.7404 H   0  0  0  0  0  0  0  0  0  0  0  0
   -2.5050    0.9632    4.0546 H   0  0  0  0  0  0  0  0  0  0  0  0
   -1.2554    1.9823    3.3004 H   0  0  0  0  0  0  0  0  0  0  0  0
  5  6  2  0  0  0  0
  5  7  1  0  0  0  0
  2  3  1  0  0  0  0
  2  4  1  0  0  0  0
  2  5  1  0  0  0  0
  1  2  1  0  0  0  0
 29 30  2  0  0  0  0
 29 31  1  0  0  0  0
 26 27  1  0  0  0  0
 26 28  2  0  0  0  0
 24 25  1  0  0  0  0
 24 26  1  0  0  0  0
 22 23  1  0  0  0  0
 22 24  2  0  0  0  0
 20 21  1  0  0  0  0
 20 22  1  0  0  0  0
 19 20  2  0  0  0  0
 19 28  1  0  0  0  0
 17 18  1  0  0  0  0
 17 19  1  0  0  0  0
 15 16  1  0  0  0  0
 15 17  1  0  0  0  0
 14 15  2  0  0  0  0
 14 28  1  0  0  0  0
 11 12  1  0  0  0  0
 11 13  1  0  0  0  0
 11 14  1  0  0  0  0
  9 10  1  0  0  0  0
  9 11  1  0  0  0  0
  9 29  1  0  0  0  0
  7  8  1  0  0  0  0
  7  9  1  0  0  0  0
 33 34  1  0  0  0  0
 33 35  1  0  0  0  0
 33 36  1  0  0  0  0
 31 32  1  0  0  0  0
 31 33  1  0  0  0  0
M  END
$$$$
default_name
  -OEChem-12212115393D

 36 37  0     1  0  0  0  0  0999 V2000
   -4.0843   -4.0736    1.2944 H   0  0  0  0  0  0  0  0  0  0  0  0
   -4.0342   -3.2816    0.5484 C   0  0  0  0  0  0  0  0  0  0  0  0
   -4.8842   -2.6126    0.6694 H   0  0  0  0  0  0  0  0  0  0  0  0
   -4.0433   -3.7186   -0.4486 H   0  0  0  0  0  0  0  0  0  0  0  0
   -2.7532   -2.5046    0.7444 C   0  0  0  0  0  0  0  0  0  0  0  0
   -1.9803   -2.8096    1.6434 O   0  0  0  0  0  0  0  0  0  0  0  0
   -2.5332   -1.4966   -0.0966 N   0  0  0  0  0  0  0  0  0  0  0  0
   -3.2312   -1.2816   -0.7936 H   0  0  0  0  0  0  0  0  0  0  0  0
   -1.3593   -0.6196   -0.0536 C   0  0  1  0  0  0  0  0  0  0  0  0
   -0.5237   -1.1752    0.3738 H   0  0  0  0  0  0  0  0  0  0  0  0
   -0.9775   -0.2040   -1.4831 C   0  0  0  0  0  0  0  0  0  0  0  0
   -0.0887    0.4280   -1.4400 H   0  0  0  0  0  0  0  0  0  0  0  0
   -0.7179   -1.1010   -2.0479 H   0  0  0  0  0  0  0  0  0  0  0  0
   -2.0392    0.5400   -2.2349 C   0  0  0  0  0  0  0  0  0  0  0  0
   -2.2239    1.8791   -2.2169 C   0  0  0  0  0  0  0  0  0  0  0  0
   -1.6306    2.5762   -1.6353 H   0  0  0  0  0  0  0  0  0  0  0  0
   -3.2624    2.2160   -3.0628 N   0  0  0  0  0  0  0  0  0  0  0  0
   -3.5802    3.1636   -3.2047 H   0  0  0  0  0  0  0  0  0  0  0  0
   -3.7912    1.1050   -3.6847 C   0  0  0  0  0  0  0  0  0  0  0  0
   -4.8132    0.9310   -4.6289 C   0  0  0  0  0  0  0  0  0  0  0  0
   -5.3623    1.7820   -5.0044 H   0  0  0  0  0  0  0  0  0  0  0  0
   -5.1142   -0.3661   -5.0782 C   0  0  0  0  0  0  0  0  0  0  0  0
   -5.8999   -0.5197   -5.8055 H   0  0  0  0  0  0  0  0  0  0  0  0
   -4.3958   -1.4664   -4.5754 C   0  0  0  0  0  0  0  0  0  0  0  0
   -4.6362   -2.4634   -4.9177 H   0  0  0  0  0  0  0  0  0  0  0  0
   -3.3719   -1.2799   -3.6251 C   0  0  0  0  0  0  0  0  0  0  0  0
   -2.8368   -2.1350   -3.2372 H   0  0  0  0  0  0  0  0  0  0  0  0
   -3.0413    0.0108   -3.1584 C   0  0  0  0  0  0  0  0  0  0  0  0
   -1.6106    0.6009    0.8454 C   0  0  0  0  0  0  0  0  0  0  0  0
   -1.8163    1.7062    0.3458 O   0  0  0  0  0  0  0  0  0  0  0  0
   -1.5920    0.4011    2.1701 N   0  0  0  0  0  0  0  0  0  0  0  0
   -1.3621   -0.5253    2.5003 H   0  0  0  0  0  0  0  0  0  0  0  0
   -1.8135    1.4494    3.1623 C   0  0  0  0  0  0  0  0  0  0  0  0
   -2.7394    1.9814    2.9353 H   0  0  0  0  0  0  0  0  0  0  0  0
   -1.8825    1.0138    4.1599 H   0  0  0  0  0  0  0  0  0  0  0  0
   -0.9858    2.1600    3.1346 H   0  0  0  0  0  0  0  0  0  0  0  0
  5  6  2  0  0  0  0
  5  7  1  0  0  0  0
  2  3  1  0  0  0  0
  2  4  1  0  0  0  0
  2  5  1  0  0  0  0
  1  2  1  0  0  0  0
 29 30  2  0  0  0  0
 29 31  1  0  0  0  0
 26 27  1  0  0  0  0
 26 28  2  0  0  0  0
 24 25  1  0  0  0  0
 24 26  1  0  0  0  0
 22 23  1  0  0  0  0
 22 24  2  0  0  0  0
 20 21  1  0  0  0  0
 20 22  1  0  0  0  0
 19 20  2  0  0  0  0
 19 28  1  0  0  0  0
 17 18  1  0  0  0  0
 17 19  1  0  0  0  0
 15 16  1  0  0  0  0
 15 17  1  0  0  0  0
 14 15  2  0  0  0  0
 14 28  1  0  0  0  0
 11 12  1  0  0  0  0
 11 13  1  0  0  0  0
 11 14  1  0  0  0  0
  9 10  1  0  0  0  0
  9 11  1  0  0  0  0
  9 29  1  0  0  0  0
  7  8  1  0  0  0  0
  7  9  1  0  0  0  0
 33 34  1  0  0  0  0
 33 35  1  0  0  0  0
 33 36  1  0  0  0  0
 31 32  1  0  0  0  0
 31 33  1  0  0  0  0
M  END
$$$$
default_name
  -OEChem-12212115393D

 36 37  0     1  0  0  0  0  0999 V2000
   -4.0843   -4.0736    1.2944 H   0  0  0  0  0  0  0  0  0  0  0  0
   -4.0342   -3.2816    0.5484 C   0  0  0  0  0  0  0  0  0  0  0  0
   -4.8842   -2.6126    0.6694 H   0  0  0  0  0  0  0  0  0  0  0  0
   -4.0433   -3.7186   -0.4486 H   0  0  0  0  0  0  0  0  0  0  0  0
   -2.7532   -2.5046    0.7444 C   0  0  0  0  0  0  0  0  0  0  0  0
   -1.9803   -2.8096    1.6434 O   0  0  0  0  0  0  0  0  0  0  0  0
   -2.5332   -1.4966   -0.0966 N   0  0  0  0  0  0  0  0  0  0  0  0
   -3.2312   -1.2816   -0.7936 H   0  0  0  0  0  0  0  0  0  0  0  0
   -1.3593   -0.6196   -0.0536 C   0  0  1  0  0  0  0  0  0  0  0  0
   -0.5237   -1.1752    0.3738 H   0  0  0  0  0  0  0  0  0  0  0  0
   -0.9775   -0.2040   -1.4831 C   0  0  0  0  0  0  0  0  0  0  0  0
   -0.0887    0.4280   -1.4400 H   0  0  0  0  0  0  0  0  0  0  0  0
   -0.7179   -1.1010   -2.0479 H   0  0  0  0  0  0  0  0  0  0  0  0
   -2.0392    0.5400   -2.2349 C   0  0  0  0  0  0  0  0  0  0  0  0
   -2.2239    1.8791   -2.2169 C   0  0  0  0  0  0  0  0  0  0  0  0
   -1.6306    2.5762   -1.6353 H   0  0  0  0  0  0  0  0  0  0  0  0
   -3.2624    2.2160   -3.0628 N   0  0  0  0  0  0  0  0  0  0  0  0
   -3.5802    3.1636   -3.2047 H   0  0  0  0  0  0  0  0  0  0  0  0
   -3.7912    1.1050   -3.6847 C   0  0  0  0  0  0  0  0  0  0  0  0
   -4.8132    0.9310   -4.6289 C   0  0  0  0  0  0  0  0  0  0  0  0
   -5.3623    1.7820   -5.0044 H   0  0  0  0  0  0  0  0  0  0  0  0
   -5.1142   -0.3661   -5.0782 C   0  0  0  0  0  0  0  0  0  0  0  0
   -5.8999   -0.5197   -5.8055 H   0  0  0  0  0  0  0  0  0  0  0  0
   -4.3958   -1.4664   -4.5754 C   0  0  0  0  0  0  0  0  0  0  0  0
   -4.6362   -2.4634   -4.9177 H   0  0  0  0  0  0  0  0  0  0  0  0
   -3.3719   -1.2799   -3.6251 C   0  0  0  0  0  0  0  0  0  0  0  0
   -2.8368   -2.1350   -3.2372 H   0  0  0  0  0  0  0  0  0  0  0  0
   -3.0413    0.0108   -3.1584 C   0  0  0  0  0  0  0  0  0  0  0  0
   -1.6106    0.6009    0.8454 C   0  0  0  0  0  0  0  0  0  0  0  0
   -2.0828    1.6330    0.3707 O   0  0  0  0  0  0  0  0  0  0  0  0
   -1.2935    0.4834    2.1418 N   0  0  0  0  0  0  0  0  0  0  0  0
   -0.8600   -0.3784    2.4412 H   0  0  0  0  0  0  0  0  0  0  0  0
   -1.4703    1.5437    3.1303 C   0  0  0  0  0  0  0  0  0  0  0  0
   -2.4943    1.9197    3.0877 H   0  0  0  0  0  0  0  0  0  0  0  0
   -1.2672    1.1614    4.1315 H   0  0  0  0  0  0  0  0  0  0  0  0
   -0.7863    2.3654    2.9115 H   0  0  0  0  0  0  0  0  0  0  0  0
  5  6  2  0  0  0  0
  5  7  1  0  0  0  0
  2  3  1  0  0  0  0
  2  4  1  0  0  0  0
  2  5  1  0  0  0  0
  1  2  1  0  0  0  0
 29 30  2  0  0  0  0
 29 31  1  0  0  0  0
 26 27  1  0  0  0  0
 26 28  2  0  0  0  0
 24 25  1  0  0  0  0
 24 26  1  0  0  0  0
 22 23  1  0  0  0  0
 22 24  2  0  0  0  0
 20 21  1  0  0  0  0
 20 22  1  0  0  0  0
 19 20  2  0  0  0  0
 19 28  1  0  0  0  0
 17 18  1  0  0  0  0
 17 19  1  0  0  0  0
 15 16  1  0  0  0  0
 15 17  1  0  0  0  0
 14 15  2  0  0  0  0
 14 28  1  0  0  0  0
 11 12  1  0  0  0  0
 11 13  1  0  0  0  0
 11 14  1  0  0  0  0
  9 10  1  0  0  0  0
  9 11  1  0  0  0  0
  9 29  1  0  0  0  0
  7  8  1  0  0  0  0
  7  9  1  0  0  0  0
 33 34  1  0  0  0  0
 33 35  1  0  0  0  0
 33 36  1  0  0  0  0
 31 32  1  0  0  0  0
 31 33  1  0  0  0  0
M  END
$$$$
default_name
  -OEChem-12212115393D

 36 37  0     1  0  0  0  0  0999 V2000
   -4.0843   -4.0736    1.2944 H   0  0  0  0  0  0  0  0  0  0  0  0
   -4.0342   -3.2816    0.5484 C   0  0  0  0  0  0  0  0  0  0  0  0
   -4.8842   -2.6126    0.6694 H   0  0  0  0  0  0  0  0  0  0  0  0
   -4.0433   -3.7186   -0.4486 H   0  0  0  0  0  0  0  0  0  0  0  0
   -2.7532   -2.5046    0.7444 C   0  0  0  0  0  0  0  0  0  0  0  0
   -1.9803   -2.8096    1.6434 O   0  0  0  0  0  0  0  0  0  0  0  0
   -2.5332   -1.4966   -0.0966 N   0  0  0  0  0  0  0  0  0  0  0  0
   -3.2312   -1.2816   -0.7936 H   0  0  0  0  0  0  0  0  0  0  0  0
   -1.3593   -0.6196   -0.0536 C   0  0  1  0  0  0  0  0  0  0  0  0
   -0.5237   -1.1752    0.3738 H   0  0  0  0  0  0  0  0  0  0  0  0
   -0.9775   -0.2040   -1.4831 C   0  0  0  0  0  0  0  0  0  0  0  0
   -0.0887    0.4280   -1.4400 H   0  0  0  0  0  0  0  0  0  0  0  0
   -0.7179   -1.1010   -2.0479 H   0  0  0  0  0  0  0  0  0  0  0  0
   -2.0392    0.5400   -2.2349 C   0  0  0  0  0  0  0  0  0  0  0  0
   -2.2239    1.8791   -2.2169 C   0  0  0  0  0  0  0  0  0  0  0  0
   -1.6306    2.5762   -1.6353 H   0  0  0  0  0  0  0  0  0  0  0  0
   -3.2624    2.2160   -3.0628 N   0  0  0  0  0  0  0  0  0  0  0  0
   -3.5802    3.1636   -3.2047 H   0  0  0  0  0  0  0  0  0  0  0  0
   -3.7912    1.1050   -3.6847 C   0  0  0  0  0  0  0  0  0  0  0  0
   -4.8132    0.9310   -4.6289 C   0  0  0  0  0  0  0  0  0  0  0  0
   -5.3623    1.7820   -5.0044 H   0  0  0  0  0  0  0  0  0  0  0  0
   -5.1142   -0.3661   -5.0782 C   0  0  0  0  0  0  0  0  0  0  0  0
   -5.8999   -0.5197   -5.8055 H   0  0  0  0  0  0  0  0  0  0  0  0
   -4.3958   -1.4664   -4.5754 C   0  0  0  0  0  0  0  0  0  0  0  0
   -4.6362   -2.4634   -4.9177 H   0  0  0  0  0  0  0  0  0  0  0  0
   -3.3719   -1.2799   -3.6251 C   0  0  0  0  0  0  0  0  0  0  0  0
   -2.8368   -2.1350   -3.2372 H   0  0  0  0  0  0  0  0  0  0  0  0
   -3.0413    0.0108   -3.1584 C   0  0  0  0  0  0  0  0  0  0  0  0
   -1.6106    0.6009    0.8454 C   0  0  0  0  0  0  0  0  0  0  0  0
   -2.3241    1.5230    0.4526 O   0  0  0  0  0  0  0  0  0  0  0  0
   -1.0234    0.6069    2.0497 N   0  0  0  0  0  0  0  0  0  0  0  0
   -0.4094   -0.1629    2.2746 H   0  0  0  0  0  0  0  0  0  0  0  0
   -1.1596    1.6853    3.0248 C   0  0  0  0  0  0  0  0  0  0  0  0
   -2.2168    1.9036    3.1870 H   0  0  0  0  0  0  0  0  0  0  0  0
   -0.7011    1.3960    3.9713 H   0  0  0  0  0  0  0  0  0  0  0  0
   -0.6706    2.5845    2.6463 H   0  0  0  0  0  0  0  0  0  0  0  0
  5  6  2  0  0  0  0
  5  7  1  0  0  0  0
  2  3  1  0  0  0  0
  2  4  1  0  0  0  0
  2  5  1  0  0  0  0
  1  2  1  0  0  0  0
 29 30  2  0  0  0  0
 29 31  1  0  0  0  0
 26 27  1  0  0  0  0
 26 28  2  0  0  0  0
 24 25  1  0  0  0  0
 24 26  1  0  0  0  0
 22 23  1  0  0  0  0
 22 24  2  0  0  0  0
 20 21  1  0  0  0  0
 20 22  1  0  0  0  0
 19 20  2  0  0  0  0
 19 28  1  0  0  0  0
 17 18  1  0  0  0  0
 17 19  1  0  0  0  0
 15 16  1  0  0  0  0
 15 17  1  0  0  0  0
 14 15  2  0  0  0  0
 14 28  1  0  0  0  0
 11 12  1  0  0  0  0
 11 13  1  0  0  0  0
 11 14  1  0  0  0  0
  9 10  1  0  0  0  0
  9 11  1  0  0  0  0
  9 29  1  0  0  0  0
  7  8  1  0  0  0  0
  7  9  1  0  0  0  0
 33 34  1  0  0  0  0
 33 35  1  0  0  0  0
 33 36  1  0  0  0  0
 31 32  1  0  0  0  0
 31 33  1  0  0  0  0
M  END
$$$$
default_name
  -OEChem-12212115393D

 36 37  0     1  0  0  0  0  0999 V2000
   -4.0843   -4.0736    1.2944 H   0  0  0  0  0  0  0  0  0  0  0  0
   -4.0342   -3.2816    0.5484 C   0  0  0  0  0  0  0  0  0  0  0  0
   -4.8842   -2.6126    0.6694 H   0  0  0  0  0  0  0  0  0  0  0  0
   -4.0433   -3.7186   -0.4486 H   0  0  0  0  0  0  0  0  0  0  0  0
   -2.7532   -2.5046    0.7444 C   0  0  0  0  0  0  0  0  0  0  0  0
   -1.9803   -2.8096    1.6434 O   0  0  0  0  0  0  0  0  0  0  0  0
   -2.5332   -1.4966   -0.0966 N   0  0  0  0  0  0  0  0  0  0  0  0
   -3.2312   -1.2816   -0.7936 H   0  0  0  0  0  0  0  0  0  0  0  0
   -1.3593   -0.6196   -0.0536 C   0  0  1  0  0  0  0  0  0  0  0  0
   -0.5237   -1.1752    0.3738 H   0  0  0  0  0  0  0  0  0  0  0  0
   -0.9775   -0.2040   -1.4831 C   0  0  0  0  0  0  0  0  0  0  0  0
   -0.0887    0.4280   -1.4400 H   0  0  0  0  0  0  0  0  0  0  0  0
   -0.7179   -1.1010   -2.0479 H   0  0  0  0  0  0  0  0  0  0  0  0
   -2.0392    0.5400   -2.2349 C   0  0  0  0  0  0  0  0  0  0  0  0
   -2.2239    1.8791   -2.2169 C   0  0  0  0  0  0  0  0  0  0  0  0
   -1.6306    2.5762   -1.6353 H   0  0  0  0  0  0  0  0  0  0  0  0
   -3.2624    2.2160   -3.0628 N   0  0  0  0  0  0  0  0  0  0  0  0
   -3.5802    3.1636   -3.2047 H   0  0  0  0  0  0  0  0  0  0  0  0
   -3.7912    1.1050   -3.6847 C   0  0  0  0  0  0  0  0  0  0  0  0
   -4.8132    0.9310   -4.6289 C   0  0  0  0  0  0  0  0  0  0  0  0
   -5.3623    1.7820   -5.0044 H   0  0  0  0  0  0  0  0  0  0  0  0
   -5.1142   -0.3661   -5.0782 C   0  0  0  0  0  0  0  0  0  0  0  0
   -5.8999   -0.5197   -5.8055 H   0  0  0  0  0  0  0  0  0  0  0  0
   -4.3958   -1.4664   -4.5754 C   0  0  0  0  0  0  0  0  0  0  0  0
   -4.6362   -2.4634   -4.9177 H   0  0  0  0  0  0  0  0  0  0  0  0
   -3.3719   -1.2799   -3.6251 C   0  0  0  0  0  0  0  0  0  0  0  0
   -2.8368   -2.1350   -3.2372 H   0  0  0  0  0  0  0  0  0  0  0  0
   -3.0413    0.0108   -3.1584 C   0  0  0  0  0  0  0  0  0  0  0  0
   -1.6106    0.6009    0.8454 C   0  0  0  0  0  0  0  0  0  0  0  0
   -2.5236    1.3836    0.5860 O   0  0  0  0  0  0  0  0  0  0  0  0
   -0.8002    0.7632    1.8999 N   0  0  0  0  0  0  0  0  0  0  0  0
   -0.0410    0.1064    2.0120 H   0  0  0  0  0  0  0  0  0  0  0  0
   -0.9026    1.8647    2.8530 C   0  0  0  0  0  0  0  0  0  0  0  0
   -1.9260    1.9343    3.2267 H   0  0  0  0  0  0  0  0  0  0  0  0
   -0.2227    1.7015    3.6902 H   0  0  0  0  0  0  0  0  0  0  0  0
   -0.6466    2.8025    2.3571 H   0  0  0  0  0  0  0  0  0  0  0  0
  5  6  2  0  0  0  0
  5  7  1  0  0  0  0
  2  3  1  0  0  0  0
  2  4  1  0  0  0  0
  2  5  1  0  0  0  0
  1  2  1  0  0  0  0
 29 30  2  0  0  0  0
 29 31  1  0  0  0  0
 26 27  1  0  0  0  0
 26 28  2  0  0  0  0
 24 25  1  0  0  0  0
 24 26  1  0  0  0  0
 22 23  1  0  0  0  0
 22 24  2  0  0  0  0
 20 21  1  0  0  0  0
 20 22  1  0  0  0  0
 19 20  2  0  0  0  0
 19 28  1  0  0  0  0
 17 18  1  0  0  0  0
 17 19  1  0  0  0  0
 15 16  1  0  0  0  0
 15 17  1  0  0  0  0
 14 15  2  0  0  0  0
 14 28  1  0  0  0  0
 11 12  1  0  0  0  0
 11 13  1  0  0  0  0
 11 14  1  0  0  0  0
  9 10  1  0  0  0  0
  9 11  1  0  0  0  0
  9 29  1  0  0  0  0
  7  8  1  0  0  0  0
  7  9  1  0  0  0  0
 33 34  1  0  0  0  0
 33 35  1  0  0  0  0
 33 36  1  0  0  0  0
 31 32  1  0  0  0  0
 31 33  1  0  0  0  0
M  END
$$$$
default_name
  -OEChem-12212115393D

 36 37  0     1  0  0  0  0  0999 V2000
   -4.0843   -4.0736    1.2944 H   0  0  0  0  0  0  0  0  0  0  0  0
   -4.0342   -3.2816    0.5484 C   0  0  0  0  0  0  0  0  0  0  0  0
   -4.8842   -2.6126    0.6694 H   0  0  0  0  0  0  0  0  0  0  0  0
   -4.0433   -3.7186   -0.4486 H   0  0  0  0  0  0  0  0  0  0  0  0
   -2.7532   -2.5046    0.7444 C   0  0  0  0  0  0  0  0  0  0  0  0
   -1.9803   -2.8096    1.6434 O   0  0  0  0  0  0  0  0  0  0  0  0
   -2.5332   -1.4966   -0.0966 N   0  0  0  0  0  0  0  0  0  0  0  0
   -3.2312   -1.2816   -0.7936 H   0  0  0  0  0  0  0  0  0  0  0  0
   -1.3593   -0.6196   -0.0536 C   0  0  1  0  0  0  0  0  0  0  0  0
   -0.5237   -1.1752    0.3738 H   0  0  0  0  0  0  0  0  0  0  0  0
   -0.9775   -0.2040   -1.4831 C   0  0  0  0  0  0  0  0  0  0  0  0
   -0.0887    0.4280   -1.4400 H   0  0  0  0  0  0  0  0  0  0  0  0
   -0.7179   -1.1010   -2.0479 H   0  0  0  0  0  0  0  0  0  0  0  0
   -2.0392    0.5400   -2.2349 C   0  0  0  0  0  0  0  0  0  0  0  0
   -2.2239    1.8791   -2.2169 C   0  0  0  0  0  0  0  0  0  0  0  0
   -1.6306    2.5762   -1.6353 H   0  0  0  0  0  0  0  0  0  0  0  0
   -3.2624    2.2160   -3.0628 N   0  0  0  0  0  0  0  0  0  0  0  0
   -3.5802    3.1636   -3.2047 H   0  0  0  0  0  0  0  0  0  0  0  0
   -3.7912    1.1050   -3.6847 C   0  0  0  0  0  0  0  0  0  0  0  0
   -4.8132    0.9310   -4.6289 C   0  0  0  0  0  0  0  0  0  0  0  0
   -5.3623    1.7820   -5.0044 H   0  0  0  0  0  0  0  0  0  0  0  0
   -5.1142   -0.3661   -5.0782 C   0  0  0  0  0  0  0  0  0  0  0  0
   -5.8999   -0.5197   -5.8055 H   0  0  0  0  0  0  0  0  0  0  0  0
   -4.3958   -1.4664   -4.5754 C   0  0  0  0  0  0  0  0  0  0  0  0
   -4.6362   -2.4634   -4.9177 H   0  0  0  0  0  0  0  0  0  0  0  0
   -3.3719   -1.2799   -3.6251 C   0  0  0  0  0  0  0  0  0  0  0  0
   -2.8368   -2.1350   -3.2372 H   0  0  0  0  0  0  0  0  0  0  0  0
   -3.0413    0.0108   -3.1584 C   0  0  0  0  0  0  0  0  0  0  0  0
   -1.6106    0.6009    0.8454 C   0  0  0  0  0  0  0  0  0  0  0  0
   -2.6678    1.2245    0.7618 O   0  0  0  0  0  0  0  0  0  0  0  0
   -0.6390    0.9416    1.7027 N   0  0  0  0  0  0  0  0  0  0  0  0
    0.2200    0.4112    1.6711 H   0  0  0  0  0  0  0  0  0  0  0  0
   -0.7169    2.0697    2.6267 C   0  0  0  0  0  0  0  0  0  0  0  0
   -1.6415    2.0097    3.2038 H   0  0  0  0  0  0  0  0  0  0  0  0
    0.1353    2.0571    3.3075 H   0  0  0  0  0  0  0  0  0  0  0  0
   -0.7158    3.0044    2.0635 H   0  0  0  0  0  0  0  0  0  0  0  0
  5  6  2  0  0  0  0
  5  7  1  0  0  0  0
  2  3  1  0  0  0  0
  2  4  1  0  0  0  0
  2  5  1  0  0  0  0
  1  2  1  0  0  0  0
 29 30  2  0  0  0  0
 29 31  1  0  0  0  0
 26 27  1  0  0  0  0
 26 28  2  0  0  0  0
 24 25  1  0  0  0  0
 24 26  1  0  0  0  0
 22 23  1  0  0  0  0
 22 24  2  0  0  0  0
 20 21  1  0  0  0  0
 20 22  1  0  0  0  0
 19 20  2  0  0  0  0
 19 28  1  0  0  0  0
 17 18  1  0  0  0  0
 17 19  1  0  0  0  0
 15 16  1  0  0  0  0
 15 17  1  0  0  0  0
 14 15  2  0  0  0  0
 14 28  1  0  0  0  0
 11 12  1  0  0  0  0
 11 13  1  0  0  0  0
 11 14  1  0  0  0  0
  9 10  1  0  0  0  0
  9 11  1  0  0  0  0
  9 29  1  0  0  0  0
  7  8  1  0  0  0  0
  7  9  1  0  0  0  0
 33 34  1  0  0  0  0
 33 35  1  0  0  0  0
 33 36  1  0  0  0  0
 31 32  1  0  0  0  0
 31 33  1  0  0  0  0
M  END
$$$$
default_name
  -OEChem-12212115393D

 36 37  0     1  0  0  0  0  0999 V2000
   -4.0843   -4.0736    1.2944 H   0  0  0  0  0  0  0  0  0  0  0  0
   -4.0342   -3.2816    0.5484 C   0  0  0  0  0  0  0  0  0  0  0  0
   -4.8842   -2.6126    0.6694 H   0  0  0  0  0  0  0  0  0  0  0  0
   -4.0433   -3.7186   -0.4486 H   0  0  0  0  0  0  0  0  0  0  0  0
   -2.7532   -2.5046    0.7444 C   0  0  0  0  0  0  0  0  0  0  0  0
   -1.9803   -2.8096    1.6434 O   0  0  0  0  0  0  0  0  0  0  0  0
   -2.5332   -1.4966   -0.0966 N   0  0  0  0  0  0  0  0  0  0  0  0
   -3.2312   -1.2816   -0.7936 H   0  0  0  0  0  0  0  0  0  0  0  0
   -1.3593   -0.6196   -0.0536 C   0  0  1  0  0  0  0  0  0  0  0  0
   -0.5237   -1.1752    0.3738 H   0  0  0  0  0  0  0  0  0  0  0  0
   -0.9775   -0.2040   -1.4831 C   0  0  0  0  0  0  0  0  0  0  0  0
   -0.0887    0.4280   -1.4400 H   0  0  0  0  0  0  0  0  0  0  0  0
   -0.7179   -1.1010   -2.0479 H   0  0  0  0  0  0  0  0  0  0  0  0
   -2.0392    0.5400   -2.2349 C   0  0  0  0  0  0  0  0  0  0  0  0
   -2.2239    1.8791   -2.2169 C   0  0  0  0  0  0  0  0  0  0  0  0
   -1.6306    2.5762   -1.6353 H   0  0  0  0  0  0  0  0  0  0  0  0
   -3.2624    2.2160   -3.0628 N   0  0  0  0  0  0  0  0  0  0  0  0
   -3.5802    3.1636   -3.2047 H   0  0  0  0  0  0  0  0  0  0  0  0
   -3.7912    1.1050   -3.6847 C   0  0  0  0  0  0  0  0  0  0  0  0
   -4.8132    0.9310   -4.6289 C   0  0  0  0  0  0  0  0  0  0  0  0
   -5.3623    1.7820   -5.0044 H   0  0  0  0  0  0  0  0  0  0  0  0
   -5.1142   -0.3661   -5.0782 C   0  0  0  0  0  0  0  0  0  0  0  0
   -5.8999   -0.5197   -5.8055 H   0  0  0  0  0  0  0  0  0  0  0  0
   -4.3958   -1.4664   -4.5754 C   0  0  0  0  0  0  0  0  0  0  0  0
   -4.6362   -2.4634   -4.9177 H   0  0  0  0  0  0  0  0  0  0  0  0
   -3.3719   -1.2799   -3.6251 C   0  0  0  0  0  0  0  0  0  0  0  0
   -2.8368   -2.1350   -3.2372 H   0  0  0  0  0  0  0  0  0  0  0  0
   -3.0413    0.0108   -3.1584 C   0  0  0  0  0  0  0  0  0  0  0  0
   -1.6106    0.6009    0.8454 C   0  0  0  0  0  0  0  0  0  0  0  0
   -2.7468    1.0564    0.9679 O   0  0  0  0  0  0  0  0  0  0  0  0
   -0.5508    1.1300    1.4716 N   0  0  0  0  0  0  0  0  0  0  0  0
    0.3560    0.7307    1.2753 H   0  0  0  0  0  0  0  0  0  0  0  0
   -0.6150    2.2862    2.3612 C   0  0  0  0  0  0  0  0  0  0  0  0
   -1.3829    2.1246    3.1201 H   0  0  0  0  0  0  0  0  0  0  0  0
    0.3486    2.4386    2.8491 H   0  0  0  0  0  0  0  0  0  0  0  0
   -0.8736    3.1766    1.7857 H   0  0  0  0  0  0  0  0  0  0  0  0
  5  6  2  0  0  0  0
  5  7  1  0  0  0  0
  2  3  1  0  0  0  0
  2  4  1  0  0  0  0
  2  5  1  0  0  0  0
  1  2  1  0  0  0  0
 29 30  2  0  0  0  0
 29 31  1  0  0  0  0
 26 27  1  0  0  0  0
 26 28  2  0  0  0  0
 24 25  1  0  0  0  0
 24 26  1  0  0  0  0
 22 23  1  0  0  0  0
 22 24  2  0  0  0  0
 20 21  1  0  0  0  0
 20 22  1  0  0  0  0
 19 20  2  0  0  0  0
 19 28  1  0  0  0  0
 17 18  1  0  0  0  0
 17 19  1  0  0  0  0
 15 16  1  0  0  0  0
 15 17  1  0  0  0  0
 14 15  2  0  0  0  0
 14 28  1  0  0  0  0
 11 12  1  0  0  0  0
 11 13  1  0  0  0  0
 11 14  1  0  0  0  0
  9 10  1  0  0  0  0
  9 11  1  0  0  0  0
  9 29  1  0  0  0  0
  7  8  1  0  0  0  0
  7  9  1  0  0  0  0
 33 34  1  0  0  0  0
 33 35  1  0  0  0  0
 33 36  1  0  0  0  0
 31 32  1  0  0  0  0
 31 33  1  0  0  0  0
M  END
$$$$
default_name
  -OEChem-12212115393D

 36 37  0     1  0  0  0  0  0999 V2000
   -4.0843   -4.0736    1.2944 H   0  0  0  0  0  0  0  0  0  0  0  0
   -4.0342   -3.2816    0.5484 C   0  0  0  0  0  0  0  0  0  0  0  0
   -4.8842   -2.6126    0.6694 H   0  0  0  0  0  0  0  0  0  0  0  0
   -4.0433   -3.7186   -0.4486 H   0  0  0  0  0  0  0  0  0  0  0  0
   -2.7532   -2.5046    0.7444 C   0  0  0  0  0  0  0  0  0  0  0  0
   -1.9803   -2.8096    1.6434 O   0  0  0  0  0  0  0  0  0  0  0  0
   -2.5332   -1.4966   -0.0966 N   0  0  0  0  0  0  0  0  0  0  0  0
   -3.2312   -1.2816   -0.7936 H   0  0  0  0  0  0  0  0  0  0  0  0
   -1.3593   -0.6196   -0.0536 C   0  0  1  0  0  0  0  0  0  0  0  0
   -0.5237   -1.1752    0.3738 H   0  0  0  0  0  0  0  0  0  0  0  0
   -0.9775   -0.2040   -1.4831 C   0  0  0  0  0  0  0  0  0  0  0  0
   -0.0887    0.4280   -1.4400 H   0  0  0  0  0  0  0  0  0  0  0  0
   -0.7179   -1.1010   -2.0479 H   0  0  0  0  0  0  0  0  0  0  0  0
   -2.0392    0.5400   -2.2349 C   0  0  0  0  0  0  0  0  0  0  0  0
   -2.2239    1.8791   -2.2169 C   0  0  0  0  0  0  0  0  0  0  0  0
   -1.6306    2.5762   -1.6353 H   0  0  0  0  0  0  0  0  0  0  0  0
   -3.2624    2.2160   -3.0628 N   0  0  0  0  0  0  0  0  0  0  0  0
   -3.5802    3.1636   -3.2047 H   0  0  0  0  0  0  0  0  0  0  0  0
   -3.7912    1.1050   -3.6847 C   0  0  0  0  0  0  0  0  0  0  0  0
   -4.8132    0.9310   -4.6289 C   0  0  0  0  0  0  0  0  0  0  0  0
   -5.3623    1.7820   -5.0044 H   0  0  0  0  0  0  0  0  0  0  0  0
   -5.1142   -0.3661   -5.0782 C   0  0  0  0  0  0  0  0  0  0  0  0
   -5.8999   -0.5197   -5.8055 H   0  0  0  0  0  0  0  0  0  0  0  0
   -4.3958   -1.4664   -4.5754 C   0  0  0  0  0  0  0  0  0  0  0  0
   -4.6362   -2.4634   -4.9177 H   0  0  0  0  0  0  0  0  0  0  0  0
   -3.3719   -1.2799   -3.6251 C   0  0  0  0  0  0  0  0  0  0  0  0
   -2.8368   -2.1350   -3.2372 H   0  0  0  0  0  0  0  0  0  0  0  0
   -3.0413    0.0108   -3.1584 C   0  0  0  0  0  0  0  0  0  0  0  0
   -1.6106    0.6009    0.8454 C   0  0  0  0  0  0  0  0  0  0  0  0
   -2.7554    0.8907    1.1904 O   0  0  0  0  0  0  0  0  0  0  0  0
   -0.5418    1.3156    1.2222 N   0  0  0  0  0  0  0  0  0  0  0  0
    0.3575    1.0431    0.8516 H   0  0  0  0  0  0  0  0  0  0  0  0
   -0.6040    2.4995    2.0747 C   0  0  0  0  0  0  0  0  0  0  0  0
   -1.1677    2.2712    2.9812 H   0  0  0  0  0  0  0  0  0  0  0  0
    0.4026    2.8201    2.3463 H   0  0  0  0  0  0  0  0  0  0  0  0
   -1.1093    3.3072    1.5425 H   0  0  0  0  0  0  0  0  0  0  0  0
  5  6  2  0  0  0  0
  5  7  1  0  0  0  0
  2  3  1  0  0  0  0
  2  4  1  0  0  0  0
  2  5  1  0  0  0  0
  1  2  1  0  0  0  0
 29 30  2  0  0  0  0
 29 31  1  0  0  0  0
 26 27  1  0  0  0  0
 26 28  2  0  0  0  0
 24 25  1  0  0  0  0
 24 26  1  0  0  0  0
 22 23  1  0  0  0  0
 22 24  2  0  0  0  0
 20 21  1  0  0  0  0
 20 22  1  0  0  0  0
 19 20  2  0  0  0  0
 19 28  1  0  0  0  0
 17 18  1  0  0  0  0
 17 19  1  0  0  0  0
 15 16  1  0  0  0  0
 15 17  1  0  0  0  0
 14 15  2  0  0  0  0
 14 28  1  0  0  0  0
 11 12  1  0  0  0  0
 11 13  1  0  0  0  0
 11 14  1  0  0  0  0
  9 10  1  0  0  0  0
  9 11  1  0  0  0  0
  9 29  1  0  0  0  0
  7  8  1  0  0  0  0
  7  9  1  0  0  0  0
 33 34  1  0  0  0  0
 33 35  1  0  0  0  0
 33 36  1  0  0  0  0
 31 32  1  0  0  0  0
 31 33  1  0  0  0  0
M  END
$$$$
default_name
  -OEChem-12212115393D

 36 37  0     1  0  0  0  0  0999 V2000
   -4.0843   -4.0736    1.2944 H   0  0  0  0  0  0  0  0  0  0  0  0
   -4.0342   -3.2816    0.5484 C   0  0  0  0  0  0  0  0  0  0  0  0
   -4.8842   -2.6126    0.6694 H   0  0  0  0  0  0  0  0  0  0  0  0
   -4.0433   -3.7186   -0.4486 H   0  0  0  0  0  0  0  0  0  0  0  0
   -2.7532   -2.5046    0.7444 C   0  0  0  0  0  0  0  0  0  0  0  0
   -1.9803   -2.8096    1.6434 O   0  0  0  0  0  0  0  0  0  0  0  0
   -2.5332   -1.4966   -0.0966 N   0  0  0  0  0  0  0  0  0  0  0  0
   -3.2312   -1.2816   -0.7936 H   0  0  0  0  0  0  0  0  0  0  0  0
   -1.3593   -0.6196   -0.0536 C   0  0  1  0  0  0  0  0  0  0  0  0
   -0.4722   -1.2314    0.1150 H   0  0  0  0  0  0  0  0  0  0  0  0
   -1.2010    0.0915   -1.4068 C   0  0  0  0  0  0  0  0  0  0  0  0
   -0.3109    0.7220   -1.3707 H   0  0  0  0  0  0  0  0  0  0  0  0
   -1.0403   -0.6630   -2.1788 H   0  0  0  0  0  0  0  0  0  0  0  0
   -2.3602    0.9492   -1.8149 C   0  0  0  0  0  0  0  0  0  0  0  0
   -2.5281    2.2509   -1.4907 C   0  0  0  0  0  0  0  0  0  0  0  0
   -1.8455    2.8266   -0.8753 H   0  0  0  0  0  0  0  0  0  0  0  0
   -3.6827    2.7303   -2.0778 N   0  0  0  0  0  0  0  0  0  0  0  0
   -4.0104    3.6790   -1.9689 H   0  0  0  0  0  0  0  0  0  0  0  0
   -4.3115    1.7595   -2.8280 C   0  0  0  0  0  0  0  0  0  0  0  0
   -5.4695    1.7600   -3.6188 C   0  0  0  0  0  0  0  0  0  0  0  0
   -6.0628    2.6569   -3.7201 H   0  0  0  0  0  0  0  0  0  0  0  0
   -5.8480    0.5769   -4.2761 C   0  0  0  0  0  0  0  0  0  0  0  0
   -6.7387    0.5582   -4.8895 H   0  0  0  0  0  0  0  0  0  0  0  0
   -5.0698   -0.5859   -4.1298 C   0  0  0  0  0  0  0  0  0  0  0  0
   -5.3693   -1.4962   -4.6306 H   0  0  0  0  0  0  0  0  0  0  0  0
   -3.9089   -0.5755   -3.3308 C   0  0  0  0  0  0  0  0  0  0  0  0
   -3.3275   -1.4793   -3.2162 H   0  0  0  0  0  0  0  0  0  0  0  0
   -3.4985    0.5984   -2.6626 C   0  0  0  0  0  0  0  0  0  0  0  0
   -1.4569    0.3824    1.1072 C   0  0  0  0  0  0  0  0  0  0  0  0
   -2.4362    0.3739    1.8519 O   0  0  0  0  0  0  0  0  0  0  0  0
   -0.4435    1.2455    1.2593 N   0  0  0  0  0  0  0  0  0  0  0  0
    0.2973    1.2229    0.5730 H   0  0  0  0  0  0  0  0  0  0  0  0
   -0.3775    2.2584    2.3090 C   0  0  0  0  0  0  0  0  0  0  0  0
   -0.5445    1.7919    3.2818 H   0  0  0  0  0  0  0  0  0  0  0  0
    0.6002    2.7419    2.3035 H   0  0  0  0  0  0  0  0  0  0  0  0
   -1.1526    3.0084    2.1429 H   0  0  0  0  0  0  0  0  0  0  0  0
  5  6  2  0  0  0  0
  5  7  1  0  0  0  0
  2  3  1  0  0  0  0
  2  4  1  0  0  0  0
  2  5  1  0  0  0  0
  1  2  1  0  0  0  0
 29 30  2  0  0  0  0
 29 31  1  0  0  0  0
 26 27  1  0  0  0  0
 26 28  2  0  0  0  0
 24 25  1  0  0  0  0
 24 26  1  0  0  0  0
 22 23  1  0  0  0  0
 22 24  2  0  0  0  0
 20 21  1  0  0  0  0
 20 22  1  0  0  0  0
 19 20  2  0  0  0  0
 19 28  1  0  0  0  0
 17 18  1  0  0  0  0
 17 19  1  0  0  0  0
 15 16  1  0  0  0  0
 15 17  1  0  0  0  0
 14 15  2  0  0  0  0
 14 28  1  0  0  0  0
 11 12  1  0  0  0  0
 11 13  1  0  0  0  0
 11 14  1  0  0  0  0
  9 10  1  0  0  0  0
  9 11  1  0  0  0  0
  9 29  1  0  0  0  0
  7  8  1  0  0  0  0
  7  9  1  0  0  0  0
 33 34  1  0  0  0  0
 33 35  1  0  0  0  0
 33 36  1  0  0  0  0
 31 32  1  0  0  0  0
 31 33  1  0  0  0  0
M  END
$$$$
default_name
  -OEChem-12212115393D

 36 37  0     1  0  0  0  0  0999 V2000
   -4.0843   -4.0736    1.2944 H   0  0  0  0  0  0  0  0  0  0  0  0
   -4.0342   -3.2816    0.5484 C   0  0  0  0  0  0  0  0  0  0  0  0
   -4.8842   -2.6126    0.6694 H   0  0  0  0  0  0  0  0  0  0  0  0
   -4.0433   -3.7186   -0.4486 H   0  0  0  0  0  0  0  0  0  0  0  0
   -2.7532   -2.5046    0.7444 C   0  0  0  0  0  0  0  0  0  0  0  0
   -1.9803   -2.8096    1.6434 O   0  0  0  0  0  0  0  0  0  0  0  0
   -2.5332   -1.4966   -0.0966 N   0  0  0  0  0  0  0  0  0  0  0  0
   -3.2312   -1.2816   -0.7936 H   0  0  0  0  0  0  0  0  0  0  0  0
   -1.3593   -0.6196   -0.0536 C   0  0  1  0  0  0  0  0  0  0  0  0
   -0.4722   -1.2314    0.1150 H   0  0  0  0  0  0  0  0  0  0  0  0
   -1.2010    0.0915   -1.4068 C   0  0  0  0  0  0  0  0  0  0  0  0
   -0.3109    0.7220   -1.3707 H   0  0  0  0  0  0  0  0  0  0  0  0
   -1.0403   -0.6630   -2.1788 H   0  0  0  0  0  0  0  0  0  0  0  0
   -2.3602    0.9492   -1.8149 C   0  0  0  0  0  0  0  0  0  0  0  0
   -2.5281    2.2509   -1.4907 C   0  0  0  0  0  0  0  0  0  0  0  0
   -1.8455    2.8266   -0.8753 H   0  0  0  0  0  0  0  0  0  0  0  0
   -3.6827    2.7303   -2.0778 N   0  0  0  0  0  0  0  0  0  0  0  0
   -4.0104    3.6790   -1.9689 H   0  0  0  0  0  0  0  0  0  0  0  0
   -4.3115    1.7595   -2.8280 C   0  0  0  0  0  0  0  0  0  0  0  0
   -5.4695    1.7600   -3.6188 C   0  0  0  0  0  0  0  0  0  0  0  0
   -6.0628    2.6569   -3.7201 H   0  0  0  0  0  0  0  0  0  0  0  0
   -5.8480    0.5769   -4.2761 C   0  0  0  0  0  0  0  0  0  0  0  0
   -6.7387    0.5582   -4.8895 H   0  0  0  0  0  0  0  0  0  0  0  0
   -5.0698   -0.5859   -4.1298 C   0  0  0  0  0  0  0  0  0  0  0  0
   -5.3693   -1.4962   -4.6306 H   0  0  0  0  0  0  0  0  0  0  0  0
   -3.9089   -0.5755   -3.3308 C   0  0  0  0  0  0  0  0  0  0  0  0
   -3.3275   -1.4793   -3.2162 H   0  0  0  0  0  0  0  0  0  0  0  0
   -3.4985    0.5984   -2.6626 C   0  0  0  0  0  0  0  0  0  0  0  0
   -1.4569    0.3824    1.1072 C   0  0  0  0  0  0  0  0  0  0  0  0
   -2.2768    0.2088    2.0079 O   0  0  0  0  0  0  0  0  0  0  0  0
   -0.6225    1.4304    1.0846 N   0  0  0  0  0  0  0  0  0  0  0  0
   -0.0171    1.5291    0.2821 H   0  0  0  0  0  0  0  0  0  0  0  0
   -0.5827    2.4712    2.1081 C   0  0  0  0  0  0  0  0  0  0  0  0
   -0.4896    2.0137    3.0949 H   0  0  0  0  0  0  0  0  0  0  0  0
    0.2657    3.1348    1.9362 H   0  0  0  0  0  0  0  0  0  0  0  0
   -1.5069    3.0505    2.0767 H   0  0  0  0  0  0  0  0  0  0  0  0
  5  6  2  0  0  0  0
  5  7  1  0  0  0  0
  2  3  1  0  0  0  0
  2  4  1  0  0  0  0
  2  5  1  0  0  0  0
  1  2  1  0  0  0  0
 29 30  2  0  0  0  0
 29 31  1  0  0  0  0
 26 27  1  0  0  0  0
 26 28  2  0  0  0  0
 24 25  1  0  0  0  0
 24 26  1  0  0  0  0
 22 23  1  0  0  0  0
 22 24  2  0  0  0  0
 20 21  1  0  0  0  0
 20 22  1  0  0  0  0
 19 20  2  0  0  0  0
 19 28  1  0  0  0  0
 17 18  1  0  0  0  0
 17 19  1  0  0  0  0
 15 16  1  0  0  0  0
 15 17  1  0  0  0  0
 14 15  2  0  0  0  0
 14 28  1  0  0  0  0
 11 12  1  0  0  0  0
 11 13  1  0  0  0  0
 11 14  1  0  0  0  0
  9 10  1  0  0  0  0
  9 11  1  0  0  0  0
  9 29  1  0  0  0  0
  7  8  1  0  0  0  0
  7  9  1  0  0  0  0
 33 34  1  0  0  0  0
 33 35  1  0  0  0  0
 33 36  1  0  0  0  0
 31 32  1  0  0  0  0
 31 33  1  0  0  0  0
M  END
$$$$
default_name
  -OEChem-12212115393D

 36 37  0     1  0  0  0  0  0999 V2000
   -4.0843   -4.0736    1.2944 H   0  0  0  0  0  0  0  0  0  0  0  0
   -4.0342   -3.2816    0.5484 C   0  0  0  0  0  0  0  0  0  0  0  0
   -4.8842   -2.6126    0.6694 H   0  0  0  0  0  0  0  0  0  0  0  0
   -4.0433   -3.7186   -0.4486 H   0  0  0  0  0  0  0  0  0  0  0  0
   -2.7532   -2.5046    0.7444 C   0  0  0  0  0  0  0  0  0  0  0  0
   -1.9803   -2.8096    1.6434 O   0  0  0  0  0  0  0  0  0  0  0  0
   -2.5332   -1.4966   -0.0966 N   0  0  0  0  0  0  0  0  0  0  0  0
   -3.2312   -1.2816   -0.7936 H   0  0  0  0  0  0  0  0  0  0  0  0
   -1.3593   -0.6196   -0.0536 C   0  0  1  0  0  0  0  0  0  0  0  0
   -0.4722   -1.2314    0.1150 H   0  0  0  0  0  0  0  0  0  0  0  0
   -1.2010    0.0915   -1.4068 C   0  0  0  0  0  0  0  0  0  0  0  0
   -0.3109    0.7220   -1.3707 H   0  0  0  0  0  0  0  0  0  0  0  0
   -1.0403   -0.6630   -2.1788 H   0  0  0  0  0  0  0  0  0  0  0  0
   -2.3602    0.9492   -1.8149 C   0  0  0  0  0  0  0  0  0  0  0  0
   -2.5281    2.2509   -1.4907 C   0  0  0  0  0  0  0  0  0  0  0  0
   -1.8455    2.8266   -0.8753 H   0  0  0  0  0  0  0  0  0  0  0  0
   -3.6827    2.7303   -2.0778 N   0  0  0  0  0  0  0  0  0  0  0  0
   -4.0104    3.6790   -1.9689 H   0  0  0  0  0  0  0  0  0  0  0  0
   -4.3115    1.7595   -2.8280 C   0  0  0  0  0  0  0  0  0  0  0  0
   -5.4695    1.7600   -3.6188 C   0  0  0  0  0  0  0  0  0  0  0  0
   -6.0628    2.6569   -3.7201 H   0  0  0  0  0  0  0  0  0  0  0  0
   -5.8480    0.5769   -4.2761 C   0  0  0  0  0  0  0  0  0  0  0  0
   -6.7387    0.5582   -4.8895 H   0  0  0  0  0  0  0  0  0  0  0  0
   -5.0698   -0.5859   -4.1298 C   0  0  0  0  0  0  0  0  0  0  0  0
   -5.3693   -1.4962   -4.6306 H   0  0  0  0  0  0  0  0  0  0  0  0
   -3.9089   -0.5755   -3.3308 C   0  0  0  0  0  0  0  0  0  0  0  0
   -3.3275   -1.4793   -3.2162 H   0  0  0  0  0  0  0  0  0  0  0  0
   -3.4985    0.5984   -2.6626 C   0  0  0  0  0  0  0  0  0  0  0  0
   -1.4569    0.3824    1.1072 C   0  0  0  0  0  0  0  0  0  0  0  0
   -2.0643    0.0829    2.1344 O   0  0  0  0  0  0  0  0  0  0  0  0
   -0.8610    1.5711    0.9431 N   0  0  0  0  0  0  0  0  0  0  0  0
   -0.4297    1.7588    0.0492 H   0  0  0  0  0  0  0  0  0  0  0  0
   -0.8564    2.6332    1.9452 C   0  0  0  0  0  0  0  0  0  0  0  0
   -0.5115    2.2356    2.9016 H   0  0  0  0  0  0  0  0  0  0  0  0
   -0.1962    3.4428    1.6314 H   0  0  0  0  0  0  0  0  0  0  0  0
   -1.8686    3.0208    2.0720 H   0  0  0  0  0  0  0  0  0  0  0  0
  5  6  2  0  0  0  0
  5  7  1  0  0  0  0
  2  3  1  0  0  0  0
  2  4  1  0  0  0  0
  2  5  1  0  0  0  0
  1  2  1  0  0  0  0
 29 30  2  0  0  0  0
 29 31  1  0  0  0  0
 26 27  1  0  0  0  0
 26 28  2  0  0  0  0
 24 25  1  0  0  0  0
 24 26  1  0  0  0  0
 22 23  1  0  0  0  0
 22 24  2  0  0  0  0
 20 21  1  0  0  0  0
 20 22  1  0  0  0  0
 19 20  2  0  0  0  0
 19 28  1  0  0  0  0
 17 18  1  0  0  0  0
 17 19  1  0  0  0  0
 15 16  1  0  0  0  0
 15 17  1  0  0  0  0
 14 15  2  0  0  0  0
 14 28  1  0  0  0  0
 11 12  1  0  0  0  0
 11 13  1  0  0  0  0
 11 14  1  0  0  0  0
  9 10  1  0  0  0  0
  9 11  1  0  0  0  0
  9 29  1  0  0  0  0
  7  8  1  0  0  0  0
  7  9  1  0  0  0  0
 33 34  1  0  0  0  0
 33 35  1  0  0  0  0
 33 36  1  0  0  0  0
 31 32  1  0  0  0  0
 31 33  1  0  0  0  0
M  END
$$$$
default_name
  -OEChem-12212115393D

 36 37  0     1  0  0  0  0  0999 V2000
   -4.0843   -4.0736    1.2944 H   0  0  0  0  0  0  0  0  0  0  0  0
   -4.0342   -3.2816    0.5484 C   0  0  0  0  0  0  0  0  0  0  0  0
   -4.8842   -2.6126    0.6694 H   0  0  0  0  0  0  0  0  0  0  0  0
   -4.0433   -3.7186   -0.4486 H   0  0  0  0  0  0  0  0  0  0  0  0
   -2.7532   -2.5046    0.7444 C   0  0  0  0  0  0  0  0  0  0  0  0
   -1.9803   -2.8096    1.6434 O   0  0  0  0  0  0  0  0  0  0  0  0
   -2.5332   -1.4966   -0.0966 N   0  0  0  0  0  0  0  0  0  0  0  0
   -3.2312   -1.2816   -0.7936 H   0  0  0  0  0  0  0  0  0  0  0  0
   -1.3593   -0.6196   -0.0536 C   0  0  1  0  0  0  0  0  0  0  0  0
   -0.4722   -1.2314    0.1150 H   0  0  0  0  0  0  0  0  0  0  0  0
   -1.2010    0.0915   -1.4068 C   0  0  0  0  0  0  0  0  0  0  0  0
   -0.3109    0.7220   -1.3707 H   0  0  0  0  0  0  0  0  0  0  0  0
   -1.0403   -0.6630   -2.1788 H   0  0  0  0  0  0  0  0  0  0  0  0
   -2.3602    0.9492   -1.8149 C   0  0  0  0  0  0  0  0  0  0  0  0
   -2.5281    2.2509   -1.4907 C   0  0  0  0  0  0  0  0  0  0  0  0
   -1.8455    2.8266   -0.8753 H   0  0  0  0  0  0  0  0  0  0  0  0
   -3.6827    2.7303   -2.0778 N   0  0  0  0  0  0  0  0  0  0  0  0
   -4.0104    3.6790   -1.9689 H   0  0  0  0  0  0  0  0  0  0  0  0
   -4.3115    1.7595   -2.8280 C   0  0  0  0  0  0  0  0  0  0  0  0
   -5.4695    1.7600   -3.6188 C   0  0  0  0  0  0  0  0  0  0  0  0
   -6.0628    2.6569   -3.7201 H   0  0  0  0  0  0  0  0  0  0  0  0
   -5.8480    0.5769   -4.2761 C   0  0  0  0  0  0  0  0  0  0  0  0
   -6.7387    0.5582   -4.8895 H   0  0  0  0  0  0  0  0  0  0  0  0
   -5.0698   -0.5859   -4.1298 C   0  0  0  0  0  0  0  0  0  0  0  0
   -5.3693   -1.4962   -4.6306 H   0  0  0  0  0  0  0  0  0  0  0  0
   -3.9089   -0.5755   -3.3308 C   0  0  0  0  0  0  0  0  0  0  0  0
   -3.3275   -1.4793   -3.2162 H   0  0  0  0  0  0  0  0  0  0  0  0
   -3.4985    0.5984   -2.6626 C   0  0  0  0  0  0  0  0  0  0  0  0
   -1.4569    0.3824    1.1072 C   0  0  0  0  0  0  0  0  0  0  0  0
   -1.8130    0.0051    2.2227 O   0  0  0  0  0  0  0  0  0  0  0  0
   -1.1427    1.6580    0.8444 N   0  0  0  0  0  0  0  0  0  0  0  0
   -0.9124    1.8960   -0.1099 H   0  0  0  0  0  0  0  0  0  0  0  0
   -1.1800    2.7336    1.8314 C   0  0  0  0  0  0  0  0  0  0  0  0
   -0.6086    2.4424    2.7148 H   0  0  0  0  0  0  0  0  0  0  0  0
   -0.7541    3.6450    1.4099 H   0  0  0  0  0  0  0  0  0  0  0  0
   -2.2130    2.9212    2.1289 H   0  0  0  0  0  0  0  0  0  0  0  0
  5  6  2  0  0  0  0
  5  7  1  0  0  0  0
  2  3  1  0  0  0  0
  2  4  1  0  0  0  0
  2  5  1  0  0  0  0
  1  2  1  0  0  0  0
 29 30  2  0  0  0  0
 29 31  1  0  0  0  0
 26 27  1  0  0  0  0
 26 28  2  0  0  0  0
 24 25  1  0  0  0  0
 24 26  1  0  0  0  0
 22 23  1  0  0  0  0
 22 24  2  0  0  0  0
 20 21  1  0  0  0  0
 20 22  1  0  0  0  0
 19 20  2  0  0  0  0
 19 28  1  0  0  0  0
 17 18  1  0  0  0  0
 17 19  1  0  0  0  0
 15 16  1  0  0  0  0
 15 17  1  0  0  0  0
 14 15  2  0  0  0  0
 14 28  1  0  0  0  0
 11 12  1  0  0  0  0
 11 13  1  0  0  0  0
 11 14  1  0  0  0  0
  9 10  1  0  0  0  0
  9 11  1  0  0  0  0
  9 29  1  0  0  0  0
  7  8  1  0  0  0  0
  7  9  1  0  0  0  0
 33 34  1  0  0  0  0
 33 35  1  0  0  0  0
 33 36  1  0  0  0  0
 31 32  1  0  0  0  0
 31 33  1  0  0  0  0
M  END
$$$$
default_name
  -OEChem-12212115393D

 36 37  0     1  0  0  0  0  0999 V2000
   -4.0843   -4.0736    1.2944 H   0  0  0  0  0  0  0  0  0  0  0  0
   -4.0342   -3.2816    0.5484 C   0  0  0  0  0  0  0  0  0  0  0  0
   -4.8842   -2.6126    0.6694 H   0  0  0  0  0  0  0  0  0  0  0  0
   -4.0433   -3.7186   -0.4486 H   0  0  0  0  0  0  0  0  0  0  0  0
   -2.7532   -2.5046    0.7444 C   0  0  0  0  0  0  0  0  0  0  0  0
   -1.9803   -2.8096    1.6434 O   0  0  0  0  0  0  0  0  0  0  0  0
   -2.5332   -1.4966   -0.0966 N   0  0  0  0  0  0  0  0  0  0  0  0
   -3.2312   -1.2816   -0.7936 H   0  0  0  0  0  0  0  0  0  0  0  0
   -1.3593   -0.6196   -0.0536 C   0  0  1  0  0  0  0  0  0  0  0  0
   -0.4722   -1.2314    0.1150 H   0  0  0  0  0  0  0  0  0  0  0  0
   -1.2010    0.0915   -1.4068 C   0  0  0  0  0  0  0  0  0  0  0  0
   -0.3109    0.7220   -1.3707 H   0  0  0  0  0  0  0  0  0  0  0  0
   -1.0403   -0.6630   -2.1788 H   0  0  0  0  0  0  0  0  0  0  0  0
   -2.3602    0.9492   -1.8149 C   0  0  0  0  0  0  0  0  0  0  0  0
   -2.5281    2.2509   -1.4907 C   0  0  0  0  0  0  0  0  0  0  0  0
   -1.8455    2.8266   -0.8753 H   0  0  0  0  0  0  0  0  0  0  0  0
   -3.6827    2.7303   -2.0778 N   0  0  0  0  0  0  0  0  0  0  0  0
   -4.0104    3.6790   -1.9689 H   0  0  0  0  0  0  0  0  0  0  0  0
   -4.3115    1.7595   -2.8280 C   0  0  0  0  0  0  0  0  0  0  0  0
   -5.4695    1.7600   -3.6188 C   0  0  0  0  0  0  0  0  0  0  0  0
   -6.0628    2.6569   -3.7201 H   0  0  0  0  0  0  0  0  0  0  0  0
   -5.8480    0.5769   -4.2761 C   0  0  0  0  0  0  0  0  0  0  0  0
   -6.7387    0.5582   -4.8895 H   0  0  0  0  0  0  0  0  0  0  0  0
   -5.0698   -0.5859   -4.1298 C   0  0  0  0  0  0  0  0  0  0  0  0
   -5.3693   -1.4962   -4.6306 H   0  0  0  0  0  0  0  0  0  0  0  0
   -3.9089   -0.5755   -3.3308 C   0  0  0  0  0  0  0  0  0  0  0  0
   -3.3275   -1.4793   -3.2162 H   0  0  0  0  0  0  0  0  0  0  0  0
   -3.4985    0.5984   -2.6626 C   0  0  0  0  0  0  0  0  0  0  0  0
   -1.4569    0.3824    1.1072 C   0  0  0  0  0  0  0  0  0  0  0  0
   -1.5401   -0.0196    2.2670 O   0  0  0  0  0  0  0  0  0  0  0  0
   -1.4485    1.6853    0.7951 N   0  0  0  0  0  0  0  0  0  0  0  0
   -1.4324    1.9316   -0.1844 H   0  0  0  0  0  0  0  0  0  0  0  0
   -1.5314    2.7653    1.7744 C   0  0  0  0  0  0  0  0  0  0  0  0
   -0.7744    2.6202    2.5474 H   0  0  0  0  0  0  0  0  0  0  0  0
   -1.3699    3.7276    1.2868 H   0  0  0  0  0  0  0  0  0  0  0  0
   -2.5166    2.7587    2.2437 H   0  0  0  0  0  0  0  0  0  0  0  0
  5  6  2  0  0  0  0
  5  7  1  0  0  0  0
  2  3  1  0  0  0  0
  2  4  1  0  0  0  0
  2  5  1  0  0  0  0
  1  2  1  0  0  0  0
 29 30  2  0  0  0  0
 29 31  1  0  0  0  0
 26 27  1  0  0  0  0
 26 28  2  0  0  0  0
 24 25  1  0  0  0  0
 24 26  1  0  0  0  0
 22 23  1  0  0  0  0
 22 24  2  0  0  0  0
 20 21  1  0  0  0  0
 20 22  1  0  0  0  0
 19 20  2  0  0  0  0
 19 28  1  0  0  0  0
 17 18  1  0  0  0  0
 17 19  1  0  0  0  0
 15 16  1  0  0  0  0
 15 17  1  0  0  0  0
 14 15  2  0  0  0  0
 14 28  1  0  0  0  0
 11 12  1  0  0  0  0
 11 13  1  0  0  0  0
 11 14  1  0  0  0  0
  9 10  1  0  0  0  0
  9 11  1  0  0  0  0
  9 29  1  0  0  0  0
  7  8  1  0  0  0  0
  7  9  1  0  0  0  0
 33 34  1  0  0  0  0
 33 35  1  0  0  0  0
 33 36  1  0  0  0  0
 31 32  1  0  0  0  0
 31 33  1  0  0  0  0
M  END
$$$$
default_name
  -OEChem-12212115393D

 36 37  0     1  0  0  0  0  0999 V2000
   -4.0843   -4.0736    1.2944 H   0  0  0  0  0  0  0  0  0  0  0  0
   -4.0342   -3.2816    0.5484 C   0  0  0  0  0  0  0  0  0  0  0  0
   -4.8842   -2.6126    0.6694 H   0  0  0  0  0  0  0  0  0  0  0  0
   -4.0433   -3.7186   -0.4486 H   0  0  0  0  0  0  0  0  0  0  0  0
   -2.7532   -2.5046    0.7444 C   0  0  0  0  0  0  0  0  0  0  0  0
   -1.9803   -2.8096    1.6434 O   0  0  0  0  0  0  0  0  0  0  0  0
   -2.5332   -1.4966   -0.0966 N   0  0  0  0  0  0  0  0  0  0  0  0
   -3.2312   -1.2816   -0.7936 H   0  0  0  0  0  0  0  0  0  0  0  0
   -1.3593   -0.6196   -0.0536 C   0  0  1  0  0  0  0  0  0  0  0  0
   -0.4722   -1.2314    0.1150 H   0  0  0  0  0  0  0  0  0  0  0  0
   -1.2010    0.0915   -1.4068 C   0  0  0  0  0  0  0  0  0  0  0  0
   -0.3109    0.7220   -1.3707 H   0  0  0  0  0  0  0  0  0  0  0  0
   -1.0403   -0.6630   -2.1788 H   0  0  0  0  0  0  0  0  0  0  0  0
   -2.3602    0.9492   -1.8149 C   0  0  0  0  0  0  0  0  0  0  0  0
   -2.5281    2.2509   -1.4907 C   0  0  0  0  0  0  0  0  0  0  0  0
   -1.8455    2.8266   -0.8753 H   0  0  0  0  0  0  0  0  0  0  0  0
   -3.6827    2.7303   -2.0778 N   0  0  0  0  0  0  0  0  0  0  0  0
   -4.0104    3.6790   -1.9689 H   0  0  0  0  0  0  0  0  0  0  0  0
   -4.3115    1.7595   -2.8280 C   0  0  0  0  0  0  0  0  0  0  0  0
   -5.4695    1.7600   -3.6188 C   0  0  0  0  0  0  0  0  0  0  0  0
   -6.0628    2.6569   -3.7201 H   0  0  0  0  0  0  0  0  0  0  0  0
   -5.8480    0.5769   -4.2761 C   0  0  0  0  0  0  0  0  0  0  0  0
   -6.7387    0.5582   -4.8895 H   0  0  0  0  0  0  0  0  0  0  0  0
   -5.0698   -0.5859   -4.1298 C   0  0  0  0  0  0  0  0  0  0  0  0
   -5.3693   -1.4962   -4.6306 H   0  0  0  0  0  0  0  0  0  0  0  0
   -3.9089   -0.5755   -3.3308 C   0  0  0  0  0  0  0  0  0  0  0  0
   -3.3275   -1.4793   -3.2162 H   0  0  0  0  0  0  0  0  0  0  0  0
   -3.4985    0.5984   -2.6626 C   0  0  0  0  0  0  0  0  0  0  0  0
   -1.4569    0.3824    1.1072 C   0  0  0  0  0  0  0  0  0  0  0  0
   -1.2643    0.0107    2.2641 O   0  0  0  0  0  0  0  0  0  0  0  0
   -1.7576    1.6510    0.7987 N   0  0  0  0  0  0  0  0  0  0  0  0
   -1.9542    1.8631   -0.1691 H   0  0  0  0  0  0  0  0  0  0  0  0
   -1.8866    2.7264    1.7781 C   0  0  0  0  0  0  0  0  0  0  0  0
   -0.9975    2.7567    2.4108 H   0  0  0  0  0  0  0  0  0  0  0  0
   -2.0016    3.6850    1.2705 H   0  0  0  0  0  0  0  0  0  0  0  0
   -2.7586    2.5443    2.4084 H   0  0  0  0  0  0  0  0  0  0  0  0
  5  6  2  0  0  0  0
  5  7  1  0  0  0  0
  2  3  1  0  0  0  0
  2  4  1  0  0  0  0
  2  5  1  0  0  0  0
  1  2  1  0  0  0  0
 29 30  2  0  0  0  0
 29 31  1  0  0  0  0
 26 27  1  0  0  0  0
 26 28  2  0  0  0  0
 24 25  1  0  0  0  0
 24 26  1  0  0  0  0
 22 23  1  0  0  0  0
 22 24  2  0  0  0  0
 20 21  1  0  0  0  0
 20 22  1  0  0  0  0
 19 20  2  0  0  0  0
 19 28  1  0  0  0  0
 17 18  1  0  0  0  0
 17 19  1  0  0  0  0
 15 16  1  0  0  0  0
 15 17  1  0  0  0  0
 14 15  2  0  0  0  0
 14 28  1  0  0  0  0
 11 12  1  0  0  0  0
 11 13  1  0  0  0  0
 11 14  1  0  0  0  0
  9 10  1  0  0  0  0
  9 11  1  0  0  0  0
  9 29  1  0  0  0  0
  7  8  1  0  0  0  0
  7  9  1  0  0  0  0
 33 34  1  0  0  0  0
 33 35  1  0  0  0  0
 33 36  1  0  0  0  0
 31 32  1  0  0  0  0
 31 33  1  0  0  0  0
M  END
$$$$
default_name
  -OEChem-12212115393D

 36 37  0     1  0  0  0  0  0999 V2000
   -4.0843   -4.0736    1.2944 H   0  0  0  0  0  0  0  0  0  0  0  0
   -4.0342   -3.2816    0.5484 C   0  0  0  0  0  0  0  0  0  0  0  0
   -4.8842   -2.6126    0.6694 H   0  0  0  0  0  0  0  0  0  0  0  0
   -4.0433   -3.7186   -0.4486 H   0  0  0  0  0  0  0  0  0  0  0  0
   -2.7532   -2.5046    0.7444 C   0  0  0  0  0  0  0  0  0  0  0  0
   -1.9803   -2.8096    1.6434 O   0  0  0  0  0  0  0  0  0  0  0  0
   -2.5332   -1.4966   -0.0966 N   0  0  0  0  0  0  0  0  0  0  0  0
   -3.2312   -1.2816   -0.7936 H   0  0  0  0  0  0  0  0  0  0  0  0
   -1.3593   -0.6196   -0.0536 C   0  0  1  0  0  0  0  0  0  0  0  0
   -0.4722   -1.2314    0.1150 H   0  0  0  0  0  0  0  0  0  0  0  0
   -1.2010    0.0915   -1.4068 C   0  0  0  0  0  0  0  0  0  0  0  0
   -0.3109    0.7220   -1.3707 H   0  0  0  0  0  0  0  0  0  0  0  0
   -1.0403   -0.6630   -2.1788 H   0  0  0  0  0  0  0  0  0  0  0  0
   -2.3602    0.9492   -1.8149 C   0  0  0  0  0  0  0  0  0  0  0  0
   -2.5281    2.2509   -1.4907 C   0  0  0  0  0  0  0  0  0  0  0  0
   -1.8455    2.8266   -0.8753 H   0  0  0  0  0  0  0  0  0  0  0  0
   -3.6827    2.7303   -2.0778 N   0  0  0  0  0  0  0  0  0  0  0  0
   -4.0104    3.6790   -1.9689 H   0  0  0  0  0  0  0  0  0  0  0  0
   -4.3115    1.7595   -2.8280 C   0  0  0  0  0  0  0  0  0  0  0  0
   -5.4695    1.7600   -3.6188 C   0  0  0  0  0  0  0  0  0  0  0  0
   -6.0628    2.6569   -3.7201 H   0  0  0  0  0  0  0  0  0  0  0  0
   -5.8480    0.5769   -4.2761 C   0  0  0  0  0  0  0  0  0  0  0  0
   -6.7387    0.5582   -4.8895 H   0  0  0  0  0  0  0  0  0  0  0  0
   -5.0698   -0.5859   -4.1298 C   0  0  0  0  0  0  0  0  0  0  0  0
   -5.3693   -1.4962   -4.6306 H   0  0  0  0  0  0  0  0  0  0  0  0
   -3.9089   -0.5755   -3.3308 C   0  0  0  0  0  0  0  0  0  0  0  0
   -3.3275   -1.4793   -3.2162 H   0  0  0  0  0  0  0  0  0  0  0  0
   -3.4985    0.5984   -2.6626 C   0  0  0  0  0  0  0  0  0  0  0  0
   -1.4569    0.3824    1.1072 C   0  0  0  0  0  0  0  0  0  0  0  0
   -1.0043    0.0938    2.2142 O   0  0  0  0  0  0  0  0  0  0  0  0
   -2.0488    1.5576    0.8548 N   0  0  0  0  0  0  0  0  0  0  0  0
   -2.4423    1.6952   -0.0652 H   0  0  0  0  0  0  0  0  0  0  0  0
   -2.2215    2.6194    1.8423 C   0  0  0  0  0  0  0  0  0  0  0  0
   -1.2628    2.8427    2.3142 H   0  0  0  0  0  0  0  0  0  0  0  0
   -2.6062    3.5200    1.3620 H   0  0  0  0  0  0  0  0  0  0  0  0
   -2.9227    2.2925    2.6120 H   0  0  0  0  0  0  0  0  0  0  0  0
  5  6  2  0  0  0  0
  5  7  1  0  0  0  0
  2  3  1  0  0  0  0
  2  4  1  0  0  0  0
  2  5  1  0  0  0  0
  1  2  1  0  0  0  0
 29 30  2  0  0  0  0
 29 31  1  0  0  0  0
 26 27  1  0  0  0  0
 26 28  2  0  0  0  0
 24 25  1  0  0  0  0
 24 26  1  0  0  0  0
 22 23  1  0  0  0  0
 22 24  2  0  0  0  0
 20 21  1  0  0  0  0
 20 22  1  0  0  0  0
 19 20  2  0  0  0  0
 19 28  1  0  0  0  0
 17 18  1  0  0  0  0
 17 19  1  0  0  0  0
 15 16  1  0  0  0  0
 15 17  1  0  0  0  0
 14 15  2  0  0  0  0
 14 28  1  0  0  0  0
 11 12  1  0  0  0  0
 11 13  1  0  0  0  0
 11 14  1  0  0  0  0
  9 10  1  0  0  0  0
  9 11  1  0  0  0  0
  9 29  1  0  0  0  0
  7  8  1  0  0  0  0
  7  9  1  0  0  0  0
 33 34  1  0  0  0  0
 33 35  1  0  0  0  0
 33 36  1  0  0  0  0
 31 32  1  0  0  0  0
 31 33  1  0  0  0  0
M  END
$$$$
default_name
  -OEChem-12212115393D

 36 37  0     1  0  0  0  0  0999 V2000
   -4.0843   -4.0736    1.2944 H   0  0  0  0  0  0  0  0  0  0  0  0
   -4.0342   -3.2816    0.5484 C   0  0  0  0  0  0  0  0  0  0  0  0
   -4.8842   -2.6126    0.6694 H   0  0  0  0  0  0  0  0  0  0  0  0
   -4.0433   -3.7186   -0.4486 H   0  0  0  0  0  0  0  0  0  0  0  0
   -2.7532   -2.5046    0.7444 C   0  0  0  0  0  0  0  0  0  0  0  0
   -1.9803   -2.8096    1.6434 O   0  0  0  0  0  0  0  0  0  0  0  0
   -2.5332   -1.4966   -0.0966 N   0  0  0  0  0  0  0  0  0  0  0  0
   -3.2312   -1.2816   -0.7936 H   0  0  0  0  0  0  0  0  0  0  0  0
   -1.3593   -0.6196   -0.0536 C   0  0  1  0  0  0  0  0  0  0  0  0
   -0.4722   -1.2314    0.1150 H   0  0  0  0  0  0  0  0  0  0  0  0
   -1.2010    0.0915   -1.4068 C   0  0  0  0  0  0  0  0  0  0  0  0
   -0.3109    0.7220   -1.3707 H   0  0  0  0  0  0  0  0  0  0  0  0
   -1.0403   -0.6630   -2.1788 H   0  0  0  0  0  0  0  0  0  0  0  0
   -2.3602    0.9492   -1.8149 C   0  0  0  0  0  0  0  0  0  0  0  0
   -2.5281    2.2509   -1.4907 C   0  0  0  0  0  0  0  0  0  0  0  0
   -1.8455    2.8266   -0.8753 H   0  0  0  0  0  0  0  0  0  0  0  0
   -3.6827    2.7303   -2.0778 N   0  0  0  0  0  0  0  0  0  0  0  0
   -4.0104    3.6790   -1.9689 H   0  0  0  0  0  0  0  0  0  0  0  0
   -4.3115    1.7595   -2.8280 C   0  0  0  0  0  0  0  0  0  0  0  0
   -5.4695    1.7600   -3.6188 C   0  0  0  0  0  0  0  0  0  0  0  0
   -6.0628    2.6569   -3.7201 H   0  0  0  0  0  0  0  0  0  0  0  0
   -5.8480    0.5769   -4.2761 C   0  0  0  0  0  0  0  0  0  0  0  0
   -6.7387    0.5582   -4.8895 H   0  0  0  0  0  0  0  0  0  0  0  0
   -5.0698   -0.5859   -4.1298 C   0  0  0  0  0  0  0  0  0  0  0  0
   -5.3693   -1.4962   -4.6306 H   0  0  0  0  0  0  0  0  0  0  0  0
   -3.9089   -0.5755   -3.3308 C   0  0  0  0  0  0  0  0  0  0  0  0
   -3.3275   -1.4793   -3.2162 H   0  0  0  0  0  0  0  0  0  0  0  0
   -3.4985    0.5984   -2.6626 C   0  0  0  0  0  0  0  0  0  0  0  0
   -1.4569    0.3824    1.1072 C   0  0  0  0  0  0  0  0  0  0  0  0
   -0.7778    0.2241    2.1208 O   0  0  0  0  0  0  0  0  0  0  0  0
   -2.3023    1.4113    0.9598 N   0  0  0  0  0  0  0  0  0  0  0  0
   -2.8634    1.4392    0.1203 H   0  0  0  0  0  0  0  0  0  0  0  0
   -2.5132    2.4516    1.9626 C   0  0  0  0  0  0  0  0  0  0  0  0
   -1.5522    2.8723    2.2643 H   0  0  0  0  0  0  0  0  0  0  0  0
   -3.1425    3.2439    1.5552 H   0  0  0  0  0  0  0  0  0  0  0  0
   -2.9976    2.0206    2.8404 H   0  0  0  0  0  0  0  0  0  0  0  0
  5  6  2  0  0  0  0
  5  7  1  0  0  0  0
  2  3  1  0  0  0  0
  2  4  1  0  0  0  0
  2  5  1  0  0  0  0
  1  2  1  0  0  0  0
 29 30  2  0  0  0  0
 29 31  1  0  0  0  0
 26 27  1  0  0  0  0
 26 28  2  0  0  0  0
 24 25  1  0  0  0  0
 24 26  1  0  0  0  0
 22 23  1  0  0  0  0
 22 24  2  0  0  0  0
 20 21  1  0  0  0  0
 20 22  1  0  0  0  0
 19 20  2  0  0  0  0
 19 28  1  0  0  0  0
 17 18  1  0  0  0  0
 17 19  1  0  0  0  0
 15 16  1  0  0  0  0
 15 17  1  0  0  0  0
 14 15  2  0  0  0  0
 14 28  1  0  0  0  0
 11 12  1  0  0  0  0
 11 13  1  0  0  0  0
 11 14  1  0  0  0  0
  9 10  1  0  0  0  0
  9 11  1  0  0  0  0
  9 29  1  0  0  0  0
  7  8  1  0  0  0  0
  7  9  1  0  0  0  0
 33 34  1  0  0  0  0
 33 35  1  0  0  0  0
 33 36  1  0  0  0  0
 31 32  1  0  0  0  0
 31 33  1  0  0  0  0
M  END
$$$$
default_name
  -OEChem-12212115393D

 36 37  0     1  0  0  0  0  0999 V2000
   -4.0843   -4.0736    1.2944 H   0  0  0  0  0  0  0  0  0  0  0  0
   -4.0342   -3.2816    0.5484 C   0  0  0  0  0  0  0  0  0  0  0  0
   -4.8842   -2.6126    0.6694 H   0  0  0  0  0  0  0  0  0  0  0  0
   -4.0433   -3.7186   -0.4486 H   0  0  0  0  0  0  0  0  0  0  0  0
   -2.7532   -2.5046    0.7444 C   0  0  0  0  0  0  0  0  0  0  0  0
   -1.9803   -2.8096    1.6434 O   0  0  0  0  0  0  0  0  0  0  0  0
   -2.5332   -1.4966   -0.0966 N   0  0  0  0  0  0  0  0  0  0  0  0
   -3.2312   -1.2816   -0.7936 H   0  0  0  0  0  0  0  0  0  0  0  0
   -1.3593   -0.6196   -0.0536 C   0  0  1  0  0  0  0  0  0  0  0  0
   -0.4722   -1.2314    0.1150 H   0  0  0  0  0  0  0  0  0  0  0  0
   -1.2010    0.0915   -1.4068 C   0  0  0  0  0  0  0  0  0  0  0  0
   -0.3109    0.7220   -1.3707 H   0  0  0  0  0  0  0  0  0  0  0  0
   -1.0403   -0.6630   -2.1788 H   0  0  0  0  0  0  0  0  0  0  0  0
   -2.3602    0.9492   -1.8149 C   0  0  0  0  0  0  0  0  0  0  0  0
   -2.5281    2.2509   -1.4907 C   0  0  0  0  0  0  0  0  0  0  0  0
   -1.8455    2.8266   -0.8753 H   0  0  0  0  0  0  0  0  0  0  0  0
   -3.6827    2.7303   -2.0778 N   0  0  0  0  0  0  0  0  0  0  0  0
   -4.0104    3.6790   -1.9689 H   0  0  0  0  0  0  0  0  0  0  0  0
   -4.3115    1.7595   -2.8280 C   0  0  0  0  0  0  0  0  0  0  0  0
   -5.4695    1.7600   -3.6188 C   0  0  0  0  0  0  0  0  0  0  0  0
   -6.0628    2.6569   -3.7201 H   0  0  0  0  0  0  0  0  0  0  0  0
   -5.8480    0.5769   -4.2761 C   0  0  0  0  0  0  0  0  0  0  0  0
   -6.7387    0.5582   -4.8895 H   0  0  0  0  0  0  0  0  0  0  0  0
   -5.0698   -0.5859   -4.1298 C   0  0  0  0  0  0  0  0  0  0  0  0
   -5.3693   -1.4962   -4.6306 H   0  0  0  0  0  0  0  0  0  0  0  0
   -3.9089   -0.5755   -3.3308 C   0  0  0  0  0  0  0  0  0  0  0  0
   -3.3275   -1.4793   -3.2162 H   0  0  0  0  0  0  0  0  0  0  0  0
   -3.4985    0.5984   -2.6626 C   0  0  0  0  0  0  0  0  0  0  0  0
   -1.4569    0.3824    1.1072 C   0  0  0  0  0  0  0  0  0  0  0  0
   -0.6002    0.3927    1.9901 O   0  0  0  0  0  0  0  0  0  0  0  0
   -2.5009    1.2221    1.1064 N   0  0  0  0  0  0  0  0  0  0  0  0
   -3.1887    1.1127    0.3748 H   0  0  0  0  0  0  0  0  0  0  0  0
   -2.7419    2.2344    2.1308 C   0  0  0  0  0  0  0  0  0  0  0  0
   -1.8459    2.8435    2.2645 H   0  0  0  0  0  0  0  0  0  0  0  0
   -3.5740    2.8756    1.8369 H   0  0  0  0  0  0  0  0  0  0  0  0
   -2.9783    1.7470    3.0781 H   0  0  0  0  0  0  0  0  0  0  0  0
  5  6  2  0  0  0  0
  5  7  1  0  0  0  0
  2  3  1  0  0  0  0
  2  4  1  0  0  0  0
  2  5  1  0  0  0  0
  1  2  1  0  0  0  0
 29 30  2  0  0  0  0
 29 31  1  0  0  0  0
 26 27  1  0  0  0  0
 26 28  2  0  0  0  0
 24 25  1  0  0  0  0
 24 26  1  0  0  0  0
 22 23  1  0  0  0  0
 22 24  2  0  0  0  0
 20 21  1  0  0  0  0
 20 22  1  0  0  0  0
 19 20  2  0  0  0  0
 19 28  1  0  0  0  0
 17 18  1  0  0  0  0
 17 19  1  0  0  0  0
 15 16  1  0  0  0  0
 15 17  1  0  0  0  0
 14 15  2  0  0  0  0
 14 28  1  0  0  0  0
 11 12  1  0  0  0  0
 11 13  1  0  0  0  0
 11 14  1  0  0  0  0
  9 10  1  0  0  0  0
  9 11  1  0  0  0  0
  9 29  1  0  0  0  0
  7  8  1  0  0  0  0
  7  9  1  0  0  0  0
 33 34  1  0  0  0  0
 33 35  1  0  0  0  0
 33 36  1  0  0  0  0
 31 32  1  0  0  0  0
 31 33  1  0  0  0  0
M  END
$$$$
default_name
  -OEChem-12212115393D

 36 37  0     1  0  0  0  0  0999 V2000
   -4.0843   -4.0736    1.2944 H   0  0  0  0  0  0  0  0  0  0  0  0
   -4.0342   -3.2816    0.5484 C   0  0  0  0  0  0  0  0  0  0  0  0
   -4.8842   -2.6126    0.6694 H   0  0  0  0  0  0  0  0  0  0  0  0
   -4.0433   -3.7186   -0.4486 H   0  0  0  0  0  0  0  0  0  0  0  0
   -2.7532   -2.5046    0.7444 C   0  0  0  0  0  0  0  0  0  0  0  0
   -1.9803   -2.8096    1.6434 O   0  0  0  0  0  0  0  0  0  0  0  0
   -2.5332   -1.4966   -0.0966 N   0  0  0  0  0  0  0  0  0  0  0  0
   -3.2312   -1.2816   -0.7936 H   0  0  0  0  0  0  0  0  0  0  0  0
   -1.3593   -0.6196   -0.0536 C   0  0  1  0  0  0  0  0  0  0  0  0
   -0.4722   -1.2314    0.1150 H   0  0  0  0  0  0  0  0  0  0  0  0
   -1.2010    0.0915   -1.4068 C   0  0  0  0  0  0  0  0  0  0  0  0
   -0.3109    0.7220   -1.3707 H   0  0  0  0  0  0  0  0  0  0  0  0
   -1.0403   -0.6630   -2.1788 H   0  0  0  0  0  0  0  0  0  0  0  0
   -2.3602    0.9492   -1.8149 C   0  0  0  0  0  0  0  0  0  0  0  0
   -2.5281    2.2509   -1.4907 C   0  0  0  0  0  0  0  0  0  0  0  0
   -1.8455    2.8266   -0.8753 H   0  0  0  0  0  0  0  0  0  0  0  0
   -3.6827    2.7303   -2.0778 N   0  0  0  0  0  0  0  0  0  0  0  0
   -4.0104    3.6790   -1.9689 H   0  0  0  0  0  0  0  0  0  0  0  0
   -4.3115    1.7595   -2.8280 C   0  0  0  0  0  0  0  0  0  0  0  0
   -5.4695    1.7600   -3.6188 C   0  0  0  0  0  0  0  0  0  0  0  0
   -6.0628    2.6569   -3.7201 H   0  0  0  0  0  0  0  0  0  0  0  0
   -5.8480    0.5769   -4.2761 C   0  0  0  0  0  0  0  0  0  0  0  0
   -6.7387    0.5582   -4.8895 H   0  0  0  0  0  0  0  0  0  0  0  0
   -5.0698   -0.5859   -4.1298 C   0  0  0  0  0  0  0  0  0  0  0  0
   -5.3693   -1.4962   -4.6306 H   0  0  0  0  0  0  0  0  0  0  0  0
   -3.9089   -0.5755   -3.3308 C   0  0  0  0  0  0  0  0  0  0  0  0
   -3.3275   -1.4793   -3.2162 H   0  0  0  0  0  0  0  0  0  0  0  0
   -3.4985    0.5984   -2.6626 C   0  0  0  0  0  0  0  0  0  0  0  0
   -1.4569    0.3824    1.1072 C   0  0  0  0  0  0  0  0  0  0  0  0
   -0.4838    0.5882    1.8312 O   0  0  0  0  0  0  0  0  0  0  0  0
   -2.6310    1.0030    1.2846 N   0  0  0  0  0  0  0  0  0  0  0  0
   -3.3962    0.7379    0.6809 H   0  0  0  0  0  0  0  0  0  0  0  0
   -2.8920    1.9827    2.3355 C   0  0  0  0  0  0  0  0  0  0  0  0
   -2.1240    2.7583    2.3146 H   0  0  0  0  0  0  0  0  0  0  0  0
   -3.8712    2.4400    2.1878 H   0  0  0  0  0  0  0  0  0  0  0  0
   -2.8660    1.4905    3.3090 H   0  0  0  0  0  0  0  0  0  0  0  0
  5  6  2  0  0  0  0
  5  7  1  0  0  0  0
  2  3  1  0  0  0  0
  2  4  1  0  0  0  0
  2  5  1  0  0  0  0
  1  2  1  0  0  0  0
 29 30  2  0  0  0  0
 29 31  1  0  0  0  0
 26 27  1  0  0  0  0
 26 28  2  0  0  0  0
 24 25  1  0  0  0  0
 24 26  1  0  0  0  0
 22 23  1  0  0  0  0
 22 24  2  0  0  0  0
 20 21  1  0  0  0  0
 20 22  1  0  0  0  0
 19 20  2  0  0  0  0
 19 28  1  0  0  0  0
 17 18  1  0  0  0  0
 17 19  1  0  0  0  0
 15 16  1  0  0  0  0
 15 17  1  0  0  0  0
 14 15  2  0  0  0  0
 14 28  1  0  0  0  0
 11 12  1  0  0  0  0
 11 13  1  0  0  0  0
 11 14  1  0  0  0  0
  9 10  1  0  0  0  0
  9 11  1  0  0  0  0
  9 29  1  0  0  0  0
  7  8  1  0  0  0  0
  7  9  1  0  0  0  0
 33 34  1  0  0  0  0
 33 35  1  0  0  0  0
 33 36  1  0  0  0  0
 31 32  1  0  0  0  0
 31 33  1  0  0  0  0
M  END
$$$$
default_name
  -OEChem-12212115393D

 36 37  0     1  0  0  0  0  0999 V2000
   -4.0843   -4.0736    1.2944 H   0  0  0  0  0  0  0  0  0  0  0  0
   -4.0342   -3.2816    0.5484 C   0  0  0  0  0  0  0  0  0  0  0  0
   -4.8842   -2.6126    0.6694 H   0  0  0  0  0  0  0  0  0  0  0  0
   -4.0433   -3.7186   -0.4486 H   0  0  0  0  0  0  0  0  0  0  0  0
   -2.7532   -2.5046    0.7444 C   0  0  0  0  0  0  0  0  0  0  0  0
   -1.9803   -2.8096    1.6434 O   0  0  0  0  0  0  0  0  0  0  0  0
   -2.5332   -1.4966   -0.0966 N   0  0  0  0  0  0  0  0  0  0  0  0
   -3.2312   -1.2816   -0.7936 H   0  0  0  0  0  0  0  0  0  0  0  0
   -1.3593   -0.6196   -0.0536 C   0  0  1  0  0  0  0  0  0  0  0  0
   -0.4722   -1.2314    0.1150 H   0  0  0  0  0  0  0  0  0  0  0  0
   -1.2010    0.0915   -1.4068 C   0  0  0  0  0  0  0  0  0  0  0  0
   -0.3109    0.7220   -1.3707 H   0  0  0  0  0  0  0  0  0  0  0  0
   -1.0403   -0.6630   -2.1788 H   0  0  0  0  0  0  0  0  0  0  0  0
   -2.3602    0.9492   -1.8149 C   0  0  0  0  0  0  0  0  0  0  0  0
   -2.5281    2.2509   -1.4907 C   0  0  0  0  0  0  0  0  0  0  0  0
   -1.8455    2.8266   -0.8753 H   0  0  0  0  0  0  0  0  0  0  0  0
   -3.6827    2.7303   -2.0778 N   0  0  0  0  0  0  0  0  0  0  0  0
   -4.0104    3.6790   -1.9689 H   0  0  0  0  0  0  0  0  0  0  0  0
   -4.3115    1.7595   -2.8280 C   0  0  0  0  0  0  0  0  0  0  0  0
   -5.4695    1.7600   -3.6188 C   0  0  0  0  0  0  0  0  0  0  0  0
   -6.0628    2.6569   -3.7201 H   0  0  0  0  0  0  0  0  0  0  0  0
   -5.8480    0.5769   -4.2761 C   0  0  0  0  0  0  0  0  0  0  0  0
   -6.7387    0.5582   -4.8895 H   0  0  0  0  0  0  0  0  0  0  0  0
   -5.0698   -0.5859   -4.1298 C   0  0  0  0  0  0  0  0  0  0  0  0
   -5.3693   -1.4962   -4.6306 H   0  0  0  0  0  0  0  0  0  0  0  0
   -3.9089   -0.5755   -3.3308 C   0  0  0  0  0  0  0  0  0  0  0  0
   -3.3275   -1.4793   -3.2162 H   0  0  0  0  0  0  0  0  0  0  0  0
   -3.4985    0.5984   -2.6626 C   0  0  0  0  0  0  0  0  0  0  0  0
   -1.4569    0.3824    1.1072 C   0  0  0  0  0  0  0  0  0  0  0  0
   -0.4363    0.7971    1.6549 O   0  0  0  0  0  0  0  0  0  0  0  0
   -2.6837    0.7688    1.4823 N   0  0  0  0  0  0  0  0  0  0  0  0
   -3.4716    0.3403    1.0177 H   0  0  0  0  0  0  0  0  0  0  0  0
   -2.9531    1.7137    2.5626 C   0  0  0  0  0  0  0  0  0  0  0  0
   -2.3674    2.6224    2.4115 H   0  0  0  0  0  0  0  0  0  0  0  0
   -4.0138    1.9670    2.5841 H   0  0  0  0  0  0  0  0  0  0  0  0
   -2.6683    1.2685    3.5173 H   0  0  0  0  0  0  0  0  0  0  0  0
  5  6  2  0  0  0  0
  5  7  1  0  0  0  0
  2  3  1  0  0  0  0
  2  4  1  0  0  0  0
  2  5  1  0  0  0  0
  1  2  1  0  0  0  0
 29 30  2  0  0  0  0
 29 31  1  0  0  0  0
 26 27  1  0  0  0  0
 26 28  2  0  0  0  0
 24 25  1  0  0  0  0
 24 26  1  0  0  0  0
 22 23  1  0  0  0  0
 22 24  2  0  0  0  0
 20 21  1  0  0  0  0
 20 22  1  0  0  0  0
 19 20  2  0  0  0  0
 19 28  1  0  0  0  0
 17 18  1  0  0  0  0
 17 19  1  0  0  0  0
 15 16  1  0  0  0  0
 15 17  1  0  0  0  0
 14 15  2  0  0  0  0
 14 28  1  0  0  0  0
 11 12  1  0  0  0  0
 11 13  1  0  0  0  0
 11 14  1  0  0  0  0
  9 10  1  0  0  0  0
  9 11  1  0  0  0  0
  9 29  1  0  0  0  0
  7  8  1  0  0  0  0
  7  9  1  0  0  0  0
 33 34  1  0  0  0  0
 33 35  1  0  0  0  0
 33 36  1  0  0  0  0
 31 32  1  0  0  0  0
 31 33  1  0  0  0  0
M  END
$$$$
default_name
  -OEChem-12212115393D

 36 37  0     1  0  0  0  0  0999 V2000
   -4.0843   -4.0736    1.2944 H   0  0  0  0  0  0  0  0  0  0  0  0
   -4.0342   -3.2816    0.5484 C   0  0  0  0  0  0  0  0  0  0  0  0
   -4.8842   -2.6126    0.6694 H   0  0  0  0  0  0  0  0  0  0  0  0
   -4.0433   -3.7186   -0.4486 H   0  0  0  0  0  0  0  0  0  0  0  0
   -2.7532   -2.5046    0.7444 C   0  0  0  0  0  0  0  0  0  0  0  0
   -1.9803   -2.8096    1.6434 O   0  0  0  0  0  0  0  0  0  0  0  0
   -2.5332   -1.4966   -0.0966 N   0  0  0  0  0  0  0  0  0  0  0  0
   -3.2312   -1.2816   -0.7936 H   0  0  0  0  0  0  0  0  0  0  0  0
   -1.3593   -0.6196   -0.0536 C   0  0  1  0  0  0  0  0  0  0  0  0
   -0.4722   -1.2314    0.1150 H   0  0  0  0  0  0  0  0  0  0  0  0
   -1.2010    0.0915   -1.4068 C   0  0  0  0  0  0  0  0  0  0  0  0
   -0.3109    0.7220   -1.3707 H   0  0  0  0  0  0  0  0  0  0  0  0
   -1.0403   -0.6630   -2.1788 H   0  0  0  0  0  0  0  0  0  0  0  0
   -2.3602    0.9492   -1.8149 C   0  0  0  0  0  0  0  0  0  0  0  0
   -2.5281    2.2509   -1.4907 C   0  0  0  0  0  0  0  0  0  0  0  0
   -1.8455    2.8266   -0.8753 H   0  0  0  0  0  0  0  0  0  0  0  0
   -3.6827    2.7303   -2.0778 N   0  0  0  0  0  0  0  0  0  0  0  0
   -4.0104    3.6790   -1.9689 H   0  0  0  0  0  0  0  0  0  0  0  0
   -4.3115    1.7595   -2.8280 C   0  0  0  0  0  0  0  0  0  0  0  0
   -5.4695    1.7600   -3.6188 C   0  0  0  0  0  0  0  0  0  0  0  0
   -6.0628    2.6569   -3.7201 H   0  0  0  0  0  0  0  0  0  0  0  0
   -5.8480    0.5769   -4.2761 C   0  0  0  0  0  0  0  0  0  0  0  0
   -6.7387    0.5582   -4.8895 H   0  0  0  0  0  0  0  0  0  0  0  0
   -5.0698   -0.5859   -4.1298 C   0  0  0  0  0  0  0  0  0  0  0  0
   -5.3693   -1.4962   -4.6306 H   0  0  0  0  0  0  0  0  0  0  0  0
   -3.9089   -0.5755   -3.3308 C   0  0  0  0  0  0  0  0  0  0  0  0
   -3.3275   -1.4793   -3.2162 H   0  0  0  0  0  0  0  0  0  0  0  0
   -3.4985    0.5984   -2.6626 C   0  0  0  0  0  0  0  0  0  0  0  0
   -1.4569    0.3824    1.1072 C   0  0  0  0  0  0  0  0  0  0  0  0
   -0.4611    1.0053    1.4731 O   0  0  0  0  0  0  0  0  0  0  0  0
   -2.6555    0.5356    1.6860 N   0  0  0  0  0  0  0  0  0  0  0  0
   -3.4099   -0.0529    1.3623 H   0  0  0  0  0  0  0  0  0  0  0  0
   -2.9213    1.4455    2.7967 C   0  0  0  0  0  0  0  0  0  0  0  0
   -2.5597    2.4452    2.5483 H   0  0  0  0  0  0  0  0  0  0  0  0
   -3.9923    1.4888    2.9988 H   0  0  0  0  0  0  0  0  0  0  0  0
   -2.3989    1.0961    3.6888 H   0  0  0  0  0  0  0  0  0  0  0  0
  5  6  2  0  0  0  0
  5  7  1  0  0  0  0
  2  3  1  0  0  0  0
  2  4  1  0  0  0  0
  2  5  1  0  0  0  0
  1  2  1  0  0  0  0
 29 30  2  0  0  0  0
 29 31  1  0  0  0  0
 26 27  1  0  0  0  0
 26 28  2  0  0  0  0
 24 25  1  0  0  0  0
 24 26  1  0  0  0  0
 22 23  1  0  0  0  0
 22 24  2  0  0  0  0
 20 21  1  0  0  0  0
 20 22  1  0  0  0  0
 19 20  2  0  0  0  0
 19 28  1  0  0  0  0
 17 18  1  0  0  0  0
 17 19  1  0  0  0  0
 15 16  1  0  0  0  0
 15 17  1  0  0  0  0
 14 15  2  0  0  0  0
 14 28  1  0  0  0  0
 11 12  1  0  0  0  0
 11 13  1  0  0  0  0
 11 14  1  0  0  0  0
  9 10  1  0  0  0  0
  9 11  1  0  0  0  0
  9 29  1  0  0  0  0
  7  8  1  0  0  0  0
  7  9  1  0  0  0  0
 33 34  1  0  0  0  0
 33 35  1  0  0  0  0
 33 36  1  0  0  0  0
 31 32  1  0  0  0  0
 31 33  1  0  0  0  0
M  END
$$$$
default_name
  -OEChem-12212115393D

 36 37  0     1  0  0  0  0  0999 V2000
   -4.0843   -4.0736    1.2944 H   0  0  0  0  0  0  0  0  0  0  0  0
   -4.0342   -3.2816    0.5484 C   0  0  0  0  0  0  0  0  0  0  0  0
   -4.8842   -2.6126    0.6694 H   0  0  0  0  0  0  0  0  0  0  0  0
   -4.0433   -3.7186   -0.4486 H   0  0  0  0  0  0  0  0  0  0  0  0
   -2.7532   -2.5046    0.7444 C   0  0  0  0  0  0  0  0  0  0  0  0
   -1.9803   -2.8096    1.6434 O   0  0  0  0  0  0  0  0  0  0  0  0
   -2.5332   -1.4966   -0.0966 N   0  0  0  0  0  0  0  0  0  0  0  0
   -3.2312   -1.2816   -0.7936 H   0  0  0  0  0  0  0  0  0  0  0  0
   -1.3593   -0.6196   -0.0536 C   0  0  1  0  0  0  0  0  0  0  0  0
   -0.4722   -1.2314    0.1150 H   0  0  0  0  0  0  0  0  0  0  0  0
   -1.2010    0.0915   -1.4068 C   0  0  0  0  0  0  0  0  0  0  0  0
   -0.3109    0.7220   -1.3707 H   0  0  0  0  0  0  0  0  0  0  0  0
   -1.0403   -0.6630   -2.1788 H   0  0  0  0  0  0  0  0  0  0  0  0
   -2.3602    0.9492   -1.8149 C   0  0  0  0  0  0  0  0  0  0  0  0
   -2.5281    2.2509   -1.4907 C   0  0  0  0  0  0  0  0  0  0  0  0
   -1.8455    2.8266   -0.8753 H   0  0  0  0  0  0  0  0  0  0  0  0
   -3.6827    2.7303   -2.0778 N   0  0  0  0  0  0  0  0  0  0  0  0
   -4.0104    3.6790   -1.9689 H   0  0  0  0  0  0  0  0  0  0  0  0
   -4.3115    1.7595   -2.8280 C   0  0  0  0  0  0  0  0  0  0  0  0
   -5.4695    1.7600   -3.6188 C   0  0  0  0  0  0  0  0  0  0  0  0
   -6.0628    2.6569   -3.7201 H   0  0  0  0  0  0  0  0  0  0  0  0
   -5.8480    0.5769   -4.2761 C   0  0  0  0  0  0  0  0  0  0  0  0
   -6.7387    0.5582   -4.8895 H   0  0  0  0  0  0  0  0  0  0  0  0
   -5.0698   -0.5859   -4.1298 C   0  0  0  0  0  0  0  0  0  0  0  0
   -5.3693   -1.4962   -4.6306 H   0  0  0  0  0  0  0  0  0  0  0  0
   -3.9089   -0.5755   -3.3308 C   0  0  0  0  0  0  0  0  0  0  0  0
   -3.3275   -1.4793   -3.2162 H   0  0  0  0  0  0  0  0  0  0  0  0
   -3.4985    0.5984   -2.6626 C   0  0  0  0  0  0  0  0  0  0  0  0
   -1.4569    0.3824    1.1072 C   0  0  0  0  0  0  0  0  0  0  0  0
   -0.5564    1.1986    1.2982 O   0  0  0  0  0  0  0  0  0  0  0  0
   -2.5483    0.3192    1.8818 N   0  0  0  0  0  0  0  0  0  0  0  0
   -3.2153   -0.4150    1.6913 H   0  0  0  0  0  0  0  0  0  0  0  0
   -2.7986    1.1966    3.0219 C   0  0  0  0  0  0  0  0  0  0  0  0
   -2.6876    2.2386    2.7158 H   0  0  0  0  0  0  0  0  0  0  0  0
   -3.8079    1.0378    3.4036 H   0  0  0  0  0  0  0  0  0  0  0  0
   -2.0760    0.9850    3.8118 H   0  0  0  0  0  0  0  0  0  0  0  0
  5  6  2  0  0  0  0
  5  7  1  0  0  0  0
  2  3  1  0  0  0  0
  2  4  1  0  0  0  0
  2  5  1  0  0  0  0
  1  2  1  0  0  0  0
 29 30  2  0  0  0  0
 29 31  1  0  0  0  0
 26 27  1  0  0  0  0
 26 28  2  0  0  0  0
 24 25  1  0  0  0  0
 24 26  1  0  0  0  0
 22 23  1  0  0  0  0
 22 24  2  0  0  0  0
 20 21  1  0  0  0  0
 20 22  1  0  0  0  0
 19 20  2  0  0  0  0
 19 28  1  0  0  0  0
 17 18  1  0  0  0  0
 17 19  1  0  0  0  0
 15 16  1  0  0  0  0
 15 17  1  0  0  0  0
 14 15  2  0  0  0  0
 14 28  1  0  0  0  0
 11 12  1  0  0  0  0
 11 13  1  0  0  0  0
 11 14  1  0  0  0  0
  9 10  1  0  0  0  0
  9 11  1  0  0  0  0
  9 29  1  0  0  0  0
  7  8  1  0  0  0  0
  7  9  1  0  0  0  0
 33 34  1  0  0  0  0
 33 35  1  0  0  0  0
 33 36  1  0  0  0  0
 31 32  1  0  0  0  0
 31 33  1  0  0  0  0
M  END
$$$$
default_name
  -OEChem-12212115393D

 36 37  0     1  0  0  0  0  0999 V2000
   -4.0843   -4.0736    1.2944 H   0  0  0  0  0  0  0  0  0  0  0  0
   -4.0342   -3.2816    0.5484 C   0  0  0  0  0  0  0  0  0  0  0  0
   -4.8842   -2.6126    0.6694 H   0  0  0  0  0  0  0  0  0  0  0  0
   -4.0433   -3.7186   -0.4486 H   0  0  0  0  0  0  0  0  0  0  0  0
   -2.7532   -2.5046    0.7444 C   0  0  0  0  0  0  0  0  0  0  0  0
   -1.9803   -2.8096    1.6434 O   0  0  0  0  0  0  0  0  0  0  0  0
   -2.5332   -1.4966   -0.0966 N   0  0  0  0  0  0  0  0  0  0  0  0
   -3.2312   -1.2816   -0.7936 H   0  0  0  0  0  0  0  0  0  0  0  0
   -1.3593   -0.6196   -0.0536 C   0  0  1  0  0  0  0  0  0  0  0  0
   -0.4722   -1.2314    0.1150 H   0  0  0  0  0  0  0  0  0  0  0  0
   -1.2010    0.0915   -1.4068 C   0  0  0  0  0  0  0  0  0  0  0  0
   -0.3109    0.7220   -1.3707 H   0  0  0  0  0  0  0  0  0  0  0  0
   -1.0403   -0.6630   -2.1788 H   0  0  0  0  0  0  0  0  0  0  0  0
   -2.3602    0.9492   -1.8149 C   0  0  0  0  0  0  0  0  0  0  0  0
   -2.5281    2.2509   -1.4907 C   0  0  0  0  0  0  0  0  0  0  0  0
   -1.8455    2.8266   -0.8753 H   0  0  0  0  0  0  0  0  0  0  0  0
   -3.6827    2.7303   -2.0778 N   0  0  0  0  0  0  0  0  0  0  0  0
   -4.0104    3.6790   -1.9689 H   0  0  0  0  0  0  0  0  0  0  0  0
   -4.3115    1.7595   -2.8280 C   0  0  0  0  0  0  0  0  0  0  0  0
   -5.4695    1.7600   -3.6188 C   0  0  0  0  0  0  0  0  0  0  0  0
   -6.0628    2.6569   -3.7201 H   0  0  0  0  0  0  0  0  0  0  0  0
   -5.8480    0.5769   -4.2761 C   0  0  0  0  0  0  0  0  0  0  0  0
   -6.7387    0.5582   -4.8895 H   0  0  0  0  0  0  0  0  0  0  0  0
   -5.0698   -0.5859   -4.1298 C   0  0  0  0  0  0  0  0  0  0  0  0
   -5.3693   -1.4962   -4.6306 H   0  0  0  0  0  0  0  0  0  0  0  0
   -3.9089   -0.5755   -3.3308 C   0  0  0  0  0  0  0  0  0  0  0  0
   -3.3275   -1.4793   -3.2162 H   0  0  0  0  0  0  0  0  0  0  0  0
   -3.4985    0.5984   -2.6626 C   0  0  0  0  0  0  0  0  0  0  0  0
   -1.4569    0.3824    1.1072 C   0  0  0  0  0  0  0  0  0  0  0  0
   -0.7157    1.3637    1.1422 O   0  0  0  0  0  0  0  0  0  0  0  0
   -2.3693    0.1343    2.0564 N   0  0  0  0  0  0  0  0  0  0  0  0
   -2.9010   -0.7213    1.9821 H   0  0  0  0  0  0  0  0  0  0  0  0
   -2.5933    0.9839    3.2228 C   0  0  0  0  0  0  0  0  0  0  0  0
   -2.7425    2.0168    2.9026 H   0  0  0  0  0  0  0  0  0  0  0  0
   -3.4734    0.6449    3.7709 H   0  0  0  0  0  0  0  0  0  0  0  0
   -1.7216    0.9430    3.8779 H   0  0  0  0  0  0  0  0  0  0  0  0
  5  6  2  0  0  0  0
  5  7  1  0  0  0  0
  2  3  1  0  0  0  0
  2  4  1  0  0  0  0
  2  5  1  0  0  0  0
  1  2  1  0  0  0  0
 29 30  2  0  0  0  0
 29 31  1  0  0  0  0
 26 27  1  0  0  0  0
 26 28  2  0  0  0  0
 24 25  1  0  0  0  0
 24 26  1  0  0  0  0
 22 23  1  0  0  0  0
 22 24  2  0  0  0  0
 20 21  1  0  0  0  0
 20 22  1  0  0  0  0
 19 20  2  0  0  0  0
 19 28  1  0  0  0  0
 17 18  1  0  0  0  0
 17 19  1  0  0  0  0
 15 16  1  0  0  0  0
 15 17  1  0  0  0  0
 14 15  2  0  0  0  0
 14 28  1  0  0  0  0
 11 12  1  0  0  0  0
 11 13  1  0  0  0  0
 11 14  1  0  0  0  0
  9 10  1  0  0  0  0
  9 11  1  0  0  0  0
  9 29  1  0  0  0  0
  7  8  1  0  0  0  0
  7  9  1  0  0  0  0
 33 34  1  0  0  0  0
 33 35  1  0  0  0  0
 33 36  1  0  0  0  0
 31 32  1  0  0  0  0
 31 33  1  0  0  0  0
M  END
$$$$
default_name
  -OEChem-12212115393D

 36 37  0     1  0  0  0  0  0999 V2000
   -4.0843   -4.0736    1.2944 H   0  0  0  0  0  0  0  0  0  0  0  0
   -4.0342   -3.2816    0.5484 C   0  0  0  0  0  0  0  0  0  0  0  0
   -4.8842   -2.6126    0.6694 H   0  0  0  0  0  0  0  0  0  0  0  0
   -4.0433   -3.7186   -0.4486 H   0  0  0  0  0  0  0  0  0  0  0  0
   -2.7532   -2.5046    0.7444 C   0  0  0  0  0  0  0  0  0  0  0  0
   -1.9803   -2.8096    1.6434 O   0  0  0  0  0  0  0  0  0  0  0  0
   -2.5332   -1.4966   -0.0966 N   0  0  0  0  0  0  0  0  0  0  0  0
   -3.2312   -1.2816   -0.7936 H   0  0  0  0  0  0  0  0  0  0  0  0
   -1.3593   -0.6196   -0.0536 C   0  0  1  0  0  0  0  0  0  0  0  0
   -0.4722   -1.2314    0.1150 H   0  0  0  0  0  0  0  0  0  0  0  0
   -1.2010    0.0915   -1.4068 C   0  0  0  0  0  0  0  0  0  0  0  0
   -0.3109    0.7220   -1.3707 H   0  0  0  0  0  0  0  0  0  0  0  0
   -1.0403   -0.6630   -2.1788 H   0  0  0  0  0  0  0  0  0  0  0  0
   -2.3602    0.9492   -1.8149 C   0  0  0  0  0  0  0  0  0  0  0  0
   -2.5281    2.2509   -1.4907 C   0  0  0  0  0  0  0  0  0  0  0  0
   -1.8455    2.8266   -0.8753 H   0  0  0  0  0  0  0  0  0  0  0  0
   -3.6827    2.7303   -2.0778 N   0  0  0  0  0  0  0  0  0  0  0  0
   -4.0104    3.6790   -1.9689 H   0  0  0  0  0  0  0  0  0  0  0  0
   -4.3115    1.7595   -2.8280 C   0  0  0  0  0  0  0  0  0  0  0  0
   -5.4695    1.7600   -3.6188 C   0  0  0  0  0  0  0  0  0  0  0  0
   -6.0628    2.6569   -3.7201 H   0  0  0  0  0  0  0  0  0  0  0  0
   -5.8480    0.5769   -4.2761 C   0  0  0  0  0  0  0  0  0  0  0  0
   -6.7387    0.5582   -4.8895 H   0  0  0  0  0  0  0  0  0  0  0  0
   -5.0698   -0.5859   -4.1298 C   0  0  0  0  0  0  0  0  0  0  0  0
   -5.3693   -1.4962   -4.6306 H   0  0  0  0  0  0  0  0  0  0  0  0
   -3.9089   -0.5755   -3.3308 C   0  0  0  0  0  0  0  0  0  0  0  0
   -3.3275   -1.4793   -3.2162 H   0  0  0  0  0  0  0  0  0  0  0  0
   -3.4985    0.5984   -2.6626 C   0  0  0  0  0  0  0  0  0  0  0  0
   -1.4569    0.3824    1.1072 C   0  0  0  0  0  0  0  0  0  0  0  0
   -0.9283    1.4896    1.0157 O   0  0  0  0  0  0  0  0  0  0  0  0
   -2.1308   -0.0064    2.1980 N   0  0  0  0  0  0  0  0  0  0  0  0
   -2.4884   -0.9509    2.2150 H   0  0  0  0  0  0  0  0  0  0  0  0
   -2.3196    0.8218    3.3857 C   0  0  0  0  0  0  0  0  0  0  0  0
   -2.7207    1.7949    3.0960 H   0  0  0  0  0  0  0  0  0  0  0  0
   -3.0115    0.3369    4.0756 H   0  0  0  0  0  0  0  0  0  0  0  0
   -1.3599    0.9727    3.8827 H   0  0  0  0  0  0  0  0  0  0  0  0
  5  6  2  0  0  0  0
  5  7  1  0  0  0  0
  2  3  1  0  0  0  0
  2  4  1  0  0  0  0
  2  5  1  0  0  0  0
  1  2  1  0  0  0  0
 29 30  2  0  0  0  0
 29 31  1  0  0  0  0
 26 27  1  0  0  0  0
 26 28  2  0  0  0  0
 24 25  1  0  0  0  0
 24 26  1  0  0  0  0
 22 23  1  0  0  0  0
 22 24  2  0  0  0  0
 20 21  1  0  0  0  0
 20 22  1  0  0  0  0
 19 20  2  0  0  0  0
 19 28  1  0  0  0  0
 17 18  1  0  0  0  0
 17 19  1  0  0  0  0
 15 16  1  0  0  0  0
 15 17  1  0  0  0  0
 14 15  2  0  0  0  0
 14 28  1  0  0  0  0
 11 12  1  0  0  0  0
 11 13  1  0  0  0  0
 11 14  1  0  0  0  0
  9 10  1  0  0  0  0
  9 11  1  0  0  0  0
  9 29  1  0  0  0  0
  7  8  1  0  0  0  0
  7  9  1  0  0  0  0
 33 34  1  0  0  0  0
 33 35  1  0  0  0  0
 33 36  1  0  0  0  0
 31 32  1  0  0  0  0
 31 33  1  0  0  0  0
M  END
$$$$
default_name
  -OEChem-12212115393D

 36 37  0     1  0  0  0  0  0999 V2000
   -4.0843   -4.0736    1.2944 H   0  0  0  0  0  0  0  0  0  0  0  0
   -4.0342   -3.2816    0.5484 C   0  0  0  0  0  0  0  0  0  0  0  0
   -4.8842   -2.6126    0.6694 H   0  0  0  0  0  0  0  0  0  0  0  0
   -4.0433   -3.7186   -0.4486 H   0  0  0  0  0  0  0  0  0  0  0  0
   -2.7532   -2.5046    0.7444 C   0  0  0  0  0  0  0  0  0  0  0  0
   -1.9803   -2.8096    1.6434 O   0  0  0  0  0  0  0  0  0  0  0  0
   -2.5332   -1.4966   -0.0966 N   0  0  0  0  0  0  0  0  0  0  0  0
   -3.2312   -1.2816   -0.7936 H   0  0  0  0  0  0  0  0  0  0  0  0
   -1.3593   -0.6196   -0.0536 C   0  0  1  0  0  0  0  0  0  0  0  0
   -0.4722   -1.2314    0.1150 H   0  0  0  0  0  0  0  0  0  0  0  0
   -1.2010    0.0915   -1.4068 C   0  0  0  0  0  0  0  0  0  0  0  0
   -0.3109    0.7220   -1.3707 H   0  0  0  0  0  0  0  0  0  0  0  0
   -1.0403   -0.6630   -2.1788 H   0  0  0  0  0  0  0  0  0  0  0  0
   -2.3602    0.9492   -1.8149 C   0  0  0  0  0  0  0  0  0  0  0  0
   -2.5281    2.2509   -1.4907 C   0  0  0  0  0  0  0  0  0  0  0  0
   -1.8455    2.8266   -0.8753 H   0  0  0  0  0  0  0  0  0  0  0  0
   -3.6827    2.7303   -2.0778 N   0  0  0  0  0  0  0  0  0  0  0  0
   -4.0104    3.6790   -1.9689 H   0  0  0  0  0  0  0  0  0  0  0  0
   -4.3115    1.7595   -2.8280 C   0  0  0  0  0  0  0  0  0  0  0  0
   -5.4695    1.7600   -3.6188 C   0  0  0  0  0  0  0  0  0  0  0  0
   -6.0628    2.6569   -3.7201 H   0  0  0  0  0  0  0  0  0  0  0  0
   -5.8480    0.5769   -4.2761 C   0  0  0  0  0  0  0  0  0  0  0  0
   -6.7387    0.5582   -4.8895 H   0  0  0  0  0  0  0  0  0  0  0  0
   -5.0698   -0.5859   -4.1298 C   0  0  0  0  0  0  0  0  0  0  0  0
   -5.3693   -1.4962   -4.6306 H   0  0  0  0  0  0  0  0  0  0  0  0
   -3.9089   -0.5755   -3.3308 C   0  0  0  0  0  0  0  0  0  0  0  0
   -3.3275   -1.4793   -3.2162 H   0  0  0  0  0  0  0  0  0  0  0  0
   -3.4985    0.5984   -2.6626 C   0  0  0  0  0  0  0  0  0  0  0  0
   -1.4569    0.3824    1.1072 C   0  0  0  0  0  0  0  0  0  0  0  0
   -1.1796    1.5674    0.9274 O   0  0  0  0  0  0  0  0  0  0  0  0
   -1.8491   -0.0933    2.2967 N   0  0  0  0  0  0  0  0  0  0  0  0
   -2.0056   -1.0882    2.3742 H   0  0  0  0  0  0  0  0  0  0  0  0
   -1.9960    0.7215    3.4996 C   0  0  0  0  0  0  0  0  0  0  0  0
   -2.6236    1.5881    3.2828 H   0  0  0  0  0  0  0  0  0  0  0  0
   -2.4536    0.1347    4.2971 H   0  0  0  0  0  0  0  0  0  0  0  0
   -1.0155    1.0722    3.8258 H   0  0  0  0  0  0  0  0  0  0  0  0
  5  6  2  0  0  0  0
  5  7  1  0  0  0  0
  2  3  1  0  0  0  0
  2  4  1  0  0  0  0
  2  5  1  0  0  0  0
  1  2  1  0  0  0  0
 29 30  2  0  0  0  0
 29 31  1  0  0  0  0
 26 27  1  0  0  0  0
 26 28  2  0  0  0  0
 24 25  1  0  0  0  0
 24 26  1  0  0  0  0
 22 23  1  0  0  0  0
 22 24  2  0  0  0  0
 20 21  1  0  0  0  0
 20 22  1  0  0  0  0
 19 20  2  0  0  0  0
 19 28  1  0  0  0  0
 17 18  1  0  0  0  0
 17 19  1  0  0  0  0
 15 16  1  0  0  0  0
 15 17  1  0  0  0  0
 14 15  2  0  0  0  0
 14 28  1  0  0  0  0
 11 12  1  0  0  0  0
 11 13  1  0  0  0  0
 11 14  1  0  0  0  0
  9 10  1  0  0  0  0
  9 11  1  0  0  0  0
  9 29  1  0  0  0  0
  7  8  1  0  0  0  0
  7  9  1  0  0  0  0
 33 34  1  0  0  0  0
 33 35  1  0  0  0  0
 33 36  1  0  0  0  0
 31 32  1  0  0  0  0
 31 33  1  0  0  0  0
M  END
$$$$
default_name
  -OEChem-12212115393D

 36 37  0     1  0  0  0  0  0999 V2000
   -4.0843   -4.0736    1.2944 H   0  0  0  0  0  0  0  0  0  0  0  0
   -4.0342   -3.2816    0.5484 C   0  0  0  0  0  0  0  0  0  0  0  0
   -4.8842   -2.6126    0.6694 H   0  0  0  0  0  0  0  0  0  0  0  0
   -4.0433   -3.7186   -0.4486 H   0  0  0  0  0  0  0  0  0  0  0  0
   -2.7532   -2.5046    0.7444 C   0  0  0  0  0  0  0  0  0  0  0  0
   -1.9803   -2.8096    1.6434 O   0  0  0  0  0  0  0  0  0  0  0  0
   -2.5332   -1.4966   -0.0966 N   0  0  0  0  0  0  0  0  0  0  0  0
   -3.2312   -1.2816   -0.7936 H   0  0  0  0  0  0  0  0  0  0  0  0
   -1.3593   -0.6196   -0.0536 C   0  0  1  0  0  0  0  0  0  0  0  0
   -0.4722   -1.2314    0.1150 H   0  0  0  0  0  0  0  0  0  0  0  0
   -1.2010    0.0915   -1.4068 C   0  0  0  0  0  0  0  0  0  0  0  0
   -0.3109    0.7220   -1.3707 H   0  0  0  0  0  0  0  0  0  0  0  0
   -1.0403   -0.6630   -2.1788 H   0  0  0  0  0  0  0  0  0  0  0  0
   -2.3602    0.9492   -1.8149 C   0  0  0  0  0  0  0  0  0  0  0  0
   -2.5281    2.2509   -1.4907 C   0  0  0  0  0  0  0  0  0  0  0  0
   -1.8455    2.8266   -0.8753 H   0  0  0  0  0  0  0  0  0  0  0  0
   -3.6827    2.7303   -2.0778 N   0  0  0  0  0  0  0  0  0  0  0  0
   -4.0104    3.6790   -1.9689 H   0  0  0  0  0  0  0  0  0  0  0  0
   -4.3115    1.7595   -2.8280 C   0  0  0  0  0  0  0  0  0  0  0  0
   -5.4695    1.7600   -3.6188 C   0  0  0  0  0  0  0  0  0  0  0  0
   -6.0628    2.6569   -3.7201 H   0  0  0  0  0  0  0  0  0  0  0  0
   -5.8480    0.5769   -4.2761 C   0  0  0  0  0  0  0  0  0  0  0  0
   -6.7387    0.5582   -4.8895 H   0  0  0  0  0  0  0  0  0  0  0  0
   -5.0698   -0.5859   -4.1298 C   0  0  0  0  0  0  0  0  0  0  0  0
   -5.3693   -1.4962   -4.6306 H   0  0  0  0  0  0  0  0  0  0  0  0
   -3.9089   -0.5755   -3.3308 C   0  0  0  0  0  0  0  0  0  0  0  0
   -3.3275   -1.4793   -3.2162 H   0  0  0  0  0  0  0  0  0  0  0  0
   -3.4985    0.5984   -2.6626 C   0  0  0  0  0  0  0  0  0  0  0  0
   -1.4569    0.3824    1.1072 C   0  0  0  0  0  0  0  0  0  0  0  0
   -1.4524    1.5921    0.8831 O   0  0  0  0  0  0  0  0  0  0  0  0
   -1.5433   -0.1206    2.3460 N   0  0  0  0  0  0  0  0  0  0  0  0
   -1.4856   -1.1238    2.4486 H   0  0  0  0  0  0  0  0  0  0  0  0
   -1.6447    0.6897    3.5566 C   0  0  0  0  0  0  0  0  0  0  0  0
   -2.4578    1.4103    3.4502 H   0  0  0  0  0  0  0  0  0  0  0  0
   -1.8378    0.0521    4.4202 H   0  0  0  0  0  0  0  0  0  0  0  0
   -0.7120    1.2348    3.7110 H   0  0  0  0  0  0  0  0  0  0  0  0
  5  6  2  0  0  0  0
  5  7  1  0  0  0  0
  2  3  1  0  0  0  0
  2  4  1  0  0  0  0
  2  5  1  0  0  0  0
  1  2  1  0  0  0  0
 29 30  2  0  0  0  0
 29 31  1  0  0  0  0
 26 27  1  0  0  0  0
 26 28  2  0  0  0  0
 24 25  1  0  0  0  0
 24 26  1  0  0  0  0
 22 23  1  0  0  0  0
 22 24  2  0  0  0  0
 20 21  1  0  0  0  0
 20 22  1  0  0  0  0
 19 20  2  0  0  0  0
 19 28  1  0  0  0  0
 17 18  1  0  0  0  0
 17 19  1  0  0  0  0
 15 16  1  0  0  0  0
 15 17  1  0  0  0  0
 14 15  2  0  0  0  0
 14 28  1  0  0  0  0
 11 12  1  0  0  0  0
 11 13  1  0  0  0  0
 11 14  1  0  0  0  0
  9 10  1  0  0  0  0
  9 11  1  0  0  0  0
  9 29  1  0  0  0  0
  7  8  1  0  0  0  0
  7  9  1  0  0  0  0
 33 34  1  0  0  0  0
 33 35  1  0  0  0  0
 33 36  1  0  0  0  0
 31 32  1  0  0  0  0
 31 33  1  0  0  0  0
M  END
$$$$
default_name
  -OEChem-12212115393D

 36 37  0     1  0  0  0  0  0999 V2000
   -4.0843   -4.0736    1.2944 H   0  0  0  0  0  0  0  0  0  0  0  0
   -4.0342   -3.2816    0.5484 C   0  0  0  0  0  0  0  0  0  0  0  0
   -4.8842   -2.6126    0.6694 H   0  0  0  0  0  0  0  0  0  0  0  0
   -4.0433   -3.7186   -0.4486 H   0  0  0  0  0  0  0  0  0  0  0  0
   -2.7532   -2.5046    0.7444 C   0  0  0  0  0  0  0  0  0  0  0  0
   -1.9803   -2.8096    1.6434 O   0  0  0  0  0  0  0  0  0  0  0  0
   -2.5332   -1.4966   -0.0966 N   0  0  0  0  0  0  0  0  0  0  0  0
   -3.2312   -1.2816   -0.7936 H   0  0  0  0  0  0  0  0  0  0  0  0
   -1.3593   -0.6196   -0.0536 C   0  0  1  0  0  0  0  0  0  0  0  0
   -0.4722   -1.2314    0.1150 H   0  0  0  0  0  0  0  0  0  0  0  0
   -1.2010    0.0915   -1.4068 C   0  0  0  0  0  0  0  0  0  0  0  0
   -0.3109    0.7220   -1.3707 H   0  0  0  0  0  0  0  0  0  0  0  0
   -1.0403   -0.6630   -2.1788 H   0  0  0  0  0  0  0  0  0  0  0  0
   -2.3602    0.9492   -1.8149 C   0  0  0  0  0  0  0  0  0  0  0  0
   -2.5281    2.2509   -1.4907 C   0  0  0  0  0  0  0  0  0  0  0  0
   -1.8455    2.8266   -0.8753 H   0  0  0  0  0  0  0  0  0  0  0  0
   -3.6827    2.7303   -2.0778 N   0  0  0  0  0  0  0  0  0  0  0  0
   -4.0104    3.6790   -1.9689 H   0  0  0  0  0  0  0  0  0  0  0  0
   -4.3115    1.7595   -2.8280 C   0  0  0  0  0  0  0  0  0  0  0  0
   -5.4695    1.7600   -3.6188 C   0  0  0  0  0  0  0  0  0  0  0  0
   -6.0628    2.6569   -3.7201 H   0  0  0  0  0  0  0  0  0  0  0  0
   -5.8480    0.5769   -4.2761 C   0  0  0  0  0  0  0  0  0  0  0  0
   -6.7387    0.5582   -4.8895 H   0  0  0  0  0  0  0  0  0  0  0  0
   -5.0698   -0.5859   -4.1298 C   0  0  0  0  0  0  0  0  0  0  0  0
   -5.3693   -1.4962   -4.6306 H   0  0  0  0  0  0  0  0  0  0  0  0
   -3.9089   -0.5755   -3.3308 C   0  0  0  0  0  0  0  0  0  0  0  0
   -3.3275   -1.4793   -3.2162 H   0  0  0  0  0  0  0  0  0  0  0  0
   -3.4985    0.5984   -2.6626 C   0  0  0  0  0  0  0  0  0  0  0  0
   -1.4569    0.3824    1.1072 C   0  0  0  0  0  0  0  0  0  0  0  0
   -1.7283    1.5618    0.8860 O   0  0  0  0  0  0  0  0  0  0  0  0
   -1.2342   -0.0863    2.3424 N   0  0  0  0  0  0  0  0  0  0  0  0
   -0.9638   -1.0553    2.4334 H   0  0  0  0  0  0  0  0  0  0  0  0
   -1.2894    0.7287    3.5528 C   0  0  0  0  0  0  0  0  0  0  0  0
   -2.2346    1.2738    3.5868 H   0  0  0  0  0  0  0  0  0  0  0  0
   -1.2061    0.0948    4.4366 H   0  0  0  0  0  0  0  0  0  0  0  0
   -0.4699    1.4492    3.5463 H   0  0  0  0  0  0  0  0  0  0  0  0
  5  6  2  0  0  0  0
  5  7  1  0  0  0  0
  2  3  1  0  0  0  0
  2  4  1  0  0  0  0
  2  5  1  0  0  0  0
  1  2  1  0  0  0  0
 29 30  2  0  0  0  0
 29 31  1  0  0  0  0
 26 27  1  0  0  0  0
 26 28  2  0  0  0  0
 24 25  1  0  0  0  0
 24 26  1  0  0  0  0
 22 23  1  0  0  0  0
 22 24  2  0  0  0  0
 20 21  1  0  0  0  0
 20 22  1  0  0  0  0
 19 20  2  0  0  0  0
 19 28  1  0  0  0  0
 17 18  1  0  0  0  0
 17 19  1  0  0  0  0
 15 16  1  0  0  0  0
 15 17  1  0  0  0  0
 14 15  2  0  0  0  0
 14 28  1  0  0  0  0
 11 12  1  0  0  0  0
 11 13  1  0  0  0  0
 11 14  1  0  0  0  0
  9 10  1  0  0  0  0
  9 11  1  0  0  0  0
  9 29  1  0  0  0  0
  7  8  1  0  0  0  0
  7  9  1  0  0  0  0
 33 34  1  0  0  0  0
 33 35  1  0  0  0  0
 33 36  1  0  0  0  0
 31 32  1  0  0  0  0
 31 33  1  0  0  0  0
M  END
$$$$
default_name
  -OEChem-12212115393D

 36 37  0     1  0  0  0  0  0999 V2000
   -4.0843   -4.0736    1.2944 H   0  0  0  0  0  0  0  0  0  0  0  0
   -4.0342   -3.2816    0.5484 C   0  0  0  0  0  0  0  0  0  0  0  0
   -4.8842   -2.6126    0.6694 H   0  0  0  0  0  0  0  0  0  0  0  0
   -4.0433   -3.7186   -0.4486 H   0  0  0  0  0  0  0  0  0  0  0  0
   -2.7532   -2.5046    0.7444 C   0  0  0  0  0  0  0  0  0  0  0  0
   -1.9803   -2.8096    1.6434 O   0  0  0  0  0  0  0  0  0  0  0  0
   -2.5332   -1.4966   -0.0966 N   0  0  0  0  0  0  0  0  0  0  0  0
   -3.2312   -1.2816   -0.7936 H   0  0  0  0  0  0  0  0  0  0  0  0
   -1.3593   -0.6196   -0.0536 C   0  0  1  0  0  0  0  0  0  0  0  0
   -0.4722   -1.2314    0.1150 H   0  0  0  0  0  0  0  0  0  0  0  0
   -1.2010    0.0915   -1.4068 C   0  0  0  0  0  0  0  0  0  0  0  0
   -0.3109    0.7220   -1.3707 H   0  0  0  0  0  0  0  0  0  0  0  0
   -1.0403   -0.6630   -2.1788 H   0  0  0  0  0  0  0  0  0  0  0  0
   -2.3602    0.9492   -1.8149 C   0  0  0  0  0  0  0  0  0  0  0  0
   -2.5281    2.2509   -1.4907 C   0  0  0  0  0  0  0  0  0  0  0  0
   -1.8455    2.8266   -0.8753 H   0  0  0  0  0  0  0  0  0  0  0  0
   -3.6827    2.7303   -2.0778 N   0  0  0  0  0  0  0  0  0  0  0  0
   -4.0104    3.6790   -1.9689 H   0  0  0  0  0  0  0  0  0  0  0  0
   -4.3115    1.7595   -2.8280 C   0  0  0  0  0  0  0  0  0  0  0  0
   -5.4695    1.7600   -3.6188 C   0  0  0  0  0  0  0  0  0  0  0  0
   -6.0628    2.6569   -3.7201 H   0  0  0  0  0  0  0  0  0  0  0  0
   -5.8480    0.5769   -4.2761 C   0  0  0  0  0  0  0  0  0  0  0  0
   -6.7387    0.5582   -4.8895 H   0  0  0  0  0  0  0  0  0  0  0  0
   -5.0698   -0.5859   -4.1298 C   0  0  0  0  0  0  0  0  0  0  0  0
   -5.3693   -1.4962   -4.6306 H   0  0  0  0  0  0  0  0  0  0  0  0
   -3.9089   -0.5755   -3.3308 C   0  0  0  0  0  0  0  0  0  0  0  0
   -3.3275   -1.4793   -3.2162 H   0  0  0  0  0  0  0  0  0  0  0  0
   -3.4985    0.5984   -2.6626 C   0  0  0  0  0  0  0  0  0  0  0  0
   -1.4569    0.3824    1.1072 C   0  0  0  0  0  0  0  0  0  0  0  0
   -1.9883    1.4787    0.9359 O   0  0  0  0  0  0  0  0  0  0  0  0
   -0.9430    0.0071    2.2862 N   0  0  0  0  0  0  0  0  0  0  0  0
   -0.4757   -0.8873    2.3295 H   0  0  0  0  0  0  0  0  0  0  0  0
   -0.9545    0.8357    3.4886 C   0  0  0  0  0  0  0  0  0  0  0  0
   -1.9693    1.1878    3.6834 H   0  0  0  0  0  0  0  0  0  0  0  0
   -0.6015    0.2597    4.3450 H   0  0  0  0  0  0  0  0  0  0  0  0
   -0.3058    1.7010    3.3427 H   0  0  0  0  0  0  0  0  0  0  0  0
  5  6  2  0  0  0  0
  5  7  1  0  0  0  0
  2  3  1  0  0  0  0
  2  4  1  0  0  0  0
  2  5  1  0  0  0  0
  1  2  1  0  0  0  0
 29 30  2  0  0  0  0
 29 31  1  0  0  0  0
 26 27  1  0  0  0  0
 26 28  2  0  0  0  0
 24 25  1  0  0  0  0
 24 26  1  0  0  0  0
 22 23  1  0  0  0  0
 22 24  2  0  0  0  0
 20 21  1  0  0  0  0
 20 22  1  0  0  0  0
 19 20  2  0  0  0  0
 19 28  1  0  0  0  0
 17 18  1  0  0  0  0
 17 19  1  0  0  0  0
 15 16  1  0  0  0  0
 15 17  1  0  0  0  0
 14 15  2  0  0  0  0
 14 28  1  0  0  0  0
 11 12  1  0  0  0  0
 11 13  1  0  0  0  0
 11 14  1  0  0  0  0
  9 10  1  0  0  0  0
  9 11  1  0  0  0  0
  9 29  1  0  0  0  0
  7  8  1  0  0  0  0
  7  9  1  0  0  0  0
 33 34  1  0  0  0  0
 33 35  1  0  0  0  0
 33 36  1  0  0  0  0
 31 32  1  0  0  0  0
 31 33  1  0  0  0  0
M  END
$$$$
default_name
  -OEChem-12212115393D

 36 37  0     1  0  0  0  0  0999 V2000
   -4.0843   -4.0736    1.2944 H   0  0  0  0  0  0  0  0  0  0  0  0
   -4.0342   -3.2816    0.5484 C   0  0  0  0  0  0  0  0  0  0  0  0
   -4.8842   -2.6126    0.6694 H   0  0  0  0  0  0  0  0  0  0  0  0
   -4.0433   -3.7186   -0.4486 H   0  0  0  0  0  0  0  0  0  0  0  0
   -2.7532   -2.5046    0.7444 C   0  0  0  0  0  0  0  0  0  0  0  0
   -1.9803   -2.8096    1.6434 O   0  0  0  0  0  0  0  0  0  0  0  0
   -2.5332   -1.4966   -0.0966 N   0  0  0  0  0  0  0  0  0  0  0  0
   -3.2312   -1.2816   -0.7936 H   0  0  0  0  0  0  0  0  0  0  0  0
   -1.3593   -0.6196   -0.0536 C   0  0  1  0  0  0  0  0  0  0  0  0
   -0.4722   -1.2314    0.1150 H   0  0  0  0  0  0  0  0  0  0  0  0
   -1.2010    0.0915   -1.4068 C   0  0  0  0  0  0  0  0  0  0  0  0
   -0.3109    0.7220   -1.3707 H   0  0  0  0  0  0  0  0  0  0  0  0
   -1.0403   -0.6630   -2.1788 H   0  0  0  0  0  0  0  0  0  0  0  0
   -2.3602    0.9492   -1.8149 C   0  0  0  0  0  0  0  0  0  0  0  0
   -2.5281    2.2509   -1.4907 C   0  0  0  0  0  0  0  0  0  0  0  0
   -1.8455    2.8266   -0.8753 H   0  0  0  0  0  0  0  0  0  0  0  0
   -3.6827    2.7303   -2.0778 N   0  0  0  0  0  0  0  0  0  0  0  0
   -4.0104    3.6790   -1.9689 H   0  0  0  0  0  0  0  0  0  0  0  0
   -4.3115    1.7595   -2.8280 C   0  0  0  0  0  0  0  0  0  0  0  0
   -5.4695    1.7600   -3.6188 C   0  0  0  0  0  0  0  0  0  0  0  0
   -6.0628    2.6569   -3.7201 H   0  0  0  0  0  0  0  0  0  0  0  0
   -5.8480    0.5769   -4.2761 C   0  0  0  0  0  0  0  0  0  0  0  0
   -6.7387    0.5582   -4.8895 H   0  0  0  0  0  0  0  0  0  0  0  0
   -5.0698   -0.5859   -4.1298 C   0  0  0  0  0  0  0  0  0  0  0  0
   -5.3693   -1.4962   -4.6306 H   0  0  0  0  0  0  0  0  0  0  0  0
   -3.9089   -0.5755   -3.3308 C   0  0  0  0  0  0  0  0  0  0  0  0
   -3.3275   -1.4793   -3.2162 H   0  0  0  0  0  0  0  0  0  0  0  0
   -3.4985    0.5984   -2.6626 C   0  0  0  0  0  0  0  0  0  0  0  0
   -1.4569    0.3824    1.1072 C   0  0  0  0  0  0  0  0  0  0  0  0
   -2.2148    1.3484    1.0293 O   0  0  0  0  0  0  0  0  0  0  0  0
   -0.6895    0.1534    2.1813 N   0  0  0  0  0  0  0  0  0  0  0  0
   -0.0547   -0.6314    2.1440 H   0  0  0  0  0  0  0  0  0  0  0  0
   -0.6628    1.0035    3.3683 C   0  0  0  0  0  0  0  0  0  0  0  0
   -1.6800    1.1581    3.7333 H   0  0  0  0  0  0  0  0  0  0  0  0
   -0.0652    0.5358    4.1518 H   0  0  0  0  0  0  0  0  0  0  0  0
   -0.2309    1.9729    3.1143 H   0  0  0  0  0  0  0  0  0  0  0  0
  5  6  2  0  0  0  0
  5  7  1  0  0  0  0
  2  3  1  0  0  0  0
  2  4  1  0  0  0  0
  2  5  1  0  0  0  0
  1  2  1  0  0  0  0
 29 30  2  0  0  0  0
 29 31  1  0  0  0  0
 26 27  1  0  0  0  0
 26 28  2  0  0  0  0
 24 25  1  0  0  0  0
 24 26  1  0  0  0  0
 22 23  1  0  0  0  0
 22 24  2  0  0  0  0
 20 21  1  0  0  0  0
 20 22  1  0  0  0  0
 19 20  2  0  0  0  0
 19 28  1  0  0  0  0
 17 18  1  0  0  0  0
 17 19  1  0  0  0  0
 15 16  1  0  0  0  0
 15 17  1  0  0  0  0
 14 15  2  0  0  0  0
 14 28  1  0  0  0  0
 11 12  1  0  0  0  0
 11 13  1  0  0  0  0
 11 14  1  0  0  0  0
  9 10  1  0  0  0  0
  9 11  1  0  0  0  0
  9 29  1  0  0  0  0
  7  8  1  0  0  0  0
  7  9  1  0  0  0  0
 33 34  1  0  0  0  0
 33 35  1  0  0  0  0
 33 36  1  0  0  0  0
 31 32  1  0  0  0  0
 31 33  1  0  0  0  0
M  END
$$$$
default_name
  -OEChem-12212115393D

 36 37  0     1  0  0  0  0  0999 V2000
   -4.0843   -4.0736    1.2944 H   0  0  0  0  0  0  0  0  0  0  0  0
   -4.0342   -3.2816    0.5484 C   0  0  0  0  0  0  0  0  0  0  0  0
   -4.8842   -2.6126    0.6694 H   0  0  0  0  0  0  0  0  0  0  0  0
   -4.0433   -3.7186   -0.4486 H   0  0  0  0  0  0  0  0  0  0  0  0
   -2.7532   -2.5046    0.7444 C   0  0  0  0  0  0  0  0  0  0  0  0
   -1.9803   -2.8096    1.6434 O   0  0  0  0  0  0  0  0  0  0  0  0
   -2.5332   -1.4966   -0.0966 N   0  0  0  0  0  0  0  0  0  0  0  0
   -3.2312   -1.2816   -0.7936 H   0  0  0  0  0  0  0  0  0  0  0  0
   -1.3593   -0.6196   -0.0536 C   0  0  1  0  0  0  0  0  0  0  0  0
   -0.4722   -1.2314    0.1150 H   0  0  0  0  0  0  0  0  0  0  0  0
   -1.2010    0.0915   -1.4068 C   0  0  0  0  0  0  0  0  0  0  0  0
   -0.3109    0.7220   -1.3707 H   0  0  0  0  0  0  0  0  0  0  0  0
   -1.0403   -0.6630   -2.1788 H   0  0  0  0  0  0  0  0  0  0  0  0
   -2.3602    0.9492   -1.8149 C   0  0  0  0  0  0  0  0  0  0  0  0
   -2.5281    2.2509   -1.4907 C   0  0  0  0  0  0  0  0  0  0  0  0
   -1.8455    2.8266   -0.8753 H   0  0  0  0  0  0  0  0  0  0  0  0
   -3.6827    2.7303   -2.0778 N   0  0  0  0  0  0  0  0  0  0  0  0
   -4.0104    3.6790   -1.9689 H   0  0  0  0  0  0  0  0  0  0  0  0
   -4.3115    1.7595   -2.8280 C   0  0  0  0  0  0  0  0  0  0  0  0
   -5.4695    1.7600   -3.6188 C   0  0  0  0  0  0  0  0  0  0  0  0
   -6.0628    2.6569   -3.7201 H   0  0  0  0  0  0  0  0  0  0  0  0
   -5.8480    0.5769   -4.2761 C   0  0  0  0  0  0  0  0  0  0  0  0
   -6.7387    0.5582   -4.8895 H   0  0  0  0  0  0  0  0  0  0  0  0
   -5.0698   -0.5859   -4.1298 C   0  0  0  0  0  0  0  0  0  0  0  0
   -5.3693   -1.4962   -4.6306 H   0  0  0  0  0  0  0  0  0  0  0  0
   -3.9089   -0.5755   -3.3308 C   0  0  0  0  0  0  0  0  0  0  0  0
   -3.3275   -1.4793   -3.2162 H   0  0  0  0  0  0  0  0  0  0  0  0
   -3.4985    0.5984   -2.6626 C   0  0  0  0  0  0  0  0  0  0  0  0
   -1.4569    0.3824    1.1072 C   0  0  0  0  0  0  0  0  0  0  0  0
   -2.3923    1.1798    1.1600 O   0  0  0  0  0  0  0  0  0  0  0  0
   -0.4909    0.3426    2.0347 N   0  0  0  0  0  0  0  0  0  0  0  0
    0.2707   -0.3049    1.8895 H   0  0  0  0  0  0  0  0  0  0  0  0
   -0.4341    1.2206    3.2001 C   0  0  0  0  0  0  0  0  0  0  0  0
   -1.3862    1.1869    3.7331 H   0  0  0  0  0  0  0  0  0  0  0  0
    0.3663    0.9041    3.8702 H   0  0  0  0  0  0  0  0  0  0  0  0
   -0.2503    2.2464    2.8765 H   0  0  0  0  0  0  0  0  0  0  0  0
  5  6  2  0  0  0  0
  5  7  1  0  0  0  0
  2  3  1  0  0  0  0
  2  4  1  0  0  0  0
  2  5  1  0  0  0  0
  1  2  1  0  0  0  0
 29 30  2  0  0  0  0
 29 31  1  0  0  0  0
 26 27  1  0  0  0  0
 26 28  2  0  0  0  0
 24 25  1  0  0  0  0
 24 26  1  0  0  0  0
 22 23  1  0  0  0  0
 22 24  2  0  0  0  0
 20 21  1  0  0  0  0
 20 22  1  0  0  0  0
 19 20  2  0  0  0  0
 19 28  1  0  0  0  0
 17 18  1  0  0  0  0
 17 19  1  0  0  0  0
 15 16  1  0  0  0  0
 15 17  1  0  0  0  0
 14 15  2  0  0  0  0
 14 28  1  0  0  0  0
 11 12  1  0  0  0  0
 11 13  1  0  0  0  0
 11 14  1  0  0  0  0
  9 10  1  0  0  0  0
  9 11  1  0  0  0  0
  9 29  1  0  0  0  0
  7  8  1  0  0  0  0
  7  9  1  0  0  0  0
 33 34  1  0  0  0  0
 33 35  1  0  0  0  0
 33 36  1  0  0  0  0
 31 32  1  0  0  0  0
 31 33  1  0  0  0  0
M  END
$$$$
default_name
  -OEChem-12212115393D

 36 37  0     1  0  0  0  0  0999 V2000
   -4.0843   -4.0736    1.2944 H   0  0  0  0  0  0  0  0  0  0  0  0
   -4.0342   -3.2816    0.5484 C   0  0  0  0  0  0  0  0  0  0  0  0
   -4.8842   -2.6126    0.6694 H   0  0  0  0  0  0  0  0  0  0  0  0
   -4.0433   -3.7186   -0.4486 H   0  0  0  0  0  0  0  0  0  0  0  0
   -2.7532   -2.5046    0.7444 C   0  0  0  0  0  0  0  0  0  0  0  0
   -1.9803   -2.8096    1.6434 O   0  0  0  0  0  0  0  0  0  0  0  0
   -2.5332   -1.4966   -0.0966 N   0  0  0  0  0  0  0  0  0  0  0  0
   -3.2312   -1.2816   -0.7936 H   0  0  0  0  0  0  0  0  0  0  0  0
   -1.3593   -0.6196   -0.0536 C   0  0  1  0  0  0  0  0  0  0  0  0
   -0.4722   -1.2314    0.1150 H   0  0  0  0  0  0  0  0  0  0  0  0
   -1.2010    0.0915   -1.4068 C   0  0  0  0  0  0  0  0  0  0  0  0
   -0.3109    0.7220   -1.3707 H   0  0  0  0  0  0  0  0  0  0  0  0
   -1.0403   -0.6630   -2.1788 H   0  0  0  0  0  0  0  0  0  0  0  0
   -2.3602    0.9492   -1.8149 C   0  0  0  0  0  0  0  0  0  0  0  0
   -2.5281    2.2509   -1.4907 C   0  0  0  0  0  0  0  0  0  0  0  0
   -1.8455    2.8266   -0.8753 H   0  0  0  0  0  0  0  0  0  0  0  0
   -3.6827    2.7303   -2.0778 N   0  0  0  0  0  0  0  0  0  0  0  0
   -4.0104    3.6790   -1.9689 H   0  0  0  0  0  0  0  0  0  0  0  0
   -4.3115    1.7595   -2.8280 C   0  0  0  0  0  0  0  0  0  0  0  0
   -5.4695    1.7600   -3.6188 C   0  0  0  0  0  0  0  0  0  0  0  0
   -6.0628    2.6569   -3.7201 H   0  0  0  0  0  0  0  0  0  0  0  0
   -5.8480    0.5769   -4.2761 C   0  0  0  0  0  0  0  0  0  0  0  0
   -6.7387    0.5582   -4.8895 H   0  0  0  0  0  0  0  0  0  0  0  0
   -5.0698   -0.5859   -4.1298 C   0  0  0  0  0  0  0  0  0  0  0  0
   -5.3693   -1.4962   -4.6306 H   0  0  0  0  0  0  0  0  0  0  0  0
   -3.9089   -0.5755   -3.3308 C   0  0  0  0  0  0  0  0  0  0  0  0
   -3.3275   -1.4793   -3.2162 H   0  0  0  0  0  0  0  0  0  0  0  0
   -3.4985    0.5984   -2.6626 C   0  0  0  0  0  0  0  0  0  0  0  0
   -1.4569    0.3824    1.1072 C   0  0  0  0  0  0  0  0  0  0  0  0
   -2.5088    0.9843    1.3189 O   0  0  0  0  0  0  0  0  0  0  0  0
   -0.3608    0.5617    1.8565 N   0  0  0  0  0  0  0  0  0  0  0  0
    0.4782    0.0699    1.5834 H   0  0  0  0  0  0  0  0  0  0  0  0
   -0.2841    1.4723    2.9955 C   0  0  0  0  0  0  0  0  0  0  0  0
   -1.1082    1.2722    3.6829 H   0  0  0  0  0  0  0  0  0  0  0  0
    0.6635    1.3397    3.5192 H   0  0  0  0  0  0  0  0  0  0  0  0
   -0.3626    2.5030    2.6457 H   0  0  0  0  0  0  0  0  0  0  0  0
  5  6  2  0  0  0  0
  5  7  1  0  0  0  0
  2  3  1  0  0  0  0
  2  4  1  0  0  0  0
  2  5  1  0  0  0  0
  1  2  1  0  0  0  0
 29 30  2  0  0  0  0
 29 31  1  0  0  0  0
 26 27  1  0  0  0  0
 26 28  2  0  0  0  0
 24 25  1  0  0  0  0
 24 26  1  0  0  0  0
 22 23  1  0  0  0  0
 22 24  2  0  0  0  0
 20 21  1  0  0  0  0
 20 22  1  0  0  0  0
 19 20  2  0  0  0  0
 19 28  1  0  0  0  0
 17 18  1  0  0  0  0
 17 19  1  0  0  0  0
 15 16  1  0  0  0  0
 15 17  1  0  0  0  0
 14 15  2  0  0  0  0
 14 28  1  0  0  0  0
 11 12  1  0  0  0  0
 11 13  1  0  0  0  0
 11 14  1  0  0  0  0
  9 10  1  0  0  0  0
  9 11  1  0  0  0  0
  9 29  1  0  0  0  0
  7  8  1  0  0  0  0
  7  9  1  0  0  0  0
 33 34  1  0  0  0  0
 33 35  1  0  0  0  0
 33 36  1  0  0  0  0
 31 32  1  0  0  0  0
 31 33  1  0  0  0  0
M  END
$$$$
default_name
  -OEChem-12212115393D

 36 37  0     1  0  0  0  0  0999 V2000
   -4.0843   -4.0736    1.2944 H   0  0  0  0  0  0  0  0  0  0  0  0
   -4.0342   -3.2816    0.5484 C   0  0  0  0  0  0  0  0  0  0  0  0
   -4.8842   -2.6126    0.6694 H   0  0  0  0  0  0  0  0  0  0  0  0
   -4.0433   -3.7186   -0.4486 H   0  0  0  0  0  0  0  0  0  0  0  0
   -2.7532   -2.5046    0.7444 C   0  0  0  0  0  0  0  0  0  0  0  0
   -1.9803   -2.8096    1.6434 O   0  0  0  0  0  0  0  0  0  0  0  0
   -2.5332   -1.4966   -0.0966 N   0  0  0  0  0  0  0  0  0  0  0  0
   -3.2312   -1.2816   -0.7936 H   0  0  0  0  0  0  0  0  0  0  0  0
   -1.3593   -0.6196   -0.0536 C   0  0  1  0  0  0  0  0  0  0  0  0
   -0.4722   -1.2314    0.1150 H   0  0  0  0  0  0  0  0  0  0  0  0
   -1.2010    0.0915   -1.4068 C   0  0  0  0  0  0  0  0  0  0  0  0
   -0.3109    0.7220   -1.3707 H   0  0  0  0  0  0  0  0  0  0  0  0
   -1.0403   -0.6630   -2.1788 H   0  0  0  0  0  0  0  0  0  0  0  0
   -2.3602    0.9492   -1.8149 C   0  0  0  0  0  0  0  0  0  0  0  0
   -2.5281    2.2509   -1.4907 C   0  0  0  0  0  0  0  0  0  0  0  0
   -1.8455    2.8266   -0.8753 H   0  0  0  0  0  0  0  0  0  0  0  0
   -3.6827    2.7303   -2.0778 N   0  0  0  0  0  0  0  0  0  0  0  0
   -4.0104    3.6790   -1.9689 H   0  0  0  0  0  0  0  0  0  0  0  0
   -4.3115    1.7595   -2.8280 C   0  0  0  0  0  0  0  0  0  0  0  0
   -5.4695    1.7600   -3.6188 C   0  0  0  0  0  0  0  0  0  0  0  0
   -6.0628    2.6569   -3.7201 H   0  0  0  0  0  0  0  0  0  0  0  0
   -5.8480    0.5769   -4.2761 C   0  0  0  0  0  0  0  0  0  0  0  0
   -6.7387    0.5582   -4.8895 H   0  0  0  0  0  0  0  0  0  0  0  0
   -5.0698   -0.5859   -4.1298 C   0  0  0  0  0  0  0  0  0  0  0  0
   -5.3693   -1.4962   -4.6306 H   0  0  0  0  0  0  0  0  0  0  0  0
   -3.9089   -0.5755   -3.3308 C   0  0  0  0  0  0  0  0  0  0  0  0
   -3.3275   -1.4793   -3.2162 H   0  0  0  0  0  0  0  0  0  0  0  0
   -3.4985    0.5984   -2.6626 C   0  0  0  0  0  0  0  0  0  0  0  0
   -1.4569    0.3824    1.1072 C   0  0  0  0  0  0  0  0  0  0  0  0
   -2.5563    0.7754    1.4952 O   0  0  0  0  0  0  0  0  0  0  0  0
   -0.3081    0.7959    1.6588 N   0  0  0  0  0  0  0  0  0  0  0  0
    0.5536    0.4675    1.2466 H   0  0  0  0  0  0  0  0  0  0  0  0
   -0.2229    1.7414    2.7684 C   0  0  0  0  0  0  0  0  0  0  0  0
   -0.8647    1.4081    3.5861 H   0  0  0  0  0  0  0  0  0  0  0  0
    0.8061    1.8127    3.1229 H   0  0  0  0  0  0  0  0  0  0  0  0
   -0.5602    2.7250    2.4374 H   0  0  0  0  0  0  0  0  0  0  0  0
  5  6  2  0  0  0  0
  5  7  1  0  0  0  0
  2  3  1  0  0  0  0
  2  4  1  0  0  0  0
  2  5  1  0  0  0  0
  1  2  1  0  0  0  0
 29 30  2  0  0  0  0
 29 31  1  0  0  0  0
 26 27  1  0  0  0  0
 26 28  2  0  0  0  0
 24 25  1  0  0  0  0
 24 26  1  0  0  0  0
 22 23  1  0  0  0  0
 22 24  2  0  0  0  0
 20 21  1  0  0  0  0
 20 22  1  0  0  0  0
 19 20  2  0  0  0  0
 19 28  1  0  0  0  0
 17 18  1  0  0  0  0
 17 19  1  0  0  0  0
 15 16  1  0  0  0  0
 15 17  1  0  0  0  0
 14 15  2  0  0  0  0
 14 28  1  0  0  0  0
 11 12  1  0  0  0  0
 11 13  1  0  0  0  0
 11 14  1  0  0  0  0
  9 10  1  0  0  0  0
  9 11  1  0  0  0  0
  9 29  1  0  0  0  0
  7  8  1  0  0  0  0
  7  9  1  0  0  0  0
 33 34  1  0  0  0  0
 33 35  1  0  0  0  0
 33 36  1  0  0  0  0
 31 32  1  0  0  0  0
 31 33  1  0  0  0  0
M  END
$$$$
default_name
  -OEChem-12212115393D

 36 37  0     1  0  0  0  0  0999 V2000
   -4.0843   -4.0736    1.2944 H   0  0  0  0  0  0  0  0  0  0  0  0
   -4.0342   -3.2816    0.5484 C   0  0  0  0  0  0  0  0  0  0  0  0
   -4.8842   -2.6126    0.6694 H   0  0  0  0  0  0  0  0  0  0  0  0
   -4.0433   -3.7186   -0.4486 H   0  0  0  0  0  0  0  0  0  0  0  0
   -2.7532   -2.5046    0.7444 C   0  0  0  0  0  0  0  0  0  0  0  0
   -1.9803   -2.8096    1.6434 O   0  0  0  0  0  0  0  0  0  0  0  0
   -2.5332   -1.4966   -0.0966 N   0  0  0  0  0  0  0  0  0  0  0  0
   -3.2312   -1.2816   -0.7936 H   0  0  0  0  0  0  0  0  0  0  0  0
   -1.3593   -0.6196   -0.0536 C   0  0  1  0  0  0  0  0  0  0  0  0
   -0.4722   -1.2314    0.1150 H   0  0  0  0  0  0  0  0  0  0  0  0
   -1.2010    0.0915   -1.4068 C   0  0  0  0  0  0  0  0  0  0  0  0
   -0.3109    0.7220   -1.3707 H   0  0  0  0  0  0  0  0  0  0  0  0
   -1.0403   -0.6630   -2.1788 H   0  0  0  0  0  0  0  0  0  0  0  0
   -2.3602    0.9492   -1.8149 C   0  0  0  0  0  0  0  0  0  0  0  0
   -2.5281    2.2509   -1.4907 C   0  0  0  0  0  0  0  0  0  0  0  0
   -1.8455    2.8266   -0.8753 H   0  0  0  0  0  0  0  0  0  0  0  0
   -3.6827    2.7303   -2.0778 N   0  0  0  0  0  0  0  0  0  0  0  0
   -4.0104    3.6790   -1.9689 H   0  0  0  0  0  0  0  0  0  0  0  0
   -4.3115    1.7595   -2.8280 C   0  0  0  0  0  0  0  0  0  0  0  0
   -5.4695    1.7600   -3.6188 C   0  0  0  0  0  0  0  0  0  0  0  0
   -6.0628    2.6569   -3.7201 H   0  0  0  0  0  0  0  0  0  0  0  0
   -5.8480    0.5769   -4.2761 C   0  0  0  0  0  0  0  0  0  0  0  0
   -6.7387    0.5582   -4.8895 H   0  0  0  0  0  0  0  0  0  0  0  0
   -5.0698   -0.5859   -4.1298 C   0  0  0  0  0  0  0  0  0  0  0  0
   -5.3693   -1.4962   -4.6306 H   0  0  0  0  0  0  0  0  0  0  0  0
   -3.9089   -0.5755   -3.3308 C   0  0  0  0  0  0  0  0  0  0  0  0
   -3.3275   -1.4793   -3.2162 H   0  0  0  0  0  0  0  0  0  0  0  0
   -3.4985    0.5984   -2.6626 C   0  0  0  0  0  0  0  0  0  0  0  0
   -1.4569    0.3824    1.1072 C   0  0  0  0  0  0  0  0  0  0  0  0
   -2.5315    0.5672    1.6770 O   0  0  0  0  0  0  0  0  0  0  0  0
   -0.3363    1.0291    1.4551 N   0  0  0  0  0  0  0  0  0  0  0  0
    0.4919    0.8607    0.9019 H   0  0  0  0  0  0  0  0  0  0  0  0
   -0.2548    2.0095    2.5342 C   0  0  0  0  0  0  0  0  0  0  0  0
   -0.6725    1.5853    3.4493 H   0  0  0  0  0  0  0  0  0  0  0  0
    0.7846    2.2910    2.7082 H   0  0  0  0  0  0  0  0  0  0  0  0
   -0.8296    2.8974    2.2659 H   0  0  0  0  0  0  0  0  0  0  0  0
  5  6  2  0  0  0  0
  5  7  1  0  0  0  0
  2  3  1  0  0  0  0
  2  4  1  0  0  0  0
  2  5  1  0  0  0  0
  1  2  1  0  0  0  0
 29 30  2  0  0  0  0
 29 31  1  0  0  0  0
 26 27  1  0  0  0  0
 26 28  2  0  0  0  0
 24 25  1  0  0  0  0
 24 26  1  0  0  0  0
 22 23  1  0  0  0  0
 22 24  2  0  0  0  0
 20 21  1  0  0  0  0
 20 22  1  0  0  0  0
 19 20  2  0  0  0  0
 19 28  1  0  0  0  0
 17 18  1  0  0  0  0
 17 19  1  0  0  0  0
 15 16  1  0  0  0  0
 15 17  1  0  0  0  0
 14 15  2  0  0  0  0
 14 28  1  0  0  0  0
 11 12  1  0  0  0  0
 11 13  1  0  0  0  0
 11 14  1  0  0  0  0
  9 10  1  0  0  0  0
  9 11  1  0  0  0  0
  9 29  1  0  0  0  0
  7  8  1  0  0  0  0
  7  9  1  0  0  0  0
 33 34  1  0  0  0  0
 33 35  1  0  0  0  0
 33 36  1  0  0  0  0
 31 32  1  0  0  0  0
 31 33  1  0  0  0  0
M  END
$$$$
default_name
  -OEChem-12212115393D

 36 37  0     1  0  0  0  0  0999 V2000
   -4.0843   -4.0736    1.2944 H   0  0  0  0  0  0  0  0  0  0  0  0
   -4.0342   -3.2816    0.5484 C   0  0  0  0  0  0  0  0  0  0  0  0
   -4.8842   -2.6126    0.6694 H   0  0  0  0  0  0  0  0  0  0  0  0
   -4.0433   -3.7186   -0.4486 H   0  0  0  0  0  0  0  0  0  0  0  0
   -2.7532   -2.5046    0.7444 C   0  0  0  0  0  0  0  0  0  0  0  0
   -1.9803   -2.8096    1.6434 O   0  0  0  0  0  0  0  0  0  0  0  0
   -2.5332   -1.4966   -0.0966 N   0  0  0  0  0  0  0  0  0  0  0  0
   -3.2312   -1.2816   -0.7936 H   0  0  0  0  0  0  0  0  0  0  0  0
   -1.3593   -0.6196   -0.0536 C   0  0  1  0  0  0  0  0  0  0  0  0
   -0.4622   -1.2317   -0.1545 H   0  0  0  0  0  0  0  0  0  0  0  0
   -1.4074    0.3593   -1.2373 C   0  0  0  0  0  0  0  0  0  0  0  0
   -0.5169    0.9899   -1.2085 H   0  0  0  0  0  0  0  0  0  0  0  0
   -1.3753   -0.2152   -2.1646 H   0  0  0  0  0  0  0  0  0  0  0  0
   -2.6084    1.2549   -1.2747 C   0  0  0  0  0  0  0  0  0  0  0  0
   -2.7124    2.4571   -0.6650 C   0  0  0  0  0  0  0  0  0  0  0  0
   -1.9374    2.9094   -0.0561 H   0  0  0  0  0  0  0  0  0  0  0  0
   -3.9401    3.0198   -0.9547 N   0  0  0  0  0  0  0  0  0  0  0  0
   -4.2386    3.9173   -0.6019 H   0  0  0  0  0  0  0  0  0  0  0  0
   -4.6864    2.2102   -1.7843 C   0  0  0  0  0  0  0  0  0  0  0  0
   -5.9533    2.3465   -2.3697 C   0  0  0  0  0  0  0  0  0  0  0  0
   -6.5473    3.2304   -2.1897 H   0  0  0  0  0  0  0  0  0  0  0  0
   -6.4399    1.3161   -3.1922 C   0  0  0  0  0  0  0  0  0  0  0  0
   -7.4153    1.4032   -3.6514 H   0  0  0  0  0  0  0  0  0  0  0  0
   -5.6585    0.1670   -3.4125 C   0  0  0  0  0  0  0  0  0  0  0  0
   -6.0402   -0.6271   -4.0393 H   0  0  0  0  0  0  0  0  0  0  0  0
   -4.3873    0.0399   -2.8173 C   0  0  0  0  0  0  0  0  0  0  0  0
   -3.8031   -0.8539   -2.9840 H   0  0  0  0  0  0  0  0  0  0  0  0
   -3.8677    1.0598   -1.9911 C   0  0  0  0  0  0  0  0  0  0  0  0
   -1.2663    0.1182    1.2910 C   0  0  0  0  0  0  0  0  0  0  0  0
   -2.1178   -0.0674    2.1594 O   0  0  0  0  0  0  0  0  0  0  0  0
   -0.2341    0.9553    1.4612 N   0  0  0  0  0  0  0  0  0  0  0  0
    0.3906    1.0927    0.6795 H   0  0  0  0  0  0  0  0  0  0  0  0
    0.0033    1.7306    2.6756 C   0  0  0  0  0  0  0  0  0  0  0  0
   -0.0143    1.0693    3.5440 H   0  0  0  0  0  0  0  0  0  0  0  0
    0.9725    2.2281    2.6201 H   0  0  0  0  0  0  0  0  0  0  0  0
   -0.7816    2.4801    2.7904 H   0  0  0  0  0  0  0  0  0  0  0  0
  5  6  2  0  0  0  0
  5  7  1  0  0  0  0
  2  3  1  0  0  0  0
  2  4  1  0  0  0  0
  2  5  1  0  0  0  0
  1  2  1  0  0  0  0
 29 30  2  0  0  0  0
 29 31  1  0  0  0  0
 26 27  1  0  0  0  0
 26 28  2  0  0  0  0
 24 25  1  0  0  0  0
 24 26  1  0  0  0  0
 22 23  1  0  0  0  0
 22 24  2  0  0  0  0
 20 21  1  0  0  0  0
 20 22  1  0  0  0  0
 19 20  2  0  0  0  0
 19 28  1  0  0  0  0
 17 18  1  0  0  0  0
 17 19  1  0  0  0  0
 15 16  1  0  0  0  0
 15 17  1  0  0  0  0
 14 15  2  0  0  0  0
 14 28  1  0  0  0  0
 11 12  1  0  0  0  0
 11 13  1  0  0  0  0
 11 14  1  0  0  0  0
  9 10  1  0  0  0  0
  9 11  1  0  0  0  0
  9 29  1  0  0  0  0
  7  8  1  0  0  0  0
  7  9  1  0  0  0  0
 33 34  1  0  0  0  0
 33 35  1  0  0  0  0
 33 36  1  0  0  0  0
 31 32  1  0  0  0  0
 31 33  1  0  0  0  0
M  END
$$$$
default_name
  -OEChem-12212115393D

 36 37  0     1  0  0  0  0  0999 V2000
   -4.0843   -4.0736    1.2944 H   0  0  0  0  0  0  0  0  0  0  0  0
   -4.0342   -3.2816    0.5484 C   0  0  0  0  0  0  0  0  0  0  0  0
   -4.8842   -2.6126    0.6694 H   0  0  0  0  0  0  0  0  0  0  0  0
   -4.0433   -3.7186   -0.4486 H   0  0  0  0  0  0  0  0  0  0  0  0
   -2.7532   -2.5046    0.7444 C   0  0  0  0  0  0  0  0  0  0  0  0
   -1.9803   -2.8096    1.6434 O   0  0  0  0  0  0  0  0  0  0  0  0
   -2.5332   -1.4966   -0.0966 N   0  0  0  0  0  0  0  0  0  0  0  0
   -3.2312   -1.2816   -0.7936 H   0  0  0  0  0  0  0  0  0  0  0  0
   -1.3593   -0.6196   -0.0536 C   0  0  1  0  0  0  0  0  0  0  0  0
   -0.4622   -1.2317   -0.1545 H   0  0  0  0  0  0  0  0  0  0  0  0
   -1.4074    0.3593   -1.2373 C   0  0  0  0  0  0  0  0  0  0  0  0
   -0.5169    0.9899   -1.2085 H   0  0  0  0  0  0  0  0  0  0  0  0
   -1.3753   -0.2152   -2.1646 H   0  0  0  0  0  0  0  0  0  0  0  0
   -2.6084    1.2549   -1.2747 C   0  0  0  0  0  0  0  0  0  0  0  0
   -2.7124    2.4571   -0.6650 C   0  0  0  0  0  0  0  0  0  0  0  0
   -1.9374    2.9094   -0.0561 H   0  0  0  0  0  0  0  0  0  0  0  0
   -3.9401    3.0198   -0.9547 N   0  0  0  0  0  0  0  0  0  0  0  0
   -4.2386    3.9173   -0.6019 H   0  0  0  0  0  0  0  0  0  0  0  0
   -4.6864    2.2102   -1.7843 C   0  0  0  0  0  0  0  0  0  0  0  0
   -5.9533    2.3465   -2.3697 C   0  0  0  0  0  0  0  0  0  0  0  0
   -6.5473    3.2304   -2.1897 H   0  0  0  0  0  0  0  0  0  0  0  0
   -6.4399    1.3161   -3.1922 C   0  0  0  0  0  0  0  0  0  0  0  0
   -7.4153    1.4032   -3.6514 H   0  0  0  0  0  0  0  0  0  0  0  0
   -5.6585    0.1670   -3.4125 C   0  0  0  0  0  0  0  0  0  0  0  0
   -6.0402   -0.6271   -4.0393 H   0  0  0  0  0  0  0  0  0  0  0  0
   -4.3873    0.0399   -2.8173 C   0  0  0  0  0  0  0  0  0  0  0  0
   -3.8031   -0.8539   -2.9840 H   0  0  0  0  0  0  0  0  0  0  0  0
   -3.8677    1.0598   -1.9911 C   0  0  0  0  0  0  0  0  0  0  0  0
   -1.2663    0.1182    1.2910 C   0  0  0  0  0  0  0  0  0  0  0  0
   -1.9375   -0.2573    2.2512 O   0  0  0  0  0  0  0  0  0  0  0  0
   -0.4365    1.1679    1.3585 N   0  0  0  0  0  0  0  0  0  0  0  0
    0.0375    1.4448    0.5106 H   0  0  0  0  0  0  0  0  0  0  0  0
   -0.2288    1.9753    2.5574 C   0  0  0  0  0  0  0  0  0  0  0  0
    0.0128    1.3262    3.4011 H   0  0  0  0  0  0  0  0  0  0  0  0
    0.5883    2.6803    2.3986 H   0  0  0  0  0  0  0  0  0  0  0  0
   -1.1415    2.5264    2.7898 H   0  0  0  0  0  0  0  0  0  0  0  0
  5  6  2  0  0  0  0
  5  7  1  0  0  0  0
  2  3  1  0  0  0  0
  2  4  1  0  0  0  0
  2  5  1  0  0  0  0
  1  2  1  0  0  0  0
 29 30  2  0  0  0  0
 29 31  1  0  0  0  0
 26 27  1  0  0  0  0
 26 28  2  0  0  0  0
 24 25  1  0  0  0  0
 24 26  1  0  0  0  0
 22 23  1  0  0  0  0
 22 24  2  0  0  0  0
 20 21  1  0  0  0  0
 20 22  1  0  0  0  0
 19 20  2  0  0  0  0
 19 28  1  0  0  0  0
 17 18  1  0  0  0  0
 17 19  1  0  0  0  0
 15 16  1  0  0  0  0
 15 17  1  0  0  0  0
 14 15  2  0  0  0  0
 14 28  1  0  0  0  0
 11 12  1  0  0  0  0
 11 13  1  0  0  0  0
 11 14  1  0  0  0  0
  9 10  1  0  0  0  0
  9 11  1  0  0  0  0
  9 29  1  0  0  0  0
  7  8  1  0  0  0  0
  7  9  1  0  0  0  0
 33 34  1  0  0  0  0
 33 35  1  0  0  0  0
 33 36  1  0  0  0  0
 31 32  1  0  0  0  0
 31 33  1  0  0  0  0
M  END
$$$$
default_name
  -OEChem-12212115393D

 36 37  0     1  0  0  0  0  0999 V2000
   -4.0843   -4.0736    1.2944 H   0  0  0  0  0  0  0  0  0  0  0  0
   -4.0342   -3.2816    0.5484 C   0  0  0  0  0  0  0  0  0  0  0  0
   -4.8842   -2.6126    0.6694 H   0  0  0  0  0  0  0  0  0  0  0  0
   -4.0433   -3.7186   -0.4486 H   0  0  0  0  0  0  0  0  0  0  0  0
   -2.7532   -2.5046    0.7444 C   0  0  0  0  0  0  0  0  0  0  0  0
   -1.9803   -2.8096    1.6434 O   0  0  0  0  0  0  0  0  0  0  0  0
   -2.5332   -1.4966   -0.0966 N   0  0  0  0  0  0  0  0  0  0  0  0
   -3.2312   -1.2816   -0.7936 H   0  0  0  0  0  0  0  0  0  0  0  0
   -1.3593   -0.6196   -0.0536 C   0  0  1  0  0  0  0  0  0  0  0  0
   -0.4622   -1.2317   -0.1545 H   0  0  0  0  0  0  0  0  0  0  0  0
   -1.4074    0.3593   -1.2373 C   0  0  0  0  0  0  0  0  0  0  0  0
   -0.5169    0.9899   -1.2085 H   0  0  0  0  0  0  0  0  0  0  0  0
   -1.3753   -0.2152   -2.1646 H   0  0  0  0  0  0  0  0  0  0  0  0
   -2.6084    1.2549   -1.2747 C   0  0  0  0  0  0  0  0  0  0  0  0
   -2.7124    2.4571   -0.6650 C   0  0  0  0  0  0  0  0  0  0  0  0
   -1.9374    2.9094   -0.0561 H   0  0  0  0  0  0  0  0  0  0  0  0
   -3.9401    3.0198   -0.9547 N   0  0  0  0  0  0  0  0  0  0  0  0
   -4.2386    3.9173   -0.6019 H   0  0  0  0  0  0  0  0  0  0  0  0
   -4.6864    2.2102   -1.7843 C   0  0  0  0  0  0  0  0  0  0  0  0
   -5.9533    2.3465   -2.3697 C   0  0  0  0  0  0  0  0  0  0  0  0
   -6.5473    3.2304   -2.1897 H   0  0  0  0  0  0  0  0  0  0  0  0
   -6.4399    1.3161   -3.1922 C   0  0  0  0  0  0  0  0  0  0  0  0
   -7.4153    1.4032   -3.6514 H   0  0  0  0  0  0  0  0  0  0  0  0
   -5.6585    0.1670   -3.4125 C   0  0  0  0  0  0  0  0  0  0  0  0
   -6.0402   -0.6271   -4.0393 H   0  0  0  0  0  0  0  0  0  0  0  0
   -4.3873    0.0399   -2.8173 C   0  0  0  0  0  0  0  0  0  0  0  0
   -3.8031   -0.8539   -2.9840 H   0  0  0  0  0  0  0  0  0  0  0  0
   -3.8677    1.0598   -1.9911 C   0  0  0  0  0  0  0  0  0  0  0  0
   -1.2663    0.1182    1.2910 C   0  0  0  0  0  0  0  0  0  0  0  0
   -1.7090   -0.4015    2.3145 O   0  0  0  0  0  0  0  0  0  0  0  0
   -0.6928    1.3291    1.2878 N   0  0  0  0  0  0  0  0  0  0  0  0
   -0.4043    1.7077    0.3969 H   0  0  0  0  0  0  0  0  0  0  0  0
   -0.5231    2.1610    2.4759 C   0  0  0  0  0  0  0  0  0  0  0  0
   -0.0370    1.5826    3.2638 H   0  0  0  0  0  0  0  0  0  0  0  0
    0.0873    3.0335    2.2393 H   0  0  0  0  0  0  0  0  0  0  0  0
   -1.4998    2.4896    2.8348 H   0  0  0  0  0  0  0  0  0  0  0  0
  5  6  2  0  0  0  0
  5  7  1  0  0  0  0
  2  3  1  0  0  0  0
  2  4  1  0  0  0  0
  2  5  1  0  0  0  0
  1  2  1  0  0  0  0
 29 30  2  0  0  0  0
 29 31  1  0  0  0  0
 26 27  1  0  0  0  0
 26 28  2  0  0  0  0
 24 25  1  0  0  0  0
 24 26  1  0  0  0  0
 22 23  1  0  0  0  0
 22 24  2  0  0  0  0
 20 21  1  0  0  0  0
 20 22  1  0  0  0  0
 19 20  2  0  0  0  0
 19 28  1  0  0  0  0
 17 18  1  0  0  0  0
 17 19  1  0  0  0  0
 15 16  1  0  0  0  0
 15 17  1  0  0  0  0
 14 15  2  0  0  0  0
 14 28  1  0  0  0  0
 11 12  1  0  0  0  0
 11 13  1  0  0  0  0
 11 14  1  0  0  0  0
  9 10  1  0  0  0  0
  9 11  1  0  0  0  0
  9 29  1  0  0  0  0
  7  8  1  0  0  0  0
  7  9  1  0  0  0  0
 33 34  1  0  0  0  0
 33 35  1  0  0  0  0
 33 36  1  0  0  0  0
 31 32  1  0  0  0  0
 31 33  1  0  0  0  0
M  END
$$$$
default_name
  -OEChem-12212115393D

 36 37  0     1  0  0  0  0  0999 V2000
   -4.0843   -4.0736    1.2944 H   0  0  0  0  0  0  0  0  0  0  0  0
   -4.0342   -3.2816    0.5484 C   0  0  0  0  0  0  0  0  0  0  0  0
   -4.8842   -2.6126    0.6694 H   0  0  0  0  0  0  0  0  0  0  0  0
   -4.0433   -3.7186   -0.4486 H   0  0  0  0  0  0  0  0  0  0  0  0
   -2.7532   -2.5046    0.7444 C   0  0  0  0  0  0  0  0  0  0  0  0
   -1.9803   -2.8096    1.6434 O   0  0  0  0  0  0  0  0  0  0  0  0
   -2.5332   -1.4966   -0.0966 N   0  0  0  0  0  0  0  0  0  0  0  0
   -3.2312   -1.2816   -0.7936 H   0  0  0  0  0  0  0  0  0  0  0  0
   -1.3593   -0.6196   -0.0536 C   0  0  1  0  0  0  0  0  0  0  0  0
   -0.4622   -1.2317   -0.1545 H   0  0  0  0  0  0  0  0  0  0  0  0
   -1.4074    0.3593   -1.2373 C   0  0  0  0  0  0  0  0  0  0  0  0
   -0.5169    0.9899   -1.2085 H   0  0  0  0  0  0  0  0  0  0  0  0
   -1.3753   -0.2152   -2.1646 H   0  0  0  0  0  0  0  0  0  0  0  0
   -2.6084    1.2549   -1.2747 C   0  0  0  0  0  0  0  0  0  0  0  0
   -2.7124    2.4571   -0.6650 C   0  0  0  0  0  0  0  0  0  0  0  0
   -1.9374    2.9094   -0.0561 H   0  0  0  0  0  0  0  0  0  0  0  0
   -3.9401    3.0198   -0.9547 N   0  0  0  0  0  0  0  0  0  0  0  0
   -4.2386    3.9173   -0.6019 H   0  0  0  0  0  0  0  0  0  0  0  0
   -4.6864    2.2102   -1.7843 C   0  0  0  0  0  0  0  0  0  0  0  0
   -5.9533    2.3465   -2.3697 C   0  0  0  0  0  0  0  0  0  0  0  0
   -6.5473    3.2304   -2.1897 H   0  0  0  0  0  0  0  0  0  0  0  0
   -6.4399    1.3161   -3.1922 C   0  0  0  0  0  0  0  0  0  0  0  0
   -7.4153    1.4032   -3.6514 H   0  0  0  0  0  0  0  0  0  0  0  0
   -5.6585    0.1670   -3.4125 C   0  0  0  0  0  0  0  0  0  0  0  0
   -6.0402   -0.6271   -4.0393 H   0  0  0  0  0  0  0  0  0  0  0  0
   -4.3873    0.0399   -2.8173 C   0  0  0  0  0  0  0  0  0  0  0  0
   -3.8031   -0.8539   -2.9840 H   0  0  0  0  0  0  0  0  0  0  0  0
   -3.8677    1.0598   -1.9911 C   0  0  0  0  0  0  0  0  0  0  0  0
   -1.2663    0.1182    1.2910 C   0  0  0  0  0  0  0  0  0  0  0  0
   -1.4477   -0.4899    2.3450 O   0  0  0  0  0  0  0  0  0  0  0  0
   -0.9857    1.4278    1.2539 N   0  0  0  0  0  0  0  0  0  0  0  0
   -0.9047    1.8633    0.3461 H   0  0  0  0  0  0  0  0  0  0  0  0
   -0.8595    2.2749    2.4366 C   0  0  0  0  0  0  0  0  0  0  0  0
   -0.1602    1.8212    3.1414 H   0  0  0  0  0  0  0  0  0  0  0  0
   -0.4965    3.2637    2.1534 H   0  0  0  0  0  0  0  0  0  0  0  0
   -1.8320    2.3723    2.9221 H   0  0  0  0  0  0  0  0  0  0  0  0
  5  6  2  0  0  0  0
  5  7  1  0  0  0  0
  2  3  1  0  0  0  0
  2  4  1  0  0  0  0
  2  5  1  0  0  0  0
  1  2  1  0  0  0  0
 29 30  2  0  0  0  0
 29 31  1  0  0  0  0
 26 27  1  0  0  0  0
 26 28  2  0  0  0  0
 24 25  1  0  0  0  0
 24 26  1  0  0  0  0
 22 23  1  0  0  0  0
 22 24  2  0  0  0  0
 20 21  1  0  0  0  0
 20 22  1  0  0  0  0
 19 20  2  0  0  0  0
 19 28  1  0  0  0  0
 17 18  1  0  0  0  0
 17 19  1  0  0  0  0
 15 16  1  0  0  0  0
 15 17  1  0  0  0  0
 14 15  2  0  0  0  0
 14 28  1  0  0  0  0
 11 12  1  0  0  0  0
 11 13  1  0  0  0  0
 11 14  1  0  0  0  0
  9 10  1  0  0  0  0
  9 11  1  0  0  0  0
  9 29  1  0  0  0  0
  7  8  1  0  0  0  0
  7  9  1  0  0  0  0
 33 34  1  0  0  0  0
 33 35  1  0  0  0  0
 33 36  1  0  0  0  0
 31 32  1  0  0  0  0
 31 33  1  0  0  0  0
M  END
$$$$
default_name
  -OEChem-12212115393D

 36 37  0     1  0  0  0  0  0999 V2000
   -4.0843   -4.0736    1.2944 H   0  0  0  0  0  0  0  0  0  0  0  0
   -4.0342   -3.2816    0.5484 C   0  0  0  0  0  0  0  0  0  0  0  0
   -4.8842   -2.6126    0.6694 H   0  0  0  0  0  0  0  0  0  0  0  0
   -4.0433   -3.7186   -0.4486 H   0  0  0  0  0  0  0  0  0  0  0  0
   -2.7532   -2.5046    0.7444 C   0  0  0  0  0  0  0  0  0  0  0  0
   -1.9803   -2.8096    1.6434 O   0  0  0  0  0  0  0  0  0  0  0  0
   -2.5332   -1.4966   -0.0966 N   0  0  0  0  0  0  0  0  0  0  0  0
   -3.2312   -1.2816   -0.7936 H   0  0  0  0  0  0  0  0  0  0  0  0
   -1.3593   -0.6196   -0.0536 C   0  0  1  0  0  0  0  0  0  0  0  0
   -0.4622   -1.2317   -0.1545 H   0  0  0  0  0  0  0  0  0  0  0  0
   -1.4074    0.3593   -1.2373 C   0  0  0  0  0  0  0  0  0  0  0  0
   -0.5169    0.9899   -1.2085 H   0  0  0  0  0  0  0  0  0  0  0  0
   -1.3753   -0.2152   -2.1646 H   0  0  0  0  0  0  0  0  0  0  0  0
   -2.6084    1.2549   -1.2747 C   0  0  0  0  0  0  0  0  0  0  0  0
   -2.7124    2.4571   -0.6650 C   0  0  0  0  0  0  0  0  0  0  0  0
   -1.9374    2.9094   -0.0561 H   0  0  0  0  0  0  0  0  0  0  0  0
   -3.9401    3.0198   -0.9547 N   0  0  0  0  0  0  0  0  0  0  0  0
   -4.2386    3.9173   -0.6019 H   0  0  0  0  0  0  0  0  0  0  0  0
   -4.6864    2.2102   -1.7843 C   0  0  0  0  0  0  0  0  0  0  0  0
   -5.9533    2.3465   -2.3697 C   0  0  0  0  0  0  0  0  0  0  0  0
   -6.5473    3.2304   -2.1897 H   0  0  0  0  0  0  0  0  0  0  0  0
   -6.4399    1.3161   -3.1922 C   0  0  0  0  0  0  0  0  0  0  0  0
   -7.4153    1.4032   -3.6514 H   0  0  0  0  0  0  0  0  0  0  0  0
   -5.6585    0.1670   -3.4125 C   0  0  0  0  0  0  0  0  0  0  0  0
   -6.0402   -0.6271   -4.0393 H   0  0  0  0  0  0  0  0  0  0  0  0
   -4.3873    0.0399   -2.8173 C   0  0  0  0  0  0  0  0  0  0  0  0
   -3.8031   -0.8539   -2.9840 H   0  0  0  0  0  0  0  0  0  0  0  0
   -3.8677    1.0598   -1.9911 C   0  0  0  0  0  0  0  0  0  0  0  0
   -1.2663    0.1182    1.2910 C   0  0  0  0  0  0  0  0  0  0  0  0
   -1.1715   -0.5166    2.3406 O   0  0  0  0  0  0  0  0  0  0  0  0
   -1.2952    1.4573    1.2590 N   0  0  0  0  0  0  0  0  0  0  0  0
   -1.4296    1.9011    0.3617 H   0  0  0  0  0  0  0  0  0  0  0  0
   -1.2152    2.3094    2.4423 C   0  0  0  0  0  0  0  0  0  0  0  0
   -0.3484    2.0257    3.0422 H   0  0  0  0  0  0  0  0  0  0  0  0
   -1.1232    3.3552    2.1465 H   0  0  0  0  0  0  0  0  0  0  0  0
   -2.1154    2.1824    3.0459 H   0  0  0  0  0  0  0  0  0  0  0  0
  5  6  2  0  0  0  0
  5  7  1  0  0  0  0
  2  3  1  0  0  0  0
  2  4  1  0  0  0  0
  2  5  1  0  0  0  0
  1  2  1  0  0  0  0
 29 30  2  0  0  0  0
 29 31  1  0  0  0  0
 26 27  1  0  0  0  0
 26 28  2  0  0  0  0
 24 25  1  0  0  0  0
 24 26  1  0  0  0  0
 22 23  1  0  0  0  0
 22 24  2  0  0  0  0
 20 21  1  0  0  0  0
 20 22  1  0  0  0  0
 19 20  2  0  0  0  0
 19 28  1  0  0  0  0
 17 18  1  0  0  0  0
 17 19  1  0  0  0  0
 15 16  1  0  0  0  0
 15 17  1  0  0  0  0
 14 15  2  0  0  0  0
 14 28  1  0  0  0  0
 11 12  1  0  0  0  0
 11 13  1  0  0  0  0
 11 14  1  0  0  0  0
  9 10  1  0  0  0  0
  9 11  1  0  0  0  0
  9 29  1  0  0  0  0
  7  8  1  0  0  0  0
  7  9  1  0  0  0  0
 33 34  1  0  0  0  0
 33 35  1  0  0  0  0
 33 36  1  0  0  0  0
 31 32  1  0  0  0  0
 31 33  1  0  0  0  0
M  END
$$$$
default_name
  -OEChem-12212115393D

 36 37  0     1  0  0  0  0  0999 V2000
   -4.0843   -4.0736    1.2944 H   0  0  0  0  0  0  0  0  0  0  0  0
   -4.0342   -3.2816    0.5484 C   0  0  0  0  0  0  0  0  0  0  0  0
   -4.8842   -2.6126    0.6694 H   0  0  0  0  0  0  0  0  0  0  0  0
   -4.0433   -3.7186   -0.4486 H   0  0  0  0  0  0  0  0  0  0  0  0
   -2.7532   -2.5046    0.7444 C   0  0  0  0  0  0  0  0  0  0  0  0
   -1.9803   -2.8096    1.6434 O   0  0  0  0  0  0  0  0  0  0  0  0
   -2.5332   -1.4966   -0.0966 N   0  0  0  0  0  0  0  0  0  0  0  0
   -3.2312   -1.2816   -0.7936 H   0  0  0  0  0  0  0  0  0  0  0  0
   -1.3593   -0.6196   -0.0536 C   0  0  1  0  0  0  0  0  0  0  0  0
   -0.4622   -1.2317   -0.1545 H   0  0  0  0  0  0  0  0  0  0  0  0
   -1.4074    0.3593   -1.2373 C   0  0  0  0  0  0  0  0  0  0  0  0
   -0.5169    0.9899   -1.2085 H   0  0  0  0  0  0  0  0  0  0  0  0
   -1.3753   -0.2152   -2.1646 H   0  0  0  0  0  0  0  0  0  0  0  0
   -2.6084    1.2549   -1.2747 C   0  0  0  0  0  0  0  0  0  0  0  0
   -2.7124    2.4571   -0.6650 C   0  0  0  0  0  0  0  0  0  0  0  0
   -1.9374    2.9094   -0.0561 H   0  0  0  0  0  0  0  0  0  0  0  0
   -3.9401    3.0198   -0.9547 N   0  0  0  0  0  0  0  0  0  0  0  0
   -4.2386    3.9173   -0.6019 H   0  0  0  0  0  0  0  0  0  0  0  0
   -4.6864    2.2102   -1.7843 C   0  0  0  0  0  0  0  0  0  0  0  0
   -5.9533    2.3465   -2.3697 C   0  0  0  0  0  0  0  0  0  0  0  0
   -6.5473    3.2304   -2.1897 H   0  0  0  0  0  0  0  0  0  0  0  0
   -6.4399    1.3161   -3.1922 C   0  0  0  0  0  0  0  0  0  0  0  0
   -7.4153    1.4032   -3.6514 H   0  0  0  0  0  0  0  0  0  0  0  0
   -5.6585    0.1670   -3.4125 C   0  0  0  0  0  0  0  0  0  0  0  0
   -6.0402   -0.6271   -4.0393 H   0  0  0  0  0  0  0  0  0  0  0  0
   -4.3873    0.0399   -2.8173 C   0  0  0  0  0  0  0  0  0  0  0  0
   -3.8031   -0.8539   -2.9840 H   0  0  0  0  0  0  0  0  0  0  0  0
   -3.8677    1.0598   -1.9911 C   0  0  0  0  0  0  0  0  0  0  0  0
   -1.2663    0.1182    1.2910 C   0  0  0  0  0  0  0  0  0  0  0  0
   -0.8993   -0.4798    2.3015 O   0  0  0  0  0  0  0  0  0  0  0  0
   -1.6002    1.4157    1.3030 N   0  0  0  0  0  0  0  0  0  0  0  0
   -1.9433    1.8184    0.4425 H   0  0  0  0  0  0  0  0  0  0  0  0
   -1.5659    2.2620    2.4925 C   0  0  0  0  0  0  0  0  0  0  0  0
   -0.5889    2.1822    2.9730 H   0  0  0  0  0  0  0  0  0  0  0  0
   -1.7501    3.3018    2.2191 H   0  0  0  0  0  0  0  0  0  0  0  0
   -2.3307    1.9328    3.1978 H   0  0  0  0  0  0  0  0  0  0  0  0
  5  6  2  0  0  0  0
  5  7  1  0  0  0  0
  2  3  1  0  0  0  0
  2  4  1  0  0  0  0
  2  5  1  0  0  0  0
  1  2  1  0  0  0  0
 29 30  2  0  0  0  0
 29 31  1  0  0  0  0
 26 27  1  0  0  0  0
 26 28  2  0  0  0  0
 24 25  1  0  0  0  0
 24 26  1  0  0  0  0
 22 23  1  0  0  0  0
 22 24  2  0  0  0  0
 20 21  1  0  0  0  0
 20 22  1  0  0  0  0
 19 20  2  0  0  0  0
 19 28  1  0  0  0  0
 17 18  1  0  0  0  0
 17 19  1  0  0  0  0
 15 16  1  0  0  0  0
 15 17  1  0  0  0  0
 14 15  2  0  0  0  0
 14 28  1  0  0  0  0
 11 12  1  0  0  0  0
 11 13  1  0  0  0  0
 11 14  1  0  0  0  0
  9 10  1  0  0  0  0
  9 11  1  0  0  0  0
  9 29  1  0  0  0  0
  7  8  1  0  0  0  0
  7  9  1  0  0  0  0
 33 34  1  0  0  0  0
 33 35  1  0  0  0  0
 33 36  1  0  0  0  0
 31 32  1  0  0  0  0
 31 33  1  0  0  0  0
M  END
$$$$
default_name
  -OEChem-12212115393D

 36 37  0     1  0  0  0  0  0999 V2000
   -4.0843   -4.0736    1.2944 H   0  0  0  0  0  0  0  0  0  0  0  0
   -4.0342   -3.2816    0.5484 C   0  0  0  0  0  0  0  0  0  0  0  0
   -4.8842   -2.6126    0.6694 H   0  0  0  0  0  0  0  0  0  0  0  0
   -4.0433   -3.7186   -0.4486 H   0  0  0  0  0  0  0  0  0  0  0  0
   -2.7532   -2.5046    0.7444 C   0  0  0  0  0  0  0  0  0  0  0  0
   -1.9803   -2.8096    1.6434 O   0  0  0  0  0  0  0  0  0  0  0  0
   -2.5332   -1.4966   -0.0966 N   0  0  0  0  0  0  0  0  0  0  0  0
   -3.2312   -1.2816   -0.7936 H   0  0  0  0  0  0  0  0  0  0  0  0
   -1.3593   -0.6196   -0.0536 C   0  0  1  0  0  0  0  0  0  0  0  0
   -0.4622   -1.2317   -0.1545 H   0  0  0  0  0  0  0  0  0  0  0  0
   -1.4074    0.3593   -1.2373 C   0  0  0  0  0  0  0  0  0  0  0  0
   -0.5169    0.9899   -1.2085 H   0  0  0  0  0  0  0  0  0  0  0  0
   -1.3753   -0.2152   -2.1646 H   0  0  0  0  0  0  0  0  0  0  0  0
   -2.6084    1.2549   -1.2747 C   0  0  0  0  0  0  0  0  0  0  0  0
   -2.7124    2.4571   -0.6650 C   0  0  0  0  0  0  0  0  0  0  0  0
   -1.9374    2.9094   -0.0561 H   0  0  0  0  0  0  0  0  0  0  0  0
   -3.9401    3.0198   -0.9547 N   0  0  0  0  0  0  0  0  0  0  0  0
   -4.2386    3.9173   -0.6019 H   0  0  0  0  0  0  0  0  0  0  0  0
   -4.6864    2.2102   -1.7843 C   0  0  0  0  0  0  0  0  0  0  0  0
   -5.9533    2.3465   -2.3697 C   0  0  0  0  0  0  0  0  0  0  0  0
   -6.5473    3.2304   -2.1897 H   0  0  0  0  0  0  0  0  0  0  0  0
   -6.4399    1.3161   -3.1922 C   0  0  0  0  0  0  0  0  0  0  0  0
   -7.4153    1.4032   -3.6514 H   0  0  0  0  0  0  0  0  0  0  0  0
   -5.6585    0.1670   -3.4125 C   0  0  0  0  0  0  0  0  0  0  0  0
   -6.0402   -0.6271   -4.0393 H   0  0  0  0  0  0  0  0  0  0  0  0
   -4.3873    0.0399   -2.8173 C   0  0  0  0  0  0  0  0  0  0  0  0
   -3.8031   -0.8539   -2.9840 H   0  0  0  0  0  0  0  0  0  0  0  0
   -3.8677    1.0598   -1.9911 C   0  0  0  0  0  0  0  0  0  0  0  0
   -1.2663    0.1182    1.2910 C   0  0  0  0  0  0  0  0  0  0  0  0
   -0.6494   -0.3820    2.2306 O   0  0  0  0  0  0  0  0  0  0  0  0
   -1.8800    1.3057    1.3827 N   0  0  0  0  0  0  0  0  0  0  0  0
   -2.4107    1.6210    0.5832 H   0  0  0  0  0  0  0  0  0  0  0  0
   -1.8876    2.1361    2.5838 C   0  0  0  0  0  0  0  0  0  0  0  0
   -0.8652    2.2799    2.9384 H   0  0  0  0  0  0  0  0  0  0  0  0
   -2.3345    3.1070    2.3664 H   0  0  0  0  0  0  0  0  0  0  0  0
   -2.4633    1.6405    3.3673 H   0  0  0  0  0  0  0  0  0  0  0  0
  5  6  2  0  0  0  0
  5  7  1  0  0  0  0
  2  3  1  0  0  0  0
  2  4  1  0  0  0  0
  2  5  1  0  0  0  0
  1  2  1  0  0  0  0
 29 30  2  0  0  0  0
 29 31  1  0  0  0  0
 26 27  1  0  0  0  0
 26 28  2  0  0  0  0
 24 25  1  0  0  0  0
 24 26  1  0  0  0  0
 22 23  1  0  0  0  0
 22 24  2  0  0  0  0
 20 21  1  0  0  0  0
 20 22  1  0  0  0  0
 19 20  2  0  0  0  0
 19 28  1  0  0  0  0
 17 18  1  0  0  0  0
 17 19  1  0  0  0  0
 15 16  1  0  0  0  0
 15 17  1  0  0  0  0
 14 15  2  0  0  0  0
 14 28  1  0  0  0  0
 11 12  1  0  0  0  0
 11 13  1  0  0  0  0
 11 14  1  0  0  0  0
  9 10  1  0  0  0  0
  9 11  1  0  0  0  0
  9 29  1  0  0  0  0
  7  8  1  0  0  0  0
  7  9  1  0  0  0  0
 33 34  1  0  0  0  0
 33 35  1  0  0  0  0
 33 36  1  0  0  0  0
 31 32  1  0  0  0  0
 31 33  1  0  0  0  0
M  END
$$$$
default_name
  -OEChem-12212115393D

 36 37  0     1  0  0  0  0  0999 V2000
   -4.0843   -4.0736    1.2944 H   0  0  0  0  0  0  0  0  0  0  0  0
   -4.0342   -3.2816    0.5484 C   0  0  0  0  0  0  0  0  0  0  0  0
   -4.8842   -2.6126    0.6694 H   0  0  0  0  0  0  0  0  0  0  0  0
   -4.0433   -3.7186   -0.4486 H   0  0  0  0  0  0  0  0  0  0  0  0
   -2.7532   -2.5046    0.7444 C   0  0  0  0  0  0  0  0  0  0  0  0
   -1.9803   -2.8096    1.6434 O   0  0  0  0  0  0  0  0  0  0  0  0
   -2.5332   -1.4966   -0.0966 N   0  0  0  0  0  0  0  0  0  0  0  0
   -3.2312   -1.2816   -0.7936 H   0  0  0  0  0  0  0  0  0  0  0  0
   -1.3593   -0.6196   -0.0536 C   0  0  1  0  0  0  0  0  0  0  0  0
   -0.4622   -1.2317   -0.1545 H   0  0  0  0  0  0  0  0  0  0  0  0
   -1.4074    0.3593   -1.2373 C   0  0  0  0  0  0  0  0  0  0  0  0
   -0.5169    0.9899   -1.2085 H   0  0  0  0  0  0  0  0  0  0  0  0
   -1.3753   -0.2152   -2.1646 H   0  0  0  0  0  0  0  0  0  0  0  0
   -2.6084    1.2549   -1.2747 C   0  0  0  0  0  0  0  0  0  0  0  0
   -2.7124    2.4571   -0.6650 C   0  0  0  0  0  0  0  0  0  0  0  0
   -1.9374    2.9094   -0.0561 H   0  0  0  0  0  0  0  0  0  0  0  0
   -3.9401    3.0198   -0.9547 N   0  0  0  0  0  0  0  0  0  0  0  0
   -4.2386    3.9173   -0.6019 H   0  0  0  0  0  0  0  0  0  0  0  0
   -4.6864    2.2102   -1.7843 C   0  0  0  0  0  0  0  0  0  0  0  0
   -5.9533    2.3465   -2.3697 C   0  0  0  0  0  0  0  0  0  0  0  0
   -6.5473    3.2304   -2.1897 H   0  0  0  0  0  0  0  0  0  0  0  0
   -6.4399    1.3161   -3.1922 C   0  0  0  0  0  0  0  0  0  0  0  0
   -7.4153    1.4032   -3.6514 H   0  0  0  0  0  0  0  0  0  0  0  0
   -5.6585    0.1670   -3.4125 C   0  0  0  0  0  0  0  0  0  0  0  0
   -6.0402   -0.6271   -4.0393 H   0  0  0  0  0  0  0  0  0  0  0  0
   -4.3873    0.0399   -2.8173 C   0  0  0  0  0  0  0  0  0  0  0  0
   -3.8031   -0.8539   -2.9840 H   0  0  0  0  0  0  0  0  0  0  0  0
   -3.8677    1.0598   -1.9911 C   0  0  0  0  0  0  0  0  0  0  0  0
   -1.2663    0.1182    1.2910 C   0  0  0  0  0  0  0  0  0  0  0  0
   -0.4391   -0.2298    2.1325 O   0  0  0  0  0  0  0  0  0  0  0  0
   -2.1154    1.1349    1.4927 N   0  0  0  0  0  0  0  0  0  0  0  0
   -2.7999    1.3222    0.7740 H   0  0  0  0  0  0  0  0  0  0  0  0
   -2.1585    1.9401    2.7101 C   0  0  0  0  0  0  0  0  0  0  0  0
   -1.1586    2.3123    2.9410 H   0  0  0  0  0  0  0  0  0  0  0  0
   -2.8366    2.7842    2.5782 H   0  0  0  0  0  0  0  0  0  0  0  0
   -2.5042    1.3255    3.5430 H   0  0  0  0  0  0  0  0  0  0  0  0
  5  6  2  0  0  0  0
  5  7  1  0  0  0  0
  2  3  1  0  0  0  0
  2  4  1  0  0  0  0
  2  5  1  0  0  0  0
  1  2  1  0  0  0  0
 29 30  2  0  0  0  0
 29 31  1  0  0  0  0
 26 27  1  0  0  0  0
 26 28  2  0  0  0  0
 24 25  1  0  0  0  0
 24 26  1  0  0  0  0
 22 23  1  0  0  0  0
 22 24  2  0  0  0  0
 20 21  1  0  0  0  0
 20 22  1  0  0  0  0
 19 20  2  0  0  0  0
 19 28  1  0  0  0  0
 17 18  1  0  0  0  0
 17 19  1  0  0  0  0
 15 16  1  0  0  0  0
 15 17  1  0  0  0  0
 14 15  2  0  0  0  0
 14 28  1  0  0  0  0
 11 12  1  0  0  0  0
 11 13  1  0  0  0  0
 11 14  1  0  0  0  0
  9 10  1  0  0  0  0
  9 11  1  0  0  0  0
  9 29  1  0  0  0  0
  7  8  1  0  0  0  0
  7  9  1  0  0  0  0
 33 34  1  0  0  0  0
 33 35  1  0  0  0  0
 33 36  1  0  0  0  0
 31 32  1  0  0  0  0
 31 33  1  0  0  0  0
M  END
$$$$
default_name
  -OEChem-12212115393D

 36 37  0     1  0  0  0  0  0999 V2000
   -4.0843   -4.0736    1.2944 H   0  0  0  0  0  0  0  0  0  0  0  0
   -4.0342   -3.2816    0.5484 C   0  0  0  0  0  0  0  0  0  0  0  0
   -4.8842   -2.6126    0.6694 H   0  0  0  0  0  0  0  0  0  0  0  0
   -4.0433   -3.7186   -0.4486 H   0  0  0  0  0  0  0  0  0  0  0  0
   -2.7532   -2.5046    0.7444 C   0  0  0  0  0  0  0  0  0  0  0  0
   -1.9803   -2.8096    1.6434 O   0  0  0  0  0  0  0  0  0  0  0  0
   -2.5332   -1.4966   -0.0966 N   0  0  0  0  0  0  0  0  0  0  0  0
   -3.2312   -1.2816   -0.7936 H   0  0  0  0  0  0  0  0  0  0  0  0
   -1.3593   -0.6196   -0.0536 C   0  0  1  0  0  0  0  0  0  0  0  0
   -0.4622   -1.2317   -0.1545 H   0  0  0  0  0  0  0  0  0  0  0  0
   -1.4074    0.3593   -1.2373 C   0  0  0  0  0  0  0  0  0  0  0  0
   -0.5169    0.9899   -1.2085 H   0  0  0  0  0  0  0  0  0  0  0  0
   -1.3753   -0.2152   -2.1646 H   0  0  0  0  0  0  0  0  0  0  0  0
   -2.6084    1.2549   -1.2747 C   0  0  0  0  0  0  0  0  0  0  0  0
   -2.7124    2.4571   -0.6650 C   0  0  0  0  0  0  0  0  0  0  0  0
   -1.9374    2.9094   -0.0561 H   0  0  0  0  0  0  0  0  0  0  0  0
   -3.9401    3.0198   -0.9547 N   0  0  0  0  0  0  0  0  0  0  0  0
   -4.2386    3.9173   -0.6019 H   0  0  0  0  0  0  0  0  0  0  0  0
   -4.6864    2.2102   -1.7843 C   0  0  0  0  0  0  0  0  0  0  0  0
   -5.9533    2.3465   -2.3697 C   0  0  0  0  0  0  0  0  0  0  0  0
   -6.5473    3.2304   -2.1897 H   0  0  0  0  0  0  0  0  0  0  0  0
   -6.4399    1.3161   -3.1922 C   0  0  0  0  0  0  0  0  0  0  0  0
   -7.4153    1.4032   -3.6514 H   0  0  0  0  0  0  0  0  0  0  0  0
   -5.6585    0.1670   -3.4125 C   0  0  0  0  0  0  0  0  0  0  0  0
   -6.0402   -0.6271   -4.0393 H   0  0  0  0  0  0  0  0  0  0  0  0
   -4.3873    0.0399   -2.8173 C   0  0  0  0  0  0  0  0  0  0  0  0
   -3.8031   -0.8539   -2.9840 H   0  0  0  0  0  0  0  0  0  0  0  0
   -3.8677    1.0598   -1.9911 C   0  0  0  0  0  0  0  0  0  0  0  0
   -1.2663    0.1182    1.2910 C   0  0  0  0  0  0  0  0  0  0  0  0
   -0.2826   -0.0336    2.0141 O   0  0  0  0  0  0  0  0  0  0  0  0
   -2.2903    0.9148    1.6255 N   0  0  0  0  0  0  0  0  0  0  0  0
   -3.0846    0.9425    1.0021 H   0  0  0  0  0  0  0  0  0  0  0  0
   -2.3601    1.6875    2.8627 C   0  0  0  0  0  0  0  0  0  0  0  0
   -1.4490    2.2771    2.9803 H   0  0  0  0  0  0  0  0  0  0  0  0
   -3.2222    2.3554    2.8402 H   0  0  0  0  0  0  0  0  0  0  0  0
   -2.4504    1.0093    3.7128 H   0  0  0  0  0  0  0  0  0  0  0  0
  5  6  2  0  0  0  0
  5  7  1  0  0  0  0
  2  3  1  0  0  0  0
  2  4  1  0  0  0  0
  2  5  1  0  0  0  0
  1  2  1  0  0  0  0
 29 30  2  0  0  0  0
 29 31  1  0  0  0  0
 26 27  1  0  0  0  0
 26 28  2  0  0  0  0
 24 25  1  0  0  0  0
 24 26  1  0  0  0  0
 22 23  1  0  0  0  0
 22 24  2  0  0  0  0
 20 21  1  0  0  0  0
 20 22  1  0  0  0  0
 19 20  2  0  0  0  0
 19 28  1  0  0  0  0
 17 18  1  0  0  0  0
 17 19  1  0  0  0  0
 15 16  1  0  0  0  0
 15 17  1  0  0  0  0
 14 15  2  0  0  0  0
 14 28  1  0  0  0  0
 11 12  1  0  0  0  0
 11 13  1  0  0  0  0
 11 14  1  0  0  0  0
  9 10  1  0  0  0  0
  9 11  1  0  0  0  0
  9 29  1  0  0  0  0
  7  8  1  0  0  0  0
  7  9  1  0  0  0  0
 33 34  1  0  0  0  0
 33 35  1  0  0  0  0
 33 36  1  0  0  0  0
 31 32  1  0  0  0  0
 31 33  1  0  0  0  0
M  END
$$$$
default_name
  -OEChem-12212115393D

 36 37  0     1  0  0  0  0  0999 V2000
   -4.0843   -4.0736    1.2944 H   0  0  0  0  0  0  0  0  0  0  0  0
   -4.0342   -3.2816    0.5484 C   0  0  0  0  0  0  0  0  0  0  0  0
   -4.8842   -2.6126    0.6694 H   0  0  0  0  0  0  0  0  0  0  0  0
   -4.0433   -3.7186   -0.4486 H   0  0  0  0  0  0  0  0  0  0  0  0
   -2.7532   -2.5046    0.7444 C   0  0  0  0  0  0  0  0  0  0  0  0
   -1.9803   -2.8096    1.6434 O   0  0  0  0  0  0  0  0  0  0  0  0
   -2.5332   -1.4966   -0.0966 N   0  0  0  0  0  0  0  0  0  0  0  0
   -3.2312   -1.2816   -0.7936 H   0  0  0  0  0  0  0  0  0  0  0  0
   -1.3593   -0.6196   -0.0536 C   0  0  1  0  0  0  0  0  0  0  0  0
   -0.4622   -1.2317   -0.1545 H   0  0  0  0  0  0  0  0  0  0  0  0
   -1.4074    0.3593   -1.2373 C   0  0  0  0  0  0  0  0  0  0  0  0
   -0.5169    0.9899   -1.2085 H   0  0  0  0  0  0  0  0  0  0  0  0
   -1.3753   -0.2152   -2.1646 H   0  0  0  0  0  0  0  0  0  0  0  0
   -2.6084    1.2549   -1.2747 C   0  0  0  0  0  0  0  0  0  0  0  0
   -2.7124    2.4571   -0.6650 C   0  0  0  0  0  0  0  0  0  0  0  0
   -1.9374    2.9094   -0.0561 H   0  0  0  0  0  0  0  0  0  0  0  0
   -3.9401    3.0198   -0.9547 N   0  0  0  0  0  0  0  0  0  0  0  0
   -4.2386    3.9173   -0.6019 H   0  0  0  0  0  0  0  0  0  0  0  0
   -4.6864    2.2102   -1.7843 C   0  0  0  0  0  0  0  0  0  0  0  0
   -5.9533    2.3465   -2.3697 C   0  0  0  0  0  0  0  0  0  0  0  0
   -6.5473    3.2304   -2.1897 H   0  0  0  0  0  0  0  0  0  0  0  0
   -6.4399    1.3161   -3.1922 C   0  0  0  0  0  0  0  0  0  0  0  0
   -7.4153    1.4032   -3.6514 H   0  0  0  0  0  0  0  0  0  0  0  0
   -5.6585    0.1670   -3.4125 C   0  0  0  0  0  0  0  0  0  0  0  0
   -6.0402   -0.6271   -4.0393 H   0  0  0  0  0  0  0  0  0  0  0  0
   -4.3873    0.0399   -2.8173 C   0  0  0  0  0  0  0  0  0  0  0  0
   -3.8031   -0.8539   -2.9840 H   0  0  0  0  0  0  0  0  0  0  0  0
   -3.8677    1.0598   -1.9911 C   0  0  0  0  0  0  0  0  0  0  0  0
   -1.2663    0.1182    1.2910 C   0  0  0  0  0  0  0  0  0  0  0  0
   -0.1906    0.1931    1.8833 O   0  0  0  0  0  0  0  0  0  0  0  0
   -2.3930    0.6605    1.7722 N   0  0  0  0  0  0  0  0  0  0  0  0
   -3.2451    0.5077    1.2518 H   0  0  0  0  0  0  0  0  0  0  0  0
   -2.4787    1.3954    3.0311 C   0  0  0  0  0  0  0  0  0  0  0  0
   -1.7166    2.1767    3.0539 H   0  0  0  0  0  0  0  0  0  0  0  0
   -3.4649    1.8498    3.1344 H   0  0  0  0  0  0  0  0  0  0  0  0
   -2.3058    0.7133    3.8652 H   0  0  0  0  0  0  0  0  0  0  0  0
  5  6  2  0  0  0  0
  5  7  1  0  0  0  0
  2  3  1  0  0  0  0
  2  4  1  0  0  0  0
  2  5  1  0  0  0  0
  1  2  1  0  0  0  0
 29 30  2  0  0  0  0
 29 31  1  0  0  0  0
 26 27  1  0  0  0  0
 26 28  2  0  0  0  0
 24 25  1  0  0  0  0
 24 26  1  0  0  0  0
 22 23  1  0  0  0  0
 22 24  2  0  0  0  0
 20 21  1  0  0  0  0
 20 22  1  0  0  0  0
 19 20  2  0  0  0  0
 19 28  1  0  0  0  0
 17 18  1  0  0  0  0
 17 19  1  0  0  0  0
 15 16  1  0  0  0  0
 15 17  1  0  0  0  0
 14 15  2  0  0  0  0
 14 28  1  0  0  0  0
 11 12  1  0  0  0  0
 11 13  1  0  0  0  0
 11 14  1  0  0  0  0
  9 10  1  0  0  0  0
  9 11  1  0  0  0  0
  9 29  1  0  0  0  0
  7  8  1  0  0  0  0
  7  9  1  0  0  0  0
 33 34  1  0  0  0  0
 33 35  1  0  0  0  0
 33 36  1  0  0  0  0
 31 32  1  0  0  0  0
 31 33  1  0  0  0  0
M  END
$$$$
default_name
  -OEChem-12212115393D

 36 37  0     1  0  0  0  0  0999 V2000
   -4.0843   -4.0736    1.2944 H   0  0  0  0  0  0  0  0  0  0  0  0
   -4.0342   -3.2816    0.5484 C   0  0  0  0  0  0  0  0  0  0  0  0
   -4.8842   -2.6126    0.6694 H   0  0  0  0  0  0  0  0  0  0  0  0
   -4.0433   -3.7186   -0.4486 H   0  0  0  0  0  0  0  0  0  0  0  0
   -2.7532   -2.5046    0.7444 C   0  0  0  0  0  0  0  0  0  0  0  0
   -1.9803   -2.8096    1.6434 O   0  0  0  0  0  0  0  0  0  0  0  0
   -2.5332   -1.4966   -0.0966 N   0  0  0  0  0  0  0  0  0  0  0  0
   -3.2312   -1.2816   -0.7936 H   0  0  0  0  0  0  0  0  0  0  0  0
   -1.3593   -0.6196   -0.0536 C   0  0  1  0  0  0  0  0  0  0  0  0
   -0.4622   -1.2317   -0.1545 H   0  0  0  0  0  0  0  0  0  0  0  0
   -1.4074    0.3593   -1.2373 C   0  0  0  0  0  0  0  0  0  0  0  0
   -0.5169    0.9899   -1.2085 H   0  0  0  0  0  0  0  0  0  0  0  0
   -1.3753   -0.2152   -2.1646 H   0  0  0  0  0  0  0  0  0  0  0  0
   -2.6084    1.2549   -1.2747 C   0  0  0  0  0  0  0  0  0  0  0  0
   -2.7124    2.4571   -0.6650 C   0  0  0  0  0  0  0  0  0  0  0  0
   -1.9374    2.9094   -0.0561 H   0  0  0  0  0  0  0  0  0  0  0  0
   -3.9401    3.0198   -0.9547 N   0  0  0  0  0  0  0  0  0  0  0  0
   -4.2386    3.9173   -0.6019 H   0  0  0  0  0  0  0  0  0  0  0  0
   -4.6864    2.2102   -1.7843 C   0  0  0  0  0  0  0  0  0  0  0  0
   -5.9533    2.3465   -2.3697 C   0  0  0  0  0  0  0  0  0  0  0  0
   -6.5473    3.2304   -2.1897 H   0  0  0  0  0  0  0  0  0  0  0  0
   -6.4399    1.3161   -3.1922 C   0  0  0  0  0  0  0  0  0  0  0  0
   -7.4153    1.4032   -3.6514 H   0  0  0  0  0  0  0  0  0  0  0  0
   -5.6585    0.1670   -3.4125 C   0  0  0  0  0  0  0  0  0  0  0  0
   -6.0402   -0.6271   -4.0393 H   0  0  0  0  0  0  0  0  0  0  0  0
   -4.3873    0.0399   -2.8173 C   0  0  0  0  0  0  0  0  0  0  0  0
   -3.8031   -0.8539   -2.9840 H   0  0  0  0  0  0  0  0  0  0  0  0
   -3.8677    1.0598   -1.9911 C   0  0  0  0  0  0  0  0  0  0  0  0
   -1.2663    0.1182    1.2910 C   0  0  0  0  0  0  0  0  0  0  0  0
   -0.1693    0.4351    1.7490 O   0  0  0  0  0  0  0  0  0  0  0  0
   -2.4164    0.3894    1.9226 N   0  0  0  0  0  0  0  0  0  0  0  0
   -3.2707    0.0474    1.5061 H   0  0  0  0  0  0  0  0  0  0  0  0
   -2.5061    1.0838    3.2040 C   0  0  0  0  0  0  0  0  0  0  0  0
   -1.9432    2.0179    3.1567 H   0  0  0  0  0  0  0  0  0  0  0  0
   -3.5483    1.3018    3.4409 H   0  0  0  0  0  0  0  0  0  0  0  0
   -2.0801    0.4579    3.9898 H   0  0  0  0  0  0  0  0  0  0  0  0
  5  6  2  0  0  0  0
  5  7  1  0  0  0  0
  2  3  1  0  0  0  0
  2  4  1  0  0  0  0
  2  5  1  0  0  0  0
  1  2  1  0  0  0  0
 29 30  2  0  0  0  0
 29 31  1  0  0  0  0
 26 27  1  0  0  0  0
 26 28  2  0  0  0  0
 24 25  1  0  0  0  0
 24 26  1  0  0  0  0
 22 23  1  0  0  0  0
 22 24  2  0  0  0  0
 20 21  1  0  0  0  0
 20 22  1  0  0  0  0
 19 20  2  0  0  0  0
 19 28  1  0  0  0  0
 17 18  1  0  0  0  0
 17 19  1  0  0  0  0
 15 16  1  0  0  0  0
 15 17  1  0  0  0  0
 14 15  2  0  0  0  0
 14 28  1  0  0  0  0
 11 12  1  0  0  0  0
 11 13  1  0  0  0  0
 11 14  1  0  0  0  0
  9 10  1  0  0  0  0
  9 11  1  0  0  0  0
  9 29  1  0  0  0  0
  7  8  1  0  0  0  0
  7  9  1  0  0  0  0
 33 34  1  0  0  0  0
 33 35  1  0  0  0  0
 33 36  1  0  0  0  0
 31 32  1  0  0  0  0
 31 33  1  0  0  0  0
M  END
$$$$
default_name
  -OEChem-12212115393D

 36 37  0     1  0  0  0  0  0999 V2000
   -4.0843   -4.0736    1.2944 H   0  0  0  0  0  0  0  0  0  0  0  0
   -4.0342   -3.2816    0.5484 C   0  0  0  0  0  0  0  0  0  0  0  0
   -4.8842   -2.6126    0.6694 H   0  0  0  0  0  0  0  0  0  0  0  0
   -4.0433   -3.7186   -0.4486 H   0  0  0  0  0  0  0  0  0  0  0  0
   -2.7532   -2.5046    0.7444 C   0  0  0  0  0  0  0  0  0  0  0  0
   -1.9803   -2.8096    1.6434 O   0  0  0  0  0  0  0  0  0  0  0  0
   -2.5332   -1.4966   -0.0966 N   0  0  0  0  0  0  0  0  0  0  0  0
   -3.2312   -1.2816   -0.7936 H   0  0  0  0  0  0  0  0  0  0  0  0
   -1.3593   -0.6196   -0.0536 C   0  0  1  0  0  0  0  0  0  0  0  0
   -0.4622   -1.2317   -0.1545 H   0  0  0  0  0  0  0  0  0  0  0  0
   -1.4074    0.3593   -1.2373 C   0  0  0  0  0  0  0  0  0  0  0  0
   -0.5169    0.9899   -1.2085 H   0  0  0  0  0  0  0  0  0  0  0  0
   -1.3753   -0.2152   -2.1646 H   0  0  0  0  0  0  0  0  0  0  0  0
   -2.6084    1.2549   -1.2747 C   0  0  0  0  0  0  0  0  0  0  0  0
   -2.7124    2.4571   -0.6650 C   0  0  0  0  0  0  0  0  0  0  0  0
   -1.9374    2.9094   -0.0561 H   0  0  0  0  0  0  0  0  0  0  0  0
   -3.9401    3.0198   -0.9547 N   0  0  0  0  0  0  0  0  0  0  0  0
   -4.2386    3.9173   -0.6019 H   0  0  0  0  0  0  0  0  0  0  0  0
   -4.6864    2.2102   -1.7843 C   0  0  0  0  0  0  0  0  0  0  0  0
   -5.9533    2.3465   -2.3697 C   0  0  0  0  0  0  0  0  0  0  0  0
   -6.5473    3.2304   -2.1897 H   0  0  0  0  0  0  0  0  0  0  0  0
   -6.4399    1.3161   -3.1922 C   0  0  0  0  0  0  0  0  0  0  0  0
   -7.4153    1.4032   -3.6514 H   0  0  0  0  0  0  0  0  0  0  0  0
   -5.6585    0.1670   -3.4125 C   0  0  0  0  0  0  0  0  0  0  0  0
   -6.0402   -0.6271   -4.0393 H   0  0  0  0  0  0  0  0  0  0  0  0
   -4.3873    0.0399   -2.8173 C   0  0  0  0  0  0  0  0  0  0  0  0
   -3.8031   -0.8539   -2.9840 H   0  0  0  0  0  0  0  0  0  0  0  0
   -3.8677    1.0598   -1.9911 C   0  0  0  0  0  0  0  0  0  0  0  0
   -1.2663    0.1182    1.2910 C   0  0  0  0  0  0  0  0  0  0  0  0
   -0.2203    0.6757    1.6205 O   0  0  0  0  0  0  0  0  0  0  0  0
   -2.3588    0.1198    2.0665 N   0  0  0  0  0  0  0  0  0  0  0  0
   -3.1596   -0.4070    1.7478 H   0  0  0  0  0  0  0  0  0  0  0  0
   -2.4406    0.7739    3.3695 C   0  0  0  0  0  0  0  0  0  0  0  0
   -2.1133    1.8117    3.2817 H   0  0  0  0  0  0  0  0  0  0  0  0
   -3.4666    0.7488    3.7387 H   0  0  0  0  0  0  0  0  0  0  0  0
   -1.7888    0.2602    4.0782 H   0  0  0  0  0  0  0  0  0  0  0  0
  5  6  2  0  0  0  0
  5  7  1  0  0  0  0
  2  3  1  0  0  0  0
  2  4  1  0  0  0  0
  2  5  1  0  0  0  0
  1  2  1  0  0  0  0
 29 30  2  0  0  0  0
 29 31  1  0  0  0  0
 26 27  1  0  0  0  0
 26 28  2  0  0  0  0
 24 25  1  0  0  0  0
 24 26  1  0  0  0  0
 22 23  1  0  0  0  0
 22 24  2  0  0  0  0
 20 21  1  0  0  0  0
 20 22  1  0  0  0  0
 19 20  2  0  0  0  0
 19 28  1  0  0  0  0
 17 18  1  0  0  0  0
 17 19  1  0  0  0  0
 15 16  1  0  0  0  0
 15 17  1  0  0  0  0
 14 15  2  0  0  0  0
 14 28  1  0  0  0  0
 11 12  1  0  0  0  0
 11 13  1  0  0  0  0
 11 14  1  0  0  0  0
  9 10  1  0  0  0  0
  9 11  1  0  0  0  0
  9 29  1  0  0  0  0
  7  8  1  0  0  0  0
  7  9  1  0  0  0  0
 33 34  1  0  0  0  0
 33 35  1  0  0  0  0
 33 36  1  0  0  0  0
 31 32  1  0  0  0  0
 31 33  1  0  0  0  0
M  END
$$$$
default_name
  -OEChem-12212115393D

 36 37  0     1  0  0  0  0  0999 V2000
   -4.0843   -4.0736    1.2944 H   0  0  0  0  0  0  0  0  0  0  0  0
   -4.0342   -3.2816    0.5484 C   0  0  0  0  0  0  0  0  0  0  0  0
   -4.8842   -2.6126    0.6694 H   0  0  0  0  0  0  0  0  0  0  0  0
   -4.0433   -3.7186   -0.4486 H   0  0  0  0  0  0  0  0  0  0  0  0
   -2.7532   -2.5046    0.7444 C   0  0  0  0  0  0  0  0  0  0  0  0
   -1.9803   -2.8096    1.6434 O   0  0  0  0  0  0  0  0  0  0  0  0
   -2.5332   -1.4966   -0.0966 N   0  0  0  0  0  0  0  0  0  0  0  0
   -3.2312   -1.2816   -0.7936 H   0  0  0  0  0  0  0  0  0  0  0  0
   -1.3593   -0.6196   -0.0536 C   0  0  1  0  0  0  0  0  0  0  0  0
   -0.4622   -1.2317   -0.1545 H   0  0  0  0  0  0  0  0  0  0  0  0
   -1.4074    0.3593   -1.2373 C   0  0  0  0  0  0  0  0  0  0  0  0
   -0.5169    0.9899   -1.2085 H   0  0  0  0  0  0  0  0  0  0  0  0
   -1.3753   -0.2152   -2.1646 H   0  0  0  0  0  0  0  0  0  0  0  0
   -2.6084    1.2549   -1.2747 C   0  0  0  0  0  0  0  0  0  0  0  0
   -2.7124    2.4571   -0.6650 C   0  0  0  0  0  0  0  0  0  0  0  0
   -1.9374    2.9094   -0.0561 H   0  0  0  0  0  0  0  0  0  0  0  0
   -3.9401    3.0198   -0.9547 N   0  0  0  0  0  0  0  0  0  0  0  0
   -4.2386    3.9173   -0.6019 H   0  0  0  0  0  0  0  0  0  0  0  0
   -4.6864    2.2102   -1.7843 C   0  0  0  0  0  0  0  0  0  0  0  0
   -5.9533    2.3465   -2.3697 C   0  0  0  0  0  0  0  0  0  0  0  0
   -6.5473    3.2304   -2.1897 H   0  0  0  0  0  0  0  0  0  0  0  0
   -6.4399    1.3161   -3.1922 C   0  0  0  0  0  0  0  0  0  0  0  0
   -7.4153    1.4032   -3.6514 H   0  0  0  0  0  0  0  0  0  0  0  0
   -5.6585    0.1670   -3.4125 C   0  0  0  0  0  0  0  0  0  0  0  0
   -6.0402   -0.6271   -4.0393 H   0  0  0  0  0  0  0  0  0  0  0  0
   -4.3873    0.0399   -2.8173 C   0  0  0  0  0  0  0  0  0  0  0  0
   -3.8031   -0.8539   -2.9840 H   0  0  0  0  0  0  0  0  0  0  0  0
   -3.8677    1.0598   -1.9911 C   0  0  0  0  0  0  0  0  0  0  0  0
   -1.2663    0.1182    1.2910 C   0  0  0  0  0  0  0  0  0  0  0  0
   -0.3399    0.8986    1.5065 O   0  0  0  0  0  0  0  0  0  0  0  0
   -2.2243   -0.1298    2.1942 N   0  0  0  0  0  0  0  0  0  0  0  0
   -2.9193   -0.8245    1.9603 H   0  0  0  0  0  0  0  0  0  0  0  0
   -2.2865    0.4869    3.5164 C   0  0  0  0  0  0  0  0  0  0  0  0
   -2.2154    1.5720    3.4203 H   0  0  0  0  0  0  0  0  0  0  0  0
   -3.2255    0.2285    4.0076 H   0  0  0  0  0  0  0  0  0  0  0  0
   -1.4516    0.1339    4.1242 H   0  0  0  0  0  0  0  0  0  0  0  0
  5  6  2  0  0  0  0
  5  7  1  0  0  0  0
  2  3  1  0  0  0  0
  2  4  1  0  0  0  0
  2  5  1  0  0  0  0
  1  2  1  0  0  0  0
 29 30  2  0  0  0  0
 29 31  1  0  0  0  0
 26 27  1  0  0  0  0
 26 28  2  0  0  0  0
 24 25  1  0  0  0  0
 24 26  1  0  0  0  0
 22 23  1  0  0  0  0
 22 24  2  0  0  0  0
 20 21  1  0  0  0  0
 20 22  1  0  0  0  0
 19 20  2  0  0  0  0
 19 28  1  0  0  0  0
 17 18  1  0  0  0  0
 17 19  1  0  0  0  0
 15 16  1  0  0  0  0
 15 17  1  0  0  0  0
 14 15  2  0  0  0  0
 14 28  1  0  0  0  0
 11 12  1  0  0  0  0
 11 13  1  0  0  0  0
 11 14  1  0  0  0  0
  9 10  1  0  0  0  0
  9 11  1  0  0  0  0
  9 29  1  0  0  0  0
  7  8  1  0  0  0  0
  7  9  1  0  0  0  0
 33 34  1  0  0  0  0
 33 35  1  0  0  0  0
 33 36  1  0  0  0  0
 31 32  1  0  0  0  0
 31 33  1  0  0  0  0
M  END
$$$$
default_name
  -OEChem-12212115393D

 36 37  0     1  0  0  0  0  0999 V2000
   -4.0843   -4.0736    1.2944 H   0  0  0  0  0  0  0  0  0  0  0  0
   -4.0342   -3.2816    0.5484 C   0  0  0  0  0  0  0  0  0  0  0  0
   -4.8842   -2.6126    0.6694 H   0  0  0  0  0  0  0  0  0  0  0  0
   -4.0433   -3.7186   -0.4486 H   0  0  0  0  0  0  0  0  0  0  0  0
   -2.7532   -2.5046    0.7444 C   0  0  0  0  0  0  0  0  0  0  0  0
   -1.9803   -2.8096    1.6434 O   0  0  0  0  0  0  0  0  0  0  0  0
   -2.5332   -1.4966   -0.0966 N   0  0  0  0  0  0  0  0  0  0  0  0
   -3.2312   -1.2816   -0.7936 H   0  0  0  0  0  0  0  0  0  0  0  0
   -1.3593   -0.6196   -0.0536 C   0  0  1  0  0  0  0  0  0  0  0  0
   -0.4622   -1.2317   -0.1545 H   0  0  0  0  0  0  0  0  0  0  0  0
   -1.4074    0.3593   -1.2373 C   0  0  0  0  0  0  0  0  0  0  0  0
   -0.5169    0.9899   -1.2085 H   0  0  0  0  0  0  0  0  0  0  0  0
   -1.3753   -0.2152   -2.1646 H   0  0  0  0  0  0  0  0  0  0  0  0
   -2.6084    1.2549   -1.2747 C   0  0  0  0  0  0  0  0  0  0  0  0
   -2.7124    2.4571   -0.6650 C   0  0  0  0  0  0  0  0  0  0  0  0
   -1.9374    2.9094   -0.0561 H   0  0  0  0  0  0  0  0  0  0  0  0
   -3.9401    3.0198   -0.9547 N   0  0  0  0  0  0  0  0  0  0  0  0
   -4.2386    3.9173   -0.6019 H   0  0  0  0  0  0  0  0  0  0  0  0
   -4.6864    2.2102   -1.7843 C   0  0  0  0  0  0  0  0  0  0  0  0
   -5.9533    2.3465   -2.3697 C   0  0  0  0  0  0  0  0  0  0  0  0
   -6.5473    3.2304   -2.1897 H   0  0  0  0  0  0  0  0  0  0  0  0
   -6.4399    1.3161   -3.1922 C   0  0  0  0  0  0  0  0  0  0  0  0
   -7.4153    1.4032   -3.6514 H   0  0  0  0  0  0  0  0  0  0  0  0
   -5.6585    0.1670   -3.4125 C   0  0  0  0  0  0  0  0  0  0  0  0
   -6.0402   -0.6271   -4.0393 H   0  0  0  0  0  0  0  0  0  0  0  0
   -4.3873    0.0399   -2.8173 C   0  0  0  0  0  0  0  0  0  0  0  0
   -3.8031   -0.8539   -2.9840 H   0  0  0  0  0  0  0  0  0  0  0  0
   -3.8677    1.0598   -1.9911 C   0  0  0  0  0  0  0  0  0  0  0  0
   -1.2663    0.1182    1.2910 C   0  0  0  0  0  0  0  0  0  0  0  0
   -0.5202    1.0886    1.4147 O   0  0  0  0  0  0  0  0  0  0  0  0
   -2.0220   -0.3424    2.2969 N   0  0  0  0  0  0  0  0  0  0  0  0
   -2.5662   -1.1767    2.1292 H   0  0  0  0  0  0  0  0  0  0  0  0
   -2.0544    0.2422    3.6347 C   0  0  0  0  0  0  0  0  0  0  0  0
   -2.2425    1.3151    3.5631 H   0  0  0  0  0  0  0  0  0  0  0  0
   -2.8413   -0.2237    4.2292 H   0  0  0  0  0  0  0  0  0  0  0  0
   -1.0916    0.0876    4.1247 H   0  0  0  0  0  0  0  0  0  0  0  0
  5  6  2  0  0  0  0
  5  7  1  0  0  0  0
  2  3  1  0  0  0  0
  2  4  1  0  0  0  0
  2  5  1  0  0  0  0
  1  2  1  0  0  0  0
 29 30  2  0  0  0  0
 29 31  1  0  0  0  0
 26 27  1  0  0  0  0
 26 28  2  0  0  0  0
 24 25  1  0  0  0  0
 24 26  1  0  0  0  0
 22 23  1  0  0  0  0
 22 24  2  0  0  0  0
 20 21  1  0  0  0  0
 20 22  1  0  0  0  0
 19 20  2  0  0  0  0
 19 28  1  0  0  0  0
 17 18  1  0  0  0  0
 17 19  1  0  0  0  0
 15 16  1  0  0  0  0
 15 17  1  0  0  0  0
 14 15  2  0  0  0  0
 14 28  1  0  0  0  0
 11 12  1  0  0  0  0
 11 13  1  0  0  0  0
 11 14  1  0  0  0  0
  9 10  1  0  0  0  0
  9 11  1  0  0  0  0
  9 29  1  0  0  0  0
  7  8  1  0  0  0  0
  7  9  1  0  0  0  0
 33 34  1  0  0  0  0
 33 35  1  0  0  0  0
 33 36  1  0  0  0  0
 31 32  1  0  0  0  0
 31 33  1  0  0  0  0
M  END
$$$$
default_name
  -OEChem-12212115393D

 36 37  0     1  0  0  0  0  0999 V2000
   -4.0843   -4.0736    1.2944 H   0  0  0  0  0  0  0  0  0  0  0  0
   -4.0342   -3.2816    0.5484 C   0  0  0  0  0  0  0  0  0  0  0  0
   -4.8842   -2.6126    0.6694 H   0  0  0  0  0  0  0  0  0  0  0  0
   -4.0433   -3.7186   -0.4486 H   0  0  0  0  0  0  0  0  0  0  0  0
   -2.7532   -2.5046    0.7444 C   0  0  0  0  0  0  0  0  0  0  0  0
   -1.9803   -2.8096    1.6434 O   0  0  0  0  0  0  0  0  0  0  0  0
   -2.5332   -1.4966   -0.0966 N   0  0  0  0  0  0  0  0  0  0  0  0
   -3.2312   -1.2816   -0.7936 H   0  0  0  0  0  0  0  0  0  0  0  0
   -1.3593   -0.6196   -0.0536 C   0  0  1  0  0  0  0  0  0  0  0  0
   -0.4622   -1.2317   -0.1545 H   0  0  0  0  0  0  0  0  0  0  0  0
   -1.4074    0.3593   -1.2373 C   0  0  0  0  0  0  0  0  0  0  0  0
   -0.5169    0.9899   -1.2085 H   0  0  0  0  0  0  0  0  0  0  0  0
   -1.3753   -0.2152   -2.1646 H   0  0  0  0  0  0  0  0  0  0  0  0
   -2.6084    1.2549   -1.2747 C   0  0  0  0  0  0  0  0  0  0  0  0
   -2.7124    2.4571   -0.6650 C   0  0  0  0  0  0  0  0  0  0  0  0
   -1.9374    2.9094   -0.0561 H   0  0  0  0  0  0  0  0  0  0  0  0
   -3.9401    3.0198   -0.9547 N   0  0  0  0  0  0  0  0  0  0  0  0
   -4.2386    3.9173   -0.6019 H   0  0  0  0  0  0  0  0  0  0  0  0
   -4.6864    2.2102   -1.7843 C   0  0  0  0  0  0  0  0  0  0  0  0
   -5.9533    2.3465   -2.3697 C   0  0  0  0  0  0  0  0  0  0  0  0
   -6.5473    3.2304   -2.1897 H   0  0  0  0  0  0  0  0  0  0  0  0
   -6.4399    1.3161   -3.1922 C   0  0  0  0  0  0  0  0  0  0  0  0
   -7.4153    1.4032   -3.6514 H   0  0  0  0  0  0  0  0  0  0  0  0
   -5.6585    0.1670   -3.4125 C   0  0  0  0  0  0  0  0  0  0  0  0
   -6.0402   -0.6271   -4.0393 H   0  0  0  0  0  0  0  0  0  0  0  0
   -4.3873    0.0399   -2.8173 C   0  0  0  0  0  0  0  0  0  0  0  0
   -3.8031   -0.8539   -2.9840 H   0  0  0  0  0  0  0  0  0  0  0  0
   -3.8677    1.0598   -1.9911 C   0  0  0  0  0  0  0  0  0  0  0  0
   -1.2663    0.1182    1.2910 C   0  0  0  0  0  0  0  0  0  0  0  0
   -0.7487    1.2327    1.3514 O   0  0  0  0  0  0  0  0  0  0  0  0
   -1.7656   -0.5036    2.3676 N   0  0  0  0  0  0  0  0  0  0  0  0
   -2.1244   -1.4395    2.2429 H   0  0  0  0  0  0  0  0  0  0  0  0
   -1.7600    0.0565    3.7162 C   0  0  0  0  0  0  0  0  0  0  0  0
   -2.1928    1.0586    3.7004 H   0  0  0  0  0  0  0  0  0  0  0  0
   -2.3403   -0.5769    4.3884 H   0  0  0  0  0  0  0  0  0  0  0  0
   -0.7334    0.1243    4.0798 H   0  0  0  0  0  0  0  0  0  0  0  0
  5  6  2  0  0  0  0
  5  7  1  0  0  0  0
  2  3  1  0  0  0  0
  2  4  1  0  0  0  0
  2  5  1  0  0  0  0
  1  2  1  0  0  0  0
 29 30  2  0  0  0  0
 29 31  1  0  0  0  0
 26 27  1  0  0  0  0
 26 28  2  0  0  0  0
 24 25  1  0  0  0  0
 24 26  1  0  0  0  0
 22 23  1  0  0  0  0
 22 24  2  0  0  0  0
 20 21  1  0  0  0  0
 20 22  1  0  0  0  0
 19 20  2  0  0  0  0
 19 28  1  0  0  0  0
 17 18  1  0  0  0  0
 17 19  1  0  0  0  0
 15 16  1  0  0  0  0
 15 17  1  0  0  0  0
 14 15  2  0  0  0  0
 14 28  1  0  0  0  0
 11 12  1  0  0  0  0
 11 13  1  0  0  0  0
 11 14  1  0  0  0  0
  9 10  1  0  0  0  0
  9 11  1  0  0  0  0
  9 29  1  0  0  0  0
  7  8  1  0  0  0  0
  7  9  1  0  0  0  0
 33 34  1  0  0  0  0
 33 35  1  0  0  0  0
 33 36  1  0  0  0  0
 31 32  1  0  0  0  0
 31 33  1  0  0  0  0
M  END
$$$$
default_name
  -OEChem-12212115393D

 36 37  0     1  0  0  0  0  0999 V2000
   -4.0843   -4.0736    1.2944 H   0  0  0  0  0  0  0  0  0  0  0  0
   -4.0342   -3.2816    0.5484 C   0  0  0  0  0  0  0  0  0  0  0  0
   -4.8842   -2.6126    0.6694 H   0  0  0  0  0  0  0  0  0  0  0  0
   -4.0433   -3.7186   -0.4486 H   0  0  0  0  0  0  0  0  0  0  0  0
   -2.7532   -2.5046    0.7444 C   0  0  0  0  0  0  0  0  0  0  0  0
   -1.9803   -2.8096    1.6434 O   0  0  0  0  0  0  0  0  0  0  0  0
   -2.5332   -1.4966   -0.0966 N   0  0  0  0  0  0  0  0  0  0  0  0
   -3.2312   -1.2816   -0.7936 H   0  0  0  0  0  0  0  0  0  0  0  0
   -1.3593   -0.6196   -0.0536 C   0  0  1  0  0  0  0  0  0  0  0  0
   -0.4622   -1.2317   -0.1545 H   0  0  0  0  0  0  0  0  0  0  0  0
   -1.4074    0.3593   -1.2373 C   0  0  0  0  0  0  0  0  0  0  0  0
   -0.5169    0.9899   -1.2085 H   0  0  0  0  0  0  0  0  0  0  0  0
   -1.3753   -0.2152   -2.1646 H   0  0  0  0  0  0  0  0  0  0  0  0
   -2.6084    1.2549   -1.2747 C   0  0  0  0  0  0  0  0  0  0  0  0
   -2.7124    2.4571   -0.6650 C   0  0  0  0  0  0  0  0  0  0  0  0
   -1.9374    2.9094   -0.0561 H   0  0  0  0  0  0  0  0  0  0  0  0
   -3.9401    3.0198   -0.9547 N   0  0  0  0  0  0  0  0  0  0  0  0
   -4.2386    3.9173   -0.6019 H   0  0  0  0  0  0  0  0  0  0  0  0
   -4.6864    2.2102   -1.7843 C   0  0  0  0  0  0  0  0  0  0  0  0
   -5.9533    2.3465   -2.3697 C   0  0  0  0  0  0  0  0  0  0  0  0
   -6.5473    3.2304   -2.1897 H   0  0  0  0  0  0  0  0  0  0  0  0
   -6.4399    1.3161   -3.1922 C   0  0  0  0  0  0  0  0  0  0  0  0
   -7.4153    1.4032   -3.6514 H   0  0  0  0  0  0  0  0  0  0  0  0
   -5.6585    0.1670   -3.4125 C   0  0  0  0  0  0  0  0  0  0  0  0
   -6.0402   -0.6271   -4.0393 H   0  0  0  0  0  0  0  0  0  0  0  0
   -4.3873    0.0399   -2.8173 C   0  0  0  0  0  0  0  0  0  0  0  0
   -3.8031   -0.8539   -2.9840 H   0  0  0  0  0  0  0  0  0  0  0  0
   -3.8677    1.0598   -1.9911 C   0  0  0  0  0  0  0  0  0  0  0  0
   -1.2663    0.1182    1.2910 C   0  0  0  0  0  0  0  0  0  0  0  0
   -1.0100    1.3212    1.3209 O   0  0  0  0  0  0  0  0  0  0  0  0
   -1.4727   -0.6023    2.4016 N   0  0  0  0  0  0  0  0  0  0  0  0
   -1.6240   -1.5951    2.2937 H   0  0  0  0  0  0  0  0  0  0  0  0
   -1.4236   -0.0574    3.7555 C   0  0  0  0  0  0  0  0  0  0  0  0
   -2.0696    0.8200    3.8228 H   0  0  0  0  0  0  0  0  0  0  0  0
   -1.7565   -0.8071    4.4744 H   0  0  0  0  0  0  0  0  0  0  0  0
   -0.4012    0.2417    3.9924 H   0  0  0  0  0  0  0  0  0  0  0  0
  5  6  2  0  0  0  0
  5  7  1  0  0  0  0
  2  3  1  0  0  0  0
  2  4  1  0  0  0  0
  2  5  1  0  0  0  0
  1  2  1  0  0  0  0
 29 30  2  0  0  0  0
 29 31  1  0  0  0  0
 26 27  1  0  0  0  0
 26 28  2  0  0  0  0
 24 25  1  0  0  0  0
 24 26  1  0  0  0  0
 22 23  1  0  0  0  0
 22 24  2  0  0  0  0
 20 21  1  0  0  0  0
 20 22  1  0  0  0  0
 19 20  2  0  0  0  0
 19 28  1  0  0  0  0
 17 18  1  0  0  0  0
 17 19  1  0  0  0  0
 15 16  1  0  0  0  0
 15 17  1  0  0  0  0
 14 15  2  0  0  0  0
 14 28  1  0  0  0  0
 11 12  1  0  0  0  0
 11 13  1  0  0  0  0
 11 14  1  0  0  0  0
  9 10  1  0  0  0  0
  9 11  1  0  0  0  0
  9 29  1  0  0  0  0
  7  8  1  0  0  0  0
  7  9  1  0  0  0  0
 33 34  1  0  0  0  0
 33 35  1  0  0  0  0
 33 36  1  0  0  0  0
 31 32  1  0  0  0  0
 31 33  1  0  0  0  0
M  END
$$$$
default_name
  -OEChem-12212115393D

 36 37  0     1  0  0  0  0  0999 V2000
   -4.0843   -4.0736    1.2944 H   0  0  0  0  0  0  0  0  0  0  0  0
   -4.0342   -3.2816    0.5484 C   0  0  0  0  0  0  0  0  0  0  0  0
   -4.8842   -2.6126    0.6694 H   0  0  0  0  0  0  0  0  0  0  0  0
   -4.0433   -3.7186   -0.4486 H   0  0  0  0  0  0  0  0  0  0  0  0
   -2.7532   -2.5046    0.7444 C   0  0  0  0  0  0  0  0  0  0  0  0
   -1.9803   -2.8096    1.6434 O   0  0  0  0  0  0  0  0  0  0  0  0
   -2.5332   -1.4966   -0.0966 N   0  0  0  0  0  0  0  0  0  0  0  0
   -3.2312   -1.2816   -0.7936 H   0  0  0  0  0  0  0  0  0  0  0  0
   -1.3593   -0.6196   -0.0536 C   0  0  1  0  0  0  0  0  0  0  0  0
   -0.4622   -1.2317   -0.1545 H   0  0  0  0  0  0  0  0  0  0  0  0
   -1.4074    0.3593   -1.2373 C   0  0  0  0  0  0  0  0  0  0  0  0
   -0.5169    0.9899   -1.2085 H   0  0  0  0  0  0  0  0  0  0  0  0
   -1.3753   -0.2152   -2.1646 H   0  0  0  0  0  0  0  0  0  0  0  0
   -2.6084    1.2549   -1.2747 C   0  0  0  0  0  0  0  0  0  0  0  0
   -2.7124    2.4571   -0.6650 C   0  0  0  0  0  0  0  0  0  0  0  0
   -1.9374    2.9094   -0.0561 H   0  0  0  0  0  0  0  0  0  0  0  0
   -3.9401    3.0198   -0.9547 N   0  0  0  0  0  0  0  0  0  0  0  0
   -4.2386    3.9173   -0.6019 H   0  0  0  0  0  0  0  0  0  0  0  0
   -4.6864    2.2102   -1.7843 C   0  0  0  0  0  0  0  0  0  0  0  0
   -5.9533    2.3465   -2.3697 C   0  0  0  0  0  0  0  0  0  0  0  0
   -6.5473    3.2304   -2.1897 H   0  0  0  0  0  0  0  0  0  0  0  0
   -6.4399    1.3161   -3.1922 C   0  0  0  0  0  0  0  0  0  0  0  0
   -7.4153    1.4032   -3.6514 H   0  0  0  0  0  0  0  0  0  0  0  0
   -5.6585    0.1670   -3.4125 C   0  0  0  0  0  0  0  0  0  0  0  0
   -6.0402   -0.6271   -4.0393 H   0  0  0  0  0  0  0  0  0  0  0  0
   -4.3873    0.0399   -2.8173 C   0  0  0  0  0  0  0  0  0  0  0  0
   -3.8031   -0.8539   -2.9840 H   0  0  0  0  0  0  0  0  0  0  0  0
   -3.8677    1.0598   -1.9911 C   0  0  0  0  0  0  0  0  0  0  0  0
   -1.2663    0.1182    1.2910 C   0  0  0  0  0  0  0  0  0  0  0  0
   -1.2862    1.3479    1.3253 O   0  0  0  0  0  0  0  0  0  0  0  0
   -1.1632   -0.6318    2.3964 N   0  0  0  0  0  0  0  0  0  0  0  0
   -1.0990   -1.6329    2.2781 H   0  0  0  0  0  0  0  0  0  0  0  0
   -1.0679   -0.0919    3.7498 C   0  0  0  0  0  0  0  0  0  0  0  0
   -1.8813    0.6155    3.9220 H   0  0  0  0  0  0  0  0  0  0  0  0
   -1.1298   -0.8986    4.4813 H   0  0  0  0  0  0  0  0  0  0  0  0
   -0.1178    0.4316    3.8686 H   0  0  0  0  0  0  0  0  0  0  0  0
  5  6  2  0  0  0  0
  5  7  1  0  0  0  0
  2  3  1  0  0  0  0
  2  4  1  0  0  0  0
  2  5  1  0  0  0  0
  1  2  1  0  0  0  0
 29 30  2  0  0  0  0
 29 31  1  0  0  0  0
 26 27  1  0  0  0  0
 26 28  2  0  0  0  0
 24 25  1  0  0  0  0
 24 26  1  0  0  0  0
 22 23  1  0  0  0  0
 22 24  2  0  0  0  0
 20 21  1  0  0  0  0
 20 22  1  0  0  0  0
 19 20  2  0  0  0  0
 19 28  1  0  0  0  0
 17 18  1  0  0  0  0
 17 19  1  0  0  0  0
 15 16  1  0  0  0  0
 15 17  1  0  0  0  0
 14 15  2  0  0  0  0
 14 28  1  0  0  0  0
 11 12  1  0  0  0  0
 11 13  1  0  0  0  0
 11 14  1  0  0  0  0
  9 10  1  0  0  0  0
  9 11  1  0  0  0  0
  9 29  1  0  0  0  0
  7  8  1  0  0  0  0
  7  9  1  0  0  0  0
 33 34  1  0  0  0  0
 33 35  1  0  0  0  0
 33 36  1  0  0  0  0
 31 32  1  0  0  0  0
 31 33  1  0  0  0  0
M  END
$$$$
default_name
  -OEChem-12212115393D

 36 37  0     1  0  0  0  0  0999 V2000
   -4.0843   -4.0736    1.2944 H   0  0  0  0  0  0  0  0  0  0  0  0
   -4.0342   -3.2816    0.5484 C   0  0  0  0  0  0  0  0  0  0  0  0
   -4.8842   -2.6126    0.6694 H   0  0  0  0  0  0  0  0  0  0  0  0
   -4.0433   -3.7186   -0.4486 H   0  0  0  0  0  0  0  0  0  0  0  0
   -2.7532   -2.5046    0.7444 C   0  0  0  0  0  0  0  0  0  0  0  0
   -1.9803   -2.8096    1.6434 O   0  0  0  0  0  0  0  0  0  0  0  0
   -2.5332   -1.4966   -0.0966 N   0  0  0  0  0  0  0  0  0  0  0  0
   -3.2312   -1.2816   -0.7936 H   0  0  0  0  0  0  0  0  0  0  0  0
   -1.3593   -0.6196   -0.0536 C   0  0  1  0  0  0  0  0  0  0  0  0
   -0.4622   -1.2317   -0.1545 H   0  0  0  0  0  0  0  0  0  0  0  0
   -1.4074    0.3593   -1.2373 C   0  0  0  0  0  0  0  0  0  0  0  0
   -0.5169    0.9899   -1.2085 H   0  0  0  0  0  0  0  0  0  0  0  0
   -1.3753   -0.2152   -2.1646 H   0  0  0  0  0  0  0  0  0  0  0  0
   -2.6084    1.2549   -1.2747 C   0  0  0  0  0  0  0  0  0  0  0  0
   -2.7124    2.4571   -0.6650 C   0  0  0  0  0  0  0  0  0  0  0  0
   -1.9374    2.9094   -0.0561 H   0  0  0  0  0  0  0  0  0  0  0  0
   -3.9401    3.0198   -0.9547 N   0  0  0  0  0  0  0  0  0  0  0  0
   -4.2386    3.9173   -0.6019 H   0  0  0  0  0  0  0  0  0  0  0  0
   -4.6864    2.2102   -1.7843 C   0  0  0  0  0  0  0  0  0  0  0  0
   -5.9533    2.3465   -2.3697 C   0  0  0  0  0  0  0  0  0  0  0  0
   -6.5473    3.2304   -2.1897 H   0  0  0  0  0  0  0  0  0  0  0  0
   -6.4399    1.3161   -3.1922 C   0  0  0  0  0  0  0  0  0  0  0  0
   -7.4153    1.4032   -3.6514 H   0  0  0  0  0  0  0  0  0  0  0  0
   -5.6585    0.1670   -3.4125 C   0  0  0  0  0  0  0  0  0  0  0  0
   -6.0402   -0.6271   -4.0393 H   0  0  0  0  0  0  0  0  0  0  0  0
   -4.3873    0.0399   -2.8173 C   0  0  0  0  0  0  0  0  0  0  0  0
   -3.8031   -0.8539   -2.9840 H   0  0  0  0  0  0  0  0  0  0  0  0
   -3.8677    1.0598   -1.9911 C   0  0  0  0  0  0  0  0  0  0  0  0
   -1.2663    0.1182    1.2910 C   0  0  0  0  0  0  0  0  0  0  0  0
   -1.5585    1.3111    1.3643 O   0  0  0  0  0  0  0  0  0  0  0  0
   -0.8582   -0.5902    2.3524 N   0  0  0  0  0  0  0  0  0  0  0  0
   -0.5854   -1.5503    2.1973 H   0  0  0  0  0  0  0  0  0  0  0  0
   -0.7172   -0.0445    3.6996 C   0  0  0  0  0  0  0  0  0  0  0  0
   -1.6408    0.4591    3.9913 H   0  0  0  0  0  0  0  0  0  0  0  0
   -0.5029   -0.8452    4.4086 H   0  0  0  0  0  0  0  0  0  0  0  0
    0.0976    0.6812    3.7167 H   0  0  0  0  0  0  0  0  0  0  0  0
  5  6  2  0  0  0  0
  5  7  1  0  0  0  0
  2  3  1  0  0  0  0
  2  4  1  0  0  0  0
  2  5  1  0  0  0  0
  1  2  1  0  0  0  0
 29 30  2  0  0  0  0
 29 31  1  0  0  0  0
 26 27  1  0  0  0  0
 26 28  2  0  0  0  0
 24 25  1  0  0  0  0
 24 26  1  0  0  0  0
 22 23  1  0  0  0  0
 22 24  2  0  0  0  0
 20 21  1  0  0  0  0
 20 22  1  0  0  0  0
 19 20  2  0  0  0  0
 19 28  1  0  0  0  0
 17 18  1  0  0  0  0
 17 19  1  0  0  0  0
 15 16  1  0  0  0  0
 15 17  1  0  0  0  0
 14 15  2  0  0  0  0
 14 28  1  0  0  0  0
 11 12  1  0  0  0  0
 11 13  1  0  0  0  0
 11 14  1  0  0  0  0
  9 10  1  0  0  0  0
  9 11  1  0  0  0  0
  9 29  1  0  0  0  0
  7  8  1  0  0  0  0
  7  9  1  0  0  0  0
 33 34  1  0  0  0  0
 33 35  1  0  0  0  0
 33 36  1  0  0  0  0
 31 32  1  0  0  0  0
 31 33  1  0  0  0  0
M  END
$$$$
default_name
  -OEChem-12212115393D

 36 37  0     1  0  0  0  0  0999 V2000
   -4.0843   -4.0736    1.2944 H   0  0  0  0  0  0  0  0  0  0  0  0
   -4.0342   -3.2816    0.5484 C   0  0  0  0  0  0  0  0  0  0  0  0
   -4.8842   -2.6126    0.6694 H   0  0  0  0  0  0  0  0  0  0  0  0
   -4.0433   -3.7186   -0.4486 H   0  0  0  0  0  0  0  0  0  0  0  0
   -2.7532   -2.5046    0.7444 C   0  0  0  0  0  0  0  0  0  0  0  0
   -1.9803   -2.8096    1.6434 O   0  0  0  0  0  0  0  0  0  0  0  0
   -2.5332   -1.4966   -0.0966 N   0  0  0  0  0  0  0  0  0  0  0  0
   -3.2312   -1.2816   -0.7936 H   0  0  0  0  0  0  0  0  0  0  0  0
   -1.3593   -0.6196   -0.0536 C   0  0  1  0  0  0  0  0  0  0  0  0
   -0.4622   -1.2317   -0.1545 H   0  0  0  0  0  0  0  0  0  0  0  0
   -1.4074    0.3593   -1.2373 C   0  0  0  0  0  0  0  0  0  0  0  0
   -0.5169    0.9899   -1.2085 H   0  0  0  0  0  0  0  0  0  0  0  0
   -1.3753   -0.2152   -2.1646 H   0  0  0  0  0  0  0  0  0  0  0  0
   -2.6084    1.2549   -1.2747 C   0  0  0  0  0  0  0  0  0  0  0  0
   -2.7124    2.4571   -0.6650 C   0  0  0  0  0  0  0  0  0  0  0  0
   -1.9374    2.9094   -0.0561 H   0  0  0  0  0  0  0  0  0  0  0  0
   -3.9401    3.0198   -0.9547 N   0  0  0  0  0  0  0  0  0  0  0  0
   -4.2386    3.9173   -0.6019 H   0  0  0  0  0  0  0  0  0  0  0  0
   -4.6864    2.2102   -1.7843 C   0  0  0  0  0  0  0  0  0  0  0  0
   -5.9533    2.3465   -2.3697 C   0  0  0  0  0  0  0  0  0  0  0  0
   -6.5473    3.2304   -2.1897 H   0  0  0  0  0  0  0  0  0  0  0  0
   -6.4399    1.3161   -3.1922 C   0  0  0  0  0  0  0  0  0  0  0  0
   -7.4153    1.4032   -3.6514 H   0  0  0  0  0  0  0  0  0  0  0  0
   -5.6585    0.1670   -3.4125 C   0  0  0  0  0  0  0  0  0  0  0  0
   -6.0402   -0.6271   -4.0393 H   0  0  0  0  0  0  0  0  0  0  0  0
   -4.3873    0.0399   -2.8173 C   0  0  0  0  0  0  0  0  0  0  0  0
   -3.8031   -0.8539   -2.9840 H   0  0  0  0  0  0  0  0  0  0  0  0
   -3.8677    1.0598   -1.9911 C   0  0  0  0  0  0  0  0  0  0  0  0
   -1.2663    0.1182    1.2910 C   0  0  0  0  0  0  0  0  0  0  0  0
   -1.8083    1.2132    1.4353 O   0  0  0  0  0  0  0  0  0  0  0  0
   -0.5785   -0.4802    2.2728 N   0  0  0  0  0  0  0  0  0  0  0  0
   -0.1180   -1.3528    2.0566 H   0  0  0  0  0  0  0  0  0  0  0  0
   -0.3955    0.0815    3.6082 C   0  0  0  0  0  0  0  0  0  0  0  0
   -1.3645    0.3613    4.0258 H   0  0  0  0  0  0  0  0  0  0  0  0
    0.0815   -0.6504    4.2613 H   0  0  0  0  0  0  0  0  0  0  0  0
    0.2302    0.9735    3.5472 H   0  0  0  0  0  0  0  0  0  0  0  0
  5  6  2  0  0  0  0
  5  7  1  0  0  0  0
  2  3  1  0  0  0  0
  2  4  1  0  0  0  0
  2  5  1  0  0  0  0
  1  2  1  0  0  0  0
 29 30  2  0  0  0  0
 29 31  1  0  0  0  0
 26 27  1  0  0  0  0
 26 28  2  0  0  0  0
 24 25  1  0  0  0  0
 24 26  1  0  0  0  0
 22 23  1  0  0  0  0
 22 24  2  0  0  0  0
 20 21  1  0  0  0  0
 20 22  1  0  0  0  0
 19 20  2  0  0  0  0
 19 28  1  0  0  0  0
 17 18  1  0  0  0  0
 17 19  1  0  0  0  0
 15 16  1  0  0  0  0
 15 17  1  0  0  0  0
 14 15  2  0  0  0  0
 14 28  1  0  0  0  0
 11 12  1  0  0  0  0
 11 13  1  0  0  0  0
 11 14  1  0  0  0  0
  9 10  1  0  0  0  0
  9 11  1  0  0  0  0
  9 29  1  0  0  0  0
  7  8  1  0  0  0  0
  7  9  1  0  0  0  0
 33 34  1  0  0  0  0
 33 35  1  0  0  0  0
 33 36  1  0  0  0  0
 31 32  1  0  0  0  0
 31 33  1  0  0  0  0
M  END
$$$$
default_name
  -OEChem-12212115393D

 36 37  0     1  0  0  0  0  0999 V2000
   -4.0843   -4.0736    1.2944 H   0  0  0  0  0  0  0  0  0  0  0  0
   -4.0342   -3.2816    0.5484 C   0  0  0  0  0  0  0  0  0  0  0  0
   -4.8842   -2.6126    0.6694 H   0  0  0  0  0  0  0  0  0  0  0  0
   -4.0433   -3.7186   -0.4486 H   0  0  0  0  0  0  0  0  0  0  0  0
   -2.7532   -2.5046    0.7444 C   0  0  0  0  0  0  0  0  0  0  0  0
   -1.9803   -2.8096    1.6434 O   0  0  0  0  0  0  0  0  0  0  0  0
   -2.5332   -1.4966   -0.0966 N   0  0  0  0  0  0  0  0  0  0  0  0
   -3.2312   -1.2816   -0.7936 H   0  0  0  0  0  0  0  0  0  0  0  0
   -1.3593   -0.6196   -0.0536 C   0  0  1  0  0  0  0  0  0  0  0  0
   -0.4622   -1.2317   -0.1545 H   0  0  0  0  0  0  0  0  0  0  0  0
   -1.4074    0.3593   -1.2373 C   0  0  0  0  0  0  0  0  0  0  0  0
   -0.5169    0.9899   -1.2085 H   0  0  0  0  0  0  0  0  0  0  0  0
   -1.3753   -0.2152   -2.1646 H   0  0  0  0  0  0  0  0  0  0  0  0
   -2.6084    1.2549   -1.2747 C   0  0  0  0  0  0  0  0  0  0  0  0
   -2.7124    2.4571   -0.6650 C   0  0  0  0  0  0  0  0  0  0  0  0
   -1.9374    2.9094   -0.0561 H   0  0  0  0  0  0  0  0  0  0  0  0
   -3.9401    3.0198   -0.9547 N   0  0  0  0  0  0  0  0  0  0  0  0
   -4.2386    3.9173   -0.6019 H   0  0  0  0  0  0  0  0  0  0  0  0
   -4.6864    2.2102   -1.7843 C   0  0  0  0  0  0  0  0  0  0  0  0
   -5.9533    2.3465   -2.3697 C   0  0  0  0  0  0  0  0  0  0  0  0
   -6.5473    3.2304   -2.1897 H   0  0  0  0  0  0  0  0  0  0  0  0
   -6.4399    1.3161   -3.1922 C   0  0  0  0  0  0  0  0  0  0  0  0
   -7.4153    1.4032   -3.6514 H   0  0  0  0  0  0  0  0  0  0  0  0
   -5.6585    0.1670   -3.4125 C   0  0  0  0  0  0  0  0  0  0  0  0
   -6.0402   -0.6271   -4.0393 H   0  0  0  0  0  0  0  0  0  0  0  0
   -4.3873    0.0399   -2.8173 C   0  0  0  0  0  0  0  0  0  0  0  0
   -3.8031   -0.8539   -2.9840 H   0  0  0  0  0  0  0  0  0  0  0  0
   -3.8677    1.0598   -1.9911 C   0  0  0  0  0  0  0  0  0  0  0  0
   -1.2663    0.1182    1.2910 C   0  0  0  0  0  0  0  0  0  0  0  0
   -2.0186    1.0611    1.5333 O   0  0  0  0  0  0  0  0  0  0  0  0
   -0.3431   -0.3094    2.1627 N   0  0  0  0  0  0  0  0  0  0  0  0
    0.2713   -1.0541    1.8658 H   0  0  0  0  0  0  0  0  0  0  0  0
   -0.1246    0.2774    3.4819 C   0  0  0  0  0  0  0  0  0  0  0  0
   -1.0712    0.3290    4.0233 H   0  0  0  0  0  0  0  0  0  0  0  0
    0.5836   -0.3276    4.0495 H   0  0  0  0  0  0  0  0  0  0  0  0
    0.2710    1.2885    3.3715 H   0  0  0  0  0  0  0  0  0  0  0  0
  5  6  2  0  0  0  0
  5  7  1  0  0  0  0
  2  3  1  0  0  0  0
  2  4  1  0  0  0  0
  2  5  1  0  0  0  0
  1  2  1  0  0  0  0
 29 30  2  0  0  0  0
 29 31  1  0  0  0  0
 26 27  1  0  0  0  0
 26 28  2  0  0  0  0
 24 25  1  0  0  0  0
 24 26  1  0  0  0  0
 22 23  1  0  0  0  0
 22 24  2  0  0  0  0
 20 21  1  0  0  0  0
 20 22  1  0  0  0  0
 19 20  2  0  0  0  0
 19 28  1  0  0  0  0
 17 18  1  0  0  0  0
 17 19  1  0  0  0  0
 15 16  1  0  0  0  0
 15 17  1  0  0  0  0
 14 15  2  0  0  0  0
 14 28  1  0  0  0  0
 11 12  1  0  0  0  0
 11 13  1  0  0  0  0
 11 14  1  0  0  0  0
  9 10  1  0  0  0  0
  9 11  1  0  0  0  0
  9 29  1  0  0  0  0
  7  8  1  0  0  0  0
  7  9  1  0  0  0  0
 33 34  1  0  0  0  0
 33 35  1  0  0  0  0
 33 36  1  0  0  0  0
 31 32  1  0  0  0  0
 31 33  1  0  0  0  0
M  END
$$$$
default_name
  -OEChem-12212115393D

 36 37  0     1  0  0  0  0  0999 V2000
   -4.0843   -4.0736    1.2944 H   0  0  0  0  0  0  0  0  0  0  0  0
   -4.0342   -3.2816    0.5484 C   0  0  0  0  0  0  0  0  0  0  0  0
   -4.8842   -2.6126    0.6694 H   0  0  0  0  0  0  0  0  0  0  0  0
   -4.0433   -3.7186   -0.4486 H   0  0  0  0  0  0  0  0  0  0  0  0
   -2.7532   -2.5046    0.7444 C   0  0  0  0  0  0  0  0  0  0  0  0
   -1.9803   -2.8096    1.6434 O   0  0  0  0  0  0  0  0  0  0  0  0
   -2.5332   -1.4966   -0.0966 N   0  0  0  0  0  0  0  0  0  0  0  0
   -3.2312   -1.2816   -0.7936 H   0  0  0  0  0  0  0  0  0  0  0  0
   -1.3593   -0.6196   -0.0536 C   0  0  1  0  0  0  0  0  0  0  0  0
   -0.4622   -1.2317   -0.1545 H   0  0  0  0  0  0  0  0  0  0  0  0
   -1.4074    0.3593   -1.2373 C   0  0  0  0  0  0  0  0  0  0  0  0
   -0.5169    0.9899   -1.2085 H   0  0  0  0  0  0  0  0  0  0  0  0
   -1.3753   -0.2152   -2.1646 H   0  0  0  0  0  0  0  0  0  0  0  0
   -2.6084    1.2549   -1.2747 C   0  0  0  0  0  0  0  0  0  0  0  0
   -2.7124    2.4571   -0.6650 C   0  0  0  0  0  0  0  0  0  0  0  0
   -1.9374    2.9094   -0.0561 H   0  0  0  0  0  0  0  0  0  0  0  0
   -3.9401    3.0198   -0.9547 N   0  0  0  0  0  0  0  0  0  0  0  0
   -4.2386    3.9173   -0.6019 H   0  0  0  0  0  0  0  0  0  0  0  0
   -4.6864    2.2102   -1.7843 C   0  0  0  0  0  0  0  0  0  0  0  0
   -5.9533    2.3465   -2.3697 C   0  0  0  0  0  0  0  0  0  0  0  0
   -6.5473    3.2304   -2.1897 H   0  0  0  0  0  0  0  0  0  0  0  0
   -6.4399    1.3161   -3.1922 C   0  0  0  0  0  0  0  0  0  0  0  0
   -7.4153    1.4032   -3.6514 H   0  0  0  0  0  0  0  0  0  0  0  0
   -5.6585    0.1670   -3.4125 C   0  0  0  0  0  0  0  0  0  0  0  0
   -6.0402   -0.6271   -4.0393 H   0  0  0  0  0  0  0  0  0  0  0  0
   -4.3873    0.0399   -2.8173 C   0  0  0  0  0  0  0  0  0  0  0  0
   -3.8031   -0.8539   -2.9840 H   0  0  0  0  0  0  0  0  0  0  0  0
   -3.8677    1.0598   -1.9911 C   0  0  0  0  0  0  0  0  0  0  0  0
   -1.2663    0.1182    1.2910 C   0  0  0  0  0  0  0  0  0  0  0  0
   -2.1751    0.8649    1.6518 O   0  0  0  0  0  0  0  0  0  0  0  0
   -0.1681   -0.0893    2.0299 N   0  0  0  0  0  0  0  0  0  0  0  0
    0.5559   -0.6743    1.6377 H   0  0  0  0  0  0  0  0  0  0  0  0
    0.0770    0.5300    3.3294 C   0  0  0  0  0  0  0  0  0  0  0  0
   -0.7808    0.3642    3.9839 H   0  0  0  0  0  0  0  0  0  0  0  0
    0.9691    0.1012    3.7875 H   0  0  0  0  0  0  0  0  0  0  0  0
    0.2172    1.6047    3.2017 H   0  0  0  0  0  0  0  0  0  0  0  0
  5  6  2  0  0  0  0
  5  7  1  0  0  0  0
  2  3  1  0  0  0  0
  2  4  1  0  0  0  0
  2  5  1  0  0  0  0
  1  2  1  0  0  0  0
 29 30  2  0  0  0  0
 29 31  1  0  0  0  0
 26 27  1  0  0  0  0
 26 28  2  0  0  0  0
 24 25  1  0  0  0  0
 24 26  1  0  0  0  0
 22 23  1  0  0  0  0
 22 24  2  0  0  0  0
 20 21  1  0  0  0  0
 20 22  1  0  0  0  0
 19 20  2  0  0  0  0
 19 28  1  0  0  0  0
 17 18  1  0  0  0  0
 17 19  1  0  0  0  0
 15 16  1  0  0  0  0
 15 17  1  0  0  0  0
 14 15  2  0  0  0  0
 14 28  1  0  0  0  0
 11 12  1  0  0  0  0
 11 13  1  0  0  0  0
 11 14  1  0  0  0  0
  9 10  1  0  0  0  0
  9 11  1  0  0  0  0
  9 29  1  0  0  0  0
  7  8  1  0  0  0  0
  7  9  1  0  0  0  0
 33 34  1  0  0  0  0
 33 35  1  0  0  0  0
 33 36  1  0  0  0  0
 31 32  1  0  0  0  0
 31 33  1  0  0  0  0
M  END
$$$$
default_name
  -OEChem-12212115393D

 36 37  0     1  0  0  0  0  0999 V2000
   -4.0843   -4.0736    1.2944 H   0  0  0  0  0  0  0  0  0  0  0  0
   -4.0342   -3.2816    0.5484 C   0  0  0  0  0  0  0  0  0  0  0  0
   -4.8842   -2.6126    0.6694 H   0  0  0  0  0  0  0  0  0  0  0  0
   -4.0433   -3.7186   -0.4486 H   0  0  0  0  0  0  0  0  0  0  0  0
   -2.7532   -2.5046    0.7444 C   0  0  0  0  0  0  0  0  0  0  0  0
   -1.9803   -2.8096    1.6434 O   0  0  0  0  0  0  0  0  0  0  0  0
   -2.5332   -1.4966   -0.0966 N   0  0  0  0  0  0  0  0  0  0  0  0
   -3.2312   -1.2816   -0.7936 H   0  0  0  0  0  0  0  0  0  0  0  0
   -1.3593   -0.6196   -0.0536 C   0  0  1  0  0  0  0  0  0  0  0  0
   -0.4622   -1.2317   -0.1545 H   0  0  0  0  0  0  0  0  0  0  0  0
   -1.4074    0.3593   -1.2373 C   0  0  0  0  0  0  0  0  0  0  0  0
   -0.5169    0.9899   -1.2085 H   0  0  0  0  0  0  0  0  0  0  0  0
   -1.3753   -0.2152   -2.1646 H   0  0  0  0  0  0  0  0  0  0  0  0
   -2.6084    1.2549   -1.2747 C   0  0  0  0  0  0  0  0  0  0  0  0
   -2.7124    2.4571   -0.6650 C   0  0  0  0  0  0  0  0  0  0  0  0
   -1.9374    2.9094   -0.0561 H   0  0  0  0  0  0  0  0  0  0  0  0
   -3.9401    3.0198   -0.9547 N   0  0  0  0  0  0  0  0  0  0  0  0
   -4.2386    3.9173   -0.6019 H   0  0  0  0  0  0  0  0  0  0  0  0
   -4.6864    2.2102   -1.7843 C   0  0  0  0  0  0  0  0  0  0  0  0
   -5.9533    2.3465   -2.3697 C   0  0  0  0  0  0  0  0  0  0  0  0
   -6.5473    3.2304   -2.1897 H   0  0  0  0  0  0  0  0  0  0  0  0
   -6.4399    1.3161   -3.1922 C   0  0  0  0  0  0  0  0  0  0  0  0
   -7.4153    1.4032   -3.6514 H   0  0  0  0  0  0  0  0  0  0  0  0
   -5.6585    0.1670   -3.4125 C   0  0  0  0  0  0  0  0  0  0  0  0
   -6.0402   -0.6271   -4.0393 H   0  0  0  0  0  0  0  0  0  0  0  0
   -4.3873    0.0399   -2.8173 C   0  0  0  0  0  0  0  0  0  0  0  0
   -3.8031   -0.8539   -2.9840 H   0  0  0  0  0  0  0  0  0  0  0  0
   -3.8677    1.0598   -1.9911 C   0  0  0  0  0  0  0  0  0  0  0  0
   -1.2663    0.1182    1.2910 C   0  0  0  0  0  0  0  0  0  0  0  0
   -2.2671    0.6381    1.7826 O   0  0  0  0  0  0  0  0  0  0  0  0
   -0.0654    0.1650    1.8832 N   0  0  0  0  0  0  0  0  0  0  0  0
    0.7165   -0.2395    1.3880 H   0  0  0  0  0  0  0  0  0  0  0  0
    0.1956    0.8221    3.1609 C   0  0  0  0  0  0  0  0  0  0  0  0
   -0.5132    0.4646    3.9103 H   0  0  0  0  0  0  0  0  0  0  0  0
    1.2119    0.6068    3.4933 H   0  0  0  0  0  0  0  0  0  0  0  0
    0.0726    1.9006    3.0493 H   0  0  0  0  0  0  0  0  0  0  0  0
  5  6  2  0  0  0  0
  5  7  1  0  0  0  0
  2  3  1  0  0  0  0
  2  4  1  0  0  0  0
  2  5  1  0  0  0  0
  1  2  1  0  0  0  0
 29 30  2  0  0  0  0
 29 31  1  0  0  0  0
 26 27  1  0  0  0  0
 26 28  2  0  0  0  0
 24 25  1  0  0  0  0
 24 26  1  0  0  0  0
 22 23  1  0  0  0  0
 22 24  2  0  0  0  0
 20 21  1  0  0  0  0
 20 22  1  0  0  0  0
 19 20  2  0  0  0  0
 19 28  1  0  0  0  0
 17 18  1  0  0  0  0
 17 19  1  0  0  0  0
 15 16  1  0  0  0  0
 15 17  1  0  0  0  0
 14 15  2  0  0  0  0
 14 28  1  0  0  0  0
 11 12  1  0  0  0  0
 11 13  1  0  0  0  0
 11 14  1  0  0  0  0
  9 10  1  0  0  0  0
  9 11  1  0  0  0  0
  9 29  1  0  0  0  0
  7  8  1  0  0  0  0
  7  9  1  0  0  0  0
 33 34  1  0  0  0  0
 33 35  1  0  0  0  0
 33 36  1  0  0  0  0
 31 32  1  0  0  0  0
 31 33  1  0  0  0  0
M  END
$$$$
default_name
  -OEChem-12212115393D

 36 37  0     1  0  0  0  0  0999 V2000
   -4.0843   -4.0736    1.2944 H   0  0  0  0  0  0  0  0  0  0  0  0
   -4.0342   -3.2816    0.5484 C   0  0  0  0  0  0  0  0  0  0  0  0
   -4.8842   -2.6126    0.6694 H   0  0  0  0  0  0  0  0  0  0  0  0
   -4.0433   -3.7186   -0.4486 H   0  0  0  0  0  0  0  0  0  0  0  0
   -2.7532   -2.5046    0.7444 C   0  0  0  0  0  0  0  0  0  0  0  0
   -1.9803   -2.8096    1.6434 O   0  0  0  0  0  0  0  0  0  0  0  0
   -2.5332   -1.4966   -0.0966 N   0  0  0  0  0  0  0  0  0  0  0  0
   -3.2312   -1.2816   -0.7936 H   0  0  0  0  0  0  0  0  0  0  0  0
   -1.3593   -0.6196   -0.0536 C   0  0  1  0  0  0  0  0  0  0  0  0
   -0.4622   -1.2317   -0.1545 H   0  0  0  0  0  0  0  0  0  0  0  0
   -1.4074    0.3593   -1.2373 C   0  0  0  0  0  0  0  0  0  0  0  0
   -0.5169    0.9899   -1.2085 H   0  0  0  0  0  0  0  0  0  0  0  0
   -1.3753   -0.2152   -2.1646 H   0  0  0  0  0  0  0  0  0  0  0  0
   -2.6084    1.2549   -1.2747 C   0  0  0  0  0  0  0  0  0  0  0  0
   -2.7124    2.4571   -0.6650 C   0  0  0  0  0  0  0  0  0  0  0  0
   -1.9374    2.9094   -0.0561 H   0  0  0  0  0  0  0  0  0  0  0  0
   -3.9401    3.0198   -0.9547 N   0  0  0  0  0  0  0  0  0  0  0  0
   -4.2386    3.9173   -0.6019 H   0  0  0  0  0  0  0  0  0  0  0  0
   -4.6864    2.2102   -1.7843 C   0  0  0  0  0  0  0  0  0  0  0  0
   -5.9533    2.3465   -2.3697 C   0  0  0  0  0  0  0  0  0  0  0  0
   -6.5473    3.2304   -2.1897 H   0  0  0  0  0  0  0  0  0  0  0  0
   -6.4399    1.3161   -3.1922 C   0  0  0  0  0  0  0  0  0  0  0  0
   -7.4153    1.4032   -3.6514 H   0  0  0  0  0  0  0  0  0  0  0  0
   -5.6585    0.1670   -3.4125 C   0  0  0  0  0  0  0  0  0  0  0  0
   -6.0402   -0.6271   -4.0393 H   0  0  0  0  0  0  0  0  0  0  0  0
   -4.3873    0.0399   -2.8173 C   0  0  0  0  0  0  0  0  0  0  0  0
   -3.8031   -0.8539   -2.9840 H   0  0  0  0  0  0  0  0  0  0  0  0
   -3.8677    1.0598   -1.9911 C   0  0  0  0  0  0  0  0  0  0  0  0
   -1.2663    0.1182    1.2910 C   0  0  0  0  0  0  0  0  0  0  0  0
   -2.2884    0.3962    1.9168 O   0  0  0  0  0  0  0  0  0  0  0  0
   -0.0421    0.4361    1.7328 N   0  0  0  0  0  0  0  0  0  0  0  0
    0.7421    0.2208    1.1336 H   0  0  0  0  0  0  0  0  0  0  0  0
    0.2230    1.1337    2.9880 C   0  0  0  0  0  0  0  0  0  0  0  0
   -0.2866    0.6233    3.8075 H   0  0  0  0  0  0  0  0  0  0  0  0
    1.2953    1.1548    3.1868 H   0  0  0  0  0  0  0  0  0  0  0  0
   -0.1531    2.1561    2.9247 H   0  0  0  0  0  0  0  0  0  0  0  0
  5  6  2  0  0  0  0
  5  7  1  0  0  0  0
  2  3  1  0  0  0  0
  2  4  1  0  0  0  0
  2  5  1  0  0  0  0
  1  2  1  0  0  0  0
 29 30  2  0  0  0  0
 29 31  1  0  0  0  0
 26 27  1  0  0  0  0
 26 28  2  0  0  0  0
 24 25  1  0  0  0  0
 24 26  1  0  0  0  0
 22 23  1  0  0  0  0
 22 24  2  0  0  0  0
 20 21  1  0  0  0  0
 20 22  1  0  0  0  0
 19 20  2  0  0  0  0
 19 28  1  0  0  0  0
 17 18  1  0  0  0  0
 17 19  1  0  0  0  0
 15 16  1  0  0  0  0
 15 17  1  0  0  0  0
 14 15  2  0  0  0  0
 14 28  1  0  0  0  0
 11 12  1  0  0  0  0
 11 13  1  0  0  0  0
 11 14  1  0  0  0  0
  9 10  1  0  0  0  0
  9 11  1  0  0  0  0
  9 29  1  0  0  0  0
  7  8  1  0  0  0  0
  7  9  1  0  0  0  0
 33 34  1  0  0  0  0
 33 35  1  0  0  0  0
 33 36  1  0  0  0  0
 31 32  1  0  0  0  0
 31 33  1  0  0  0  0
M  END
$$$$
default_name
  -OEChem-12212115393D

 36 37  0     1  0  0  0  0  0999 V2000
   -4.0843   -4.0736    1.2944 H   0  0  0  0  0  0  0  0  0  0  0  0
   -4.0342   -3.2816    0.5484 C   0  0  0  0  0  0  0  0  0  0  0  0
   -4.8842   -2.6126    0.6694 H   0  0  0  0  0  0  0  0  0  0  0  0
   -4.0433   -3.7186   -0.4486 H   0  0  0  0  0  0  0  0  0  0  0  0
   -2.7532   -2.5046    0.7444 C   0  0  0  0  0  0  0  0  0  0  0  0
   -1.9803   -2.8096    1.6434 O   0  0  0  0  0  0  0  0  0  0  0  0
   -2.5332   -1.4966   -0.0966 N   0  0  0  0  0  0  0  0  0  0  0  0
   -3.2312   -1.2816   -0.7936 H   0  0  0  0  0  0  0  0  0  0  0  0
   -1.3593   -0.6196   -0.0536 C   0  0  1  0  0  0  0  0  0  0  0  0
   -0.4622   -1.2317   -0.1545 H   0  0  0  0  0  0  0  0  0  0  0  0
   -1.4074    0.3593   -1.2373 C   0  0  0  0  0  0  0  0  0  0  0  0
   -0.5169    0.9899   -1.2085 H   0  0  0  0  0  0  0  0  0  0  0  0
   -1.3753   -0.2152   -2.1646 H   0  0  0  0  0  0  0  0  0  0  0  0
   -2.6084    1.2549   -1.2747 C   0  0  0  0  0  0  0  0  0  0  0  0
   -2.7124    2.4571   -0.6650 C   0  0  0  0  0  0  0  0  0  0  0  0
   -1.9374    2.9094   -0.0561 H   0  0  0  0  0  0  0  0  0  0  0  0
   -3.9401    3.0198   -0.9547 N   0  0  0  0  0  0  0  0  0  0  0  0
   -4.2386    3.9173   -0.6019 H   0  0  0  0  0  0  0  0  0  0  0  0
   -4.6864    2.2102   -1.7843 C   0  0  0  0  0  0  0  0  0  0  0  0
   -5.9533    2.3465   -2.3697 C   0  0  0  0  0  0  0  0  0  0  0  0
   -6.5473    3.2304   -2.1897 H   0  0  0  0  0  0  0  0  0  0  0  0
   -6.4399    1.3161   -3.1922 C   0  0  0  0  0  0  0  0  0  0  0  0
   -7.4153    1.4032   -3.6514 H   0  0  0  0  0  0  0  0  0  0  0  0
   -5.6585    0.1670   -3.4125 C   0  0  0  0  0  0  0  0  0  0  0  0
   -6.0402   -0.6271   -4.0393 H   0  0  0  0  0  0  0  0  0  0  0  0
   -4.3873    0.0399   -2.8173 C   0  0  0  0  0  0  0  0  0  0  0  0
   -3.8031   -0.8539   -2.9840 H   0  0  0  0  0  0  0  0  0  0  0  0
   -3.8677    1.0598   -1.9911 C   0  0  0  0  0  0  0  0  0  0  0  0
   -1.2663    0.1182    1.2910 C   0  0  0  0  0  0  0  0  0  0  0  0
   -2.2375    0.1555    2.0454 O   0  0  0  0  0  0  0  0  0  0  0  0
   -0.0996    0.7057    1.5889 N   0  0  0  0  0  0  0  0  0  0  0  0
    0.6309    0.6751    0.8920 H   0  0  0  0  0  0  0  0  0  0  0  0
    0.1574    1.4436    2.8225 C   0  0  0  0  0  0  0  0  0  0  0  0
   -0.1165    0.8296    3.6826 H   0  0  0  0  0  0  0  0  0  0  0  0
    1.2136    1.7078    2.8890 H   0  0  0  0  0  0  0  0  0  0  0  0
   -0.4444    2.3538    2.8364 H   0  0  0  0  0  0  0  0  0  0  0  0
  5  6  2  0  0  0  0
  5  7  1  0  0  0  0
  2  3  1  0  0  0  0
  2  4  1  0  0  0  0
  2  5  1  0  0  0  0
  1  2  1  0  0  0  0
 29 30  2  0  0  0  0
 29 31  1  0  0  0  0
 26 27  1  0  0  0  0
 26 28  2  0  0  0  0
 24 25  1  0  0  0  0
 24 26  1  0  0  0  0
 22 23  1  0  0  0  0
 22 24  2  0  0  0  0
 20 21  1  0  0  0  0
 20 22  1  0  0  0  0
 19 20  2  0  0  0  0
 19 28  1  0  0  0  0
 17 18  1  0  0  0  0
 17 19  1  0  0  0  0
 15 16  1  0  0  0  0
 15 17  1  0  0  0  0
 14 15  2  0  0  0  0
 14 28  1  0  0  0  0
 11 12  1  0  0  0  0
 11 13  1  0  0  0  0
 11 14  1  0  0  0  0
  9 10  1  0  0  0  0
  9 11  1  0  0  0  0
  9 29  1  0  0  0  0
  7  8  1  0  0  0  0
  7  9  1  0  0  0  0
 33 34  1  0  0  0  0
 33 35  1  0  0  0  0
 33 36  1  0  0  0  0
 31 32  1  0  0  0  0
 31 33  1  0  0  0  0
M  END
$$$$
default_name
  -OEChem-12212115393D

 36 37  0     1  0  0  0  0  0999 V2000
   -4.0843   -4.0736    1.2944 H   0  0  0  0  0  0  0  0  0  0  0  0
   -4.0342   -3.2816    0.5484 C   0  0  0  0  0  0  0  0  0  0  0  0
   -4.8842   -2.6126    0.6694 H   0  0  0  0  0  0  0  0  0  0  0  0
   -4.0433   -3.7186   -0.4486 H   0  0  0  0  0  0  0  0  0  0  0  0
   -2.7532   -2.5046    0.7444 C   0  0  0  0  0  0  0  0  0  0  0  0
   -1.9803   -2.8096    1.6434 O   0  0  0  0  0  0  0  0  0  0  0  0
   -2.5332   -1.4966   -0.0966 N   0  0  0  0  0  0  0  0  0  0  0  0
   -3.2312   -1.2816   -0.7936 H   0  0  0  0  0  0  0  0  0  0  0  0
   -1.3593   -0.6196   -0.0536 C   0  0  1  0  0  0  0  0  0  0  0  0
   -0.4942   -1.1760   -0.4165 H   0  0  0  0  0  0  0  0  0  0  0  0
   -1.5824    0.5814   -0.9861 C   0  0  0  0  0  0  0  0  0  0  0  0
   -0.6929    1.2135   -0.9644 H   0  0  0  0  0  0  0  0  0  0  0  0
   -1.7001    0.2119   -2.0062 H   0  0  0  0  0  0  0  0  0  0  0  0
   -2.7668    1.4364   -0.6510 C   0  0  0  0  0  0  0  0  0  0  0  0
   -2.7642    2.4838    0.2037 C   0  0  0  0  0  0  0  0  0  0  0  0
   -1.8999    2.8189    0.7666 H   0  0  0  0  0  0  0  0  0  0  0  0
   -4.0170    3.0646    0.2300 N   0  0  0  0  0  0  0  0  0  0  0  0
   -4.2491    3.8625    0.8033 H   0  0  0  0  0  0  0  0  0  0  0  0
   -4.8904    2.4264   -0.6247 C   0  0  0  0  0  0  0  0  0  0  0  0
   -6.2317    2.6504   -0.9667 C   0  0  0  0  0  0  0  0  0  0  0  0
   -6.7827    3.4636   -0.5176 H   0  0  0  0  0  0  0  0  0  0  0  0
   -6.8493    1.8008   -1.9005 C   0  0  0  0  0  0  0  0  0  0  0  0
   -7.8835    1.9577   -2.1757 H   0  0  0  0  0  0  0  0  0  0  0  0
   -6.1218    0.7411   -2.4724 C   0  0  0  0  0  0  0  0  0  0  0  0
   -6.6033    0.0849   -3.1841 H   0  0  0  0  0  0  0  0  0  0  0  0
   -4.7747    0.5242   -2.1197 C   0  0  0  0  0  0  0  0  0  0  0  0
   -4.2313   -0.3016   -2.5565 H   0  0  0  0  0  0  0  0  0  0  0  0
   -4.1239    1.3635   -1.1896 C   0  0  0  0  0  0  0  0  0  0  0  0
   -1.0518   -0.1736    1.3843 C   0  0  0  0  0  0  0  0  0  0  0  0
   -1.7593   -0.5549    2.3157 O   0  0  0  0  0  0  0  0  0  0  0  0
    0.0016    0.6347    1.5637 N   0  0  0  0  0  0  0  0  0  0  0  0
    0.4983    0.9455    0.7409 H   0  0  0  0  0  0  0  0  0  0  0  0
    0.4320    1.1478    2.8614 C   0  0  0  0  0  0  0  0  0  0  0  0
    0.5439    0.3210    3.5654 H   0  0  0  0  0  0  0  0  0  0  0  0
    1.3850    1.6690    2.7619 H   0  0  0  0  0  0  0  0  0  0  0  0
   -0.3189    1.8383    3.2489 H   0  0  0  0  0  0  0  0  0  0  0  0
  5  6  2  0  0  0  0
  5  7  1  0  0  0  0
  2  3  1  0  0  0  0
  2  4  1  0  0  0  0
  2  5  1  0  0  0  0
  1  2  1  0  0  0  0
 29 30  2  0  0  0  0
 29 31  1  0  0  0  0
 26 27  1  0  0  0  0
 26 28  2  0  0  0  0
 24 25  1  0  0  0  0
 24 26  1  0  0  0  0
 22 23  1  0  0  0  0
 22 24  2  0  0  0  0
 20 21  1  0  0  0  0
 20 22  1  0  0  0  0
 19 20  2  0  0  0  0
 19 28  1  0  0  0  0
 17 18  1  0  0  0  0
 17 19  1  0  0  0  0
 15 16  1  0  0  0  0
 15 17  1  0  0  0  0
 14 15  2  0  0  0  0
 14 28  1  0  0  0  0
 11 12  1  0  0  0  0
 11 13  1  0  0  0  0
 11 14  1  0  0  0  0
  9 10  1  0  0  0  0
  9 11  1  0  0  0  0
  9 29  1  0  0  0  0
  7  8  1  0  0  0  0
  7  9  1  0  0  0  0
 33 34  1  0  0  0  0
 33 35  1  0  0  0  0
 33 36  1  0  0  0  0
 31 32  1  0  0  0  0
 31 33  1  0  0  0  0
M  END
$$$$
default_name
  -OEChem-12212115393D

 36 37  0     1  0  0  0  0  0999 V2000
   -4.0843   -4.0736    1.2944 H   0  0  0  0  0  0  0  0  0  0  0  0
   -4.0342   -3.2816    0.5484 C   0  0  0  0  0  0  0  0  0  0  0  0
   -4.8842   -2.6126    0.6694 H   0  0  0  0  0  0  0  0  0  0  0  0
   -4.0433   -3.7186   -0.4486 H   0  0  0  0  0  0  0  0  0  0  0  0
   -2.7532   -2.5046    0.7444 C   0  0  0  0  0  0  0  0  0  0  0  0
   -1.9803   -2.8096    1.6434 O   0  0  0  0  0  0  0  0  0  0  0  0
   -2.5332   -1.4966   -0.0966 N   0  0  0  0  0  0  0  0  0  0  0  0
   -3.2312   -1.2816   -0.7936 H   0  0  0  0  0  0  0  0  0  0  0  0
   -1.3593   -0.6196   -0.0536 C   0  0  1  0  0  0  0  0  0  0  0  0
   -0.4942   -1.1760   -0.4165 H   0  0  0  0  0  0  0  0  0  0  0  0
   -1.5824    0.5814   -0.9861 C   0  0  0  0  0  0  0  0  0  0  0  0
   -0.6929    1.2135   -0.9644 H   0  0  0  0  0  0  0  0  0  0  0  0
   -1.7001    0.2119   -2.0062 H   0  0  0  0  0  0  0  0  0  0  0  0
   -2.7668    1.4364   -0.6510 C   0  0  0  0  0  0  0  0  0  0  0  0
   -2.7642    2.4838    0.2037 C   0  0  0  0  0  0  0  0  0  0  0  0
   -1.8999    2.8189    0.7666 H   0  0  0  0  0  0  0  0  0  0  0  0
   -4.0170    3.0646    0.2300 N   0  0  0  0  0  0  0  0  0  0  0  0
   -4.2491    3.8625    0.8033 H   0  0  0  0  0  0  0  0  0  0  0  0
   -4.8904    2.4264   -0.6247 C   0  0  0  0  0  0  0  0  0  0  0  0
   -6.2317    2.6504   -0.9667 C   0  0  0  0  0  0  0  0  0  0  0  0
   -6.7827    3.4636   -0.5176 H   0  0  0  0  0  0  0  0  0  0  0  0
   -6.8493    1.8008   -1.9005 C   0  0  0  0  0  0  0  0  0  0  0  0
   -7.8835    1.9577   -2.1757 H   0  0  0  0  0  0  0  0  0  0  0  0
   -6.1218    0.7411   -2.4724 C   0  0  0  0  0  0  0  0  0  0  0  0
   -6.6033    0.0849   -3.1841 H   0  0  0  0  0  0  0  0  0  0  0  0
   -4.7747    0.5242   -2.1197 C   0  0  0  0  0  0  0  0  0  0  0  0
   -4.2313   -0.3016   -2.5565 H   0  0  0  0  0  0  0  0  0  0  0  0
   -4.1239    1.3635   -1.1896 C   0  0  0  0  0  0  0  0  0  0  0  0
   -1.0518   -0.1736    1.3843 C   0  0  0  0  0  0  0  0  0  0  0  0
   -1.5686   -0.7554    2.3371 O   0  0  0  0  0  0  0  0  0  0  0  0
   -0.2124    0.8590    1.5399 N   0  0  0  0  0  0  0  0  0  0  0  0
    0.1263    1.3165    0.7054 H   0  0  0  0  0  0  0  0  0  0  0  0
    0.1864    1.4060    2.8338 C   0  0  0  0  0  0  0  0  0  0  0  0
    0.5506    0.6024    3.4767 H   0  0  0  0  0  0  0  0  0  0  0  0
    0.9749    2.1479    2.7010 H   0  0  0  0  0  0  0  0  0  0  0  0
   -0.6742    1.8751    3.3134 H   0  0  0  0  0  0  0  0  0  0  0  0
  5  6  2  0  0  0  0
  5  7  1  0  0  0  0
  2  3  1  0  0  0  0
  2  4  1  0  0  0  0
  2  5  1  0  0  0  0
  1  2  1  0  0  0  0
 29 30  2  0  0  0  0
 29 31  1  0  0  0  0
 26 27  1  0  0  0  0
 26 28  2  0  0  0  0
 24 25  1  0  0  0  0
 24 26  1  0  0  0  0
 22 23  1  0  0  0  0
 22 24  2  0  0  0  0
 20 21  1  0  0  0  0
 20 22  1  0  0  0  0
 19 20  2  0  0  0  0
 19 28  1  0  0  0  0
 17 18  1  0  0  0  0
 17 19  1  0  0  0  0
 15 16  1  0  0  0  0
 15 17  1  0  0  0  0
 14 15  2  0  0  0  0
 14 28  1  0  0  0  0
 11 12  1  0  0  0  0
 11 13  1  0  0  0  0
 11 14  1  0  0  0  0
  9 10  1  0  0  0  0
  9 11  1  0  0  0  0
  9 29  1  0  0  0  0
  7  8  1  0  0  0  0
  7  9  1  0  0  0  0
 33 34  1  0  0  0  0
 33 35  1  0  0  0  0
 33 36  1  0  0  0  0
 31 32  1  0  0  0  0
 31 33  1  0  0  0  0
M  END
$$$$
default_name
  -OEChem-12212115393D

 36 37  0     1  0  0  0  0  0999 V2000
   -4.0843   -4.0736    1.2944 H   0  0  0  0  0  0  0  0  0  0  0  0
   -4.0342   -3.2816    0.5484 C   0  0  0  0  0  0  0  0  0  0  0  0
   -4.8842   -2.6126    0.6694 H   0  0  0  0  0  0  0  0  0  0  0  0
   -4.0433   -3.7186   -0.4486 H   0  0  0  0  0  0  0  0  0  0  0  0
   -2.7532   -2.5046    0.7444 C   0  0  0  0  0  0  0  0  0  0  0  0
   -1.9803   -2.8096    1.6434 O   0  0  0  0  0  0  0  0  0  0  0  0
   -2.5332   -1.4966   -0.0966 N   0  0  0  0  0  0  0  0  0  0  0  0
   -3.2312   -1.2816   -0.7936 H   0  0  0  0  0  0  0  0  0  0  0  0
   -1.3593   -0.6196   -0.0536 C   0  0  1  0  0  0  0  0  0  0  0  0
   -0.4942   -1.1760   -0.4165 H   0  0  0  0  0  0  0  0  0  0  0  0
   -1.5824    0.5814   -0.9861 C   0  0  0  0  0  0  0  0  0  0  0  0
   -0.6929    1.2135   -0.9644 H   0  0  0  0  0  0  0  0  0  0  0  0
   -1.7001    0.2119   -2.0062 H   0  0  0  0  0  0  0  0  0  0  0  0
   -2.7668    1.4364   -0.6510 C   0  0  0  0  0  0  0  0  0  0  0  0
   -2.7642    2.4838    0.2037 C   0  0  0  0  0  0  0  0  0  0  0  0
   -1.8999    2.8189    0.7666 H   0  0  0  0  0  0  0  0  0  0  0  0
   -4.0170    3.0646    0.2300 N   0  0  0  0  0  0  0  0  0  0  0  0
   -4.2491    3.8625    0.8033 H   0  0  0  0  0  0  0  0  0  0  0  0
   -4.8904    2.4264   -0.6247 C   0  0  0  0  0  0  0  0  0  0  0  0
   -6.2317    2.6504   -0.9667 C   0  0  0  0  0  0  0  0  0  0  0  0
   -6.7827    3.4636   -0.5176 H   0  0  0  0  0  0  0  0  0  0  0  0
   -6.8493    1.8008   -1.9005 C   0  0  0  0  0  0  0  0  0  0  0  0
   -7.8835    1.9577   -2.1757 H   0  0  0  0  0  0  0  0  0  0  0  0
   -6.1218    0.7411   -2.4724 C   0  0  0  0  0  0  0  0  0  0  0  0
   -6.6033    0.0849   -3.1841 H   0  0  0  0  0  0  0  0  0  0  0  0
   -4.7747    0.5242   -2.1197 C   0  0  0  0  0  0  0  0  0  0  0  0
   -4.2313   -0.3016   -2.5565 H   0  0  0  0  0  0  0  0  0  0  0  0
   -4.1239    1.3635   -1.1896 C   0  0  0  0  0  0  0  0  0  0  0  0
   -1.0518   -0.1736    1.3843 C   0  0  0  0  0  0  0  0  0  0  0  0
   -1.3343   -0.9040    2.3331 O   0  0  0  0  0  0  0  0  0  0  0  0
   -0.4752    1.0252    1.5445 N   0  0  0  0  0  0  0  0  0  0  0  0
   -0.3255    1.5865    0.7182 H   0  0  0  0  0  0  0  0  0  0  0  0
   -0.1154    1.5974    2.8389 C   0  0  0  0  0  0  0  0  0  0  0  0
    0.4824    0.8805    3.4050 H   0  0  0  0  0  0  0  0  0  0  0  0
    0.4583    2.5143    2.6978 H   0  0  0  0  0  0  0  0  0  0  0  0
   -1.0214    1.8213    3.4044 H   0  0  0  0  0  0  0  0  0  0  0  0
  5  6  2  0  0  0  0
  5  7  1  0  0  0  0
  2  3  1  0  0  0  0
  2  4  1  0  0  0  0
  2  5  1  0  0  0  0
  1  2  1  0  0  0  0
 29 30  2  0  0  0  0
 29 31  1  0  0  0  0
 26 27  1  0  0  0  0
 26 28  2  0  0  0  0
 24 25  1  0  0  0  0
 24 26  1  0  0  0  0
 22 23  1  0  0  0  0
 22 24  2  0  0  0  0
 20 21  1  0  0  0  0
 20 22  1  0  0  0  0
 19 20  2  0  0  0  0
 19 28  1  0  0  0  0
 17 18  1  0  0  0  0
 17 19  1  0  0  0  0
 15 16  1  0  0  0  0
 15 17  1  0  0  0  0
 14 15  2  0  0  0  0
 14 28  1  0  0  0  0
 11 12  1  0  0  0  0
 11 13  1  0  0  0  0
 11 14  1  0  0  0  0
  9 10  1  0  0  0  0
  9 11  1  0  0  0  0
  9 29  1  0  0  0  0
  7  8  1  0  0  0  0
  7  9  1  0  0  0  0
 33 34  1  0  0  0  0
 33 35  1  0  0  0  0
 33 36  1  0  0  0  0
 31 32  1  0  0  0  0
 31 33  1  0  0  0  0
M  END
$$$$
default_name
  -OEChem-12212115393D

 36 37  0     1  0  0  0  0  0999 V2000
   -4.0843   -4.0736    1.2944 H   0  0  0  0  0  0  0  0  0  0  0  0
   -4.0342   -3.2816    0.5484 C   0  0  0  0  0  0  0  0  0  0  0  0
   -4.8842   -2.6126    0.6694 H   0  0  0  0  0  0  0  0  0  0  0  0
   -4.0433   -3.7186   -0.4486 H   0  0  0  0  0  0  0  0  0  0  0  0
   -2.7532   -2.5046    0.7444 C   0  0  0  0  0  0  0  0  0  0  0  0
   -1.9803   -2.8096    1.6434 O   0  0  0  0  0  0  0  0  0  0  0  0
   -2.5332   -1.4966   -0.0966 N   0  0  0  0  0  0  0  0  0  0  0  0
   -3.2312   -1.2816   -0.7936 H   0  0  0  0  0  0  0  0  0  0  0  0
   -1.3593   -0.6196   -0.0536 C   0  0  1  0  0  0  0  0  0  0  0  0
   -0.4942   -1.1760   -0.4165 H   0  0  0  0  0  0  0  0  0  0  0  0
   -1.5824    0.5814   -0.9861 C   0  0  0  0  0  0  0  0  0  0  0  0
   -0.6929    1.2135   -0.9644 H   0  0  0  0  0  0  0  0  0  0  0  0
   -1.7001    0.2119   -2.0062 H   0  0  0  0  0  0  0  0  0  0  0  0
   -2.7668    1.4364   -0.6510 C   0  0  0  0  0  0  0  0  0  0  0  0
   -2.7642    2.4838    0.2037 C   0  0  0  0  0  0  0  0  0  0  0  0
   -1.8999    2.8189    0.7666 H   0  0  0  0  0  0  0  0  0  0  0  0
   -4.0170    3.0646    0.2300 N   0  0  0  0  0  0  0  0  0  0  0  0
   -4.2491    3.8625    0.8033 H   0  0  0  0  0  0  0  0  0  0  0  0
   -4.8904    2.4264   -0.6247 C   0  0  0  0  0  0  0  0  0  0  0  0
   -6.2317    2.6504   -0.9667 C   0  0  0  0  0  0  0  0  0  0  0  0
   -6.7827    3.4636   -0.5176 H   0  0  0  0  0  0  0  0  0  0  0  0
   -6.8493    1.8008   -1.9005 C   0  0  0  0  0  0  0  0  0  0  0  0
   -7.8835    1.9577   -2.1757 H   0  0  0  0  0  0  0  0  0  0  0  0
   -6.1218    0.7411   -2.4724 C   0  0  0  0  0  0  0  0  0  0  0  0
   -6.6033    0.0849   -3.1841 H   0  0  0  0  0  0  0  0  0  0  0  0
   -4.7747    0.5242   -2.1197 C   0  0  0  0  0  0  0  0  0  0  0  0
   -4.2313   -0.3016   -2.5565 H   0  0  0  0  0  0  0  0  0  0  0  0
   -4.1239    1.3635   -1.1896 C   0  0  0  0  0  0  0  0  0  0  0  0
   -1.0518   -0.1736    1.3843 C   0  0  0  0  0  0  0  0  0  0  0  0
   -1.0722   -0.9906    2.3039 O   0  0  0  0  0  0  0  0  0  0  0  0
   -0.7689    1.1217    1.5774 N   0  0  0  0  0  0  0  0  0  0  0  0
   -0.8264    1.7372    0.7786 H   0  0  0  0  0  0  0  0  0  0  0  0
   -0.4528    1.7089    2.8765 C   0  0  0  0  0  0  0  0  0  0  0  0
    0.3437    1.1362    3.3553 H   0  0  0  0  0  0  0  0  0  0  0  0
   -0.1296    2.7433    2.7525 H   0  0  0  0  0  0  0  0  0  0  0  0
   -1.3370    1.6806    3.5155 H   0  0  0  0  0  0  0  0  0  0  0  0
  5  6  2  0  0  0  0
  5  7  1  0  0  0  0
  2  3  1  0  0  0  0
  2  4  1  0  0  0  0
  2  5  1  0  0  0  0
  1  2  1  0  0  0  0
 29 30  2  0  0  0  0
 29 31  1  0  0  0  0
 26 27  1  0  0  0  0
 26 28  2  0  0  0  0
 24 25  1  0  0  0  0
 24 26  1  0  0  0  0
 22 23  1  0  0  0  0
 22 24  2  0  0  0  0
 20 21  1  0  0  0  0
 20 22  1  0  0  0  0
 19 20  2  0  0  0  0
 19 28  1  0  0  0  0
 17 18  1  0  0  0  0
 17 19  1  0  0  0  0
 15 16  1  0  0  0  0
 15 17  1  0  0  0  0
 14 15  2  0  0  0  0
 14 28  1  0  0  0  0
 11 12  1  0  0  0  0
 11 13  1  0  0  0  0
 11 14  1  0  0  0  0
  9 10  1  0  0  0  0
  9 11  1  0  0  0  0
  9 29  1  0  0  0  0
  7  8  1  0  0  0  0
  7  9  1  0  0  0  0
 33 34  1  0  0  0  0
 33 35  1  0  0  0  0
 33 36  1  0  0  0  0
 31 32  1  0  0  0  0
 31 33  1  0  0  0  0
M  END
$$$$
default_name
  -OEChem-12212115393D

 36 37  0     1  0  0  0  0  0999 V2000
   -4.0843   -4.0736    1.2944 H   0  0  0  0  0  0  0  0  0  0  0  0
   -4.0342   -3.2816    0.5484 C   0  0  0  0  0  0  0  0  0  0  0  0
   -4.8842   -2.6126    0.6694 H   0  0  0  0  0  0  0  0  0  0  0  0
   -4.0433   -3.7186   -0.4486 H   0  0  0  0  0  0  0  0  0  0  0  0
   -2.7532   -2.5046    0.7444 C   0  0  0  0  0  0  0  0  0  0  0  0
   -1.9803   -2.8096    1.6434 O   0  0  0  0  0  0  0  0  0  0  0  0
   -2.5332   -1.4966   -0.0966 N   0  0  0  0  0  0  0  0  0  0  0  0
   -3.2312   -1.2816   -0.7936 H   0  0  0  0  0  0  0  0  0  0  0  0
   -1.3593   -0.6196   -0.0536 C   0  0  1  0  0  0  0  0  0  0  0  0
   -0.4942   -1.1760   -0.4165 H   0  0  0  0  0  0  0  0  0  0  0  0
   -1.5824    0.5814   -0.9861 C   0  0  0  0  0  0  0  0  0  0  0  0
   -0.6929    1.2135   -0.9644 H   0  0  0  0  0  0  0  0  0  0  0  0
   -1.7001    0.2119   -2.0062 H   0  0  0  0  0  0  0  0  0  0  0  0
   -2.7668    1.4364   -0.6510 C   0  0  0  0  0  0  0  0  0  0  0  0
   -2.7642    2.4838    0.2037 C   0  0  0  0  0  0  0  0  0  0  0  0
   -1.8999    2.8189    0.7666 H   0  0  0  0  0  0  0  0  0  0  0  0
   -4.0170    3.0646    0.2300 N   0  0  0  0  0  0  0  0  0  0  0  0
   -4.2491    3.8625    0.8033 H   0  0  0  0  0  0  0  0  0  0  0  0
   -4.8904    2.4264   -0.6247 C   0  0  0  0  0  0  0  0  0  0  0  0
   -6.2317    2.6504   -0.9667 C   0  0  0  0  0  0  0  0  0  0  0  0
   -6.7827    3.4636   -0.5176 H   0  0  0  0  0  0  0  0  0  0  0  0
   -6.8493    1.8008   -1.9005 C   0  0  0  0  0  0  0  0  0  0  0  0
   -7.8835    1.9577   -2.1757 H   0  0  0  0  0  0  0  0  0  0  0  0
   -6.1218    0.7411   -2.4724 C   0  0  0  0  0  0  0  0  0  0  0  0
   -6.6033    0.0849   -3.1841 H   0  0  0  0  0  0  0  0  0  0  0  0
   -4.7747    0.5242   -2.1197 C   0  0  0  0  0  0  0  0  0  0  0  0
   -4.2313   -0.3016   -2.5565 H   0  0  0  0  0  0  0  0  0  0  0  0
   -4.1239    1.3635   -1.1896 C   0  0  0  0  0  0  0  0  0  0  0  0
   -1.0518   -0.1736    1.3843 C   0  0  0  0  0  0  0  0  0  0  0  0
   -0.8003   -1.0092    2.2515 O   0  0  0  0  0  0  0  0  0  0  0  0
   -1.0736    1.1422    1.6362 N   0  0  0  0  0  0  0  0  0  0  0  0
   -1.3421    1.7584    0.8823 H   0  0  0  0  0  0  0  0  0  0  0  0
   -0.8030    1.7329    2.9439 C   0  0  0  0  0  0  0  0  0  0  0  0
    0.1441    1.3522    3.3310 H   0  0  0  0  0  0  0  0  0  0  0  0
   -0.7490    2.8192    2.8614 H   0  0  0  0  0  0  0  0  0  0  0  0
   -1.5993    1.4624    3.6393 H   0  0  0  0  0  0  0  0  0  0  0  0
  5  6  2  0  0  0  0
  5  7  1  0  0  0  0
  2  3  1  0  0  0  0
  2  4  1  0  0  0  0
  2  5  1  0  0  0  0
  1  2  1  0  0  0  0
 29 30  2  0  0  0  0
 29 31  1  0  0  0  0
 26 27  1  0  0  0  0
 26 28  2  0  0  0  0
 24 25  1  0  0  0  0
 24 26  1  0  0  0  0
 22 23  1  0  0  0  0
 22 24  2  0  0  0  0
 20 21  1  0  0  0  0
 20 22  1  0  0  0  0
 19 20  2  0  0  0  0
 19 28  1  0  0  0  0
 17 18  1  0  0  0  0
 17 19  1  0  0  0  0
 15 16  1  0  0  0  0
 15 17  1  0  0  0  0
 14 15  2  0  0  0  0
 14 28  1  0  0  0  0
 11 12  1  0  0  0  0
 11 13  1  0  0  0  0
 11 14  1  0  0  0  0
  9 10  1  0  0  0  0
  9 11  1  0  0  0  0
  9 29  1  0  0  0  0
  7  8  1  0  0  0  0
  7  9  1  0  0  0  0
 33 34  1  0  0  0  0
 33 35  1  0  0  0  0
 33 36  1  0  0  0  0
 31 32  1  0  0  0  0
 31 33  1  0  0  0  0
M  END
$$$$
default_name
  -OEChem-12212115393D

 36 37  0     1  0  0  0  0  0999 V2000
   -4.0843   -4.0736    1.2944 H   0  0  0  0  0  0  0  0  0  0  0  0
   -4.0342   -3.2816    0.5484 C   0  0  0  0  0  0  0  0  0  0  0  0
   -4.8842   -2.6126    0.6694 H   0  0  0  0  0  0  0  0  0  0  0  0
   -4.0433   -3.7186   -0.4486 H   0  0  0  0  0  0  0  0  0  0  0  0
   -2.7532   -2.5046    0.7444 C   0  0  0  0  0  0  0  0  0  0  0  0
   -1.9803   -2.8096    1.6434 O   0  0  0  0  0  0  0  0  0  0  0  0
   -2.5332   -1.4966   -0.0966 N   0  0  0  0  0  0  0  0  0  0  0  0
   -3.2312   -1.2816   -0.7936 H   0  0  0  0  0  0  0  0  0  0  0  0
   -1.3593   -0.6196   -0.0536 C   0  0  1  0  0  0  0  0  0  0  0  0
   -0.4942   -1.1760   -0.4165 H   0  0  0  0  0  0  0  0  0  0  0  0
   -1.5824    0.5814   -0.9861 C   0  0  0  0  0  0  0  0  0  0  0  0
   -0.6929    1.2135   -0.9644 H   0  0  0  0  0  0  0  0  0  0  0  0
   -1.7001    0.2119   -2.0062 H   0  0  0  0  0  0  0  0  0  0  0  0
   -2.7668    1.4364   -0.6510 C   0  0  0  0  0  0  0  0  0  0  0  0
   -2.7642    2.4838    0.2037 C   0  0  0  0  0  0  0  0  0  0  0  0
   -1.8999    2.8189    0.7666 H   0  0  0  0  0  0  0  0  0  0  0  0
   -4.0170    3.0646    0.2300 N   0  0  0  0  0  0  0  0  0  0  0  0
   -4.2491    3.8625    0.8033 H   0  0  0  0  0  0  0  0  0  0  0  0
   -4.8904    2.4264   -0.6247 C   0  0  0  0  0  0  0  0  0  0  0  0
   -6.2317    2.6504   -0.9667 C   0  0  0  0  0  0  0  0  0  0  0  0
   -6.7827    3.4636   -0.5176 H   0  0  0  0  0  0  0  0  0  0  0  0
   -6.8493    1.8008   -1.9005 C   0  0  0  0  0  0  0  0  0  0  0  0
   -7.8835    1.9577   -2.1757 H   0  0  0  0  0  0  0  0  0  0  0  0
   -6.1218    0.7411   -2.4724 C   0  0  0  0  0  0  0  0  0  0  0  0
   -6.6033    0.0849   -3.1841 H   0  0  0  0  0  0  0  0  0  0  0  0
   -4.7747    0.5242   -2.1197 C   0  0  0  0  0  0  0  0  0  0  0  0
   -4.2313   -0.3016   -2.5565 H   0  0  0  0  0  0  0  0  0  0  0  0
   -4.1239    1.3635   -1.1896 C   0  0  0  0  0  0  0  0  0  0  0  0
   -1.0518   -0.1736    1.3843 C   0  0  0  0  0  0  0  0  0  0  0  0
   -0.5371   -0.9586    2.1796 O   0  0  0  0  0  0  0  0  0  0  0  0
   -1.3684    1.0850    1.7170 N   0  0  0  0  0  0  0  0  0  0  0  0
   -1.8376    1.6486    1.0224 H   0  0  0  0  0  0  0  0  0  0  0  0
   -1.1420    1.6678    3.0366 C   0  0  0  0  0  0  0  0  0  0  0  0
   -0.1028    1.5138    3.3337 H   0  0  0  0  0  0  0  0  0  0  0  0
   -1.3574    2.7369    3.0170 H   0  0  0  0  0  0  0  0  0  0  0  0
   -1.7906    1.1817    3.7673 H   0  0  0  0  0  0  0  0  0  0  0  0
  5  6  2  0  0  0  0
  5  7  1  0  0  0  0
  2  3  1  0  0  0  0
  2  4  1  0  0  0  0
  2  5  1  0  0  0  0
  1  2  1  0  0  0  0
 29 30  2  0  0  0  0
 29 31  1  0  0  0  0
 26 27  1  0  0  0  0
 26 28  2  0  0  0  0
 24 25  1  0  0  0  0
 24 26  1  0  0  0  0
 22 23  1  0  0  0  0
 22 24  2  0  0  0  0
 20 21  1  0  0  0  0
 20 22  1  0  0  0  0
 19 20  2  0  0  0  0
 19 28  1  0  0  0  0
 17 18  1  0  0  0  0
 17 19  1  0  0  0  0
 15 16  1  0  0  0  0
 15 17  1  0  0  0  0
 14 15  2  0  0  0  0
 14 28  1  0  0  0  0
 11 12  1  0  0  0  0
 11 13  1  0  0  0  0
 11 14  1  0  0  0  0
  9 10  1  0  0  0  0
  9 11  1  0  0  0  0
  9 29  1  0  0  0  0
  7  8  1  0  0  0  0
  7  9  1  0  0  0  0
 33 34  1  0  0  0  0
 33 35  1  0  0  0  0
 33 36  1  0  0  0  0
 31 32  1  0  0  0  0
 31 33  1  0  0  0  0
M  END
$$$$
default_name
  -OEChem-12212115393D

 36 37  0     1  0  0  0  0  0999 V2000
   -4.0843   -4.0736    1.2944 H   0  0  0  0  0  0  0  0  0  0  0  0
   -4.0342   -3.2816    0.5484 C   0  0  0  0  0  0  0  0  0  0  0  0
   -4.8842   -2.6126    0.6694 H   0  0  0  0  0  0  0  0  0  0  0  0
   -4.0433   -3.7186   -0.4486 H   0  0  0  0  0  0  0  0  0  0  0  0
   -2.7532   -2.5046    0.7444 C   0  0  0  0  0  0  0  0  0  0  0  0
   -1.9803   -2.8096    1.6434 O   0  0  0  0  0  0  0  0  0  0  0  0
   -2.5332   -1.4966   -0.0966 N   0  0  0  0  0  0  0  0  0  0  0  0
   -3.2312   -1.2816   -0.7936 H   0  0  0  0  0  0  0  0  0  0  0  0
   -1.3593   -0.6196   -0.0536 C   0  0  1  0  0  0  0  0  0  0  0  0
   -0.4942   -1.1760   -0.4165 H   0  0  0  0  0  0  0  0  0  0  0  0
   -1.5824    0.5814   -0.9861 C   0  0  0  0  0  0  0  0  0  0  0  0
   -0.6929    1.2135   -0.9644 H   0  0  0  0  0  0  0  0  0  0  0  0
   -1.7001    0.2119   -2.0062 H   0  0  0  0  0  0  0  0  0  0  0  0
   -2.7668    1.4364   -0.6510 C   0  0  0  0  0  0  0  0  0  0  0  0
   -2.7642    2.4838    0.2037 C   0  0  0  0  0  0  0  0  0  0  0  0
   -1.8999    2.8189    0.7666 H   0  0  0  0  0  0  0  0  0  0  0  0
   -4.0170    3.0646    0.2300 N   0  0  0  0  0  0  0  0  0  0  0  0
   -4.2491    3.8625    0.8033 H   0  0  0  0  0  0  0  0  0  0  0  0
   -4.8904    2.4264   -0.6247 C   0  0  0  0  0  0  0  0  0  0  0  0
   -6.2317    2.6504   -0.9667 C   0  0  0  0  0  0  0  0  0  0  0  0
   -6.7827    3.4636   -0.5176 H   0  0  0  0  0  0  0  0  0  0  0  0
   -6.8493    1.8008   -1.9005 C   0  0  0  0  0  0  0  0  0  0  0  0
   -7.8835    1.9577   -2.1757 H   0  0  0  0  0  0  0  0  0  0  0  0
   -6.1218    0.7411   -2.4724 C   0  0  0  0  0  0  0  0  0  0  0  0
   -6.6033    0.0849   -3.1841 H   0  0  0  0  0  0  0  0  0  0  0  0
   -4.7747    0.5242   -2.1197 C   0  0  0  0  0  0  0  0  0  0  0  0
   -4.2313   -0.3016   -2.5565 H   0  0  0  0  0  0  0  0  0  0  0  0
   -4.1239    1.3635   -1.1896 C   0  0  0  0  0  0  0  0  0  0  0  0
   -1.0518   -0.1736    1.3843 C   0  0  0  0  0  0  0  0  0  0  0  0
   -0.3006   -0.8423    2.0929 O   0  0  0  0  0  0  0  0  0  0  0  0
   -1.6333    0.9543    1.8142 N   0  0  0  0  0  0  0  0  0  0  0  0
   -2.2791    1.4152    1.1892 H   0  0  0  0  0  0  0  0  0  0  0  0
   -1.4467    1.5181    3.1482 C   0  0  0  0  0  0  0  0  0  0  0  0
   -0.3803    1.6099    3.3632 H   0  0  0  0  0  0  0  0  0  0  0  0
   -1.9134    2.5020    3.2088 H   0  0  0  0  0  0  0  0  0  0  0  0
   -1.8977    0.8577    3.8907 H   0  0  0  0  0  0  0  0  0  0  0  0
  5  6  2  0  0  0  0
  5  7  1  0  0  0  0
  2  3  1  0  0  0  0
  2  4  1  0  0  0  0
  2  5  1  0  0  0  0
  1  2  1  0  0  0  0
 29 30  2  0  0  0  0
 29 31  1  0  0  0  0
 26 27  1  0  0  0  0
 26 28  2  0  0  0  0
 24 25  1  0  0  0  0
 24 26  1  0  0  0  0
 22 23  1  0  0  0  0
 22 24  2  0  0  0  0
 20 21  1  0  0  0  0
 20 22  1  0  0  0  0
 19 20  2  0  0  0  0
 19 28  1  0  0  0  0
 17 18  1  0  0  0  0
 17 19  1  0  0  0  0
 15 16  1  0  0  0  0
 15 17  1  0  0  0  0
 14 15  2  0  0  0  0
 14 28  1  0  0  0  0
 11 12  1  0  0  0  0
 11 13  1  0  0  0  0
 11 14  1  0  0  0  0
  9 10  1  0  0  0  0
  9 11  1  0  0  0  0
  9 29  1  0  0  0  0
  7  8  1  0  0  0  0
  7  9  1  0  0  0  0
 33 34  1  0  0  0  0
 33 35  1  0  0  0  0
 33 36  1  0  0  0  0
 31 32  1  0  0  0  0
 31 33  1  0  0  0  0
M  END
$$$$
default_name
  -OEChem-12212115393D

 36 37  0     1  0  0  0  0  0999 V2000
   -4.0843   -4.0736    1.2944 H   0  0  0  0  0  0  0  0  0  0  0  0
   -4.0342   -3.2816    0.5484 C   0  0  0  0  0  0  0  0  0  0  0  0
   -4.8842   -2.6126    0.6694 H   0  0  0  0  0  0  0  0  0  0  0  0
   -4.0433   -3.7186   -0.4486 H   0  0  0  0  0  0  0  0  0  0  0  0
   -2.7532   -2.5046    0.7444 C   0  0  0  0  0  0  0  0  0  0  0  0
   -1.9803   -2.8096    1.6434 O   0  0  0  0  0  0  0  0  0  0  0  0
   -2.5332   -1.4966   -0.0966 N   0  0  0  0  0  0  0  0  0  0  0  0
   -3.2312   -1.2816   -0.7936 H   0  0  0  0  0  0  0  0  0  0  0  0
   -1.3593   -0.6196   -0.0536 C   0  0  1  0  0  0  0  0  0  0  0  0
   -0.4942   -1.1760   -0.4165 H   0  0  0  0  0  0  0  0  0  0  0  0
   -1.5824    0.5814   -0.9861 C   0  0  0  0  0  0  0  0  0  0  0  0
   -0.6929    1.2135   -0.9644 H   0  0  0  0  0  0  0  0  0  0  0  0
   -1.7001    0.2119   -2.0062 H   0  0  0  0  0  0  0  0  0  0  0  0
   -2.7668    1.4364   -0.6510 C   0  0  0  0  0  0  0  0  0  0  0  0
   -2.7642    2.4838    0.2037 C   0  0  0  0  0  0  0  0  0  0  0  0
   -1.8999    2.8189    0.7666 H   0  0  0  0  0  0  0  0  0  0  0  0
   -4.0170    3.0646    0.2300 N   0  0  0  0  0  0  0  0  0  0  0  0
   -4.2491    3.8625    0.8033 H   0  0  0  0  0  0  0  0  0  0  0  0
   -4.8904    2.4264   -0.6247 C   0  0  0  0  0  0  0  0  0  0  0  0
   -6.2317    2.6504   -0.9667 C   0  0  0  0  0  0  0  0  0  0  0  0
   -6.7827    3.4636   -0.5176 H   0  0  0  0  0  0  0  0  0  0  0  0
   -6.8493    1.8008   -1.9005 C   0  0  0  0  0  0  0  0  0  0  0  0
   -7.8835    1.9577   -2.1757 H   0  0  0  0  0  0  0  0  0  0  0  0
   -6.1218    0.7411   -2.4724 C   0  0  0  0  0  0  0  0  0  0  0  0
   -6.6033    0.0849   -3.1841 H   0  0  0  0  0  0  0  0  0  0  0  0
   -4.7747    0.5242   -2.1197 C   0  0  0  0  0  0  0  0  0  0  0  0
   -4.2313   -0.3016   -2.5565 H   0  0  0  0  0  0  0  0  0  0  0  0
   -4.1239    1.3635   -1.1896 C   0  0  0  0  0  0  0  0  0  0  0  0
   -1.0518   -0.1736    1.3843 C   0  0  0  0  0  0  0  0  0  0  0  0
   -0.1067   -0.6681    1.9974 O   0  0  0  0  0  0  0  0  0  0  0  0
   -1.8501    0.7588    1.9212 N   0  0  0  0  0  0  0  0  0  0  0  0
   -2.6366    1.0743    1.3714 H   0  0  0  0  0  0  0  0  0  0  0  0
   -1.6963    1.2938    3.2712 C   0  0  0  0  0  0  0  0  0  0  0  0
   -0.6694    1.6341    3.4175 H   0  0  0  0  0  0  0  0  0  0  0  0
   -2.3792    2.1305    3.4237 H   0  0  0  0  0  0  0  0  0  0  0  0
   -1.9134    0.5123    4.0012 H   0  0  0  0  0  0  0  0  0  0  0  0
  5  6  2  0  0  0  0
  5  7  1  0  0  0  0
  2  3  1  0  0  0  0
  2  4  1  0  0  0  0
  2  5  1  0  0  0  0
  1  2  1  0  0  0  0
 29 30  2  0  0  0  0
 29 31  1  0  0  0  0
 26 27  1  0  0  0  0
 26 28  2  0  0  0  0
 24 25  1  0  0  0  0
 24 26  1  0  0  0  0
 22 23  1  0  0  0  0
 22 24  2  0  0  0  0
 20 21  1  0  0  0  0
 20 22  1  0  0  0  0
 19 20  2  0  0  0  0
 19 28  1  0  0  0  0
 17 18  1  0  0  0  0
 17 19  1  0  0  0  0
 15 16  1  0  0  0  0
 15 17  1  0  0  0  0
 14 15  2  0  0  0  0
 14 28  1  0  0  0  0
 11 12  1  0  0  0  0
 11 13  1  0  0  0  0
 11 14  1  0  0  0  0
  9 10  1  0  0  0  0
  9 11  1  0  0  0  0
  9 29  1  0  0  0  0
  7  8  1  0  0  0  0
  7  9  1  0  0  0  0
 33 34  1  0  0  0  0
 33 35  1  0  0  0  0
 33 36  1  0  0  0  0
 31 32  1  0  0  0  0
 31 33  1  0  0  0  0
M  END
$$$$
default_name
  -OEChem-12212115393D

 36 37  0     1  0  0  0  0  0999 V2000
   -4.0843   -4.0736    1.2944 H   0  0  0  0  0  0  0  0  0  0  0  0
   -4.0342   -3.2816    0.5484 C   0  0  0  0  0  0  0  0  0  0  0  0
   -4.8842   -2.6126    0.6694 H   0  0  0  0  0  0  0  0  0  0  0  0
   -4.0433   -3.7186   -0.4486 H   0  0  0  0  0  0  0  0  0  0  0  0
   -2.7532   -2.5046    0.7444 C   0  0  0  0  0  0  0  0  0  0  0  0
   -1.9803   -2.8096    1.6434 O   0  0  0  0  0  0  0  0  0  0  0  0
   -2.5332   -1.4966   -0.0966 N   0  0  0  0  0  0  0  0  0  0  0  0
   -3.2312   -1.2816   -0.7936 H   0  0  0  0  0  0  0  0  0  0  0  0
   -1.3593   -0.6196   -0.0536 C   0  0  1  0  0  0  0  0  0  0  0  0
   -0.4942   -1.1760   -0.4165 H   0  0  0  0  0  0  0  0  0  0  0  0
   -1.5824    0.5814   -0.9861 C   0  0  0  0  0  0  0  0  0  0  0  0
   -0.6929    1.2135   -0.9644 H   0  0  0  0  0  0  0  0  0  0  0  0
   -1.7001    0.2119   -2.0062 H   0  0  0  0  0  0  0  0  0  0  0  0
   -2.7668    1.4364   -0.6510 C   0  0  0  0  0  0  0  0  0  0  0  0
   -2.7642    2.4838    0.2037 C   0  0  0  0  0  0  0  0  0  0  0  0
   -1.8999    2.8189    0.7666 H   0  0  0  0  0  0  0  0  0  0  0  0
   -4.0170    3.0646    0.2300 N   0  0  0  0  0  0  0  0  0  0  0  0
   -4.2491    3.8625    0.8033 H   0  0  0  0  0  0  0  0  0  0  0  0
   -4.8904    2.4264   -0.6247 C   0  0  0  0  0  0  0  0  0  0  0  0
   -6.2317    2.6504   -0.9667 C   0  0  0  0  0  0  0  0  0  0  0  0
   -6.7827    3.4636   -0.5176 H   0  0  0  0  0  0  0  0  0  0  0  0
   -6.8493    1.8008   -1.9005 C   0  0  0  0  0  0  0  0  0  0  0  0
   -7.8835    1.9577   -2.1757 H   0  0  0  0  0  0  0  0  0  0  0  0
   -6.1218    0.7411   -2.4724 C   0  0  0  0  0  0  0  0  0  0  0  0
   -6.6033    0.0849   -3.1841 H   0  0  0  0  0  0  0  0  0  0  0  0
   -4.7747    0.5242   -2.1197 C   0  0  0  0  0  0  0  0  0  0  0  0
   -4.2313   -0.3016   -2.5565 H   0  0  0  0  0  0  0  0  0  0  0  0
   -4.1239    1.3635   -1.1896 C   0  0  0  0  0  0  0  0  0  0  0  0
   -1.0518   -0.1736    1.3843 C   0  0  0  0  0  0  0  0  0  0  0  0
    0.0311   -0.4480    1.8997 O   0  0  0  0  0  0  0  0  0  0  0  0
   -2.0042    0.5119    2.0307 N   0  0  0  0  0  0  0  0  0  0  0  0
   -2.8855    0.6489    1.5566 H   0  0  0  0  0  0  0  0  0  0  0  0
   -1.8739    1.0104    3.3971 C   0  0  0  0  0  0  0  0  0  0  0  0
   -0.9504    1.5845    3.4930 H   0  0  0  0  0  0  0  0  0  0  0  0
   -2.7231    1.6477    3.6470 H   0  0  0  0  0  0  0  0  0  0  0  0
   -1.8367    0.1692    4.0913 H   0  0  0  0  0  0  0  0  0  0  0  0
  5  6  2  0  0  0  0
  5  7  1  0  0  0  0
  2  3  1  0  0  0  0
  2  4  1  0  0  0  0
  2  5  1  0  0  0  0
  1  2  1  0  0  0  0
 29 30  2  0  0  0  0
 29 31  1  0  0  0  0
 26 27  1  0  0  0  0
 26 28  2  0  0  0  0
 24 25  1  0  0  0  0
 24 26  1  0  0  0  0
 22 23  1  0  0  0  0
 22 24  2  0  0  0  0
 20 21  1  0  0  0  0
 20 22  1  0  0  0  0
 19 20  2  0  0  0  0
 19 28  1  0  0  0  0
 17 18  1  0  0  0  0
 17 19  1  0  0  0  0
 15 16  1  0  0  0  0
 15 17  1  0  0  0  0
 14 15  2  0  0  0  0
 14 28  1  0  0  0  0
 11 12  1  0  0  0  0
 11 13  1  0  0  0  0
 11 14  1  0  0  0  0
  9 10  1  0  0  0  0
  9 11  1  0  0  0  0
  9 29  1  0  0  0  0
  7  8  1  0  0  0  0
  7  9  1  0  0  0  0
 33 34  1  0  0  0  0
 33 35  1  0  0  0  0
 33 36  1  0  0  0  0
 31 32  1  0  0  0  0
 31 33  1  0  0  0  0
M  END
$$$$
default_name
  -OEChem-12212115393D

 36 37  0     1  0  0  0  0  0999 V2000
   -4.0843   -4.0736    1.2944 H   0  0  0  0  0  0  0  0  0  0  0  0
   -4.0342   -3.2816    0.5484 C   0  0  0  0  0  0  0  0  0  0  0  0
   -4.8842   -2.6126    0.6694 H   0  0  0  0  0  0  0  0  0  0  0  0
   -4.0433   -3.7186   -0.4486 H   0  0  0  0  0  0  0  0  0  0  0  0
   -2.7532   -2.5046    0.7444 C   0  0  0  0  0  0  0  0  0  0  0  0
   -1.9803   -2.8096    1.6434 O   0  0  0  0  0  0  0  0  0  0  0  0
   -2.5332   -1.4966   -0.0966 N   0  0  0  0  0  0  0  0  0  0  0  0
   -3.2312   -1.2816   -0.7936 H   0  0  0  0  0  0  0  0  0  0  0  0
   -1.3593   -0.6196   -0.0536 C   0  0  1  0  0  0  0  0  0  0  0  0
   -0.4942   -1.1760   -0.4165 H   0  0  0  0  0  0  0  0  0  0  0  0
   -1.5824    0.5814   -0.9861 C   0  0  0  0  0  0  0  0  0  0  0  0
   -0.6929    1.2135   -0.9644 H   0  0  0  0  0  0  0  0  0  0  0  0
   -1.7001    0.2119   -2.0062 H   0  0  0  0  0  0  0  0  0  0  0  0
   -2.7668    1.4364   -0.6510 C   0  0  0  0  0  0  0  0  0  0  0  0
   -2.7642    2.4838    0.2037 C   0  0  0  0  0  0  0  0  0  0  0  0
   -1.8999    2.8189    0.7666 H   0  0  0  0  0  0  0  0  0  0  0  0
   -4.0170    3.0646    0.2300 N   0  0  0  0  0  0  0  0  0  0  0  0
   -4.2491    3.8625    0.8033 H   0  0  0  0  0  0  0  0  0  0  0  0
   -4.8904    2.4264   -0.6247 C   0  0  0  0  0  0  0  0  0  0  0  0
   -6.2317    2.6504   -0.9667 C   0  0  0  0  0  0  0  0  0  0  0  0
   -6.7827    3.4636   -0.5176 H   0  0  0  0  0  0  0  0  0  0  0  0
   -6.8493    1.8008   -1.9005 C   0  0  0  0  0  0  0  0  0  0  0  0
   -7.8835    1.9577   -2.1757 H   0  0  0  0  0  0  0  0  0  0  0  0
   -6.1218    0.7411   -2.4724 C   0  0  0  0  0  0  0  0  0  0  0  0
   -6.6033    0.0849   -3.1841 H   0  0  0  0  0  0  0  0  0  0  0  0
   -4.7747    0.5242   -2.1197 C   0  0  0  0  0  0  0  0  0  0  0  0
   -4.2313   -0.3016   -2.5565 H   0  0  0  0  0  0  0  0  0  0  0  0
   -4.1239    1.3635   -1.1896 C   0  0  0  0  0  0  0  0  0  0  0  0
   -1.0518   -0.1736    1.3843 C   0  0  0  0  0  0  0  0  0  0  0  0
    0.1037   -0.1970    1.8063 O   0  0  0  0  0  0  0  0  0  0  0  0
   -2.0851    0.2305    2.1353 N   0  0  0  0  0  0  0  0  0  0  0  0
   -3.0091    0.1681    1.7321 H   0  0  0  0  0  0  0  0  0  0  0  0
   -1.9673    0.6871    3.5174 C   0  0  0  0  0  0  0  0  0  0  0  0
   -1.2041    1.4647    3.5844 H   0  0  0  0  0  0  0  0  0  0  0  0
   -2.9215    1.0866    3.8635 H   0  0  0  0  0  0  0  0  0  0  0  0
   -1.6727   -0.1483    4.1547 H   0  0  0  0  0  0  0  0  0  0  0  0
  5  6  2  0  0  0  0
  5  7  1  0  0  0  0
  2  3  1  0  0  0  0
  2  4  1  0  0  0  0
  2  5  1  0  0  0  0
  1  2  1  0  0  0  0
 29 30  2  0  0  0  0
 29 31  1  0  0  0  0
 26 27  1  0  0  0  0
 26 28  2  0  0  0  0
 24 25  1  0  0  0  0
 24 26  1  0  0  0  0
 22 23  1  0  0  0  0
 22 24  2  0  0  0  0
 20 21  1  0  0  0  0
 20 22  1  0  0  0  0
 19 20  2  0  0  0  0
 19 28  1  0  0  0  0
 17 18  1  0  0  0  0
 17 19  1  0  0  0  0
 15 16  1  0  0  0  0
 15 17  1  0  0  0  0
 14 15  2  0  0  0  0
 14 28  1  0  0  0  0
 11 12  1  0  0  0  0
 11 13  1  0  0  0  0
 11 14  1  0  0  0  0
  9 10  1  0  0  0  0
  9 11  1  0  0  0  0
  9 29  1  0  0  0  0
  7  8  1  0  0  0  0
  7  9  1  0  0  0  0
 33 34  1  0  0  0  0
 33 35  1  0  0  0  0
 33 36  1  0  0  0  0
 31 32  1  0  0  0  0
 31 33  1  0  0  0  0
M  END
$$$$
default_name
  -OEChem-12212115393D

 36 37  0     1  0  0  0  0  0999 V2000
   -4.0843   -4.0736    1.2944 H   0  0  0  0  0  0  0  0  0  0  0  0
   -4.0342   -3.2816    0.5484 C   0  0  0  0  0  0  0  0  0  0  0  0
   -4.8842   -2.6126    0.6694 H   0  0  0  0  0  0  0  0  0  0  0  0
   -4.0433   -3.7186   -0.4486 H   0  0  0  0  0  0  0  0  0  0  0  0
   -2.7532   -2.5046    0.7444 C   0  0  0  0  0  0  0  0  0  0  0  0
   -1.9803   -2.8096    1.6434 O   0  0  0  0  0  0  0  0  0  0  0  0
   -2.5332   -1.4966   -0.0966 N   0  0  0  0  0  0  0  0  0  0  0  0
   -3.2312   -1.2816   -0.7936 H   0  0  0  0  0  0  0  0  0  0  0  0
   -1.3593   -0.6196   -0.0536 C   0  0  1  0  0  0  0  0  0  0  0  0
   -0.4942   -1.1760   -0.4165 H   0  0  0  0  0  0  0  0  0  0  0  0
   -1.5824    0.5814   -0.9861 C   0  0  0  0  0  0  0  0  0  0  0  0
   -0.6929    1.2135   -0.9644 H   0  0  0  0  0  0  0  0  0  0  0  0
   -1.7001    0.2119   -2.0062 H   0  0  0  0  0  0  0  0  0  0  0  0
   -2.7668    1.4364   -0.6510 C   0  0  0  0  0  0  0  0  0  0  0  0
   -2.7642    2.4838    0.2037 C   0  0  0  0  0  0  0  0  0  0  0  0
   -1.8999    2.8189    0.7666 H   0  0  0  0  0  0  0  0  0  0  0  0
   -4.0170    3.0646    0.2300 N   0  0  0  0  0  0  0  0  0  0  0  0
   -4.2491    3.8625    0.8033 H   0  0  0  0  0  0  0  0  0  0  0  0
   -4.8904    2.4264   -0.6247 C   0  0  0  0  0  0  0  0  0  0  0  0
   -6.2317    2.6504   -0.9667 C   0  0  0  0  0  0  0  0  0  0  0  0
   -6.7827    3.4636   -0.5176 H   0  0  0  0  0  0  0  0  0  0  0  0
   -6.8493    1.8008   -1.9005 C   0  0  0  0  0  0  0  0  0  0  0  0
   -7.8835    1.9577   -2.1757 H   0  0  0  0  0  0  0  0  0  0  0  0
   -6.1218    0.7411   -2.4724 C   0  0  0  0  0  0  0  0  0  0  0  0
   -6.6033    0.0849   -3.1841 H   0  0  0  0  0  0  0  0  0  0  0  0
   -4.7747    0.5242   -2.1197 C   0  0  0  0  0  0  0  0  0  0  0  0
   -4.2313   -0.3016   -2.5565 H   0  0  0  0  0  0  0  0  0  0  0  0
   -4.1239    1.3635   -1.1896 C   0  0  0  0  0  0  0  0  0  0  0  0
   -1.0518   -0.1736    1.3843 C   0  0  0  0  0  0  0  0  0  0  0  0
    0.1059    0.0679    1.7236 O   0  0  0  0  0  0  0  0  0  0  0  0
   -2.0871   -0.0664    2.2279 N   0  0  0  0  0  0  0  0  0  0  0  0
   -2.9988   -0.3353    1.8861 H   0  0  0  0  0  0  0  0  0  0  0  0
   -1.9702    0.3459    3.6238 C   0  0  0  0  0  0  0  0  0  0  0  0
   -1.4134    1.2828    3.6856 H   0  0  0  0  0  0  0  0  0  0  0  0
   -2.9609    0.4852    4.0585 H   0  0  0  0  0  0  0  0  0  0  0  0
   -1.4326   -0.4186    4.1872 H   0  0  0  0  0  0  0  0  0  0  0  0
  5  6  2  0  0  0  0
  5  7  1  0  0  0  0
  2  3  1  0  0  0  0
  2  4  1  0  0  0  0
  2  5  1  0  0  0  0
  1  2  1  0  0  0  0
 29 30  2  0  0  0  0
 29 31  1  0  0  0  0
 26 27  1  0  0  0  0
 26 28  2  0  0  0  0
 24 25  1  0  0  0  0
 24 26  1  0  0  0  0
 22 23  1  0  0  0  0
 22 24  2  0  0  0  0
 20 21  1  0  0  0  0
 20 22  1  0  0  0  0
 19 20  2  0  0  0  0
 19 28  1  0  0  0  0
 17 18  1  0  0  0  0
 17 19  1  0  0  0  0
 15 16  1  0  0  0  0
 15 17  1  0  0  0  0
 14 15  2  0  0  0  0
 14 28  1  0  0  0  0
 11 12  1  0  0  0  0
 11 13  1  0  0  0  0
 11 14  1  0  0  0  0
  9 10  1  0  0  0  0
  9 11  1  0  0  0  0
  9 29  1  0  0  0  0
  7  8  1  0  0  0  0
  7  9  1  0  0  0  0
 33 34  1  0  0  0  0
 33 35  1  0  0  0  0
 33 36  1  0  0  0  0
 31 32  1  0  0  0  0
 31 33  1  0  0  0  0
M  END
$$$$
default_name
  -OEChem-12212115393D

 36 37  0     1  0  0  0  0  0999 V2000
   -4.0843   -4.0736    1.2944 H   0  0  0  0  0  0  0  0  0  0  0  0
   -4.0342   -3.2816    0.5484 C   0  0  0  0  0  0  0  0  0  0  0  0
   -4.8842   -2.6126    0.6694 H   0  0  0  0  0  0  0  0  0  0  0  0
   -4.0433   -3.7186   -0.4486 H   0  0  0  0  0  0  0  0  0  0  0  0
   -2.7532   -2.5046    0.7444 C   0  0  0  0  0  0  0  0  0  0  0  0
   -1.9803   -2.8096    1.6434 O   0  0  0  0  0  0  0  0  0  0  0  0
   -2.5332   -1.4966   -0.0966 N   0  0  0  0  0  0  0  0  0  0  0  0
   -3.2312   -1.2816   -0.7936 H   0  0  0  0  0  0  0  0  0  0  0  0
   -1.3593   -0.6196   -0.0536 C   0  0  1  0  0  0  0  0  0  0  0  0
   -0.4942   -1.1760   -0.4165 H   0  0  0  0  0  0  0  0  0  0  0  0
   -1.5824    0.5814   -0.9861 C   0  0  0  0  0  0  0  0  0  0  0  0
   -0.6929    1.2135   -0.9644 H   0  0  0  0  0  0  0  0  0  0  0  0
   -1.7001    0.2119   -2.0062 H   0  0  0  0  0  0  0  0  0  0  0  0
   -2.7668    1.4364   -0.6510 C   0  0  0  0  0  0  0  0  0  0  0  0
   -2.7642    2.4838    0.2037 C   0  0  0  0  0  0  0  0  0  0  0  0
   -1.8999    2.8189    0.7666 H   0  0  0  0  0  0  0  0  0  0  0  0
   -4.0170    3.0646    0.2300 N   0  0  0  0  0  0  0  0  0  0  0  0
   -4.2491    3.8625    0.8033 H   0  0  0  0  0  0  0  0  0  0  0  0
   -4.8904    2.4264   -0.6247 C   0  0  0  0  0  0  0  0  0  0  0  0
   -6.2317    2.6504   -0.9667 C   0  0  0  0  0  0  0  0  0  0  0  0
   -6.7827    3.4636   -0.5176 H   0  0  0  0  0  0  0  0  0  0  0  0
   -6.8493    1.8008   -1.9005 C   0  0  0  0  0  0  0  0  0  0  0  0
   -7.8835    1.9577   -2.1757 H   0  0  0  0  0  0  0  0  0  0  0  0
   -6.1218    0.7411   -2.4724 C   0  0  0  0  0  0  0  0  0  0  0  0
   -6.6033    0.0849   -3.1841 H   0  0  0  0  0  0  0  0  0  0  0  0
   -4.7747    0.5242   -2.1197 C   0  0  0  0  0  0  0  0  0  0  0  0
   -4.2313   -0.3016   -2.5565 H   0  0  0  0  0  0  0  0  0  0  0  0
   -4.1239    1.3635   -1.1896 C   0  0  0  0  0  0  0  0  0  0  0  0
   -1.0518   -0.1736    1.3843 C   0  0  0  0  0  0  0  0  0  0  0  0
    0.0377    0.3286    1.6573 O   0  0  0  0  0  0  0  0  0  0  0  0
   -2.0102   -0.3584    2.3020 N   0  0  0  0  0  0  0  0  0  0  0  0
   -2.8554   -0.8270    2.0080 H   0  0  0  0  0  0  0  0  0  0  0  0
   -1.8824    0.0101    3.7092 C   0  0  0  0  0  0  0  0  0  0  0  0
   -1.5638    1.0512    3.7896 H   0  0  0  0  0  0  0  0  0  0  0  0
   -2.8387   -0.1153    4.2186 H   0  0  0  0  0  0  0  0  0  0  0  0
   -1.1328   -0.6232    4.1865 H   0  0  0  0  0  0  0  0  0  0  0  0
  5  6  2  0  0  0  0
  5  7  1  0  0  0  0
  2  3  1  0  0  0  0
  2  4  1  0  0  0  0
  2  5  1  0  0  0  0
  1  2  1  0  0  0  0
 29 30  2  0  0  0  0
 29 31  1  0  0  0  0
 26 27  1  0  0  0  0
 26 28  2  0  0  0  0
 24 25  1  0  0  0  0
 24 26  1  0  0  0  0
 22 23  1  0  0  0  0
 22 24  2  0  0  0  0
 20 21  1  0  0  0  0
 20 22  1  0  0  0  0
 19 20  2  0  0  0  0
 19 28  1  0  0  0  0
 17 18  1  0  0  0  0
 17 19  1  0  0  0  0
 15 16  1  0  0  0  0
 15 17  1  0  0  0  0
 14 15  2  0  0  0  0
 14 28  1  0  0  0  0
 11 12  1  0  0  0  0
 11 13  1  0  0  0  0
 11 14  1  0  0  0  0
  9 10  1  0  0  0  0
  9 11  1  0  0  0  0
  9 29  1  0  0  0  0
  7  8  1  0  0  0  0
  7  9  1  0  0  0  0
 33 34  1  0  0  0  0
 33 35  1  0  0  0  0
 33 36  1  0  0  0  0
 31 32  1  0  0  0  0
 31 33  1  0  0  0  0
M  END
$$$$
default_name
  -OEChem-12212115393D

 36 37  0     1  0  0  0  0  0999 V2000
   -4.0843   -4.0736    1.2944 H   0  0  0  0  0  0  0  0  0  0  0  0
   -4.0342   -3.2816    0.5484 C   0  0  0  0  0  0  0  0  0  0  0  0
   -4.8842   -2.6126    0.6694 H   0  0  0  0  0  0  0  0  0  0  0  0
   -4.0433   -3.7186   -0.4486 H   0  0  0  0  0  0  0  0  0  0  0  0
   -2.7532   -2.5046    0.7444 C   0  0  0  0  0  0  0  0  0  0  0  0
   -1.9803   -2.8096    1.6434 O   0  0  0  0  0  0  0  0  0  0  0  0
   -2.5332   -1.4966   -0.0966 N   0  0  0  0  0  0  0  0  0  0  0  0
   -3.2312   -1.2816   -0.7936 H   0  0  0  0  0  0  0  0  0  0  0  0
   -1.3593   -0.6196   -0.0536 C   0  0  1  0  0  0  0  0  0  0  0  0
   -0.4942   -1.1760   -0.4165 H   0  0  0  0  0  0  0  0  0  0  0  0
   -1.5824    0.5814   -0.9861 C   0  0  0  0  0  0  0  0  0  0  0  0
   -0.6929    1.2135   -0.9644 H   0  0  0  0  0  0  0  0  0  0  0  0
   -1.7001    0.2119   -2.0062 H   0  0  0  0  0  0  0  0  0  0  0  0
   -2.7668    1.4364   -0.6510 C   0  0  0  0  0  0  0  0  0  0  0  0
   -2.7642    2.4838    0.2037 C   0  0  0  0  0  0  0  0  0  0  0  0
   -1.8999    2.8189    0.7666 H   0  0  0  0  0  0  0  0  0  0  0  0
   -4.0170    3.0646    0.2300 N   0  0  0  0  0  0  0  0  0  0  0  0
   -4.2491    3.8625    0.8033 H   0  0  0  0  0  0  0  0  0  0  0  0
   -4.8904    2.4264   -0.6247 C   0  0  0  0  0  0  0  0  0  0  0  0
   -6.2317    2.6504   -0.9667 C   0  0  0  0  0  0  0  0  0  0  0  0
   -6.7827    3.4636   -0.5176 H   0  0  0  0  0  0  0  0  0  0  0  0
   -6.8493    1.8008   -1.9005 C   0  0  0  0  0  0  0  0  0  0  0  0
   -7.8835    1.9577   -2.1757 H   0  0  0  0  0  0  0  0  0  0  0  0
   -6.1218    0.7411   -2.4724 C   0  0  0  0  0  0  0  0  0  0  0  0
   -6.6033    0.0849   -3.1841 H   0  0  0  0  0  0  0  0  0  0  0  0
   -4.7747    0.5242   -2.1197 C   0  0  0  0  0  0  0  0  0  0  0  0
   -4.2313   -0.3016   -2.5565 H   0  0  0  0  0  0  0  0  0  0  0  0
   -4.1239    1.3635   -1.1896 C   0  0  0  0  0  0  0  0  0  0  0  0
   -1.0518   -0.1736    1.3843 C   0  0  0  0  0  0  0  0  0  0  0  0
   -0.0963    0.5674    1.6119 O   0  0  0  0  0  0  0  0  0  0  0  0
   -1.8596   -0.6257    2.3528 N   0  0  0  0  0  0  0  0  0  0  0  0
   -2.5886   -1.2735    2.0894 H   0  0  0  0  0  0  0  0  0  0  0  0
   -1.7099   -0.2973    3.7677 C   0  0  0  0  0  0  0  0  0  0  0  0
   -1.6452    0.7856    3.8894 H   0  0  0  0  0  0  0  0  0  0  0  0
   -2.5632   -0.6740    4.3331 H   0  0  0  0  0  0  0  0  0  0  0  0
   -0.7937   -0.7482    4.1528 H   0  0  0  0  0  0  0  0  0  0  0  0
  5  6  2  0  0  0  0
  5  7  1  0  0  0  0
  2  3  1  0  0  0  0
  2  4  1  0  0  0  0
  2  5  1  0  0  0  0
  1  2  1  0  0  0  0
 29 30  2  0  0  0  0
 29 31  1  0  0  0  0
 26 27  1  0  0  0  0
 26 28  2  0  0  0  0
 24 25  1  0  0  0  0
 24 26  1  0  0  0  0
 22 23  1  0  0  0  0
 22 24  2  0  0  0  0
 20 21  1  0  0  0  0
 20 22  1  0  0  0  0
 19 20  2  0  0  0  0
 19 28  1  0  0  0  0
 17 18  1  0  0  0  0
 17 19  1  0  0  0  0
 15 16  1  0  0  0  0
 15 17  1  0  0  0  0
 14 15  2  0  0  0  0
 14 28  1  0  0  0  0
 11 12  1  0  0  0  0
 11 13  1  0  0  0  0
 11 14  1  0  0  0  0
  9 10  1  0  0  0  0
  9 11  1  0  0  0  0
  9 29  1  0  0  0  0
  7  8  1  0  0  0  0
  7  9  1  0  0  0  0
 33 34  1  0  0  0  0
 33 35  1  0  0  0  0
 33 36  1  0  0  0  0
 31 32  1  0  0  0  0
 31 33  1  0  0  0  0
M  END
$$$$
default_name
  -OEChem-12212115393D

 36 37  0     1  0  0  0  0  0999 V2000
   -4.0843   -4.0736    1.2944 H   0  0  0  0  0  0  0  0  0  0  0  0
   -4.0342   -3.2816    0.5484 C   0  0  0  0  0  0  0  0  0  0  0  0
   -4.8842   -2.6126    0.6694 H   0  0  0  0  0  0  0  0  0  0  0  0
   -4.0433   -3.7186   -0.4486 H   0  0  0  0  0  0  0  0  0  0  0  0
   -2.7532   -2.5046    0.7444 C   0  0  0  0  0  0  0  0  0  0  0  0
   -1.9803   -2.8096    1.6434 O   0  0  0  0  0  0  0  0  0  0  0  0
   -2.5332   -1.4966   -0.0966 N   0  0  0  0  0  0  0  0  0  0  0  0
   -3.2312   -1.2816   -0.7936 H   0  0  0  0  0  0  0  0  0  0  0  0
   -1.3593   -0.6196   -0.0536 C   0  0  1  0  0  0  0  0  0  0  0  0
   -0.4942   -1.1760   -0.4165 H   0  0  0  0  0  0  0  0  0  0  0  0
   -1.5824    0.5814   -0.9861 C   0  0  0  0  0  0  0  0  0  0  0  0
   -0.6929    1.2135   -0.9644 H   0  0  0  0  0  0  0  0  0  0  0  0
   -1.7001    0.2119   -2.0062 H   0  0  0  0  0  0  0  0  0  0  0  0
   -2.7668    1.4364   -0.6510 C   0  0  0  0  0  0  0  0  0  0  0  0
   -2.7642    2.4838    0.2037 C   0  0  0  0  0  0  0  0  0  0  0  0
   -1.8999    2.8189    0.7666 H   0  0  0  0  0  0  0  0  0  0  0  0
   -4.0170    3.0646    0.2300 N   0  0  0  0  0  0  0  0  0  0  0  0
   -4.2491    3.8625    0.8033 H   0  0  0  0  0  0  0  0  0  0  0  0
   -4.8904    2.4264   -0.6247 C   0  0  0  0  0  0  0  0  0  0  0  0
   -6.2317    2.6504   -0.9667 C   0  0  0  0  0  0  0  0  0  0  0  0
   -6.7827    3.4636   -0.5176 H   0  0  0  0  0  0  0  0  0  0  0  0
   -6.8493    1.8008   -1.9005 C   0  0  0  0  0  0  0  0  0  0  0  0
   -7.8835    1.9577   -2.1757 H   0  0  0  0  0  0  0  0  0  0  0  0
   -6.1218    0.7411   -2.4724 C   0  0  0  0  0  0  0  0  0  0  0  0
   -6.6033    0.0849   -3.1841 H   0  0  0  0  0  0  0  0  0  0  0  0
   -4.7747    0.5242   -2.1197 C   0  0  0  0  0  0  0  0  0  0  0  0
   -4.2313   -0.3016   -2.5565 H   0  0  0  0  0  0  0  0  0  0  0  0
   -4.1239    1.3635   -1.1896 C   0  0  0  0  0  0  0  0  0  0  0  0
   -1.0518   -0.1736    1.3843 C   0  0  0  0  0  0  0  0  0  0  0  0
   -0.2870    0.7678    1.5905 O   0  0  0  0  0  0  0  0  0  0  0  0
   -1.6457   -0.8501    2.3766 N   0  0  0  0  0  0  0  0  0  0  0  0
   -2.2166   -1.6444    2.1250 H   0  0  0  0  0  0  0  0  0  0  0  0
   -1.4643   -0.5555    3.7953 C   0  0  0  0  0  0  0  0  0  0  0  0
   -1.6520    0.5042    3.9782 H   0  0  0  0  0  0  0  0  0  0  0  0
   -2.1532   -1.1529    4.3939 H   0  0  0  0  0  0  0  0  0  0  0  0
   -0.4385   -0.7850    4.0882 H   0  0  0  0  0  0  0  0  0  0  0  0
  5  6  2  0  0  0  0
  5  7  1  0  0  0  0
  2  3  1  0  0  0  0
  2  4  1  0  0  0  0
  2  5  1  0  0  0  0
  1  2  1  0  0  0  0
 29 30  2  0  0  0  0
 29 31  1  0  0  0  0
 26 27  1  0  0  0  0
 26 28  2  0  0  0  0
 24 25  1  0  0  0  0
 24 26  1  0  0  0  0
 22 23  1  0  0  0  0
 22 24  2  0  0  0  0
 20 21  1  0  0  0  0
 20 22  1  0  0  0  0
 19 20  2  0  0  0  0
 19 28  1  0  0  0  0
 17 18  1  0  0  0  0
 17 19  1  0  0  0  0
 15 16  1  0  0  0  0
 15 17  1  0  0  0  0
 14 15  2  0  0  0  0
 14 28  1  0  0  0  0
 11 12  1  0  0  0  0
 11 13  1  0  0  0  0
 11 14  1  0  0  0  0
  9 10  1  0  0  0  0
  9 11  1  0  0  0  0
  9 29  1  0  0  0  0
  7  8  1  0  0  0  0
  7  9  1  0  0  0  0
 33 34  1  0  0  0  0
 33 35  1  0  0  0  0
 33 36  1  0  0  0  0
 31 32  1  0  0  0  0
 31 33  1  0  0  0  0
M  END
$$$$
default_name
  -OEChem-12212115393D

 36 37  0     1  0  0  0  0  0999 V2000
   -4.0843   -4.0736    1.2944 H   0  0  0  0  0  0  0  0  0  0  0  0
   -4.0342   -3.2816    0.5484 C   0  0  0  0  0  0  0  0  0  0  0  0
   -4.8842   -2.6126    0.6694 H   0  0  0  0  0  0  0  0  0  0  0  0
   -4.0433   -3.7186   -0.4486 H   0  0  0  0  0  0  0  0  0  0  0  0
   -2.7532   -2.5046    0.7444 C   0  0  0  0  0  0  0  0  0  0  0  0
   -1.9803   -2.8096    1.6434 O   0  0  0  0  0  0  0  0  0  0  0  0
   -2.5332   -1.4966   -0.0966 N   0  0  0  0  0  0  0  0  0  0  0  0
   -3.2312   -1.2816   -0.7936 H   0  0  0  0  0  0  0  0  0  0  0  0
   -1.3593   -0.6196   -0.0536 C   0  0  1  0  0  0  0  0  0  0  0  0
   -0.4942   -1.1760   -0.4165 H   0  0  0  0  0  0  0  0  0  0  0  0
   -1.5824    0.5814   -0.9861 C   0  0  0  0  0  0  0  0  0  0  0  0
   -0.6929    1.2135   -0.9644 H   0  0  0  0  0  0  0  0  0  0  0  0
   -1.7001    0.2119   -2.0062 H   0  0  0  0  0  0  0  0  0  0  0  0
   -2.7668    1.4364   -0.6510 C   0  0  0  0  0  0  0  0  0  0  0  0
   -2.7642    2.4838    0.2037 C   0  0  0  0  0  0  0  0  0  0  0  0
   -1.8999    2.8189    0.7666 H   0  0  0  0  0  0  0  0  0  0  0  0
   -4.0170    3.0646    0.2300 N   0  0  0  0  0  0  0  0  0  0  0  0
   -4.2491    3.8625    0.8033 H   0  0  0  0  0  0  0  0  0  0  0  0
   -4.8904    2.4264   -0.6247 C   0  0  0  0  0  0  0  0  0  0  0  0
   -6.2317    2.6504   -0.9667 C   0  0  0  0  0  0  0  0  0  0  0  0
   -6.7827    3.4636   -0.5176 H   0  0  0  0  0  0  0  0  0  0  0  0
   -6.8493    1.8008   -1.9005 C   0  0  0  0  0  0  0  0  0  0  0  0
   -7.8835    1.9577   -2.1757 H   0  0  0  0  0  0  0  0  0  0  0  0
   -6.1218    0.7411   -2.4724 C   0  0  0  0  0  0  0  0  0  0  0  0
   -6.6033    0.0849   -3.1841 H   0  0  0  0  0  0  0  0  0  0  0  0
   -4.7747    0.5242   -2.1197 C   0  0  0  0  0  0  0  0  0  0  0  0
   -4.2313   -0.3016   -2.5565 H   0  0  0  0  0  0  0  0  0  0  0  0
   -4.1239    1.3635   -1.1896 C   0  0  0  0  0  0  0  0  0  0  0  0
   -1.0518   -0.1736    1.3843 C   0  0  0  0  0  0  0  0  0  0  0  0
   -0.5214    0.9164    1.5945 O   0  0  0  0  0  0  0  0  0  0  0  0
   -1.3828   -1.0162    2.3719 N   0  0  0  0  0  0  0  0  0  0  0  0
   -1.7648   -1.9145    2.1121 H   0  0  0  0  0  0  0  0  0  0  0  0
   -1.1625   -0.7469    3.7901 C   0  0  0  0  0  0  0  0  0  0  0  0
   -1.5837    0.2262    4.0498 H   0  0  0  0  0  0  0  0  0  0  0  0
   -1.6366   -1.5193    4.3971 H   0  0  0  0  0  0  0  0  0  0  0  0
   -0.0912   -0.7312    3.9973 H   0  0  0  0  0  0  0  0  0  0  0  0
  5  6  2  0  0  0  0
  5  7  1  0  0  0  0
  2  3  1  0  0  0  0
  2  4  1  0  0  0  0
  2  5  1  0  0  0  0
  1  2  1  0  0  0  0
 29 30  2  0  0  0  0
 29 31  1  0  0  0  0
 26 27  1  0  0  0  0
 26 28  2  0  0  0  0
 24 25  1  0  0  0  0
 24 26  1  0  0  0  0
 22 23  1  0  0  0  0
 22 24  2  0  0  0  0
 20 21  1  0  0  0  0
 20 22  1  0  0  0  0
 19 20  2  0  0  0  0
 19 28  1  0  0  0  0
 17 18  1  0  0  0  0
 17 19  1  0  0  0  0
 15 16  1  0  0  0  0
 15 17  1  0  0  0  0
 14 15  2  0  0  0  0
 14 28  1  0  0  0  0
 11 12  1  0  0  0  0
 11 13  1  0  0  0  0
 11 14  1  0  0  0  0
  9 10  1  0  0  0  0
  9 11  1  0  0  0  0
  9 29  1  0  0  0  0
  7  8  1  0  0  0  0
  7  9  1  0  0  0  0
 33 34  1  0  0  0  0
 33 35  1  0  0  0  0
 33 36  1  0  0  0  0
 31 32  1  0  0  0  0
 31 33  1  0  0  0  0
M  END
$$$$
default_name
  -OEChem-12212115393D

 36 37  0     1  0  0  0  0  0999 V2000
   -4.0843   -4.0736    1.2944 H   0  0  0  0  0  0  0  0  0  0  0  0
   -4.0342   -3.2816    0.5484 C   0  0  0  0  0  0  0  0  0  0  0  0
   -4.8842   -2.6126    0.6694 H   0  0  0  0  0  0  0  0  0  0  0  0
   -4.0433   -3.7186   -0.4486 H   0  0  0  0  0  0  0  0  0  0  0  0
   -2.7532   -2.5046    0.7444 C   0  0  0  0  0  0  0  0  0  0  0  0
   -1.9803   -2.8096    1.6434 O   0  0  0  0  0  0  0  0  0  0  0  0
   -2.5332   -1.4966   -0.0966 N   0  0  0  0  0  0  0  0  0  0  0  0
   -3.2312   -1.2816   -0.7936 H   0  0  0  0  0  0  0  0  0  0  0  0
   -1.3593   -0.6196   -0.0536 C   0  0  1  0  0  0  0  0  0  0  0  0
   -0.4942   -1.1760   -0.4165 H   0  0  0  0  0  0  0  0  0  0  0  0
   -1.5824    0.5814   -0.9861 C   0  0  0  0  0  0  0  0  0  0  0  0
   -0.6929    1.2135   -0.9644 H   0  0  0  0  0  0  0  0  0  0  0  0
   -1.7001    0.2119   -2.0062 H   0  0  0  0  0  0  0  0  0  0  0  0
   -2.7668    1.4364   -0.6510 C   0  0  0  0  0  0  0  0  0  0  0  0
   -2.7642    2.4838    0.2037 C   0  0  0  0  0  0  0  0  0  0  0  0
   -1.8999    2.8189    0.7666 H   0  0  0  0  0  0  0  0  0  0  0  0
   -4.0170    3.0646    0.2300 N   0  0  0  0  0  0  0  0  0  0  0  0
   -4.2491    3.8625    0.8033 H   0  0  0  0  0  0  0  0  0  0  0  0
   -4.8904    2.4264   -0.6247 C   0  0  0  0  0  0  0  0  0  0  0  0
   -6.2317    2.6504   -0.9667 C   0  0  0  0  0  0  0  0  0  0  0  0
   -6.7827    3.4636   -0.5176 H   0  0  0  0  0  0  0  0  0  0  0  0
   -6.8493    1.8008   -1.9005 C   0  0  0  0  0  0  0  0  0  0  0  0
   -7.8835    1.9577   -2.1757 H   0  0  0  0  0  0  0  0  0  0  0  0
   -6.1218    0.7411   -2.4724 C   0  0  0  0  0  0  0  0  0  0  0  0
   -6.6033    0.0849   -3.1841 H   0  0  0  0  0  0  0  0  0  0  0  0
   -4.7747    0.5242   -2.1197 C   0  0  0  0  0  0  0  0  0  0  0  0
   -4.2313   -0.3016   -2.5565 H   0  0  0  0  0  0  0  0  0  0  0  0
   -4.1239    1.3635   -1.1896 C   0  0  0  0  0  0  0  0  0  0  0  0
   -1.0518   -0.1736    1.3843 C   0  0  0  0  0  0  0  0  0  0  0  0
   -0.7834    1.0030    1.6237 O   0  0  0  0  0  0  0  0  0  0  0  0
   -1.0891   -1.1128    2.3391 N   0  0  0  0  0  0  0  0  0  0  0  0
   -1.2639   -2.0652    2.0518 H   0  0  0  0  0  0  0  0  0  0  0  0
   -0.8251   -0.8584    3.7525 C   0  0  0  0  0  0  0  0  0  0  0  0
   -1.4450   -0.0296    4.0995 H   0  0  0  0  0  0  0  0  0  0  0  0
   -1.0486   -1.7483    4.3424 H   0  0  0  0  0  0  0  0  0  0  0  0
    0.2243   -0.5904    3.8861 H   0  0  0  0  0  0  0  0  0  0  0  0
  5  6  2  0  0  0  0
  5  7  1  0  0  0  0
  2  3  1  0  0  0  0
  2  4  1  0  0  0  0
  2  5  1  0  0  0  0
  1  2  1  0  0  0  0
 29 30  2  0  0  0  0
 29 31  1  0  0  0  0
 26 27  1  0  0  0  0
 26 28  2  0  0  0  0
 24 25  1  0  0  0  0
 24 26  1  0  0  0  0
 22 23  1  0  0  0  0
 22 24  2  0  0  0  0
 20 21  1  0  0  0  0
 20 22  1  0  0  0  0
 19 20  2  0  0  0  0
 19 28  1  0  0  0  0
 17 18  1  0  0  0  0
 17 19  1  0  0  0  0
 15 16  1  0  0  0  0
 15 17  1  0  0  0  0
 14 15  2  0  0  0  0
 14 28  1  0  0  0  0
 11 12  1  0  0  0  0
 11 13  1  0  0  0  0
 11 14  1  0  0  0  0
  9 10  1  0  0  0  0
  9 11  1  0  0  0  0
  9 29  1  0  0  0  0
  7  8  1  0  0  0  0
  7  9  1  0  0  0  0
 33 34  1  0  0  0  0
 33 35  1  0  0  0  0
 33 36  1  0  0  0  0
 31 32  1  0  0  0  0
 31 33  1  0  0  0  0
M  END
$$$$
default_name
  -OEChem-12212115393D

 36 37  0     1  0  0  0  0  0999 V2000
   -4.0843   -4.0736    1.2944 H   0  0  0  0  0  0  0  0  0  0  0  0
   -4.0342   -3.2816    0.5484 C   0  0  0  0  0  0  0  0  0  0  0  0
   -4.8842   -2.6126    0.6694 H   0  0  0  0  0  0  0  0  0  0  0  0
   -4.0433   -3.7186   -0.4486 H   0  0  0  0  0  0  0  0  0  0  0  0
   -2.7532   -2.5046    0.7444 C   0  0  0  0  0  0  0  0  0  0  0  0
   -1.9803   -2.8096    1.6434 O   0  0  0  0  0  0  0  0  0  0  0  0
   -2.5332   -1.4966   -0.0966 N   0  0  0  0  0  0  0  0  0  0  0  0
   -3.2312   -1.2816   -0.7936 H   0  0  0  0  0  0  0  0  0  0  0  0
   -1.3593   -0.6196   -0.0536 C   0  0  1  0  0  0  0  0  0  0  0  0
   -0.4942   -1.1760   -0.4165 H   0  0  0  0  0  0  0  0  0  0  0  0
   -1.5824    0.5814   -0.9861 C   0  0  0  0  0  0  0  0  0  0  0  0
   -0.6929    1.2135   -0.9644 H   0  0  0  0  0  0  0  0  0  0  0  0
   -1.7001    0.2119   -2.0062 H   0  0  0  0  0  0  0  0  0  0  0  0
   -2.7668    1.4364   -0.6510 C   0  0  0  0  0  0  0  0  0  0  0  0
   -2.7642    2.4838    0.2037 C   0  0  0  0  0  0  0  0  0  0  0  0
   -1.8999    2.8189    0.7666 H   0  0  0  0  0  0  0  0  0  0  0  0
   -4.0170    3.0646    0.2300 N   0  0  0  0  0  0  0  0  0  0  0  0
   -4.2491    3.8625    0.8033 H   0  0  0  0  0  0  0  0  0  0  0  0
   -4.8904    2.4264   -0.6247 C   0  0  0  0  0  0  0  0  0  0  0  0
   -6.2317    2.6504   -0.9667 C   0  0  0  0  0  0  0  0  0  0  0  0
   -6.7827    3.4636   -0.5176 H   0  0  0  0  0  0  0  0  0  0  0  0
   -6.8493    1.8008   -1.9005 C   0  0  0  0  0  0  0  0  0  0  0  0
   -7.8835    1.9577   -2.1757 H   0  0  0  0  0  0  0  0  0  0  0  0
   -6.1218    0.7411   -2.4724 C   0  0  0  0  0  0  0  0  0  0  0  0
   -6.6033    0.0849   -3.1841 H   0  0  0  0  0  0  0  0  0  0  0  0
   -4.7747    0.5242   -2.1197 C   0  0  0  0  0  0  0  0  0  0  0  0
   -4.2313   -0.3016   -2.5565 H   0  0  0  0  0  0  0  0  0  0  0  0
   -4.1239    1.3635   -1.1896 C   0  0  0  0  0  0  0  0  0  0  0  0
   -1.0518   -0.1736    1.3843 C   0  0  0  0  0  0  0  0  0  0  0  0
   -1.0553    1.0216    1.6761 O   0  0  0  0  0  0  0  0  0  0  0  0
   -0.7844   -1.1332    2.2802 N   0  0  0  0  0  0  0  0  0  0  0  0
   -0.7482   -2.0864    1.9480 H   0  0  0  0  0  0  0  0  0  0  0  0
   -0.4749   -0.8825    3.6851 C   0  0  0  0  0  0  0  0  0  0  0  0
   -1.2454   -0.2456    4.1238 H   0  0  0  0  0  0  0  0  0  0  0  0
   -0.4293   -1.8242    4.2335 H   0  0  0  0  0  0  0  0  0  0  0  0
    0.4866   -0.3723    3.7624 H   0  0  0  0  0  0  0  0  0  0  0  0
  5  6  2  0  0  0  0
  5  7  1  0  0  0  0
  2  3  1  0  0  0  0
  2  4  1  0  0  0  0
  2  5  1  0  0  0  0
  1  2  1  0  0  0  0
 29 30  2  0  0  0  0
 29 31  1  0  0  0  0
 26 27  1  0  0  0  0
 26 28  2  0  0  0  0
 24 25  1  0  0  0  0
 24 26  1  0  0  0  0
 22 23  1  0  0  0  0
 22 24  2  0  0  0  0
 20 21  1  0  0  0  0
 20 22  1  0  0  0  0
 19 20  2  0  0  0  0
 19 28  1  0  0  0  0
 17 18  1  0  0  0  0
 17 19  1  0  0  0  0
 15 16  1  0  0  0  0
 15 17  1  0  0  0  0
 14 15  2  0  0  0  0
 14 28  1  0  0  0  0
 11 12  1  0  0  0  0
 11 13  1  0  0  0  0
 11 14  1  0  0  0  0
  9 10  1  0  0  0  0
  9 11  1  0  0  0  0
  9 29  1  0  0  0  0
  7  8  1  0  0  0  0
  7  9  1  0  0  0  0
 33 34  1  0  0  0  0
 33 35  1  0  0  0  0
 33 36  1  0  0  0  0
 31 32  1  0  0  0  0
 31 33  1  0  0  0  0
M  END
$$$$
default_name
  -OEChem-12212115393D

 36 37  0     1  0  0  0  0  0999 V2000
   -4.0843   -4.0736    1.2944 H   0  0  0  0  0  0  0  0  0  0  0  0
   -4.0342   -3.2816    0.5484 C   0  0  0  0  0  0  0  0  0  0  0  0
   -4.8842   -2.6126    0.6694 H   0  0  0  0  0  0  0  0  0  0  0  0
   -4.0433   -3.7186   -0.4486 H   0  0  0  0  0  0  0  0  0  0  0  0
   -2.7532   -2.5046    0.7444 C   0  0  0  0  0  0  0  0  0  0  0  0
   -1.9803   -2.8096    1.6434 O   0  0  0  0  0  0  0  0  0  0  0  0
   -2.5332   -1.4966   -0.0966 N   0  0  0  0  0  0  0  0  0  0  0  0
   -3.2312   -1.2816   -0.7936 H   0  0  0  0  0  0  0  0  0  0  0  0
   -1.3593   -0.6196   -0.0536 C   0  0  1  0  0  0  0  0  0  0  0  0
   -0.4942   -1.1760   -0.4165 H   0  0  0  0  0  0  0  0  0  0  0  0
   -1.5824    0.5814   -0.9861 C   0  0  0  0  0  0  0  0  0  0  0  0
   -0.6929    1.2135   -0.9644 H   0  0  0  0  0  0  0  0  0  0  0  0
   -1.7001    0.2119   -2.0062 H   0  0  0  0  0  0  0  0  0  0  0  0
   -2.7668    1.4364   -0.6510 C   0  0  0  0  0  0  0  0  0  0  0  0
   -2.7642    2.4838    0.2037 C   0  0  0  0  0  0  0  0  0  0  0  0
   -1.8999    2.8189    0.7666 H   0  0  0  0  0  0  0  0  0  0  0  0
   -4.0170    3.0646    0.2300 N   0  0  0  0  0  0  0  0  0  0  0  0
   -4.2491    3.8625    0.8033 H   0  0  0  0  0  0  0  0  0  0  0  0
   -4.8904    2.4264   -0.6247 C   0  0  0  0  0  0  0  0  0  0  0  0
   -6.2317    2.6504   -0.9667 C   0  0  0  0  0  0  0  0  0  0  0  0
   -6.7827    3.4636   -0.5176 H   0  0  0  0  0  0  0  0  0  0  0  0
   -6.8493    1.8008   -1.9005 C   0  0  0  0  0  0  0  0  0  0  0  0
   -7.8835    1.9577   -2.1757 H   0  0  0  0  0  0  0  0  0  0  0  0
   -6.1218    0.7411   -2.4724 C   0  0  0  0  0  0  0  0  0  0  0  0
   -6.6033    0.0849   -3.1841 H   0  0  0  0  0  0  0  0  0  0  0  0
   -4.7747    0.5242   -2.1197 C   0  0  0  0  0  0  0  0  0  0  0  0
   -4.2313   -0.3016   -2.5565 H   0  0  0  0  0  0  0  0  0  0  0  0
   -4.1239    1.3635   -1.1896 C   0  0  0  0  0  0  0  0  0  0  0  0
   -1.0518   -0.1736    1.3843 C   0  0  0  0  0  0  0  0  0  0  0  0
   -1.3185    0.9710    1.7481 O   0  0  0  0  0  0  0  0  0  0  0  0
   -0.4896   -1.0761    2.1995 N   0  0  0  0  0  0  0  0  0  0  0  0
   -0.2527   -1.9766    1.8080 H   0  0  0  0  0  0  0  0  0  0  0  0
   -0.1360   -0.8174    3.5924 C   0  0  0  0  0  0  0  0  0  0  0  0
   -0.9985   -0.4072    4.1211 H   0  0  0  0  0  0  0  0  0  0  0  0
    0.1791   -1.7419    4.0779 H   0  0  0  0  0  0  0  0  0  0  0  0
    0.6779   -0.0916    3.6344 H   0  0  0  0  0  0  0  0  0  0  0  0
  5  6  2  0  0  0  0
  5  7  1  0  0  0  0
  2  3  1  0  0  0  0
  2  4  1  0  0  0  0
  2  5  1  0  0  0  0
  1  2  1  0  0  0  0
 29 30  2  0  0  0  0
 29 31  1  0  0  0  0
 26 27  1  0  0  0  0
 26 28  2  0  0  0  0
 24 25  1  0  0  0  0
 24 26  1  0  0  0  0
 22 23  1  0  0  0  0
 22 24  2  0  0  0  0
 20 21  1  0  0  0  0
 20 22  1  0  0  0  0
 19 20  2  0  0  0  0
 19 28  1  0  0  0  0
 17 18  1  0  0  0  0
 17 19  1  0  0  0  0
 15 16  1  0  0  0  0
 15 17  1  0  0  0  0
 14 15  2  0  0  0  0
 14 28  1  0  0  0  0
 11 12  1  0  0  0  0
 11 13  1  0  0  0  0
 11 14  1  0  0  0  0
  9 10  1  0  0  0  0
  9 11  1  0  0  0  0
  9 29  1  0  0  0  0
  7  8  1  0  0  0  0
  7  9  1  0  0  0  0
 33 34  1  0  0  0  0
 33 35  1  0  0  0  0
 33 36  1  0  0  0  0
 31 32  1  0  0  0  0
 31 33  1  0  0  0  0
M  END
$$$$
default_name
  -OEChem-12212115393D

 36 37  0     1  0  0  0  0  0999 V2000
   -4.0843   -4.0736    1.2944 H   0  0  0  0  0  0  0  0  0  0  0  0
   -4.0342   -3.2816    0.5484 C   0  0  0  0  0  0  0  0  0  0  0  0
   -4.8842   -2.6126    0.6694 H   0  0  0  0  0  0  0  0  0  0  0  0
   -4.0433   -3.7186   -0.4486 H   0  0  0  0  0  0  0  0  0  0  0  0
   -2.7532   -2.5046    0.7444 C   0  0  0  0  0  0  0  0  0  0  0  0
   -1.9803   -2.8096    1.6434 O   0  0  0  0  0  0  0  0  0  0  0  0
   -2.5332   -1.4966   -0.0966 N   0  0  0  0  0  0  0  0  0  0  0  0
   -3.2312   -1.2816   -0.7936 H   0  0  0  0  0  0  0  0  0  0  0  0
   -1.3593   -0.6196   -0.0536 C   0  0  1  0  0  0  0  0  0  0  0  0
   -0.4942   -1.1760   -0.4165 H   0  0  0  0  0  0  0  0  0  0  0  0
   -1.5824    0.5814   -0.9861 C   0  0  0  0  0  0  0  0  0  0  0  0
   -0.6929    1.2135   -0.9644 H   0  0  0  0  0  0  0  0  0  0  0  0
   -1.7001    0.2119   -2.0062 H   0  0  0  0  0  0  0  0  0  0  0  0
   -2.7668    1.4364   -0.6510 C   0  0  0  0  0  0  0  0  0  0  0  0
   -2.7642    2.4838    0.2037 C   0  0  0  0  0  0  0  0  0  0  0  0
   -1.8999    2.8189    0.7666 H   0  0  0  0  0  0  0  0  0  0  0  0
   -4.0170    3.0646    0.2300 N   0  0  0  0  0  0  0  0  0  0  0  0
   -4.2491    3.8625    0.8033 H   0  0  0  0  0  0  0  0  0  0  0  0
   -4.8904    2.4264   -0.6247 C   0  0  0  0  0  0  0  0  0  0  0  0
   -6.2317    2.6504   -0.9667 C   0  0  0  0  0  0  0  0  0  0  0  0
   -6.7827    3.4636   -0.5176 H   0  0  0  0  0  0  0  0  0  0  0  0
   -6.8493    1.8008   -1.9005 C   0  0  0  0  0  0  0  0  0  0  0  0
   -7.8835    1.9577   -2.1757 H   0  0  0  0  0  0  0  0  0  0  0  0
   -6.1218    0.7411   -2.4724 C   0  0  0  0  0  0  0  0  0  0  0  0
   -6.6033    0.0849   -3.1841 H   0  0  0  0  0  0  0  0  0  0  0  0
   -4.7747    0.5242   -2.1197 C   0  0  0  0  0  0  0  0  0  0  0  0
   -4.2313   -0.3016   -2.5565 H   0  0  0  0  0  0  0  0  0  0  0  0
   -4.1239    1.3635   -1.1896 C   0  0  0  0  0  0  0  0  0  0  0  0
   -1.0518   -0.1736    1.3843 C   0  0  0  0  0  0  0  0  0  0  0  0
   -1.5551    0.8547    1.8347 O   0  0  0  0  0  0  0  0  0  0  0  0
   -0.2247   -0.9454    2.1023 N   0  0  0  0  0  0  0  0  0  0  0  0
    0.1889   -1.7432    1.6412 H   0  0  0  0  0  0  0  0  0  0  0  0
    0.1687   -0.6676    3.4808 C   0  0  0  0  0  0  0  0  0  0  0  0
   -0.7210   -0.5033    4.0916 H   0  0  0  0  0  0  0  0  0  0  0  0
    0.7351   -1.5070    3.8861 H   0  0  0  0  0  0  0  0  0  0  0  0
    0.7850    0.2325    3.5110 H   0  0  0  0  0  0  0  0  0  0  0  0
  5  6  2  0  0  0  0
  5  7  1  0  0  0  0
  2  3  1  0  0  0  0
  2  4  1  0  0  0  0
  2  5  1  0  0  0  0
  1  2  1  0  0  0  0
 29 30  2  0  0  0  0
 29 31  1  0  0  0  0
 26 27  1  0  0  0  0
 26 28  2  0  0  0  0
 24 25  1  0  0  0  0
 24 26  1  0  0  0  0
 22 23  1  0  0  0  0
 22 24  2  0  0  0  0
 20 21  1  0  0  0  0
 20 22  1  0  0  0  0
 19 20  2  0  0  0  0
 19 28  1  0  0  0  0
 17 18  1  0  0  0  0
 17 19  1  0  0  0  0
 15 16  1  0  0  0  0
 15 17  1  0  0  0  0
 14 15  2  0  0  0  0
 14 28  1  0  0  0  0
 11 12  1  0  0  0  0
 11 13  1  0  0  0  0
 11 14  1  0  0  0  0
  9 10  1  0  0  0  0
  9 11  1  0  0  0  0
  9 29  1  0  0  0  0
  7  8  1  0  0  0  0
  7  9  1  0  0  0  0
 33 34  1  0  0  0  0
 33 35  1  0  0  0  0
 33 36  1  0  0  0  0
 31 32  1  0  0  0  0
 31 33  1  0  0  0  0
M  END
$$$$
default_name
  -OEChem-12212115393D

 36 37  0     1  0  0  0  0  0999 V2000
   -4.0843   -4.0736    1.2944 H   0  0  0  0  0  0  0  0  0  0  0  0
   -4.0342   -3.2816    0.5484 C   0  0  0  0  0  0  0  0  0  0  0  0
   -4.8842   -2.6126    0.6694 H   0  0  0  0  0  0  0  0  0  0  0  0
   -4.0433   -3.7186   -0.4486 H   0  0  0  0  0  0  0  0  0  0  0  0
   -2.7532   -2.5046    0.7444 C   0  0  0  0  0  0  0  0  0  0  0  0
   -1.9803   -2.8096    1.6434 O   0  0  0  0  0  0  0  0  0  0  0  0
   -2.5332   -1.4966   -0.0966 N   0  0  0  0  0  0  0  0  0  0  0  0
   -3.2312   -1.2816   -0.7936 H   0  0  0  0  0  0  0  0  0  0  0  0
   -1.3593   -0.6196   -0.0536 C   0  0  1  0  0  0  0  0  0  0  0  0
   -0.4942   -1.1760   -0.4165 H   0  0  0  0  0  0  0  0  0  0  0  0
   -1.5824    0.5814   -0.9861 C   0  0  0  0  0  0  0  0  0  0  0  0
   -0.6929    1.2135   -0.9644 H   0  0  0  0  0  0  0  0  0  0  0  0
   -1.7001    0.2119   -2.0062 H   0  0  0  0  0  0  0  0  0  0  0  0
   -2.7668    1.4364   -0.6510 C   0  0  0  0  0  0  0  0  0  0  0  0
   -2.7642    2.4838    0.2037 C   0  0  0  0  0  0  0  0  0  0  0  0
   -1.8999    2.8189    0.7666 H   0  0  0  0  0  0  0  0  0  0  0  0
   -4.0170    3.0646    0.2300 N   0  0  0  0  0  0  0  0  0  0  0  0
   -4.2491    3.8625    0.8033 H   0  0  0  0  0  0  0  0  0  0  0  0
   -4.8904    2.4264   -0.6247 C   0  0  0  0  0  0  0  0  0  0  0  0
   -6.2317    2.6504   -0.9667 C   0  0  0  0  0  0  0  0  0  0  0  0
   -6.7827    3.4636   -0.5176 H   0  0  0  0  0  0  0  0  0  0  0  0
   -6.8493    1.8008   -1.9005 C   0  0  0  0  0  0  0  0  0  0  0  0
   -7.8835    1.9577   -2.1757 H   0  0  0  0  0  0  0  0  0  0  0  0
   -6.1218    0.7411   -2.4724 C   0  0  0  0  0  0  0  0  0  0  0  0
   -6.6033    0.0849   -3.1841 H   0  0  0  0  0  0  0  0  0  0  0  0
   -4.7747    0.5242   -2.1197 C   0  0  0  0  0  0  0  0  0  0  0  0
   -4.2313   -0.3016   -2.5565 H   0  0  0  0  0  0  0  0  0  0  0  0
   -4.1239    1.3635   -1.1896 C   0  0  0  0  0  0  0  0  0  0  0  0
   -1.0518   -0.1736    1.3843 C   0  0  0  0  0  0  0  0  0  0  0  0
   -1.7489    0.6806    1.9302 O   0  0  0  0  0  0  0  0  0  0  0  0
   -0.0079   -0.7499    1.9953 N   0  0  0  0  0  0  0  0  0  0  0  0
    0.5463   -1.4022    1.4590 H   0  0  0  0  0  0  0  0  0  0  0  0
    0.4184   -0.4434    3.3579 C   0  0  0  0  0  0  0  0  0  0  0  0
   -0.4319   -0.5274    4.0373 H   0  0  0  0  0  0  0  0  0  0  0  0
    1.2010   -1.1355    3.6713 H   0  0  0  0  0  0  0  0  0  0  0  0
    0.8008    0.5778    3.4005 H   0  0  0  0  0  0  0  0  0  0  0  0
  5  6  2  0  0  0  0
  5  7  1  0  0  0  0
  2  3  1  0  0  0  0
  2  4  1  0  0  0  0
  2  5  1  0  0  0  0
  1  2  1  0  0  0  0
 29 30  2  0  0  0  0
 29 31  1  0  0  0  0
 26 27  1  0  0  0  0
 26 28  2  0  0  0  0
 24 25  1  0  0  0  0
 24 26  1  0  0  0  0
 22 23  1  0  0  0  0
 22 24  2  0  0  0  0
 20 21  1  0  0  0  0
 20 22  1  0  0  0  0
 19 20  2  0  0  0  0
 19 28  1  0  0  0  0
 17 18  1  0  0  0  0
 17 19  1  0  0  0  0
 15 16  1  0  0  0  0
 15 17  1  0  0  0  0
 14 15  2  0  0  0  0
 14 28  1  0  0  0  0
 11 12  1  0  0  0  0
 11 13  1  0  0  0  0
 11 14  1  0  0  0  0
  9 10  1  0  0  0  0
  9 11  1  0  0  0  0
  9 29  1  0  0  0  0
  7  8  1  0  0  0  0
  7  9  1  0  0  0  0
 33 34  1  0  0  0  0
 33 35  1  0  0  0  0
 33 36  1  0  0  0  0
 31 32  1  0  0  0  0
 31 33  1  0  0  0  0
M  END
$$$$
default_name
  -OEChem-12212115393D

 36 37  0     1  0  0  0  0  0999 V2000
   -4.0843   -4.0736    1.2944 H   0  0  0  0  0  0  0  0  0  0  0  0
   -4.0342   -3.2816    0.5484 C   0  0  0  0  0  0  0  0  0  0  0  0
   -4.8842   -2.6126    0.6694 H   0  0  0  0  0  0  0  0  0  0  0  0
   -4.0433   -3.7186   -0.4486 H   0  0  0  0  0  0  0  0  0  0  0  0
   -2.7532   -2.5046    0.7444 C   0  0  0  0  0  0  0  0  0  0  0  0
   -1.9803   -2.8096    1.6434 O   0  0  0  0  0  0  0  0  0  0  0  0
   -2.5332   -1.4966   -0.0966 N   0  0  0  0  0  0  0  0  0  0  0  0
   -3.2312   -1.2816   -0.7936 H   0  0  0  0  0  0  0  0  0  0  0  0
   -1.3593   -0.6196   -0.0536 C   0  0  1  0  0  0  0  0  0  0  0  0
   -0.4942   -1.1760   -0.4165 H   0  0  0  0  0  0  0  0  0  0  0  0
   -1.5824    0.5814   -0.9861 C   0  0  0  0  0  0  0  0  0  0  0  0
   -0.6929    1.2135   -0.9644 H   0  0  0  0  0  0  0  0  0  0  0  0
   -1.7001    0.2119   -2.0062 H   0  0  0  0  0  0  0  0  0  0  0  0
   -2.7668    1.4364   -0.6510 C   0  0  0  0  0  0  0  0  0  0  0  0
   -2.7642    2.4838    0.2037 C   0  0  0  0  0  0  0  0  0  0  0  0
   -1.8999    2.8189    0.7666 H   0  0  0  0  0  0  0  0  0  0  0  0
   -4.0170    3.0646    0.2300 N   0  0  0  0  0  0  0  0  0  0  0  0
   -4.2491    3.8625    0.8033 H   0  0  0  0  0  0  0  0  0  0  0  0
   -4.8904    2.4264   -0.6247 C   0  0  0  0  0  0  0  0  0  0  0  0
   -6.2317    2.6504   -0.9667 C   0  0  0  0  0  0  0  0  0  0  0  0
   -6.7827    3.4636   -0.5176 H   0  0  0  0  0  0  0  0  0  0  0  0
   -6.8493    1.8008   -1.9005 C   0  0  0  0  0  0  0  0  0  0  0  0
   -7.8835    1.9577   -2.1757 H   0  0  0  0  0  0  0  0  0  0  0  0
   -6.1218    0.7411   -2.4724 C   0  0  0  0  0  0  0  0  0  0  0  0
   -6.6033    0.0849   -3.1841 H   0  0  0  0  0  0  0  0  0  0  0  0
   -4.7747    0.5242   -2.1197 C   0  0  0  0  0  0  0  0  0  0  0  0
   -4.2313   -0.3016   -2.5565 H   0  0  0  0  0  0  0  0  0  0  0  0
   -4.1239    1.3635   -1.1896 C   0  0  0  0  0  0  0  0  0  0  0  0
   -1.0518   -0.1736    1.3843 C   0  0  0  0  0  0  0  0  0  0  0  0
   -1.8868    0.4605    2.0280 O   0  0  0  0  0  0  0  0  0  0  0  0
    0.1462   -0.5030    1.8857 N   0  0  0  0  0  0  0  0  0  0  0  0
    0.7952   -0.9769    1.2738 H   0  0  0  0  0  0  0  0  0  0  0  0
    0.5960   -0.1599    3.2320 C   0  0  0  0  0  0  0  0  0  0  0  0
   -0.1509   -0.4779    3.9618 H   0  0  0  0  0  0  0  0  0  0  0  0
    1.5448   -0.6528    3.4480 H   0  0  0  0  0  0  0  0  0  0  0  0
    0.7240    0.9210    3.3104 H   0  0  0  0  0  0  0  0  0  0  0  0
  5  6  2  0  0  0  0
  5  7  1  0  0  0  0
  2  3  1  0  0  0  0
  2  4  1  0  0  0  0
  2  5  1  0  0  0  0
  1  2  1  0  0  0  0
 29 30  2  0  0  0  0
 29 31  1  0  0  0  0
 26 27  1  0  0  0  0
 26 28  2  0  0  0  0
 24 25  1  0  0  0  0
 24 26  1  0  0  0  0
 22 23  1  0  0  0  0
 22 24  2  0  0  0  0
 20 21  1  0  0  0  0
 20 22  1  0  0  0  0
 19 20  2  0  0  0  0
 19 28  1  0  0  0  0
 17 18  1  0  0  0  0
 17 19  1  0  0  0  0
 15 16  1  0  0  0  0
 15 17  1  0  0  0  0
 14 15  2  0  0  0  0
 14 28  1  0  0  0  0
 11 12  1  0  0  0  0
 11 13  1  0  0  0  0
 11 14  1  0  0  0  0
  9 10  1  0  0  0  0
  9 11  1  0  0  0  0
  9 29  1  0  0  0  0
  7  8  1  0  0  0  0
  7  9  1  0  0  0  0
 33 34  1  0  0  0  0
 33 35  1  0  0  0  0
 33 36  1  0  0  0  0
 31 32  1  0  0  0  0
 31 33  1  0  0  0  0
M  END
$$$$
default_name
  -OEChem-12212115393D

 36 37  0     1  0  0  0  0  0999 V2000
   -4.0843   -4.0736    1.2944 H   0  0  0  0  0  0  0  0  0  0  0  0
   -4.0342   -3.2816    0.5484 C   0  0  0  0  0  0  0  0  0  0  0  0
   -4.8842   -2.6126    0.6694 H   0  0  0  0  0  0  0  0  0  0  0  0
   -4.0433   -3.7186   -0.4486 H   0  0  0  0  0  0  0  0  0  0  0  0
   -2.7532   -2.5046    0.7444 C   0  0  0  0  0  0  0  0  0  0  0  0
   -1.9803   -2.8096    1.6434 O   0  0  0  0  0  0  0  0  0  0  0  0
   -2.5332   -1.4966   -0.0966 N   0  0  0  0  0  0  0  0  0  0  0  0
   -3.2312   -1.2816   -0.7936 H   0  0  0  0  0  0  0  0  0  0  0  0
   -1.3593   -0.6196   -0.0536 C   0  0  1  0  0  0  0  0  0  0  0  0
   -0.4942   -1.1760   -0.4165 H   0  0  0  0  0  0  0  0  0  0  0  0
   -1.5824    0.5814   -0.9861 C   0  0  0  0  0  0  0  0  0  0  0  0
   -0.6929    1.2135   -0.9644 H   0  0  0  0  0  0  0  0  0  0  0  0
   -1.7001    0.2119   -2.0062 H   0  0  0  0  0  0  0  0  0  0  0  0
   -2.7668    1.4364   -0.6510 C   0  0  0  0  0  0  0  0  0  0  0  0
   -2.7642    2.4838    0.2037 C   0  0  0  0  0  0  0  0  0  0  0  0
   -1.8999    2.8189    0.7666 H   0  0  0  0  0  0  0  0  0  0  0  0
   -4.0170    3.0646    0.2300 N   0  0  0  0  0  0  0  0  0  0  0  0
   -4.2491    3.8625    0.8033 H   0  0  0  0  0  0  0  0  0  0  0  0
   -4.8904    2.4264   -0.6247 C   0  0  0  0  0  0  0  0  0  0  0  0
   -6.2317    2.6504   -0.9667 C   0  0  0  0  0  0  0  0  0  0  0  0
   -6.7827    3.4636   -0.5176 H   0  0  0  0  0  0  0  0  0  0  0  0
   -6.8493    1.8008   -1.9005 C   0  0  0  0  0  0  0  0  0  0  0  0
   -7.8835    1.9577   -2.1757 H   0  0  0  0  0  0  0  0  0  0  0  0
   -6.1218    0.7411   -2.4724 C   0  0  0  0  0  0  0  0  0  0  0  0
   -6.6033    0.0849   -3.1841 H   0  0  0  0  0  0  0  0  0  0  0  0
   -4.7747    0.5242   -2.1197 C   0  0  0  0  0  0  0  0  0  0  0  0
   -4.2313   -0.3016   -2.5565 H   0  0  0  0  0  0  0  0  0  0  0  0
   -4.1239    1.3635   -1.1896 C   0  0  0  0  0  0  0  0  0  0  0  0
   -1.0518   -0.1736    1.3843 C   0  0  0  0  0  0  0  0  0  0  0  0
   -1.9593    0.2094    2.1214 O   0  0  0  0  0  0  0  0  0  0  0  0
    0.2270   -0.2215    1.7811 N   0  0  0  0  0  0  0  0  0  0  0  0
    0.9188   -0.4961    1.0982 H   0  0  0  0  0  0  0  0  0  0  0  0
    0.6894    0.1634    3.1117 C   0  0  0  0  0  0  0  0  0  0  0  0
    0.1028   -0.3581    3.8704 H   0  0  0  0  0  0  0  0  0  0  0  0
    1.7432   -0.0916    3.2314 H   0  0  0  0  0  0  0  0  0  0  0  0
    0.5600    1.2385    3.2470 H   0  0  0  0  0  0  0  0  0  0  0  0
  5  6  2  0  0  0  0
  5  7  1  0  0  0  0
  2  3  1  0  0  0  0
  2  4  1  0  0  0  0
  2  5  1  0  0  0  0
  1  2  1  0  0  0  0
 29 30  2  0  0  0  0
 29 31  1  0  0  0  0
 26 27  1  0  0  0  0
 26 28  2  0  0  0  0
 24 25  1  0  0  0  0
 24 26  1  0  0  0  0
 22 23  1  0  0  0  0
 22 24  2  0  0  0  0
 20 21  1  0  0  0  0
 20 22  1  0  0  0  0
 19 20  2  0  0  0  0
 19 28  1  0  0  0  0
 17 18  1  0  0  0  0
 17 19  1  0  0  0  0
 15 16  1  0  0  0  0
 15 17  1  0  0  0  0
 14 15  2  0  0  0  0
 14 28  1  0  0  0  0
 11 12  1  0  0  0  0
 11 13  1  0  0  0  0
 11 14  1  0  0  0  0
  9 10  1  0  0  0  0
  9 11  1  0  0  0  0
  9 29  1  0  0  0  0
  7  8  1  0  0  0  0
  7  9  1  0  0  0  0
 33 34  1  0  0  0  0
 33 35  1  0  0  0  0
 33 36  1  0  0  0  0
 31 32  1  0  0  0  0
 31 33  1  0  0  0  0
M  END
$$$$
default_name
  -OEChem-12212115393D

 36 37  0     1  0  0  0  0  0999 V2000
   -4.0843   -4.0736    1.2944 H   0  0  0  0  0  0  0  0  0  0  0  0
   -4.0342   -3.2816    0.5484 C   0  0  0  0  0  0  0  0  0  0  0  0
   -4.8842   -2.6126    0.6694 H   0  0  0  0  0  0  0  0  0  0  0  0
   -4.0433   -3.7186   -0.4486 H   0  0  0  0  0  0  0  0  0  0  0  0
   -2.7532   -2.5046    0.7444 C   0  0  0  0  0  0  0  0  0  0  0  0
   -1.9803   -2.8096    1.6434 O   0  0  0  0  0  0  0  0  0  0  0  0
   -2.5332   -1.4966   -0.0966 N   0  0  0  0  0  0  0  0  0  0  0  0
   -3.2312   -1.2816   -0.7936 H   0  0  0  0  0  0  0  0  0  0  0  0
   -1.3593   -0.6196   -0.0536 C   0  0  1  0  0  0  0  0  0  0  0  0
   -0.4942   -1.1760   -0.4165 H   0  0  0  0  0  0  0  0  0  0  0  0
   -1.5824    0.5814   -0.9861 C   0  0  0  0  0  0  0  0  0  0  0  0
   -0.6929    1.2135   -0.9644 H   0  0  0  0  0  0  0  0  0  0  0  0
   -1.7001    0.2119   -2.0062 H   0  0  0  0  0  0  0  0  0  0  0  0
   -2.7668    1.4364   -0.6510 C   0  0  0  0  0  0  0  0  0  0  0  0
   -2.7642    2.4838    0.2037 C   0  0  0  0  0  0  0  0  0  0  0  0
   -1.8999    2.8189    0.7666 H   0  0  0  0  0  0  0  0  0  0  0  0
   -4.0170    3.0646    0.2300 N   0  0  0  0  0  0  0  0  0  0  0  0
   -4.2491    3.8625    0.8033 H   0  0  0  0  0  0  0  0  0  0  0  0
   -4.8904    2.4264   -0.6247 C   0  0  0  0  0  0  0  0  0  0  0  0
   -6.2317    2.6504   -0.9667 C   0  0  0  0  0  0  0  0  0  0  0  0
   -6.7827    3.4636   -0.5176 H   0  0  0  0  0  0  0  0  0  0  0  0
   -6.8493    1.8008   -1.9005 C   0  0  0  0  0  0  0  0  0  0  0  0
   -7.8835    1.9577   -2.1757 H   0  0  0  0  0  0  0  0  0  0  0  0
   -6.1218    0.7411   -2.4724 C   0  0  0  0  0  0  0  0  0  0  0  0
   -6.6033    0.0849   -3.1841 H   0  0  0  0  0  0  0  0  0  0  0  0
   -4.7747    0.5242   -2.1197 C   0  0  0  0  0  0  0  0  0  0  0  0
   -4.2313   -0.3016   -2.5565 H   0  0  0  0  0  0  0  0  0  0  0  0
   -4.1239    1.3635   -1.1896 C   0  0  0  0  0  0  0  0  0  0  0  0
   -1.0518   -0.1736    1.3843 C   0  0  0  0  0  0  0  0  0  0  0  0
   -1.9615   -0.0555    2.2040 O   0  0  0  0  0  0  0  0  0  0  0  0
    0.2291    0.0753    1.6886 N   0  0  0  0  0  0  0  0  0  0  0  0
    0.9085    0.0073    0.9442 H   0  0  0  0  0  0  0  0  0  0  0  0
    0.6923    0.5046    3.0052 C   0  0  0  0  0  0  0  0  0  0  0  0
    0.3120   -0.1762    3.7692 H   0  0  0  0  0  0  0  0  0  0  0  0
    1.7826    0.5097    3.0365 H   0  0  0  0  0  0  0  0  0  0  0  0
    0.3199    1.5087    3.2145 H   0  0  0  0  0  0  0  0  0  0  0  0
  5  6  2  0  0  0  0
  5  7  1  0  0  0  0
  2  3  1  0  0  0  0
  2  4  1  0  0  0  0
  2  5  1  0  0  0  0
  1  2  1  0  0  0  0
 29 30  2  0  0  0  0
 29 31  1  0  0  0  0
 26 27  1  0  0  0  0
 26 28  2  0  0  0  0
 24 25  1  0  0  0  0
 24 26  1  0  0  0  0
 22 23  1  0  0  0  0
 22 24  2  0  0  0  0
 20 21  1  0  0  0  0
 20 22  1  0  0  0  0
 19 20  2  0  0  0  0
 19 28  1  0  0  0  0
 17 18  1  0  0  0  0
 17 19  1  0  0  0  0
 15 16  1  0  0  0  0
 15 17  1  0  0  0  0
 14 15  2  0  0  0  0
 14 28  1  0  0  0  0
 11 12  1  0  0  0  0
 11 13  1  0  0  0  0
 11 14  1  0  0  0  0
  9 10  1  0  0  0  0
  9 11  1  0  0  0  0
  9 29  1  0  0  0  0
  7  8  1  0  0  0  0
  7  9  1  0  0  0  0
 33 34  1  0  0  0  0
 33 35  1  0  0  0  0
 33 36  1  0  0  0  0
 31 32  1  0  0  0  0
 31 33  1  0  0  0  0
M  END
$$$$
default_name
  -OEChem-12212115393D

 36 37  0     1  0  0  0  0  0999 V2000
   -4.0843   -4.0736    1.2944 H   0  0  0  0  0  0  0  0  0  0  0  0
   -4.0342   -3.2816    0.5484 C   0  0  0  0  0  0  0  0  0  0  0  0
   -4.8842   -2.6126    0.6694 H   0  0  0  0  0  0  0  0  0  0  0  0
   -4.0433   -3.7186   -0.4486 H   0  0  0  0  0  0  0  0  0  0  0  0
   -2.7532   -2.5046    0.7444 C   0  0  0  0  0  0  0  0  0  0  0  0
   -1.9803   -2.8096    1.6434 O   0  0  0  0  0  0  0  0  0  0  0  0
   -2.5332   -1.4966   -0.0966 N   0  0  0  0  0  0  0  0  0  0  0  0
   -3.2312   -1.2816   -0.7936 H   0  0  0  0  0  0  0  0  0  0  0  0
   -1.3593   -0.6196   -0.0536 C   0  0  1  0  0  0  0  0  0  0  0  0
   -0.4942   -1.1760   -0.4165 H   0  0  0  0  0  0  0  0  0  0  0  0
   -1.5824    0.5814   -0.9861 C   0  0  0  0  0  0  0  0  0  0  0  0
   -0.6929    1.2135   -0.9644 H   0  0  0  0  0  0  0  0  0  0  0  0
   -1.7001    0.2119   -2.0062 H   0  0  0  0  0  0  0  0  0  0  0  0
   -2.7668    1.4364   -0.6510 C   0  0  0  0  0  0  0  0  0  0  0  0
   -2.7642    2.4838    0.2037 C   0  0  0  0  0  0  0  0  0  0  0  0
   -1.8999    2.8189    0.7666 H   0  0  0  0  0  0  0  0  0  0  0  0
   -4.0170    3.0646    0.2300 N   0  0  0  0  0  0  0  0  0  0  0  0
   -4.2491    3.8625    0.8033 H   0  0  0  0  0  0  0  0  0  0  0  0
   -4.8904    2.4264   -0.6247 C   0  0  0  0  0  0  0  0  0  0  0  0
   -6.2317    2.6504   -0.9667 C   0  0  0  0  0  0  0  0  0  0  0  0
   -6.7827    3.4636   -0.5176 H   0  0  0  0  0  0  0  0  0  0  0  0
   -6.8493    1.8008   -1.9005 C   0  0  0  0  0  0  0  0  0  0  0  0
   -7.8835    1.9577   -2.1757 H   0  0  0  0  0  0  0  0  0  0  0  0
   -6.1218    0.7411   -2.4724 C   0  0  0  0  0  0  0  0  0  0  0  0
   -6.6033    0.0849   -3.1841 H   0  0  0  0  0  0  0  0  0  0  0  0
   -4.7747    0.5242   -2.1197 C   0  0  0  0  0  0  0  0  0  0  0  0
   -4.2313   -0.3016   -2.5565 H   0  0  0  0  0  0  0  0  0  0  0  0
   -4.1239    1.3635   -1.1896 C   0  0  0  0  0  0  0  0  0  0  0  0
   -1.0518   -0.1736    1.3843 C   0  0  0  0  0  0  0  0  0  0  0  0
   -1.8933   -0.3162    2.2703 O   0  0  0  0  0  0  0  0  0  0  0  0
    0.1522    0.3674    1.6144 N   0  0  0  0  0  0  0  0  0  0  0  0
    0.7651    0.4990    0.8224 H   0  0  0  0  0  0  0  0  0  0  0  0
    0.6045    0.8403    2.9198 C   0  0  0  0  0  0  0  0  0  0  0  0
    0.4625    0.0555    3.6652 H   0  0  0  0  0  0  0  0  0  0  0  0
    1.6604    1.1102    2.8763 H   0  0  0  0  0  0  0  0  0  0  0  0
    0.0201    1.7133    3.2151 H   0  0  0  0  0  0  0  0  0  0  0  0
  5  6  2  0  0  0  0
  5  7  1  0  0  0  0
  2  3  1  0  0  0  0
  2  4  1  0  0  0  0
  2  5  1  0  0  0  0
  1  2  1  0  0  0  0
 29 30  2  0  0  0  0
 29 31  1  0  0  0  0
 26 27  1  0  0  0  0
 26 28  2  0  0  0  0
 24 25  1  0  0  0  0
 24 26  1  0  0  0  0
 22 23  1  0  0  0  0
 22 24  2  0  0  0  0
 20 21  1  0  0  0  0
 20 22  1  0  0  0  0
 19 20  2  0  0  0  0
 19 28  1  0  0  0  0
 17 18  1  0  0  0  0
 17 19  1  0  0  0  0
 15 16  1  0  0  0  0
 15 17  1  0  0  0  0
 14 15  2  0  0  0  0
 14 28  1  0  0  0  0
 11 12  1  0  0  0  0
 11 13  1  0  0  0  0
 11 14  1  0  0  0  0
  9 10  1  0  0  0  0
  9 11  1  0  0  0  0
  9 29  1  0  0  0  0
  7  8  1  0  0  0  0
  7  9  1  0  0  0  0
 33 34  1  0  0  0  0
 33 35  1  0  0  0  0
 33 36  1  0  0  0  0
 31 32  1  0  0  0  0
 31 33  1  0  0  0  0
M  END
$$$$
default_name
  -OEChem-12212115393D

 36 37  0     1  0  0  0  0  0999 V2000
   -4.0843   -4.0736    1.2944 H   0  0  0  0  0  0  0  0  0  0  0  0
   -4.0342   -3.2816    0.5484 C   0  0  0  0  0  0  0  0  0  0  0  0
   -4.8842   -2.6126    0.6694 H   0  0  0  0  0  0  0  0  0  0  0  0
   -4.0433   -3.7186   -0.4486 H   0  0  0  0  0  0  0  0  0  0  0  0
   -2.7532   -2.5046    0.7444 C   0  0  0  0  0  0  0  0  0  0  0  0
   -1.9803   -2.8096    1.6434 O   0  0  0  0  0  0  0  0  0  0  0  0
   -2.5332   -1.4966   -0.0966 N   0  0  0  0  0  0  0  0  0  0  0  0
   -3.2312   -1.2816   -0.7936 H   0  0  0  0  0  0  0  0  0  0  0  0
   -1.3593   -0.6196   -0.0536 C   0  0  1  0  0  0  0  0  0  0  0  0
   -0.5661   -1.0681   -0.6530 H   0  0  0  0  0  0  0  0  0  0  0  0
   -1.7144    0.7425   -0.6703 C   0  0  0  0  0  0  0  0  0  0  0  0
   -0.8268    1.3776   -0.6550 H   0  0  0  0  0  0  0  0  0  0  0  0
   -1.9926    0.5890   -1.7144 H   0  0  0  0  0  0  0  0  0  0  0  0
   -2.8246    1.4812    0.0135 C   0  0  0  0  0  0  0  0  0  0  0  0
   -2.6799    2.3291    1.0564 C   0  0  0  0  0  0  0  0  0  0  0  0
   -1.7356    2.5612    1.5367 H   0  0  0  0  0  0  0  0  0  0  0  0
   -3.9082    2.8618    1.3955 N   0  0  0  0  0  0  0  0  0  0  0  0
   -4.0412    3.5182    2.1509 H   0  0  0  0  0  0  0  0  0  0  0  0
   -4.9095    2.3933    0.5718 C   0  0  0  0  0  0  0  0  0  0  0  0
   -6.2857    2.6510    0.4946 C   0  0  0  0  0  0  0  0  0  0  0  0
   -6.7530    3.3404    1.1823 H   0  0  0  0  0  0  0  0  0  0  0  0
   -7.0485    1.9983   -0.4889 C   0  0  0  0  0  0  0  0  0  0  0  0
   -8.1115    2.1838   -0.5628 H   0  0  0  0  0  0  0  0  0  0  0  0
   -6.4282    1.0973   -1.3736 C   0  0  0  0  0  0  0  0  0  0  0  0
   -7.0203    0.5910   -2.1234 H   0  0  0  0  0  0  0  0  0  0  0  0
   -5.0445    0.8445   -1.2856 C   0  0  0  0  0  0  0  0  0  0  0  0
   -4.5830    0.1400   -1.9628 H   0  0  0  0  0  0  0  0  0  0  0  0
   -4.2496    1.4887   -0.3129 C   0  0  0  0  0  0  0  0  0  0  0  0
   -0.8278   -0.4731    1.3807 C   0  0  0  0  0  0  0  0  0  0  0  0
   -1.3851   -1.0556    2.3101 O   0  0  0  0  0  0  0  0  0  0  0  0
    0.2477    0.3055    1.5597 N   0  0  0  0  0  0  0  0  0  0  0  0
    0.6129    0.7915    0.7531 H   0  0  0  0  0  0  0  0  0  0  0  0
    0.8792    0.5495    2.8536 C   0  0  0  0  0  0  0  0  0  0  0  0
    1.0920   -0.4020    3.3446 H   0  0  0  0  0  0  0  0  0  0  0  0
    1.8096    1.1026    2.7191 H   0  0  0  0  0  0  0  0  0  0  0  0
    0.2038    1.1269    3.4871 H   0  0  0  0  0  0  0  0  0  0  0  0
  5  6  2  0  0  0  0
  5  7  1  0  0  0  0
  2  3  1  0  0  0  0
  2  4  1  0  0  0  0
  2  5  1  0  0  0  0
  1  2  1  0  0  0  0
 29 30  2  0  0  0  0
 29 31  1  0  0  0  0
 26 27  1  0  0  0  0
 26 28  2  0  0  0  0
 24 25  1  0  0  0  0
 24 26  1  0  0  0  0
 22 23  1  0  0  0  0
 22 24  2  0  0  0  0
 20 21  1  0  0  0  0
 20 22  1  0  0  0  0
 19 20  2  0  0  0  0
 19 28  1  0  0  0  0
 17 18  1  0  0  0  0
 17 19  1  0  0  0  0
 15 16  1  0  0  0  0
 15 17  1  0  0  0  0
 14 15  2  0  0  0  0
 14 28  1  0  0  0  0
 11 12  1  0  0  0  0
 11 13  1  0  0  0  0
 11 14  1  0  0  0  0
  9 10  1  0  0  0  0
  9 11  1  0  0  0  0
  9 29  1  0  0  0  0
  7  8  1  0  0  0  0
  7  9  1  0  0  0  0
 33 34  1  0  0  0  0
 33 35  1  0  0  0  0
 33 36  1  0  0  0  0
 31 32  1  0  0  0  0
 31 33  1  0  0  0  0
M  END
$$$$
default_name
  -OEChem-12212115393D

 36 37  0     1  0  0  0  0  0999 V2000
   -4.0843   -4.0736    1.2944 H   0  0  0  0  0  0  0  0  0  0  0  0
   -4.0342   -3.2816    0.5484 C   0  0  0  0  0  0  0  0  0  0  0  0
   -4.8842   -2.6126    0.6694 H   0  0  0  0  0  0  0  0  0  0  0  0
   -4.0433   -3.7186   -0.4486 H   0  0  0  0  0  0  0  0  0  0  0  0
   -2.7532   -2.5046    0.7444 C   0  0  0  0  0  0  0  0  0  0  0  0
   -1.9803   -2.8096    1.6434 O   0  0  0  0  0  0  0  0  0  0  0  0
   -2.5332   -1.4966   -0.0966 N   0  0  0  0  0  0  0  0  0  0  0  0
   -3.2312   -1.2816   -0.7936 H   0  0  0  0  0  0  0  0  0  0  0  0
   -1.3593   -0.6196   -0.0536 C   0  0  1  0  0  0  0  0  0  0  0  0
   -0.5661   -1.0681   -0.6530 H   0  0  0  0  0  0  0  0  0  0  0  0
   -1.7144    0.7425   -0.6703 C   0  0  0  0  0  0  0  0  0  0  0  0
   -0.8268    1.3776   -0.6550 H   0  0  0  0  0  0  0  0  0  0  0  0
   -1.9926    0.5890   -1.7144 H   0  0  0  0  0  0  0  0  0  0  0  0
   -2.8246    1.4812    0.0135 C   0  0  0  0  0  0  0  0  0  0  0  0
   -2.6799    2.3291    1.0564 C   0  0  0  0  0  0  0  0  0  0  0  0
   -1.7356    2.5612    1.5367 H   0  0  0  0  0  0  0  0  0  0  0  0
   -3.9082    2.8618    1.3955 N   0  0  0  0  0  0  0  0  0  0  0  0
   -4.0412    3.5182    2.1509 H   0  0  0  0  0  0  0  0  0  0  0  0
   -4.9095    2.3933    0.5718 C   0  0  0  0  0  0  0  0  0  0  0  0
   -6.2857    2.6510    0.4946 C   0  0  0  0  0  0  0  0  0  0  0  0
   -6.7530    3.3404    1.1823 H   0  0  0  0  0  0  0  0  0  0  0  0
   -7.0485    1.9983   -0.4889 C   0  0  0  0  0  0  0  0  0  0  0  0
   -8.1115    2.1838   -0.5628 H   0  0  0  0  0  0  0  0  0  0  0  0
   -6.4282    1.0973   -1.3736 C   0  0  0  0  0  0  0  0  0  0  0  0
   -7.0203    0.5910   -2.1234 H   0  0  0  0  0  0  0  0  0  0  0  0
   -5.0445    0.8445   -1.2856 C   0  0  0  0  0  0  0  0  0  0  0  0
   -4.5830    0.1400   -1.9628 H   0  0  0  0  0  0  0  0  0  0  0  0
   -4.2496    1.4887   -0.3129 C   0  0  0  0  0  0  0  0  0  0  0  0
   -0.8278   -0.4731    1.3807 C   0  0  0  0  0  0  0  0  0  0  0  0
   -1.1952   -1.2515    2.2598 O   0  0  0  0  0  0  0  0  0  0  0  0
    0.0345    0.5248    1.6163 N   0  0  0  0  0  0  0  0  0  0  0  0
    0.2432    1.1528    0.8532 H   0  0  0  0  0  0  0  0  0  0  0  0
    0.6346    0.8019    2.9184 C   0  0  0  0  0  0  0  0  0  0  0  0
    1.0874   -0.1082    3.3163 H   0  0  0  0  0  0  0  0  0  0  0  0
    1.3993    1.5738    2.8229 H   0  0  0  0  0  0  0  0  0  0  0  0
   -0.1368    1.1411    3.6119 H   0  0  0  0  0  0  0  0  0  0  0  0
  5  6  2  0  0  0  0
  5  7  1  0  0  0  0
  2  3  1  0  0  0  0
  2  4  1  0  0  0  0
  2  5  1  0  0  0  0
  1  2  1  0  0  0  0
 29 30  2  0  0  0  0
 29 31  1  0  0  0  0
 26 27  1  0  0  0  0
 26 28  2  0  0  0  0
 24 25  1  0  0  0  0
 24 26  1  0  0  0  0
 22 23  1  0  0  0  0
 22 24  2  0  0  0  0
 20 21  1  0  0  0  0
 20 22  1  0  0  0  0
 19 20  2  0  0  0  0
 19 28  1  0  0  0  0
 17 18  1  0  0  0  0
 17 19  1  0  0  0  0
 15 16  1  0  0  0  0
 15 17  1  0  0  0  0
 14 15  2  0  0  0  0
 14 28  1  0  0  0  0
 11 12  1  0  0  0  0
 11 13  1  0  0  0  0
 11 14  1  0  0  0  0
  9 10  1  0  0  0  0
  9 11  1  0  0  0  0
  9 29  1  0  0  0  0
  7  8  1  0  0  0  0
  7  9  1  0  0  0  0
 33 34  1  0  0  0  0
 33 35  1  0  0  0  0
 33 36  1  0  0  0  0
 31 32  1  0  0  0  0
 31 33  1  0  0  0  0
M  END
$$$$
default_name
  -OEChem-12212115393D

 36 37  0     1  0  0  0  0  0999 V2000
   -4.0843   -4.0736    1.2944 H   0  0  0  0  0  0  0  0  0  0  0  0
   -4.0342   -3.2816    0.5484 C   0  0  0  0  0  0  0  0  0  0  0  0
   -4.8842   -2.6126    0.6694 H   0  0  0  0  0  0  0  0  0  0  0  0
   -4.0433   -3.7186   -0.4486 H   0  0  0  0  0  0  0  0  0  0  0  0
   -2.7532   -2.5046    0.7444 C   0  0  0  0  0  0  0  0  0  0  0  0
   -1.9803   -2.8096    1.6434 O   0  0  0  0  0  0  0  0  0  0  0  0
   -2.5332   -1.4966   -0.0966 N   0  0  0  0  0  0  0  0  0  0  0  0
   -3.2312   -1.2816   -0.7936 H   0  0  0  0  0  0  0  0  0  0  0  0
   -1.3593   -0.6196   -0.0536 C   0  0  1  0  0  0  0  0  0  0  0  0
   -0.5661   -1.0681   -0.6530 H   0  0  0  0  0  0  0  0  0  0  0  0
   -1.7144    0.7425   -0.6703 C   0  0  0  0  0  0  0  0  0  0  0  0
   -0.8268    1.3776   -0.6550 H   0  0  0  0  0  0  0  0  0  0  0  0
   -1.9926    0.5890   -1.7144 H   0  0  0  0  0  0  0  0  0  0  0  0
   -2.8246    1.4812    0.0135 C   0  0  0  0  0  0  0  0  0  0  0  0
   -2.6799    2.3291    1.0564 C   0  0  0  0  0  0  0  0  0  0  0  0
   -1.7356    2.5612    1.5367 H   0  0  0  0  0  0  0  0  0  0  0  0
   -3.9082    2.8618    1.3955 N   0  0  0  0  0  0  0  0  0  0  0  0
   -4.0412    3.5182    2.1509 H   0  0  0  0  0  0  0  0  0  0  0  0
   -4.9095    2.3933    0.5718 C   0  0  0  0  0  0  0  0  0  0  0  0
   -6.2857    2.6510    0.4946 C   0  0  0  0  0  0  0  0  0  0  0  0
   -6.7530    3.3404    1.1823 H   0  0  0  0  0  0  0  0  0  0  0  0
   -7.0485    1.9983   -0.4889 C   0  0  0  0  0  0  0  0  0  0  0  0
   -8.1115    2.1838   -0.5628 H   0  0  0  0  0  0  0  0  0  0  0  0
   -6.4282    1.0973   -1.3736 C   0  0  0  0  0  0  0  0  0  0  0  0
   -7.0203    0.5910   -2.1234 H   0  0  0  0  0  0  0  0  0  0  0  0
   -5.0445    0.8445   -1.2856 C   0  0  0  0  0  0  0  0  0  0  0  0
   -4.5830    0.1400   -1.9628 H   0  0  0  0  0  0  0  0  0  0  0  0
   -4.2496    1.4887   -0.3129 C   0  0  0  0  0  0  0  0  0  0  0  0
   -0.8278   -0.4731    1.3807 C   0  0  0  0  0  0  0  0  0  0  0  0
   -0.9656   -1.3904    2.1889 O   0  0  0  0  0  0  0  0  0  0  0  0
   -0.2229    0.6800    1.6958 N   0  0  0  0  0  0  0  0  0  0  0  0
   -0.1988    1.4034    0.9913 H   0  0  0  0  0  0  0  0  0  0  0  0
    0.3390    0.9808    3.0097 C   0  0  0  0  0  0  0  0  0  0  0  0
    1.0112    0.1769    3.3154 H   0  0  0  0  0  0  0  0  0  0  0  0
    0.8917    1.9206    2.9756 H   0  0  0  0  0  0  0  0  0  0  0  0
   -0.4661    1.0614    3.7420 H   0  0  0  0  0  0  0  0  0  0  0  0
  5  6  2  0  0  0  0
  5  7  1  0  0  0  0
  2  3  1  0  0  0  0
  2  4  1  0  0  0  0
  2  5  1  0  0  0  0
  1  2  1  0  0  0  0
 29 30  2  0  0  0  0
 29 31  1  0  0  0  0
 26 27  1  0  0  0  0
 26 28  2  0  0  0  0
 24 25  1  0  0  0  0
 24 26  1  0  0  0  0
 22 23  1  0  0  0  0
 22 24  2  0  0  0  0
 20 21  1  0  0  0  0
 20 22  1  0  0  0  0
 19 20  2  0  0  0  0
 19 28  1  0  0  0  0
 17 18  1  0  0  0  0
 17 19  1  0  0  0  0
 15 16  1  0  0  0  0
 15 17  1  0  0  0  0
 14 15  2  0  0  0  0
 14 28  1  0  0  0  0
 11 12  1  0  0  0  0
 11 13  1  0  0  0  0
 11 14  1  0  0  0  0
  9 10  1  0  0  0  0
  9 11  1  0  0  0  0
  9 29  1  0  0  0  0
  7  8  1  0  0  0  0
  7  9  1  0  0  0  0
 33 34  1  0  0  0  0
 33 35  1  0  0  0  0
 33 36  1  0  0  0  0
 31 32  1  0  0  0  0
 31 33  1  0  0  0  0
M  END
$$$$
default_name
  -OEChem-12212115393D

 36 37  0     1  0  0  0  0  0999 V2000
   -4.0843   -4.0736    1.2944 H   0  0  0  0  0  0  0  0  0  0  0  0
   -4.0342   -3.2816    0.5484 C   0  0  0  0  0  0  0  0  0  0  0  0
   -4.8842   -2.6126    0.6694 H   0  0  0  0  0  0  0  0  0  0  0  0
   -4.0433   -3.7186   -0.4486 H   0  0  0  0  0  0  0  0  0  0  0  0
   -2.7532   -2.5046    0.7444 C   0  0  0  0  0  0  0  0  0  0  0  0
   -1.9803   -2.8096    1.6434 O   0  0  0  0  0  0  0  0  0  0  0  0
   -2.5332   -1.4966   -0.0966 N   0  0  0  0  0  0  0  0  0  0  0  0
   -3.2312   -1.2816   -0.7936 H   0  0  0  0  0  0  0  0  0  0  0  0
   -1.3593   -0.6196   -0.0536 C   0  0  1  0  0  0  0  0  0  0  0  0
   -0.5661   -1.0681   -0.6530 H   0  0  0  0  0  0  0  0  0  0  0  0
   -1.7144    0.7425   -0.6703 C   0  0  0  0  0  0  0  0  0  0  0  0
   -0.8268    1.3776   -0.6550 H   0  0  0  0  0  0  0  0  0  0  0  0
   -1.9926    0.5890   -1.7144 H   0  0  0  0  0  0  0  0  0  0  0  0
   -2.8246    1.4812    0.0135 C   0  0  0  0  0  0  0  0  0  0  0  0
   -2.6799    2.3291    1.0564 C   0  0  0  0  0  0  0  0  0  0  0  0
   -1.7356    2.5612    1.5367 H   0  0  0  0  0  0  0  0  0  0  0  0
   -3.9082    2.8618    1.3955 N   0  0  0  0  0  0  0  0  0  0  0  0
   -4.0412    3.5182    2.1509 H   0  0  0  0  0  0  0  0  0  0  0  0
   -4.9095    2.3933    0.5718 C   0  0  0  0  0  0  0  0  0  0  0  0
   -6.2857    2.6510    0.4946 C   0  0  0  0  0  0  0  0  0  0  0  0
   -6.7530    3.3404    1.1823 H   0  0  0  0  0  0  0  0  0  0  0  0
   -7.0485    1.9983   -0.4889 C   0  0  0  0  0  0  0  0  0  0  0  0
   -8.1115    2.1838   -0.5628 H   0  0  0  0  0  0  0  0  0  0  0  0
   -6.4282    1.0973   -1.3736 C   0  0  0  0  0  0  0  0  0  0  0  0
   -7.0203    0.5910   -2.1234 H   0  0  0  0  0  0  0  0  0  0  0  0
   -5.0445    0.8445   -1.2856 C   0  0  0  0  0  0  0  0  0  0  0  0
   -4.5830    0.1400   -1.9628 H   0  0  0  0  0  0  0  0  0  0  0  0
   -4.2496    1.4887   -0.3129 C   0  0  0  0  0  0  0  0  0  0  0  0
   -0.8278   -0.4731    1.3807 C   0  0  0  0  0  0  0  0  0  0  0  0
   -0.7121   -1.4628    2.1023 O   0  0  0  0  0  0  0  0  0  0  0  0
   -0.5071    0.7607    1.7929 N   0  0  0  0  0  0  0  0  0  0  0  0
   -0.6828    1.5264    1.1581 H   0  0  0  0  0  0  0  0  0  0  0  0
    0.0124    1.0741    3.1211 C   0  0  0  0  0  0  0  0  0  0  0  0
    0.8688    0.4340    3.3419 H   0  0  0  0  0  0  0  0  0  0  0  0
    0.3214    2.1192    3.1666 H   0  0  0  0  0  0  0  0  0  0  0  0
   -0.7617    0.8931    3.8687 H   0  0  0  0  0  0  0  0  0  0  0  0
  5  6  2  0  0  0  0
  5  7  1  0  0  0  0
  2  3  1  0  0  0  0
  2  4  1  0  0  0  0
  2  5  1  0  0  0  0
  1  2  1  0  0  0  0
 29 30  2  0  0  0  0
 29 31  1  0  0  0  0
 26 27  1  0  0  0  0
 26 28  2  0  0  0  0
 24 25  1  0  0  0  0
 24 26  1  0  0  0  0
 22 23  1  0  0  0  0
 22 24  2  0  0  0  0
 20 21  1  0  0  0  0
 20 22  1  0  0  0  0
 19 20  2  0  0  0  0
 19 28  1  0  0  0  0
 17 18  1  0  0  0  0
 17 19  1  0  0  0  0
 15 16  1  0  0  0  0
 15 17  1  0  0  0  0
 14 15  2  0  0  0  0
 14 28  1  0  0  0  0
 11 12  1  0  0  0  0
 11 13  1  0  0  0  0
 11 14  1  0  0  0  0
  9 10  1  0  0  0  0
  9 11  1  0  0  0  0
  9 29  1  0  0  0  0
  7  8  1  0  0  0  0
  7  9  1  0  0  0  0
 33 34  1  0  0  0  0
 33 35  1  0  0  0  0
 33 36  1  0  0  0  0
 31 32  1  0  0  0  0
 31 33  1  0  0  0  0
M  END
$$$$
default_name
  -OEChem-12212115393D

 36 37  0     1  0  0  0  0  0999 V2000
   -4.0843   -4.0736    1.2944 H   0  0  0  0  0  0  0  0  0  0  0  0
   -4.0342   -3.2816    0.5484 C   0  0  0  0  0  0  0  0  0  0  0  0
   -4.8842   -2.6126    0.6694 H   0  0  0  0  0  0  0  0  0  0  0  0
   -4.0433   -3.7186   -0.4486 H   0  0  0  0  0  0  0  0  0  0  0  0
   -2.7532   -2.5046    0.7444 C   0  0  0  0  0  0  0  0  0  0  0  0
   -1.9803   -2.8096    1.6434 O   0  0  0  0  0  0  0  0  0  0  0  0
   -2.5332   -1.4966   -0.0966 N   0  0  0  0  0  0  0  0  0  0  0  0
   -3.2312   -1.2816   -0.7936 H   0  0  0  0  0  0  0  0  0  0  0  0
   -1.3593   -0.6196   -0.0536 C   0  0  1  0  0  0  0  0  0  0  0  0
   -0.5661   -1.0681   -0.6530 H   0  0  0  0  0  0  0  0  0  0  0  0
   -1.7144    0.7425   -0.6703 C   0  0  0  0  0  0  0  0  0  0  0  0
   -0.8268    1.3776   -0.6550 H   0  0  0  0  0  0  0  0  0  0  0  0
   -1.9926    0.5890   -1.7144 H   0  0  0  0  0  0  0  0  0  0  0  0
   -2.8246    1.4812    0.0135 C   0  0  0  0  0  0  0  0  0  0  0  0
   -2.6799    2.3291    1.0564 C   0  0  0  0  0  0  0  0  0  0  0  0
   -1.7356    2.5612    1.5367 H   0  0  0  0  0  0  0  0  0  0  0  0
   -3.9082    2.8618    1.3955 N   0  0  0  0  0  0  0  0  0  0  0  0
   -4.0412    3.5182    2.1509 H   0  0  0  0  0  0  0  0  0  0  0  0
   -4.9095    2.3933    0.5718 C   0  0  0  0  0  0  0  0  0  0  0  0
   -6.2857    2.6510    0.4946 C   0  0  0  0  0  0  0  0  0  0  0  0
   -6.7530    3.3404    1.1823 H   0  0  0  0  0  0  0  0  0  0  0  0
   -7.0485    1.9983   -0.4889 C   0  0  0  0  0  0  0  0  0  0  0  0
   -8.1115    2.1838   -0.5628 H   0  0  0  0  0  0  0  0  0  0  0  0
   -6.4282    1.0973   -1.3736 C   0  0  0  0  0  0  0  0  0  0  0  0
   -7.0203    0.5910   -2.1234 H   0  0  0  0  0  0  0  0  0  0  0  0
   -5.0445    0.8445   -1.2856 C   0  0  0  0  0  0  0  0  0  0  0  0
   -4.5830    0.1400   -1.9628 H   0  0  0  0  0  0  0  0  0  0  0  0
   -4.2496    1.4887   -0.3129 C   0  0  0  0  0  0  0  0  0  0  0  0
   -0.8278   -0.4731    1.3807 C   0  0  0  0  0  0  0  0  0  0  0  0
   -0.4518   -1.4637    2.0060 O   0  0  0  0  0  0  0  0  0  0  0  0
   -0.7987    0.7612    1.9009 N   0  0  0  0  0  0  0  0  0  0  0  0
   -1.1759    1.5134    1.3421 H   0  0  0  0  0  0  0  0  0  0  0  0
   -0.3227    1.0753    3.2452 C   0  0  0  0  0  0  0  0  0  0  0  0
    0.6697    0.6456    3.3941 H   0  0  0  0  0  0  0  0  0  0  0  0
   -0.2727    2.1561    3.3830 H   0  0  0  0  0  0  0  0  0  0  0  0
   -1.0035    0.6479    3.9833 H   0  0  0  0  0  0  0  0  0  0  0  0
  5  6  2  0  0  0  0
  5  7  1  0  0  0  0
  2  3  1  0  0  0  0
  2  4  1  0  0  0  0
  2  5  1  0  0  0  0
  1  2  1  0  0  0  0
 29 30  2  0  0  0  0
 29 31  1  0  0  0  0
 26 27  1  0  0  0  0
 26 28  2  0  0  0  0
 24 25  1  0  0  0  0
 24 26  1  0  0  0  0
 22 23  1  0  0  0  0
 22 24  2  0  0  0  0
 20 21  1  0  0  0  0
 20 22  1  0  0  0  0
 19 20  2  0  0  0  0
 19 28  1  0  0  0  0
 17 18  1  0  0  0  0
 17 19  1  0  0  0  0
 15 16  1  0  0  0  0
 15 17  1  0  0  0  0
 14 15  2  0  0  0  0
 14 28  1  0  0  0  0
 11 12  1  0  0  0  0
 11 13  1  0  0  0  0
 11 14  1  0  0  0  0
  9 10  1  0  0  0  0
  9 11  1  0  0  0  0
  9 29  1  0  0  0  0
  7  8  1  0  0  0  0
  7  9  1  0  0  0  0
 33 34  1  0  0  0  0
 33 35  1  0  0  0  0
 33 36  1  0  0  0  0
 31 32  1  0  0  0  0
 31 33  1  0  0  0  0
M  END
$$$$
default_name
  -OEChem-12212115393D

 36 37  0     1  0  0  0  0  0999 V2000
   -4.0843   -4.0736    1.2944 H   0  0  0  0  0  0  0  0  0  0  0  0
   -4.0342   -3.2816    0.5484 C   0  0  0  0  0  0  0  0  0  0  0  0
   -4.8842   -2.6126    0.6694 H   0  0  0  0  0  0  0  0  0  0  0  0
   -4.0433   -3.7186   -0.4486 H   0  0  0  0  0  0  0  0  0  0  0  0
   -2.7532   -2.5046    0.7444 C   0  0  0  0  0  0  0  0  0  0  0  0
   -1.9803   -2.8096    1.6434 O   0  0  0  0  0  0  0  0  0  0  0  0
   -2.5332   -1.4966   -0.0966 N   0  0  0  0  0  0  0  0  0  0  0  0
   -3.2312   -1.2816   -0.7936 H   0  0  0  0  0  0  0  0  0  0  0  0
   -1.3593   -0.6196   -0.0536 C   0  0  1  0  0  0  0  0  0  0  0  0
   -0.5661   -1.0681   -0.6530 H   0  0  0  0  0  0  0  0  0  0  0  0
   -1.7144    0.7425   -0.6703 C   0  0  0  0  0  0  0  0  0  0  0  0
   -0.8268    1.3776   -0.6550 H   0  0  0  0  0  0  0  0  0  0  0  0
   -1.9926    0.5890   -1.7144 H   0  0  0  0  0  0  0  0  0  0  0  0
   -2.8246    1.4812    0.0135 C   0  0  0  0  0  0  0  0  0  0  0  0
   -2.6799    2.3291    1.0564 C   0  0  0  0  0  0  0  0  0  0  0  0
   -1.7356    2.5612    1.5367 H   0  0  0  0  0  0  0  0  0  0  0  0
   -3.9082    2.8618    1.3955 N   0  0  0  0  0  0  0  0  0  0  0  0
   -4.0412    3.5182    2.1509 H   0  0  0  0  0  0  0  0  0  0  0  0
   -4.9095    2.3933    0.5718 C   0  0  0  0  0  0  0  0  0  0  0  0
   -6.2857    2.6510    0.4946 C   0  0  0  0  0  0  0  0  0  0  0  0
   -6.7530    3.3404    1.1823 H   0  0  0  0  0  0  0  0  0  0  0  0
   -7.0485    1.9983   -0.4889 C   0  0  0  0  0  0  0  0  0  0  0  0
   -8.1115    2.1838   -0.5628 H   0  0  0  0  0  0  0  0  0  0  0  0
   -6.4282    1.0973   -1.3736 C   0  0  0  0  0  0  0  0  0  0  0  0
   -7.0203    0.5910   -2.1234 H   0  0  0  0  0  0  0  0  0  0  0  0
   -5.0445    0.8445   -1.2856 C   0  0  0  0  0  0  0  0  0  0  0  0
   -4.5830    0.1400   -1.9628 H   0  0  0  0  0  0  0  0  0  0  0  0
   -4.2496    1.4887   -0.3129 C   0  0  0  0  0  0  0  0  0  0  0  0
   -0.8278   -0.4731    1.3807 C   0  0  0  0  0  0  0  0  0  0  0  0
   -0.2026   -1.3931    1.9065 O   0  0  0  0  0  0  0  0  0  0  0  0
   -1.0779    0.6816    2.0124 N   0  0  0  0  0  0  0  0  0  0  0  0
   -1.6445    1.3652    1.5309 H   0  0  0  0  0  0  0  0  0  0  0  0
   -0.6437    0.9843    3.3734 C   0  0  0  0  0  0  0  0  0  0  0  0
    0.4276    0.7972    3.4683 H   0  0  0  0  0  0  0  0  0  0  0  0
   -0.8502    2.0289    3.6099 H   0  0  0  0  0  0  0  0  0  0  0  0
   -1.1749    0.3423    4.0781 H   0  0  0  0  0  0  0  0  0  0  0  0
  5  6  2  0  0  0  0
  5  7  1  0  0  0  0
  2  3  1  0  0  0  0
  2  4  1  0  0  0  0
  2  5  1  0  0  0  0
  1  2  1  0  0  0  0
 29 30  2  0  0  0  0
 29 31  1  0  0  0  0
 26 27  1  0  0  0  0
 26 28  2  0  0  0  0
 24 25  1  0  0  0  0
 24 26  1  0  0  0  0
 22 23  1  0  0  0  0
 22 24  2  0  0  0  0
 20 21  1  0  0  0  0
 20 22  1  0  0  0  0
 19 20  2  0  0  0  0
 19 28  1  0  0  0  0
 17 18  1  0  0  0  0
 17 19  1  0  0  0  0
 15 16  1  0  0  0  0
 15 17  1  0  0  0  0
 14 15  2  0  0  0  0
 14 28  1  0  0  0  0
 11 12  1  0  0  0  0
 11 13  1  0  0  0  0
 11 14  1  0  0  0  0
  9 10  1  0  0  0  0
  9 11  1  0  0  0  0
  9 29  1  0  0  0  0
  7  8  1  0  0  0  0
  7  9  1  0  0  0  0
 33 34  1  0  0  0  0
 33 35  1  0  0  0  0
 33 36  1  0  0  0  0
 31 32  1  0  0  0  0
 31 33  1  0  0  0  0
M  END
$$$$
default_name
  -OEChem-12212115393D

 36 37  0     1  0  0  0  0  0999 V2000
   -4.0843   -4.0736    1.2944 H   0  0  0  0  0  0  0  0  0  0  0  0
   -4.0342   -3.2816    0.5484 C   0  0  0  0  0  0  0  0  0  0  0  0
   -4.8842   -2.6126    0.6694 H   0  0  0  0  0  0  0  0  0  0  0  0
   -4.0433   -3.7186   -0.4486 H   0  0  0  0  0  0  0  0  0  0  0  0
   -2.7532   -2.5046    0.7444 C   0  0  0  0  0  0  0  0  0  0  0  0
   -1.9803   -2.8096    1.6434 O   0  0  0  0  0  0  0  0  0  0  0  0
   -2.5332   -1.4966   -0.0966 N   0  0  0  0  0  0  0  0  0  0  0  0
   -3.2312   -1.2816   -0.7936 H   0  0  0  0  0  0  0  0  0  0  0  0
   -1.3593   -0.6196   -0.0536 C   0  0  1  0  0  0  0  0  0  0  0  0
   -0.5661   -1.0681   -0.6530 H   0  0  0  0  0  0  0  0  0  0  0  0
   -1.7144    0.7425   -0.6703 C   0  0  0  0  0  0  0  0  0  0  0  0
   -0.8268    1.3776   -0.6550 H   0  0  0  0  0  0  0  0  0  0  0  0
   -1.9926    0.5890   -1.7144 H   0  0  0  0  0  0  0  0  0  0  0  0
   -2.8246    1.4812    0.0135 C   0  0  0  0  0  0  0  0  0  0  0  0
   -2.6799    2.3291    1.0564 C   0  0  0  0  0  0  0  0  0  0  0  0
   -1.7356    2.5612    1.5367 H   0  0  0  0  0  0  0  0  0  0  0  0
   -3.9082    2.8618    1.3955 N   0  0  0  0  0  0  0  0  0  0  0  0
   -4.0412    3.5182    2.1509 H   0  0  0  0  0  0  0  0  0  0  0  0
   -4.9095    2.3933    0.5718 C   0  0  0  0  0  0  0  0  0  0  0  0
   -6.2857    2.6510    0.4946 C   0  0  0  0  0  0  0  0  0  0  0  0
   -6.7530    3.3404    1.1823 H   0  0  0  0  0  0  0  0  0  0  0  0
   -7.0485    1.9983   -0.4889 C   0  0  0  0  0  0  0  0  0  0  0  0
   -8.1115    2.1838   -0.5628 H   0  0  0  0  0  0  0  0  0  0  0  0
   -6.4282    1.0973   -1.3736 C   0  0  0  0  0  0  0  0  0  0  0  0
   -7.0203    0.5910   -2.1234 H   0  0  0  0  0  0  0  0  0  0  0  0
   -5.0445    0.8445   -1.2856 C   0  0  0  0  0  0  0  0  0  0  0  0
   -4.5830    0.1400   -1.9628 H   0  0  0  0  0  0  0  0  0  0  0  0
   -4.2496    1.4887   -0.3129 C   0  0  0  0  0  0  0  0  0  0  0  0
   -0.8278   -0.4731    1.3807 C   0  0  0  0  0  0  0  0  0  0  0  0
    0.0186   -1.2557    1.8105 O   0  0  0  0  0  0  0  0  0  0  0  0
   -1.3255    0.5273    2.1200 N   0  0  0  0  0  0  0  0  0  0  0  0
   -2.0567    1.0919    1.7115 H   0  0  0  0  0  0  0  0  0  0  0  0
   -0.9286    0.8075    3.4970 C   0  0  0  0  0  0  0  0  0  0  0  0
    0.1589    0.8784    3.5595 H   0  0  0  0  0  0  0  0  0  0  0  0
   -1.3717    1.7462    3.8320 H   0  0  0  0  0  0  0  0  0  0  0  0
   -1.2644   -0.0027    4.1465 H   0  0  0  0  0  0  0  0  0  0  0  0
  5  6  2  0  0  0  0
  5  7  1  0  0  0  0
  2  3  1  0  0  0  0
  2  4  1  0  0  0  0
  2  5  1  0  0  0  0
  1  2  1  0  0  0  0
 29 30  2  0  0  0  0
 29 31  1  0  0  0  0
 26 27  1  0  0  0  0
 26 28  2  0  0  0  0
 24 25  1  0  0  0  0
 24 26  1  0  0  0  0
 22 23  1  0  0  0  0
 22 24  2  0  0  0  0
 20 21  1  0  0  0  0
 20 22  1  0  0  0  0
 19 20  2  0  0  0  0
 19 28  1  0  0  0  0
 17 18  1  0  0  0  0
 17 19  1  0  0  0  0
 15 16  1  0  0  0  0
 15 17  1  0  0  0  0
 14 15  2  0  0  0  0
 14 28  1  0  0  0  0
 11 12  1  0  0  0  0
 11 13  1  0  0  0  0
 11 14  1  0  0  0  0
  9 10  1  0  0  0  0
  9 11  1  0  0  0  0
  9 29  1  0  0  0  0
  7  8  1  0  0  0  0
  7  9  1  0  0  0  0
 33 34  1  0  0  0  0
 33 35  1  0  0  0  0
 33 36  1  0  0  0  0
 31 32  1  0  0  0  0
 31 33  1  0  0  0  0
M  END
$$$$
default_name
  -OEChem-12212115393D

 36 37  0     1  0  0  0  0  0999 V2000
   -4.0843   -4.0736    1.2944 H   0  0  0  0  0  0  0  0  0  0  0  0
   -4.0342   -3.2816    0.5484 C   0  0  0  0  0  0  0  0  0  0  0  0
   -4.8842   -2.6126    0.6694 H   0  0  0  0  0  0  0  0  0  0  0  0
   -4.0433   -3.7186   -0.4486 H   0  0  0  0  0  0  0  0  0  0  0  0
   -2.7532   -2.5046    0.7444 C   0  0  0  0  0  0  0  0  0  0  0  0
   -1.9803   -2.8096    1.6434 O   0  0  0  0  0  0  0  0  0  0  0  0
   -2.5332   -1.4966   -0.0966 N   0  0  0  0  0  0  0  0  0  0  0  0
   -3.2312   -1.2816   -0.7936 H   0  0  0  0  0  0  0  0  0  0  0  0
   -1.3593   -0.6196   -0.0536 C   0  0  1  0  0  0  0  0  0  0  0  0
   -0.5661   -1.0681   -0.6530 H   0  0  0  0  0  0  0  0  0  0  0  0
   -1.7144    0.7425   -0.6703 C   0  0  0  0  0  0  0  0  0  0  0  0
   -0.8268    1.3776   -0.6550 H   0  0  0  0  0  0  0  0  0  0  0  0
   -1.9926    0.5890   -1.7144 H   0  0  0  0  0  0  0  0  0  0  0  0
   -2.8246    1.4812    0.0135 C   0  0  0  0  0  0  0  0  0  0  0  0
   -2.6799    2.3291    1.0564 C   0  0  0  0  0  0  0  0  0  0  0  0
   -1.7356    2.5612    1.5367 H   0  0  0  0  0  0  0  0  0  0  0  0
   -3.9082    2.8618    1.3955 N   0  0  0  0  0  0  0  0  0  0  0  0
   -4.0412    3.5182    2.1509 H   0  0  0  0  0  0  0  0  0  0  0  0
   -4.9095    2.3933    0.5718 C   0  0  0  0  0  0  0  0  0  0  0  0
   -6.2857    2.6510    0.4946 C   0  0  0  0  0  0  0  0  0  0  0  0
   -6.7530    3.3404    1.1823 H   0  0  0  0  0  0  0  0  0  0  0  0
   -7.0485    1.9983   -0.4889 C   0  0  0  0  0  0  0  0  0  0  0  0
   -8.1115    2.1838   -0.5628 H   0  0  0  0  0  0  0  0  0  0  0  0
   -6.4282    1.0973   -1.3736 C   0  0  0  0  0  0  0  0  0  0  0  0
   -7.0203    0.5910   -2.1234 H   0  0  0  0  0  0  0  0  0  0  0  0
   -5.0445    0.8445   -1.2856 C   0  0  0  0  0  0  0  0  0  0  0  0
   -4.5830    0.1400   -1.9628 H   0  0  0  0  0  0  0  0  0  0  0  0
   -4.2496    1.4887   -0.3129 C   0  0  0  0  0  0  0  0  0  0  0  0
   -0.8278   -0.4731    1.3807 C   0  0  0  0  0  0  0  0  0  0  0  0
    0.1967   -1.0610    1.7246 O   0  0  0  0  0  0  0  0  0  0  0  0
   -1.5248    0.3088    2.2161 N   0  0  0  0  0  0  0  0  0  0  0  0
   -2.3844    0.7122    1.8717 H   0  0  0  0  0  0  0  0  0  0  0  0
   -1.1580    0.5568    3.6076 C   0  0  0  0  0  0  0  0  0  0  0  0
   -0.1179    0.8839    3.6616 H   0  0  0  0  0  0  0  0  0  0  0  0
   -1.8016    1.3273    4.0341 H   0  0  0  0  0  0  0  0  0  0  0  0
   -1.2657   -0.3637    4.1838 H   0  0  0  0  0  0  0  0  0  0  0  0
  5  6  2  0  0  0  0
  5  7  1  0  0  0  0
  2  3  1  0  0  0  0
  2  4  1  0  0  0  0
  2  5  1  0  0  0  0
  1  2  1  0  0  0  0
 29 30  2  0  0  0  0
 29 31  1  0  0  0  0
 26 27  1  0  0  0  0
 26 28  2  0  0  0  0
 24 25  1  0  0  0  0
 24 26  1  0  0  0  0
 22 23  1  0  0  0  0
 22 24  2  0  0  0  0
 20 21  1  0  0  0  0
 20 22  1  0  0  0  0
 19 20  2  0  0  0  0
 19 28  1  0  0  0  0
 17 18  1  0  0  0  0
 17 19  1  0  0  0  0
 15 16  1  0  0  0  0
 15 17  1  0  0  0  0
 14 15  2  0  0  0  0
 14 28  1  0  0  0  0
 11 12  1  0  0  0  0
 11 13  1  0  0  0  0
 11 14  1  0  0  0  0
  9 10  1  0  0  0  0
  9 11  1  0  0  0  0
  9 29  1  0  0  0  0
  7  8  1  0  0  0  0
  7  9  1  0  0  0  0
 33 34  1  0  0  0  0
 33 35  1  0  0  0  0
 33 36  1  0  0  0  0
 31 32  1  0  0  0  0
 31 33  1  0  0  0  0
M  END
$$$$
default_name
  -OEChem-12212115393D

 36 37  0     1  0  0  0  0  0999 V2000
   -4.0843   -4.0736    1.2944 H   0  0  0  0  0  0  0  0  0  0  0  0
   -4.0342   -3.2816    0.5484 C   0  0  0  0  0  0  0  0  0  0  0  0
   -4.8842   -2.6126    0.6694 H   0  0  0  0  0  0  0  0  0  0  0  0
   -4.0433   -3.7186   -0.4486 H   0  0  0  0  0  0  0  0  0  0  0  0
   -2.7532   -2.5046    0.7444 C   0  0  0  0  0  0  0  0  0  0  0  0
   -1.9803   -2.8096    1.6434 O   0  0  0  0  0  0  0  0  0  0  0  0
   -2.5332   -1.4966   -0.0966 N   0  0  0  0  0  0  0  0  0  0  0  0
   -3.2312   -1.2816   -0.7936 H   0  0  0  0  0  0  0  0  0  0  0  0
   -1.3593   -0.6196   -0.0536 C   0  0  1  0  0  0  0  0  0  0  0  0
   -0.5661   -1.0681   -0.6530 H   0  0  0  0  0  0  0  0  0  0  0  0
   -1.7144    0.7425   -0.6703 C   0  0  0  0  0  0  0  0  0  0  0  0
   -0.8268    1.3776   -0.6550 H   0  0  0  0  0  0  0  0  0  0  0  0
   -1.9926    0.5890   -1.7144 H   0  0  0  0  0  0  0  0  0  0  0  0
   -2.8246    1.4812    0.0135 C   0  0  0  0  0  0  0  0  0  0  0  0
   -2.6799    2.3291    1.0564 C   0  0  0  0  0  0  0  0  0  0  0  0
   -1.7356    2.5612    1.5367 H   0  0  0  0  0  0  0  0  0  0  0  0
   -3.9082    2.8618    1.3955 N   0  0  0  0  0  0  0  0  0  0  0  0
   -4.0412    3.5182    2.1509 H   0  0  0  0  0  0  0  0  0  0  0  0
   -4.9095    2.3933    0.5718 C   0  0  0  0  0  0  0  0  0  0  0  0
   -6.2857    2.6510    0.4946 C   0  0  0  0  0  0  0  0  0  0  0  0
   -6.7530    3.3404    1.1823 H   0  0  0  0  0  0  0  0  0  0  0  0
   -7.0485    1.9983   -0.4889 C   0  0  0  0  0  0  0  0  0  0  0  0
   -8.1115    2.1838   -0.5628 H   0  0  0  0  0  0  0  0  0  0  0  0
   -6.4282    1.0973   -1.3736 C   0  0  0  0  0  0  0  0  0  0  0  0
   -7.0203    0.5910   -2.1234 H   0  0  0  0  0  0  0  0  0  0  0  0
   -5.0445    0.8445   -1.2856 C   0  0  0  0  0  0  0  0  0  0  0  0
   -4.5830    0.1400   -1.9628 H   0  0  0  0  0  0  0  0  0  0  0  0
   -4.2496    1.4887   -0.3129 C   0  0  0  0  0  0  0  0  0  0  0  0
   -0.8278   -0.4731    1.3807 C   0  0  0  0  0  0  0  0  0  0  0  0
    0.3196   -0.8222    1.6547 O   0  0  0  0  0  0  0  0  0  0  0  0
   -1.6621    0.0410    2.2943 N   0  0  0  0  0  0  0  0  0  0  0  0
   -2.6052    0.2519    2.0005 H   0  0  0  0  0  0  0  0  0  0  0  0
   -1.3163    0.2493    3.6977 C   0  0  0  0  0  0  0  0  0  0  0  0
   -0.3842    0.8131    3.7674 H   0  0  0  0  0  0  0  0  0  0  0  0
   -2.1107    0.8007    4.2024 H   0  0  0  0  0  0  0  0  0  0  0  0
   -1.1789   -0.7161    4.1877 H   0  0  0  0  0  0  0  0  0  0  0  0
  5  6  2  0  0  0  0
  5  7  1  0  0  0  0
  2  3  1  0  0  0  0
  2  4  1  0  0  0  0
  2  5  1  0  0  0  0
  1  2  1  0  0  0  0
 29 30  2  0  0  0  0
 29 31  1  0  0  0  0
 26 27  1  0  0  0  0
 26 28  2  0  0  0  0
 24 25  1  0  0  0  0
 24 26  1  0  0  0  0
 22 23  1  0  0  0  0
 22 24  2  0  0  0  0
 20 21  1  0  0  0  0
 20 22  1  0  0  0  0
 19 20  2  0  0  0  0
 19 28  1  0  0  0  0
 17 18  1  0  0  0  0
 17 19  1  0  0  0  0
 15 16  1  0  0  0  0
 15 17  1  0  0  0  0
 14 15  2  0  0  0  0
 14 28  1  0  0  0  0
 11 12  1  0  0  0  0
 11 13  1  0  0  0  0
 11 14  1  0  0  0  0
  9 10  1  0  0  0  0
  9 11  1  0  0  0  0
  9 29  1  0  0  0  0
  7  8  1  0  0  0  0
  7  9  1  0  0  0  0
 33 34  1  0  0  0  0
 33 35  1  0  0  0  0
 33 36  1  0  0  0  0
 31 32  1  0  0  0  0
 31 33  1  0  0  0  0
M  END
$$$$
default_name
  -OEChem-12212115393D

 36 37  0     1  0  0  0  0  0999 V2000
   -4.0843   -4.0736    1.2944 H   0  0  0  0  0  0  0  0  0  0  0  0
   -4.0342   -3.2816    0.5484 C   0  0  0  0  0  0  0  0  0  0  0  0
   -4.8842   -2.6126    0.6694 H   0  0  0  0  0  0  0  0  0  0  0  0
   -4.0433   -3.7186   -0.4486 H   0  0  0  0  0  0  0  0  0  0  0  0
   -2.7532   -2.5046    0.7444 C   0  0  0  0  0  0  0  0  0  0  0  0
   -1.9803   -2.8096    1.6434 O   0  0  0  0  0  0  0  0  0  0  0  0
   -2.5332   -1.4966   -0.0966 N   0  0  0  0  0  0  0  0  0  0  0  0
   -3.2312   -1.2816   -0.7936 H   0  0  0  0  0  0  0  0  0  0  0  0
   -1.3593   -0.6196   -0.0536 C   0  0  1  0  0  0  0  0  0  0  0  0
   -0.5661   -1.0681   -0.6530 H   0  0  0  0  0  0  0  0  0  0  0  0
   -1.7144    0.7425   -0.6703 C   0  0  0  0  0  0  0  0  0  0  0  0
   -0.8268    1.3776   -0.6550 H   0  0  0  0  0  0  0  0  0  0  0  0
   -1.9926    0.5890   -1.7144 H   0  0  0  0  0  0  0  0  0  0  0  0
   -2.8246    1.4812    0.0135 C   0  0  0  0  0  0  0  0  0  0  0  0
   -2.6799    2.3291    1.0564 C   0  0  0  0  0  0  0  0  0  0  0  0
   -1.7356    2.5612    1.5367 H   0  0  0  0  0  0  0  0  0  0  0  0
   -3.9082    2.8618    1.3955 N   0  0  0  0  0  0  0  0  0  0  0  0
   -4.0412    3.5182    2.1509 H   0  0  0  0  0  0  0  0  0  0  0  0
   -4.9095    2.3933    0.5718 C   0  0  0  0  0  0  0  0  0  0  0  0
   -6.2857    2.6510    0.4946 C   0  0  0  0  0  0  0  0  0  0  0  0
   -6.7530    3.3404    1.1823 H   0  0  0  0  0  0  0  0  0  0  0  0
   -7.0485    1.9983   -0.4889 C   0  0  0  0  0  0  0  0  0  0  0  0
   -8.1115    2.1838   -0.5628 H   0  0  0  0  0  0  0  0  0  0  0  0
   -6.4282    1.0973   -1.3736 C   0  0  0  0  0  0  0  0  0  0  0  0
   -7.0203    0.5910   -2.1234 H   0  0  0  0  0  0  0  0  0  0  0  0
   -5.0445    0.8445   -1.2856 C   0  0  0  0  0  0  0  0  0  0  0  0
   -4.5830    0.1400   -1.9628 H   0  0  0  0  0  0  0  0  0  0  0  0
   -4.2496    1.4887   -0.3129 C   0  0  0  0  0  0  0  0  0  0  0  0
   -0.8278   -0.4731    1.3807 C   0  0  0  0  0  0  0  0  0  0  0  0
    0.3789   -0.5556    1.6055 O   0  0  0  0  0  0  0  0  0  0  0  0
   -1.7281   -0.2579    2.3493 N   0  0  0  0  0  0  0  0  0  0  0  0
   -2.7041   -0.2576    2.0892 H   0  0  0  0  0  0  0  0  0  0  0  0
   -1.3927   -0.0941    3.7611 C   0  0  0  0  0  0  0  0  0  0  0  0
   -0.6217    0.6710    3.8699 H   0  0  0  0  0  0  0  0  0  0  0  0
   -2.2778    0.2023    4.3254 H   0  0  0  0  0  0  0  0  0  0  0  0
   -1.0098   -1.0359    4.1577 H   0  0  0  0  0  0  0  0  0  0  0  0
  5  6  2  0  0  0  0
  5  7  1  0  0  0  0
  2  3  1  0  0  0  0
  2  4  1  0  0  0  0
  2  5  1  0  0  0  0
  1  2  1  0  0  0  0
 29 30  2  0  0  0  0
 29 31  1  0  0  0  0
 26 27  1  0  0  0  0
 26 28  2  0  0  0  0
 24 25  1  0  0  0  0
 24 26  1  0  0  0  0
 22 23  1  0  0  0  0
 22 24  2  0  0  0  0
 20 21  1  0  0  0  0
 20 22  1  0  0  0  0
 19 20  2  0  0  0  0
 19 28  1  0  0  0  0
 17 18  1  0  0  0  0
 17 19  1  0  0  0  0
 15 16  1  0  0  0  0
 15 17  1  0  0  0  0
 14 15  2  0  0  0  0
 14 28  1  0  0  0  0
 11 12  1  0  0  0  0
 11 13  1  0  0  0  0
 11 14  1  0  0  0  0
  9 10  1  0  0  0  0
  9 11  1  0  0  0  0
  9 29  1  0  0  0  0
  7  8  1  0  0  0  0
  7  9  1  0  0  0  0
 33 34  1  0  0  0  0
 33 35  1  0  0  0  0
 33 36  1  0  0  0  0
 31 32  1  0  0  0  0
 31 33  1  0  0  0  0
M  END
$$$$
default_name
  -OEChem-12212115393D

 36 37  0     1  0  0  0  0  0999 V2000
   -4.0843   -4.0736    1.2944 H   0  0  0  0  0  0  0  0  0  0  0  0
   -4.0342   -3.2816    0.5484 C   0  0  0  0  0  0  0  0  0  0  0  0
   -4.8842   -2.6126    0.6694 H   0  0  0  0  0  0  0  0  0  0  0  0
   -4.0433   -3.7186   -0.4486 H   0  0  0  0  0  0  0  0  0  0  0  0
   -2.7532   -2.5046    0.7444 C   0  0  0  0  0  0  0  0  0  0  0  0
   -1.9803   -2.8096    1.6434 O   0  0  0  0  0  0  0  0  0  0  0  0
   -2.5332   -1.4966   -0.0966 N   0  0  0  0  0  0  0  0  0  0  0  0
   -3.2312   -1.2816   -0.7936 H   0  0  0  0  0  0  0  0  0  0  0  0
   -1.3593   -0.6196   -0.0536 C   0  0  1  0  0  0  0  0  0  0  0  0
   -0.5661   -1.0681   -0.6530 H   0  0  0  0  0  0  0  0  0  0  0  0
   -1.7144    0.7425   -0.6703 C   0  0  0  0  0  0  0  0  0  0  0  0
   -0.8268    1.3776   -0.6550 H   0  0  0  0  0  0  0  0  0  0  0  0
   -1.9926    0.5890   -1.7144 H   0  0  0  0  0  0  0  0  0  0  0  0
   -2.8246    1.4812    0.0135 C   0  0  0  0  0  0  0  0  0  0  0  0
   -2.6799    2.3291    1.0564 C   0  0  0  0  0  0  0  0  0  0  0  0
   -1.7356    2.5612    1.5367 H   0  0  0  0  0  0  0  0  0  0  0  0
   -3.9082    2.8618    1.3955 N   0  0  0  0  0  0  0  0  0  0  0  0
   -4.0412    3.5182    2.1509 H   0  0  0  0  0  0  0  0  0  0  0  0
   -4.9095    2.3933    0.5718 C   0  0  0  0  0  0  0  0  0  0  0  0
   -6.2857    2.6510    0.4946 C   0  0  0  0  0  0  0  0  0  0  0  0
   -6.7530    3.3404    1.1823 H   0  0  0  0  0  0  0  0  0  0  0  0
   -7.0485    1.9983   -0.4889 C   0  0  0  0  0  0  0  0  0  0  0  0
   -8.1115    2.1838   -0.5628 H   0  0  0  0  0  0  0  0  0  0  0  0
   -6.4282    1.0973   -1.3736 C   0  0  0  0  0  0  0  0  0  0  0  0
   -7.0203    0.5910   -2.1234 H   0  0  0  0  0  0  0  0  0  0  0  0
   -5.0445    0.8445   -1.2856 C   0  0  0  0  0  0  0  0  0  0  0  0
   -4.5830    0.1400   -1.9628 H   0  0  0  0  0  0  0  0  0  0  0  0
   -4.2496    1.4887   -0.3129 C   0  0  0  0  0  0  0  0  0  0  0  0
   -0.8278   -0.4731    1.3807 C   0  0  0  0  0  0  0  0  0  0  0  0
    0.3706   -0.2794    1.5803 O   0  0  0  0  0  0  0  0  0  0  0  0
   -1.7183   -0.5674    2.3773 N   0  0  0  0  0  0  0  0  0  0  0  0
   -2.6744   -0.7816    2.1317 H   0  0  0  0  0  0  0  0  0  0  0  0
   -1.3820   -0.4498    3.7934 C   0  0  0  0  0  0  0  0  0  0  0  0
   -0.8142    0.4671    3.9621 H   0  0  0  0  0  0  0  0  0  0  0  0
   -2.2917   -0.4271    4.3949 H   0  0  0  0  0  0  0  0  0  0  0  0
   -0.7700   -1.3012    4.0959 H   0  0  0  0  0  0  0  0  0  0  0  0
  5  6  2  0  0  0  0
  5  7  1  0  0  0  0
  2  3  1  0  0  0  0
  2  4  1  0  0  0  0
  2  5  1  0  0  0  0
  1  2  1  0  0  0  0
 29 30  2  0  0  0  0
 29 31  1  0  0  0  0
 26 27  1  0  0  0  0
 26 28  2  0  0  0  0
 24 25  1  0  0  0  0
 24 26  1  0  0  0  0
 22 23  1  0  0  0  0
 22 24  2  0  0  0  0
 20 21  1  0  0  0  0
 20 22  1  0  0  0  0
 19 20  2  0  0  0  0
 19 28  1  0  0  0  0
 17 18  1  0  0  0  0
 17 19  1  0  0  0  0
 15 16  1  0  0  0  0
 15 17  1  0  0  0  0
 14 15  2  0  0  0  0
 14 28  1  0  0  0  0
 11 12  1  0  0  0  0
 11 13  1  0  0  0  0
 11 14  1  0  0  0  0
  9 10  1  0  0  0  0
  9 11  1  0  0  0  0
  9 29  1  0  0  0  0
  7  8  1  0  0  0  0
  7  9  1  0  0  0  0
 33 34  1  0  0  0  0
 33 35  1  0  0  0  0
 33 36  1  0  0  0  0
 31 32  1  0  0  0  0
 31 33  1  0  0  0  0
M  END
$$$$
default_name
  -OEChem-12212115393D

 36 37  0     1  0  0  0  0  0999 V2000
   -4.0843   -4.0736    1.2944 H   0  0  0  0  0  0  0  0  0  0  0  0
   -4.0342   -3.2816    0.5484 C   0  0  0  0  0  0  0  0  0  0  0  0
   -4.8842   -2.6126    0.6694 H   0  0  0  0  0  0  0  0  0  0  0  0
   -4.0433   -3.7186   -0.4486 H   0  0  0  0  0  0  0  0  0  0  0  0
   -2.7532   -2.5046    0.7444 C   0  0  0  0  0  0  0  0  0  0  0  0
   -1.9803   -2.8096    1.6434 O   0  0  0  0  0  0  0  0  0  0  0  0
   -2.5332   -1.4966   -0.0966 N   0  0  0  0  0  0  0  0  0  0  0  0
   -3.2312   -1.2816   -0.7936 H   0  0  0  0  0  0  0  0  0  0  0  0
   -1.3593   -0.6196   -0.0536 C   0  0  1  0  0  0  0  0  0  0  0  0
   -0.5661   -1.0681   -0.6530 H   0  0  0  0  0  0  0  0  0  0  0  0
   -1.7144    0.7425   -0.6703 C   0  0  0  0  0  0  0  0  0  0  0  0
   -0.8268    1.3776   -0.6550 H   0  0  0  0  0  0  0  0  0  0  0  0
   -1.9926    0.5890   -1.7144 H   0  0  0  0  0  0  0  0  0  0  0  0
   -2.8246    1.4812    0.0135 C   0  0  0  0  0  0  0  0  0  0  0  0
   -2.6799    2.3291    1.0564 C   0  0  0  0  0  0  0  0  0  0  0  0
   -1.7356    2.5612    1.5367 H   0  0  0  0  0  0  0  0  0  0  0  0
   -3.9082    2.8618    1.3955 N   0  0  0  0  0  0  0  0  0  0  0  0
   -4.0412    3.5182    2.1509 H   0  0  0  0  0  0  0  0  0  0  0  0
   -4.9095    2.3933    0.5718 C   0  0  0  0  0  0  0  0  0  0  0  0
   -6.2857    2.6510    0.4946 C   0  0  0  0  0  0  0  0  0  0  0  0
   -6.7530    3.3404    1.1823 H   0  0  0  0  0  0  0  0  0  0  0  0
   -7.0485    1.9983   -0.4889 C   0  0  0  0  0  0  0  0  0  0  0  0
   -8.1115    2.1838   -0.5628 H   0  0  0  0  0  0  0  0  0  0  0  0
   -6.4282    1.0973   -1.3736 C   0  0  0  0  0  0  0  0  0  0  0  0
   -7.0203    0.5910   -2.1234 H   0  0  0  0  0  0  0  0  0  0  0  0
   -5.0445    0.8445   -1.2856 C   0  0  0  0  0  0  0  0  0  0  0  0
   -4.5830    0.1400   -1.9628 H   0  0  0  0  0  0  0  0  0  0  0  0
   -4.2496    1.4887   -0.3129 C   0  0  0  0  0  0  0  0  0  0  0  0
   -0.8278   -0.4731    1.3807 C   0  0  0  0  0  0  0  0  0  0  0  0
    0.2952   -0.0123    1.5810 O   0  0  0  0  0  0  0  0  0  0  0  0
   -1.6334   -0.8665    2.3764 N   0  0  0  0  0  0  0  0  0  0  0  0
   -2.5180   -1.2843    2.1251 H   0  0  0  0  0  0  0  0  0  0  0  0
   -1.2849   -0.7938    3.7926 C   0  0  0  0  0  0  0  0  0  0  0  0
   -0.9486    0.2155    4.0376 H   0  0  0  0  0  0  0  0  0  0  0  0
   -2.1514   -1.0446    4.4059 H   0  0  0  0  0  0  0  0  0  0  0  0
   -0.4757   -1.4940    4.0066 H   0  0  0  0  0  0  0  0  0  0  0  0
  5  6  2  0  0  0  0
  5  7  1  0  0  0  0
  2  3  1  0  0  0  0
  2  4  1  0  0  0  0
  2  5  1  0  0  0  0
  1  2  1  0  0  0  0
 29 30  2  0  0  0  0
 29 31  1  0  0  0  0
 26 27  1  0  0  0  0
 26 28  2  0  0  0  0
 24 25  1  0  0  0  0
 24 26  1  0  0  0  0
 22 23  1  0  0  0  0
 22 24  2  0  0  0  0
 20 21  1  0  0  0  0
 20 22  1  0  0  0  0
 19 20  2  0  0  0  0
 19 28  1  0  0  0  0
 17 18  1  0  0  0  0
 17 19  1  0  0  0  0
 15 16  1  0  0  0  0
 15 17  1  0  0  0  0
 14 15  2  0  0  0  0
 14 28  1  0  0  0  0
 11 12  1  0  0  0  0
 11 13  1  0  0  0  0
 11 14  1  0  0  0  0
  9 10  1  0  0  0  0
  9 11  1  0  0  0  0
  9 29  1  0  0  0  0
  7  8  1  0  0  0  0
  7  9  1  0  0  0  0
 33 34  1  0  0  0  0
 33 35  1  0  0  0  0
 33 36  1  0  0  0  0
 31 32  1  0  0  0  0
 31 33  1  0  0  0  0
M  END
$$$$
default_name
  -OEChem-12212115393D

 36 37  0     1  0  0  0  0  0999 V2000
   -4.0843   -4.0736    1.2944 H   0  0  0  0  0  0  0  0  0  0  0  0
   -4.0342   -3.2816    0.5484 C   0  0  0  0  0  0  0  0  0  0  0  0
   -4.8842   -2.6126    0.6694 H   0  0  0  0  0  0  0  0  0  0  0  0
   -4.0433   -3.7186   -0.4486 H   0  0  0  0  0  0  0  0  0  0  0  0
   -2.7532   -2.5046    0.7444 C   0  0  0  0  0  0  0  0  0  0  0  0
   -1.9803   -2.8096    1.6434 O   0  0  0  0  0  0  0  0  0  0  0  0
   -2.5332   -1.4966   -0.0966 N   0  0  0  0  0  0  0  0  0  0  0  0
   -3.2312   -1.2816   -0.7936 H   0  0  0  0  0  0  0  0  0  0  0  0
   -1.3593   -0.6196   -0.0536 C   0  0  1  0  0  0  0  0  0  0  0  0
   -0.5661   -1.0681   -0.6530 H   0  0  0  0  0  0  0  0  0  0  0  0
   -1.7144    0.7425   -0.6703 C   0  0  0  0  0  0  0  0  0  0  0  0
   -0.8268    1.3776   -0.6550 H   0  0  0  0  0  0  0  0  0  0  0  0
   -1.9926    0.5890   -1.7144 H   0  0  0  0  0  0  0  0  0  0  0  0
   -2.8246    1.4812    0.0135 C   0  0  0  0  0  0  0  0  0  0  0  0
   -2.6799    2.3291    1.0564 C   0  0  0  0  0  0  0  0  0  0  0  0
   -1.7356    2.5612    1.5367 H   0  0  0  0  0  0  0  0  0  0  0  0
   -3.9082    2.8618    1.3955 N   0  0  0  0  0  0  0  0  0  0  0  0
   -4.0412    3.5182    2.1509 H   0  0  0  0  0  0  0  0  0  0  0  0
   -4.9095    2.3933    0.5718 C   0  0  0  0  0  0  0  0  0  0  0  0
   -6.2857    2.6510    0.4946 C   0  0  0  0  0  0  0  0  0  0  0  0
   -6.7530    3.3404    1.1823 H   0  0  0  0  0  0  0  0  0  0  0  0
   -7.0485    1.9983   -0.4889 C   0  0  0  0  0  0  0  0  0  0  0  0
   -8.1115    2.1838   -0.5628 H   0  0  0  0  0  0  0  0  0  0  0  0
   -6.4282    1.0973   -1.3736 C   0  0  0  0  0  0  0  0  0  0  0  0
   -7.0203    0.5910   -2.1234 H   0  0  0  0  0  0  0  0  0  0  0  0
   -5.0445    0.8445   -1.2856 C   0  0  0  0  0  0  0  0  0  0  0  0
   -4.5830    0.1400   -1.9628 H   0  0  0  0  0  0  0  0  0  0  0  0
   -4.2496    1.4887   -0.3129 C   0  0  0  0  0  0  0  0  0  0  0  0
   -0.8278   -0.4731    1.3807 C   0  0  0  0  0  0  0  0  0  0  0  0
    0.1578    0.2274    1.6074 O   0  0  0  0  0  0  0  0  0  0  0  0
   -1.4791   -1.1349    2.3466 N   0  0  0  0  0  0  0  0  0  0  0  0
   -2.2457   -1.7315    2.0699 H   0  0  0  0  0  0  0  0  0  0  0  0
   -1.1081   -1.1025    3.7586 C   0  0  0  0  0  0  0  0  0  0  0  0
   -1.0158   -0.0669    4.0913 H   0  0  0  0  0  0  0  0  0  0  0  0
   -1.8663   -1.6082    4.3579 H   0  0  0  0  0  0  0  0  0  0  0  0
   -0.1471   -1.6011    3.8958 H   0  0  0  0  0  0  0  0  0  0  0  0
  5  6  2  0  0  0  0
  5  7  1  0  0  0  0
  2  3  1  0  0  0  0
  2  4  1  0  0  0  0
  2  5  1  0  0  0  0
  1  2  1  0  0  0  0
 29 30  2  0  0  0  0
 29 31  1  0  0  0  0
 26 27  1  0  0  0  0
 26 28  2  0  0  0  0
 24 25  1  0  0  0  0
 24 26  1  0  0  0  0
 22 23  1  0  0  0  0
 22 24  2  0  0  0  0
 20 21  1  0  0  0  0
 20 22  1  0  0  0  0
 19 20  2  0  0  0  0
 19 28  1  0  0  0  0
 17 18  1  0  0  0  0
 17 19  1  0  0  0  0
 15 16  1  0  0  0  0
 15 17  1  0  0  0  0
 14 15  2  0  0  0  0
 14 28  1  0  0  0  0
 11 12  1  0  0  0  0
 11 13  1  0  0  0  0
 11 14  1  0  0  0  0
  9 10  1  0  0  0  0
  9 11  1  0  0  0  0
  9 29  1  0  0  0  0
  7  8  1  0  0  0  0
  7  9  1  0  0  0  0
 33 34  1  0  0  0  0
 33 35  1  0  0  0  0
 33 36  1  0  0  0  0
 31 32  1  0  0  0  0
 31 33  1  0  0  0  0
M  END
$$$$
default_name
  -OEChem-12212115393D

 36 37  0     1  0  0  0  0  0999 V2000
   -4.0843   -4.0736    1.2944 H   0  0  0  0  0  0  0  0  0  0  0  0
   -4.0342   -3.2816    0.5484 C   0  0  0  0  0  0  0  0  0  0  0  0
   -4.8842   -2.6126    0.6694 H   0  0  0  0  0  0  0  0  0  0  0  0
   -4.0433   -3.7186   -0.4486 H   0  0  0  0  0  0  0  0  0  0  0  0
   -2.7532   -2.5046    0.7444 C   0  0  0  0  0  0  0  0  0  0  0  0
   -1.9803   -2.8096    1.6434 O   0  0  0  0  0  0  0  0  0  0  0  0
   -2.5332   -1.4966   -0.0966 N   0  0  0  0  0  0  0  0  0  0  0  0
   -3.2312   -1.2816   -0.7936 H   0  0  0  0  0  0  0  0  0  0  0  0
   -1.3593   -0.6196   -0.0536 C   0  0  1  0  0  0  0  0  0  0  0  0
   -0.5661   -1.0681   -0.6530 H   0  0  0  0  0  0  0  0  0  0  0  0
   -1.7144    0.7425   -0.6703 C   0  0  0  0  0  0  0  0  0  0  0  0
   -0.8268    1.3776   -0.6550 H   0  0  0  0  0  0  0  0  0  0  0  0
   -1.9926    0.5890   -1.7144 H   0  0  0  0  0  0  0  0  0  0  0  0
   -2.8246    1.4812    0.0135 C   0  0  0  0  0  0  0  0  0  0  0  0
   -2.6799    2.3291    1.0564 C   0  0  0  0  0  0  0  0  0  0  0  0
   -1.7356    2.5612    1.5367 H   0  0  0  0  0  0  0  0  0  0  0  0
   -3.9082    2.8618    1.3955 N   0  0  0  0  0  0  0  0  0  0  0  0
   -4.0412    3.5182    2.1509 H   0  0  0  0  0  0  0  0  0  0  0  0
   -4.9095    2.3933    0.5718 C   0  0  0  0  0  0  0  0  0  0  0  0
   -6.2857    2.6510    0.4946 C   0  0  0  0  0  0  0  0  0  0  0  0
   -6.7530    3.3404    1.1823 H   0  0  0  0  0  0  0  0  0  0  0  0
   -7.0485    1.9983   -0.4889 C   0  0  0  0  0  0  0  0  0  0  0  0
   -8.1115    2.1838   -0.5628 H   0  0  0  0  0  0  0  0  0  0  0  0
   -6.4282    1.0973   -1.3736 C   0  0  0  0  0  0  0  0  0  0  0  0
   -7.0203    0.5910   -2.1234 H   0  0  0  0  0  0  0  0  0  0  0  0
   -5.0445    0.8445   -1.2856 C   0  0  0  0  0  0  0  0  0  0  0  0
   -4.5830    0.1400   -1.9628 H   0  0  0  0  0  0  0  0  0  0  0  0
   -4.2496    1.4887   -0.3129 C   0  0  0  0  0  0  0  0  0  0  0  0
   -0.8278   -0.4731    1.3807 C   0  0  0  0  0  0  0  0  0  0  0  0
   -0.0321    0.4233    1.6578 O   0  0  0  0  0  0  0  0  0  0  0  0
   -1.2660   -1.3541    2.2901 N   0  0  0  0  0  0  0  0  0  0  0  0
   -1.8760   -2.0928    1.9698 H   0  0  0  0  0  0  0  0  0  0  0  0
   -0.8635   -1.3549    3.6938 C   0  0  0  0  0  0  0  0  0  0  0  0
   -1.0111   -0.3606    4.1196 H   0  0  0  0  0  0  0  0  0  0  0  0
   -1.4560   -2.0793    4.2540 H   0  0  0  0  0  0  0  0  0  0  0  0
    0.1934   -1.6153    3.7710 H   0  0  0  0  0  0  0  0  0  0  0  0
  5  6  2  0  0  0  0
  5  7  1  0  0  0  0
  2  3  1  0  0  0  0
  2  4  1  0  0  0  0
  2  5  1  0  0  0  0
  1  2  1  0  0  0  0
 29 30  2  0  0  0  0
 29 31  1  0  0  0  0
 26 27  1  0  0  0  0
 26 28  2  0  0  0  0
 24 25  1  0  0  0  0
 24 26  1  0  0  0  0
 22 23  1  0  0  0  0
 22 24  2  0  0  0  0
 20 21  1  0  0  0  0
 20 22  1  0  0  0  0
 19 20  2  0  0  0  0
 19 28  1  0  0  0  0
 17 18  1  0  0  0  0
 17 19  1  0  0  0  0
 15 16  1  0  0  0  0
 15 17  1  0  0  0  0
 14 15  2  0  0  0  0
 14 28  1  0  0  0  0
 11 12  1  0  0  0  0
 11 13  1  0  0  0  0
 11 14  1  0  0  0  0
  9 10  1  0  0  0  0
  9 11  1  0  0  0  0
  9 29  1  0  0  0  0
  7  8  1  0  0  0  0
  7  9  1  0  0  0  0
 33 34  1  0  0  0  0
 33 35  1  0  0  0  0
 33 36  1  0  0  0  0
 31 32  1  0  0  0  0
 31 33  1  0  0  0  0
M  END
$$$$
default_name
  -OEChem-12212115393D

 36 37  0     1  0  0  0  0  0999 V2000
   -4.0843   -4.0736    1.2944 H   0  0  0  0  0  0  0  0  0  0  0  0
   -4.0342   -3.2816    0.5484 C   0  0  0  0  0  0  0  0  0  0  0  0
   -4.8842   -2.6126    0.6694 H   0  0  0  0  0  0  0  0  0  0  0  0
   -4.0433   -3.7186   -0.4486 H   0  0  0  0  0  0  0  0  0  0  0  0
   -2.7532   -2.5046    0.7444 C   0  0  0  0  0  0  0  0  0  0  0  0
   -1.9803   -2.8096    1.6434 O   0  0  0  0  0  0  0  0  0  0  0  0
   -2.5332   -1.4966   -0.0966 N   0  0  0  0  0  0  0  0  0  0  0  0
   -3.2312   -1.2816   -0.7936 H   0  0  0  0  0  0  0  0  0  0  0  0
   -1.3593   -0.6196   -0.0536 C   0  0  1  0  0  0  0  0  0  0  0  0
   -0.5661   -1.0681   -0.6530 H   0  0  0  0  0  0  0  0  0  0  0  0
   -1.7144    0.7425   -0.6703 C   0  0  0  0  0  0  0  0  0  0  0  0
   -0.8268    1.3776   -0.6550 H   0  0  0  0  0  0  0  0  0  0  0  0
   -1.9926    0.5890   -1.7144 H   0  0  0  0  0  0  0  0  0  0  0  0
   -2.8246    1.4812    0.0135 C   0  0  0  0  0  0  0  0  0  0  0  0
   -2.6799    2.3291    1.0564 C   0  0  0  0  0  0  0  0  0  0  0  0
   -1.7356    2.5612    1.5367 H   0  0  0  0  0  0  0  0  0  0  0  0
   -3.9082    2.8618    1.3955 N   0  0  0  0  0  0  0  0  0  0  0  0
   -4.0412    3.5182    2.1509 H   0  0  0  0  0  0  0  0  0  0  0  0
   -4.9095    2.3933    0.5718 C   0  0  0  0  0  0  0  0  0  0  0  0
   -6.2857    2.6510    0.4946 C   0  0  0  0  0  0  0  0  0  0  0  0
   -6.7530    3.3404    1.1823 H   0  0  0  0  0  0  0  0  0  0  0  0
   -7.0485    1.9983   -0.4889 C   0  0  0  0  0  0  0  0  0  0  0  0
   -8.1115    2.1838   -0.5628 H   0  0  0  0  0  0  0  0  0  0  0  0
   -6.4282    1.0973   -1.3736 C   0  0  0  0  0  0  0  0  0  0  0  0
   -7.0203    0.5910   -2.1234 H   0  0  0  0  0  0  0  0  0  0  0  0
   -5.0445    0.8445   -1.2856 C   0  0  0  0  0  0  0  0  0  0  0  0
   -4.5830    0.1400   -1.9628 H   0  0  0  0  0  0  0  0  0  0  0  0
   -4.2496    1.4887   -0.3129 C   0  0  0  0  0  0  0  0  0  0  0  0
   -0.8278   -0.4731    1.3807 C   0  0  0  0  0  0  0  0  0  0  0  0
   -0.2617    0.5622    1.7286 O   0  0  0  0  0  0  0  0  0  0  0  0
   -1.0085   -1.5094    2.2105 N   0  0  0  0  0  0  0  0  0  0  0  0
   -1.4341   -2.3434    1.8317 H   0  0  0  0  0  0  0  0  0  0  0  0
   -0.5679   -1.5338    3.6025 C   0  0  0  0  0  0  0  0  0  0  0  0
   -0.9350   -0.6457    4.1205 H   0  0  0  0  0  0  0  0  0  0  0  0
   -0.9484   -2.4261    4.1013 H   0  0  0  0  0  0  0  0  0  0  0  0
    0.5227   -1.5356    3.6409 H   0  0  0  0  0  0  0  0  0  0  0  0
  5  6  2  0  0  0  0
  5  7  1  0  0  0  0
  2  3  1  0  0  0  0
  2  4  1  0  0  0  0
  2  5  1  0  0  0  0
  1  2  1  0  0  0  0
 29 30  2  0  0  0  0
 29 31  1  0  0  0  0
 26 27  1  0  0  0  0
 26 28  2  0  0  0  0
 24 25  1  0  0  0  0
 24 26  1  0  0  0  0
 22 23  1  0  0  0  0
 22 24  2  0  0  0  0
 20 21  1  0  0  0  0
 20 22  1  0  0  0  0
 19 20  2  0  0  0  0
 19 28  1  0  0  0  0
 17 18  1  0  0  0  0
 17 19  1  0  0  0  0
 15 16  1  0  0  0  0
 15 17  1  0  0  0  0
 14 15  2  0  0  0  0
 14 28  1  0  0  0  0
 11 12  1  0  0  0  0
 11 13  1  0  0  0  0
 11 14  1  0  0  0  0
  9 10  1  0  0  0  0
  9 11  1  0  0  0  0
  9 29  1  0  0  0  0
  7  8  1  0  0  0  0
  7  9  1  0  0  0  0
 33 34  1  0  0  0  0
 33 35  1  0  0  0  0
 33 36  1  0  0  0  0
 31 32  1  0  0  0  0
 31 33  1  0  0  0  0
M  END
$$$$
default_name
  -OEChem-12212115393D

 36 37  0     1  0  0  0  0  0999 V2000
   -4.0843   -4.0736    1.2944 H   0  0  0  0  0  0  0  0  0  0  0  0
   -4.0342   -3.2816    0.5484 C   0  0  0  0  0  0  0  0  0  0  0  0
   -4.8842   -2.6126    0.6694 H   0  0  0  0  0  0  0  0  0  0  0  0
   -4.0433   -3.7186   -0.4486 H   0  0  0  0  0  0  0  0  0  0  0  0
   -2.7532   -2.5046    0.7444 C   0  0  0  0  0  0  0  0  0  0  0  0
   -1.9803   -2.8096    1.6434 O   0  0  0  0  0  0  0  0  0  0  0  0
   -2.5332   -1.4966   -0.0966 N   0  0  0  0  0  0  0  0  0  0  0  0
   -3.2312   -1.2816   -0.7936 H   0  0  0  0  0  0  0  0  0  0  0  0
   -1.3593   -0.6196   -0.0536 C   0  0  1  0  0  0  0  0  0  0  0  0
   -0.5661   -1.0681   -0.6530 H   0  0  0  0  0  0  0  0  0  0  0  0
   -1.7144    0.7425   -0.6703 C   0  0  0  0  0  0  0  0  0  0  0  0
   -0.8268    1.3776   -0.6550 H   0  0  0  0  0  0  0  0  0  0  0  0
   -1.9926    0.5890   -1.7144 H   0  0  0  0  0  0  0  0  0  0  0  0
   -2.8246    1.4812    0.0135 C   0  0  0  0  0  0  0  0  0  0  0  0
   -2.6799    2.3291    1.0564 C   0  0  0  0  0  0  0  0  0  0  0  0
   -1.7356    2.5612    1.5367 H   0  0  0  0  0  0  0  0  0  0  0  0
   -3.9082    2.8618    1.3955 N   0  0  0  0  0  0  0  0  0  0  0  0
   -4.0412    3.5182    2.1509 H   0  0  0  0  0  0  0  0  0  0  0  0
   -4.9095    2.3933    0.5718 C   0  0  0  0  0  0  0  0  0  0  0  0
   -6.2857    2.6510    0.4946 C   0  0  0  0  0  0  0  0  0  0  0  0
   -6.7530    3.3404    1.1823 H   0  0  0  0  0  0  0  0  0  0  0  0
   -7.0485    1.9983   -0.4889 C   0  0  0  0  0  0  0  0  0  0  0  0
   -8.1115    2.1838   -0.5628 H   0  0  0  0  0  0  0  0  0  0  0  0
   -6.4282    1.0973   -1.3736 C   0  0  0  0  0  0  0  0  0  0  0  0
   -7.0203    0.5910   -2.1234 H   0  0  0  0  0  0  0  0  0  0  0  0
   -5.0445    0.8445   -1.2856 C   0  0  0  0  0  0  0  0  0  0  0  0
   -4.5830    0.1400   -1.9628 H   0  0  0  0  0  0  0  0  0  0  0  0
   -4.2496    1.4887   -0.3129 C   0  0  0  0  0  0  0  0  0  0  0  0
   -0.8278   -0.4731    1.3807 C   0  0  0  0  0  0  0  0  0  0  0  0
   -0.5152    0.6346    1.8152 O   0  0  0  0  0  0  0  0  0  0  0  0
   -0.7243   -1.5900    2.1135 N   0  0  0  0  0  0  0  0  0  0  0  0
   -0.9501   -2.4664    1.6649 H   0  0  0  0  0  0  0  0  0  0  0  0
   -0.2413   -1.6270    3.4911 C   0  0  0  0  0  0  0  0  0  0  0  0
   -0.7925   -0.9029    4.0940 H   0  0  0  0  0  0  0  0  0  0  0  0
   -0.3781   -2.6247    3.9103 H   0  0  0  0  0  0  0  0  0  0  0  0
    0.8183   -1.3674    3.5142 H   0  0  0  0  0  0  0  0  0  0  0  0
  5  6  2  0  0  0  0
  5  7  1  0  0  0  0
  2  3  1  0  0  0  0
  2  4  1  0  0  0  0
  2  5  1  0  0  0  0
  1  2  1  0  0  0  0
 29 30  2  0  0  0  0
 29 31  1  0  0  0  0
 26 27  1  0  0  0  0
 26 28  2  0  0  0  0
 24 25  1  0  0  0  0
 24 26  1  0  0  0  0
 22 23  1  0  0  0  0
 22 24  2  0  0  0  0
 20 21  1  0  0  0  0
 20 22  1  0  0  0  0
 19 20  2  0  0  0  0
 19 28  1  0  0  0  0
 17 18  1  0  0  0  0
 17 19  1  0  0  0  0
 15 16  1  0  0  0  0
 15 17  1  0  0  0  0
 14 15  2  0  0  0  0
 14 28  1  0  0  0  0
 11 12  1  0  0  0  0
 11 13  1  0  0  0  0
 11 14  1  0  0  0  0
  9 10  1  0  0  0  0
  9 11  1  0  0  0  0
  9 29  1  0  0  0  0
  7  8  1  0  0  0  0
  7  9  1  0  0  0  0
 33 34  1  0  0  0  0
 33 35  1  0  0  0  0
 33 36  1  0  0  0  0
 31 32  1  0  0  0  0
 31 33  1  0  0  0  0
M  END
$$$$
default_name
  -OEChem-12212115393D

 36 37  0     1  0  0  0  0  0999 V2000
   -4.0843   -4.0736    1.2944 H   0  0  0  0  0  0  0  0  0  0  0  0
   -4.0342   -3.2816    0.5484 C   0  0  0  0  0  0  0  0  0  0  0  0
   -4.8842   -2.6126    0.6694 H   0  0  0  0  0  0  0  0  0  0  0  0
   -4.0433   -3.7186   -0.4486 H   0  0  0  0  0  0  0  0  0  0  0  0
   -2.7532   -2.5046    0.7444 C   0  0  0  0  0  0  0  0  0  0  0  0
   -1.9803   -2.8096    1.6434 O   0  0  0  0  0  0  0  0  0  0  0  0
   -2.5332   -1.4966   -0.0966 N   0  0  0  0  0  0  0  0  0  0  0  0
   -3.2312   -1.2816   -0.7936 H   0  0  0  0  0  0  0  0  0  0  0  0
   -1.3593   -0.6196   -0.0536 C   0  0  1  0  0  0  0  0  0  0  0  0
   -0.5661   -1.0681   -0.6530 H   0  0  0  0  0  0  0  0  0  0  0  0
   -1.7144    0.7425   -0.6703 C   0  0  0  0  0  0  0  0  0  0  0  0
   -0.8268    1.3776   -0.6550 H   0  0  0  0  0  0  0  0  0  0  0  0
   -1.9926    0.5890   -1.7144 H   0  0  0  0  0  0  0  0  0  0  0  0
   -2.8246    1.4812    0.0135 C   0  0  0  0  0  0  0  0  0  0  0  0
   -2.6799    2.3291    1.0564 C   0  0  0  0  0  0  0  0  0  0  0  0
   -1.7356    2.5612    1.5367 H   0  0  0  0  0  0  0  0  0  0  0  0
   -3.9082    2.8618    1.3955 N   0  0  0  0  0  0  0  0  0  0  0  0
   -4.0412    3.5182    2.1509 H   0  0  0  0  0  0  0  0  0  0  0  0
   -4.9095    2.3933    0.5718 C   0  0  0  0  0  0  0  0  0  0  0  0
   -6.2857    2.6510    0.4946 C   0  0  0  0  0  0  0  0  0  0  0  0
   -6.7530    3.3404    1.1823 H   0  0  0  0  0  0  0  0  0  0  0  0
   -7.0485    1.9983   -0.4889 C   0  0  0  0  0  0  0  0  0  0  0  0
   -8.1115    2.1838   -0.5628 H   0  0  0  0  0  0  0  0  0  0  0  0
   -6.4282    1.0973   -1.3736 C   0  0  0  0  0  0  0  0  0  0  0  0
   -7.0203    0.5910   -2.1234 H   0  0  0  0  0  0  0  0  0  0  0  0
   -5.0445    0.8445   -1.2856 C   0  0  0  0  0  0  0  0  0  0  0  0
   -4.5830    0.1400   -1.9628 H   0  0  0  0  0  0  0  0  0  0  0  0
   -4.2496    1.4887   -0.3129 C   0  0  0  0  0  0  0  0  0  0  0  0
   -0.8278   -0.4731    1.3807 C   0  0  0  0  0  0  0  0  0  0  0  0
   -0.7755    0.6355    1.9115 O   0  0  0  0  0  0  0  0  0  0  0  0
   -0.4327   -1.5905    2.0055 N   0  0  0  0  0  0  0  0  0  0  0  0
   -0.4569   -2.4534    1.4809 H   0  0  0  0  0  0  0  0  0  0  0  0
    0.0938   -1.6282    3.3670 C   0  0  0  0  0  0  0  0  0  0  0  0
   -0.5934   -1.1144    4.0418 H   0  0  0  0  0  0  0  0  0  0  0  0
    0.2160   -2.6616    3.6940 H   0  0  0  0  0  0  0  0  0  0  0  0
    1.0601   -1.1222    3.3996 H   0  0  0  0  0  0  0  0  0  0  0  0
  5  6  2  0  0  0  0
  5  7  1  0  0  0  0
  2  3  1  0  0  0  0
  2  4  1  0  0  0  0
  2  5  1  0  0  0  0
  1  2  1  0  0  0  0
 29 30  2  0  0  0  0
 29 31  1  0  0  0  0
 26 27  1  0  0  0  0
 26 28  2  0  0  0  0
 24 25  1  0  0  0  0
 24 26  1  0  0  0  0
 22 23  1  0  0  0  0
 22 24  2  0  0  0  0
 20 21  1  0  0  0  0
 20 22  1  0  0  0  0
 19 20  2  0  0  0  0
 19 28  1  0  0  0  0
 17 18  1  0  0  0  0
 17 19  1  0  0  0  0
 15 16  1  0  0  0  0
 15 17  1  0  0  0  0
 14 15  2  0  0  0  0
 14 28  1  0  0  0  0
 11 12  1  0  0  0  0
 11 13  1  0  0  0  0
 11 14  1  0  0  0  0
  9 10  1  0  0  0  0
  9 11  1  0  0  0  0
  9 29  1  0  0  0  0
  7  8  1  0  0  0  0
  7  9  1  0  0  0  0
 33 34  1  0  0  0  0
 33 35  1  0  0  0  0
 33 36  1  0  0  0  0
 31 32  1  0  0  0  0
 31 33  1  0  0  0  0
M  END
$$$$
default_name
  -OEChem-12212115393D

 36 37  0     1  0  0  0  0  0999 V2000
   -4.0843   -4.0736    1.2944 H   0  0  0  0  0  0  0  0  0  0  0  0
   -4.0342   -3.2816    0.5484 C   0  0  0  0  0  0  0  0  0  0  0  0
   -4.8842   -2.6126    0.6694 H   0  0  0  0  0  0  0  0  0  0  0  0
   -4.0433   -3.7186   -0.4486 H   0  0  0  0  0  0  0  0  0  0  0  0
   -2.7532   -2.5046    0.7444 C   0  0  0  0  0  0  0  0  0  0  0  0
   -1.9803   -2.8096    1.6434 O   0  0  0  0  0  0  0  0  0  0  0  0
   -2.5332   -1.4966   -0.0966 N   0  0  0  0  0  0  0  0  0  0  0  0
   -3.2312   -1.2816   -0.7936 H   0  0  0  0  0  0  0  0  0  0  0  0
   -1.3593   -0.6196   -0.0536 C   0  0  1  0  0  0  0  0  0  0  0  0
   -0.5661   -1.0681   -0.6530 H   0  0  0  0  0  0  0  0  0  0  0  0
   -1.7144    0.7425   -0.6703 C   0  0  0  0  0  0  0  0  0  0  0  0
   -0.8268    1.3776   -0.6550 H   0  0  0  0  0  0  0  0  0  0  0  0
   -1.9926    0.5890   -1.7144 H   0  0  0  0  0  0  0  0  0  0  0  0
   -2.8246    1.4812    0.0135 C   0  0  0  0  0  0  0  0  0  0  0  0
   -2.6799    2.3291    1.0564 C   0  0  0  0  0  0  0  0  0  0  0  0
   -1.7356    2.5612    1.5367 H   0  0  0  0  0  0  0  0  0  0  0  0
   -3.9082    2.8618    1.3955 N   0  0  0  0  0  0  0  0  0  0  0  0
   -4.0412    3.5182    2.1509 H   0  0  0  0  0  0  0  0  0  0  0  0
   -4.9095    2.3933    0.5718 C   0  0  0  0  0  0  0  0  0  0  0  0
   -6.2857    2.6510    0.4946 C   0  0  0  0  0  0  0  0  0  0  0  0
   -6.7530    3.3404    1.1823 H   0  0  0  0  0  0  0  0  0  0  0  0
   -7.0485    1.9983   -0.4889 C   0  0  0  0  0  0  0  0  0  0  0  0
   -8.1115    2.1838   -0.5628 H   0  0  0  0  0  0  0  0  0  0  0  0
   -6.4282    1.0973   -1.3736 C   0  0  0  0  0  0  0  0  0  0  0  0
   -7.0203    0.5910   -2.1234 H   0  0  0  0  0  0  0  0  0  0  0  0
   -5.0445    0.8445   -1.2856 C   0  0  0  0  0  0  0  0  0  0  0  0
   -4.5830    0.1400   -1.9628 H   0  0  0  0  0  0  0  0  0  0  0  0
   -4.2496    1.4887   -0.3129 C   0  0  0  0  0  0  0  0  0  0  0  0
   -0.8278   -0.4731    1.3807 C   0  0  0  0  0  0  0  0  0  0  0  0
   -1.0247    0.5649    2.0111 O   0  0  0  0  0  0  0  0  0  0  0  0
   -0.1536   -1.5109    1.8939 N   0  0  0  0  0  0  0  0  0  0  0  0
    0.0117   -2.3052    1.2921 H   0  0  0  0  0  0  0  0  0  0  0  0
    0.4148   -1.5373    3.2388 C   0  0  0  0  0  0  0  0  0  0  0  0
   -0.3513   -1.2660    3.9676 H   0  0  0  0  0  0  0  0  0  0  0  0
    0.7935   -2.5344    3.4670 H   0  0  0  0  0  0  0  0  0  0  0  0
    1.2316   -0.8166    3.3048 H   0  0  0  0  0  0  0  0  0  0  0  0
  5  6  2  0  0  0  0
  5  7  1  0  0  0  0
  2  3  1  0  0  0  0
  2  4  1  0  0  0  0
  2  5  1  0  0  0  0
  1  2  1  0  0  0  0
 29 30  2  0  0  0  0
 29 31  1  0  0  0  0
 26 27  1  0  0  0  0
 26 28  2  0  0  0  0
 24 25  1  0  0  0  0
 24 26  1  0  0  0  0
 22 23  1  0  0  0  0
 22 24  2  0  0  0  0
 20 21  1  0  0  0  0
 20 22  1  0  0  0  0
 19 20  2  0  0  0  0
 19 28  1  0  0  0  0
 17 18  1  0  0  0  0
 17 19  1  0  0  0  0
 15 16  1  0  0  0  0
 15 17  1  0  0  0  0
 14 15  2  0  0  0  0
 14 28  1  0  0  0  0
 11 12  1  0  0  0  0
 11 13  1  0  0  0  0
 11 14  1  0  0  0  0
  9 10  1  0  0  0  0
  9 11  1  0  0  0  0
  9 29  1  0  0  0  0
  7  8  1  0  0  0  0
  7  9  1  0  0  0  0
 33 34  1  0  0  0  0
 33 35  1  0  0  0  0
 33 36  1  0  0  0  0
 31 32  1  0  0  0  0
 31 33  1  0  0  0  0
M  END
$$$$
default_name
  -OEChem-12212115393D

 36 37  0     1  0  0  0  0  0999 V2000
   -4.0843   -4.0736    1.2944 H   0  0  0  0  0  0  0  0  0  0  0  0
   -4.0342   -3.2816    0.5484 C   0  0  0  0  0  0  0  0  0  0  0  0
   -4.8842   -2.6126    0.6694 H   0  0  0  0  0  0  0  0  0  0  0  0
   -4.0433   -3.7186   -0.4486 H   0  0  0  0  0  0  0  0  0  0  0  0
   -2.7532   -2.5046    0.7444 C   0  0  0  0  0  0  0  0  0  0  0  0
   -1.9803   -2.8096    1.6434 O   0  0  0  0  0  0  0  0  0  0  0  0
   -2.5332   -1.4966   -0.0966 N   0  0  0  0  0  0  0  0  0  0  0  0
   -3.2312   -1.2816   -0.7936 H   0  0  0  0  0  0  0  0  0  0  0  0
   -1.3593   -0.6196   -0.0536 C   0  0  1  0  0  0  0  0  0  0  0  0
   -0.5661   -1.0681   -0.6530 H   0  0  0  0  0  0  0  0  0  0  0  0
   -1.7144    0.7425   -0.6703 C   0  0  0  0  0  0  0  0  0  0  0  0
   -0.8268    1.3776   -0.6550 H   0  0  0  0  0  0  0  0  0  0  0  0
   -1.9926    0.5890   -1.7144 H   0  0  0  0  0  0  0  0  0  0  0  0
   -2.8246    1.4812    0.0135 C   0  0  0  0  0  0  0  0  0  0  0  0
   -2.6799    2.3291    1.0564 C   0  0  0  0  0  0  0  0  0  0  0  0
   -1.7356    2.5612    1.5367 H   0  0  0  0  0  0  0  0  0  0  0  0
   -3.9082    2.8618    1.3955 N   0  0  0  0  0  0  0  0  0  0  0  0
   -4.0412    3.5182    2.1509 H   0  0  0  0  0  0  0  0  0  0  0  0
   -4.9095    2.3933    0.5718 C   0  0  0  0  0  0  0  0  0  0  0  0
   -6.2857    2.6510    0.4946 C   0  0  0  0  0  0  0  0  0  0  0  0
   -6.7530    3.3404    1.1823 H   0  0  0  0  0  0  0  0  0  0  0  0
   -7.0485    1.9983   -0.4889 C   0  0  0  0  0  0  0  0  0  0  0  0
   -8.1115    2.1838   -0.5628 H   0  0  0  0  0  0  0  0  0  0  0  0
   -6.4282    1.0973   -1.3736 C   0  0  0  0  0  0  0  0  0  0  0  0
   -7.0203    0.5910   -2.1234 H   0  0  0  0  0  0  0  0  0  0  0  0
   -5.0445    0.8445   -1.2856 C   0  0  0  0  0  0  0  0  0  0  0  0
   -4.5830    0.1400   -1.9628 H   0  0  0  0  0  0  0  0  0  0  0  0
   -4.2496    1.4887   -0.3129 C   0  0  0  0  0  0  0  0  0  0  0  0
   -0.8278   -0.4731    1.3807 C   0  0  0  0  0  0  0  0  0  0  0  0
   -1.2459    0.4275    2.1071 O   0  0  0  0  0  0  0  0  0  0  0  0
    0.0941   -1.3566    1.7864 N   0  0  0  0  0  0  0  0  0  0  0  0
    0.4239   -2.0319    1.1115 H   0  0  0  0  0  0  0  0  0  0  0  0
    0.6997   -1.3604    3.1152 C   0  0  0  0  0  0  0  0  0  0  0  0
   -0.0827   -1.3473    3.8764 H   0  0  0  0  0  0  0  0  0  0  0  0
    1.3149   -2.2517    3.2449 H   0  0  0  0  0  0  0  0  0  0  0  0
    1.3210   -0.4716    3.2364 H   0  0  0  0  0  0  0  0  0  0  0  0
  5  6  2  0  0  0  0
  5  7  1  0  0  0  0
  2  3  1  0  0  0  0
  2  4  1  0  0  0  0
  2  5  1  0  0  0  0
  1  2  1  0  0  0  0
 29 30  2  0  0  0  0
 29 31  1  0  0  0  0
 26 27  1  0  0  0  0
 26 28  2  0  0  0  0
 24 25  1  0  0  0  0
 24 26  1  0  0  0  0
 22 23  1  0  0  0  0
 22 24  2  0  0  0  0
 20 21  1  0  0  0  0
 20 22  1  0  0  0  0
 19 20  2  0  0  0  0
 19 28  1  0  0  0  0
 17 18  1  0  0  0  0
 17 19  1  0  0  0  0
 15 16  1  0  0  0  0
 15 17  1  0  0  0  0
 14 15  2  0  0  0  0
 14 28  1  0  0  0  0
 11 12  1  0  0  0  0
 11 13  1  0  0  0  0
 11 14  1  0  0  0  0
  9 10  1  0  0  0  0
  9 11  1  0  0  0  0
  9 29  1  0  0  0  0
  7  8  1  0  0  0  0
  7  9  1  0  0  0  0
 33 34  1  0  0  0  0
 33 35  1  0  0  0  0
 33 36  1  0  0  0  0
 31 32  1  0  0  0  0
 31 33  1  0  0  0  0
M  END
$$$$
default_name
  -OEChem-12212115393D

 36 37  0     1  0  0  0  0  0999 V2000
   -4.0843   -4.0736    1.2944 H   0  0  0  0  0  0  0  0  0  0  0  0
   -4.0342   -3.2816    0.5484 C   0  0  0  0  0  0  0  0  0  0  0  0
   -4.8842   -2.6126    0.6694 H   0  0  0  0  0  0  0  0  0  0  0  0
   -4.0433   -3.7186   -0.4486 H   0  0  0  0  0  0  0  0  0  0  0  0
   -2.7532   -2.5046    0.7444 C   0  0  0  0  0  0  0  0  0  0  0  0
   -1.9803   -2.8096    1.6434 O   0  0  0  0  0  0  0  0  0  0  0  0
   -2.5332   -1.4966   -0.0966 N   0  0  0  0  0  0  0  0  0  0  0  0
   -3.2312   -1.2816   -0.7936 H   0  0  0  0  0  0  0  0  0  0  0  0
   -1.3593   -0.6196   -0.0536 C   0  0  1  0  0  0  0  0  0  0  0  0
   -0.5661   -1.0681   -0.6530 H   0  0  0  0  0  0  0  0  0  0  0  0
   -1.7144    0.7425   -0.6703 C   0  0  0  0  0  0  0  0  0  0  0  0
   -0.8268    1.3776   -0.6550 H   0  0  0  0  0  0  0  0  0  0  0  0
   -1.9926    0.5890   -1.7144 H   0  0  0  0  0  0  0  0  0  0  0  0
   -2.8246    1.4812    0.0135 C   0  0  0  0  0  0  0  0  0  0  0  0
   -2.6799    2.3291    1.0564 C   0  0  0  0  0  0  0  0  0  0  0  0
   -1.7356    2.5612    1.5367 H   0  0  0  0  0  0  0  0  0  0  0  0
   -3.9082    2.8618    1.3955 N   0  0  0  0  0  0  0  0  0  0  0  0
   -4.0412    3.5182    2.1509 H   0  0  0  0  0  0  0  0  0  0  0  0
   -4.9095    2.3933    0.5718 C   0  0  0  0  0  0  0  0  0  0  0  0
   -6.2857    2.6510    0.4946 C   0  0  0  0  0  0  0  0  0  0  0  0
   -6.7530    3.3404    1.1823 H   0  0  0  0  0  0  0  0  0  0  0  0
   -7.0485    1.9983   -0.4889 C   0  0  0  0  0  0  0  0  0  0  0  0
   -8.1115    2.1838   -0.5628 H   0  0  0  0  0  0  0  0  0  0  0  0
   -6.4282    1.0973   -1.3736 C   0  0  0  0  0  0  0  0  0  0  0  0
   -7.0203    0.5910   -2.1234 H   0  0  0  0  0  0  0  0  0  0  0  0
   -5.0445    0.8445   -1.2856 C   0  0  0  0  0  0  0  0  0  0  0  0
   -4.5830    0.1400   -1.9628 H   0  0  0  0  0  0  0  0  0  0  0  0
   -4.2496    1.4887   -0.3129 C   0  0  0  0  0  0  0  0  0  0  0  0
   -0.8278   -0.4731    1.3807 C   0  0  0  0  0  0  0  0  0  0  0  0
   -1.4240    0.2328    2.1930 O   0  0  0  0  0  0  0  0  0  0  0  0
    0.2933   -1.1381    1.6903 N   0  0  0  0  0  0  0  0  0  0  0  0
    0.7516   -1.6522    0.9513 H   0  0  0  0  0  0  0  0  0  0  0  0
    0.9291   -1.1097    3.0045 C   0  0  0  0  0  0  0  0  0  0  0  0
    0.1942   -1.3527    3.7743 H   0  0  0  0  0  0  0  0  0  0  0  0
    1.7449   -1.8328    3.0429 H   0  0  0  0  0  0  0  0  0  0  0  0
    1.3224   -0.1105    3.1991 H   0  0  0  0  0  0  0  0  0  0  0  0
  5  6  2  0  0  0  0
  5  7  1  0  0  0  0
  2  3  1  0  0  0  0
  2  4  1  0  0  0  0
  2  5  1  0  0  0  0
  1  2  1  0  0  0  0
 29 30  2  0  0  0  0
 29 31  1  0  0  0  0
 26 27  1  0  0  0  0
 26 28  2  0  0  0  0
 24 25  1  0  0  0  0
 24 26  1  0  0  0  0
 22 23  1  0  0  0  0
 22 24  2  0  0  0  0
 20 21  1  0  0  0  0
 20 22  1  0  0  0  0
 19 20  2  0  0  0  0
 19 28  1  0  0  0  0
 17 18  1  0  0  0  0
 17 19  1  0  0  0  0
 15 16  1  0  0  0  0
 15 17  1  0  0  0  0
 14 15  2  0  0  0  0
 14 28  1  0  0  0  0
 11 12  1  0  0  0  0
 11 13  1  0  0  0  0
 11 14  1  0  0  0  0
  9 10  1  0  0  0  0
  9 11  1  0  0  0  0
  9 29  1  0  0  0  0
  7  8  1  0  0  0  0
  7  9  1  0  0  0  0
 33 34  1  0  0  0  0
 33 35  1  0  0  0  0
 33 36  1  0  0  0  0
 31 32  1  0  0  0  0
 31 33  1  0  0  0  0
M  END
$$$$
default_name
  -OEChem-12212115393D

 36 37  0     1  0  0  0  0  0999 V2000
   -4.0843   -4.0736    1.2944 H   0  0  0  0  0  0  0  0  0  0  0  0
   -4.0342   -3.2816    0.5484 C   0  0  0  0  0  0  0  0  0  0  0  0
   -4.8842   -2.6126    0.6694 H   0  0  0  0  0  0  0  0  0  0  0  0
   -4.0433   -3.7186   -0.4486 H   0  0  0  0  0  0  0  0  0  0  0  0
   -2.7532   -2.5046    0.7444 C   0  0  0  0  0  0  0  0  0  0  0  0
   -1.9803   -2.8096    1.6434 O   0  0  0  0  0  0  0  0  0  0  0  0
   -2.5332   -1.4966   -0.0966 N   0  0  0  0  0  0  0  0  0  0  0  0
   -3.2312   -1.2816   -0.7936 H   0  0  0  0  0  0  0  0  0  0  0  0
   -1.3593   -0.6196   -0.0536 C   0  0  1  0  0  0  0  0  0  0  0  0
   -0.5661   -1.0681   -0.6530 H   0  0  0  0  0  0  0  0  0  0  0  0
   -1.7144    0.7425   -0.6703 C   0  0  0  0  0  0  0  0  0  0  0  0
   -0.8268    1.3776   -0.6550 H   0  0  0  0  0  0  0  0  0  0  0  0
   -1.9926    0.5890   -1.7144 H   0  0  0  0  0  0  0  0  0  0  0  0
   -2.8246    1.4812    0.0135 C   0  0  0  0  0  0  0  0  0  0  0  0
   -2.6799    2.3291    1.0564 C   0  0  0  0  0  0  0  0  0  0  0  0
   -1.7356    2.5612    1.5367 H   0  0  0  0  0  0  0  0  0  0  0  0
   -3.9082    2.8618    1.3955 N   0  0  0  0  0  0  0  0  0  0  0  0
   -4.0412    3.5182    2.1509 H   0  0  0  0  0  0  0  0  0  0  0  0
   -4.9095    2.3933    0.5718 C   0  0  0  0  0  0  0  0  0  0  0  0
   -6.2857    2.6510    0.4946 C   0  0  0  0  0  0  0  0  0  0  0  0
   -6.7530    3.3404    1.1823 H   0  0  0  0  0  0  0  0  0  0  0  0
   -7.0485    1.9983   -0.4889 C   0  0  0  0  0  0  0  0  0  0  0  0
   -8.1115    2.1838   -0.5628 H   0  0  0  0  0  0  0  0  0  0  0  0
   -6.4282    1.0973   -1.3736 C   0  0  0  0  0  0  0  0  0  0  0  0
   -7.0203    0.5910   -2.1234 H   0  0  0  0  0  0  0  0  0  0  0  0
   -5.0445    0.8445   -1.2856 C   0  0  0  0  0  0  0  0  0  0  0  0
   -4.5830    0.1400   -1.9628 H   0  0  0  0  0  0  0  0  0  0  0  0
   -4.2496    1.4887   -0.3129 C   0  0  0  0  0  0  0  0  0  0  0  0
   -0.8278   -0.4731    1.3807 C   0  0  0  0  0  0  0  0  0  0  0  0
   -1.5469   -0.0060    2.2629 O   0  0  0  0  0  0  0  0  0  0  0  0
    0.4307   -0.8703    1.6120 N   0  0  0  0  0  0  0  0  0  0  0  0
    0.9724   -1.1919    0.8225 H   0  0  0  0  0  0  0  0  0  0  0  0
    1.0874   -0.8022    2.9145 C   0  0  0  0  0  0  0  0  0  0  0  0
    0.4605   -1.2820    3.6685 H   0  0  0  0  0  0  0  0  0  0  0  0
    2.0539   -1.3062    2.8746 H   0  0  0  0  0  0  0  0  0  0  0  0
    1.2355    0.2419    3.1952 H   0  0  0  0  0  0  0  0  0  0  0  0
  5  6  2  0  0  0  0
  5  7  1  0  0  0  0
  2  3  1  0  0  0  0
  2  4  1  0  0  0  0
  2  5  1  0  0  0  0
  1  2  1  0  0  0  0
 29 30  2  0  0  0  0
 29 31  1  0  0  0  0
 26 27  1  0  0  0  0
 26 28  2  0  0  0  0
 24 25  1  0  0  0  0
 24 26  1  0  0  0  0
 22 23  1  0  0  0  0
 22 24  2  0  0  0  0
 20 21  1  0  0  0  0
 20 22  1  0  0  0  0
 19 20  2  0  0  0  0
 19 28  1  0  0  0  0
 17 18  1  0  0  0  0
 17 19  1  0  0  0  0
 15 16  1  0  0  0  0
 15 17  1  0  0  0  0
 14 15  2  0  0  0  0
 14 28  1  0  0  0  0
 11 12  1  0  0  0  0
 11 13  1  0  0  0  0
 11 14  1  0  0  0  0
  9 10  1  0  0  0  0
  9 11  1  0  0  0  0
  9 29  1  0  0  0  0
  7  8  1  0  0  0  0
  7  9  1  0  0  0  0
 33 34  1  0  0  0  0
 33 35  1  0  0  0  0
 33 36  1  0  0  0  0
 31 32  1  0  0  0  0
 31 33  1  0  0  0  0
M  END
$$$$
default_name
  -OEChem-12212115393D

 36 37  0     1  0  0  0  0  0999 V2000
   -4.0843   -4.0736    1.2944 H   0  0  0  0  0  0  0  0  0  0  0  0
   -4.0342   -3.2816    0.5484 C   0  0  0  0  0  0  0  0  0  0  0  0
   -4.8842   -2.6126    0.6694 H   0  0  0  0  0  0  0  0  0  0  0  0
   -4.0433   -3.7186   -0.4486 H   0  0  0  0  0  0  0  0  0  0  0  0
   -2.7532   -2.5046    0.7444 C   0  0  0  0  0  0  0  0  0  0  0  0
   -1.9803   -2.8096    1.6434 O   0  0  0  0  0  0  0  0  0  0  0  0
   -2.5332   -1.4966   -0.0966 N   0  0  0  0  0  0  0  0  0  0  0  0
   -3.2312   -1.2816   -0.7936 H   0  0  0  0  0  0  0  0  0  0  0  0
   -1.3593   -0.6196   -0.0536 C   0  0  1  0  0  0  0  0  0  0  0  0
   -0.5661   -1.0681   -0.6530 H   0  0  0  0  0  0  0  0  0  0  0  0
   -1.7144    0.7425   -0.6703 C   0  0  0  0  0  0  0  0  0  0  0  0
   -0.8268    1.3776   -0.6550 H   0  0  0  0  0  0  0  0  0  0  0  0
   -1.9926    0.5890   -1.7144 H   0  0  0  0  0  0  0  0  0  0  0  0
   -2.8246    1.4812    0.0135 C   0  0  0  0  0  0  0  0  0  0  0  0
   -2.6799    2.3291    1.0564 C   0  0  0  0  0  0  0  0  0  0  0  0
   -1.7356    2.5612    1.5367 H   0  0  0  0  0  0  0  0  0  0  0  0
   -3.9082    2.8618    1.3955 N   0  0  0  0  0  0  0  0  0  0  0  0
   -4.0412    3.5182    2.1509 H   0  0  0  0  0  0  0  0  0  0  0  0
   -4.9095    2.3933    0.5718 C   0  0  0  0  0  0  0  0  0  0  0  0
   -6.2857    2.6510    0.4946 C   0  0  0  0  0  0  0  0  0  0  0  0
   -6.7530    3.3404    1.1823 H   0  0  0  0  0  0  0  0  0  0  0  0
   -7.0485    1.9983   -0.4889 C   0  0  0  0  0  0  0  0  0  0  0  0
   -8.1115    2.1838   -0.5628 H   0  0  0  0  0  0  0  0  0  0  0  0
   -6.4282    1.0973   -1.3736 C   0  0  0  0  0  0  0  0  0  0  0  0
   -7.0203    0.5910   -2.1234 H   0  0  0  0  0  0  0  0  0  0  0  0
   -5.0445    0.8445   -1.2856 C   0  0  0  0  0  0  0  0  0  0  0  0
   -4.5830    0.1400   -1.9628 H   0  0  0  0  0  0  0  0  0  0  0  0
   -4.2496    1.4887   -0.3129 C   0  0  0  0  0  0  0  0  0  0  0  0
   -0.8278   -0.4731    1.3807 C   0  0  0  0  0  0  0  0  0  0  0  0
   -1.6062   -0.2726    2.3121 O   0  0  0  0  0  0  0  0  0  0  0  0
    0.4967   -0.5715    1.5571 N   0  0  0  0  0  0  0  0  0  0  0  0
    1.0713   -0.6824    0.7338 H   0  0  0  0  0  0  0  0  0  0  0  0
    1.1638   -0.4589    2.8511 C   0  0  0  0  0  0  0  0  0  0  0  0
    0.6979   -1.1398    3.5660 H   0  0  0  0  0  0  0  0  0  0  0  0
    2.2211   -0.7078    2.7515 H   0  0  0  0  0  0  0  0  0  0  0  0
    1.0664    0.5616    3.2252 H   0  0  0  0  0  0  0  0  0  0  0  0
  5  6  2  0  0  0  0
  5  7  1  0  0  0  0
  2  3  1  0  0  0  0
  2  4  1  0  0  0  0
  2  5  1  0  0  0  0
  1  2  1  0  0  0  0
 29 30  2  0  0  0  0
 29 31  1  0  0  0  0
 26 27  1  0  0  0  0
 26 28  2  0  0  0  0
 24 25  1  0  0  0  0
 24 26  1  0  0  0  0
 22 23  1  0  0  0  0
 22 24  2  0  0  0  0
 20 21  1  0  0  0  0
 20 22  1  0  0  0  0
 19 20  2  0  0  0  0
 19 28  1  0  0  0  0
 17 18  1  0  0  0  0
 17 19  1  0  0  0  0
 15 16  1  0  0  0  0
 15 17  1  0  0  0  0
 14 15  2  0  0  0  0
 14 28  1  0  0  0  0
 11 12  1  0  0  0  0
 11 13  1  0  0  0  0
 11 14  1  0  0  0  0
  9 10  1  0  0  0  0
  9 11  1  0  0  0  0
  9 29  1  0  0  0  0
  7  8  1  0  0  0  0
  7  9  1  0  0  0  0
 33 34  1  0  0  0  0
 33 35  1  0  0  0  0
 33 36  1  0  0  0  0
 31 32  1  0  0  0  0
 31 33  1  0  0  0  0
M  END
$$$$
default_name
  -OEChem-12212115393D

 36 37  0     1  0  0  0  0  0999 V2000
   -4.0843   -4.0736    1.2944 H   0  0  0  0  0  0  0  0  0  0  0  0
   -4.0342   -3.2816    0.5484 C   0  0  0  0  0  0  0  0  0  0  0  0
   -4.8842   -2.6126    0.6694 H   0  0  0  0  0  0  0  0  0  0  0  0
   -4.0433   -3.7186   -0.4486 H   0  0  0  0  0  0  0  0  0  0  0  0
   -2.7532   -2.5046    0.7444 C   0  0  0  0  0  0  0  0  0  0  0  0
   -1.9803   -2.8096    1.6434 O   0  0  0  0  0  0  0  0  0  0  0  0
   -2.5332   -1.4966   -0.0966 N   0  0  0  0  0  0  0  0  0  0  0  0
   -3.2312   -1.2816   -0.7936 H   0  0  0  0  0  0  0  0  0  0  0  0
   -1.3593   -0.6196   -0.0536 C   0  0  1  0  0  0  0  0  0  0  0  0
   -0.5661   -1.0681   -0.6530 H   0  0  0  0  0  0  0  0  0  0  0  0
   -1.7144    0.7425   -0.6703 C   0  0  0  0  0  0  0  0  0  0  0  0
   -0.8268    1.3776   -0.6550 H   0  0  0  0  0  0  0  0  0  0  0  0
   -1.9926    0.5890   -1.7144 H   0  0  0  0  0  0  0  0  0  0  0  0
   -2.8246    1.4812    0.0135 C   0  0  0  0  0  0  0  0  0  0  0  0
   -2.6799    2.3291    1.0564 C   0  0  0  0  0  0  0  0  0  0  0  0
   -1.7356    2.5612    1.5367 H   0  0  0  0  0  0  0  0  0  0  0  0
   -3.9082    2.8618    1.3955 N   0  0  0  0  0  0  0  0  0  0  0  0
   -4.0412    3.5182    2.1509 H   0  0  0  0  0  0  0  0  0  0  0  0
   -4.9095    2.3933    0.5718 C   0  0  0  0  0  0  0  0  0  0  0  0
   -6.2857    2.6510    0.4946 C   0  0  0  0  0  0  0  0  0  0  0  0
   -6.7530    3.3404    1.1823 H   0  0  0  0  0  0  0  0  0  0  0  0
   -7.0485    1.9983   -0.4889 C   0  0  0  0  0  0  0  0  0  0  0  0
   -8.1115    2.1838   -0.5628 H   0  0  0  0  0  0  0  0  0  0  0  0
   -6.4282    1.0973   -1.3736 C   0  0  0  0  0  0  0  0  0  0  0  0
   -7.0203    0.5910   -2.1234 H   0  0  0  0  0  0  0  0  0  0  0  0
   -5.0445    0.8445   -1.2856 C   0  0  0  0  0  0  0  0  0  0  0  0
   -4.5830    0.1400   -1.9628 H   0  0  0  0  0  0  0  0  0  0  0  0
   -4.2496    1.4887   -0.3129 C   0  0  0  0  0  0  0  0  0  0  0  0
   -0.8278   -0.4731    1.3807 C   0  0  0  0  0  0  0  0  0  0  0  0
   -1.5979   -0.5488    2.3372 O   0  0  0  0  0  0  0  0  0  0  0  0
    0.4869   -0.2619    1.5291 N   0  0  0  0  0  0  0  0  0  0  0  0
    1.0416   -0.1584    0.6913 H   0  0  0  0  0  0  0  0  0  0  0  0
    1.1531   -0.1031    2.8188 C   0  0  0  0  0  0  0  0  0  0  0  0
    0.8904   -0.9360    3.4738 H   0  0  0  0  0  0  0  0  0  0  0  0
    2.2350   -0.0784    2.6821 H   0  0  0  0  0  0  0  0  0  0  0  0
    0.8266    0.8269    3.2870 H   0  0  0  0  0  0  0  0  0  0  0  0
  5  6  2  0  0  0  0
  5  7  1  0  0  0  0
  2  3  1  0  0  0  0
  2  4  1  0  0  0  0
  2  5  1  0  0  0  0
  1  2  1  0  0  0  0
 29 30  2  0  0  0  0
 29 31  1  0  0  0  0
 26 27  1  0  0  0  0
 26 28  2  0  0  0  0
 24 25  1  0  0  0  0
 24 26  1  0  0  0  0
 22 23  1  0  0  0  0
 22 24  2  0  0  0  0
 20 21  1  0  0  0  0
 20 22  1  0  0  0  0
 19 20  2  0  0  0  0
 19 28  1  0  0  0  0
 17 18  1  0  0  0  0
 17 19  1  0  0  0  0
 15 16  1  0  0  0  0
 15 17  1  0  0  0  0
 14 15  2  0  0  0  0
 14 28  1  0  0  0  0
 11 12  1  0  0  0  0
 11 13  1  0  0  0  0
 11 14  1  0  0  0  0
  9 10  1  0  0  0  0
  9 11  1  0  0  0  0
  9 29  1  0  0  0  0
  7  8  1  0  0  0  0
  7  9  1  0  0  0  0
 33 34  1  0  0  0  0
 33 35  1  0  0  0  0
 33 36  1  0  0  0  0
 31 32  1  0  0  0  0
 31 33  1  0  0  0  0
M  END
$$$$
default_name
  -OEChem-12212115393D

 36 37  0     1  0  0  0  0  0999 V2000
   -4.0843   -4.0736    1.2944 H   0  0  0  0  0  0  0  0  0  0  0  0
   -4.0342   -3.2816    0.5484 C   0  0  0  0  0  0  0  0  0  0  0  0
   -4.8842   -2.6126    0.6694 H   0  0  0  0  0  0  0  0  0  0  0  0
   -4.0433   -3.7186   -0.4486 H   0  0  0  0  0  0  0  0  0  0  0  0
   -2.7532   -2.5046    0.7444 C   0  0  0  0  0  0  0  0  0  0  0  0
   -1.9803   -2.8096    1.6434 O   0  0  0  0  0  0  0  0  0  0  0  0
   -2.5332   -1.4966   -0.0966 N   0  0  0  0  0  0  0  0  0  0  0  0
   -3.2312   -1.2816   -0.7936 H   0  0  0  0  0  0  0  0  0  0  0  0
   -1.3593   -0.6196   -0.0536 C   0  0  1  0  0  0  0  0  0  0  0  0
   -0.5661   -1.0681   -0.6530 H   0  0  0  0  0  0  0  0  0  0  0  0
   -1.7144    0.7425   -0.6703 C   0  0  0  0  0  0  0  0  0  0  0  0
   -0.8268    1.3776   -0.6550 H   0  0  0  0  0  0  0  0  0  0  0  0
   -1.9926    0.5890   -1.7144 H   0  0  0  0  0  0  0  0  0  0  0  0
   -2.8246    1.4812    0.0135 C   0  0  0  0  0  0  0  0  0  0  0  0
   -2.6799    2.3291    1.0564 C   0  0  0  0  0  0  0  0  0  0  0  0
   -1.7356    2.5612    1.5367 H   0  0  0  0  0  0  0  0  0  0  0  0
   -3.9082    2.8618    1.3955 N   0  0  0  0  0  0  0  0  0  0  0  0
   -4.0412    3.5182    2.1509 H   0  0  0  0  0  0  0  0  0  0  0  0
   -4.9095    2.3933    0.5718 C   0  0  0  0  0  0  0  0  0  0  0  0
   -6.2857    2.6510    0.4946 C   0  0  0  0  0  0  0  0  0  0  0  0
   -6.7530    3.3404    1.1823 H   0  0  0  0  0  0  0  0  0  0  0  0
   -7.0485    1.9983   -0.4889 C   0  0  0  0  0  0  0  0  0  0  0  0
   -8.1115    2.1838   -0.5628 H   0  0  0  0  0  0  0  0  0  0  0  0
   -6.4282    1.0973   -1.3736 C   0  0  0  0  0  0  0  0  0  0  0  0
   -7.0203    0.5910   -2.1234 H   0  0  0  0  0  0  0  0  0  0  0  0
   -5.0445    0.8445   -1.2856 C   0  0  0  0  0  0  0  0  0  0  0  0
   -4.5830    0.1400   -1.9628 H   0  0  0  0  0  0  0  0  0  0  0  0
   -4.2496    1.4887   -0.3129 C   0  0  0  0  0  0  0  0  0  0  0  0
   -0.8278   -0.4731    1.3807 C   0  0  0  0  0  0  0  0  0  0  0  0
   -1.5225   -0.8159    2.3365 O   0  0  0  0  0  0  0  0  0  0  0  0
    0.4019    0.0372    1.5300 N   0  0  0  0  0  0  0  0  0  0  0  0
    0.8852    0.3443    0.6979 H   0  0  0  0  0  0  0  0  0  0  0  0
    1.0560    0.2408    2.8196 C   0  0  0  0  0  0  0  0  0  0  0  0
    1.0249   -0.6843    3.3983 H   0  0  0  0  0  0  0  0  0  0  0  0
    2.0946    0.5391    2.6710 H   0  0  0  0  0  0  0  0  0  0  0  0
    0.5324    1.0197    3.3763 H   0  0  0  0  0  0  0  0  0  0  0  0
  5  6  2  0  0  0  0
  5  7  1  0  0  0  0
  2  3  1  0  0  0  0
  2  4  1  0  0  0  0
  2  5  1  0  0  0  0
  1  2  1  0  0  0  0
 29 30  2  0  0  0  0
 29 31  1  0  0  0  0
 26 27  1  0  0  0  0
 26 28  2  0  0  0  0
 24 25  1  0  0  0  0
 24 26  1  0  0  0  0
 22 23  1  0  0  0  0
 22 24  2  0  0  0  0
 20 21  1  0  0  0  0
 20 22  1  0  0  0  0
 19 20  2  0  0  0  0
 19 28  1  0  0  0  0
 17 18  1  0  0  0  0
 17 19  1  0  0  0  0
 15 16  1  0  0  0  0
 15 17  1  0  0  0  0
 14 15  2  0  0  0  0
 14 28  1  0  0  0  0
 11 12  1  0  0  0  0
 11 13  1  0  0  0  0
 11 14  1  0  0  0  0
  9 10  1  0  0  0  0
  9 11  1  0  0  0  0
  9 29  1  0  0  0  0
  7  8  1  0  0  0  0
  7  9  1  0  0  0  0
 33 34  1  0  0  0  0
 33 35  1  0  0  0  0
 33 36  1  0  0  0  0
 31 32  1  0  0  0  0
 31 33  1  0  0  0  0
M  END
$$$$
default_name
  -OEChem-12212115393D

 36 37  0     1  0  0  0  0  0999 V2000
   -4.0843   -4.0736    1.2944 H   0  0  0  0  0  0  0  0  0  0  0  0
   -4.0342   -3.2816    0.5484 C   0  0  0  0  0  0  0  0  0  0  0  0
   -4.8842   -2.6126    0.6694 H   0  0  0  0  0  0  0  0  0  0  0  0
   -4.0433   -3.7186   -0.4486 H   0  0  0  0  0  0  0  0  0  0  0  0
   -2.7532   -2.5046    0.7444 C   0  0  0  0  0  0  0  0  0  0  0  0
   -1.9803   -2.8096    1.6434 O   0  0  0  0  0  0  0  0  0  0  0  0
   -2.5332   -1.4966   -0.0966 N   0  0  0  0  0  0  0  0  0  0  0  0
   -3.2312   -1.2816   -0.7936 H   0  0  0  0  0  0  0  0  0  0  0  0
   -1.3593   -0.6196   -0.0536 C   0  0  1  0  0  0  0  0  0  0  0  0
   -0.6730   -0.9155   -0.8480 H   0  0  0  0  0  0  0  0  0  0  0  0
   -1.7941    0.8316   -0.3115 C   0  0  0  0  0  0  0  0  0  0  0  0
   -0.9095    1.4709   -0.3014 H   0  0  0  0  0  0  0  0  0  0  0  0
   -2.2327    0.8907   -1.3091 H   0  0  0  0  0  0  0  0  0  0  0  0
   -2.7779    1.3863    0.6736 C   0  0  0  0  0  0  0  0  0  0  0  0
   -2.4652    2.0036    1.8350 C   0  0  0  0  0  0  0  0  0  0  0  0
   -1.4557    2.1540    2.2017 H   0  0  0  0  0  0  0  0  0  0  0  0
   -3.6211    2.4252    2.4625 N   0  0  0  0  0  0  0  0  0  0  0  0
   -3.6292    2.9079    3.3491 H   0  0  0  0  0  0  0  0  0  0  0  0
   -4.7425    2.1133    1.7236 C   0  0  0  0  0  0  0  0  0  0  0  0
   -6.1116    2.3483    1.9146 C   0  0  0  0  0  0  0  0  0  0  0  0
   -6.4601    2.8694    2.7942 H   0  0  0  0  0  0  0  0  0  0  0  0
   -7.0238    1.8949    0.9464 C   0  0  0  0  0  0  0  0  0  0  0  0
   -8.0838    2.0662    1.0773 H   0  0  0  0  0  0  0  0  0  0  0  0
   -6.5567    1.2113   -0.1910 C   0  0  0  0  0  0  0  0  0  0  0  0
   -7.2626    0.8569   -0.9293 H   0  0  0  0  0  0  0  0  0  0  0  0
   -5.1784    0.9789   -0.3717 C   0  0  0  0  0  0  0  0  0  0  0  0
   -4.8341    0.4408   -1.2434 H   0  0  0  0  0  0  0  0  0  0  0  0
   -4.2362    1.4271    0.5793 C   0  0  0  0  0  0  0  0  0  0  0  0
   -0.6098   -0.7601    1.2804 C   0  0  0  0  0  0  0  0  0  0  0  0
   -1.0207   -1.5352    2.1430 O   0  0  0  0  0  0  0  0  0  0  0  0
    0.4872   -0.0097    1.4496 N   0  0  0  0  0  0  0  0  0  0  0  0
    0.7267    0.6411    0.7152 H   0  0  0  0  0  0  0  0  0  0  0  0
    1.3144   -0.0234    2.6529 C   0  0  0  0  0  0  0  0  0  0  0  0
    1.5928   -1.0504    2.8966 H   0  0  0  0  0  0  0  0  0  0  0  0
    2.2174    0.5677    2.4946 H   0  0  0  0  0  0  0  0  0  0  0  0
    0.7510    0.3943    3.4889 H   0  0  0  0  0  0  0  0  0  0  0  0
  5  6  2  0  0  0  0
  5  7  1  0  0  0  0
  2  3  1  0  0  0  0
  2  4  1  0  0  0  0
  2  5  1  0  0  0  0
  1  2  1  0  0  0  0
 29 30  2  0  0  0  0
 29 31  1  0  0  0  0
 26 27  1  0  0  0  0
 26 28  2  0  0  0  0
 24 25  1  0  0  0  0
 24 26  1  0  0  0  0
 22 23  1  0  0  0  0
 22 24  2  0  0  0  0
 20 21  1  0  0  0  0
 20 22  1  0  0  0  0
 19 20  2  0  0  0  0
 19 28  1  0  0  0  0
 17 18  1  0  0  0  0
 17 19  1  0  0  0  0
 15 16  1  0  0  0  0
 15 17  1  0  0  0  0
 14 15  2  0  0  0  0
 14 28  1  0  0  0  0
 11 12  1  0  0  0  0
 11 13  1  0  0  0  0
 11 14  1  0  0  0  0
  9 10  1  0  0  0  0
  9 11  1  0  0  0  0
  9 29  1  0  0  0  0
  7  8  1  0  0  0  0
  7  9  1  0  0  0  0
 33 34  1  0  0  0  0
 33 35  1  0  0  0  0
 33 36  1  0  0  0  0
 31 32  1  0  0  0  0
 31 33  1  0  0  0  0
M  END
$$$$
default_name
  -OEChem-12212115393D

 36 37  0     1  0  0  0  0  0999 V2000
   -4.0843   -4.0736    1.2944 H   0  0  0  0  0  0  0  0  0  0  0  0
   -4.0342   -3.2816    0.5484 C   0  0  0  0  0  0  0  0  0  0  0  0
   -4.8842   -2.6126    0.6694 H   0  0  0  0  0  0  0  0  0  0  0  0
   -4.0433   -3.7186   -0.4486 H   0  0  0  0  0  0  0  0  0  0  0  0
   -2.7532   -2.5046    0.7444 C   0  0  0  0  0  0  0  0  0  0  0  0
   -1.9803   -2.8096    1.6434 O   0  0  0  0  0  0  0  0  0  0  0  0
   -2.5332   -1.4966   -0.0966 N   0  0  0  0  0  0  0  0  0  0  0  0
   -3.2312   -1.2816   -0.7936 H   0  0  0  0  0  0  0  0  0  0  0  0
   -1.3593   -0.6196   -0.0536 C   0  0  1  0  0  0  0  0  0  0  0  0
   -0.6730   -0.9155   -0.8480 H   0  0  0  0  0  0  0  0  0  0  0  0
   -1.7941    0.8316   -0.3115 C   0  0  0  0  0  0  0  0  0  0  0  0
   -0.9095    1.4709   -0.3014 H   0  0  0  0  0  0  0  0  0  0  0  0
   -2.2327    0.8907   -1.3091 H   0  0  0  0  0  0  0  0  0  0  0  0
   -2.7779    1.3863    0.6736 C   0  0  0  0  0  0  0  0  0  0  0  0
   -2.4652    2.0036    1.8350 C   0  0  0  0  0  0  0  0  0  0  0  0
   -1.4557    2.1540    2.2017 H   0  0  0  0  0  0  0  0  0  0  0  0
   -3.6211    2.4252    2.4625 N   0  0  0  0  0  0  0  0  0  0  0  0
   -3.6292    2.9079    3.3491 H   0  0  0  0  0  0  0  0  0  0  0  0
   -4.7425    2.1133    1.7236 C   0  0  0  0  0  0  0  0  0  0  0  0
   -6.1116    2.3483    1.9146 C   0  0  0  0  0  0  0  0  0  0  0  0
   -6.4601    2.8694    2.7942 H   0  0  0  0  0  0  0  0  0  0  0  0
   -7.0238    1.8949    0.9464 C   0  0  0  0  0  0  0  0  0  0  0  0
   -8.0838    2.0662    1.0773 H   0  0  0  0  0  0  0  0  0  0  0  0
   -6.5567    1.2113   -0.1910 C   0  0  0  0  0  0  0  0  0  0  0  0
   -7.2626    0.8569   -0.9293 H   0  0  0  0  0  0  0  0  0  0  0  0
   -5.1784    0.9789   -0.3717 C   0  0  0  0  0  0  0  0  0  0  0  0
   -4.8341    0.4408   -1.2434 H   0  0  0  0  0  0  0  0  0  0  0  0
   -4.2362    1.4271    0.5793 C   0  0  0  0  0  0  0  0  0  0  0  0
   -0.6098   -0.7601    1.2804 C   0  0  0  0  0  0  0  0  0  0  0  0
   -0.8427   -1.7119    2.0244 O   0  0  0  0  0  0  0  0  0  0  0  0
    0.2874    0.1880    1.5827 N   0  0  0  0  0  0  0  0  0  0  0  0
    0.3802    0.9649    0.9439 H   0  0  0  0  0  0  0  0  0  0  0  0
    1.0852    0.2043    2.8056 C   0  0  0  0  0  0  0  0  0  0  0  0
    1.5864   -0.7574    2.9310 H   0  0  0  0  0  0  0  0  0  0  0  0
    1.8324    0.9973    2.7561 H   0  0  0  0  0  0  0  0  0  0  0  0
    0.4341    0.3743    3.6648 H   0  0  0  0  0  0  0  0  0  0  0  0
  5  6  2  0  0  0  0
  5  7  1  0  0  0  0
  2  3  1  0  0  0  0
  2  4  1  0  0  0  0
  2  5  1  0  0  0  0
  1  2  1  0  0  0  0
 29 30  2  0  0  0  0
 29 31  1  0  0  0  0
 26 27  1  0  0  0  0
 26 28  2  0  0  0  0
 24 25  1  0  0  0  0
 24 26  1  0  0  0  0
 22 23  1  0  0  0  0
 22 24  2  0  0  0  0
 20 21  1  0  0  0  0
 20 22  1  0  0  0  0
 19 20  2  0  0  0  0
 19 28  1  0  0  0  0
 17 18  1  0  0  0  0
 17 19  1  0  0  0  0
 15 16  1  0  0  0  0
 15 17  1  0  0  0  0
 14 15  2  0  0  0  0
 14 28  1  0  0  0  0
 11 12  1  0  0  0  0
 11 13  1  0  0  0  0
 11 14  1  0  0  0  0
  9 10  1  0  0  0  0
  9 11  1  0  0  0  0
  9 29  1  0  0  0  0
  7  8  1  0  0  0  0
  7  9  1  0  0  0  0
 33 34  1  0  0  0  0
 33 35  1  0  0  0  0
 33 36  1  0  0  0  0
 31 32  1  0  0  0  0
 31 33  1  0  0  0  0
M  END
$$$$
default_name
  -OEChem-12212115393D

 36 37  0     1  0  0  0  0  0999 V2000
   -4.0843   -4.0736    1.2944 H   0  0  0  0  0  0  0  0  0  0  0  0
   -4.0342   -3.2816    0.5484 C   0  0  0  0  0  0  0  0  0  0  0  0
   -4.8842   -2.6126    0.6694 H   0  0  0  0  0  0  0  0  0  0  0  0
   -4.0433   -3.7186   -0.4486 H   0  0  0  0  0  0  0  0  0  0  0  0
   -2.7532   -2.5046    0.7444 C   0  0  0  0  0  0  0  0  0  0  0  0
   -1.9803   -2.8096    1.6434 O   0  0  0  0  0  0  0  0  0  0  0  0
   -2.5332   -1.4966   -0.0966 N   0  0  0  0  0  0  0  0  0  0  0  0
   -3.2312   -1.2816   -0.7936 H   0  0  0  0  0  0  0  0  0  0  0  0
   -1.3593   -0.6196   -0.0536 C   0  0  1  0  0  0  0  0  0  0  0  0
   -0.6730   -0.9155   -0.8480 H   0  0  0  0  0  0  0  0  0  0  0  0
   -1.7941    0.8316   -0.3115 C   0  0  0  0  0  0  0  0  0  0  0  0
   -0.9095    1.4709   -0.3014 H   0  0  0  0  0  0  0  0  0  0  0  0
   -2.2327    0.8907   -1.3091 H   0  0  0  0  0  0  0  0  0  0  0  0
   -2.7779    1.3863    0.6736 C   0  0  0  0  0  0  0  0  0  0  0  0
   -2.4652    2.0036    1.8350 C   0  0  0  0  0  0  0  0  0  0  0  0
   -1.4557    2.1540    2.2017 H   0  0  0  0  0  0  0  0  0  0  0  0
   -3.6211    2.4252    2.4625 N   0  0  0  0  0  0  0  0  0  0  0  0
   -3.6292    2.9079    3.3491 H   0  0  0  0  0  0  0  0  0  0  0  0
   -4.7425    2.1133    1.7236 C   0  0  0  0  0  0  0  0  0  0  0  0
   -6.1116    2.3483    1.9146 C   0  0  0  0  0  0  0  0  0  0  0  0
   -6.4601    2.8694    2.7942 H   0  0  0  0  0  0  0  0  0  0  0  0
   -7.0238    1.8949    0.9464 C   0  0  0  0  0  0  0  0  0  0  0  0
   -8.0838    2.0662    1.0773 H   0  0  0  0  0  0  0  0  0  0  0  0
   -6.5567    1.2113   -0.1910 C   0  0  0  0  0  0  0  0  0  0  0  0
   -7.2626    0.8569   -0.9293 H   0  0  0  0  0  0  0  0  0  0  0  0
   -5.1784    0.9789   -0.3717 C   0  0  0  0  0  0  0  0  0  0  0  0
   -4.8341    0.4408   -1.2434 H   0  0  0  0  0  0  0  0  0  0  0  0
   -4.2362    1.4271    0.5793 C   0  0  0  0  0  0  0  0  0  0  0  0
   -0.6098   -0.7601    1.2804 C   0  0  0  0  0  0  0  0  0  0  0  0
   -0.6281   -1.8276    1.8917 O   0  0  0  0  0  0  0  0  0  0  0  0
    0.0468    0.3172    1.7314 N   0  0  0  0  0  0  0  0  0  0  0  0
   -0.0327    1.1710    1.1975 H   0  0  0  0  0  0  0  0  0  0  0  0
    0.8089    0.3534    2.9765 C   0  0  0  0  0  0  0  0  0  0  0  0
    1.5135   -0.4801    3.0011 H   0  0  0  0  0  0  0  0  0  0  0  0
    1.3578    1.2928    3.0538 H   0  0  0  0  0  0  0  0  0  0  0  0
    0.1284    0.2615    3.8246 H   0  0  0  0  0  0  0  0  0  0  0  0
  5  6  2  0  0  0  0
  5  7  1  0  0  0  0
  2  3  1  0  0  0  0
  2  4  1  0  0  0  0
  2  5  1  0  0  0  0
  1  2  1  0  0  0  0
 29 30  2  0  0  0  0
 29 31  1  0  0  0  0
 26 27  1  0  0  0  0
 26 28  2  0  0  0  0
 24 25  1  0  0  0  0
 24 26  1  0  0  0  0
 22 23  1  0  0  0  0
 22 24  2  0  0  0  0
 20 21  1  0  0  0  0
 20 22  1  0  0  0  0
 19 20  2  0  0  0  0
 19 28  1  0  0  0  0
 17 18  1  0  0  0  0
 17 19  1  0  0  0  0
 15 16  1  0  0  0  0
 15 17  1  0  0  0  0
 14 15  2  0  0  0  0
 14 28  1  0  0  0  0
 11 12  1  0  0  0  0
 11 13  1  0  0  0  0
 11 14  1  0  0  0  0
  9 10  1  0  0  0  0
  9 11  1  0  0  0  0
  9 29  1  0  0  0  0
  7  8  1  0  0  0  0
  7  9  1  0  0  0  0
 33 34  1  0  0  0  0
 33 35  1  0  0  0  0
 33 36  1  0  0  0  0
 31 32  1  0  0  0  0
 31 33  1  0  0  0  0
M  END
$$$$
default_name
  -OEChem-12212115393D

 36 37  0     1  0  0  0  0  0999 V2000
   -4.0843   -4.0736    1.2944 H   0  0  0  0  0  0  0  0  0  0  0  0
   -4.0342   -3.2816    0.5484 C   0  0  0  0  0  0  0  0  0  0  0  0
   -4.8842   -2.6126    0.6694 H   0  0  0  0  0  0  0  0  0  0  0  0
   -4.0433   -3.7186   -0.4486 H   0  0  0  0  0  0  0  0  0  0  0  0
   -2.7532   -2.5046    0.7444 C   0  0  0  0  0  0  0  0  0  0  0  0
   -1.9803   -2.8096    1.6434 O   0  0  0  0  0  0  0  0  0  0  0  0
   -2.5332   -1.4966   -0.0966 N   0  0  0  0  0  0  0  0  0  0  0  0
   -3.2312   -1.2816   -0.7936 H   0  0  0  0  0  0  0  0  0  0  0  0
   -1.3593   -0.6196   -0.0536 C   0  0  1  0  0  0  0  0  0  0  0  0
   -0.6730   -0.9155   -0.8480 H   0  0  0  0  0  0  0  0  0  0  0  0
   -1.7941    0.8316   -0.3115 C   0  0  0  0  0  0  0  0  0  0  0  0
   -0.9095    1.4709   -0.3014 H   0  0  0  0  0  0  0  0  0  0  0  0
   -2.2327    0.8907   -1.3091 H   0  0  0  0  0  0  0  0  0  0  0  0
   -2.7779    1.3863    0.6736 C   0  0  0  0  0  0  0  0  0  0  0  0
   -2.4652    2.0036    1.8350 C   0  0  0  0  0  0  0  0  0  0  0  0
   -1.4557    2.1540    2.2017 H   0  0  0  0  0  0  0  0  0  0  0  0
   -3.6211    2.4252    2.4625 N   0  0  0  0  0  0  0  0  0  0  0  0
   -3.6292    2.9079    3.3491 H   0  0  0  0  0  0  0  0  0  0  0  0
   -4.7425    2.1133    1.7236 C   0  0  0  0  0  0  0  0  0  0  0  0
   -6.1116    2.3483    1.9146 C   0  0  0  0  0  0  0  0  0  0  0  0
   -6.4601    2.8694    2.7942 H   0  0  0  0  0  0  0  0  0  0  0  0
   -7.0238    1.8949    0.9464 C   0  0  0  0  0  0  0  0  0  0  0  0
   -8.0838    2.0662    1.0773 H   0  0  0  0  0  0  0  0  0  0  0  0
   -6.5567    1.2113   -0.1910 C   0  0  0  0  0  0  0  0  0  0  0  0
   -7.2626    0.8569   -0.9293 H   0  0  0  0  0  0  0  0  0  0  0  0
   -5.1784    0.9789   -0.3717 C   0  0  0  0  0  0  0  0  0  0  0  0
   -4.8341    0.4408   -1.2434 H   0  0  0  0  0  0  0  0  0  0  0  0
   -4.2362    1.4271    0.5793 C   0  0  0  0  0  0  0  0  0  0  0  0
   -0.6098   -0.7601    1.2804 C   0  0  0  0  0  0  0  0  0  0  0  0
   -0.3918   -1.8744    1.7540 O   0  0  0  0  0  0  0  0  0  0  0  0
   -0.2181    0.3692    1.8857 N   0  0  0  0  0  0  0  0  0  0  0  0
   -0.4837    1.2452    1.4587 H   0  0  0  0  0  0  0  0  0  0  0  0
    0.5045    0.4137    3.1538 C   0  0  0  0  0  0  0  0  0  0  0  0
    1.3792   -0.2375    3.1021 H   0  0  0  0  0  0  0  0  0  0  0  0
    0.8259    1.4339    3.3674 H   0  0  0  0  0  0  0  0  0  0  0  0
   -0.1454    0.0637    3.9576 H   0  0  0  0  0  0  0  0  0  0  0  0
  5  6  2  0  0  0  0
  5  7  1  0  0  0  0
  2  3  1  0  0  0  0
  2  4  1  0  0  0  0
  2  5  1  0  0  0  0
  1  2  1  0  0  0  0
 29 30  2  0  0  0  0
 29 31  1  0  0  0  0
 26 27  1  0  0  0  0
 26 28  2  0  0  0  0
 24 25  1  0  0  0  0
 24 26  1  0  0  0  0
 22 23  1  0  0  0  0
 22 24  2  0  0  0  0
 20 21  1  0  0  0  0
 20 22  1  0  0  0  0
 19 20  2  0  0  0  0
 19 28  1  0  0  0  0
 17 18  1  0  0  0  0
 17 19  1  0  0  0  0
 15 16  1  0  0  0  0
 15 17  1  0  0  0  0
 14 15  2  0  0  0  0
 14 28  1  0  0  0  0
 11 12  1  0  0  0  0
 11 13  1  0  0  0  0
 11 14  1  0  0  0  0
  9 10  1  0  0  0  0
  9 11  1  0  0  0  0
  9 29  1  0  0  0  0
  7  8  1  0  0  0  0
  7  9  1  0  0  0  0
 33 34  1  0  0  0  0
 33 35  1  0  0  0  0
 33 36  1  0  0  0  0
 31 32  1  0  0  0  0
 31 33  1  0  0  0  0
M  END
$$$$
default_name
  -OEChem-12212115393D

 36 37  0     1  0  0  0  0  0999 V2000
   -4.0843   -4.0736    1.2944 H   0  0  0  0  0  0  0  0  0  0  0  0
   -4.0342   -3.2816    0.5484 C   0  0  0  0  0  0  0  0  0  0  0  0
   -4.8842   -2.6126    0.6694 H   0  0  0  0  0  0  0  0  0  0  0  0
   -4.0433   -3.7186   -0.4486 H   0  0  0  0  0  0  0  0  0  0  0  0
   -2.7532   -2.5046    0.7444 C   0  0  0  0  0  0  0  0  0  0  0  0
   -1.9803   -2.8096    1.6434 O   0  0  0  0  0  0  0  0  0  0  0  0
   -2.5332   -1.4966   -0.0966 N   0  0  0  0  0  0  0  0  0  0  0  0
   -3.2312   -1.2816   -0.7936 H   0  0  0  0  0  0  0  0  0  0  0  0
   -1.3593   -0.6196   -0.0536 C   0  0  1  0  0  0  0  0  0  0  0  0
   -0.6730   -0.9155   -0.8480 H   0  0  0  0  0  0  0  0  0  0  0  0
   -1.7941    0.8316   -0.3115 C   0  0  0  0  0  0  0  0  0  0  0  0
   -0.9095    1.4709   -0.3014 H   0  0  0  0  0  0  0  0  0  0  0  0
   -2.2327    0.8907   -1.3091 H   0  0  0  0  0  0  0  0  0  0  0  0
   -2.7779    1.3863    0.6736 C   0  0  0  0  0  0  0  0  0  0  0  0
   -2.4652    2.0036    1.8350 C   0  0  0  0  0  0  0  0  0  0  0  0
   -1.4557    2.1540    2.2017 H   0  0  0  0  0  0  0  0  0  0  0  0
   -3.6211    2.4252    2.4625 N   0  0  0  0  0  0  0  0  0  0  0  0
   -3.6292    2.9079    3.3491 H   0  0  0  0  0  0  0  0  0  0  0  0
   -4.7425    2.1133    1.7236 C   0  0  0  0  0  0  0  0  0  0  0  0
   -6.1116    2.3483    1.9146 C   0  0  0  0  0  0  0  0  0  0  0  0
   -6.4601    2.8694    2.7942 H   0  0  0  0  0  0  0  0  0  0  0  0
   -7.0238    1.8949    0.9464 C   0  0  0  0  0  0  0  0  0  0  0  0
   -8.0838    2.0662    1.0773 H   0  0  0  0  0  0  0  0  0  0  0  0
   -6.5567    1.2113   -0.1910 C   0  0  0  0  0  0  0  0  0  0  0  0
   -7.2626    0.8569   -0.9293 H   0  0  0  0  0  0  0  0  0  0  0  0
   -5.1784    0.9789   -0.3717 C   0  0  0  0  0  0  0  0  0  0  0  0
   -4.8341    0.4408   -1.2434 H   0  0  0  0  0  0  0  0  0  0  0  0
   -4.2362    1.4271    0.5793 C   0  0  0  0  0  0  0  0  0  0  0  0
   -0.6098   -0.7601    1.2804 C   0  0  0  0  0  0  0  0  0  0  0  0
   -0.1497   -1.8492    1.6207 O   0  0  0  0  0  0  0  0  0  0  0  0
   -0.4893    0.3405    2.0350 N   0  0  0  0  0  0  0  0  0  0  0  0
   -0.9423    1.1827    1.7097 H   0  0  0  0  0  0  0  0  0  0  0  0
    0.1928    0.3812    3.3255 C   0  0  0  0  0  0  0  0  0  0  0  0
    1.1925   -0.0461    3.2272 H   0  0  0  0  0  0  0  0  0  0  0  0
    0.2731    1.4112    3.6756 H   0  0  0  0  0  0  0  0  0  0  0  0
   -0.3685   -0.2056    4.0546 H   0  0  0  0  0  0  0  0  0  0  0  0
  5  6  2  0  0  0  0
  5  7  1  0  0  0  0
  2  3  1  0  0  0  0
  2  4  1  0  0  0  0
  2  5  1  0  0  0  0
  1  2  1  0  0  0  0
 29 30  2  0  0  0  0
 29 31  1  0  0  0  0
 26 27  1  0  0  0  0
 26 28  2  0  0  0  0
 24 25  1  0  0  0  0
 24 26  1  0  0  0  0
 22 23  1  0  0  0  0
 22 24  2  0  0  0  0
 20 21  1  0  0  0  0
 20 22  1  0  0  0  0
 19 20  2  0  0  0  0
 19 28  1  0  0  0  0
 17 18  1  0  0  0  0
 17 19  1  0  0  0  0
 15 16  1  0  0  0  0
 15 17  1  0  0  0  0
 14 15  2  0  0  0  0
 14 28  1  0  0  0  0
 11 12  1  0  0  0  0
 11 13  1  0  0  0  0
 11 14  1  0  0  0  0
  9 10  1  0  0  0  0
  9 11  1  0  0  0  0
  9 29  1  0  0  0  0
  7  8  1  0  0  0  0
  7  9  1  0  0  0  0
 33 34  1  0  0  0  0
 33 35  1  0  0  0  0
 33 36  1  0  0  0  0
 31 32  1  0  0  0  0
 31 33  1  0  0  0  0
M  END
$$$$
default_name
  -OEChem-12212115393D

 36 37  0     1  0  0  0  0  0999 V2000
   -4.0843   -4.0736    1.2944 H   0  0  0  0  0  0  0  0  0  0  0  0
   -4.0342   -3.2816    0.5484 C   0  0  0  0  0  0  0  0  0  0  0  0
   -4.8842   -2.6126    0.6694 H   0  0  0  0  0  0  0  0  0  0  0  0
   -4.0433   -3.7186   -0.4486 H   0  0  0  0  0  0  0  0  0  0  0  0
   -2.7532   -2.5046    0.7444 C   0  0  0  0  0  0  0  0  0  0  0  0
   -1.9803   -2.8096    1.6434 O   0  0  0  0  0  0  0  0  0  0  0  0
   -2.5332   -1.4966   -0.0966 N   0  0  0  0  0  0  0  0  0  0  0  0
   -3.2312   -1.2816   -0.7936 H   0  0  0  0  0  0  0  0  0  0  0  0
   -1.3593   -0.6196   -0.0536 C   0  0  1  0  0  0  0  0  0  0  0  0
   -0.6730   -0.9155   -0.8480 H   0  0  0  0  0  0  0  0  0  0  0  0
   -1.7941    0.8316   -0.3115 C   0  0  0  0  0  0  0  0  0  0  0  0
   -0.9095    1.4709   -0.3014 H   0  0  0  0  0  0  0  0  0  0  0  0
   -2.2327    0.8907   -1.3091 H   0  0  0  0  0  0  0  0  0  0  0  0
   -2.7779    1.3863    0.6736 C   0  0  0  0  0  0  0  0  0  0  0  0
   -2.4652    2.0036    1.8350 C   0  0  0  0  0  0  0  0  0  0  0  0
   -1.4557    2.1540    2.2017 H   0  0  0  0  0  0  0  0  0  0  0  0
   -3.6211    2.4252    2.4625 N   0  0  0  0  0  0  0  0  0  0  0  0
   -3.6292    2.9079    3.3491 H   0  0  0  0  0  0  0  0  0  0  0  0
   -4.7425    2.1133    1.7236 C   0  0  0  0  0  0  0  0  0  0  0  0
   -6.1116    2.3483    1.9146 C   0  0  0  0  0  0  0  0  0  0  0  0
   -6.4601    2.8694    2.7942 H   0  0  0  0  0  0  0  0  0  0  0  0
   -7.0238    1.8949    0.9464 C   0  0  0  0  0  0  0  0  0  0  0  0
   -8.0838    2.0662    1.0773 H   0  0  0  0  0  0  0  0  0  0  0  0
   -6.5567    1.2113   -0.1910 C   0  0  0  0  0  0  0  0  0  0  0  0
   -7.2626    0.8569   -0.9293 H   0  0  0  0  0  0  0  0  0  0  0  0
   -5.1784    0.9789   -0.3717 C   0  0  0  0  0  0  0  0  0  0  0  0
   -4.8341    0.4408   -1.2434 H   0  0  0  0  0  0  0  0  0  0  0  0
   -4.2362    1.4271    0.5793 C   0  0  0  0  0  0  0  0  0  0  0  0
   -0.6098   -0.7601    1.2804 C   0  0  0  0  0  0  0  0  0  0  0  0
    0.0816   -1.7535    1.5008 O   0  0  0  0  0  0  0  0  0  0  0  0
   -0.7484    0.2329    2.1692 N   0  0  0  0  0  0  0  0  0  0  0  0
   -1.3771    0.9875    1.9334 H   0  0  0  0  0  0  0  0  0  0  0  0
   -0.1051    0.2581    3.4799 C   0  0  0  0  0  0  0  0  0  0  0  0
    0.9662    0.0810    3.3677 H   0  0  0  0  0  0  0  0  0  0  0  0
   -0.2631    1.2260    3.9573 H   0  0  0  0  0  0  0  0  0  0  0  0
   -0.5258   -0.5282    4.1090 H   0  0  0  0  0  0  0  0  0  0  0  0
  5  6  2  0  0  0  0
  5  7  1  0  0  0  0
  2  3  1  0  0  0  0
  2  4  1  0  0  0  0
  2  5  1  0  0  0  0
  1  2  1  0  0  0  0
 29 30  2  0  0  0  0
 29 31  1  0  0  0  0
 26 27  1  0  0  0  0
 26 28  2  0  0  0  0
 24 25  1  0  0  0  0
 24 26  1  0  0  0  0
 22 23  1  0  0  0  0
 22 24  2  0  0  0  0
 20 21  1  0  0  0  0
 20 22  1  0  0  0  0
 19 20  2  0  0  0  0
 19 28  1  0  0  0  0
 17 18  1  0  0  0  0
 17 19  1  0  0  0  0
 15 16  1  0  0  0  0
 15 17  1  0  0  0  0
 14 15  2  0  0  0  0
 14 28  1  0  0  0  0
 11 12  1  0  0  0  0
 11 13  1  0  0  0  0
 11 14  1  0  0  0  0
  9 10  1  0  0  0  0
  9 11  1  0  0  0  0
  9 29  1  0  0  0  0
  7  8  1  0  0  0  0
  7  9  1  0  0  0  0
 33 34  1  0  0  0  0
 33 35  1  0  0  0  0
 33 36  1  0  0  0  0
 31 32  1  0  0  0  0
 31 33  1  0  0  0  0
M  END
$$$$
default_name
  -OEChem-12212115393D

 36 37  0     1  0  0  0  0  0999 V2000
   -4.0843   -4.0736    1.2944 H   0  0  0  0  0  0  0  0  0  0  0  0
   -4.0342   -3.2816    0.5484 C   0  0  0  0  0  0  0  0  0  0  0  0
   -4.8842   -2.6126    0.6694 H   0  0  0  0  0  0  0  0  0  0  0  0
   -4.0433   -3.7186   -0.4486 H   0  0  0  0  0  0  0  0  0  0  0  0
   -2.7532   -2.5046    0.7444 C   0  0  0  0  0  0  0  0  0  0  0  0
   -1.9803   -2.8096    1.6434 O   0  0  0  0  0  0  0  0  0  0  0  0
   -2.5332   -1.4966   -0.0966 N   0  0  0  0  0  0  0  0  0  0  0  0
   -3.2312   -1.2816   -0.7936 H   0  0  0  0  0  0  0  0  0  0  0  0
   -1.3593   -0.6196   -0.0536 C   0  0  1  0  0  0  0  0  0  0  0  0
   -0.6730   -0.9155   -0.8480 H   0  0  0  0  0  0  0  0  0  0  0  0
   -1.7941    0.8316   -0.3115 C   0  0  0  0  0  0  0  0  0  0  0  0
   -0.9095    1.4709   -0.3014 H   0  0  0  0  0  0  0  0  0  0  0  0
   -2.2327    0.8907   -1.3091 H   0  0  0  0  0  0  0  0  0  0  0  0
   -2.7779    1.3863    0.6736 C   0  0  0  0  0  0  0  0  0  0  0  0
   -2.4652    2.0036    1.8350 C   0  0  0  0  0  0  0  0  0  0  0  0
   -1.4557    2.1540    2.2017 H   0  0  0  0  0  0  0  0  0  0  0  0
   -3.6211    2.4252    2.4625 N   0  0  0  0  0  0  0  0  0  0  0  0
   -3.6292    2.9079    3.3491 H   0  0  0  0  0  0  0  0  0  0  0  0
   -4.7425    2.1133    1.7236 C   0  0  0  0  0  0  0  0  0  0  0  0
   -6.1116    2.3483    1.9146 C   0  0  0  0  0  0  0  0  0  0  0  0
   -6.4601    2.8694    2.7942 H   0  0  0  0  0  0  0  0  0  0  0  0
   -7.0238    1.8949    0.9464 C   0  0  0  0  0  0  0  0  0  0  0  0
   -8.0838    2.0662    1.0773 H   0  0  0  0  0  0  0  0  0  0  0  0
   -6.5567    1.2113   -0.1910 C   0  0  0  0  0  0  0  0  0  0  0  0
   -7.2626    0.8569   -0.9293 H   0  0  0  0  0  0  0  0  0  0  0  0
   -5.1784    0.9789   -0.3717 C   0  0  0  0  0  0  0  0  0  0  0  0
   -4.8341    0.4408   -1.2434 H   0  0  0  0  0  0  0  0  0  0  0  0
   -4.2362    1.4271    0.5793 C   0  0  0  0  0  0  0  0  0  0  0  0
   -0.6098   -0.7601    1.2804 C   0  0  0  0  0  0  0  0  0  0  0  0
    0.2863   -1.5941    1.4026 O   0  0  0  0  0  0  0  0  0  0  0  0
   -0.9776    0.0538    2.2792 N   0  0  0  0  0  0  0  0  0  0  0  0
   -1.7585    0.6730    2.1146 H   0  0  0  0  0  0  0  0  0  0  0  0
   -0.3688    0.0528    3.6065 C   0  0  0  0  0  0  0  0  0  0  0  0
    0.7158    0.1353    3.5141 H   0  0  0  0  0  0  0  0  0  0  0  0
   -0.7461    0.8912    4.1934 H   0  0  0  0  0  0  0  0  0  0  0  0
   -0.6065   -0.8819    4.1171 H   0  0  0  0  0  0  0  0  0  0  0  0
  5  6  2  0  0  0  0
  5  7  1  0  0  0  0
  2  3  1  0  0  0  0
  2  4  1  0  0  0  0
  2  5  1  0  0  0  0
  1  2  1  0  0  0  0
 29 30  2  0  0  0  0
 29 31  1  0  0  0  0
 26 27  1  0  0  0  0
 26 28  2  0  0  0  0
 24 25  1  0  0  0  0
 24 26  1  0  0  0  0
 22 23  1  0  0  0  0
 22 24  2  0  0  0  0
 20 21  1  0  0  0  0
 20 22  1  0  0  0  0
 19 20  2  0  0  0  0
 19 28  1  0  0  0  0
 17 18  1  0  0  0  0
 17 19  1  0  0  0  0
 15 16  1  0  0  0  0
 15 17  1  0  0  0  0
 14 15  2  0  0  0  0
 14 28  1  0  0  0  0
 11 12  1  0  0  0  0
 11 13  1  0  0  0  0
 11 14  1  0  0  0  0
  9 10  1  0  0  0  0
  9 11  1  0  0  0  0
  9 29  1  0  0  0  0
  7  8  1  0  0  0  0
  7  9  1  0  0  0  0
 33 34  1  0  0  0  0
 33 35  1  0  0  0  0
 33 36  1  0  0  0  0
 31 32  1  0  0  0  0
 31 33  1  0  0  0  0
M  END
$$$$
default_name
  -OEChem-12212115393D

 36 37  0     1  0  0  0  0  0999 V2000
   -4.0843   -4.0736    1.2944 H   0  0  0  0  0  0  0  0  0  0  0  0
   -4.0342   -3.2816    0.5484 C   0  0  0  0  0  0  0  0  0  0  0  0
   -4.8842   -2.6126    0.6694 H   0  0  0  0  0  0  0  0  0  0  0  0
   -4.0433   -3.7186   -0.4486 H   0  0  0  0  0  0  0  0  0  0  0  0
   -2.7532   -2.5046    0.7444 C   0  0  0  0  0  0  0  0  0  0  0  0
   -1.9803   -2.8096    1.6434 O   0  0  0  0  0  0  0  0  0  0  0  0
   -2.5332   -1.4966   -0.0966 N   0  0  0  0  0  0  0  0  0  0  0  0
   -3.2312   -1.2816   -0.7936 H   0  0  0  0  0  0  0  0  0  0  0  0
   -1.3593   -0.6196   -0.0536 C   0  0  1  0  0  0  0  0  0  0  0  0
   -0.6730   -0.9155   -0.8480 H   0  0  0  0  0  0  0  0  0  0  0  0
   -1.7941    0.8316   -0.3115 C   0  0  0  0  0  0  0  0  0  0  0  0
   -0.9095    1.4709   -0.3014 H   0  0  0  0  0  0  0  0  0  0  0  0
   -2.2327    0.8907   -1.3091 H   0  0  0  0  0  0  0  0  0  0  0  0
   -2.7779    1.3863    0.6736 C   0  0  0  0  0  0  0  0  0  0  0  0
   -2.4652    2.0036    1.8350 C   0  0  0  0  0  0  0  0  0  0  0  0
   -1.4557    2.1540    2.2017 H   0  0  0  0  0  0  0  0  0  0  0  0
   -3.6211    2.4252    2.4625 N   0  0  0  0  0  0  0  0  0  0  0  0
   -3.6292    2.9079    3.3491 H   0  0  0  0  0  0  0  0  0  0  0  0
   -4.7425    2.1133    1.7236 C   0  0  0  0  0  0  0  0  0  0  0  0
   -6.1116    2.3483    1.9146 C   0  0  0  0  0  0  0  0  0  0  0  0
   -6.4601    2.8694    2.7942 H   0  0  0  0  0  0  0  0  0  0  0  0
   -7.0238    1.8949    0.9464 C   0  0  0  0  0  0  0  0  0  0  0  0
   -8.0838    2.0662    1.0773 H   0  0  0  0  0  0  0  0  0  0  0  0
   -6.5567    1.2113   -0.1910 C   0  0  0  0  0  0  0  0  0  0  0  0
   -7.2626    0.8569   -0.9293 H   0  0  0  0  0  0  0  0  0  0  0  0
   -5.1784    0.9789   -0.3717 C   0  0  0  0  0  0  0  0  0  0  0  0
   -4.8341    0.4408   -1.2434 H   0  0  0  0  0  0  0  0  0  0  0  0
   -4.2362    1.4271    0.5793 C   0  0  0  0  0  0  0  0  0  0  0  0
   -0.6098   -0.7601    1.2804 C   0  0  0  0  0  0  0  0  0  0  0  0
    0.4506   -1.3816    1.3326 O   0  0  0  0  0  0  0  0  0  0  0  0
   -1.1614   -0.1845    2.3573 N   0  0  0  0  0  0  0  0  0  0  0  0
   -2.0606    0.2606    2.2409 H   0  0  0  0  0  0  0  0  0  0  0  0
   -0.5804   -0.2208    3.6965 C   0  0  0  0  0  0  0  0  0  0  0  0
    0.4582    0.1129    3.6564 H   0  0  0  0  0  0  0  0  0  0  0  0
   -1.1430    0.4294    4.3677 H   0  0  0  0  0  0  0  0  0  0  0  0
   -0.6052   -1.2428    4.0784 H   0  0  0  0  0  0  0  0  0  0  0  0
  5  6  2  0  0  0  0
  5  7  1  0  0  0  0
  2  3  1  0  0  0  0
  2  4  1  0  0  0  0
  2  5  1  0  0  0  0
  1  2  1  0  0  0  0
 29 30  2  0  0  0  0
 29 31  1  0  0  0  0
 26 27  1  0  0  0  0
 26 28  2  0  0  0  0
 24 25  1  0  0  0  0
 24 26  1  0  0  0  0
 22 23  1  0  0  0  0
 22 24  2  0  0  0  0
 20 21  1  0  0  0  0
 20 22  1  0  0  0  0
 19 20  2  0  0  0  0
 19 28  1  0  0  0  0
 17 18  1  0  0  0  0
 17 19  1  0  0  0  0
 15 16  1  0  0  0  0
 15 17  1  0  0  0  0
 14 15  2  0  0  0  0
 14 28  1  0  0  0  0
 11 12  1  0  0  0  0
 11 13  1  0  0  0  0
 11 14  1  0  0  0  0
  9 10  1  0  0  0  0
  9 11  1  0  0  0  0
  9 29  1  0  0  0  0
  7  8  1  0  0  0  0
  7  9  1  0  0  0  0
 33 34  1  0  0  0  0
 33 35  1  0  0  0  0
 33 36  1  0  0  0  0
 31 32  1  0  0  0  0
 31 33  1  0  0  0  0
M  END
$$$$
default_name
  -OEChem-12212115393D

 36 37  0     1  0  0  0  0  0999 V2000
   -4.0843   -4.0736    1.2944 H   0  0  0  0  0  0  0  0  0  0  0  0
   -4.0342   -3.2816    0.5484 C   0  0  0  0  0  0  0  0  0  0  0  0
   -4.8842   -2.6126    0.6694 H   0  0  0  0  0  0  0  0  0  0  0  0
   -4.0433   -3.7186   -0.4486 H   0  0  0  0  0  0  0  0  0  0  0  0
   -2.7532   -2.5046    0.7444 C   0  0  0  0  0  0  0  0  0  0  0  0
   -1.9803   -2.8096    1.6434 O   0  0  0  0  0  0  0  0  0  0  0  0
   -2.5332   -1.4966   -0.0966 N   0  0  0  0  0  0  0  0  0  0  0  0
   -3.2312   -1.2816   -0.7936 H   0  0  0  0  0  0  0  0  0  0  0  0
   -1.3593   -0.6196   -0.0536 C   0  0  1  0  0  0  0  0  0  0  0  0
   -0.6730   -0.9155   -0.8480 H   0  0  0  0  0  0  0  0  0  0  0  0
   -1.7941    0.8316   -0.3115 C   0  0  0  0  0  0  0  0  0  0  0  0
   -0.9095    1.4709   -0.3014 H   0  0  0  0  0  0  0  0  0  0  0  0
   -2.2327    0.8907   -1.3091 H   0  0  0  0  0  0  0  0  0  0  0  0
   -2.7779    1.3863    0.6736 C   0  0  0  0  0  0  0  0  0  0  0  0
   -2.4652    2.0036    1.8350 C   0  0  0  0  0  0  0  0  0  0  0  0
   -1.4557    2.1540    2.2017 H   0  0  0  0  0  0  0  0  0  0  0  0
   -3.6211    2.4252    2.4625 N   0  0  0  0  0  0  0  0  0  0  0  0
   -3.6292    2.9079    3.3491 H   0  0  0  0  0  0  0  0  0  0  0  0
   -4.7425    2.1133    1.7236 C   0  0  0  0  0  0  0  0  0  0  0  0
   -6.1116    2.3483    1.9146 C   0  0  0  0  0  0  0  0  0  0  0  0
   -6.4601    2.8694    2.7942 H   0  0  0  0  0  0  0  0  0  0  0  0
   -7.0238    1.8949    0.9464 C   0  0  0  0  0  0  0  0  0  0  0  0
   -8.0838    2.0662    1.0773 H   0  0  0  0  0  0  0  0  0  0  0  0
   -6.5567    1.2113   -0.1910 C   0  0  0  0  0  0  0  0  0  0  0  0
   -7.2626    0.8569   -0.9293 H   0  0  0  0  0  0  0  0  0  0  0  0
   -5.1784    0.9789   -0.3717 C   0  0  0  0  0  0  0  0  0  0  0  0
   -4.8341    0.4408   -1.2434 H   0  0  0  0  0  0  0  0  0  0  0  0
   -4.2362    1.4271    0.5793 C   0  0  0  0  0  0  0  0  0  0  0  0
   -0.6098   -0.7601    1.2804 C   0  0  0  0  0  0  0  0  0  0  0  0
    0.5632   -1.1307    1.2958 O   0  0  0  0  0  0  0  0  0  0  0  0
   -1.2872   -0.4659    2.3984 N   0  0  0  0  0  0  0  0  0  0  0  0
   -2.2627   -0.2215    2.3037 H   0  0  0  0  0  0  0  0  0  0  0  0
   -0.7255   -0.5440    3.7440 C   0  0  0  0  0  0  0  0  0  0  0  0
    0.2111    0.0154    3.7850 H   0  0  0  0  0  0  0  0  0  0  0  0
   -1.4267   -0.1279    4.4685 H   0  0  0  0  0  0  0  0  0  0  0  0
   -0.5219   -1.5862    3.9954 H   0  0  0  0  0  0  0  0  0  0  0  0
  5  6  2  0  0  0  0
  5  7  1  0  0  0  0
  2  3  1  0  0  0  0
  2  4  1  0  0  0  0
  2  5  1  0  0  0  0
  1  2  1  0  0  0  0
 29 30  2  0  0  0  0
 29 31  1  0  0  0  0
 26 27  1  0  0  0  0
 26 28  2  0  0  0  0
 24 25  1  0  0  0  0
 24 26  1  0  0  0  0
 22 23  1  0  0  0  0
 22 24  2  0  0  0  0
 20 21  1  0  0  0  0
 20 22  1  0  0  0  0
 19 20  2  0  0  0  0
 19 28  1  0  0  0  0
 17 18  1  0  0  0  0
 17 19  1  0  0  0  0
 15 16  1  0  0  0  0
 15 17  1  0  0  0  0
 14 15  2  0  0  0  0
 14 28  1  0  0  0  0
 11 12  1  0  0  0  0
 11 13  1  0  0  0  0
 11 14  1  0  0  0  0
  9 10  1  0  0  0  0
  9 11  1  0  0  0  0
  9 29  1  0  0  0  0
  7  8  1  0  0  0  0
  7  9  1  0  0  0  0
 33 34  1  0  0  0  0
 33 35  1  0  0  0  0
 33 36  1  0  0  0  0
 31 32  1  0  0  0  0
 31 33  1  0  0  0  0
M  END
$$$$
default_name
  -OEChem-12212115393D

 36 37  0     1  0  0  0  0  0999 V2000
   -4.0843   -4.0736    1.2944 H   0  0  0  0  0  0  0  0  0  0  0  0
   -4.0342   -3.2816    0.5484 C   0  0  0  0  0  0  0  0  0  0  0  0
   -4.8842   -2.6126    0.6694 H   0  0  0  0  0  0  0  0  0  0  0  0
   -4.0433   -3.7186   -0.4486 H   0  0  0  0  0  0  0  0  0  0  0  0
   -2.7532   -2.5046    0.7444 C   0  0  0  0  0  0  0  0  0  0  0  0
   -1.9803   -2.8096    1.6434 O   0  0  0  0  0  0  0  0  0  0  0  0
   -2.5332   -1.4966   -0.0966 N   0  0  0  0  0  0  0  0  0  0  0  0
   -3.2312   -1.2816   -0.7936 H   0  0  0  0  0  0  0  0  0  0  0  0
   -1.3593   -0.6196   -0.0536 C   0  0  1  0  0  0  0  0  0  0  0  0
   -0.6730   -0.9155   -0.8480 H   0  0  0  0  0  0  0  0  0  0  0  0
   -1.7941    0.8316   -0.3115 C   0  0  0  0  0  0  0  0  0  0  0  0
   -0.9095    1.4709   -0.3014 H   0  0  0  0  0  0  0  0  0  0  0  0
   -2.2327    0.8907   -1.3091 H   0  0  0  0  0  0  0  0  0  0  0  0
   -2.7779    1.3863    0.6736 C   0  0  0  0  0  0  0  0  0  0  0  0
   -2.4652    2.0036    1.8350 C   0  0  0  0  0  0  0  0  0  0  0  0
   -1.4557    2.1540    2.2017 H   0  0  0  0  0  0  0  0  0  0  0  0
   -3.6211    2.4252    2.4625 N   0  0  0  0  0  0  0  0  0  0  0  0
   -3.6292    2.9079    3.3491 H   0  0  0  0  0  0  0  0  0  0  0  0
   -4.7425    2.1133    1.7236 C   0  0  0  0  0  0  0  0  0  0  0  0
   -6.1116    2.3483    1.9146 C   0  0  0  0  0  0  0  0  0  0  0  0
   -6.4601    2.8694    2.7942 H   0  0  0  0  0  0  0  0  0  0  0  0
   -7.0238    1.8949    0.9464 C   0  0  0  0  0  0  0  0  0  0  0  0
   -8.0838    2.0662    1.0773 H   0  0  0  0  0  0  0  0  0  0  0  0
   -6.5567    1.2113   -0.1910 C   0  0  0  0  0  0  0  0  0  0  0  0
   -7.2626    0.8569   -0.9293 H   0  0  0  0  0  0  0  0  0  0  0  0
   -5.1784    0.9789   -0.3717 C   0  0  0  0  0  0  0  0  0  0  0  0
   -4.8341    0.4408   -1.2434 H   0  0  0  0  0  0  0  0  0  0  0  0
   -4.2362    1.4271    0.5793 C   0  0  0  0  0  0  0  0  0  0  0  0
   -0.6098   -0.7601    1.2804 C   0  0  0  0  0  0  0  0  0  0  0  0
    0.6164   -0.8583    1.2946 O   0  0  0  0  0  0  0  0  0  0  0  0
   -1.3465   -0.7712    2.3995 N   0  0  0  0  0  0  0  0  0  0  0  0
   -2.3510   -0.7405    2.2987 H   0  0  0  0  0  0  0  0  0  0  0  0
   -0.7941   -0.8947    3.7456 C   0  0  0  0  0  0  0  0  0  0  0  0
   -0.0088   -0.1505    3.8910 H   0  0  0  0  0  0  0  0  0  0  0  0
   -1.5779   -0.7426    4.4887 H   0  0  0  0  0  0  0  0  0  0  0  0
   -0.3623   -1.8887    3.8740 H   0  0  0  0  0  0  0  0  0  0  0  0
  5  6  2  0  0  0  0
  5  7  1  0  0  0  0
  2  3  1  0  0  0  0
  2  4  1  0  0  0  0
  2  5  1  0  0  0  0
  1  2  1  0  0  0  0
 29 30  2  0  0  0  0
 29 31  1  0  0  0  0
 26 27  1  0  0  0  0
 26 28  2  0  0  0  0
 24 25  1  0  0  0  0
 24 26  1  0  0  0  0
 22 23  1  0  0  0  0
 22 24  2  0  0  0  0
 20 21  1  0  0  0  0
 20 22  1  0  0  0  0
 19 20  2  0  0  0  0
 19 28  1  0  0  0  0
 17 18  1  0  0  0  0
 17 19  1  0  0  0  0
 15 16  1  0  0  0  0
 15 17  1  0  0  0  0
 14 15  2  0  0  0  0
 14 28  1  0  0  0  0
 11 12  1  0  0  0  0
 11 13  1  0  0  0  0
 11 14  1  0  0  0  0
  9 10  1  0  0  0  0
  9 11  1  0  0  0  0
  9 29  1  0  0  0  0
  7  8  1  0  0  0  0
  7  9  1  0  0  0  0
 33 34  1  0  0  0  0
 33 35  1  0  0  0  0
 33 36  1  0  0  0  0
 31 32  1  0  0  0  0
 31 33  1  0  0  0  0
M  END
$$$$
default_name
  -OEChem-12212115393D

 36 37  0     1  0  0  0  0  0999 V2000
   -4.0843   -4.0736    1.2944 H   0  0  0  0  0  0  0  0  0  0  0  0
   -4.0342   -3.2816    0.5484 C   0  0  0  0  0  0  0  0  0  0  0  0
   -4.8842   -2.6126    0.6694 H   0  0  0  0  0  0  0  0  0  0  0  0
   -4.0433   -3.7186   -0.4486 H   0  0  0  0  0  0  0  0  0  0  0  0
   -2.7532   -2.5046    0.7444 C   0  0  0  0  0  0  0  0  0  0  0  0
   -1.9803   -2.8096    1.6434 O   0  0  0  0  0  0  0  0  0  0  0  0
   -2.5332   -1.4966   -0.0966 N   0  0  0  0  0  0  0  0  0  0  0  0
   -3.2312   -1.2816   -0.7936 H   0  0  0  0  0  0  0  0  0  0  0  0
   -1.3593   -0.6196   -0.0536 C   0  0  1  0  0  0  0  0  0  0  0  0
   -0.6730   -0.9155   -0.8480 H   0  0  0  0  0  0  0  0  0  0  0  0
   -1.7941    0.8316   -0.3115 C   0  0  0  0  0  0  0  0  0  0  0  0
   -0.9095    1.4709   -0.3014 H   0  0  0  0  0  0  0  0  0  0  0  0
   -2.2327    0.8907   -1.3091 H   0  0  0  0  0  0  0  0  0  0  0  0
   -2.7779    1.3863    0.6736 C   0  0  0  0  0  0  0  0  0  0  0  0
   -2.4652    2.0036    1.8350 C   0  0  0  0  0  0  0  0  0  0  0  0
   -1.4557    2.1540    2.2017 H   0  0  0  0  0  0  0  0  0  0  0  0
   -3.6211    2.4252    2.4625 N   0  0  0  0  0  0  0  0  0  0  0  0
   -3.6292    2.9079    3.3491 H   0  0  0  0  0  0  0  0  0  0  0  0
   -4.7425    2.1133    1.7236 C   0  0  0  0  0  0  0  0  0  0  0  0
   -6.1116    2.3483    1.9146 C   0  0  0  0  0  0  0  0  0  0  0  0
   -6.4601    2.8694    2.7942 H   0  0  0  0  0  0  0  0  0  0  0  0
   -7.0238    1.8949    0.9464 C   0  0  0  0  0  0  0  0  0  0  0  0
   -8.0838    2.0662    1.0773 H   0  0  0  0  0  0  0  0  0  0  0  0
   -6.5567    1.2113   -0.1910 C   0  0  0  0  0  0  0  0  0  0  0  0
   -7.2626    0.8569   -0.9293 H   0  0  0  0  0  0  0  0  0  0  0  0
   -5.1784    0.9789   -0.3717 C   0  0  0  0  0  0  0  0  0  0  0  0
   -4.8341    0.4408   -1.2434 H   0  0  0  0  0  0  0  0  0  0  0  0
   -4.2362    1.4271    0.5793 C   0  0  0  0  0  0  0  0  0  0  0  0
   -0.6098   -0.7601    1.2804 C   0  0  0  0  0  0  0  0  0  0  0  0
    0.6067   -0.5831    1.3290 O   0  0  0  0  0  0  0  0  0  0  0  0
   -1.3351   -1.0795    2.3607 N   0  0  0  0  0  0  0  0  0  0  0  0
   -2.3196   -1.2611    2.2262 H   0  0  0  0  0  0  0  0  0  0  0  0
   -0.7815   -1.2492    3.7013 C   0  0  0  0  0  0  0  0  0  0  0  0
   -0.1864   -0.3735    3.9673 H   0  0  0  0  0  0  0  0  0  0  0  0
   -1.5863   -1.3729    4.4271 H   0  0  0  0  0  0  0  0  0  0  0  0
   -0.1373   -2.1297    3.7222 H   0  0  0  0  0  0  0  0  0  0  0  0
  5  6  2  0  0  0  0
  5  7  1  0  0  0  0
  2  3  1  0  0  0  0
  2  4  1  0  0  0  0
  2  5  1  0  0  0  0
  1  2  1  0  0  0  0
 29 30  2  0  0  0  0
 29 31  1  0  0  0  0
 26 27  1  0  0  0  0
 26 28  2  0  0  0  0
 24 25  1  0  0  0  0
 24 26  1  0  0  0  0
 22 23  1  0  0  0  0
 22 24  2  0  0  0  0
 20 21  1  0  0  0  0
 20 22  1  0  0  0  0
 19 20  2  0  0  0  0
 19 28  1  0  0  0  0
 17 18  1  0  0  0  0
 17 19  1  0  0  0  0
 15 16  1  0  0  0  0
 15 17  1  0  0  0  0
 14 15  2  0  0  0  0
 14 28  1  0  0  0  0
 11 12  1  0  0  0  0
 11 13  1  0  0  0  0
 11 14  1  0  0  0  0
  9 10  1  0  0  0  0
  9 11  1  0  0  0  0
  9 29  1  0  0  0  0
  7  8  1  0  0  0  0
  7  9  1  0  0  0  0
 33 34  1  0  0  0  0
 33 35  1  0  0  0  0
 33 36  1  0  0  0  0
 31 32  1  0  0  0  0
 31 33  1  0  0  0  0
M  END
$$$$
default_name
  -OEChem-12212115393D

 36 37  0     1  0  0  0  0  0999 V2000
   -4.0843   -4.0736    1.2944 H   0  0  0  0  0  0  0  0  0  0  0  0
   -4.0342   -3.2816    0.5484 C   0  0  0  0  0  0  0  0  0  0  0  0
   -4.8842   -2.6126    0.6694 H   0  0  0  0  0  0  0  0  0  0  0  0
   -4.0433   -3.7186   -0.4486 H   0  0  0  0  0  0  0  0  0  0  0  0
   -2.7532   -2.5046    0.7444 C   0  0  0  0  0  0  0  0  0  0  0  0
   -1.9803   -2.8096    1.6434 O   0  0  0  0  0  0  0  0  0  0  0  0
   -2.5332   -1.4966   -0.0966 N   0  0  0  0  0  0  0  0  0  0  0  0
   -3.2312   -1.2816   -0.7936 H   0  0  0  0  0  0  0  0  0  0  0  0
   -1.3593   -0.6196   -0.0536 C   0  0  1  0  0  0  0  0  0  0  0  0
   -0.6730   -0.9155   -0.8480 H   0  0  0  0  0  0  0  0  0  0  0  0
   -1.7941    0.8316   -0.3115 C   0  0  0  0  0  0  0  0  0  0  0  0
   -0.9095    1.4709   -0.3014 H   0  0  0  0  0  0  0  0  0  0  0  0
   -2.2327    0.8907   -1.3091 H   0  0  0  0  0  0  0  0  0  0  0  0
   -2.7779    1.3863    0.6736 C   0  0  0  0  0  0  0  0  0  0  0  0
   -2.4652    2.0036    1.8350 C   0  0  0  0  0  0  0  0  0  0  0  0
   -1.4557    2.1540    2.2017 H   0  0  0  0  0  0  0  0  0  0  0  0
   -3.6211    2.4252    2.4625 N   0  0  0  0  0  0  0  0  0  0  0  0
   -3.6292    2.9079    3.3491 H   0  0  0  0  0  0  0  0  0  0  0  0
   -4.7425    2.1133    1.7236 C   0  0  0  0  0  0  0  0  0  0  0  0
   -6.1116    2.3483    1.9146 C   0  0  0  0  0  0  0  0  0  0  0  0
   -6.4601    2.8694    2.7942 H   0  0  0  0  0  0  0  0  0  0  0  0
   -7.0238    1.8949    0.9464 C   0  0  0  0  0  0  0  0  0  0  0  0
   -8.0838    2.0662    1.0773 H   0  0  0  0  0  0  0  0  0  0  0  0
   -6.5567    1.2113   -0.1910 C   0  0  0  0  0  0  0  0  0  0  0  0
   -7.2626    0.8569   -0.9293 H   0  0  0  0  0  0  0  0  0  0  0  0
   -5.1784    0.9789   -0.3717 C   0  0  0  0  0  0  0  0  0  0  0  0
   -4.8341    0.4408   -1.2434 H   0  0  0  0  0  0  0  0  0  0  0  0
   -4.2362    1.4271    0.5793 C   0  0  0  0  0  0  0  0  0  0  0  0
   -0.6098   -0.7601    1.2804 C   0  0  0  0  0  0  0  0  0  0  0  0
    0.5346   -0.3238    1.3968 O   0  0  0  0  0  0  0  0  0  0  0  0
   -1.2540   -1.3699    2.2846 N   0  0  0  0  0  0  0  0  0  0  0  0
   -2.1706   -1.7477    2.0913 H   0  0  0  0  0  0  0  0  0  0  0  0
   -0.6888   -1.5831    3.6140 C   0  0  0  0  0  0  0  0  0  0  0  0
   -0.3096   -0.6385    4.0086 H   0  0  0  0  0  0  0  0  0  0  0  0
   -1.4513   -1.9759    4.2878 H   0  0  0  0  0  0  0  0  0  0  0  0
    0.1377   -2.2928    3.5505 H   0  0  0  0  0  0  0  0  0  0  0  0
  5  6  2  0  0  0  0
  5  7  1  0  0  0  0
  2  3  1  0  0  0  0
  2  4  1  0  0  0  0
  2  5  1  0  0  0  0
  1  2  1  0  0  0  0
 29 30  2  0  0  0  0
 29 31  1  0  0  0  0
 26 27  1  0  0  0  0
 26 28  2  0  0  0  0
 24 25  1  0  0  0  0
 24 26  1  0  0  0  0
 22 23  1  0  0  0  0
 22 24  2  0  0  0  0
 20 21  1  0  0  0  0
 20 22  1  0  0  0  0
 19 20  2  0  0  0  0
 19 28  1  0  0  0  0
 17 18  1  0  0  0  0
 17 19  1  0  0  0  0
 15 16  1  0  0  0  0
 15 17  1  0  0  0  0
 14 15  2  0  0  0  0
 14 28  1  0  0  0  0
 11 12  1  0  0  0  0
 11 13  1  0  0  0  0
 11 14  1  0  0  0  0
  9 10  1  0  0  0  0
  9 11  1  0  0  0  0
  9 29  1  0  0  0  0
  7  8  1  0  0  0  0
  7  9  1  0  0  0  0
 33 34  1  0  0  0  0
 33 35  1  0  0  0  0
 33 36  1  0  0  0  0
 31 32  1  0  0  0  0
 31 33  1  0  0  0  0
M  END
$$$$
default_name
  -OEChem-12212115393D

 36 37  0     1  0  0  0  0  0999 V2000
   -4.0843   -4.0736    1.2944 H   0  0  0  0  0  0  0  0  0  0  0  0
   -4.0342   -3.2816    0.5484 C   0  0  0  0  0  0  0  0  0  0  0  0
   -4.8842   -2.6126    0.6694 H   0  0  0  0  0  0  0  0  0  0  0  0
   -4.0433   -3.7186   -0.4486 H   0  0  0  0  0  0  0  0  0  0  0  0
   -2.7532   -2.5046    0.7444 C   0  0  0  0  0  0  0  0  0  0  0  0
   -1.9803   -2.8096    1.6434 O   0  0  0  0  0  0  0  0  0  0  0  0
   -2.5332   -1.4966   -0.0966 N   0  0  0  0  0  0  0  0  0  0  0  0
   -3.2312   -1.2816   -0.7936 H   0  0  0  0  0  0  0  0  0  0  0  0
   -1.3593   -0.6196   -0.0536 C   0  0  1  0  0  0  0  0  0  0  0  0
   -0.6730   -0.9155   -0.8480 H   0  0  0  0  0  0  0  0  0  0  0  0
   -1.7941    0.8316   -0.3115 C   0  0  0  0  0  0  0  0  0  0  0  0
   -0.9095    1.4709   -0.3014 H   0  0  0  0  0  0  0  0  0  0  0  0
   -2.2327    0.8907   -1.3091 H   0  0  0  0  0  0  0  0  0  0  0  0
   -2.7779    1.3863    0.6736 C   0  0  0  0  0  0  0  0  0  0  0  0
   -2.4652    2.0036    1.8350 C   0  0  0  0  0  0  0  0  0  0  0  0
   -1.4557    2.1540    2.2017 H   0  0  0  0  0  0  0  0  0  0  0  0
   -3.6211    2.4252    2.4625 N   0  0  0  0  0  0  0  0  0  0  0  0
   -3.6292    2.9079    3.3491 H   0  0  0  0  0  0  0  0  0  0  0  0
   -4.7425    2.1133    1.7236 C   0  0  0  0  0  0  0  0  0  0  0  0
   -6.1116    2.3483    1.9146 C   0  0  0  0  0  0  0  0  0  0  0  0
   -6.4601    2.8694    2.7942 H   0  0  0  0  0  0  0  0  0  0  0  0
   -7.0238    1.8949    0.9464 C   0  0  0  0  0  0  0  0  0  0  0  0
   -8.0838    2.0662    1.0773 H   0  0  0  0  0  0  0  0  0  0  0  0
   -6.5567    1.2113   -0.1910 C   0  0  0  0  0  0  0  0  0  0  0  0
   -7.2626    0.8569   -0.9293 H   0  0  0  0  0  0  0  0  0  0  0  0
   -5.1784    0.9789   -0.3717 C   0  0  0  0  0  0  0  0  0  0  0  0
   -4.8341    0.4408   -1.2434 H   0  0  0  0  0  0  0  0  0  0  0  0
   -4.2362    1.4271    0.5793 C   0  0  0  0  0  0  0  0  0  0  0  0
   -0.6098   -0.7601    1.2804 C   0  0  0  0  0  0  0  0  0  0  0  0
    0.4052   -0.0982    1.4933 O   0  0  0  0  0  0  0  0  0  0  0  0
   -1.1086   -1.6225    2.1763 N   0  0  0  0  0  0  0  0  0  0  0  0
   -1.9141   -2.1672    1.9031 H   0  0  0  0  0  0  0  0  0  0  0  0
   -0.5221   -1.8738    3.4898 C   0  0  0  0  0  0  0  0  0  0  0  0
   -0.3701   -0.9274    4.0122 H   0  0  0  0  0  0  0  0  0  0  0  0
   -1.1822   -2.5103    4.0803 H   0  0  0  0  0  0  0  0  0  0  0  0
    0.4441   -2.3669    3.3706 H   0  0  0  0  0  0  0  0  0  0  0  0
  5  6  2  0  0  0  0
  5  7  1  0  0  0  0
  2  3  1  0  0  0  0
  2  4  1  0  0  0  0
  2  5  1  0  0  0  0
  1  2  1  0  0  0  0
 29 30  2  0  0  0  0
 29 31  1  0  0  0  0
 26 27  1  0  0  0  0
 26 28  2  0  0  0  0
 24 25  1  0  0  0  0
 24 26  1  0  0  0  0
 22 23  1  0  0  0  0
 22 24  2  0  0  0  0
 20 21  1  0  0  0  0
 20 22  1  0  0  0  0
 19 20  2  0  0  0  0
 19 28  1  0  0  0  0
 17 18  1  0  0  0  0
 17 19  1  0  0  0  0
 15 16  1  0  0  0  0
 15 17  1  0  0  0  0
 14 15  2  0  0  0  0
 14 28  1  0  0  0  0
 11 12  1  0  0  0  0
 11 13  1  0  0  0  0
 11 14  1  0  0  0  0
  9 10  1  0  0  0  0
  9 11  1  0  0  0  0
  9 29  1  0  0  0  0
  7  8  1  0  0  0  0
  7  9  1  0  0  0  0
 33 34  1  0  0  0  0
 33 35  1  0  0  0  0
 33 36  1  0  0  0  0
 31 32  1  0  0  0  0
 31 33  1  0  0  0  0
M  END
$$$$
default_name
  -OEChem-12212115393D

 36 37  0     1  0  0  0  0  0999 V2000
   -4.0843   -4.0736    1.2944 H   0  0  0  0  0  0  0  0  0  0  0  0
   -4.0342   -3.2816    0.5484 C   0  0  0  0  0  0  0  0  0  0  0  0
   -4.8842   -2.6126    0.6694 H   0  0  0  0  0  0  0  0  0  0  0  0
   -4.0433   -3.7186   -0.4486 H   0  0  0  0  0  0  0  0  0  0  0  0
   -2.7532   -2.5046    0.7444 C   0  0  0  0  0  0  0  0  0  0  0  0
   -1.9803   -2.8096    1.6434 O   0  0  0  0  0  0  0  0  0  0  0  0
   -2.5332   -1.4966   -0.0966 N   0  0  0  0  0  0  0  0  0  0  0  0
   -3.2312   -1.2816   -0.7936 H   0  0  0  0  0  0  0  0  0  0  0  0
   -1.3593   -0.6196   -0.0536 C   0  0  1  0  0  0  0  0  0  0  0  0
   -0.6730   -0.9155   -0.8480 H   0  0  0  0  0  0  0  0  0  0  0  0
   -1.7941    0.8316   -0.3115 C   0  0  0  0  0  0  0  0  0  0  0  0
   -0.9095    1.4709   -0.3014 H   0  0  0  0  0  0  0  0  0  0  0  0
   -2.2327    0.8907   -1.3091 H   0  0  0  0  0  0  0  0  0  0  0  0
   -2.7779    1.3863    0.6736 C   0  0  0  0  0  0  0  0  0  0  0  0
   -2.4652    2.0036    1.8350 C   0  0  0  0  0  0  0  0  0  0  0  0
   -1.4557    2.1540    2.2017 H   0  0  0  0  0  0  0  0  0  0  0  0
   -3.6211    2.4252    2.4625 N   0  0  0  0  0  0  0  0  0  0  0  0
   -3.6292    2.9079    3.3491 H   0  0  0  0  0  0  0  0  0  0  0  0
   -4.7425    2.1133    1.7236 C   0  0  0  0  0  0  0  0  0  0  0  0
   -6.1116    2.3483    1.9146 C   0  0  0  0  0  0  0  0  0  0  0  0
   -6.4601    2.8694    2.7942 H   0  0  0  0  0  0  0  0  0  0  0  0
   -7.0238    1.8949    0.9464 C   0  0  0  0  0  0  0  0  0  0  0  0
   -8.0838    2.0662    1.0773 H   0  0  0  0  0  0  0  0  0  0  0  0
   -6.5567    1.2113   -0.1910 C   0  0  0  0  0  0  0  0  0  0  0  0
   -7.2626    0.8569   -0.9293 H   0  0  0  0  0  0  0  0  0  0  0  0
   -5.1784    0.9789   -0.3717 C   0  0  0  0  0  0  0  0  0  0  0  0
   -4.8341    0.4408   -1.2434 H   0  0  0  0  0  0  0  0  0  0  0  0
   -4.2362    1.4271    0.5793 C   0  0  0  0  0  0  0  0  0  0  0  0
   -0.6098   -0.7601    1.2804 C   0  0  0  0  0  0  0  0  0  0  0  0
    0.2271    0.0786    1.6119 O   0  0  0  0  0  0  0  0  0  0  0  0
   -0.9088   -1.8202    2.0432 N   0  0  0  0  0  0  0  0  0  0  0  0
   -1.5676   -2.4911    1.6743 H   0  0  0  0  0  0  0  0  0  0  0  0
   -0.2928   -2.1014    3.3370 C   0  0  0  0  0  0  0  0  0  0  0  0
   -0.3636   -1.2204    3.9777 H   0  0  0  0  0  0  0  0  0  0  0  0
   -0.7972   -2.9399    3.8188 H   0  0  0  0  0  0  0  0  0  0  0  0
    0.7610   -2.3468    3.1947 H   0  0  0  0  0  0  0  0  0  0  0  0
  5  6  2  0  0  0  0
  5  7  1  0  0  0  0
  2  3  1  0  0  0  0
  2  4  1  0  0  0  0
  2  5  1  0  0  0  0
  1  2  1  0  0  0  0
 29 30  2  0  0  0  0
 29 31  1  0  0  0  0
 26 27  1  0  0  0  0
 26 28  2  0  0  0  0
 24 25  1  0  0  0  0
 24 26  1  0  0  0  0
 22 23  1  0  0  0  0
 22 24  2  0  0  0  0
 20 21  1  0  0  0  0
 20 22  1  0  0  0  0
 19 20  2  0  0  0  0
 19 28  1  0  0  0  0
 17 18  1  0  0  0  0
 17 19  1  0  0  0  0
 15 16  1  0  0  0  0
 15 17  1  0  0  0  0
 14 15  2  0  0  0  0
 14 28  1  0  0  0  0
 11 12  1  0  0  0  0
 11 13  1  0  0  0  0
 11 14  1  0  0  0  0
  9 10  1  0  0  0  0
  9 11  1  0  0  0  0
  9 29  1  0  0  0  0
  7  8  1  0  0  0  0
  7  9  1  0  0  0  0
 33 34  1  0  0  0  0
 33 35  1  0  0  0  0
 33 36  1  0  0  0  0
 31 32  1  0  0  0  0
 31 33  1  0  0  0  0
M  END
$$$$
default_name
  -OEChem-12212115393D

 36 37  0     1  0  0  0  0  0999 V2000
   -4.0843   -4.0736    1.2944 H   0  0  0  0  0  0  0  0  0  0  0  0
   -4.0342   -3.2816    0.5484 C   0  0  0  0  0  0  0  0  0  0  0  0
   -4.8842   -2.6126    0.6694 H   0  0  0  0  0  0  0  0  0  0  0  0
   -4.0433   -3.7186   -0.4486 H   0  0  0  0  0  0  0  0  0  0  0  0
   -2.7532   -2.5046    0.7444 C   0  0  0  0  0  0  0  0  0  0  0  0
   -1.9803   -2.8096    1.6434 O   0  0  0  0  0  0  0  0  0  0  0  0
   -2.5332   -1.4966   -0.0966 N   0  0  0  0  0  0  0  0  0  0  0  0
   -3.2312   -1.2816   -0.7936 H   0  0  0  0  0  0  0  0  0  0  0  0
   -1.3593   -0.6196   -0.0536 C   0  0  1  0  0  0  0  0  0  0  0  0
   -0.6730   -0.9155   -0.8480 H   0  0  0  0  0  0  0  0  0  0  0  0
   -1.7941    0.8316   -0.3115 C   0  0  0  0  0  0  0  0  0  0  0  0
   -0.9095    1.4709   -0.3014 H   0  0  0  0  0  0  0  0  0  0  0  0
   -2.2327    0.8907   -1.3091 H   0  0  0  0  0  0  0  0  0  0  0  0
   -2.7779    1.3863    0.6736 C   0  0  0  0  0  0  0  0  0  0  0  0
   -2.4652    2.0036    1.8350 C   0  0  0  0  0  0  0  0  0  0  0  0
   -1.4557    2.1540    2.2017 H   0  0  0  0  0  0  0  0  0  0  0  0
   -3.6211    2.4252    2.4625 N   0  0  0  0  0  0  0  0  0  0  0  0
   -3.6292    2.9079    3.3491 H   0  0  0  0  0  0  0  0  0  0  0  0
   -4.7425    2.1133    1.7236 C   0  0  0  0  0  0  0  0  0  0  0  0
   -6.1116    2.3483    1.9146 C   0  0  0  0  0  0  0  0  0  0  0  0
   -6.4601    2.8694    2.7942 H   0  0  0  0  0  0  0  0  0  0  0  0
   -7.0238    1.8949    0.9464 C   0  0  0  0  0  0  0  0  0  0  0  0
   -8.0838    2.0662    1.0773 H   0  0  0  0  0  0  0  0  0  0  0  0
   -6.5567    1.2113   -0.1910 C   0  0  0  0  0  0  0  0  0  0  0  0
   -7.2626    0.8569   -0.9293 H   0  0  0  0  0  0  0  0  0  0  0  0
   -5.1784    0.9789   -0.3717 C   0  0  0  0  0  0  0  0  0  0  0  0
   -4.8341    0.4408   -1.2434 H   0  0  0  0  0  0  0  0  0  0  0  0
   -4.2362    1.4271    0.5793 C   0  0  0  0  0  0  0  0  0  0  0  0
   -0.6098   -0.7601    1.2804 C   0  0  0  0  0  0  0  0  0  0  0  0
    0.0126    0.1943    1.7446 O   0  0  0  0  0  0  0  0  0  0  0  0
   -0.6682   -1.9494    1.8945 N   0  0  0  0  0  0  0  0  0  0  0  0
   -1.1548   -2.6971    1.4207 H   0  0  0  0  0  0  0  0  0  0  0  0
   -0.0165   -2.2505    3.1661 C   0  0  0  0  0  0  0  0  0  0  0  0
   -0.2908   -1.4977    3.9076 H   0  0  0  0  0  0  0  0  0  0  0  0
   -0.3226   -3.2354    3.5211 H   0  0  0  0  0  0  0  0  0  0  0  0
    1.0667   -2.2341    3.0348 H   0  0  0  0  0  0  0  0  0  0  0  0
  5  6  2  0  0  0  0
  5  7  1  0  0  0  0
  2  3  1  0  0  0  0
  2  4  1  0  0  0  0
  2  5  1  0  0  0  0
  1  2  1  0  0  0  0
 29 30  2  0  0  0  0
 29 31  1  0  0  0  0
 26 27  1  0  0  0  0
 26 28  2  0  0  0  0
 24 25  1  0  0  0  0
 24 26  1  0  0  0  0
 22 23  1  0  0  0  0
 22 24  2  0  0  0  0
 20 21  1  0  0  0  0
 20 22  1  0  0  0  0
 19 20  2  0  0  0  0
 19 28  1  0  0  0  0
 17 18  1  0  0  0  0
 17 19  1  0  0  0  0
 15 16  1  0  0  0  0
 15 17  1  0  0  0  0
 14 15  2  0  0  0  0
 14 28  1  0  0  0  0
 11 12  1  0  0  0  0
 11 13  1  0  0  0  0
 11 14  1  0  0  0  0
  9 10  1  0  0  0  0
  9 11  1  0  0  0  0
  9 29  1  0  0  0  0
  7  8  1  0  0  0  0
  7  9  1  0  0  0  0
 33 34  1  0  0  0  0
 33 35  1  0  0  0  0
 33 36  1  0  0  0  0
 31 32  1  0  0  0  0
 31 33  1  0  0  0  0
M  END
$$$$
default_name
  -OEChem-12212115393D

 36 37  0     1  0  0  0  0  0999 V2000
   -4.0843   -4.0736    1.2944 H   0  0  0  0  0  0  0  0  0  0  0  0
   -4.0342   -3.2816    0.5484 C   0  0  0  0  0  0  0  0  0  0  0  0
   -4.8842   -2.6126    0.6694 H   0  0  0  0  0  0  0  0  0  0  0  0
   -4.0433   -3.7186   -0.4486 H   0  0  0  0  0  0  0  0  0  0  0  0
   -2.7532   -2.5046    0.7444 C   0  0  0  0  0  0  0  0  0  0  0  0
   -1.9803   -2.8096    1.6434 O   0  0  0  0  0  0  0  0  0  0  0  0
   -2.5332   -1.4966   -0.0966 N   0  0  0  0  0  0  0  0  0  0  0  0
   -3.2312   -1.2816   -0.7936 H   0  0  0  0  0  0  0  0  0  0  0  0
   -1.3593   -0.6196   -0.0536 C   0  0  1  0  0  0  0  0  0  0  0  0
   -0.6730   -0.9155   -0.8480 H   0  0  0  0  0  0  0  0  0  0  0  0
   -1.7941    0.8316   -0.3115 C   0  0  0  0  0  0  0  0  0  0  0  0
   -0.9095    1.4709   -0.3014 H   0  0  0  0  0  0  0  0  0  0  0  0
   -2.2327    0.8907   -1.3091 H   0  0  0  0  0  0  0  0  0  0  0  0
   -2.7779    1.3863    0.6736 C   0  0  0  0  0  0  0  0  0  0  0  0
   -2.4652    2.0036    1.8350 C   0  0  0  0  0  0  0  0  0  0  0  0
   -1.4557    2.1540    2.2017 H   0  0  0  0  0  0  0  0  0  0  0  0
   -3.6211    2.4252    2.4625 N   0  0  0  0  0  0  0  0  0  0  0  0
   -3.6292    2.9079    3.3491 H   0  0  0  0  0  0  0  0  0  0  0  0
   -4.7425    2.1133    1.7236 C   0  0  0  0  0  0  0  0  0  0  0  0
   -6.1116    2.3483    1.9146 C   0  0  0  0  0  0  0  0  0  0  0  0
   -6.4601    2.8694    2.7942 H   0  0  0  0  0  0  0  0  0  0  0  0
   -7.0238    1.8949    0.9464 C   0  0  0  0  0  0  0  0  0  0  0  0
   -8.0838    2.0662    1.0773 H   0  0  0  0  0  0  0  0  0  0  0  0
   -6.5567    1.2113   -0.1910 C   0  0  0  0  0  0  0  0  0  0  0  0
   -7.2626    0.8569   -0.9293 H   0  0  0  0  0  0  0  0  0  0  0  0
   -5.1784    0.9789   -0.3717 C   0  0  0  0  0  0  0  0  0  0  0  0
   -4.8341    0.4408   -1.2434 H   0  0  0  0  0  0  0  0  0  0  0  0
   -4.2362    1.4271    0.5793 C   0  0  0  0  0  0  0  0  0  0  0  0
   -0.6098   -0.7601    1.2804 C   0  0  0  0  0  0  0  0  0  0  0  0
   -0.2238    0.2411    1.8823 O   0  0  0  0  0  0  0  0  0  0  0  0
   -0.4033   -2.0015    1.7402 N   0  0  0  0  0  0  0  0  0  0  0  0
   -0.7037   -2.7714    1.1595 H   0  0  0  0  0  0  0  0  0  0  0  0
    0.2879   -2.3108    2.9888 C   0  0  0  0  0  0  0  0  0  0  0  0
   -0.1564   -1.7403    3.8066 H   0  0  0  0  0  0  0  0  0  0  0  0
    0.2093   -3.3765    3.2075 H   0  0  0  0  0  0  0  0  0  0  0  0
    1.3404   -2.0363    2.9019 H   0  0  0  0  0  0  0  0  0  0  0  0
  5  6  2  0  0  0  0
  5  7  1  0  0  0  0
  2  3  1  0  0  0  0
  2  4  1  0  0  0  0
  2  5  1  0  0  0  0
  1  2  1  0  0  0  0
 29 30  2  0  0  0  0
 29 31  1  0  0  0  0
 26 27  1  0  0  0  0
 26 28  2  0  0  0  0
 24 25  1  0  0  0  0
 24 26  1  0  0  0  0
 22 23  1  0  0  0  0
 22 24  2  0  0  0  0
 20 21  1  0  0  0  0
 20 22  1  0  0  0  0
 19 20  2  0  0  0  0
 19 28  1  0  0  0  0
 17 18  1  0  0  0  0
 17 19  1  0  0  0  0
 15 16  1  0  0  0  0
 15 17  1  0  0  0  0
 14 15  2  0  0  0  0
 14 28  1  0  0  0  0
 11 12  1  0  0  0  0
 11 13  1  0  0  0  0
 11 14  1  0  0  0  0
  9 10  1  0  0  0  0
  9 11  1  0  0  0  0
  9 29  1  0  0  0  0
  7  8  1  0  0  0  0
  7  9  1  0  0  0  0
 33 34  1  0  0  0  0
 33 35  1  0  0  0  0
 33 36  1  0  0  0  0
 31 32  1  0  0  0  0
 31 33  1  0  0  0  0
M  END
$$$$
default_name
  -OEChem-12212115393D

 36 37  0     1  0  0  0  0  0999 V2000
   -4.0843   -4.0736    1.2944 H   0  0  0  0  0  0  0  0  0  0  0  0
   -4.0342   -3.2816    0.5484 C   0  0  0  0  0  0  0  0  0  0  0  0
   -4.8842   -2.6126    0.6694 H   0  0  0  0  0  0  0  0  0  0  0  0
   -4.0433   -3.7186   -0.4486 H   0  0  0  0  0  0  0  0  0  0  0  0
   -2.7532   -2.5046    0.7444 C   0  0  0  0  0  0  0  0  0  0  0  0
   -1.9803   -2.8096    1.6434 O   0  0  0  0  0  0  0  0  0  0  0  0
   -2.5332   -1.4966   -0.0966 N   0  0  0  0  0  0  0  0  0  0  0  0
   -3.2312   -1.2816   -0.7936 H   0  0  0  0  0  0  0  0  0  0  0  0
   -1.3593   -0.6196   -0.0536 C   0  0  1  0  0  0  0  0  0  0  0  0
   -0.6730   -0.9155   -0.8480 H   0  0  0  0  0  0  0  0  0  0  0  0
   -1.7941    0.8316   -0.3115 C   0  0  0  0  0  0  0  0  0  0  0  0
   -0.9095    1.4709   -0.3014 H   0  0  0  0  0  0  0  0  0  0  0  0
   -2.2327    0.8907   -1.3091 H   0  0  0  0  0  0  0  0  0  0  0  0
   -2.7779    1.3863    0.6736 C   0  0  0  0  0  0  0  0  0  0  0  0
   -2.4652    2.0036    1.8350 C   0  0  0  0  0  0  0  0  0  0  0  0
   -1.4557    2.1540    2.2017 H   0  0  0  0  0  0  0  0  0  0  0  0
   -3.6211    2.4252    2.4625 N   0  0  0  0  0  0  0  0  0  0  0  0
   -3.6292    2.9079    3.3491 H   0  0  0  0  0  0  0  0  0  0  0  0
   -4.7425    2.1133    1.7236 C   0  0  0  0  0  0  0  0  0  0  0  0
   -6.1116    2.3483    1.9146 C   0  0  0  0  0  0  0  0  0  0  0  0
   -6.4601    2.8694    2.7942 H   0  0  0  0  0  0  0  0  0  0  0  0
   -7.0238    1.8949    0.9464 C   0  0  0  0  0  0  0  0  0  0  0  0
   -8.0838    2.0662    1.0773 H   0  0  0  0  0  0  0  0  0  0  0  0
   -6.5567    1.2113   -0.1910 C   0  0  0  0  0  0  0  0  0  0  0  0
   -7.2626    0.8569   -0.9293 H   0  0  0  0  0  0  0  0  0  0  0  0
   -5.1784    0.9789   -0.3717 C   0  0  0  0  0  0  0  0  0  0  0  0
   -4.8341    0.4408   -1.2434 H   0  0  0  0  0  0  0  0  0  0  0  0
   -4.2362    1.4271    0.5793 C   0  0  0  0  0  0  0  0  0  0  0  0
   -0.6098   -0.7601    1.2804 C   0  0  0  0  0  0  0  0  0  0  0  0
   -0.4658    0.2159    2.0156 O   0  0  0  0  0  0  0  0  0  0  0  0
   -0.1321   -1.9727    1.5909 N   0  0  0  0  0  0  0  0  0  0  0  0
   -0.2452   -2.7088    0.9085 H   0  0  0  0  0  0  0  0  0  0  0  0
    0.5996   -2.2783    2.8171 C   0  0  0  0  0  0  0  0  0  0  0  0
    0.0303   -1.9317    3.6816 H   0  0  0  0  0  0  0  0  0  0  0  0
    0.7621   -3.3538    2.8993 H   0  0  0  0  0  0  0  0  0  0  0  0
    1.5636   -1.7669    2.8049 H   0  0  0  0  0  0  0  0  0  0  0  0
  5  6  2  0  0  0  0
  5  7  1  0  0  0  0
  2  3  1  0  0  0  0
  2  4  1  0  0  0  0
  2  5  1  0  0  0  0
  1  2  1  0  0  0  0
 29 30  2  0  0  0  0
 29 31  1  0  0  0  0
 26 27  1  0  0  0  0
 26 28  2  0  0  0  0
 24 25  1  0  0  0  0
 24 26  1  0  0  0  0
 22 23  1  0  0  0  0
 22 24  2  0  0  0  0
 20 21  1  0  0  0  0
 20 22  1  0  0  0  0
 19 20  2  0  0  0  0
 19 28  1  0  0  0  0
 17 18  1  0  0  0  0
 17 19  1  0  0  0  0
 15 16  1  0  0  0  0
 15 17  1  0  0  0  0
 14 15  2  0  0  0  0
 14 28  1  0  0  0  0
 11 12  1  0  0  0  0
 11 13  1  0  0  0  0
 11 14  1  0  0  0  0
  9 10  1  0  0  0  0
  9 11  1  0  0  0  0
  9 29  1  0  0  0  0
  7  8  1  0  0  0  0
  7  9  1  0  0  0  0
 33 34  1  0  0  0  0
 33 35  1  0  0  0  0
 33 36  1  0  0  0  0
 31 32  1  0  0  0  0
 31 33  1  0  0  0  0
M  END
$$$$
default_name
  -OEChem-12212115393D

 36 37  0     1  0  0  0  0  0999 V2000
   -4.0843   -4.0736    1.2944 H   0  0  0  0  0  0  0  0  0  0  0  0
   -4.0342   -3.2816    0.5484 C   0  0  0  0  0  0  0  0  0  0  0  0
   -4.8842   -2.6126    0.6694 H   0  0  0  0  0  0  0  0  0  0  0  0
   -4.0433   -3.7186   -0.4486 H   0  0  0  0  0  0  0  0  0  0  0  0
   -2.7532   -2.5046    0.7444 C   0  0  0  0  0  0  0  0  0  0  0  0
   -1.9803   -2.8096    1.6434 O   0  0  0  0  0  0  0  0  0  0  0  0
   -2.5332   -1.4966   -0.0966 N   0  0  0  0  0  0  0  0  0  0  0  0
   -3.2312   -1.2816   -0.7936 H   0  0  0  0  0  0  0  0  0  0  0  0
   -1.3593   -0.6196   -0.0536 C   0  0  1  0  0  0  0  0  0  0  0  0
   -0.6730   -0.9155   -0.8480 H   0  0  0  0  0  0  0  0  0  0  0  0
   -1.7941    0.8316   -0.3115 C   0  0  0  0  0  0  0  0  0  0  0  0
   -0.9095    1.4709   -0.3014 H   0  0  0  0  0  0  0  0  0  0  0  0
   -2.2327    0.8907   -1.3091 H   0  0  0  0  0  0  0  0  0  0  0  0
   -2.7779    1.3863    0.6736 C   0  0  0  0  0  0  0  0  0  0  0  0
   -2.4652    2.0036    1.8350 C   0  0  0  0  0  0  0  0  0  0  0  0
   -1.4557    2.1540    2.2017 H   0  0  0  0  0  0  0  0  0  0  0  0
   -3.6211    2.4252    2.4625 N   0  0  0  0  0  0  0  0  0  0  0  0
   -3.6292    2.9079    3.3491 H   0  0  0  0  0  0  0  0  0  0  0  0
   -4.7425    2.1133    1.7236 C   0  0  0  0  0  0  0  0  0  0  0  0
   -6.1116    2.3483    1.9146 C   0  0  0  0  0  0  0  0  0  0  0  0
   -6.4601    2.8694    2.7942 H   0  0  0  0  0  0  0  0  0  0  0  0
   -7.0238    1.8949    0.9464 C   0  0  0  0  0  0  0  0  0  0  0  0
   -8.0838    2.0662    1.0773 H   0  0  0  0  0  0  0  0  0  0  0  0
   -6.5567    1.2113   -0.1910 C   0  0  0  0  0  0  0  0  0  0  0  0
   -7.2626    0.8569   -0.9293 H   0  0  0  0  0  0  0  0  0  0  0  0
   -5.1784    0.9789   -0.3717 C   0  0  0  0  0  0  0  0  0  0  0  0
   -4.8341    0.4408   -1.2434 H   0  0  0  0  0  0  0  0  0  0  0  0
   -4.2362    1.4271    0.5793 C   0  0  0  0  0  0  0  0  0  0  0  0
   -0.6098   -0.7601    1.2804 C   0  0  0  0  0  0  0  0  0  0  0  0
   -0.6971    0.1202    2.1355 O   0  0  0  0  0  0  0  0  0  0  0  0
    0.1270   -1.8651    1.4567 N   0  0  0  0  0  0  0  0  0  0  0  0
    0.1897   -2.5136    0.6848 H   0  0  0  0  0  0  0  0  0  0  0  0
    0.8975   -2.1552    2.6627 C   0  0  0  0  0  0  0  0  0  0  0  0
    0.2565   -2.0588    3.5411 H   0  0  0  0  0  0  0  0  0  0  0  0
    1.2983   -3.1686    2.6176 H   0  0  0  0  0  0  0  0  0  0  0  0
    1.7208   -1.4444    2.7505 H   0  0  0  0  0  0  0  0  0  0  0  0
  5  6  2  0  0  0  0
  5  7  1  0  0  0  0
  2  3  1  0  0  0  0
  2  4  1  0  0  0  0
  2  5  1  0  0  0  0
  1  2  1  0  0  0  0
 29 30  2  0  0  0  0
 29 31  1  0  0  0  0
 26 27  1  0  0  0  0
 26 28  2  0  0  0  0
 24 25  1  0  0  0  0
 24 26  1  0  0  0  0
 22 23  1  0  0  0  0
 22 24  2  0  0  0  0
 20 21  1  0  0  0  0
 20 22  1  0  0  0  0
 19 20  2  0  0  0  0
 19 28  1  0  0  0  0
 17 18  1  0  0  0  0
 17 19  1  0  0  0  0
 15 16  1  0  0  0  0
 15 17  1  0  0  0  0
 14 15  2  0  0  0  0
 14 28  1  0  0  0  0
 11 12  1  0  0  0  0
 11 13  1  0  0  0  0
 11 14  1  0  0  0  0
  9 10  1  0  0  0  0
  9 11  1  0  0  0  0
  9 29  1  0  0  0  0
  7  8  1  0  0  0  0
  7  9  1  0  0  0  0
 33 34  1  0  0  0  0
 33 35  1  0  0  0  0
 33 36  1  0  0  0  0
 31 32  1  0  0  0  0
 31 33  1  0  0  0  0
M  END
$$$$
default_name
  -OEChem-12212115393D

 36 37  0     1  0  0  0  0  0999 V2000
   -4.0843   -4.0736    1.2944 H   0  0  0  0  0  0  0  0  0  0  0  0
   -4.0342   -3.2816    0.5484 C   0  0  0  0  0  0  0  0  0  0  0  0
   -4.8842   -2.6126    0.6694 H   0  0  0  0  0  0  0  0  0  0  0  0
   -4.0433   -3.7186   -0.4486 H   0  0  0  0  0  0  0  0  0  0  0  0
   -2.7532   -2.5046    0.7444 C   0  0  0  0  0  0  0  0  0  0  0  0
   -1.9803   -2.8096    1.6434 O   0  0  0  0  0  0  0  0  0  0  0  0
   -2.5332   -1.4966   -0.0966 N   0  0  0  0  0  0  0  0  0  0  0  0
   -3.2312   -1.2816   -0.7936 H   0  0  0  0  0  0  0  0  0  0  0  0
   -1.3593   -0.6196   -0.0536 C   0  0  1  0  0  0  0  0  0  0  0  0
   -0.6730   -0.9155   -0.8480 H   0  0  0  0  0  0  0  0  0  0  0  0
   -1.7941    0.8316   -0.3115 C   0  0  0  0  0  0  0  0  0  0  0  0
   -0.9095    1.4709   -0.3014 H   0  0  0  0  0  0  0  0  0  0  0  0
   -2.2327    0.8907   -1.3091 H   0  0  0  0  0  0  0  0  0  0  0  0
   -2.7779    1.3863    0.6736 C   0  0  0  0  0  0  0  0  0  0  0  0
   -2.4652    2.0036    1.8350 C   0  0  0  0  0  0  0  0  0  0  0  0
   -1.4557    2.1540    2.2017 H   0  0  0  0  0  0  0  0  0  0  0  0
   -3.6211    2.4252    2.4625 N   0  0  0  0  0  0  0  0  0  0  0  0
   -3.6292    2.9079    3.3491 H   0  0  0  0  0  0  0  0  0  0  0  0
   -4.7425    2.1133    1.7236 C   0  0  0  0  0  0  0  0  0  0  0  0
   -6.1116    2.3483    1.9146 C   0  0  0  0  0  0  0  0  0  0  0  0
   -6.4601    2.8694    2.7942 H   0  0  0  0  0  0  0  0  0  0  0  0
   -7.0238    1.8949    0.9464 C   0  0  0  0  0  0  0  0  0  0  0  0
   -8.0838    2.0662    1.0773 H   0  0  0  0  0  0  0  0  0  0  0  0
   -6.5567    1.2113   -0.1910 C   0  0  0  0  0  0  0  0  0  0  0  0
   -7.2626    0.8569   -0.9293 H   0  0  0  0  0  0  0  0  0  0  0  0
   -5.1784    0.9789   -0.3717 C   0  0  0  0  0  0  0  0  0  0  0  0
   -4.8341    0.4408   -1.2434 H   0  0  0  0  0  0  0  0  0  0  0  0
   -4.2362    1.4271    0.5793 C   0  0  0  0  0  0  0  0  0  0  0  0
   -0.6098   -0.7601    1.2804 C   0  0  0  0  0  0  0  0  0  0  0  0
   -0.9019   -0.0392    2.2337 O   0  0  0  0  0  0  0  0  0  0  0  0
    0.3562   -1.6860    1.3467 N   0  0  0  0  0  0  0  0  0  0  0  0
    0.5711   -2.1991    0.5036 H   0  0  0  0  0  0  0  0  0  0  0  0
    1.1612   -1.9499    2.5362 C   0  0  0  0  0  0  0  0  0  0  0  0
    0.5070   -2.1130    3.3947 H   0  0  0  0  0  0  0  0  0  0  0  0
    1.7813   -2.8338    2.3815 H   0  0  0  0  0  0  0  0  0  0  0  0
    1.8016   -1.0906    2.7424 H   0  0  0  0  0  0  0  0  0  0  0  0
  5  6  2  0  0  0  0
  5  7  1  0  0  0  0
  2  3  1  0  0  0  0
  2  4  1  0  0  0  0
  2  5  1  0  0  0  0
  1  2  1  0  0  0  0
 29 30  2  0  0  0  0
 29 31  1  0  0  0  0
 26 27  1  0  0  0  0
 26 28  2  0  0  0  0
 24 25  1  0  0  0  0
 24 26  1  0  0  0  0
 22 23  1  0  0  0  0
 22 24  2  0  0  0  0
 20 21  1  0  0  0  0
 20 22  1  0  0  0  0
 19 20  2  0  0  0  0
 19 28  1  0  0  0  0
 17 18  1  0  0  0  0
 17 19  1  0  0  0  0
 15 16  1  0  0  0  0
 15 17  1  0  0  0  0
 14 15  2  0  0  0  0
 14 28  1  0  0  0  0
 11 12  1  0  0  0  0
 11 13  1  0  0  0  0
 11 14  1  0  0  0  0
  9 10  1  0  0  0  0
  9 11  1  0  0  0  0
  9 29  1  0  0  0  0
  7  8  1  0  0  0  0
  7  9  1  0  0  0  0
 33 34  1  0  0  0  0
 33 35  1  0  0  0  0
 33 36  1  0  0  0  0
 31 32  1  0  0  0  0
 31 33  1  0  0  0  0
M  END
$$$$
default_name
  -OEChem-12212115393D

 36 37  0     1  0  0  0  0  0999 V2000
   -4.0843   -4.0736    1.2944 H   0  0  0  0  0  0  0  0  0  0  0  0
   -4.0342   -3.2816    0.5484 C   0  0  0  0  0  0  0  0  0  0  0  0
   -4.8842   -2.6126    0.6694 H   0  0  0  0  0  0  0  0  0  0  0  0
   -4.0433   -3.7186   -0.4486 H   0  0  0  0  0  0  0  0  0  0  0  0
   -2.7532   -2.5046    0.7444 C   0  0  0  0  0  0  0  0  0  0  0  0
   -1.9803   -2.8096    1.6434 O   0  0  0  0  0  0  0  0  0  0  0  0
   -2.5332   -1.4966   -0.0966 N   0  0  0  0  0  0  0  0  0  0  0  0
   -3.2312   -1.2816   -0.7936 H   0  0  0  0  0  0  0  0  0  0  0  0
   -1.3593   -0.6196   -0.0536 C   0  0  1  0  0  0  0  0  0  0  0  0
   -0.6730   -0.9155   -0.8480 H   0  0  0  0  0  0  0  0  0  0  0  0
   -1.7941    0.8316   -0.3115 C   0  0  0  0  0  0  0  0  0  0  0  0
   -0.9095    1.4709   -0.3014 H   0  0  0  0  0  0  0  0  0  0  0  0
   -2.2327    0.8907   -1.3091 H   0  0  0  0  0  0  0  0  0  0  0  0
   -2.7779    1.3863    0.6736 C   0  0  0  0  0  0  0  0  0  0  0  0
   -2.4652    2.0036    1.8350 C   0  0  0  0  0  0  0  0  0  0  0  0
   -1.4557    2.1540    2.2017 H   0  0  0  0  0  0  0  0  0  0  0  0
   -3.6211    2.4252    2.4625 N   0  0  0  0  0  0  0  0  0  0  0  0
   -3.6292    2.9079    3.3491 H   0  0  0  0  0  0  0  0  0  0  0  0
   -4.7425    2.1133    1.7236 C   0  0  0  0  0  0  0  0  0  0  0  0
   -6.1116    2.3483    1.9146 C   0  0  0  0  0  0  0  0  0  0  0  0
   -6.4601    2.8694    2.7942 H   0  0  0  0  0  0  0  0  0  0  0  0
   -7.0238    1.8949    0.9464 C   0  0  0  0  0  0  0  0  0  0  0  0
   -8.0838    2.0662    1.0773 H   0  0  0  0  0  0  0  0  0  0  0  0
   -6.5567    1.2113   -0.1910 C   0  0  0  0  0  0  0  0  0  0  0  0
   -7.2626    0.8569   -0.9293 H   0  0  0  0  0  0  0  0  0  0  0  0
   -5.1784    0.9789   -0.3717 C   0  0  0  0  0  0  0  0  0  0  0  0
   -4.8341    0.4408   -1.2434 H   0  0  0  0  0  0  0  0  0  0  0  0
   -4.2362    1.4271    0.5793 C   0  0  0  0  0  0  0  0  0  0  0  0
   -0.6098   -0.7601    1.2804 C   0  0  0  0  0  0  0  0  0  0  0  0
   -1.0662   -0.2517    2.3036 O   0  0  0  0  0  0  0  0  0  0  0  0
    0.5400   -1.4477    1.2686 N   0  0  0  0  0  0  0  0  0  0  0  0
    0.8731   -1.7868    0.3773 H   0  0  0  0  0  0  0  0  0  0  0  0
    1.3728   -1.6763    2.4461 C   0  0  0  0  0  0  0  0  0  0  0  0
    0.7646   -2.0906    3.2524 H   0  0  0  0  0  0  0  0  0  0  0  0
    2.1782   -2.3720    2.2071 H   0  0  0  0  0  0  0  0  0  0  0  0
    1.8003   -0.7298    2.7811 H   0  0  0  0  0  0  0  0  0  0  0  0
  5  6  2  0  0  0  0
  5  7  1  0  0  0  0
  2  3  1  0  0  0  0
  2  4  1  0  0  0  0
  2  5  1  0  0  0  0
  1  2  1  0  0  0  0
 29 30  2  0  0  0  0
 29 31  1  0  0  0  0
 26 27  1  0  0  0  0
 26 28  2  0  0  0  0
 24 25  1  0  0  0  0
 24 26  1  0  0  0  0
 22 23  1  0  0  0  0
 22 24  2  0  0  0  0
 20 21  1  0  0  0  0
 20 22  1  0  0  0  0
 19 20  2  0  0  0  0
 19 28  1  0  0  0  0
 17 18  1  0  0  0  0
 17 19  1  0  0  0  0
 15 16  1  0  0  0  0
 15 17  1  0  0  0  0
 14 15  2  0  0  0  0
 14 28  1  0  0  0  0
 11 12  1  0  0  0  0
 11 13  1  0  0  0  0
 11 14  1  0  0  0  0
  9 10  1  0  0  0  0
  9 11  1  0  0  0  0
  9 29  1  0  0  0  0
  7  8  1  0  0  0  0
  7  9  1  0  0  0  0
 33 34  1  0  0  0  0
 33 35  1  0  0  0  0
 33 36  1  0  0  0  0
 31 32  1  0  0  0  0
 31 33  1  0  0  0  0
M  END
$$$$
default_name
  -OEChem-12212115393D

 36 37  0     1  0  0  0  0  0999 V2000
   -4.0843   -4.0736    1.2944 H   0  0  0  0  0  0  0  0  0  0  0  0
   -4.0342   -3.2816    0.5484 C   0  0  0  0  0  0  0  0  0  0  0  0
   -4.8842   -2.6126    0.6694 H   0  0  0  0  0  0  0  0  0  0  0  0
   -4.0433   -3.7186   -0.4486 H   0  0  0  0  0  0  0  0  0  0  0  0
   -2.7532   -2.5046    0.7444 C   0  0  0  0  0  0  0  0  0  0  0  0
   -1.9803   -2.8096    1.6434 O   0  0  0  0  0  0  0  0  0  0  0  0
   -2.5332   -1.4966   -0.0966 N   0  0  0  0  0  0  0  0  0  0  0  0
   -3.2312   -1.2816   -0.7936 H   0  0  0  0  0  0  0  0  0  0  0  0
   -1.3593   -0.6196   -0.0536 C   0  0  1  0  0  0  0  0  0  0  0  0
   -0.6730   -0.9155   -0.8480 H   0  0  0  0  0  0  0  0  0  0  0  0
   -1.7941    0.8316   -0.3115 C   0  0  0  0  0  0  0  0  0  0  0  0
   -0.9095    1.4709   -0.3014 H   0  0  0  0  0  0  0  0  0  0  0  0
   -2.2327    0.8907   -1.3091 H   0  0  0  0  0  0  0  0  0  0  0  0
   -2.7779    1.3863    0.6736 C   0  0  0  0  0  0  0  0  0  0  0  0
   -2.4652    2.0036    1.8350 C   0  0  0  0  0  0  0  0  0  0  0  0
   -1.4557    2.1540    2.2017 H   0  0  0  0  0  0  0  0  0  0  0  0
   -3.6211    2.4252    2.4625 N   0  0  0  0  0  0  0  0  0  0  0  0
   -3.6292    2.9079    3.3491 H   0  0  0  0  0  0  0  0  0  0  0  0
   -4.7425    2.1133    1.7236 C   0  0  0  0  0  0  0  0  0  0  0  0
   -6.1116    2.3483    1.9146 C   0  0  0  0  0  0  0  0  0  0  0  0
   -6.4601    2.8694    2.7942 H   0  0  0  0  0  0  0  0  0  0  0  0
   -7.0238    1.8949    0.9464 C   0  0  0  0  0  0  0  0  0  0  0  0
   -8.0838    2.0662    1.0773 H   0  0  0  0  0  0  0  0  0  0  0  0
   -6.5567    1.2113   -0.1910 C   0  0  0  0  0  0  0  0  0  0  0  0
   -7.2626    0.8569   -0.9293 H   0  0  0  0  0  0  0  0  0  0  0  0
   -5.1784    0.9789   -0.3717 C   0  0  0  0  0  0  0  0  0  0  0  0
   -4.8341    0.4408   -1.2434 H   0  0  0  0  0  0  0  0  0  0  0  0
   -4.2362    1.4271    0.5793 C   0  0  0  0  0  0  0  0  0  0  0  0
   -0.6098   -0.7601    1.2804 C   0  0  0  0  0  0  0  0  0  0  0  0
   -1.1788   -0.5026    2.3405 O   0  0  0  0  0  0  0  0  0  0  0  0
    0.6658   -1.1663    1.2275 N   0  0  0  0  0  0  0  0  0  0  0  0
    1.0752   -1.3046    0.3146 H   0  0  0  0  0  0  0  0  0  0  0  0
    1.5179   -1.3531    2.3986 C   0  0  0  0  0  0  0  0  0  0  0  0
    1.0117   -1.9932    3.1238 H   0  0  0  0  0  0  0  0  0  0  0  0
    2.4619   -1.8147    2.1064 H   0  0  0  0  0  0  0  0  0  0  0  0
    1.7170   -0.3864    2.8640 H   0  0  0  0  0  0  0  0  0  0  0  0
  5  6  2  0  0  0  0
  5  7  1  0  0  0  0
  2  3  1  0  0  0  0
  2  4  1  0  0  0  0
  2  5  1  0  0  0  0
  1  2  1  0  0  0  0
 29 30  2  0  0  0  0
 29 31  1  0  0  0  0
 26 27  1  0  0  0  0
 26 28  2  0  0  0  0
 24 25  1  0  0  0  0
 24 26  1  0  0  0  0
 22 23  1  0  0  0  0
 22 24  2  0  0  0  0
 20 21  1  0  0  0  0
 20 22  1  0  0  0  0
 19 20  2  0  0  0  0
 19 28  1  0  0  0  0
 17 18  1  0  0  0  0
 17 19  1  0  0  0  0
 15 16  1  0  0  0  0
 15 17  1  0  0  0  0
 14 15  2  0  0  0  0
 14 28  1  0  0  0  0
 11 12  1  0  0  0  0
 11 13  1  0  0  0  0
 11 14  1  0  0  0  0
  9 10  1  0  0  0  0
  9 11  1  0  0  0  0
  9 29  1  0  0  0  0
  7  8  1  0  0  0  0
  7  9  1  0  0  0  0
 33 34  1  0  0  0  0
 33 35  1  0  0  0  0
 33 36  1  0  0  0  0
 31 32  1  0  0  0  0
 31 33  1  0  0  0  0
M  END
$$$$
default_name
  -OEChem-12212115393D

 36 37  0     1  0  0  0  0  0999 V2000
   -4.0843   -4.0736    1.2944 H   0  0  0  0  0  0  0  0  0  0  0  0
   -4.0342   -3.2816    0.5484 C   0  0  0  0  0  0  0  0  0  0  0  0
   -4.8842   -2.6126    0.6694 H   0  0  0  0  0  0  0  0  0  0  0  0
   -4.0433   -3.7186   -0.4486 H   0  0  0  0  0  0  0  0  0  0  0  0
   -2.7532   -2.5046    0.7444 C   0  0  0  0  0  0  0  0  0  0  0  0
   -1.9803   -2.8096    1.6434 O   0  0  0  0  0  0  0  0  0  0  0  0
   -2.5332   -1.4966   -0.0966 N   0  0  0  0  0  0  0  0  0  0  0  0
   -3.2312   -1.2816   -0.7936 H   0  0  0  0  0  0  0  0  0  0  0  0
   -1.3593   -0.6196   -0.0536 C   0  0  1  0  0  0  0  0  0  0  0  0
   -0.6730   -0.9155   -0.8480 H   0  0  0  0  0  0  0  0  0  0  0  0
   -1.7941    0.8316   -0.3115 C   0  0  0  0  0  0  0  0  0  0  0  0
   -0.9095    1.4709   -0.3014 H   0  0  0  0  0  0  0  0  0  0  0  0
   -2.2327    0.8907   -1.3091 H   0  0  0  0  0  0  0  0  0  0  0  0
   -2.7779    1.3863    0.6736 C   0  0  0  0  0  0  0  0  0  0  0  0
   -2.4652    2.0036    1.8350 C   0  0  0  0  0  0  0  0  0  0  0  0
   -1.4557    2.1540    2.2017 H   0  0  0  0  0  0  0  0  0  0  0  0
   -3.6211    2.4252    2.4625 N   0  0  0  0  0  0  0  0  0  0  0  0
   -3.6292    2.9079    3.3491 H   0  0  0  0  0  0  0  0  0  0  0  0
   -4.7425    2.1133    1.7236 C   0  0  0  0  0  0  0  0  0  0  0  0
   -6.1116    2.3483    1.9146 C   0  0  0  0  0  0  0  0  0  0  0  0
   -6.4601    2.8694    2.7942 H   0  0  0  0  0  0  0  0  0  0  0  0
   -7.0238    1.8949    0.9464 C   0  0  0  0  0  0  0  0  0  0  0  0
   -8.0838    2.0662    1.0773 H   0  0  0  0  0  0  0  0  0  0  0  0
   -6.5567    1.2113   -0.1910 C   0  0  0  0  0  0  0  0  0  0  0  0
   -7.2626    0.8569   -0.9293 H   0  0  0  0  0  0  0  0  0  0  0  0
   -5.1784    0.9789   -0.3717 C   0  0  0  0  0  0  0  0  0  0  0  0
   -4.8341    0.4408   -1.2434 H   0  0  0  0  0  0  0  0  0  0  0  0
   -4.2362    1.4271    0.5793 C   0  0  0  0  0  0  0  0  0  0  0  0
   -0.6098   -0.7601    1.2804 C   0  0  0  0  0  0  0  0  0  0  0  0
   -1.2320   -0.7750    2.3417 O   0  0  0  0  0  0  0  0  0  0  0  0
    0.7251   -0.8610    1.2264 N   0  0  0  0  0  0  0  0  0  0  0  0
    1.1636   -0.7856    0.3196 H   0  0  0  0  0  0  0  0  0  0  0  0
    1.5865   -1.0024    2.3970 C   0  0  0  0  0  0  0  0  0  0  0  0
    1.2316   -1.8273    3.0177 H   0  0  0  0  0  0  0  0  0  0  0  0
    2.6131   -1.2000    2.0862 H   0  0  0  0  0  0  0  0  0  0  0  0
    1.5574   -0.0839    2.9855 H   0  0  0  0  0  0  0  0  0  0  0  0
  5  6  2  0  0  0  0
  5  7  1  0  0  0  0
  2  3  1  0  0  0  0
  2  4  1  0  0  0  0
  2  5  1  0  0  0  0
  1  2  1  0  0  0  0
 29 30  2  0  0  0  0
 29 31  1  0  0  0  0
 26 27  1  0  0  0  0
 26 28  2  0  0  0  0
 24 25  1  0  0  0  0
 24 26  1  0  0  0  0
 22 23  1  0  0  0  0
 22 24  2  0  0  0  0
 20 21  1  0  0  0  0
 20 22  1  0  0  0  0
 19 20  2  0  0  0  0
 19 28  1  0  0  0  0
 17 18  1  0  0  0  0
 17 19  1  0  0  0  0
 15 16  1  0  0  0  0
 15 17  1  0  0  0  0
 14 15  2  0  0  0  0
 14 28  1  0  0  0  0
 11 12  1  0  0  0  0
 11 13  1  0  0  0  0
 11 14  1  0  0  0  0
  9 10  1  0  0  0  0
  9 11  1  0  0  0  0
  9 29  1  0  0  0  0
  7  8  1  0  0  0  0
  7  9  1  0  0  0  0
 33 34  1  0  0  0  0
 33 35  1  0  0  0  0
 33 36  1  0  0  0  0
 31 32  1  0  0  0  0
 31 33  1  0  0  0  0
M  END
$$$$
default_name
  -OEChem-12212115393D

 36 37  0     1  0  0  0  0  0999 V2000
   -4.0843   -4.0736    1.2944 H   0  0  0  0  0  0  0  0  0  0  0  0
   -4.0342   -3.2816    0.5484 C   0  0  0  0  0  0  0  0  0  0  0  0
   -4.8842   -2.6126    0.6694 H   0  0  0  0  0  0  0  0  0  0  0  0
   -4.0433   -3.7186   -0.4486 H   0  0  0  0  0  0  0  0  0  0  0  0
   -2.7532   -2.5046    0.7444 C   0  0  0  0  0  0  0  0  0  0  0  0
   -1.9803   -2.8096    1.6434 O   0  0  0  0  0  0  0  0  0  0  0  0
   -2.5332   -1.4966   -0.0966 N   0  0  0  0  0  0  0  0  0  0  0  0
   -3.2312   -1.2816   -0.7936 H   0  0  0  0  0  0  0  0  0  0  0  0
   -1.3593   -0.6196   -0.0536 C   0  0  1  0  0  0  0  0  0  0  0  0
   -0.6730   -0.9155   -0.8480 H   0  0  0  0  0  0  0  0  0  0  0  0
   -1.7941    0.8316   -0.3115 C   0  0  0  0  0  0  0  0  0  0  0  0
   -0.9095    1.4709   -0.3014 H   0  0  0  0  0  0  0  0  0  0  0  0
   -2.2327    0.8907   -1.3091 H   0  0  0  0  0  0  0  0  0  0  0  0
   -2.7779    1.3863    0.6736 C   0  0  0  0  0  0  0  0  0  0  0  0
   -2.4652    2.0036    1.8350 C   0  0  0  0  0  0  0  0  0  0  0  0
   -1.4557    2.1540    2.2017 H   0  0  0  0  0  0  0  0  0  0  0  0
   -3.6211    2.4252    2.4625 N   0  0  0  0  0  0  0  0  0  0  0  0
   -3.6292    2.9079    3.3491 H   0  0  0  0  0  0  0  0  0  0  0  0
   -4.7425    2.1133    1.7236 C   0  0  0  0  0  0  0  0  0  0  0  0
   -6.1116    2.3483    1.9146 C   0  0  0  0  0  0  0  0  0  0  0  0
   -6.4601    2.8694    2.7942 H   0  0  0  0  0  0  0  0  0  0  0  0
   -7.0238    1.8949    0.9464 C   0  0  0  0  0  0  0  0  0  0  0  0
   -8.0838    2.0662    1.0773 H   0  0  0  0  0  0  0  0  0  0  0  0
   -6.5567    1.2113   -0.1910 C   0  0  0  0  0  0  0  0  0  0  0  0
   -7.2626    0.8569   -0.9293 H   0  0  0  0  0  0  0  0  0  0  0  0
   -5.1784    0.9789   -0.3717 C   0  0  0  0  0  0  0  0  0  0  0  0
   -4.8341    0.4408   -1.2434 H   0  0  0  0  0  0  0  0  0  0  0  0
   -4.2362    1.4271    0.5793 C   0  0  0  0  0  0  0  0  0  0  0  0
   -0.6098   -0.7601    1.2804 C   0  0  0  0  0  0  0  0  0  0  0  0
   -1.2223   -1.0502    2.3073 O   0  0  0  0  0  0  0  0  0  0  0  0
    0.7137   -0.5527    1.2652 N   0  0  0  0  0  0  0  0  0  0  0  0
    1.1322   -0.2651    0.3920 H   0  0  0  0  0  0  0  0  0  0  0  0
    1.5739   -0.6480    2.4413 C   0  0  0  0  0  0  0  0  0  0  0  0
    1.4091   -1.6042    2.9415 H   0  0  0  0  0  0  0  0  0  0  0  0
    2.6215   -0.5697    2.1478 H   0  0  0  0  0  0  0  0  0  0  0  0
    1.3324    0.1572    3.1373 H   0  0  0  0  0  0  0  0  0  0  0  0
  5  6  2  0  0  0  0
  5  7  1  0  0  0  0
  2  3  1  0  0  0  0
  2  4  1  0  0  0  0
  2  5  1  0  0  0  0
  1  2  1  0  0  0  0
 29 30  2  0  0  0  0
 29 31  1  0  0  0  0
 26 27  1  0  0  0  0
 26 28  2  0  0  0  0
 24 25  1  0  0  0  0
 24 26  1  0  0  0  0
 22 23  1  0  0  0  0
 22 24  2  0  0  0  0
 20 21  1  0  0  0  0
 20 22  1  0  0  0  0
 19 20  2  0  0  0  0
 19 28  1  0  0  0  0
 17 18  1  0  0  0  0
 17 19  1  0  0  0  0
 15 16  1  0  0  0  0
 15 17  1  0  0  0  0
 14 15  2  0  0  0  0
 14 28  1  0  0  0  0
 11 12  1  0  0  0  0
 11 13  1  0  0  0  0
 11 14  1  0  0  0  0
  9 10  1  0  0  0  0
  9 11  1  0  0  0  0
  9 29  1  0  0  0  0
  7  8  1  0  0  0  0
  7  9  1  0  0  0  0
 33 34  1  0  0  0  0
 33 35  1  0  0  0  0
 33 36  1  0  0  0  0
 31 32  1  0  0  0  0
 31 33  1  0  0  0  0
M  END
$$$$
default_name
  -OEChem-12212115393D

 36 37  0     1  0  0  0  0  0999 V2000
   -4.0843   -4.0736    1.2944 H   0  0  0  0  0  0  0  0  0  0  0  0
   -4.0342   -3.2816    0.5484 C   0  0  0  0  0  0  0  0  0  0  0  0
   -4.8842   -2.6126    0.6694 H   0  0  0  0  0  0  0  0  0  0  0  0
   -4.0433   -3.7186   -0.4486 H   0  0  0  0  0  0  0  0  0  0  0  0
   -2.7532   -2.5046    0.7444 C   0  0  0  0  0  0  0  0  0  0  0  0
   -1.9803   -2.8096    1.6434 O   0  0  0  0  0  0  0  0  0  0  0  0
   -2.5332   -1.4966   -0.0966 N   0  0  0  0  0  0  0  0  0  0  0  0
   -3.2312   -1.2816   -0.7936 H   0  0  0  0  0  0  0  0  0  0  0  0
   -1.3593   -0.6196   -0.0536 C   0  0  1  0  0  0  0  0  0  0  0  0
   -0.6730   -0.9155   -0.8480 H   0  0  0  0  0  0  0  0  0  0  0  0
   -1.7941    0.8316   -0.3115 C   0  0  0  0  0  0  0  0  0  0  0  0
   -0.9095    1.4709   -0.3014 H   0  0  0  0  0  0  0  0  0  0  0  0
   -2.2327    0.8907   -1.3091 H   0  0  0  0  0  0  0  0  0  0  0  0
   -2.7779    1.3863    0.6736 C   0  0  0  0  0  0  0  0  0  0  0  0
   -2.4652    2.0036    1.8350 C   0  0  0  0  0  0  0  0  0  0  0  0
   -1.4557    2.1540    2.2017 H   0  0  0  0  0  0  0  0  0  0  0  0
   -3.6211    2.4252    2.4625 N   0  0  0  0  0  0  0  0  0  0  0  0
   -3.6292    2.9079    3.3491 H   0  0  0  0  0  0  0  0  0  0  0  0
   -4.7425    2.1133    1.7236 C   0  0  0  0  0  0  0  0  0  0  0  0
   -6.1116    2.3483    1.9146 C   0  0  0  0  0  0  0  0  0  0  0  0
   -6.4601    2.8694    2.7942 H   0  0  0  0  0  0  0  0  0  0  0  0
   -7.0238    1.8949    0.9464 C   0  0  0  0  0  0  0  0  0  0  0  0
   -8.0838    2.0662    1.0773 H   0  0  0  0  0  0  0  0  0  0  0  0
   -6.5567    1.2113   -0.1910 C   0  0  0  0  0  0  0  0  0  0  0  0
   -7.2626    0.8569   -0.9293 H   0  0  0  0  0  0  0  0  0  0  0  0
   -5.1784    0.9789   -0.3717 C   0  0  0  0  0  0  0  0  0  0  0  0
   -4.8341    0.4408   -1.2434 H   0  0  0  0  0  0  0  0  0  0  0  0
   -4.2362    1.4271    0.5793 C   0  0  0  0  0  0  0  0  0  0  0  0
   -0.6098   -0.7601    1.2804 C   0  0  0  0  0  0  0  0  0  0  0  0
   -1.1502   -1.3095    2.2395 O   0  0  0  0  0  0  0  0  0  0  0  0
    0.6326   -0.2623    1.3413 N   0  0  0  0  0  0  0  0  0  0  0  0
    0.9831    0.2216    0.5269 H   0  0  0  0  0  0  0  0  0  0  0  0
    1.4812   -0.3140    2.5286 C   0  0  0  0  0  0  0  0  0  0  0  0
    1.5324   -1.3393    2.9001 H   0  0  0  0  0  0  0  0  0  0  0  0
    2.4866    0.0332    2.2871 H   0  0  0  0  0  0  0  0  0  0  0  0
    1.0574    0.3203    3.3090 H   0  0  0  0  0  0  0  0  0  0  0  0
  5  6  2  0  0  0  0
  5  7  1  0  0  0  0
  2  3  1  0  0  0  0
  2  4  1  0  0  0  0
  2  5  1  0  0  0  0
  1  2  1  0  0  0  0
 29 30  2  0  0  0  0
 29 31  1  0  0  0  0
 26 27  1  0  0  0  0
 26 28  2  0  0  0  0
 24 25  1  0  0  0  0
 24 26  1  0  0  0  0
 22 23  1  0  0  0  0
 22 24  2  0  0  0  0
 20 21  1  0  0  0  0
 20 22  1  0  0  0  0
 19 20  2  0  0  0  0
 19 28  1  0  0  0  0
 17 18  1  0  0  0  0
 17 19  1  0  0  0  0
 15 16  1  0  0  0  0
 15 17  1  0  0  0  0
 14 15  2  0  0  0  0
 14 28  1  0  0  0  0
 11 12  1  0  0  0  0
 11 13  1  0  0  0  0
 11 14  1  0  0  0  0
  9 10  1  0  0  0  0
  9 11  1  0  0  0  0
  9 29  1  0  0  0  0
  7  8  1  0  0  0  0
  7  9  1  0  0  0  0
 33 34  1  0  0  0  0
 33 35  1  0  0  0  0
 33 36  1  0  0  0  0
 31 32  1  0  0  0  0
 31 33  1  0  0  0  0
M  END
$$$$
default_name
  -OEChem-12212115393D

 36 37  0     1  0  0  0  0  0999 V2000
   -4.0843   -4.0736    1.2944 H   0  0  0  0  0  0  0  0  0  0  0  0
   -4.0342   -3.2816    0.5484 C   0  0  0  0  0  0  0  0  0  0  0  0
   -4.8842   -2.6126    0.6694 H   0  0  0  0  0  0  0  0  0  0  0  0
   -4.0433   -3.7186   -0.4486 H   0  0  0  0  0  0  0  0  0  0  0  0
   -2.7532   -2.5046    0.7444 C   0  0  0  0  0  0  0  0  0  0  0  0
   -1.9803   -2.8096    1.6434 O   0  0  0  0  0  0  0  0  0  0  0  0
   -2.5332   -1.4966   -0.0966 N   0  0  0  0  0  0  0  0  0  0  0  0
   -3.2312   -1.2816   -0.7936 H   0  0  0  0  0  0  0  0  0  0  0  0
   -1.3593   -0.6196   -0.0536 C   0  0  1  0  0  0  0  0  0  0  0  0
   -0.8076   -0.7284   -0.9882 H   0  0  0  0  0  0  0  0  0  0  0  0
   -1.8162    0.8428    0.0659 C   0  0  0  0  0  0  0  0  0  0  0  0
   -0.9353    1.4871    0.0723 H   0  0  0  0  0  0  0  0  0  0  0  0
   -2.4042    1.0962   -0.8178 H   0  0  0  0  0  0  0  0  0  0  0  0
   -2.6299    1.1582    1.2843 C   0  0  0  0  0  0  0  0  0  0  0  0
   -2.1349    1.5294    2.4863 C   0  0  0  0  0  0  0  0  0  0  0  0
   -1.0794    1.6249    2.7163 H   0  0  0  0  0  0  0  0  0  0  0  0
   -3.1753    1.7845    3.3581 N   0  0  0  0  0  0  0  0  0  0  0  0
   -3.0411    2.0733    4.3161 H   0  0  0  0  0  0  0  0  0  0  0  0
   -4.4007    1.6053    2.7523 C   0  0  0  0  0  0  0  0  0  0  0  0
   -5.7213    1.7630    3.1965 C   0  0  0  0  0  0  0  0  0  0  0  0
   -5.9241    2.0825    4.2081 H   0  0  0  0  0  0  0  0  0  0  0  0
   -6.7770    1.4977    2.3076 C   0  0  0  0  0  0  0  0  0  0  0  0
   -7.8021    1.6129    2.6329 H   0  0  0  0  0  0  0  0  0  0  0  0
   -6.4985    1.0754    0.9948 C   0  0  0  0  0  0  0  0  0  0  0  0
   -7.3139    0.8644    0.3167 H   0  0  0  0  0  0  0  0  0  0  0  0
   -5.1673    0.9183    0.5597 C   0  0  0  0  0  0  0  0  0  0  0  0
   -4.9675    0.5804   -0.4472 H   0  0  0  0  0  0  0  0  0  0  0  0
   -4.0847    1.1827    1.4264 C   0  0  0  0  0  0  0  0  0  0  0  0
   -0.4126   -1.0148    1.0904 C   0  0  0  0  0  0  0  0  0  0  0  0
   -0.6910   -1.9610    1.8258 O   0  0  0  0  0  0  0  0  0  0  0  0
    0.7039   -0.2896    1.2408 N   0  0  0  0  0  0  0  0  0  0  0  0
    0.8318    0.5045    0.6298 H   0  0  0  0  0  0  0  0  0  0  0  0
    1.7082   -0.5318    2.2728 C   0  0  0  0  0  0  0  0  0  0  0  0
    2.0121   -1.5801    2.2519 H   0  0  0  0  0  0  0  0  0  0  0  0
    2.5806    0.1007    2.1037 H   0  0  0  0  0  0  0  0  0  0  0  0
    1.2853   -0.3095    3.2540 H   0  0  0  0  0  0  0  0  0  0  0  0
  5  6  2  0  0  0  0
  5  7  1  0  0  0  0
  2  3  1  0  0  0  0
  2  4  1  0  0  0  0
  2  5  1  0  0  0  0
  1  2  1  0  0  0  0
 29 30  2  0  0  0  0
 29 31  1  0  0  0  0
 26 27  1  0  0  0  0
 26 28  2  0  0  0  0
 24 25  1  0  0  0  0
 24 26  1  0  0  0  0
 22 23  1  0  0  0  0
 22 24  2  0  0  0  0
 20 21  1  0  0  0  0
 20 22  1  0  0  0  0
 19 20  2  0  0  0  0
 19 28  1  0  0  0  0
 17 18  1  0  0  0  0
 17 19  1  0  0  0  0
 15 16  1  0  0  0  0
 15 17  1  0  0  0  0
 14 15  2  0  0  0  0
 14 28  1  0  0  0  0
 11 12  1  0  0  0  0
 11 13  1  0  0  0  0
 11 14  1  0  0  0  0
  9 10  1  0  0  0  0
  9 11  1  0  0  0  0
  9 29  1  0  0  0  0
  7  8  1  0  0  0  0
  7  9  1  0  0  0  0
 33 34  1  0  0  0  0
 33 35  1  0  0  0  0
 33 36  1  0  0  0  0
 31 32  1  0  0  0  0
 31 33  1  0  0  0  0
M  END
$$$$
default_name
  -OEChem-12212115393D

 36 37  0     1  0  0  0  0  0999 V2000
   -4.0843   -4.0736    1.2944 H   0  0  0  0  0  0  0  0  0  0  0  0
   -4.0342   -3.2816    0.5484 C   0  0  0  0  0  0  0  0  0  0  0  0
   -4.8842   -2.6126    0.6694 H   0  0  0  0  0  0  0  0  0  0  0  0
   -4.0433   -3.7186   -0.4486 H   0  0  0  0  0  0  0  0  0  0  0  0
   -2.7532   -2.5046    0.7444 C   0  0  0  0  0  0  0  0  0  0  0  0
   -1.9803   -2.8096    1.6434 O   0  0  0  0  0  0  0  0  0  0  0  0
   -2.5332   -1.4966   -0.0966 N   0  0  0  0  0  0  0  0  0  0  0  0
   -3.2312   -1.2816   -0.7936 H   0  0  0  0  0  0  0  0  0  0  0  0
   -1.3593   -0.6196   -0.0536 C   0  0  1  0  0  0  0  0  0  0  0  0
   -0.8076   -0.7284   -0.9882 H   0  0  0  0  0  0  0  0  0  0  0  0
   -1.8162    0.8428    0.0659 C   0  0  0  0  0  0  0  0  0  0  0  0
   -0.9353    1.4871    0.0723 H   0  0  0  0  0  0  0  0  0  0  0  0
   -2.4042    1.0962   -0.8178 H   0  0  0  0  0  0  0  0  0  0  0  0
   -2.6299    1.1582    1.2843 C   0  0  0  0  0  0  0  0  0  0  0  0
   -2.1349    1.5294    2.4863 C   0  0  0  0  0  0  0  0  0  0  0  0
   -1.0794    1.6249    2.7163 H   0  0  0  0  0  0  0  0  0  0  0  0
   -3.1753    1.7845    3.3581 N   0  0  0  0  0  0  0  0  0  0  0  0
   -3.0411    2.0733    4.3161 H   0  0  0  0  0  0  0  0  0  0  0  0
   -4.4007    1.6053    2.7523 C   0  0  0  0  0  0  0  0  0  0  0  0
   -5.7213    1.7630    3.1965 C   0  0  0  0  0  0  0  0  0  0  0  0
   -5.9241    2.0825    4.2081 H   0  0  0  0  0  0  0  0  0  0  0  0
   -6.7770    1.4977    2.3076 C   0  0  0  0  0  0  0  0  0  0  0  0
   -7.8021    1.6129    2.6329 H   0  0  0  0  0  0  0  0  0  0  0  0
   -6.4985    1.0754    0.9948 C   0  0  0  0  0  0  0  0  0  0  0  0
   -7.3139    0.8644    0.3167 H   0  0  0  0  0  0  0  0  0  0  0  0
   -5.1673    0.9183    0.5597 C   0  0  0  0  0  0  0  0  0  0  0  0
   -4.9675    0.5804   -0.4472 H   0  0  0  0  0  0  0  0  0  0  0  0
   -4.0847    1.1827    1.4264 C   0  0  0  0  0  0  0  0  0  0  0  0
   -0.4126   -1.0148    1.0904 C   0  0  0  0  0  0  0  0  0  0  0  0
   -0.5351   -2.1051    1.6470 O   0  0  0  0  0  0  0  0  0  0  0  0
    0.5290   -0.1285    1.4412 N   0  0  0  0  0  0  0  0  0  0  0  0
    0.5280    0.7657    0.9714 H   0  0  0  0  0  0  0  0  0  0  0  0
    1.5075   -0.3462    2.5030 C   0  0  0  0  0  0  0  0  0  0  0  0
    2.0137   -1.3007    2.3471 H   0  0  0  0  0  0  0  0  0  0  0  0
    2.2448    0.4576    2.5049 H   0  0  0  0  0  0  0  0  0  0  0  0
    0.9995   -0.3730    3.4685 H   0  0  0  0  0  0  0  0  0  0  0  0
  5  6  2  0  0  0  0
  5  7  1  0  0  0  0
  2  3  1  0  0  0  0
  2  4  1  0  0  0  0
  2  5  1  0  0  0  0
  1  2  1  0  0  0  0
 29 30  2  0  0  0  0
 29 31  1  0  0  0  0
 26 27  1  0  0  0  0
 26 28  2  0  0  0  0
 24 25  1  0  0  0  0
 24 26  1  0  0  0  0
 22 23  1  0  0  0  0
 22 24  2  0  0  0  0
 20 21  1  0  0  0  0
 20 22  1  0  0  0  0
 19 20  2  0  0  0  0
 19 28  1  0  0  0  0
 17 18  1  0  0  0  0
 17 19  1  0  0  0  0
 15 16  1  0  0  0  0
 15 17  1  0  0  0  0
 14 15  2  0  0  0  0
 14 28  1  0  0  0  0
 11 12  1  0  0  0  0
 11 13  1  0  0  0  0
 11 14  1  0  0  0  0
  9 10  1  0  0  0  0
  9 11  1  0  0  0  0
  9 29  1  0  0  0  0
  7  8  1  0  0  0  0
  7  9  1  0  0  0  0
 33 34  1  0  0  0  0
 33 35  1  0  0  0  0
 33 36  1  0  0  0  0
 31 32  1  0  0  0  0
 31 33  1  0  0  0  0
M  END
$$$$
default_name
  -OEChem-12212115393D

 36 37  0     1  0  0  0  0  0999 V2000
   -4.0843   -4.0736    1.2944 H   0  0  0  0  0  0  0  0  0  0  0  0
   -4.0342   -3.2816    0.5484 C   0  0  0  0  0  0  0  0  0  0  0  0
   -4.8842   -2.6126    0.6694 H   0  0  0  0  0  0  0  0  0  0  0  0
   -4.0433   -3.7186   -0.4486 H   0  0  0  0  0  0  0  0  0  0  0  0
   -2.7532   -2.5046    0.7444 C   0  0  0  0  0  0  0  0  0  0  0  0
   -1.9803   -2.8096    1.6434 O   0  0  0  0  0  0  0  0  0  0  0  0
   -2.5332   -1.4966   -0.0966 N   0  0  0  0  0  0  0  0  0  0  0  0
   -3.2312   -1.2816   -0.7936 H   0  0  0  0  0  0  0  0  0  0  0  0
   -1.3593   -0.6196   -0.0536 C   0  0  1  0  0  0  0  0  0  0  0  0
   -0.8076   -0.7284   -0.9882 H   0  0  0  0  0  0  0  0  0  0  0  0
   -1.8162    0.8428    0.0659 C   0  0  0  0  0  0  0  0  0  0  0  0
   -0.9353    1.4871    0.0723 H   0  0  0  0  0  0  0  0  0  0  0  0
   -2.4042    1.0962   -0.8178 H   0  0  0  0  0  0  0  0  0  0  0  0
   -2.6299    1.1582    1.2843 C   0  0  0  0  0  0  0  0  0  0  0  0
   -2.1349    1.5294    2.4863 C   0  0  0  0  0  0  0  0  0  0  0  0
   -1.0794    1.6249    2.7163 H   0  0  0  0  0  0  0  0  0  0  0  0
   -3.1753    1.7845    3.3581 N   0  0  0  0  0  0  0  0  0  0  0  0
   -3.0411    2.0733    4.3161 H   0  0  0  0  0  0  0  0  0  0  0  0
   -4.4007    1.6053    2.7523 C   0  0  0  0  0  0  0  0  0  0  0  0
   -5.7213    1.7630    3.1965 C   0  0  0  0  0  0  0  0  0  0  0  0
   -5.9241    2.0825    4.2081 H   0  0  0  0  0  0  0  0  0  0  0  0
   -6.7770    1.4977    2.3076 C   0  0  0  0  0  0  0  0  0  0  0  0
   -7.8021    1.6129    2.6329 H   0  0  0  0  0  0  0  0  0  0  0  0
   -6.4985    1.0754    0.9948 C   0  0  0  0  0  0  0  0  0  0  0  0
   -7.3139    0.8644    0.3167 H   0  0  0  0  0  0  0  0  0  0  0  0
   -5.1673    0.9183    0.5597 C   0  0  0  0  0  0  0  0  0  0  0  0
   -4.9675    0.5804   -0.4472 H   0  0  0  0  0  0  0  0  0  0  0  0
   -4.0847    1.1827    1.4264 C   0  0  0  0  0  0  0  0  0  0  0  0
   -0.4126   -1.0148    1.0904 C   0  0  0  0  0  0  0  0  0  0  0  0
   -0.3449   -2.1857    1.4618 O   0  0  0  0  0  0  0  0  0  0  0  0
    0.3156   -0.0385    1.6488 N   0  0  0  0  0  0  0  0  0  0  0  0
    0.1615    0.9050    1.3228 H   0  0  0  0  0  0  0  0  0  0  0  0
    1.2625   -0.2423    2.7416 C   0  0  0  0  0  0  0  0  0  0  0  0
    1.9550   -1.0457    2.4837 H   0  0  0  0  0  0  0  0  0  0  0  0
    1.8249    0.6737    2.9270 H   0  0  0  0  0  0  0  0  0  0  0  0
    0.7215   -0.5237    3.6466 H   0  0  0  0  0  0  0  0  0  0  0  0
  5  6  2  0  0  0  0
  5  7  1  0  0  0  0
  2  3  1  0  0  0  0
  2  4  1  0  0  0  0
  2  5  1  0  0  0  0
  1  2  1  0  0  0  0
 29 30  2  0  0  0  0
 29 31  1  0  0  0  0
 26 27  1  0  0  0  0
 26 28  2  0  0  0  0
 24 25  1  0  0  0  0
 24 26  1  0  0  0  0
 22 23  1  0  0  0  0
 22 24  2  0  0  0  0
 20 21  1  0  0  0  0
 20 22  1  0  0  0  0
 19 20  2  0  0  0  0
 19 28  1  0  0  0  0
 17 18  1  0  0  0  0
 17 19  1  0  0  0  0
 15 16  1  0  0  0  0
 15 17  1  0  0  0  0
 14 15  2  0  0  0  0
 14 28  1  0  0  0  0
 11 12  1  0  0  0  0
 11 13  1  0  0  0  0
 11 14  1  0  0  0  0
  9 10  1  0  0  0  0
  9 11  1  0  0  0  0
  9 29  1  0  0  0  0
  7  8  1  0  0  0  0
  7  9  1  0  0  0  0
 33 34  1  0  0  0  0
 33 35  1  0  0  0  0
 33 36  1  0  0  0  0
 31 32  1  0  0  0  0
 31 33  1  0  0  0  0
M  END
$$$$
default_name
  -OEChem-12212115393D

 36 37  0     1  0  0  0  0  0999 V2000
   -4.0843   -4.0736    1.2944 H   0  0  0  0  0  0  0  0  0  0  0  0
   -4.0342   -3.2816    0.5484 C   0  0  0  0  0  0  0  0  0  0  0  0
   -4.8842   -2.6126    0.6694 H   0  0  0  0  0  0  0  0  0  0  0  0
   -4.0433   -3.7186   -0.4486 H   0  0  0  0  0  0  0  0  0  0  0  0
   -2.7532   -2.5046    0.7444 C   0  0  0  0  0  0  0  0  0  0  0  0
   -1.9803   -2.8096    1.6434 O   0  0  0  0  0  0  0  0  0  0  0  0
   -2.5332   -1.4966   -0.0966 N   0  0  0  0  0  0  0  0  0  0  0  0
   -3.2312   -1.2816   -0.7936 H   0  0  0  0  0  0  0  0  0  0  0  0
   -1.3593   -0.6196   -0.0536 C   0  0  1  0  0  0  0  0  0  0  0  0
   -0.8076   -0.7284   -0.9882 H   0  0  0  0  0  0  0  0  0  0  0  0
   -1.8162    0.8428    0.0659 C   0  0  0  0  0  0  0  0  0  0  0  0
   -0.9353    1.4871    0.0723 H   0  0  0  0  0  0  0  0  0  0  0  0
   -2.4042    1.0962   -0.8178 H   0  0  0  0  0  0  0  0  0  0  0  0
   -2.6299    1.1582    1.2843 C   0  0  0  0  0  0  0  0  0  0  0  0
   -2.1349    1.5294    2.4863 C   0  0  0  0  0  0  0  0  0  0  0  0
   -1.0794    1.6249    2.7163 H   0  0  0  0  0  0  0  0  0  0  0  0
   -3.1753    1.7845    3.3581 N   0  0  0  0  0  0  0  0  0  0  0  0
   -3.0411    2.0733    4.3161 H   0  0  0  0  0  0  0  0  0  0  0  0
   -4.4007    1.6053    2.7523 C   0  0  0  0  0  0  0  0  0  0  0  0
   -5.7213    1.7630    3.1965 C   0  0  0  0  0  0  0  0  0  0  0  0
   -5.9241    2.0825    4.2081 H   0  0  0  0  0  0  0  0  0  0  0  0
   -6.7770    1.4977    2.3076 C   0  0  0  0  0  0  0  0  0  0  0  0
   -7.8021    1.6129    2.6329 H   0  0  0  0  0  0  0  0  0  0  0  0
   -6.4985    1.0754    0.9948 C   0  0  0  0  0  0  0  0  0  0  0  0
   -7.3139    0.8644    0.3167 H   0  0  0  0  0  0  0  0  0  0  0  0
   -5.1673    0.9183    0.5597 C   0  0  0  0  0  0  0  0  0  0  0  0
   -4.9675    0.5804   -0.4472 H   0  0  0  0  0  0  0  0  0  0  0  0
   -4.0847    1.1827    1.4264 C   0  0  0  0  0  0  0  0  0  0  0  0
   -0.4126   -1.0148    1.0904 C   0  0  0  0  0  0  0  0  0  0  0  0
   -0.1333   -2.1974    1.2826 O   0  0  0  0  0  0  0  0  0  0  0  0
    0.0784   -0.0259    1.8495 N   0  0  0  0  0  0  0  0  0  0  0  0
   -0.2428    0.9128    1.6600 H   0  0  0  0  0  0  0  0  0  0  0  0
    0.9900   -0.2272    2.9724 C   0  0  0  0  0  0  0  0  0  0  0  0
    1.8402   -0.8325    2.6523 H   0  0  0  0  0  0  0  0  0  0  0  0
    1.3496    0.7342    3.3412 H   0  0  0  0  0  0  0  0  0  0  0  0
    0.4700   -0.7512    3.7761 H   0  0  0  0  0  0  0  0  0  0  0  0
  5  6  2  0  0  0  0
  5  7  1  0  0  0  0
  2  3  1  0  0  0  0
  2  4  1  0  0  0  0
  2  5  1  0  0  0  0
  1  2  1  0  0  0  0
 29 30  2  0  0  0  0
 29 31  1  0  0  0  0
 26 27  1  0  0  0  0
 26 28  2  0  0  0  0
 24 25  1  0  0  0  0
 24 26  1  0  0  0  0
 22 23  1  0  0  0  0
 22 24  2  0  0  0  0
 20 21  1  0  0  0  0
 20 22  1  0  0  0  0
 19 20  2  0  0  0  0
 19 28  1  0  0  0  0
 17 18  1  0  0  0  0
 17 19  1  0  0  0  0
 15 16  1  0  0  0  0
 15 17  1  0  0  0  0
 14 15  2  0  0  0  0
 14 28  1  0  0  0  0
 11 12  1  0  0  0  0
 11 13  1  0  0  0  0
 11 14  1  0  0  0  0
  9 10  1  0  0  0  0
  9 11  1  0  0  0  0
  9 29  1  0  0  0  0
  7  8  1  0  0  0  0
  7  9  1  0  0  0  0
 33 34  1  0  0  0  0
 33 35  1  0  0  0  0
 33 36  1  0  0  0  0
 31 32  1  0  0  0  0
 31 33  1  0  0  0  0
M  END
$$$$
default_name
  -OEChem-12212115393D

 36 37  0     1  0  0  0  0  0999 V2000
   -4.0843   -4.0736    1.2944 H   0  0  0  0  0  0  0  0  0  0  0  0
   -4.0342   -3.2816    0.5484 C   0  0  0  0  0  0  0  0  0  0  0  0
   -4.8842   -2.6126    0.6694 H   0  0  0  0  0  0  0  0  0  0  0  0
   -4.0433   -3.7186   -0.4486 H   0  0  0  0  0  0  0  0  0  0  0  0
   -2.7532   -2.5046    0.7444 C   0  0  0  0  0  0  0  0  0  0  0  0
   -1.9803   -2.8096    1.6434 O   0  0  0  0  0  0  0  0  0  0  0  0
   -2.5332   -1.4966   -0.0966 N   0  0  0  0  0  0  0  0  0  0  0  0
   -3.2312   -1.2816   -0.7936 H   0  0  0  0  0  0  0  0  0  0  0  0
   -1.3593   -0.6196   -0.0536 C   0  0  1  0  0  0  0  0  0  0  0  0
   -0.8076   -0.7284   -0.9882 H   0  0  0  0  0  0  0  0  0  0  0  0
   -1.8162    0.8428    0.0659 C   0  0  0  0  0  0  0  0  0  0  0  0
   -0.9353    1.4871    0.0723 H   0  0  0  0  0  0  0  0  0  0  0  0
   -2.4042    1.0962   -0.8178 H   0  0  0  0  0  0  0  0  0  0  0  0
   -2.6299    1.1582    1.2843 C   0  0  0  0  0  0  0  0  0  0  0  0
   -2.1349    1.5294    2.4863 C   0  0  0  0  0  0  0  0  0  0  0  0
   -1.0794    1.6249    2.7163 H   0  0  0  0  0  0  0  0  0  0  0  0
   -3.1753    1.7845    3.3581 N   0  0  0  0  0  0  0  0  0  0  0  0
   -3.0411    2.0733    4.3161 H   0  0  0  0  0  0  0  0  0  0  0  0
   -4.4007    1.6053    2.7523 C   0  0  0  0  0  0  0  0  0  0  0  0
   -5.7213    1.7630    3.1965 C   0  0  0  0  0  0  0  0  0  0  0  0
   -5.9241    2.0825    4.2081 H   0  0  0  0  0  0  0  0  0  0  0  0
   -6.7770    1.4977    2.3076 C   0  0  0  0  0  0  0  0  0  0  0  0
   -7.8021    1.6129    2.6329 H   0  0  0  0  0  0  0  0  0  0  0  0
   -6.4985    1.0754    0.9948 C   0  0  0  0  0  0  0  0  0  0  0  0
   -7.3139    0.8644    0.3167 H   0  0  0  0  0  0  0  0  0  0  0  0
   -5.1673    0.9183    0.5597 C   0  0  0  0  0  0  0  0  0  0  0  0
   -4.9675    0.5804   -0.4472 H   0  0  0  0  0  0  0  0  0  0  0  0
   -4.0847    1.1827    1.4264 C   0  0  0  0  0  0  0  0  0  0  0  0
   -0.4126   -1.0148    1.0904 C   0  0  0  0  0  0  0  0  0  0  0  0
    0.0853   -2.1394    1.1218 O   0  0  0  0  0  0  0  0  0  0  0  0
   -0.1665   -0.0914    2.0295 N   0  0  0  0  0  0  0  0  0  0  0  0
   -0.6572    0.7888    1.9601 H   0  0  0  0  0  0  0  0  0  0  0  0
    0.7085   -0.3019    3.1795 C   0  0  0  0  0  0  0  0  0  0  0  0
    1.6769   -0.6756    2.8416 H   0  0  0  0  0  0  0  0  0  0  0  0
    0.8512    0.6351    3.7193 H   0  0  0  0  0  0  0  0  0  0  0  0
    0.2624   -1.0400    3.8482 H   0  0  0  0  0  0  0  0  0  0  0  0
  5  6  2  0  0  0  0
  5  7  1  0  0  0  0
  2  3  1  0  0  0  0
  2  4  1  0  0  0  0
  2  5  1  0  0  0  0
  1  2  1  0  0  0  0
 29 30  2  0  0  0  0
 29 31  1  0  0  0  0
 26 27  1  0  0  0  0
 26 28  2  0  0  0  0
 24 25  1  0  0  0  0
 24 26  1  0  0  0  0
 22 23  1  0  0  0  0
 22 24  2  0  0  0  0
 20 21  1  0  0  0  0
 20 22  1  0  0  0  0
 19 20  2  0  0  0  0
 19 28  1  0  0  0  0
 17 18  1  0  0  0  0
 17 19  1  0  0  0  0
 15 16  1  0  0  0  0
 15 17  1  0  0  0  0
 14 15  2  0  0  0  0
 14 28  1  0  0  0  0
 11 12  1  0  0  0  0
 11 13  1  0  0  0  0
 11 14  1  0  0  0  0
  9 10  1  0  0  0  0
  9 11  1  0  0  0  0
  9 29  1  0  0  0  0
  7  8  1  0  0  0  0
  7  9  1  0  0  0  0
 33 34  1  0  0  0  0
 33 35  1  0  0  0  0
 33 36  1  0  0  0  0
 31 32  1  0  0  0  0
 31 33  1  0  0  0  0
M  END
$$$$
default_name
  -OEChem-12212115393D

 36 37  0     1  0  0  0  0  0999 V2000
   -4.0843   -4.0736    1.2944 H   0  0  0  0  0  0  0  0  0  0  0  0
   -4.0342   -3.2816    0.5484 C   0  0  0  0  0  0  0  0  0  0  0  0
   -4.8842   -2.6126    0.6694 H   0  0  0  0  0  0  0  0  0  0  0  0
   -4.0433   -3.7186   -0.4486 H   0  0  0  0  0  0  0  0  0  0  0  0
   -2.7532   -2.5046    0.7444 C   0  0  0  0  0  0  0  0  0  0  0  0
   -1.9803   -2.8096    1.6434 O   0  0  0  0  0  0  0  0  0  0  0  0
   -2.5332   -1.4966   -0.0966 N   0  0  0  0  0  0  0  0  0  0  0  0
   -3.2312   -1.2816   -0.7936 H   0  0  0  0  0  0  0  0  0  0  0  0
   -1.3593   -0.6196   -0.0536 C   0  0  1  0  0  0  0  0  0  0  0  0
   -0.8076   -0.7284   -0.9882 H   0  0  0  0  0  0  0  0  0  0  0  0
   -1.8162    0.8428    0.0659 C   0  0  0  0  0  0  0  0  0  0  0  0
   -0.9353    1.4871    0.0723 H   0  0  0  0  0  0  0  0  0  0  0  0
   -2.4042    1.0962   -0.8178 H   0  0  0  0  0  0  0  0  0  0  0  0
   -2.6299    1.1582    1.2843 C   0  0  0  0  0  0  0  0  0  0  0  0
   -2.1349    1.5294    2.4863 C   0  0  0  0  0  0  0  0  0  0  0  0
   -1.0794    1.6249    2.7163 H   0  0  0  0  0  0  0  0  0  0  0  0
   -3.1753    1.7845    3.3581 N   0  0  0  0  0  0  0  0  0  0  0  0
   -3.0411    2.0733    4.3161 H   0  0  0  0  0  0  0  0  0  0  0  0
   -4.4007    1.6053    2.7523 C   0  0  0  0  0  0  0  0  0  0  0  0
   -5.7213    1.7630    3.1965 C   0  0  0  0  0  0  0  0  0  0  0  0
   -5.9241    2.0825    4.2081 H   0  0  0  0  0  0  0  0  0  0  0  0
   -6.7770    1.4977    2.3076 C   0  0  0  0  0  0  0  0  0  0  0  0
   -7.8021    1.6129    2.6329 H   0  0  0  0  0  0  0  0  0  0  0  0
   -6.4985    1.0754    0.9948 C   0  0  0  0  0  0  0  0  0  0  0  0
   -7.3139    0.8644    0.3167 H   0  0  0  0  0  0  0  0  0  0  0  0
   -5.1673    0.9183    0.5597 C   0  0  0  0  0  0  0  0  0  0  0  0
   -4.9675    0.5804   -0.4472 H   0  0  0  0  0  0  0  0  0  0  0  0
   -4.0847    1.1827    1.4264 C   0  0  0  0  0  0  0  0  0  0  0  0
   -0.4126   -1.0148    1.0904 C   0  0  0  0  0  0  0  0  0  0  0  0
    0.2960   -2.0155    0.9903 O   0  0  0  0  0  0  0  0  0  0  0  0
   -0.4025   -0.2305    2.1767 N   0  0  0  0  0  0  0  0  0  0  0  0
   -1.0536    0.5412    2.2026 H   0  0  0  0  0  0  0  0  0  0  0  0
    0.4372   -0.4614    3.3489 C   0  0  0  0  0  0  0  0  0  0  0  0
    1.4764   -0.5857    3.0386 H   0  0  0  0  0  0  0  0  0  0  0  0
    0.3638    0.3829    4.0356 H   0  0  0  0  0  0  0  0  0  0  0  0
    0.1127   -1.3705    3.8579 H   0  0  0  0  0  0  0  0  0  0  0  0
  5  6  2  0  0  0  0
  5  7  1  0  0  0  0
  2  3  1  0  0  0  0
  2  4  1  0  0  0  0
  2  5  1  0  0  0  0
  1  2  1  0  0  0  0
 29 30  2  0  0  0  0
 29 31  1  0  0  0  0
 26 27  1  0  0  0  0
 26 28  2  0  0  0  0
 24 25  1  0  0  0  0
 24 26  1  0  0  0  0
 22 23  1  0  0  0  0
 22 24  2  0  0  0  0
 20 21  1  0  0  0  0
 20 22  1  0  0  0  0
 19 20  2  0  0  0  0
 19 28  1  0  0  0  0
 17 18  1  0  0  0  0
 17 19  1  0  0  0  0
 15 16  1  0  0  0  0
 15 17  1  0  0  0  0
 14 15  2  0  0  0  0
 14 28  1  0  0  0  0
 11 12  1  0  0  0  0
 11 13  1  0  0  0  0
 11 14  1  0  0  0  0
  9 10  1  0  0  0  0
  9 11  1  0  0  0  0
  9 29  1  0  0  0  0
  7  8  1  0  0  0  0
  7  9  1  0  0  0  0
 33 34  1  0  0  0  0
 33 35  1  0  0  0  0
 33 36  1  0  0  0  0
 31 32  1  0  0  0  0
 31 33  1  0  0  0  0
M  END
$$$$
default_name
  -OEChem-12212115393D

 36 37  0     1  0  0  0  0  0999 V2000
   -4.0843   -4.0736    1.2944 H   0  0  0  0  0  0  0  0  0  0  0  0
   -4.0342   -3.2816    0.5484 C   0  0  0  0  0  0  0  0  0  0  0  0
   -4.8842   -2.6126    0.6694 H   0  0  0  0  0  0  0  0  0  0  0  0
   -4.0433   -3.7186   -0.4486 H   0  0  0  0  0  0  0  0  0  0  0  0
   -2.7532   -2.5046    0.7444 C   0  0  0  0  0  0  0  0  0  0  0  0
   -1.9803   -2.8096    1.6434 O   0  0  0  0  0  0  0  0  0  0  0  0
   -2.5332   -1.4966   -0.0966 N   0  0  0  0  0  0  0  0  0  0  0  0
   -3.2312   -1.2816   -0.7936 H   0  0  0  0  0  0  0  0  0  0  0  0
   -1.3593   -0.6196   -0.0536 C   0  0  1  0  0  0  0  0  0  0  0  0
   -0.8076   -0.7284   -0.9882 H   0  0  0  0  0  0  0  0  0  0  0  0
   -1.8162    0.8428    0.0659 C   0  0  0  0  0  0  0  0  0  0  0  0
   -0.9353    1.4871    0.0723 H   0  0  0  0  0  0  0  0  0  0  0  0
   -2.4042    1.0962   -0.8178 H   0  0  0  0  0  0  0  0  0  0  0  0
   -2.6299    1.1582    1.2843 C   0  0  0  0  0  0  0  0  0  0  0  0
   -2.1349    1.5294    2.4863 C   0  0  0  0  0  0  0  0  0  0  0  0
   -1.0794    1.6249    2.7163 H   0  0  0  0  0  0  0  0  0  0  0  0
   -3.1753    1.7845    3.3581 N   0  0  0  0  0  0  0  0  0  0  0  0
   -3.0411    2.0733    4.3161 H   0  0  0  0  0  0  0  0  0  0  0  0
   -4.4007    1.6053    2.7523 C   0  0  0  0  0  0  0  0  0  0  0  0
   -5.7213    1.7630    3.1965 C   0  0  0  0  0  0  0  0  0  0  0  0
   -5.9241    2.0825    4.2081 H   0  0  0  0  0  0  0  0  0  0  0  0
   -6.7770    1.4977    2.3076 C   0  0  0  0  0  0  0  0  0  0  0  0
   -7.8021    1.6129    2.6329 H   0  0  0  0  0  0  0  0  0  0  0  0
   -6.4985    1.0754    0.9948 C   0  0  0  0  0  0  0  0  0  0  0  0
   -7.3139    0.8644    0.3167 H   0  0  0  0  0  0  0  0  0  0  0  0
   -5.1673    0.9183    0.5597 C   0  0  0  0  0  0  0  0  0  0  0  0
   -4.9675    0.5804   -0.4472 H   0  0  0  0  0  0  0  0  0  0  0  0
   -4.0847    1.1827    1.4264 C   0  0  0  0  0  0  0  0  0  0  0  0
   -0.4126   -1.0148    1.0904 C   0  0  0  0  0  0  0  0  0  0  0  0
    0.4843   -1.8343    0.8970 O   0  0  0  0  0  0  0  0  0  0  0  0
   -0.6134   -0.4339    2.2809 N   0  0  0  0  0  0  0  0  0  0  0  0
   -1.4049    0.1870    2.3710 H   0  0  0  0  0  0  0  0  0  0  0  0
    0.1945   -0.6947    3.4691 C   0  0  0  0  0  0  0  0  0  0  0  0
    1.2522   -0.5689    3.2299 H   0  0  0  0  0  0  0  0  0  0  0  0
   -0.0795   -0.0049    4.2684 H   0  0  0  0  0  0  0  0  0  0  0  0
    0.0311   -1.7201    3.8046 H   0  0  0  0  0  0  0  0  0  0  0  0
  5  6  2  0  0  0  0
  5  7  1  0  0  0  0
  2  3  1  0  0  0  0
  2  4  1  0  0  0  0
  2  5  1  0  0  0  0
  1  2  1  0  0  0  0
 29 30  2  0  0  0  0
 29 31  1  0  0  0  0
 26 27  1  0  0  0  0
 26 28  2  0  0  0  0
 24 25  1  0  0  0  0
 24 26  1  0  0  0  0
 22 23  1  0  0  0  0
 22 24  2  0  0  0  0
 20 21  1  0  0  0  0
 20 22  1  0  0  0  0
 19 20  2  0  0  0  0
 19 28  1  0  0  0  0
 17 18  1  0  0  0  0
 17 19  1  0  0  0  0
 15 16  1  0  0  0  0
 15 17  1  0  0  0  0
 14 15  2  0  0  0  0
 14 28  1  0  0  0  0
 11 12  1  0  0  0  0
 11 13  1  0  0  0  0
 11 14  1  0  0  0  0
  9 10  1  0  0  0  0
  9 11  1  0  0  0  0
  9 29  1  0  0  0  0
  7  8  1  0  0  0  0
  7  9  1  0  0  0  0
 33 34  1  0  0  0  0
 33 35  1  0  0  0  0
 33 36  1  0  0  0  0
 31 32  1  0  0  0  0
 31 33  1  0  0  0  0
M  END
$$$$
default_name
  -OEChem-12212115393D

 36 37  0     1  0  0  0  0  0999 V2000
   -4.0843   -4.0736    1.2944 H   0  0  0  0  0  0  0  0  0  0  0  0
   -4.0342   -3.2816    0.5484 C   0  0  0  0  0  0  0  0  0  0  0  0
   -4.8842   -2.6126    0.6694 H   0  0  0  0  0  0  0  0  0  0  0  0
   -4.0433   -3.7186   -0.4486 H   0  0  0  0  0  0  0  0  0  0  0  0
   -2.7532   -2.5046    0.7444 C   0  0  0  0  0  0  0  0  0  0  0  0
   -1.9803   -2.8096    1.6434 O   0  0  0  0  0  0  0  0  0  0  0  0
   -2.5332   -1.4966   -0.0966 N   0  0  0  0  0  0  0  0  0  0  0  0
   -3.2312   -1.2816   -0.7936 H   0  0  0  0  0  0  0  0  0  0  0  0
   -1.3593   -0.6196   -0.0536 C   0  0  1  0  0  0  0  0  0  0  0  0
   -0.8076   -0.7284   -0.9882 H   0  0  0  0  0  0  0  0  0  0  0  0
   -1.8162    0.8428    0.0659 C   0  0  0  0  0  0  0  0  0  0  0  0
   -0.9353    1.4871    0.0723 H   0  0  0  0  0  0  0  0  0  0  0  0
   -2.4042    1.0962   -0.8178 H   0  0  0  0  0  0  0  0  0  0  0  0
   -2.6299    1.1582    1.2843 C   0  0  0  0  0  0  0  0  0  0  0  0
   -2.1349    1.5294    2.4863 C   0  0  0  0  0  0  0  0  0  0  0  0
   -1.0794    1.6249    2.7163 H   0  0  0  0  0  0  0  0  0  0  0  0
   -3.1753    1.7845    3.3581 N   0  0  0  0  0  0  0  0  0  0  0  0
   -3.0411    2.0733    4.3161 H   0  0  0  0  0  0  0  0  0  0  0  0
   -4.4007    1.6053    2.7523 C   0  0  0  0  0  0  0  0  0  0  0  0
   -5.7213    1.7630    3.1965 C   0  0  0  0  0  0  0  0  0  0  0  0
   -5.9241    2.0825    4.2081 H   0  0  0  0  0  0  0  0  0  0  0  0
   -6.7770    1.4977    2.3076 C   0  0  0  0  0  0  0  0  0  0  0  0
   -7.8021    1.6129    2.6329 H   0  0  0  0  0  0  0  0  0  0  0  0
   -6.4985    1.0754    0.9948 C   0  0  0  0  0  0  0  0  0  0  0  0
   -7.3139    0.8644    0.3167 H   0  0  0  0  0  0  0  0  0  0  0  0
   -5.1673    0.9183    0.5597 C   0  0  0  0  0  0  0  0  0  0  0  0
   -4.9675    0.5804   -0.4472 H   0  0  0  0  0  0  0  0  0  0  0  0
   -4.0847    1.1827    1.4264 C   0  0  0  0  0  0  0  0  0  0  0  0
   -0.4126   -1.0148    1.0904 C   0  0  0  0  0  0  0  0  0  0  0  0
    0.6376   -1.6082    0.8483 O   0  0  0  0  0  0  0  0  0  0  0  0
   -0.7848   -0.6876    2.3352 N   0  0  0  0  0  0  0  0  0  0  0  0
   -1.6872   -0.2496    2.4538 H   0  0  0  0  0  0  0  0  0  0  0  0
   -0.0028   -0.9859    3.5318 C   0  0  0  0  0  0  0  0  0  0  0  0
    1.0198   -0.6264    3.4024 H   0  0  0  0  0  0  0  0  0  0  0  0
   -0.4484   -0.5022    4.4019 H   0  0  0  0  0  0  0  0  0  0  0  0
    0.0232   -2.0651    3.6920 H   0  0  0  0  0  0  0  0  0  0  0  0
  5  6  2  0  0  0  0
  5  7  1  0  0  0  0
  2  3  1  0  0  0  0
  2  4  1  0  0  0  0
  2  5  1  0  0  0  0
  1  2  1  0  0  0  0
 29 30  2  0  0  0  0
 29 31  1  0  0  0  0
 26 27  1  0  0  0  0
 26 28  2  0  0  0  0
 24 25  1  0  0  0  0
 24 26  1  0  0  0  0
 22 23  1  0  0  0  0
 22 24  2  0  0  0  0
 20 21  1  0  0  0  0
 20 22  1  0  0  0  0
 19 20  2  0  0  0  0
 19 28  1  0  0  0  0
 17 18  1  0  0  0  0
 17 19  1  0  0  0  0
 15 16  1  0  0  0  0
 15 17  1  0  0  0  0
 14 15  2  0  0  0  0
 14 28  1  0  0  0  0
 11 12  1  0  0  0  0
 11 13  1  0  0  0  0
 11 14  1  0  0  0  0
  9 10  1  0  0  0  0
  9 11  1  0  0  0  0
  9 29  1  0  0  0  0
  7  8  1  0  0  0  0
  7  9  1  0  0  0  0
 33 34  1  0  0  0  0
 33 35  1  0  0  0  0
 33 36  1  0  0  0  0
 31 32  1  0  0  0  0
 31 33  1  0  0  0  0
M  END
$$$$
default_name
  -OEChem-12212115393D

 36 37  0     1  0  0  0  0  0999 V2000
   -4.0843   -4.0736    1.2944 H   0  0  0  0  0  0  0  0  0  0  0  0
   -4.0342   -3.2816    0.5484 C   0  0  0  0  0  0  0  0  0  0  0  0
   -4.8842   -2.6126    0.6694 H   0  0  0  0  0  0  0  0  0  0  0  0
   -4.0433   -3.7186   -0.4486 H   0  0  0  0  0  0  0  0  0  0  0  0
   -2.7532   -2.5046    0.7444 C   0  0  0  0  0  0  0  0  0  0  0  0
   -1.9803   -2.8096    1.6434 O   0  0  0  0  0  0  0  0  0  0  0  0
   -2.5332   -1.4966   -0.0966 N   0  0  0  0  0  0  0  0  0  0  0  0
   -3.2312   -1.2816   -0.7936 H   0  0  0  0  0  0  0  0  0  0  0  0
   -1.3593   -0.6196   -0.0536 C   0  0  1  0  0  0  0  0  0  0  0  0
   -0.8076   -0.7284   -0.9882 H   0  0  0  0  0  0  0  0  0  0  0  0
   -1.8162    0.8428    0.0659 C   0  0  0  0  0  0  0  0  0  0  0  0
   -0.9353    1.4871    0.0723 H   0  0  0  0  0  0  0  0  0  0  0  0
   -2.4042    1.0962   -0.8178 H   0  0  0  0  0  0  0  0  0  0  0  0
   -2.6299    1.1582    1.2843 C   0  0  0  0  0  0  0  0  0  0  0  0
   -2.1349    1.5294    2.4863 C   0  0  0  0  0  0  0  0  0  0  0  0
   -1.0794    1.6249    2.7163 H   0  0  0  0  0  0  0  0  0  0  0  0
   -3.1753    1.7845    3.3581 N   0  0  0  0  0  0  0  0  0  0  0  0
   -3.0411    2.0733    4.3161 H   0  0  0  0  0  0  0  0  0  0  0  0
   -4.4007    1.6053    2.7523 C   0  0  0  0  0  0  0  0  0  0  0  0
   -5.7213    1.7630    3.1965 C   0  0  0  0  0  0  0  0  0  0  0  0
   -5.9241    2.0825    4.2081 H   0  0  0  0  0  0  0  0  0  0  0  0
   -6.7770    1.4977    2.3076 C   0  0  0  0  0  0  0  0  0  0  0  0
   -7.8021    1.6129    2.6329 H   0  0  0  0  0  0  0  0  0  0  0  0
   -6.4985    1.0754    0.9948 C   0  0  0  0  0  0  0  0  0  0  0  0
   -7.3139    0.8644    0.3167 H   0  0  0  0  0  0  0  0  0  0  0  0
   -5.1673    0.9183    0.5597 C   0  0  0  0  0  0  0  0  0  0  0  0
   -4.9675    0.5804   -0.4472 H   0  0  0  0  0  0  0  0  0  0  0  0
   -4.0847    1.1827    1.4264 C   0  0  0  0  0  0  0  0  0  0  0  0
   -0.4126   -1.0148    1.0904 C   0  0  0  0  0  0  0  0  0  0  0  0
    0.7453   -1.3524    0.8475 O   0  0  0  0  0  0  0  0  0  0  0  0
   -0.9051   -0.9743    2.3357 N   0  0  0  0  0  0  0  0  0  0  0  0
   -1.8813   -0.7390    2.4453 H   0  0  0  0  0  0  0  0  0  0  0  0
   -0.1415   -1.3153    3.5328 C   0  0  0  0  0  0  0  0  0  0  0  0
    0.7948   -0.7542    3.5444 H   0  0  0  0  0  0  0  0  0  0  0  0
   -0.7178   -1.0748    4.4271 H   0  0  0  0  0  0  0  0  0  0  0  0
    0.0896   -2.3818    3.5277 H   0  0  0  0  0  0  0  0  0  0  0  0
  5  6  2  0  0  0  0
  5  7  1  0  0  0  0
  2  3  1  0  0  0  0
  2  4  1  0  0  0  0
  2  5  1  0  0  0  0
  1  2  1  0  0  0  0
 29 30  2  0  0  0  0
 29 31  1  0  0  0  0
 26 27  1  0  0  0  0
 26 28  2  0  0  0  0
 24 25  1  0  0  0  0
 24 26  1  0  0  0  0
 22 23  1  0  0  0  0
 22 24  2  0  0  0  0
 20 21  1  0  0  0  0
 20 22  1  0  0  0  0
 19 20  2  0  0  0  0
 19 28  1  0  0  0  0
 17 18  1  0  0  0  0
 17 19  1  0  0  0  0
 15 16  1  0  0  0  0
 15 17  1  0  0  0  0
 14 15  2  0  0  0  0
 14 28  1  0  0  0  0
 11 12  1  0  0  0  0
 11 13  1  0  0  0  0
 11 14  1  0  0  0  0
  9 10  1  0  0  0  0
  9 11  1  0  0  0  0
  9 29  1  0  0  0  0
  7  8  1  0  0  0  0
  7  9  1  0  0  0  0
 33 34  1  0  0  0  0
 33 35  1  0  0  0  0
 33 36  1  0  0  0  0
 31 32  1  0  0  0  0
 31 33  1  0  0  0  0
M  END
$$$$
default_name
  -OEChem-12212115393D

 36 37  0     1  0  0  0  0  0999 V2000
   -4.0843   -4.0736    1.2944 H   0  0  0  0  0  0  0  0  0  0  0  0
   -4.0342   -3.2816    0.5484 C   0  0  0  0  0  0  0  0  0  0  0  0
   -4.8842   -2.6126    0.6694 H   0  0  0  0  0  0  0  0  0  0  0  0
   -4.0433   -3.7186   -0.4486 H   0  0  0  0  0  0  0  0  0  0  0  0
   -2.7532   -2.5046    0.7444 C   0  0  0  0  0  0  0  0  0  0  0  0
   -1.9803   -2.8096    1.6434 O   0  0  0  0  0  0  0  0  0  0  0  0
   -2.5332   -1.4966   -0.0966 N   0  0  0  0  0  0  0  0  0  0  0  0
   -3.2312   -1.2816   -0.7936 H   0  0  0  0  0  0  0  0  0  0  0  0
   -1.3593   -0.6196   -0.0536 C   0  0  1  0  0  0  0  0  0  0  0  0
   -0.8076   -0.7284   -0.9882 H   0  0  0  0  0  0  0  0  0  0  0  0
   -1.8162    0.8428    0.0659 C   0  0  0  0  0  0  0  0  0  0  0  0
   -0.9353    1.4871    0.0723 H   0  0  0  0  0  0  0  0  0  0  0  0
   -2.4042    1.0962   -0.8178 H   0  0  0  0  0  0  0  0  0  0  0  0
   -2.6299    1.1582    1.2843 C   0  0  0  0  0  0  0  0  0  0  0  0
   -2.1349    1.5294    2.4863 C   0  0  0  0  0  0  0  0  0  0  0  0
   -1.0794    1.6249    2.7163 H   0  0  0  0  0  0  0  0  0  0  0  0
   -3.1753    1.7845    3.3581 N   0  0  0  0  0  0  0  0  0  0  0  0
   -3.0411    2.0733    4.3161 H   0  0  0  0  0  0  0  0  0  0  0  0
   -4.4007    1.6053    2.7523 C   0  0  0  0  0  0  0  0  0  0  0  0
   -5.7213    1.7630    3.1965 C   0  0  0  0  0  0  0  0  0  0  0  0
   -5.9241    2.0825    4.2081 H   0  0  0  0  0  0  0  0  0  0  0  0
   -6.7770    1.4977    2.3076 C   0  0  0  0  0  0  0  0  0  0  0  0
   -7.8021    1.6129    2.6329 H   0  0  0  0  0  0  0  0  0  0  0  0
   -6.4985    1.0754    0.9948 C   0  0  0  0  0  0  0  0  0  0  0  0
   -7.3139    0.8644    0.3167 H   0  0  0  0  0  0  0  0  0  0  0  0
   -5.1673    0.9183    0.5597 C   0  0  0  0  0  0  0  0  0  0  0  0
   -4.9675    0.5804   -0.4472 H   0  0  0  0  0  0  0  0  0  0  0  0
   -4.0847    1.1827    1.4264 C   0  0  0  0  0  0  0  0  0  0  0  0
   -0.4126   -1.0148    1.0904 C   0  0  0  0  0  0  0  0  0  0  0  0
    0.8000   -1.0845    0.8947 O   0  0  0  0  0  0  0  0  0  0  0  0
   -0.9662   -1.2746    2.2825 N   0  0  0  0  0  0  0  0  0  0  0  0
   -1.9739   -1.2477    2.3462 H   0  0  0  0  0  0  0  0  0  0  0  0
   -0.2121   -1.6604    3.4720 C   0  0  0  0  0  0  0  0  0  0  0  0
    0.5927   -0.9437    3.6462 H   0  0  0  0  0  0  0  0  0  0  0  0
   -0.8694   -1.6839    4.3422 H   0  0  0  0  0  0  0  0  0  0  0  0
    0.2257   -2.6488    3.3229 H   0  0  0  0  0  0  0  0  0  0  0  0
  5  6  2  0  0  0  0
  5  7  1  0  0  0  0
  2  3  1  0  0  0  0
  2  4  1  0  0  0  0
  2  5  1  0  0  0  0
  1  2  1  0  0  0  0
 29 30  2  0  0  0  0
 29 31  1  0  0  0  0
 26 27  1  0  0  0  0
 26 28  2  0  0  0  0
 24 25  1  0  0  0  0
 24 26  1  0  0  0  0
 22 23  1  0  0  0  0
 22 24  2  0  0  0  0
 20 21  1  0  0  0  0
 20 22  1  0  0  0  0
 19 20  2  0  0  0  0
 19 28  1  0  0  0  0
 17 18  1  0  0  0  0
 17 19  1  0  0  0  0
 15 16  1  0  0  0  0
 15 17  1  0  0  0  0
 14 15  2  0  0  0  0
 14 28  1  0  0  0  0
 11 12  1  0  0  0  0
 11 13  1  0  0  0  0
 11 14  1  0  0  0  0
  9 10  1  0  0  0  0
  9 11  1  0  0  0  0
  9 29  1  0  0  0  0
  7  8  1  0  0  0  0
  7  9  1  0  0  0  0
 33 34  1  0  0  0  0
 33 35  1  0  0  0  0
 33 36  1  0  0  0  0
 31 32  1  0  0  0  0
 31 33  1  0  0  0  0
M  END
$$$$
default_name
  -OEChem-12212115393D

 36 37  0     1  0  0  0  0  0999 V2000
   -4.0843   -4.0736    1.2944 H   0  0  0  0  0  0  0  0  0  0  0  0
   -4.0342   -3.2816    0.5484 C   0  0  0  0  0  0  0  0  0  0  0  0
   -4.8842   -2.6126    0.6694 H   0  0  0  0  0  0  0  0  0  0  0  0
   -4.0433   -3.7186   -0.4486 H   0  0  0  0  0  0  0  0  0  0  0  0
   -2.7532   -2.5046    0.7444 C   0  0  0  0  0  0  0  0  0  0  0  0
   -1.9803   -2.8096    1.6434 O   0  0  0  0  0  0  0  0  0  0  0  0
   -2.5332   -1.4966   -0.0966 N   0  0  0  0  0  0  0  0  0  0  0  0
   -3.2312   -1.2816   -0.7936 H   0  0  0  0  0  0  0  0  0  0  0  0
   -1.3593   -0.6196   -0.0536 C   0  0  1  0  0  0  0  0  0  0  0  0
   -0.8076   -0.7284   -0.9882 H   0  0  0  0  0  0  0  0  0  0  0  0
   -1.8162    0.8428    0.0659 C   0  0  0  0  0  0  0  0  0  0  0  0
   -0.9353    1.4871    0.0723 H   0  0  0  0  0  0  0  0  0  0  0  0
   -2.4042    1.0962   -0.8178 H   0  0  0  0  0  0  0  0  0  0  0  0
   -2.6299    1.1582    1.2843 C   0  0  0  0  0  0  0  0  0  0  0  0
   -2.1349    1.5294    2.4863 C   0  0  0  0  0  0  0  0  0  0  0  0
   -1.0794    1.6249    2.7163 H   0  0  0  0  0  0  0  0  0  0  0  0
   -3.1753    1.7845    3.3581 N   0  0  0  0  0  0  0  0  0  0  0  0
   -3.0411    2.0733    4.3161 H   0  0  0  0  0  0  0  0  0  0  0  0
   -4.4007    1.6053    2.7523 C   0  0  0  0  0  0  0  0  0  0  0  0
   -5.7213    1.7630    3.1965 C   0  0  0  0  0  0  0  0  0  0  0  0
   -5.9241    2.0825    4.2081 H   0  0  0  0  0  0  0  0  0  0  0  0
   -6.7770    1.4977    2.3076 C   0  0  0  0  0  0  0  0  0  0  0  0
   -7.8021    1.6129    2.6329 H   0  0  0  0  0  0  0  0  0  0  0  0
   -6.4985    1.0754    0.9948 C   0  0  0  0  0  0  0  0  0  0  0  0
   -7.3139    0.8644    0.3167 H   0  0  0  0  0  0  0  0  0  0  0  0
   -5.1673    0.9183    0.5597 C   0  0  0  0  0  0  0  0  0  0  0  0
   -4.9675    0.5804   -0.4472 H   0  0  0  0  0  0  0  0  0  0  0  0
   -4.0847    1.1827    1.4264 C   0  0  0  0  0  0  0  0  0  0  0  0
   -0.4126   -1.0148    1.0904 C   0  0  0  0  0  0  0  0  0  0  0  0
    0.7982   -0.8226    0.9867 O   0  0  0  0  0  0  0  0  0  0  0  0
   -0.9637   -1.5678    2.1792 N   0  0  0  0  0  0  0  0  0  0  0  0
   -1.9587   -1.7412    2.1632 H   0  0  0  0  0  0  0  0  0  0  0  0
   -0.2097   -1.9976    3.3536 C   0  0  0  0  0  0  0  0  0  0  0  0
    0.4272   -1.1818    3.7009 H   0  0  0  0  0  0  0  0  0  0  0  0
   -0.8928   -2.2879    4.1529 H   0  0  0  0  0  0  0  0  0  0  0  0
    0.4222   -2.8478    3.0916 H   0  0  0  0  0  0  0  0  0  0  0  0
  5  6  2  0  0  0  0
  5  7  1  0  0  0  0
  2  3  1  0  0  0  0
  2  4  1  0  0  0  0
  2  5  1  0  0  0  0
  1  2  1  0  0  0  0
 29 30  2  0  0  0  0
 29 31  1  0  0  0  0
 26 27  1  0  0  0  0
 26 28  2  0  0  0  0
 24 25  1  0  0  0  0
 24 26  1  0  0  0  0
 22 23  1  0  0  0  0
 22 24  2  0  0  0  0
 20 21  1  0  0  0  0
 20 22  1  0  0  0  0
 19 20  2  0  0  0  0
 19 28  1  0  0  0  0
 17 18  1  0  0  0  0
 17 19  1  0  0  0  0
 15 16  1  0  0  0  0
 15 17  1  0  0  0  0
 14 15  2  0  0  0  0
 14 28  1  0  0  0  0
 11 12  1  0  0  0  0
 11 13  1  0  0  0  0
 11 14  1  0  0  0  0
  9 10  1  0  0  0  0
  9 11  1  0  0  0  0
  9 29  1  0  0  0  0
  7  8  1  0  0  0  0
  7  9  1  0  0  0  0
 33 34  1  0  0  0  0
 33 35  1  0  0  0  0
 33 36  1  0  0  0  0
 31 32  1  0  0  0  0
 31 33  1  0  0  0  0
M  END
$$$$
default_name
  -OEChem-12212115393D

 36 37  0     1  0  0  0  0  0999 V2000
   -4.0843   -4.0736    1.2944 H   0  0  0  0  0  0  0  0  0  0  0  0
   -4.0342   -3.2816    0.5484 C   0  0  0  0  0  0  0  0  0  0  0  0
   -4.8842   -2.6126    0.6694 H   0  0  0  0  0  0  0  0  0  0  0  0
   -4.0433   -3.7186   -0.4486 H   0  0  0  0  0  0  0  0  0  0  0  0
   -2.7532   -2.5046    0.7444 C   0  0  0  0  0  0  0  0  0  0  0  0
   -1.9803   -2.8096    1.6434 O   0  0  0  0  0  0  0  0  0  0  0  0
   -2.5332   -1.4966   -0.0966 N   0  0  0  0  0  0  0  0  0  0  0  0
   -3.2312   -1.2816   -0.7936 H   0  0  0  0  0  0  0  0  0  0  0  0
   -1.3593   -0.6196   -0.0536 C   0  0  1  0  0  0  0  0  0  0  0  0
   -0.8076   -0.7284   -0.9882 H   0  0  0  0  0  0  0  0  0  0  0  0
   -1.8162    0.8428    0.0659 C   0  0  0  0  0  0  0  0  0  0  0  0
   -0.9353    1.4871    0.0723 H   0  0  0  0  0  0  0  0  0  0  0  0
   -2.4042    1.0962   -0.8178 H   0  0  0  0  0  0  0  0  0  0  0  0
   -2.6299    1.1582    1.2843 C   0  0  0  0  0  0  0  0  0  0  0  0
   -2.1349    1.5294    2.4863 C   0  0  0  0  0  0  0  0  0  0  0  0
   -1.0794    1.6249    2.7163 H   0  0  0  0  0  0  0  0  0  0  0  0
   -3.1753    1.7845    3.3581 N   0  0  0  0  0  0  0  0  0  0  0  0
   -3.0411    2.0733    4.3161 H   0  0  0  0  0  0  0  0  0  0  0  0
   -4.4007    1.6053    2.7523 C   0  0  0  0  0  0  0  0  0  0  0  0
   -5.7213    1.7630    3.1965 C   0  0  0  0  0  0  0  0  0  0  0  0
   -5.9241    2.0825    4.2081 H   0  0  0  0  0  0  0  0  0  0  0  0
   -6.7770    1.4977    2.3076 C   0  0  0  0  0  0  0  0  0  0  0  0
   -7.8021    1.6129    2.6329 H   0  0  0  0  0  0  0  0  0  0  0  0
   -6.4985    1.0754    0.9948 C   0  0  0  0  0  0  0  0  0  0  0  0
   -7.3139    0.8644    0.3167 H   0  0  0  0  0  0  0  0  0  0  0  0
   -5.1673    0.9183    0.5597 C   0  0  0  0  0  0  0  0  0  0  0  0
   -4.9675    0.5804   -0.4472 H   0  0  0  0  0  0  0  0  0  0  0  0
   -4.0847    1.1827    1.4264 C   0  0  0  0  0  0  0  0  0  0  0  0
   -0.4126   -1.0148    1.0904 C   0  0  0  0  0  0  0  0  0  0  0  0
    0.7398   -0.5848    1.1172 O   0  0  0  0  0  0  0  0  0  0  0  0
   -0.8979   -1.8342    2.0328 N   0  0  0  0  0  0  0  0  0  0  0  0
   -1.8367   -2.1857    1.9088 H   0  0  0  0  0  0  0  0  0  0  0  0
   -0.1346   -2.3039    3.1856 C   0  0  0  0  0  0  0  0  0  0  0  0
    0.3096   -1.4525    3.7047 H   0  0  0  0  0  0  0  0  0  0  0  0
   -0.7864   -2.8456    3.8722 H   0  0  0  0  0  0  0  0  0  0  0  0
    0.6657   -2.9653    2.8494 H   0  0  0  0  0  0  0  0  0  0  0  0
  5  6  2  0  0  0  0
  5  7  1  0  0  0  0
  2  3  1  0  0  0  0
  2  4  1  0  0  0  0
  2  5  1  0  0  0  0
  1  2  1  0  0  0  0
 29 30  2  0  0  0  0
 29 31  1  0  0  0  0
 26 27  1  0  0  0  0
 26 28  2  0  0  0  0
 24 25  1  0  0  0  0
 24 26  1  0  0  0  0
 22 23  1  0  0  0  0
 22 24  2  0  0  0  0
 20 21  1  0  0  0  0
 20 22  1  0  0  0  0
 19 20  2  0  0  0  0
 19 28  1  0  0  0  0
 17 18  1  0  0  0  0
 17 19  1  0  0  0  0
 15 16  1  0  0  0  0
 15 17  1  0  0  0  0
 14 15  2  0  0  0  0
 14 28  1  0  0  0  0
 11 12  1  0  0  0  0
 11 13  1  0  0  0  0
 11 14  1  0  0  0  0
  9 10  1  0  0  0  0
  9 11  1  0  0  0  0
  9 29  1  0  0  0  0
  7  8  1  0  0  0  0
  7  9  1  0  0  0  0
 33 34  1  0  0  0  0
 33 35  1  0  0  0  0
 33 36  1  0  0  0  0
 31 32  1  0  0  0  0
 31 33  1  0  0  0  0
M  END
$$$$
default_name
  -OEChem-12212115393D

 36 37  0     1  0  0  0  0  0999 V2000
   -4.0843   -4.0736    1.2944 H   0  0  0  0  0  0  0  0  0  0  0  0
   -4.0342   -3.2816    0.5484 C   0  0  0  0  0  0  0  0  0  0  0  0
   -4.8842   -2.6126    0.6694 H   0  0  0  0  0  0  0  0  0  0  0  0
   -4.0433   -3.7186   -0.4486 H   0  0  0  0  0  0  0  0  0  0  0  0
   -2.7532   -2.5046    0.7444 C   0  0  0  0  0  0  0  0  0  0  0  0
   -1.9803   -2.8096    1.6434 O   0  0  0  0  0  0  0  0  0  0  0  0
   -2.5332   -1.4966   -0.0966 N   0  0  0  0  0  0  0  0  0  0  0  0
   -3.2312   -1.2816   -0.7936 H   0  0  0  0  0  0  0  0  0  0  0  0
   -1.3593   -0.6196   -0.0536 C   0  0  1  0  0  0  0  0  0  0  0  0
   -0.8076   -0.7284   -0.9882 H   0  0  0  0  0  0  0  0  0  0  0  0
   -1.8162    0.8428    0.0659 C   0  0  0  0  0  0  0  0  0  0  0  0
   -0.9353    1.4871    0.0723 H   0  0  0  0  0  0  0  0  0  0  0  0
   -2.4042    1.0962   -0.8178 H   0  0  0  0  0  0  0  0  0  0  0  0
   -2.6299    1.1582    1.2843 C   0  0  0  0  0  0  0  0  0  0  0  0
   -2.1349    1.5294    2.4863 C   0  0  0  0  0  0  0  0  0  0  0  0
   -1.0794    1.6249    2.7163 H   0  0  0  0  0  0  0  0  0  0  0  0
   -3.1753    1.7845    3.3581 N   0  0  0  0  0  0  0  0  0  0  0  0
   -3.0411    2.0733    4.3161 H   0  0  0  0  0  0  0  0  0  0  0  0
   -4.4007    1.6053    2.7523 C   0  0  0  0  0  0  0  0  0  0  0  0
   -5.7213    1.7630    3.1965 C   0  0  0  0  0  0  0  0  0  0  0  0
   -5.9241    2.0825    4.2081 H   0  0  0  0  0  0  0  0  0  0  0  0
   -6.7770    1.4977    2.3076 C   0  0  0  0  0  0  0  0  0  0  0  0
   -7.8021    1.6129    2.6329 H   0  0  0  0  0  0  0  0  0  0  0  0
   -6.4985    1.0754    0.9948 C   0  0  0  0  0  0  0  0  0  0  0  0
   -7.3139    0.8644    0.3167 H   0  0  0  0  0  0  0  0  0  0  0  0
   -5.1673    0.9183    0.5597 C   0  0  0  0  0  0  0  0  0  0  0  0
   -4.9675    0.5804   -0.4472 H   0  0  0  0  0  0  0  0  0  0  0  0
   -4.0847    1.1827    1.4264 C   0  0  0  0  0  0  0  0  0  0  0  0
   -0.4126   -1.0148    1.0904 C   0  0  0  0  0  0  0  0  0  0  0  0
    0.6289   -0.3871    1.2772 O   0  0  0  0  0  0  0  0  0  0  0  0
   -0.7734   -2.0554    1.8533 N   0  0  0  0  0  0  0  0  0  0  0  0
   -1.6163   -2.5510    1.6002 H   0  0  0  0  0  0  0  0  0  0  0  0
    0.0082   -2.5586    2.9795 C   0  0  0  0  0  0  0  0  0  0  0  0
    0.2479   -1.7372    3.6574 H   0  0  0  0  0  0  0  0  0  0  0  0
   -0.5575   -3.3191    3.5193 H   0  0  0  0  0  0  0  0  0  0  0  0
    0.9397   -2.9932    2.6131 H   0  0  0  0  0  0  0  0  0  0  0  0
  5  6  2  0  0  0  0
  5  7  1  0  0  0  0
  2  3  1  0  0  0  0
  2  4  1  0  0  0  0
  2  5  1  0  0  0  0
  1  2  1  0  0  0  0
 29 30  2  0  0  0  0
 29 31  1  0  0  0  0
 26 27  1  0  0  0  0
 26 28  2  0  0  0  0
 24 25  1  0  0  0  0
 24 26  1  0  0  0  0
 22 23  1  0  0  0  0
 22 24  2  0  0  0  0
 20 21  1  0  0  0  0
 20 22  1  0  0  0  0
 19 20  2  0  0  0  0
 19 28  1  0  0  0  0
 17 18  1  0  0  0  0
 17 19  1  0  0  0  0
 15 16  1  0  0  0  0
 15 17  1  0  0  0  0
 14 15  2  0  0  0  0
 14 28  1  0  0  0  0
 11 12  1  0  0  0  0
 11 13  1  0  0  0  0
 11 14  1  0  0  0  0
  9 10  1  0  0  0  0
  9 11  1  0  0  0  0
  9 29  1  0  0  0  0
  7  8  1  0  0  0  0
  7  9  1  0  0  0  0
 33 34  1  0  0  0  0
 33 35  1  0  0  0  0
 33 36  1  0  0  0  0
 31 32  1  0  0  0  0
 31 33  1  0  0  0  0
M  END
$$$$
default_name
  -OEChem-12212115393D

 36 37  0     1  0  0  0  0  0999 V2000
   -4.0843   -4.0736    1.2944 H   0  0  0  0  0  0  0  0  0  0  0  0
   -4.0342   -3.2816    0.5484 C   0  0  0  0  0  0  0  0  0  0  0  0
   -4.8842   -2.6126    0.6694 H   0  0  0  0  0  0  0  0  0  0  0  0
   -4.0433   -3.7186   -0.4486 H   0  0  0  0  0  0  0  0  0  0  0  0
   -2.7532   -2.5046    0.7444 C   0  0  0  0  0  0  0  0  0  0  0  0
   -1.9803   -2.8096    1.6434 O   0  0  0  0  0  0  0  0  0  0  0  0
   -2.5332   -1.4966   -0.0966 N   0  0  0  0  0  0  0  0  0  0  0  0
   -3.2312   -1.2816   -0.7936 H   0  0  0  0  0  0  0  0  0  0  0  0
   -1.3593   -0.6196   -0.0536 C   0  0  1  0  0  0  0  0  0  0  0  0
   -0.8076   -0.7284   -0.9882 H   0  0  0  0  0  0  0  0  0  0  0  0
   -1.8162    0.8428    0.0659 C   0  0  0  0  0  0  0  0  0  0  0  0
   -0.9353    1.4871    0.0723 H   0  0  0  0  0  0  0  0  0  0  0  0
   -2.4042    1.0962   -0.8178 H   0  0  0  0  0  0  0  0  0  0  0  0
   -2.6299    1.1582    1.2843 C   0  0  0  0  0  0  0  0  0  0  0  0
   -2.1349    1.5294    2.4863 C   0  0  0  0  0  0  0  0  0  0  0  0
   -1.0794    1.6249    2.7163 H   0  0  0  0  0  0  0  0  0  0  0  0
   -3.1753    1.7845    3.3581 N   0  0  0  0  0  0  0  0  0  0  0  0
   -3.0411    2.0733    4.3161 H   0  0  0  0  0  0  0  0  0  0  0  0
   -4.4007    1.6053    2.7523 C   0  0  0  0  0  0  0  0  0  0  0  0
   -5.7213    1.7630    3.1965 C   0  0  0  0  0  0  0  0  0  0  0  0
   -5.9241    2.0825    4.2081 H   0  0  0  0  0  0  0  0  0  0  0  0
   -6.7770    1.4977    2.3076 C   0  0  0  0  0  0  0  0  0  0  0  0
   -7.8021    1.6129    2.6329 H   0  0  0  0  0  0  0  0  0  0  0  0
   -6.4985    1.0754    0.9948 C   0  0  0  0  0  0  0  0  0  0  0  0
   -7.3139    0.8644    0.3167 H   0  0  0  0  0  0  0  0  0  0  0  0
   -5.1673    0.9183    0.5597 C   0  0  0  0  0  0  0  0  0  0  0  0
   -4.9675    0.5804   -0.4472 H   0  0  0  0  0  0  0  0  0  0  0  0
   -4.0847    1.1827    1.4264 C   0  0  0  0  0  0  0  0  0  0  0  0
   -0.4126   -1.0148    1.0904 C   0  0  0  0  0  0  0  0  0  0  0  0
    0.4730   -0.2430    1.4560 O   0  0  0  0  0  0  0  0  0  0  0  0
   -0.5984   -2.2165    1.6529 N   0  0  0  0  0  0  0  0  0  0  0  0
   -1.3125   -2.8122    1.2586 H   0  0  0  0  0  0  0  0  0  0  0  0
    0.2089   -2.7442    2.7493 C   0  0  0  0  0  0  0  0  0  0  0  0
    0.2463   -2.0166    3.5623 H   0  0  0  0  0  0  0  0  0  0  0  0
   -0.2217   -3.6760    3.1181 H   0  0  0  0  0  0  0  0  0  0  0  0
    1.2255   -2.9297    2.3985 H   0  0  0  0  0  0  0  0  0  0  0  0
  5  6  2  0  0  0  0
  5  7  1  0  0  0  0
  2  3  1  0  0  0  0
  2  4  1  0  0  0  0
  2  5  1  0  0  0  0
  1  2  1  0  0  0  0
 29 30  2  0  0  0  0
 29 31  1  0  0  0  0
 26 27  1  0  0  0  0
 26 28  2  0  0  0  0
 24 25  1  0  0  0  0
 24 26  1  0  0  0  0
 22 23  1  0  0  0  0
 22 24  2  0  0  0  0
 20 21  1  0  0  0  0
 20 22  1  0  0  0  0
 19 20  2  0  0  0  0
 19 28  1  0  0  0  0
 17 18  1  0  0  0  0
 17 19  1  0  0  0  0
 15 16  1  0  0  0  0
 15 17  1  0  0  0  0
 14 15  2  0  0  0  0
 14 28  1  0  0  0  0
 11 12  1  0  0  0  0
 11 13  1  0  0  0  0
 11 14  1  0  0  0  0
  9 10  1  0  0  0  0
  9 11  1  0  0  0  0
  9 29  1  0  0  0  0
  7  8  1  0  0  0  0
  7  9  1  0  0  0  0
 33 34  1  0  0  0  0
 33 35  1  0  0  0  0
 33 36  1  0  0  0  0
 31 32  1  0  0  0  0
 31 33  1  0  0  0  0
M  END
$$$$
default_name
  -OEChem-12212115393D

 36 37  0     1  0  0  0  0  0999 V2000
   -4.0843   -4.0736    1.2944 H   0  0  0  0  0  0  0  0  0  0  0  0
   -4.0342   -3.2816    0.5484 C   0  0  0  0  0  0  0  0  0  0  0  0
   -4.8842   -2.6126    0.6694 H   0  0  0  0  0  0  0  0  0  0  0  0
   -4.0433   -3.7186   -0.4486 H   0  0  0  0  0  0  0  0  0  0  0  0
   -2.7532   -2.5046    0.7444 C   0  0  0  0  0  0  0  0  0  0  0  0
   -1.9803   -2.8096    1.6434 O   0  0  0  0  0  0  0  0  0  0  0  0
   -2.5332   -1.4966   -0.0966 N   0  0  0  0  0  0  0  0  0  0  0  0
   -3.2312   -1.2816   -0.7936 H   0  0  0  0  0  0  0  0  0  0  0  0
   -1.3593   -0.6196   -0.0536 C   0  0  1  0  0  0  0  0  0  0  0  0
   -0.8076   -0.7284   -0.9882 H   0  0  0  0  0  0  0  0  0  0  0  0
   -1.8162    0.8428    0.0659 C   0  0  0  0  0  0  0  0  0  0  0  0
   -0.9353    1.4871    0.0723 H   0  0  0  0  0  0  0  0  0  0  0  0
   -2.4042    1.0962   -0.8178 H   0  0  0  0  0  0  0  0  0  0  0  0
   -2.6299    1.1582    1.2843 C   0  0  0  0  0  0  0  0  0  0  0  0
   -2.1349    1.5294    2.4863 C   0  0  0  0  0  0  0  0  0  0  0  0
   -1.0794    1.6249    2.7163 H   0  0  0  0  0  0  0  0  0  0  0  0
   -3.1753    1.7845    3.3581 N   0  0  0  0  0  0  0  0  0  0  0  0
   -3.0411    2.0733    4.3161 H   0  0  0  0  0  0  0  0  0  0  0  0
   -4.4007    1.6053    2.7523 C   0  0  0  0  0  0  0  0  0  0  0  0
   -5.7213    1.7630    3.1965 C   0  0  0  0  0  0  0  0  0  0  0  0
   -5.9241    2.0825    4.2081 H   0  0  0  0  0  0  0  0  0  0  0  0
   -6.7770    1.4977    2.3076 C   0  0  0  0  0  0  0  0  0  0  0  0
   -7.8021    1.6129    2.6329 H   0  0  0  0  0  0  0  0  0  0  0  0
   -6.4985    1.0754    0.9948 C   0  0  0  0  0  0  0  0  0  0  0  0
   -7.3139    0.8644    0.3167 H   0  0  0  0  0  0  0  0  0  0  0  0
   -5.1673    0.9183    0.5597 C   0  0  0  0  0  0  0  0  0  0  0  0
   -4.9675    0.5804   -0.4472 H   0  0  0  0  0  0  0  0  0  0  0  0
   -4.0847    1.1827    1.4264 C   0  0  0  0  0  0  0  0  0  0  0  0
   -0.4126   -1.0148    1.0904 C   0  0  0  0  0  0  0  0  0  0  0  0
    0.2828   -0.1623    1.6412 O   0  0  0  0  0  0  0  0  0  0  0  0
   -0.3851   -2.3064    1.4453 N   0  0  0  0  0  0  0  0  0  0  0  0
   -0.9460   -2.9515    0.9072 H   0  0  0  0  0  0  0  0  0  0  0  0
    0.4539   -2.8481    2.5107 C   0  0  0  0  0  0  0  0  0  0  0  0
    0.3050   -2.2715    3.4257 H   0  0  0  0  0  0  0  0  0  0  0  0
    0.1982   -3.8921    2.6960 H   0  0  0  0  0  0  0  0  0  0  0  0
    1.5036   -2.7790    2.2204 H   0  0  0  0  0  0  0  0  0  0  0  0
  5  6  2  0  0  0  0
  5  7  1  0  0  0  0
  2  3  1  0  0  0  0
  2  4  1  0  0  0  0
  2  5  1  0  0  0  0
  1  2  1  0  0  0  0
 29 30  2  0  0  0  0
 29 31  1  0  0  0  0
 26 27  1  0  0  0  0
 26 28  2  0  0  0  0
 24 25  1  0  0  0  0
 24 26  1  0  0  0  0
 22 23  1  0  0  0  0
 22 24  2  0  0  0  0
 20 21  1  0  0  0  0
 20 22  1  0  0  0  0
 19 20  2  0  0  0  0
 19 28  1  0  0  0  0
 17 18  1  0  0  0  0
 17 19  1  0  0  0  0
 15 16  1  0  0  0  0
 15 17  1  0  0  0  0
 14 15  2  0  0  0  0
 14 28  1  0  0  0  0
 11 12  1  0  0  0  0
 11 13  1  0  0  0  0
 11 14  1  0  0  0  0
  9 10  1  0  0  0  0
  9 11  1  0  0  0  0
  9 29  1  0  0  0  0
  7  8  1  0  0  0  0
  7  9  1  0  0  0  0
 33 34  1  0  0  0  0
 33 35  1  0  0  0  0
 33 36  1  0  0  0  0
 31 32  1  0  0  0  0
 31 33  1  0  0  0  0
M  END
$$$$
default_name
  -OEChem-12212115393D

 36 37  0     1  0  0  0  0  0999 V2000
   -4.0843   -4.0736    1.2944 H   0  0  0  0  0  0  0  0  0  0  0  0
   -4.0342   -3.2816    0.5484 C   0  0  0  0  0  0  0  0  0  0  0  0
   -4.8842   -2.6126    0.6694 H   0  0  0  0  0  0  0  0  0  0  0  0
   -4.0433   -3.7186   -0.4486 H   0  0  0  0  0  0  0  0  0  0  0  0
   -2.7532   -2.5046    0.7444 C   0  0  0  0  0  0  0  0  0  0  0  0
   -1.9803   -2.8096    1.6434 O   0  0  0  0  0  0  0  0  0  0  0  0
   -2.5332   -1.4966   -0.0966 N   0  0  0  0  0  0  0  0  0  0  0  0
   -3.2312   -1.2816   -0.7936 H   0  0  0  0  0  0  0  0  0  0  0  0
   -1.3593   -0.6196   -0.0536 C   0  0  1  0  0  0  0  0  0  0  0  0
   -0.8076   -0.7284   -0.9882 H   0  0  0  0  0  0  0  0  0  0  0  0
   -1.8162    0.8428    0.0659 C   0  0  0  0  0  0  0  0  0  0  0  0
   -0.9353    1.4871    0.0723 H   0  0  0  0  0  0  0  0  0  0  0  0
   -2.4042    1.0962   -0.8178 H   0  0  0  0  0  0  0  0  0  0  0  0
   -2.6299    1.1582    1.2843 C   0  0  0  0  0  0  0  0  0  0  0  0
   -2.1349    1.5294    2.4863 C   0  0  0  0  0  0  0  0  0  0  0  0
   -1.0794    1.6249    2.7163 H   0  0  0  0  0  0  0  0  0  0  0  0
   -3.1753    1.7845    3.3581 N   0  0  0  0  0  0  0  0  0  0  0  0
   -3.0411    2.0733    4.3161 H   0  0  0  0  0  0  0  0  0  0  0  0
   -4.4007    1.6053    2.7523 C   0  0  0  0  0  0  0  0  0  0  0  0
   -5.7213    1.7630    3.1965 C   0  0  0  0  0  0  0  0  0  0  0  0
   -5.9241    2.0825    4.2081 H   0  0  0  0  0  0  0  0  0  0  0  0
   -6.7770    1.4977    2.3076 C   0  0  0  0  0  0  0  0  0  0  0  0
   -7.8021    1.6129    2.6329 H   0  0  0  0  0  0  0  0  0  0  0  0
   -6.4985    1.0754    0.9948 C   0  0  0  0  0  0  0  0  0  0  0  0
   -7.3139    0.8644    0.3167 H   0  0  0  0  0  0  0  0  0  0  0  0
   -5.1673    0.9183    0.5597 C   0  0  0  0  0  0  0  0  0  0  0  0
   -4.9675    0.5804   -0.4472 H   0  0  0  0  0  0  0  0  0  0  0  0
   -4.0847    1.1827    1.4264 C   0  0  0  0  0  0  0  0  0  0  0  0
   -0.4126   -1.0148    1.0904 C   0  0  0  0  0  0  0  0  0  0  0  0
    0.0712   -0.1506    1.8204 O   0  0  0  0  0  0  0  0  0  0  0  0
   -0.1479   -2.3191    1.2447 N   0  0  0  0  0  0  0  0  0  0  0  0
   -0.5417   -2.9593    0.5700 H   0  0  0  0  0  0  0  0  0  0  0  0
    0.7264   -2.8632    2.2800 C   0  0  0  0  0  0  0  0  0  0  0  0
    0.4199   -2.4847    3.2570 H   0  0  0  0  0  0  0  0  0  0  0  0
    0.6735   -3.9526    2.2818 H   0  0  0  0  0  0  0  0  0  0  0  0
    1.7550   -2.5515    2.0910 H   0  0  0  0  0  0  0  0  0  0  0  0
  5  6  2  0  0  0  0
  5  7  1  0  0  0  0
  2  3  1  0  0  0  0
  2  4  1  0  0  0  0
  2  5  1  0  0  0  0
  1  2  1  0  0  0  0
 29 30  2  0  0  0  0
 29 31  1  0  0  0  0
 26 27  1  0  0  0  0
 26 28  2  0  0  0  0
 24 25  1  0  0  0  0
 24 26  1  0  0  0  0
 22 23  1  0  0  0  0
 22 24  2  0  0  0  0
 20 21  1  0  0  0  0
 20 22  1  0  0  0  0
 19 20  2  0  0  0  0
 19 28  1  0  0  0  0
 17 18  1  0  0  0  0
 17 19  1  0  0  0  0
 15 16  1  0  0  0  0
 15 17  1  0  0  0  0
 14 15  2  0  0  0  0
 14 28  1  0  0  0  0
 11 12  1  0  0  0  0
 11 13  1  0  0  0  0
 11 14  1  0  0  0  0
  9 10  1  0  0  0  0
  9 11  1  0  0  0  0
  9 29  1  0  0  0  0
  7  8  1  0  0  0  0
  7  9  1  0  0  0  0
 33 34  1  0  0  0  0
 33 35  1  0  0  0  0
 33 36  1  0  0  0  0
 31 32  1  0  0  0  0
 31 33  1  0  0  0  0
M  END
$$$$
default_name
  -OEChem-12212115393D

 36 37  0     1  0  0  0  0  0999 V2000
   -4.0843   -4.0736    1.2944 H   0  0  0  0  0  0  0  0  0  0  0  0
   -4.0342   -3.2816    0.5484 C   0  0  0  0  0  0  0  0  0  0  0  0
   -4.8842   -2.6126    0.6694 H   0  0  0  0  0  0  0  0  0  0  0  0
   -4.0433   -3.7186   -0.4486 H   0  0  0  0  0  0  0  0  0  0  0  0
   -2.7532   -2.5046    0.7444 C   0  0  0  0  0  0  0  0  0  0  0  0
   -1.9803   -2.8096    1.6434 O   0  0  0  0  0  0  0  0  0  0  0  0
   -2.5332   -1.4966   -0.0966 N   0  0  0  0  0  0  0  0  0  0  0  0
   -3.2312   -1.2816   -0.7936 H   0  0  0  0  0  0  0  0  0  0  0  0
   -1.3593   -0.6196   -0.0536 C   0  0  1  0  0  0  0  0  0  0  0  0
   -0.8076   -0.7284   -0.9882 H   0  0  0  0  0  0  0  0  0  0  0  0
   -1.8162    0.8428    0.0659 C   0  0  0  0  0  0  0  0  0  0  0  0
   -0.9353    1.4871    0.0723 H   0  0  0  0  0  0  0  0  0  0  0  0
   -2.4042    1.0962   -0.8178 H   0  0  0  0  0  0  0  0  0  0  0  0
   -2.6299    1.1582    1.2843 C   0  0  0  0  0  0  0  0  0  0  0  0
   -2.1349    1.5294    2.4863 C   0  0  0  0  0  0  0  0  0  0  0  0
   -1.0794    1.6249    2.7163 H   0  0  0  0  0  0  0  0  0  0  0  0
   -3.1753    1.7845    3.3581 N   0  0  0  0  0  0  0  0  0  0  0  0
   -3.0411    2.0733    4.3161 H   0  0  0  0  0  0  0  0  0  0  0  0
   -4.4007    1.6053    2.7523 C   0  0  0  0  0  0  0  0  0  0  0  0
   -5.7213    1.7630    3.1965 C   0  0  0  0  0  0  0  0  0  0  0  0
   -5.9241    2.0825    4.2081 H   0  0  0  0  0  0  0  0  0  0  0  0
   -6.7770    1.4977    2.3076 C   0  0  0  0  0  0  0  0  0  0  0  0
   -7.8021    1.6129    2.6329 H   0  0  0  0  0  0  0  0  0  0  0  0
   -6.4985    1.0754    0.9948 C   0  0  0  0  0  0  0  0  0  0  0  0
   -7.3139    0.8644    0.3167 H   0  0  0  0  0  0  0  0  0  0  0  0
   -5.1673    0.9183    0.5597 C   0  0  0  0  0  0  0  0  0  0  0  0
   -4.9675    0.5804   -0.4472 H   0  0  0  0  0  0  0  0  0  0  0  0
   -4.0847    1.1827    1.4264 C   0  0  0  0  0  0  0  0  0  0  0  0
   -0.4126   -1.0148    1.0904 C   0  0  0  0  0  0  0  0  0  0  0  0
   -0.1474   -0.2087    1.9812 O   0  0  0  0  0  0  0  0  0  0  0  0
    0.0971   -2.2536    1.0646 N   0  0  0  0  0  0  0  0  0  0  0  0
   -0.1273   -2.8353    0.2699 H   0  0  0  0  0  0  0  0  0  0  0  0
    1.0079   -2.7885    2.0729 C   0  0  0  0  0  0  0  0  0  0  0  0
    0.5831   -2.6417    3.0677 H   0  0  0  0  0  0  0  0  0  0  0  0
    1.1719   -3.8535    1.9037 H   0  0  0  0  0  0  0  0  0  0  0  0
    1.9627   -2.2627    2.0189 H   0  0  0  0  0  0  0  0  0  0  0  0
  5  6  2  0  0  0  0
  5  7  1  0  0  0  0
  2  3  1  0  0  0  0
  2  4  1  0  0  0  0
  2  5  1  0  0  0  0
  1  2  1  0  0  0  0
 29 30  2  0  0  0  0
 29 31  1  0  0  0  0
 26 27  1  0  0  0  0
 26 28  2  0  0  0  0
 24 25  1  0  0  0  0
 24 26  1  0  0  0  0
 22 23  1  0  0  0  0
 22 24  2  0  0  0  0
 20 21  1  0  0  0  0
 20 22  1  0  0  0  0
 19 20  2  0  0  0  0
 19 28  1  0  0  0  0
 17 18  1  0  0  0  0
 17 19  1  0  0  0  0
 15 16  1  0  0  0  0
 15 17  1  0  0  0  0
 14 15  2  0  0  0  0
 14 28  1  0  0  0  0
 11 12  1  0  0  0  0
 11 13  1  0  0  0  0
 11 14  1  0  0  0  0
  9 10  1  0  0  0  0
  9 11  1  0  0  0  0
  9 29  1  0  0  0  0
  7  8  1  0  0  0  0
  7  9  1  0  0  0  0
 33 34  1  0  0  0  0
 33 35  1  0  0  0  0
 33 36  1  0  0  0  0
 31 32  1  0  0  0  0
 31 33  1  0  0  0  0
M  END
$$$$
default_name
  -OEChem-12212115393D

 36 37  0     1  0  0  0  0  0999 V2000
   -4.0843   -4.0736    1.2944 H   0  0  0  0  0  0  0  0  0  0  0  0
   -4.0342   -3.2816    0.5484 C   0  0  0  0  0  0  0  0  0  0  0  0
   -4.8842   -2.6126    0.6694 H   0  0  0  0  0  0  0  0  0  0  0  0
   -4.0433   -3.7186   -0.4486 H   0  0  0  0  0  0  0  0  0  0  0  0
   -2.7532   -2.5046    0.7444 C   0  0  0  0  0  0  0  0  0  0  0  0
   -1.9803   -2.8096    1.6434 O   0  0  0  0  0  0  0  0  0  0  0  0
   -2.5332   -1.4966   -0.0966 N   0  0  0  0  0  0  0  0  0  0  0  0
   -3.2312   -1.2816   -0.7936 H   0  0  0  0  0  0  0  0  0  0  0  0
   -1.3593   -0.6196   -0.0536 C   0  0  1  0  0  0  0  0  0  0  0  0
   -0.8076   -0.7284   -0.9882 H   0  0  0  0  0  0  0  0  0  0  0  0
   -1.8162    0.8428    0.0659 C   0  0  0  0  0  0  0  0  0  0  0  0
   -0.9353    1.4871    0.0723 H   0  0  0  0  0  0  0  0  0  0  0  0
   -2.4042    1.0962   -0.8178 H   0  0  0  0  0  0  0  0  0  0  0  0
   -2.6299    1.1582    1.2843 C   0  0  0  0  0  0  0  0  0  0  0  0
   -2.1349    1.5294    2.4863 C   0  0  0  0  0  0  0  0  0  0  0  0
   -1.0794    1.6249    2.7163 H   0  0  0  0  0  0  0  0  0  0  0  0
   -3.1753    1.7845    3.3581 N   0  0  0  0  0  0  0  0  0  0  0  0
   -3.0411    2.0733    4.3161 H   0  0  0  0  0  0  0  0  0  0  0  0
   -4.4007    1.6053    2.7523 C   0  0  0  0  0  0  0  0  0  0  0  0
   -5.7213    1.7630    3.1965 C   0  0  0  0  0  0  0  0  0  0  0  0
   -5.9241    2.0825    4.2081 H   0  0  0  0  0  0  0  0  0  0  0  0
   -6.7770    1.4977    2.3076 C   0  0  0  0  0  0  0  0  0  0  0  0
   -7.8021    1.6129    2.6329 H   0  0  0  0  0  0  0  0  0  0  0  0
   -6.4985    1.0754    0.9948 C   0  0  0  0  0  0  0  0  0  0  0  0
   -7.3139    0.8644    0.3167 H   0  0  0  0  0  0  0  0  0  0  0  0
   -5.1673    0.9183    0.5597 C   0  0  0  0  0  0  0  0  0  0  0  0
   -4.9675    0.5804   -0.4472 H   0  0  0  0  0  0  0  0  0  0  0  0
   -4.0847    1.1827    1.4264 C   0  0  0  0  0  0  0  0  0  0  0  0
   -0.4126   -1.0148    1.0904 C   0  0  0  0  0  0  0  0  0  0  0  0
   -0.3581   -0.3325    2.1127 O   0  0  0  0  0  0  0  0  0  0  0  0
    0.3330   -2.1144    0.9174 N   0  0  0  0  0  0  0  0  0  0  0  0
    0.2691   -2.5877    0.0274 H   0  0  0  0  0  0  0  0  0  0  0  0
    1.2792   -2.6290    1.9034 C   0  0  0  0  0  0  0  0  0  0  0  0
    0.7837   -2.7316    2.8707 H   0  0  0  0  0  0  0  0  0  0  0  0
    1.6593   -3.6013    1.5874 H   0  0  0  0  0  0  0  0  0  0  0  0
    2.1124   -1.9322    2.0092 H   0  0  0  0  0  0  0  0  0  0  0  0
  5  6  2  0  0  0  0
  5  7  1  0  0  0  0
  2  3  1  0  0  0  0
  2  4  1  0  0  0  0
  2  5  1  0  0  0  0
  1  2  1  0  0  0  0
 29 30  2  0  0  0  0
 29 31  1  0  0  0  0
 26 27  1  0  0  0  0
 26 28  2  0  0  0  0
 24 25  1  0  0  0  0
 24 26  1  0  0  0  0
 22 23  1  0  0  0  0
 22 24  2  0  0  0  0
 20 21  1  0  0  0  0
 20 22  1  0  0  0  0
 19 20  2  0  0  0  0
 19 28  1  0  0  0  0
 17 18  1  0  0  0  0
 17 19  1  0  0  0  0
 15 16  1  0  0  0  0
 15 17  1  0  0  0  0
 14 15  2  0  0  0  0
 14 28  1  0  0  0  0
 11 12  1  0  0  0  0
 11 13  1  0  0  0  0
 11 14  1  0  0  0  0
  9 10  1  0  0  0  0
  9 11  1  0  0  0  0
  9 29  1  0  0  0  0
  7  8  1  0  0  0  0
  7  9  1  0  0  0  0
 33 34  1  0  0  0  0
 33 35  1  0  0  0  0
 33 36  1  0  0  0  0
 31 32  1  0  0  0  0
 31 33  1  0  0  0  0
M  END
$$$$
default_name
  -OEChem-12212115393D

 36 37  0     1  0  0  0  0  0999 V2000
   -4.0843   -4.0736    1.2944 H   0  0  0  0  0  0  0  0  0  0  0  0
   -4.0342   -3.2816    0.5484 C   0  0  0  0  0  0  0  0  0  0  0  0
   -4.8842   -2.6126    0.6694 H   0  0  0  0  0  0  0  0  0  0  0  0
   -4.0433   -3.7186   -0.4486 H   0  0  0  0  0  0  0  0  0  0  0  0
   -2.7532   -2.5046    0.7444 C   0  0  0  0  0  0  0  0  0  0  0  0
   -1.9803   -2.8096    1.6434 O   0  0  0  0  0  0  0  0  0  0  0  0
   -2.5332   -1.4966   -0.0966 N   0  0  0  0  0  0  0  0  0  0  0  0
   -3.2312   -1.2816   -0.7936 H   0  0  0  0  0  0  0  0  0  0  0  0
   -1.3593   -0.6196   -0.0536 C   0  0  1  0  0  0  0  0  0  0  0  0
   -0.8076   -0.7284   -0.9882 H   0  0  0  0  0  0  0  0  0  0  0  0
   -1.8162    0.8428    0.0659 C   0  0  0  0  0  0  0  0  0  0  0  0
   -0.9353    1.4871    0.0723 H   0  0  0  0  0  0  0  0  0  0  0  0
   -2.4042    1.0962   -0.8178 H   0  0  0  0  0  0  0  0  0  0  0  0
   -2.6299    1.1582    1.2843 C   0  0  0  0  0  0  0  0  0  0  0  0
   -2.1349    1.5294    2.4863 C   0  0  0  0  0  0  0  0  0  0  0  0
   -1.0794    1.6249    2.7163 H   0  0  0  0  0  0  0  0  0  0  0  0
   -3.1753    1.7845    3.3581 N   0  0  0  0  0  0  0  0  0  0  0  0
   -3.0411    2.0733    4.3161 H   0  0  0  0  0  0  0  0  0  0  0  0
   -4.4007    1.6053    2.7523 C   0  0  0  0  0  0  0  0  0  0  0  0
   -5.7213    1.7630    3.1965 C   0  0  0  0  0  0  0  0  0  0  0  0
   -5.9241    2.0825    4.2081 H   0  0  0  0  0  0  0  0  0  0  0  0
   -6.7770    1.4977    2.3076 C   0  0  0  0  0  0  0  0  0  0  0  0
   -7.8021    1.6129    2.6329 H   0  0  0  0  0  0  0  0  0  0  0  0
   -6.4985    1.0754    0.9948 C   0  0  0  0  0  0  0  0  0  0  0  0
   -7.3139    0.8644    0.3167 H   0  0  0  0  0  0  0  0  0  0  0  0
   -5.1673    0.9183    0.5597 C   0  0  0  0  0  0  0  0  0  0  0  0
   -4.9675    0.5804   -0.4472 H   0  0  0  0  0  0  0  0  0  0  0  0
   -4.0847    1.1827    1.4264 C   0  0  0  0  0  0  0  0  0  0  0  0
   -0.4126   -1.0148    1.0904 C   0  0  0  0  0  0  0  0  0  0  0  0
   -0.5464   -0.5137    2.2060 O   0  0  0  0  0  0  0  0  0  0  0  0
    0.5439   -1.9111    0.8132 N   0  0  0  0  0  0  0  0  0  0  0  0
    0.6204   -2.2336   -0.1410 H   0  0  0  0  0  0  0  0  0  0  0  0
    1.5218   -2.3957    1.7833 C   0  0  0  0  0  0  0  0  0  0  0  0
    1.0078   -2.7484    2.6794 H   0  0  0  0  0  0  0  0  0  0  0  0
    2.1026   -3.2135    1.3546 H   0  0  0  0  0  0  0  0  0  0  0  0
    2.1940   -1.5826    2.0624 H   0  0  0  0  0  0  0  0  0  0  0  0
  5  6  2  0  0  0  0
  5  7  1  0  0  0  0
  2  3  1  0  0  0  0
  2  4  1  0  0  0  0
  2  5  1  0  0  0  0
  1  2  1  0  0  0  0
 29 30  2  0  0  0  0
 29 31  1  0  0  0  0
 26 27  1  0  0  0  0
 26 28  2  0  0  0  0
 24 25  1  0  0  0  0
 24 26  1  0  0  0  0
 22 23  1  0  0  0  0
 22 24  2  0  0  0  0
 20 21  1  0  0  0  0
 20 22  1  0  0  0  0
 19 20  2  0  0  0  0
 19 28  1  0  0  0  0
 17 18  1  0  0  0  0
 17 19  1  0  0  0  0
 15 16  1  0  0  0  0
 15 17  1  0  0  0  0
 14 15  2  0  0  0  0
 14 28  1  0  0  0  0
 11 12  1  0  0  0  0
 11 13  1  0  0  0  0
 11 14  1  0  0  0  0
  9 10  1  0  0  0  0
  9 11  1  0  0  0  0
  9 29  1  0  0  0  0
  7  8  1  0  0  0  0
  7  9  1  0  0  0  0
 33 34  1  0  0  0  0
 33 35  1  0  0  0  0
 33 36  1  0  0  0  0
 31 32  1  0  0  0  0
 31 33  1  0  0  0  0
M  END
$$$$
default_name
  -OEChem-12212115393D

 36 37  0     1  0  0  0  0  0999 V2000
   -4.0843   -4.0736    1.2944 H   0  0  0  0  0  0  0  0  0  0  0  0
   -4.0342   -3.2816    0.5484 C   0  0  0  0  0  0  0  0  0  0  0  0
   -4.8842   -2.6126    0.6694 H   0  0  0  0  0  0  0  0  0  0  0  0
   -4.0433   -3.7186   -0.4486 H   0  0  0  0  0  0  0  0  0  0  0  0
   -2.7532   -2.5046    0.7444 C   0  0  0  0  0  0  0  0  0  0  0  0
   -1.9803   -2.8096    1.6434 O   0  0  0  0  0  0  0  0  0  0  0  0
   -2.5332   -1.4966   -0.0966 N   0  0  0  0  0  0  0  0  0  0  0  0
   -3.2312   -1.2816   -0.7936 H   0  0  0  0  0  0  0  0  0  0  0  0
   -1.3593   -0.6196   -0.0536 C   0  0  1  0  0  0  0  0  0  0  0  0
   -0.8076   -0.7284   -0.9882 H   0  0  0  0  0  0  0  0  0  0  0  0
   -1.8162    0.8428    0.0659 C   0  0  0  0  0  0  0  0  0  0  0  0
   -0.9353    1.4871    0.0723 H   0  0  0  0  0  0  0  0  0  0  0  0
   -2.4042    1.0962   -0.8178 H   0  0  0  0  0  0  0  0  0  0  0  0
   -2.6299    1.1582    1.2843 C   0  0  0  0  0  0  0  0  0  0  0  0
   -2.1349    1.5294    2.4863 C   0  0  0  0  0  0  0  0  0  0  0  0
   -1.0794    1.6249    2.7163 H   0  0  0  0  0  0  0  0  0  0  0  0
   -3.1753    1.7845    3.3581 N   0  0  0  0  0  0  0  0  0  0  0  0
   -3.0411    2.0733    4.3161 H   0  0  0  0  0  0  0  0  0  0  0  0
   -4.4007    1.6053    2.7523 C   0  0  0  0  0  0  0  0  0  0  0  0
   -5.7213    1.7630    3.1965 C   0  0  0  0  0  0  0  0  0  0  0  0
   -5.9241    2.0825    4.2081 H   0  0  0  0  0  0  0  0  0  0  0  0
   -6.7770    1.4977    2.3076 C   0  0  0  0  0  0  0  0  0  0  0  0
   -7.8021    1.6129    2.6329 H   0  0  0  0  0  0  0  0  0  0  0  0
   -6.4985    1.0754    0.9948 C   0  0  0  0  0  0  0  0  0  0  0  0
   -7.3139    0.8644    0.3167 H   0  0  0  0  0  0  0  0  0  0  0  0
   -5.1673    0.9183    0.5597 C   0  0  0  0  0  0  0  0  0  0  0  0
   -4.9675    0.5804   -0.4472 H   0  0  0  0  0  0  0  0  0  0  0  0
   -4.0847    1.1827    1.4264 C   0  0  0  0  0  0  0  0  0  0  0  0
   -0.4126   -1.0148    1.0904 C   0  0  0  0  0  0  0  0  0  0  0  0
   -0.6997   -0.7399    2.2547 O   0  0  0  0  0  0  0  0  0  0  0  0
    0.7153   -1.6574    0.7589 N   0  0  0  0  0  0  0  0  0  0  0  0
    0.9027   -1.7969   -0.2238 H   0  0  0  0  0  0  0  0  0  0  0  0
    1.7192   -2.1044    1.7205 C   0  0  0  0  0  0  0  0  0  0  0  0
    1.2403   -2.6909    2.5069 H   0  0  0  0  0  0  0  0  0  0  0  0
    2.4715   -2.7163    1.2211 H   0  0  0  0  0  0  0  0  0  0  0  0
    2.2018   -1.2376    2.1750 H   0  0  0  0  0  0  0  0  0  0  0  0
  5  6  2  0  0  0  0
  5  7  1  0  0  0  0
  2  3  1  0  0  0  0
  2  4  1  0  0  0  0
  2  5  1  0  0  0  0
  1  2  1  0  0  0  0
 29 30  2  0  0  0  0
 29 31  1  0  0  0  0
 26 27  1  0  0  0  0
 26 28  2  0  0  0  0
 24 25  1  0  0  0  0
 24 26  1  0  0  0  0
 22 23  1  0  0  0  0
 22 24  2  0  0  0  0
 20 21  1  0  0  0  0
 20 22  1  0  0  0  0
 19 20  2  0  0  0  0
 19 28  1  0  0  0  0
 17 18  1  0  0  0  0
 17 19  1  0  0  0  0
 15 16  1  0  0  0  0
 15 17  1  0  0  0  0
 14 15  2  0  0  0  0
 14 28  1  0  0  0  0
 11 12  1  0  0  0  0
 11 13  1  0  0  0  0
 11 14  1  0  0  0  0
  9 10  1  0  0  0  0
  9 11  1  0  0  0  0
  9 29  1  0  0  0  0
  7  8  1  0  0  0  0
  7  9  1  0  0  0  0
 33 34  1  0  0  0  0
 33 35  1  0  0  0  0
 33 36  1  0  0  0  0
 31 32  1  0  0  0  0
 31 33  1  0  0  0  0
M  END
$$$$
default_name
  -OEChem-12212115393D

 36 37  0     1  0  0  0  0  0999 V2000
   -4.0843   -4.0736    1.2944 H   0  0  0  0  0  0  0  0  0  0  0  0
   -4.0342   -3.2816    0.5484 C   0  0  0  0  0  0  0  0  0  0  0  0
   -4.8842   -2.6126    0.6694 H   0  0  0  0  0  0  0  0  0  0  0  0
   -4.0433   -3.7186   -0.4486 H   0  0  0  0  0  0  0  0  0  0  0  0
   -2.7532   -2.5046    0.7444 C   0  0  0  0  0  0  0  0  0  0  0  0
   -1.9803   -2.8096    1.6434 O   0  0  0  0  0  0  0  0  0  0  0  0
   -2.5332   -1.4966   -0.0966 N   0  0  0  0  0  0  0  0  0  0  0  0
   -3.2312   -1.2816   -0.7936 H   0  0  0  0  0  0  0  0  0  0  0  0
   -1.3593   -0.6196   -0.0536 C   0  0  1  0  0  0  0  0  0  0  0  0
   -0.8076   -0.7284   -0.9882 H   0  0  0  0  0  0  0  0  0  0  0  0
   -1.8162    0.8428    0.0659 C   0  0  0  0  0  0  0  0  0  0  0  0
   -0.9353    1.4871    0.0723 H   0  0  0  0  0  0  0  0  0  0  0  0
   -2.4042    1.0962   -0.8178 H   0  0  0  0  0  0  0  0  0  0  0  0
   -2.6299    1.1582    1.2843 C   0  0  0  0  0  0  0  0  0  0  0  0
   -2.1349    1.5294    2.4863 C   0  0  0  0  0  0  0  0  0  0  0  0
   -1.0794    1.6249    2.7163 H   0  0  0  0  0  0  0  0  0  0  0  0
   -3.1753    1.7845    3.3581 N   0  0  0  0  0  0  0  0  0  0  0  0
   -3.0411    2.0733    4.3161 H   0  0  0  0  0  0  0  0  0  0  0  0
   -4.4007    1.6053    2.7523 C   0  0  0  0  0  0  0  0  0  0  0  0
   -5.7213    1.7630    3.1965 C   0  0  0  0  0  0  0  0  0  0  0  0
   -5.9241    2.0825    4.2081 H   0  0  0  0  0  0  0  0  0  0  0  0
   -6.7770    1.4977    2.3076 C   0  0  0  0  0  0  0  0  0  0  0  0
   -7.8021    1.6129    2.6329 H   0  0  0  0  0  0  0  0  0  0  0  0
   -6.4985    1.0754    0.9948 C   0  0  0  0  0  0  0  0  0  0  0  0
   -7.3139    0.8644    0.3167 H   0  0  0  0  0  0  0  0  0  0  0  0
   -5.1673    0.9183    0.5597 C   0  0  0  0  0  0  0  0  0  0  0  0
   -4.9675    0.5804   -0.4472 H   0  0  0  0  0  0  0  0  0  0  0  0
   -4.0847    1.1827    1.4264 C   0  0  0  0  0  0  0  0  0  0  0  0
   -0.4126   -1.0148    1.0904 C   0  0  0  0  0  0  0  0  0  0  0  0
   -0.8074   -0.9957    2.2555 O   0  0  0  0  0  0  0  0  0  0  0  0
    0.8357   -1.3707    0.7584 N   0  0  0  0  0  0  0  0  0  0  0  0
    1.0968   -1.3075   -0.2153 H   0  0  0  0  0  0  0  0  0  0  0  0
    1.8579   -1.7751    1.7195 C   0  0  0  0  0  0  0  0  0  0  0  0
    1.4652   -2.5631    2.3649 H   0  0  0  0  0  0  0  0  0  0  0  0
    2.7410   -2.1436    1.1959 H   0  0  0  0  0  0  0  0  0  0  0  0
    2.1355   -0.9209    2.3394 H   0  0  0  0  0  0  0  0  0  0  0  0
  5  6  2  0  0  0  0
  5  7  1  0  0  0  0
  2  3  1  0  0  0  0
  2  4  1  0  0  0  0
  2  5  1  0  0  0  0
  1  2  1  0  0  0  0
 29 30  2  0  0  0  0
 29 31  1  0  0  0  0
 26 27  1  0  0  0  0
 26 28  2  0  0  0  0
 24 25  1  0  0  0  0
 24 26  1  0  0  0  0
 22 23  1  0  0  0  0
 22 24  2  0  0  0  0
 20 21  1  0  0  0  0
 20 22  1  0  0  0  0
 19 20  2  0  0  0  0
 19 28  1  0  0  0  0
 17 18  1  0  0  0  0
 17 19  1  0  0  0  0
 15 16  1  0  0  0  0
 15 17  1  0  0  0  0
 14 15  2  0  0  0  0
 14 28  1  0  0  0  0
 11 12  1  0  0  0  0
 11 13  1  0  0  0  0
 11 14  1  0  0  0  0
  9 10  1  0  0  0  0
  9 11  1  0  0  0  0
  9 29  1  0  0  0  0
  7  8  1  0  0  0  0
  7  9  1  0  0  0  0
 33 34  1  0  0  0  0
 33 35  1  0  0  0  0
 33 36  1  0  0  0  0
 31 32  1  0  0  0  0
 31 33  1  0  0  0  0
M  END
$$$$
default_name
  -OEChem-12212115393D

 36 37  0     1  0  0  0  0  0999 V2000
   -4.0843   -4.0736    1.2944 H   0  0  0  0  0  0  0  0  0  0  0  0
   -4.0342   -3.2816    0.5484 C   0  0  0  0  0  0  0  0  0  0  0  0
   -4.8842   -2.6126    0.6694 H   0  0  0  0  0  0  0  0  0  0  0  0
   -4.0433   -3.7186   -0.4486 H   0  0  0  0  0  0  0  0  0  0  0  0
   -2.7532   -2.5046    0.7444 C   0  0  0  0  0  0  0  0  0  0  0  0
   -1.9803   -2.8096    1.6434 O   0  0  0  0  0  0  0  0  0  0  0  0
   -2.5332   -1.4966   -0.0966 N   0  0  0  0  0  0  0  0  0  0  0  0
   -3.2312   -1.2816   -0.7936 H   0  0  0  0  0  0  0  0  0  0  0  0
   -1.3593   -0.6196   -0.0536 C   0  0  1  0  0  0  0  0  0  0  0  0
   -0.8076   -0.7284   -0.9882 H   0  0  0  0  0  0  0  0  0  0  0  0
   -1.8162    0.8428    0.0659 C   0  0  0  0  0  0  0  0  0  0  0  0
   -0.9353    1.4871    0.0723 H   0  0  0  0  0  0  0  0  0  0  0  0
   -2.4042    1.0962   -0.8178 H   0  0  0  0  0  0  0  0  0  0  0  0
   -2.6299    1.1582    1.2843 C   0  0  0  0  0  0  0  0  0  0  0  0
   -2.1349    1.5294    2.4863 C   0  0  0  0  0  0  0  0  0  0  0  0
   -1.0794    1.6249    2.7163 H   0  0  0  0  0  0  0  0  0  0  0  0
   -3.1753    1.7845    3.3581 N   0  0  0  0  0  0  0  0  0  0  0  0
   -3.0411    2.0733    4.3161 H   0  0  0  0  0  0  0  0  0  0  0  0
   -4.4007    1.6053    2.7523 C   0  0  0  0  0  0  0  0  0  0  0  0
   -5.7213    1.7630    3.1965 C   0  0  0  0  0  0  0  0  0  0  0  0
   -5.9241    2.0825    4.2081 H   0  0  0  0  0  0  0  0  0  0  0  0
   -6.7770    1.4977    2.3076 C   0  0  0  0  0  0  0  0  0  0  0  0
   -7.8021    1.6129    2.6329 H   0  0  0  0  0  0  0  0  0  0  0  0
   -6.4985    1.0754    0.9948 C   0  0  0  0  0  0  0  0  0  0  0  0
   -7.3139    0.8644    0.3167 H   0  0  0  0  0  0  0  0  0  0  0  0
   -5.1673    0.9183    0.5597 C   0  0  0  0  0  0  0  0  0  0  0  0
   -4.9675    0.5804   -0.4472 H   0  0  0  0  0  0  0  0  0  0  0  0
   -4.0847    1.1827    1.4264 C   0  0  0  0  0  0  0  0  0  0  0  0
   -0.4126   -1.0148    1.0904 C   0  0  0  0  0  0  0  0  0  0  0  0
   -0.8621   -1.2636    2.2083 O   0  0  0  0  0  0  0  0  0  0  0  0
    0.8967   -1.0704    0.8116 N   0  0  0  0  0  0  0  0  0  0  0  0
    1.1894   -0.7988   -0.1162 H   0  0  0  0  0  0  0  0  0  0  0  0
    1.9285   -1.4300    1.7803 C   0  0  0  0  0  0  0  0  0  0  0  0
    1.6673   -2.3736    2.2631 H   0  0  0  0  0  0  0  0  0  0  0  0
    2.8925   -1.5345    1.2808 H   0  0  0  0  0  0  0  0  0  0  0  0
    1.9994   -0.6539    2.5442 H   0  0  0  0  0  0  0  0  0  0  0  0
  5  6  2  0  0  0  0
  5  7  1  0  0  0  0
  2  3  1  0  0  0  0
  2  4  1  0  0  0  0
  2  5  1  0  0  0  0
  1  2  1  0  0  0  0
 29 30  2  0  0  0  0
 29 31  1  0  0  0  0
 26 27  1  0  0  0  0
 26 28  2  0  0  0  0
 24 25  1  0  0  0  0
 24 26  1  0  0  0  0
 22 23  1  0  0  0  0
 22 24  2  0  0  0  0
 20 21  1  0  0  0  0
 20 22  1  0  0  0  0
 19 20  2  0  0  0  0
 19 28  1  0  0  0  0
 17 18  1  0  0  0  0
 17 19  1  0  0  0  0
 15 16  1  0  0  0  0
 15 17  1  0  0  0  0
 14 15  2  0  0  0  0
 14 28  1  0  0  0  0
 11 12  1  0  0  0  0
 11 13  1  0  0  0  0
 11 14  1  0  0  0  0
  9 10  1  0  0  0  0
  9 11  1  0  0  0  0
  9 29  1  0  0  0  0
  7  8  1  0  0  0  0
  7  9  1  0  0  0  0
 33 34  1  0  0  0  0
 33 35  1  0  0  0  0
 33 36  1  0  0  0  0
 31 32  1  0  0  0  0
 31 33  1  0  0  0  0
M  END
$$$$
default_name
  -OEChem-12212115393D

 36 37  0     1  0  0  0  0  0999 V2000
   -4.0843   -4.0736    1.2944 H   0  0  0  0  0  0  0  0  0  0  0  0
   -4.0342   -3.2816    0.5484 C   0  0  0  0  0  0  0  0  0  0  0  0
   -4.8842   -2.6126    0.6694 H   0  0  0  0  0  0  0  0  0  0  0  0
   -4.0433   -3.7186   -0.4486 H   0  0  0  0  0  0  0  0  0  0  0  0
   -2.7532   -2.5046    0.7444 C   0  0  0  0  0  0  0  0  0  0  0  0
   -1.9803   -2.8096    1.6434 O   0  0  0  0  0  0  0  0  0  0  0  0
   -2.5332   -1.4966   -0.0966 N   0  0  0  0  0  0  0  0  0  0  0  0
   -3.2312   -1.2816   -0.7936 H   0  0  0  0  0  0  0  0  0  0  0  0
   -1.3593   -0.6196   -0.0536 C   0  0  1  0  0  0  0  0  0  0  0  0
   -0.8076   -0.7284   -0.9882 H   0  0  0  0  0  0  0  0  0  0  0  0
   -1.8162    0.8428    0.0659 C   0  0  0  0  0  0  0  0  0  0  0  0
   -0.9353    1.4871    0.0723 H   0  0  0  0  0  0  0  0  0  0  0  0
   -2.4042    1.0962   -0.8178 H   0  0  0  0  0  0  0  0  0  0  0  0
   -2.6299    1.1582    1.2843 C   0  0  0  0  0  0  0  0  0  0  0  0
   -2.1349    1.5294    2.4863 C   0  0  0  0  0  0  0  0  0  0  0  0
   -1.0794    1.6249    2.7163 H   0  0  0  0  0  0  0  0  0  0  0  0
   -3.1753    1.7845    3.3581 N   0  0  0  0  0  0  0  0  0  0  0  0
   -3.0411    2.0733    4.3161 H   0  0  0  0  0  0  0  0  0  0  0  0
   -4.4007    1.6053    2.7523 C   0  0  0  0  0  0  0  0  0  0  0  0
   -5.7213    1.7630    3.1965 C   0  0  0  0  0  0  0  0  0  0  0  0
   -5.9241    2.0825    4.2081 H   0  0  0  0  0  0  0  0  0  0  0  0
   -6.7770    1.4977    2.3076 C   0  0  0  0  0  0  0  0  0  0  0  0
   -7.8021    1.6129    2.6329 H   0  0  0  0  0  0  0  0  0  0  0  0
   -6.4985    1.0754    0.9948 C   0  0  0  0  0  0  0  0  0  0  0  0
   -7.3139    0.8644    0.3167 H   0  0  0  0  0  0  0  0  0  0  0  0
   -5.1673    0.9183    0.5597 C   0  0  0  0  0  0  0  0  0  0  0  0
   -4.9675    0.5804   -0.4472 H   0  0  0  0  0  0  0  0  0  0  0  0
   -4.0847    1.1827    1.4264 C   0  0  0  0  0  0  0  0  0  0  0  0
   -0.4126   -1.0148    1.0904 C   0  0  0  0  0  0  0  0  0  0  0  0
   -0.8603   -1.5254    2.1163 O   0  0  0  0  0  0  0  0  0  0  0  0
    0.8942   -0.7771    0.9149 N   0  0  0  0  0  0  0  0  0  0  0  0
    1.1742   -0.3053    0.0668 H   0  0  0  0  0  0  0  0  0  0  0  0
    1.9261   -1.0928    1.8987 C   0  0  0  0  0  0  0  0  0  0  0  0
    1.8328   -2.1355    2.2084 H   0  0  0  0  0  0  0  0  0  0  0  0
    2.9159   -0.9305    1.4701 H   0  0  0  0  0  0  0  0  0  0  0  0
    1.8029   -0.4549    2.7755 H   0  0  0  0  0  0  0  0  0  0  0  0
  5  6  2  0  0  0  0
  5  7  1  0  0  0  0
  2  3  1  0  0  0  0
  2  4  1  0  0  0  0
  2  5  1  0  0  0  0
  1  2  1  0  0  0  0
 29 30  2  0  0  0  0
 29 31  1  0  0  0  0
 26 27  1  0  0  0  0
 26 28  2  0  0  0  0
 24 25  1  0  0  0  0
 24 26  1  0  0  0  0
 22 23  1  0  0  0  0
 22 24  2  0  0  0  0
 20 21  1  0  0  0  0
 20 22  1  0  0  0  0
 19 20  2  0  0  0  0
 19 28  1  0  0  0  0
 17 18  1  0  0  0  0
 17 19  1  0  0  0  0
 15 16  1  0  0  0  0
 15 17  1  0  0  0  0
 14 15  2  0  0  0  0
 14 28  1  0  0  0  0
 11 12  1  0  0  0  0
 11 13  1  0  0  0  0
 11 14  1  0  0  0  0
  9 10  1  0  0  0  0
  9 11  1  0  0  0  0
  9 29  1  0  0  0  0
  7  8  1  0  0  0  0
  7  9  1  0  0  0  0
 33 34  1  0  0  0  0
 33 35  1  0  0  0  0
 33 36  1  0  0  0  0
 31 32  1  0  0  0  0
 31 33  1  0  0  0  0
M  END
$$$$
default_name
  -OEChem-12212115393D

 36 37  0     1  0  0  0  0  0999 V2000
   -4.0843   -4.0736    1.2944 H   0  0  0  0  0  0  0  0  0  0  0  0
   -4.0342   -3.2816    0.5484 C   0  0  0  0  0  0  0  0  0  0  0  0
   -4.8842   -2.6126    0.6694 H   0  0  0  0  0  0  0  0  0  0  0  0
   -4.0433   -3.7186   -0.4486 H   0  0  0  0  0  0  0  0  0  0  0  0
   -2.7532   -2.5046    0.7444 C   0  0  0  0  0  0  0  0  0  0  0  0
   -1.9803   -2.8096    1.6434 O   0  0  0  0  0  0  0  0  0  0  0  0
   -2.5332   -1.4966   -0.0966 N   0  0  0  0  0  0  0  0  0  0  0  0
   -3.2312   -1.2816   -0.7936 H   0  0  0  0  0  0  0  0  0  0  0  0
   -1.3593   -0.6196   -0.0536 C   0  0  1  0  0  0  0  0  0  0  0  0
   -0.8076   -0.7284   -0.9882 H   0  0  0  0  0  0  0  0  0  0  0  0
   -1.8162    0.8428    0.0659 C   0  0  0  0  0  0  0  0  0  0  0  0
   -0.9353    1.4871    0.0723 H   0  0  0  0  0  0  0  0  0  0  0  0
   -2.4042    1.0962   -0.8178 H   0  0  0  0  0  0  0  0  0  0  0  0
   -2.6299    1.1582    1.2843 C   0  0  0  0  0  0  0  0  0  0  0  0
   -2.1349    1.5294    2.4863 C   0  0  0  0  0  0  0  0  0  0  0  0
   -1.0794    1.6249    2.7163 H   0  0  0  0  0  0  0  0  0  0  0  0
   -3.1753    1.7845    3.3581 N   0  0  0  0  0  0  0  0  0  0  0  0
   -3.0411    2.0733    4.3161 H   0  0  0  0  0  0  0  0  0  0  0  0
   -4.4007    1.6053    2.7523 C   0  0  0  0  0  0  0  0  0  0  0  0
   -5.7213    1.7630    3.1965 C   0  0  0  0  0  0  0  0  0  0  0  0
   -5.9241    2.0825    4.2081 H   0  0  0  0  0  0  0  0  0  0  0  0
   -6.7770    1.4977    2.3076 C   0  0  0  0  0  0  0  0  0  0  0  0
   -7.8021    1.6129    2.6329 H   0  0  0  0  0  0  0  0  0  0  0  0
   -6.4985    1.0754    0.9948 C   0  0  0  0  0  0  0  0  0  0  0  0
   -7.3139    0.8644    0.3167 H   0  0  0  0  0  0  0  0  0  0  0  0
   -5.1673    0.9183    0.5597 C   0  0  0  0  0  0  0  0  0  0  0  0
   -4.9675    0.5804   -0.4472 H   0  0  0  0  0  0  0  0  0  0  0  0
   -4.0847    1.1827    1.4264 C   0  0  0  0  0  0  0  0  0  0  0  0
   -0.4126   -1.0148    1.0904 C   0  0  0  0  0  0  0  0  0  0  0  0
   -0.8019   -1.7633    1.9858 O   0  0  0  0  0  0  0  0  0  0  0  0
    0.8285   -0.5108    1.0613 N   0  0  0  0  0  0  0  0  0  0  0  0
    1.0522    0.1392    0.3212 H   0  0  0  0  0  0  0  0  0  0  0  0
    1.8510   -0.7865    2.0667 C   0  0  0  0  0  0  0  0  0  0  0  0
    1.9504   -1.8648    2.2046 H   0  0  0  0  0  0  0  0  0  0  0  0
    2.8095   -0.3728    1.7508 H   0  0  0  0  0  0  0  0  0  0  0  0
    1.5593   -0.3374    3.0176 H   0  0  0  0  0  0  0  0  0  0  0  0
  5  6  2  0  0  0  0
  5  7  1  0  0  0  0
  2  3  1  0  0  0  0
  2  4  1  0  0  0  0
  2  5  1  0  0  0  0
  1  2  1  0  0  0  0
 29 30  2  0  0  0  0
 29 31  1  0  0  0  0
 26 27  1  0  0  0  0
 26 28  2  0  0  0  0
 24 25  1  0  0  0  0
 24 26  1  0  0  0  0
 22 23  1  0  0  0  0
 22 24  2  0  0  0  0
 20 21  1  0  0  0  0
 20 22  1  0  0  0  0
 19 20  2  0  0  0  0
 19 28  1  0  0  0  0
 17 18  1  0  0  0  0
 17 19  1  0  0  0  0
 15 16  1  0  0  0  0
 15 17  1  0  0  0  0
 14 15  2  0  0  0  0
 14 28  1  0  0  0  0
 11 12  1  0  0  0  0
 11 13  1  0  0  0  0
 11 14  1  0  0  0  0
  9 10  1  0  0  0  0
  9 11  1  0  0  0  0
  9 29  1  0  0  0  0
  7  8  1  0  0  0  0
  7  9  1  0  0  0  0
 33 34  1  0  0  0  0
 33 35  1  0  0  0  0
 33 36  1  0  0  0  0
 31 32  1  0  0  0  0
 31 33  1  0  0  0  0
M  END
$$$$
default_name
  -OEChem-12212115393D

 36 37  0     1  0  0  0  0  0999 V2000
   -4.0843   -4.0736    1.2944 H   0  0  0  0  0  0  0  0  0  0  0  0
   -4.0342   -3.2816    0.5484 C   0  0  0  0  0  0  0  0  0  0  0  0
   -4.8842   -2.6126    0.6694 H   0  0  0  0  0  0  0  0  0  0  0  0
   -4.0433   -3.7186   -0.4486 H   0  0  0  0  0  0  0  0  0  0  0  0
   -2.7532   -2.5046    0.7444 C   0  0  0  0  0  0  0  0  0  0  0  0
   -1.9803   -2.8096    1.6434 O   0  0  0  0  0  0  0  0  0  0  0  0
   -2.5332   -1.4966   -0.0966 N   0  0  0  0  0  0  0  0  0  0  0  0
   -3.2312   -1.2816   -0.7936 H   0  0  0  0  0  0  0  0  0  0  0  0
   -1.3593   -0.6196   -0.0536 C   0  0  1  0  0  0  0  0  0  0  0  0
   -0.9607   -0.5197   -1.0639 H   0  0  0  0  0  0  0  0  0  0  0  0
   -1.7793    0.7752    0.4362 C   0  0  0  0  0  0  0  0  0  0  0  0
   -0.9024    1.4251    0.4406 H   0  0  0  0  0  0  0  0  0  0  0  0
   -2.4954    1.1916   -0.2742 H   0  0  0  0  0  0  0  0  0  0  0  0
   -2.3906    0.8124    1.8040 C   0  0  0  0  0  0  0  0  0  0  0  0
   -1.7113    0.9389    2.9660 C   0  0  0  0  0  0  0  0  0  0  0  0
   -0.6321    1.0100    3.0454 H   0  0  0  0  0  0  0  0  0  0  0  0
   -2.6011    0.9834    4.0214 N   0  0  0  0  0  0  0  0  0  0  0  0
   -2.3170    1.0710    4.9862 H   0  0  0  0  0  0  0  0  0  0  0  0
   -3.9074    0.9040    3.5877 C   0  0  0  0  0  0  0  0  0  0  0  0
   -5.1414    0.9348    4.2530 C   0  0  0  0  0  0  0  0  0  0  0  0
   -5.1815    1.0334    5.3278 H   0  0  0  0  0  0  0  0  0  0  0  0
   -6.3248    0.8339    3.5018 C   0  0  0  0  0  0  0  0  0  0  0  0
   -7.2858    0.8548    3.9979 H   0  0  0  0  0  0  0  0  0  0  0  0
   -6.2578    0.6987    2.1030 C   0  0  0  0  0  0  0  0  0  0  0  0
   -7.1705    0.6130    1.5298 H   0  0  0  0  0  0  0  0  0  0  0  0
   -5.0118    0.6669    1.4451 C   0  0  0  0  0  0  0  0  0  0  0  0
   -4.9742    0.5492    0.3714 H   0  0  0  0  0  0  0  0  0  0  0  0
   -3.8053    0.7722    2.1704 C   0  0  0  0  0  0  0  0  0  0  0  0
   -0.2496   -1.2199    0.8235 C   0  0  0  0  0  0  0  0  0  0  0  0
   -0.4184   -2.3041    1.3801 O   0  0  0  0  0  0  0  0  0  0  0  0
    0.8830   -0.5150    0.9476 N   0  0  0  0  0  0  0  0  0  0  0  0
    0.9212    0.3911    0.5027 H   0  0  0  0  0  0  0  0  0  0  0  0
    2.0335   -0.9412    1.7394 C   0  0  0  0  0  0  0  0  0  0  0  0
    2.3213   -1.9549    1.4545 H   0  0  0  0  0  0  0  0  0  0  0  0
    2.8745   -0.2667    1.5731 H   0  0  0  0  0  0  0  0  0  0  0  0
    1.7705   -0.9366    2.7985 H   0  0  0  0  0  0  0  0  0  0  0  0
  5  6  2  0  0  0  0
  5  7  1  0  0  0  0
  2  3  1  0  0  0  0
  2  4  1  0  0  0  0
  2  5  1  0  0  0  0
  1  2  1  0  0  0  0
 29 30  2  0  0  0  0
 29 31  1  0  0  0  0
 26 27  1  0  0  0  0
 26 28  2  0  0  0  0
 24 25  1  0  0  0  0
 24 26  1  0  0  0  0
 22 23  1  0  0  0  0
 22 24  2  0  0  0  0
 20 21  1  0  0  0  0
 20 22  1  0  0  0  0
 19 20  2  0  0  0  0
 19 28  1  0  0  0  0
 17 18  1  0  0  0  0
 17 19  1  0  0  0  0
 15 16  1  0  0  0  0
 15 17  1  0  0  0  0
 14 15  2  0  0  0  0
 14 28  1  0  0  0  0
 11 12  1  0  0  0  0
 11 13  1  0  0  0  0
 11 14  1  0  0  0  0
  9 10  1  0  0  0  0
  9 11  1  0  0  0  0
  9 29  1  0  0  0  0
  7  8  1  0  0  0  0
  7  9  1  0  0  0  0
 33 34  1  0  0  0  0
 33 35  1  0  0  0  0
 33 36  1  0  0  0  0
 31 32  1  0  0  0  0
 31 33  1  0  0  0  0
M  END
$$$$
default_name
  -OEChem-12212115393D

 36 37  0     1  0  0  0  0  0999 V2000
   -4.0843   -4.0736    1.2944 H   0  0  0  0  0  0  0  0  0  0  0  0
   -4.0342   -3.2816    0.5484 C   0  0  0  0  0  0  0  0  0  0  0  0
   -4.8842   -2.6126    0.6694 H   0  0  0  0  0  0  0  0  0  0  0  0
   -4.0433   -3.7186   -0.4486 H   0  0  0  0  0  0  0  0  0  0  0  0
   -2.7532   -2.5046    0.7444 C   0  0  0  0  0  0  0  0  0  0  0  0
   -1.9803   -2.8096    1.6434 O   0  0  0  0  0  0  0  0  0  0  0  0
   -2.5332   -1.4966   -0.0966 N   0  0  0  0  0  0  0  0  0  0  0  0
   -3.2312   -1.2816   -0.7936 H   0  0  0  0  0  0  0  0  0  0  0  0
   -1.3593   -0.6196   -0.0536 C   0  0  1  0  0  0  0  0  0  0  0  0
   -0.9607   -0.5197   -1.0639 H   0  0  0  0  0  0  0  0  0  0  0  0
   -1.7793    0.7752    0.4362 C   0  0  0  0  0  0  0  0  0  0  0  0
   -0.9024    1.4251    0.4406 H   0  0  0  0  0  0  0  0  0  0  0  0
   -2.4954    1.1916   -0.2742 H   0  0  0  0  0  0  0  0  0  0  0  0
   -2.3906    0.8124    1.8040 C   0  0  0  0  0  0  0  0  0  0  0  0
   -1.7113    0.9389    2.9660 C   0  0  0  0  0  0  0  0  0  0  0  0
   -0.6321    1.0100    3.0454 H   0  0  0  0  0  0  0  0  0  0  0  0
   -2.6011    0.9834    4.0214 N   0  0  0  0  0  0  0  0  0  0  0  0
   -2.3170    1.0710    4.9862 H   0  0  0  0  0  0  0  0  0  0  0  0
   -3.9074    0.9040    3.5877 C   0  0  0  0  0  0  0  0  0  0  0  0
   -5.1414    0.9348    4.2530 C   0  0  0  0  0  0  0  0  0  0  0  0
   -5.1815    1.0334    5.3278 H   0  0  0  0  0  0  0  0  0  0  0  0
   -6.3248    0.8339    3.5018 C   0  0  0  0  0  0  0  0  0  0  0  0
   -7.2858    0.8548    3.9979 H   0  0  0  0  0  0  0  0  0  0  0  0
   -6.2578    0.6987    2.1030 C   0  0  0  0  0  0  0  0  0  0  0  0
   -7.1705    0.6130    1.5298 H   0  0  0  0  0  0  0  0  0  0  0  0
   -5.0118    0.6669    1.4451 C   0  0  0  0  0  0  0  0  0  0  0  0
   -4.9742    0.5492    0.3714 H   0  0  0  0  0  0  0  0  0  0  0  0
   -3.8053    0.7722    2.1704 C   0  0  0  0  0  0  0  0  0  0  0  0
   -0.2496   -1.2199    0.8235 C   0  0  0  0  0  0  0  0  0  0  0  0
   -0.2935   -2.4043    1.1534 O   0  0  0  0  0  0  0  0  0  0  0  0
    0.7428   -0.4030    1.2016 N   0  0  0  0  0  0  0  0  0  0  0  0
    0.6765    0.5687    0.9337 H   0  0  0  0  0  0  0  0  0  0  0  0
    1.8727   -0.8120    2.0313 C   0  0  0  0  0  0  0  0  0  0  0  0
    2.3401   -1.7013    1.6042 H   0  0  0  0  0  0  0  0  0  0  0  0
    2.6083   -0.0085    2.0866 H   0  0  0  0  0  0  0  0  0  0  0  0
    1.5210   -1.0499    3.0366 H   0  0  0  0  0  0  0  0  0  0  0  0
  5  6  2  0  0  0  0
  5  7  1  0  0  0  0
  2  3  1  0  0  0  0
  2  4  1  0  0  0  0
  2  5  1  0  0  0  0
  1  2  1  0  0  0  0
 29 30  2  0  0  0  0
 29 31  1  0  0  0  0
 26 27  1  0  0  0  0
 26 28  2  0  0  0  0
 24 25  1  0  0  0  0
 24 26  1  0  0  0  0
 22 23  1  0  0  0  0
 22 24  2  0  0  0  0
 20 21  1  0  0  0  0
 20 22  1  0  0  0  0
 19 20  2  0  0  0  0
 19 28  1  0  0  0  0
 17 18  1  0  0  0  0
 17 19  1  0  0  0  0
 15 16  1  0  0  0  0
 15 17  1  0  0  0  0
 14 15  2  0  0  0  0
 14 28  1  0  0  0  0
 11 12  1  0  0  0  0
 11 13  1  0  0  0  0
 11 14  1  0  0  0  0
  9 10  1  0  0  0  0
  9 11  1  0  0  0  0
  9 29  1  0  0  0  0
  7  8  1  0  0  0  0
  7  9  1  0  0  0  0
 33 34  1  0  0  0  0
 33 35  1  0  0  0  0
 33 36  1  0  0  0  0
 31 32  1  0  0  0  0
 31 33  1  0  0  0  0
M  END
$$$$
default_name
  -OEChem-12212115393D

 36 37  0     1  0  0  0  0  0999 V2000
   -4.0843   -4.0736    1.2944 H   0  0  0  0  0  0  0  0  0  0  0  0
   -4.0342   -3.2816    0.5484 C   0  0  0  0  0  0  0  0  0  0  0  0
   -4.8842   -2.6126    0.6694 H   0  0  0  0  0  0  0  0  0  0  0  0
   -4.0433   -3.7186   -0.4486 H   0  0  0  0  0  0  0  0  0  0  0  0
   -2.7532   -2.5046    0.7444 C   0  0  0  0  0  0  0  0  0  0  0  0
   -1.9803   -2.8096    1.6434 O   0  0  0  0  0  0  0  0  0  0  0  0
   -2.5332   -1.4966   -0.0966 N   0  0  0  0  0  0  0  0  0  0  0  0
   -3.2312   -1.2816   -0.7936 H   0  0  0  0  0  0  0  0  0  0  0  0
   -1.3593   -0.6196   -0.0536 C   0  0  1  0  0  0  0  0  0  0  0  0
   -0.9607   -0.5197   -1.0639 H   0  0  0  0  0  0  0  0  0  0  0  0
   -1.7793    0.7752    0.4362 C   0  0  0  0  0  0  0  0  0  0  0  0
   -0.9024    1.4251    0.4406 H   0  0  0  0  0  0  0  0  0  0  0  0
   -2.4954    1.1916   -0.2742 H   0  0  0  0  0  0  0  0  0  0  0  0
   -2.3906    0.8124    1.8040 C   0  0  0  0  0  0  0  0  0  0  0  0
   -1.7113    0.9389    2.9660 C   0  0  0  0  0  0  0  0  0  0  0  0
   -0.6321    1.0100    3.0454 H   0  0  0  0  0  0  0  0  0  0  0  0
   -2.6011    0.9834    4.0214 N   0  0  0  0  0  0  0  0  0  0  0  0
   -2.3170    1.0710    4.9862 H   0  0  0  0  0  0  0  0  0  0  0  0
   -3.9074    0.9040    3.5877 C   0  0  0  0  0  0  0  0  0  0  0  0
   -5.1414    0.9348    4.2530 C   0  0  0  0  0  0  0  0  0  0  0  0
   -5.1815    1.0334    5.3278 H   0  0  0  0  0  0  0  0  0  0  0  0
   -6.3248    0.8339    3.5018 C   0  0  0  0  0  0  0  0  0  0  0  0
   -7.2858    0.8548    3.9979 H   0  0  0  0  0  0  0  0  0  0  0  0
   -6.2578    0.6987    2.1030 C   0  0  0  0  0  0  0  0  0  0  0  0
   -7.1705    0.6130    1.5298 H   0  0  0  0  0  0  0  0  0  0  0  0
   -5.0118    0.6669    1.4451 C   0  0  0  0  0  0  0  0  0  0  0  0
   -4.9742    0.5492    0.3714 H   0  0  0  0  0  0  0  0  0  0  0  0
   -3.8053    0.7722    2.1704 C   0  0  0  0  0  0  0  0  0  0  0  0
   -0.2496   -1.2199    0.8235 C   0  0  0  0  0  0  0  0  0  0  0  0
   -0.1351   -2.4404    0.9284 O   0  0  0  0  0  0  0  0  0  0  0  0
    0.5652   -0.3630    1.4536 N   0  0  0  0  0  0  0  0  0  0  0  0
    0.3704    0.6235    1.3586 H   0  0  0  0  0  0  0  0  0  0  0  0
    1.6687   -0.7655    2.3211 C   0  0  0  0  0  0  0  0  0  0  0  0
    2.3057   -1.4815    1.7982 H   0  0  0  0  0  0  0  0  0  0  0  0
    2.2611    0.1056    2.6039 H   0  0  0  0  0  0  0  0  0  0  0  0
    1.2727   -1.2407    3.2201 H   0  0  0  0  0  0  0  0  0  0  0  0
  5  6  2  0  0  0  0
  5  7  1  0  0  0  0
  2  3  1  0  0  0  0
  2  4  1  0  0  0  0
  2  5  1  0  0  0  0
  1  2  1  0  0  0  0
 29 30  2  0  0  0  0
 29 31  1  0  0  0  0
 26 27  1  0  0  0  0
 26 28  2  0  0  0  0
 24 25  1  0  0  0  0
 24 26  1  0  0  0  0
 22 23  1  0  0  0  0
 22 24  2  0  0  0  0
 20 21  1  0  0  0  0
 20 22  1  0  0  0  0
 19 20  2  0  0  0  0
 19 28  1  0  0  0  0
 17 18  1  0  0  0  0
 17 19  1  0  0  0  0
 15 16  1  0  0  0  0
 15 17  1  0  0  0  0
 14 15  2  0  0  0  0
 14 28  1  0  0  0  0
 11 12  1  0  0  0  0
 11 13  1  0  0  0  0
 11 14  1  0  0  0  0
  9 10  1  0  0  0  0
  9 11  1  0  0  0  0
  9 29  1  0  0  0  0
  7  8  1  0  0  0  0
  7  9  1  0  0  0  0
 33 34  1  0  0  0  0
 33 35  1  0  0  0  0
 33 36  1  0  0  0  0
 31 32  1  0  0  0  0
 31 33  1  0  0  0  0
M  END
$$$$
default_name
  -OEChem-12212115393D

 36 37  0     1  0  0  0  0  0999 V2000
   -4.0843   -4.0736    1.2944 H   0  0  0  0  0  0  0  0  0  0  0  0
   -4.0342   -3.2816    0.5484 C   0  0  0  0  0  0  0  0  0  0  0  0
   -4.8842   -2.6126    0.6694 H   0  0  0  0  0  0  0  0  0  0  0  0
   -4.0433   -3.7186   -0.4486 H   0  0  0  0  0  0  0  0  0  0  0  0
   -2.7532   -2.5046    0.7444 C   0  0  0  0  0  0  0  0  0  0  0  0
   -1.9803   -2.8096    1.6434 O   0  0  0  0  0  0  0  0  0  0  0  0
   -2.5332   -1.4966   -0.0966 N   0  0  0  0  0  0  0  0  0  0  0  0
   -3.2312   -1.2816   -0.7936 H   0  0  0  0  0  0  0  0  0  0  0  0
   -1.3593   -0.6196   -0.0536 C   0  0  1  0  0  0  0  0  0  0  0  0
   -0.9607   -0.5197   -1.0639 H   0  0  0  0  0  0  0  0  0  0  0  0
   -1.7793    0.7752    0.4362 C   0  0  0  0  0  0  0  0  0  0  0  0
   -0.9024    1.4251    0.4406 H   0  0  0  0  0  0  0  0  0  0  0  0
   -2.4954    1.1916   -0.2742 H   0  0  0  0  0  0  0  0  0  0  0  0
   -2.3906    0.8124    1.8040 C   0  0  0  0  0  0  0  0  0  0  0  0
   -1.7113    0.9389    2.9660 C   0  0  0  0  0  0  0  0  0  0  0  0
   -0.6321    1.0100    3.0454 H   0  0  0  0  0  0  0  0  0  0  0  0
   -2.6011    0.9834    4.0214 N   0  0  0  0  0  0  0  0  0  0  0  0
   -2.3170    1.0710    4.9862 H   0  0  0  0  0  0  0  0  0  0  0  0
   -3.9074    0.9040    3.5877 C   0  0  0  0  0  0  0  0  0  0  0  0
   -5.1414    0.9348    4.2530 C   0  0  0  0  0  0  0  0  0  0  0  0
   -5.1815    1.0334    5.3278 H   0  0  0  0  0  0  0  0  0  0  0  0
   -6.3248    0.8339    3.5018 C   0  0  0  0  0  0  0  0  0  0  0  0
   -7.2858    0.8548    3.9979 H   0  0  0  0  0  0  0  0  0  0  0  0
   -6.2578    0.6987    2.1030 C   0  0  0  0  0  0  0  0  0  0  0  0
   -7.1705    0.6130    1.5298 H   0  0  0  0  0  0  0  0  0  0  0  0
   -5.0118    0.6669    1.4451 C   0  0  0  0  0  0  0  0  0  0  0  0
   -4.9742    0.5492    0.3714 H   0  0  0  0  0  0  0  0  0  0  0  0
   -3.8053    0.7722    2.1704 C   0  0  0  0  0  0  0  0  0  0  0  0
   -0.2496   -1.2199    0.8235 C   0  0  0  0  0  0  0  0  0  0  0  0
    0.0459   -2.4097    0.7203 O   0  0  0  0  0  0  0  0  0  0  0  0
    0.3622   -0.3978    1.6866 N   0  0  0  0  0  0  0  0  0  0  0  0
    0.0236    0.5519    1.7482 H   0  0  0  0  0  0  0  0  0  0  0  0
    1.4356   -0.8050    2.5891 C   0  0  0  0  0  0  0  0  0  0  0  0
    2.2203   -1.3106    2.0232 H   0  0  0  0  0  0  0  0  0  0  0  0
    1.8566    0.0678    3.0898 H   0  0  0  0  0  0  0  0  0  0  0  0
    1.0425   -1.4960    3.3366 H   0  0  0  0  0  0  0  0  0  0  0  0
  5  6  2  0  0  0  0
  5  7  1  0  0  0  0
  2  3  1  0  0  0  0
  2  4  1  0  0  0  0
  2  5  1  0  0  0  0
  1  2  1  0  0  0  0
 29 30  2  0  0  0  0
 29 31  1  0  0  0  0
 26 27  1  0  0  0  0
 26 28  2  0  0  0  0
 24 25  1  0  0  0  0
 24 26  1  0  0  0  0
 22 23  1  0  0  0  0
 22 24  2  0  0  0  0
 20 21  1  0  0  0  0
 20 22  1  0  0  0  0
 19 20  2  0  0  0  0
 19 28  1  0  0  0  0
 17 18  1  0  0  0  0
 17 19  1  0  0  0  0
 15 16  1  0  0  0  0
 15 17  1  0  0  0  0
 14 15  2  0  0  0  0
 14 28  1  0  0  0  0
 11 12  1  0  0  0  0
 11 13  1  0  0  0  0
 11 14  1  0  0  0  0
  9 10  1  0  0  0  0
  9 11  1  0  0  0  0
  9 29  1  0  0  0  0
  7  8  1  0  0  0  0
  7  9  1  0  0  0  0
 33 34  1  0  0  0  0
 33 35  1  0  0  0  0
 33 36  1  0  0  0  0
 31 32  1  0  0  0  0
 31 33  1  0  0  0  0
M  END
$$$$
default_name
  -OEChem-12212115393D

 36 37  0     1  0  0  0  0  0999 V2000
   -4.0843   -4.0736    1.2944 H   0  0  0  0  0  0  0  0  0  0  0  0
   -4.0342   -3.2816    0.5484 C   0  0  0  0  0  0  0  0  0  0  0  0
   -4.8842   -2.6126    0.6694 H   0  0  0  0  0  0  0  0  0  0  0  0
   -4.0433   -3.7186   -0.4486 H   0  0  0  0  0  0  0  0  0  0  0  0
   -2.7532   -2.5046    0.7444 C   0  0  0  0  0  0  0  0  0  0  0  0
   -1.9803   -2.8096    1.6434 O   0  0  0  0  0  0  0  0  0  0  0  0
   -2.5332   -1.4966   -0.0966 N   0  0  0  0  0  0  0  0  0  0  0  0
   -3.2312   -1.2816   -0.7936 H   0  0  0  0  0  0  0  0  0  0  0  0
   -1.3593   -0.6196   -0.0536 C   0  0  1  0  0  0  0  0  0  0  0  0
   -0.9607   -0.5197   -1.0639 H   0  0  0  0  0  0  0  0  0  0  0  0
   -1.7793    0.7752    0.4362 C   0  0  0  0  0  0  0  0  0  0  0  0
   -0.9024    1.4251    0.4406 H   0  0  0  0  0  0  0  0  0  0  0  0
   -2.4954    1.1916   -0.2742 H   0  0  0  0  0  0  0  0  0  0  0  0
   -2.3906    0.8124    1.8040 C   0  0  0  0  0  0  0  0  0  0  0  0
   -1.7113    0.9389    2.9660 C   0  0  0  0  0  0  0  0  0  0  0  0
   -0.6321    1.0100    3.0454 H   0  0  0  0  0  0  0  0  0  0  0  0
   -2.6011    0.9834    4.0214 N   0  0  0  0  0  0  0  0  0  0  0  0
   -2.3170    1.0710    4.9862 H   0  0  0  0  0  0  0  0  0  0  0  0
   -3.9074    0.9040    3.5877 C   0  0  0  0  0  0  0  0  0  0  0  0
   -5.1414    0.9348    4.2530 C   0  0  0  0  0  0  0  0  0  0  0  0
   -5.1815    1.0334    5.3278 H   0  0  0  0  0  0  0  0  0  0  0  0
   -6.3248    0.8339    3.5018 C   0  0  0  0  0  0  0  0  0  0  0  0
   -7.2858    0.8548    3.9979 H   0  0  0  0  0  0  0  0  0  0  0  0
   -6.2578    0.6987    2.1030 C   0  0  0  0  0  0  0  0  0  0  0  0
   -7.1705    0.6130    1.5298 H   0  0  0  0  0  0  0  0  0  0  0  0
   -5.0118    0.6669    1.4451 C   0  0  0  0  0  0  0  0  0  0  0  0
   -4.9742    0.5492    0.3714 H   0  0  0  0  0  0  0  0  0  0  0  0
   -3.8053    0.7722    2.1704 C   0  0  0  0  0  0  0  0  0  0  0  0
   -0.2496   -1.2199    0.8235 C   0  0  0  0  0  0  0  0  0  0  0  0
    0.2373   -2.3145    0.5434 O   0  0  0  0  0  0  0  0  0  0  0  0
    0.1477   -0.5049    1.8847 N   0  0  0  0  0  0  0  0  0  0  0  0
   -0.3401    0.3586    2.0762 H   0  0  0  0  0  0  0  0  0  0  0  0
    1.1891   -0.9276    2.8170 C   0  0  0  0  0  0  0  0  0  0  0  0
    2.0899   -1.2002    2.2638 H   0  0  0  0  0  0  0  0  0  0  0  0
    1.4223   -0.1193    3.5112 H   0  0  0  0  0  0  0  0  0  0  0  0
    0.8461   -1.7984    3.3782 H   0  0  0  0  0  0  0  0  0  0  0  0
  5  6  2  0  0  0  0
  5  7  1  0  0  0  0
  2  3  1  0  0  0  0
  2  4  1  0  0  0  0
  2  5  1  0  0  0  0
  1  2  1  0  0  0  0
 29 30  2  0  0  0  0
 29 31  1  0  0  0  0
 26 27  1  0  0  0  0
 26 28  2  0  0  0  0
 24 25  1  0  0  0  0
 24 26  1  0  0  0  0
 22 23  1  0  0  0  0
 22 24  2  0  0  0  0
 20 21  1  0  0  0  0
 20 22  1  0  0  0  0
 19 20  2  0  0  0  0
 19 28  1  0  0  0  0
 17 18  1  0  0  0  0
 17 19  1  0  0  0  0
 15 16  1  0  0  0  0
 15 17  1  0  0  0  0
 14 15  2  0  0  0  0
 14 28  1  0  0  0  0
 11 12  1  0  0  0  0
 11 13  1  0  0  0  0
 11 14  1  0  0  0  0
  9 10  1  0  0  0  0
  9 11  1  0  0  0  0
  9 29  1  0  0  0  0
  7  8  1  0  0  0  0
  7  9  1  0  0  0  0
 33 34  1  0  0  0  0
 33 35  1  0  0  0  0
 33 36  1  0  0  0  0
 31 32  1  0  0  0  0
 31 33  1  0  0  0  0
M  END
$$$$
default_name
  -OEChem-12212115393D

 36 37  0     1  0  0  0  0  0999 V2000
   -4.0843   -4.0736    1.2944 H   0  0  0  0  0  0  0  0  0  0  0  0
   -4.0342   -3.2816    0.5484 C   0  0  0  0  0  0  0  0  0  0  0  0
   -4.8842   -2.6126    0.6694 H   0  0  0  0  0  0  0  0  0  0  0  0
   -4.0433   -3.7186   -0.4486 H   0  0  0  0  0  0  0  0  0  0  0  0
   -2.7532   -2.5046    0.7444 C   0  0  0  0  0  0  0  0  0  0  0  0
   -1.9803   -2.8096    1.6434 O   0  0  0  0  0  0  0  0  0  0  0  0
   -2.5332   -1.4966   -0.0966 N   0  0  0  0  0  0  0  0  0  0  0  0
   -3.2312   -1.2816   -0.7936 H   0  0  0  0  0  0  0  0  0  0  0  0
   -1.3593   -0.6196   -0.0536 C   0  0  1  0  0  0  0  0  0  0  0  0
   -0.9607   -0.5197   -1.0639 H   0  0  0  0  0  0  0  0  0  0  0  0
   -1.7793    0.7752    0.4362 C   0  0  0  0  0  0  0  0  0  0  0  0
   -0.9024    1.4251    0.4406 H   0  0  0  0  0  0  0  0  0  0  0  0
   -2.4954    1.1916   -0.2742 H   0  0  0  0  0  0  0  0  0  0  0  0
   -2.3906    0.8124    1.8040 C   0  0  0  0  0  0  0  0  0  0  0  0
   -1.7113    0.9389    2.9660 C   0  0  0  0  0  0  0  0  0  0  0  0
   -0.6321    1.0100    3.0454 H   0  0  0  0  0  0  0  0  0  0  0  0
   -2.6011    0.9834    4.0214 N   0  0  0  0  0  0  0  0  0  0  0  0
   -2.3170    1.0710    4.9862 H   0  0  0  0  0  0  0  0  0  0  0  0
   -3.9074    0.9040    3.5877 C   0  0  0  0  0  0  0  0  0  0  0  0
   -5.1414    0.9348    4.2530 C   0  0  0  0  0  0  0  0  0  0  0  0
   -5.1815    1.0334    5.3278 H   0  0  0  0  0  0  0  0  0  0  0  0
   -6.3248    0.8339    3.5018 C   0  0  0  0  0  0  0  0  0  0  0  0
   -7.2858    0.8548    3.9979 H   0  0  0  0  0  0  0  0  0  0  0  0
   -6.2578    0.6987    2.1030 C   0  0  0  0  0  0  0  0  0  0  0  0
   -7.1705    0.6130    1.5298 H   0  0  0  0  0  0  0  0  0  0  0  0
   -5.0118    0.6669    1.4451 C   0  0  0  0  0  0  0  0  0  0  0  0
   -4.9742    0.5492    0.3714 H   0  0  0  0  0  0  0  0  0  0  0  0
   -3.8053    0.7722    2.1704 C   0  0  0  0  0  0  0  0  0  0  0  0
   -0.2496   -1.2199    0.8235 C   0  0  0  0  0  0  0  0  0  0  0  0
    0.4260   -2.1611    0.4096 O   0  0  0  0  0  0  0  0  0  0  0  0
   -0.0637   -0.6771    2.0343 N   0  0  0  0  0  0  0  0  0  0  0  0
   -0.6961    0.0568    2.3200 H   0  0  0  0  0  0  0  0  0  0  0  0
    0.9461   -1.1251    2.9893 C   0  0  0  0  0  0  0  0  0  0  0  0
    1.9233   -1.1577    2.5036 H   0  0  0  0  0  0  0  0  0  0  0  0
    0.9879   -0.4429    3.8393 H   0  0  0  0  0  0  0  0  0  0  0  0
    0.6969   -2.1272    3.3419 H   0  0  0  0  0  0  0  0  0  0  0  0
  5  6  2  0  0  0  0
  5  7  1  0  0  0  0
  2  3  1  0  0  0  0
  2  4  1  0  0  0  0
  2  5  1  0  0  0  0
  1  2  1  0  0  0  0
 29 30  2  0  0  0  0
 29 31  1  0  0  0  0
 26 27  1  0  0  0  0
 26 28  2  0  0  0  0
 24 25  1  0  0  0  0
 24 26  1  0  0  0  0
 22 23  1  0  0  0  0
 22 24  2  0  0  0  0
 20 21  1  0  0  0  0
 20 22  1  0  0  0  0
 19 20  2  0  0  0  0
 19 28  1  0  0  0  0
 17 18  1  0  0  0  0
 17 19  1  0  0  0  0
 15 16  1  0  0  0  0
 15 17  1  0  0  0  0
 14 15  2  0  0  0  0
 14 28  1  0  0  0  0
 11 12  1  0  0  0  0
 11 13  1  0  0  0  0
 11 14  1  0  0  0  0
  9 10  1  0  0  0  0
  9 11  1  0  0  0  0
  9 29  1  0  0  0  0
  7  8  1  0  0  0  0
  7  9  1  0  0  0  0
 33 34  1  0  0  0  0
 33 35  1  0  0  0  0
 33 36  1  0  0  0  0
 31 32  1  0  0  0  0
 31 33  1  0  0  0  0
M  END
$$$$
default_name
  -OEChem-12212115393D

 36 37  0     1  0  0  0  0  0999 V2000
   -4.0843   -4.0736    1.2944 H   0  0  0  0  0  0  0  0  0  0  0  0
   -4.0342   -3.2816    0.5484 C   0  0  0  0  0  0  0  0  0  0  0  0
   -4.8842   -2.6126    0.6694 H   0  0  0  0  0  0  0  0  0  0  0  0
   -4.0433   -3.7186   -0.4486 H   0  0  0  0  0  0  0  0  0  0  0  0
   -2.7532   -2.5046    0.7444 C   0  0  0  0  0  0  0  0  0  0  0  0
   -1.9803   -2.8096    1.6434 O   0  0  0  0  0  0  0  0  0  0  0  0
   -2.5332   -1.4966   -0.0966 N   0  0  0  0  0  0  0  0  0  0  0  0
   -3.2312   -1.2816   -0.7936 H   0  0  0  0  0  0  0  0  0  0  0  0
   -1.3593   -0.6196   -0.0536 C   0  0  1  0  0  0  0  0  0  0  0  0
   -0.9607   -0.5197   -1.0639 H   0  0  0  0  0  0  0  0  0  0  0  0
   -1.7793    0.7752    0.4362 C   0  0  0  0  0  0  0  0  0  0  0  0
   -0.9024    1.4251    0.4406 H   0  0  0  0  0  0  0  0  0  0  0  0
   -2.4954    1.1916   -0.2742 H   0  0  0  0  0  0  0  0  0  0  0  0
   -2.3906    0.8124    1.8040 C   0  0  0  0  0  0  0  0  0  0  0  0
   -1.7113    0.9389    2.9660 C   0  0  0  0  0  0  0  0  0  0  0  0
   -0.6321    1.0100    3.0454 H   0  0  0  0  0  0  0  0  0  0  0  0
   -2.6011    0.9834    4.0214 N   0  0  0  0  0  0  0  0  0  0  0  0
   -2.3170    1.0710    4.9862 H   0  0  0  0  0  0  0  0  0  0  0  0
   -3.9074    0.9040    3.5877 C   0  0  0  0  0  0  0  0  0  0  0  0
   -5.1414    0.9348    4.2530 C   0  0  0  0  0  0  0  0  0  0  0  0
   -5.1815    1.0334    5.3278 H   0  0  0  0  0  0  0  0  0  0  0  0
   -6.3248    0.8339    3.5018 C   0  0  0  0  0  0  0  0  0  0  0  0
   -7.2858    0.8548    3.9979 H   0  0  0  0  0  0  0  0  0  0  0  0
   -6.2578    0.6987    2.1030 C   0  0  0  0  0  0  0  0  0  0  0  0
   -7.1705    0.6130    1.5298 H   0  0  0  0  0  0  0  0  0  0  0  0
   -5.0118    0.6669    1.4451 C   0  0  0  0  0  0  0  0  0  0  0  0
   -4.9742    0.5492    0.3714 H   0  0  0  0  0  0  0  0  0  0  0  0
   -3.8053    0.7722    2.1704 C   0  0  0  0  0  0  0  0  0  0  0  0
   -0.2496   -1.2199    0.8235 C   0  0  0  0  0  0  0  0  0  0  0  0
    0.5991   -1.9601    0.3282 O   0  0  0  0  0  0  0  0  0  0  0  0
   -0.2575   -0.9026    2.1252 N   0  0  0  0  0  0  0  0  0  0  0  0
   -1.0200   -0.3328    2.4631 H   0  0  0  0  0  0  0  0  0  0  0  0
    0.7231   -1.3839    3.0942 C   0  0  0  0  0  0  0  0  0  0  0  0
    1.7318   -1.1862    2.7264 H   0  0  0  0  0  0  0  0  0  0  0  0
    0.5829   -0.8810    4.0519 H   0  0  0  0  0  0  0  0  0  0  0  0
    0.6050   -2.4602    3.2304 H   0  0  0  0  0  0  0  0  0  0  0  0
  5  6  2  0  0  0  0
  5  7  1  0  0  0  0
  2  3  1  0  0  0  0
  2  4  1  0  0  0  0
  2  5  1  0  0  0  0
  1  2  1  0  0  0  0
 29 30  2  0  0  0  0
 29 31  1  0  0  0  0
 26 27  1  0  0  0  0
 26 28  2  0  0  0  0
 24 25  1  0  0  0  0
 24 26  1  0  0  0  0
 22 23  1  0  0  0  0
 22 24  2  0  0  0  0
 20 21  1  0  0  0  0
 20 22  1  0  0  0  0
 19 20  2  0  0  0  0
 19 28  1  0  0  0  0
 17 18  1  0  0  0  0
 17 19  1  0  0  0  0
 15 16  1  0  0  0  0
 15 17  1  0  0  0  0
 14 15  2  0  0  0  0
 14 28  1  0  0  0  0
 11 12  1  0  0  0  0
 11 13  1  0  0  0  0
 11 14  1  0  0  0  0
  9 10  1  0  0  0  0
  9 11  1  0  0  0  0
  9 29  1  0  0  0  0
  7  8  1  0  0  0  0
  7  9  1  0  0  0  0
 33 34  1  0  0  0  0
 33 35  1  0  0  0  0
 33 36  1  0  0  0  0
 31 32  1  0  0  0  0
 31 33  1  0  0  0  0
M  END
$$$$
default_name
  -OEChem-12212115393D

 36 37  0     1  0  0  0  0  0999 V2000
   -4.0843   -4.0736    1.2944 H   0  0  0  0  0  0  0  0  0  0  0  0
   -4.0342   -3.2816    0.5484 C   0  0  0  0  0  0  0  0  0  0  0  0
   -4.8842   -2.6126    0.6694 H   0  0  0  0  0  0  0  0  0  0  0  0
   -4.0433   -3.7186   -0.4486 H   0  0  0  0  0  0  0  0  0  0  0  0
   -2.7532   -2.5046    0.7444 C   0  0  0  0  0  0  0  0  0  0  0  0
   -1.9803   -2.8096    1.6434 O   0  0  0  0  0  0  0  0  0  0  0  0
   -2.5332   -1.4966   -0.0966 N   0  0  0  0  0  0  0  0  0  0  0  0
   -3.2312   -1.2816   -0.7936 H   0  0  0  0  0  0  0  0  0  0  0  0
   -1.3593   -0.6196   -0.0536 C   0  0  1  0  0  0  0  0  0  0  0  0
   -0.9607   -0.5197   -1.0639 H   0  0  0  0  0  0  0  0  0  0  0  0
   -1.7793    0.7752    0.4362 C   0  0  0  0  0  0  0  0  0  0  0  0
   -0.9024    1.4251    0.4406 H   0  0  0  0  0  0  0  0  0  0  0  0
   -2.4954    1.1916   -0.2742 H   0  0  0  0  0  0  0  0  0  0  0  0
   -2.3906    0.8124    1.8040 C   0  0  0  0  0  0  0  0  0  0  0  0
   -1.7113    0.9389    2.9660 C   0  0  0  0  0  0  0  0  0  0  0  0
   -0.6321    1.0100    3.0454 H   0  0  0  0  0  0  0  0  0  0  0  0
   -2.6011    0.9834    4.0214 N   0  0  0  0  0  0  0  0  0  0  0  0
   -2.3170    1.0710    4.9862 H   0  0  0  0  0  0  0  0  0  0  0  0
   -3.9074    0.9040    3.5877 C   0  0  0  0  0  0  0  0  0  0  0  0
   -5.1414    0.9348    4.2530 C   0  0  0  0  0  0  0  0  0  0  0  0
   -5.1815    1.0334    5.3278 H   0  0  0  0  0  0  0  0  0  0  0  0
   -6.3248    0.8339    3.5018 C   0  0  0  0  0  0  0  0  0  0  0  0
   -7.2858    0.8548    3.9979 H   0  0  0  0  0  0  0  0  0  0  0  0
   -6.2578    0.6987    2.1030 C   0  0  0  0  0  0  0  0  0  0  0  0
   -7.1705    0.6130    1.5298 H   0  0  0  0  0  0  0  0  0  0  0  0
   -5.0118    0.6669    1.4451 C   0  0  0  0  0  0  0  0  0  0  0  0
   -4.9742    0.5492    0.3714 H   0  0  0  0  0  0  0  0  0  0  0  0
   -3.8053    0.7722    2.1704 C   0  0  0  0  0  0  0  0  0  0  0  0
   -0.2496   -1.2199    0.8235 C   0  0  0  0  0  0  0  0  0  0  0  0
    0.7449   -1.7252    0.3045 O   0  0  0  0  0  0  0  0  0  0  0  0
   -0.4207   -1.1660    2.1513 N   0  0  0  0  0  0  0  0  0  0  0  0
   -1.2898   -0.7837    2.4958 H   0  0  0  0  0  0  0  0  0  0  0  0
    0.5354   -1.6865    3.1247 C   0  0  0  0  0  0  0  0  0  0  0  0
    1.5285   -1.2836    2.9169 H   0  0  0  0  0  0  0  0  0  0  0  0
    0.2349   -1.4037    4.1344 H   0  0  0  0  0  0  0  0  0  0  0  0
    0.5766   -2.7745    3.0511 H   0  0  0  0  0  0  0  0  0  0  0  0
  5  6  2  0  0  0  0
  5  7  1  0  0  0  0
  2  3  1  0  0  0  0
  2  4  1  0  0  0  0
  2  5  1  0  0  0  0
  1  2  1  0  0  0  0
 29 30  2  0  0  0  0
 29 31  1  0  0  0  0
 26 27  1  0  0  0  0
 26 28  2  0  0  0  0
 24 25  1  0  0  0  0
 24 26  1  0  0  0  0
 22 23  1  0  0  0  0
 22 24  2  0  0  0  0
 20 21  1  0  0  0  0
 20 22  1  0  0  0  0
 19 20  2  0  0  0  0
 19 28  1  0  0  0  0
 17 18  1  0  0  0  0
 17 19  1  0  0  0  0
 15 16  1  0  0  0  0
 15 17  1  0  0  0  0
 14 15  2  0  0  0  0
 14 28  1  0  0  0  0
 11 12  1  0  0  0  0
 11 13  1  0  0  0  0
 11 14  1  0  0  0  0
  9 10  1  0  0  0  0
  9 11  1  0  0  0  0
  9 29  1  0  0  0  0
  7  8  1  0  0  0  0
  7  9  1  0  0  0  0
 33 34  1  0  0  0  0
 33 35  1  0  0  0  0
 33 36  1  0  0  0  0
 31 32  1  0  0  0  0
 31 33  1  0  0  0  0
M  END
$$$$
default_name
  -OEChem-12212115393D

 36 37  0     1  0  0  0  0  0999 V2000
   -4.0843   -4.0736    1.2944 H   0  0  0  0  0  0  0  0  0  0  0  0
   -4.0342   -3.2816    0.5484 C   0  0  0  0  0  0  0  0  0  0  0  0
   -4.8842   -2.6126    0.6694 H   0  0  0  0  0  0  0  0  0  0  0  0
   -4.0433   -3.7186   -0.4486 H   0  0  0  0  0  0  0  0  0  0  0  0
   -2.7532   -2.5046    0.7444 C   0  0  0  0  0  0  0  0  0  0  0  0
   -1.9803   -2.8096    1.6434 O   0  0  0  0  0  0  0  0  0  0  0  0
   -2.5332   -1.4966   -0.0966 N   0  0  0  0  0  0  0  0  0  0  0  0
   -3.2312   -1.2816   -0.7936 H   0  0  0  0  0  0  0  0  0  0  0  0
   -1.3593   -0.6196   -0.0536 C   0  0  1  0  0  0  0  0  0  0  0  0
   -0.9607   -0.5197   -1.0639 H   0  0  0  0  0  0  0  0  0  0  0  0
   -1.7793    0.7752    0.4362 C   0  0  0  0  0  0  0  0  0  0  0  0
   -0.9024    1.4251    0.4406 H   0  0  0  0  0  0  0  0  0  0  0  0
   -2.4954    1.1916   -0.2742 H   0  0  0  0  0  0  0  0  0  0  0  0
   -2.3906    0.8124    1.8040 C   0  0  0  0  0  0  0  0  0  0  0  0
   -1.7113    0.9389    2.9660 C   0  0  0  0  0  0  0  0  0  0  0  0
   -0.6321    1.0100    3.0454 H   0  0  0  0  0  0  0  0  0  0  0  0
   -2.6011    0.9834    4.0214 N   0  0  0  0  0  0  0  0  0  0  0  0
   -2.3170    1.0710    4.9862 H   0  0  0  0  0  0  0  0  0  0  0  0
   -3.9074    0.9040    3.5877 C   0  0  0  0  0  0  0  0  0  0  0  0
   -5.1414    0.9348    4.2530 C   0  0  0  0  0  0  0  0  0  0  0  0
   -5.1815    1.0334    5.3278 H   0  0  0  0  0  0  0  0  0  0  0  0
   -6.3248    0.8339    3.5018 C   0  0  0  0  0  0  0  0  0  0  0  0
   -7.2858    0.8548    3.9979 H   0  0  0  0  0  0  0  0  0  0  0  0
   -6.2578    0.6987    2.1030 C   0  0  0  0  0  0  0  0  0  0  0  0
   -7.1705    0.6130    1.5298 H   0  0  0  0  0  0  0  0  0  0  0  0
   -5.0118    0.6669    1.4451 C   0  0  0  0  0  0  0  0  0  0  0  0
   -4.9742    0.5492    0.3714 H   0  0  0  0  0  0  0  0  0  0  0  0
   -3.8053    0.7722    2.1704 C   0  0  0  0  0  0  0  0  0  0  0  0
   -0.2496   -1.2199    0.8235 C   0  0  0  0  0  0  0  0  0  0  0  0
    0.8534   -1.4723    0.3404 O   0  0  0  0  0  0  0  0  0  0  0  0
   -0.5419   -1.4495    2.1107 N   0  0  0  0  0  0  0  0  0  0  0  0
   -1.4871   -1.2653    2.4158 H   0  0  0  0  0  0  0  0  0  0  0  0
    0.3957   -2.0122    3.0785 C   0  0  0  0  0  0  0  0  0  0  0  0
    1.3273   -1.4433    3.0622 H   0  0  0  0  0  0  0  0  0  0  0  0
   -0.0323   -1.9755    4.0812 H   0  0  0  0  0  0  0  0  0  0  0  0
    0.6138   -3.0487    2.8163 H   0  0  0  0  0  0  0  0  0  0  0  0
  5  6  2  0  0  0  0
  5  7  1  0  0  0  0
  2  3  1  0  0  0  0
  2  4  1  0  0  0  0
  2  5  1  0  0  0  0
  1  2  1  0  0  0  0
 29 30  2  0  0  0  0
 29 31  1  0  0  0  0
 26 27  1  0  0  0  0
 26 28  2  0  0  0  0
 24 25  1  0  0  0  0
 24 26  1  0  0  0  0
 22 23  1  0  0  0  0
 22 24  2  0  0  0  0
 20 21  1  0  0  0  0
 20 22  1  0  0  0  0
 19 20  2  0  0  0  0
 19 28  1  0  0  0  0
 17 18  1  0  0  0  0
 17 19  1  0  0  0  0
 15 16  1  0  0  0  0
 15 17  1  0  0  0  0
 14 15  2  0  0  0  0
 14 28  1  0  0  0  0
 11 12  1  0  0  0  0
 11 13  1  0  0  0  0
 11 14  1  0  0  0  0
  9 10  1  0  0  0  0
  9 11  1  0  0  0  0
  9 29  1  0  0  0  0
  7  8  1  0  0  0  0
  7  9  1  0  0  0  0
 33 34  1  0  0  0  0
 33 35  1  0  0  0  0
 33 36  1  0  0  0  0
 31 32  1  0  0  0  0
 31 33  1  0  0  0  0
M  END
$$$$
default_name
  -OEChem-12212115393D

 36 37  0     1  0  0  0  0  0999 V2000
   -4.0843   -4.0736    1.2944 H   0  0  0  0  0  0  0  0  0  0  0  0
   -4.0342   -3.2816    0.5484 C   0  0  0  0  0  0  0  0  0  0  0  0
   -4.8842   -2.6126    0.6694 H   0  0  0  0  0  0  0  0  0  0  0  0
   -4.0433   -3.7186   -0.4486 H   0  0  0  0  0  0  0  0  0  0  0  0
   -2.7532   -2.5046    0.7444 C   0  0  0  0  0  0  0  0  0  0  0  0
   -1.9803   -2.8096    1.6434 O   0  0  0  0  0  0  0  0  0  0  0  0
   -2.5332   -1.4966   -0.0966 N   0  0  0  0  0  0  0  0  0  0  0  0
   -3.2312   -1.2816   -0.7936 H   0  0  0  0  0  0  0  0  0  0  0  0
   -1.3593   -0.6196   -0.0536 C   0  0  1  0  0  0  0  0  0  0  0  0
   -0.9607   -0.5197   -1.0639 H   0  0  0  0  0  0  0  0  0  0  0  0
   -1.7793    0.7752    0.4362 C   0  0  0  0  0  0  0  0  0  0  0  0
   -0.9024    1.4251    0.4406 H   0  0  0  0  0  0  0  0  0  0  0  0
   -2.4954    1.1916   -0.2742 H   0  0  0  0  0  0  0  0  0  0  0  0
   -2.3906    0.8124    1.8040 C   0  0  0  0  0  0  0  0  0  0  0  0
   -1.7113    0.9389    2.9660 C   0  0  0  0  0  0  0  0  0  0  0  0
   -0.6321    1.0100    3.0454 H   0  0  0  0  0  0  0  0  0  0  0  0
   -2.6011    0.9834    4.0214 N   0  0  0  0  0  0  0  0  0  0  0  0
   -2.3170    1.0710    4.9862 H   0  0  0  0  0  0  0  0  0  0  0  0
   -3.9074    0.9040    3.5877 C   0  0  0  0  0  0  0  0  0  0  0  0
   -5.1414    0.9348    4.2530 C   0  0  0  0  0  0  0  0  0  0  0  0
   -5.1815    1.0334    5.3278 H   0  0  0  0  0  0  0  0  0  0  0  0
   -6.3248    0.8339    3.5018 C   0  0  0  0  0  0  0  0  0  0  0  0
   -7.2858    0.8548    3.9979 H   0  0  0  0  0  0  0  0  0  0  0  0
   -6.2578    0.6987    2.1030 C   0  0  0  0  0  0  0  0  0  0  0  0
   -7.1705    0.6130    1.5298 H   0  0  0  0  0  0  0  0  0  0  0  0
   -5.0118    0.6669    1.4451 C   0  0  0  0  0  0  0  0  0  0  0  0
   -4.9742    0.5492    0.3714 H   0  0  0  0  0  0  0  0  0  0  0  0
   -3.8053    0.7722    2.1704 C   0  0  0  0  0  0  0  0  0  0  0  0
   -0.2496   -1.2199    0.8235 C   0  0  0  0  0  0  0  0  0  0  0  0
    0.9172   -1.2186    0.4332 O   0  0  0  0  0  0  0  0  0  0  0  0
   -0.6131   -1.7336    2.0063 N   0  0  0  0  0  0  0  0  0  0  0  0
   -1.5984   -1.7446    2.2286 H   0  0  0  0  0  0  0  0  0  0  0  0
    0.3135   -2.3388    2.9590 C   0  0  0  0  0  0  0  0  0  0  0  0
    1.1418   -1.6545    3.1523 H   0  0  0  0  0  0  0  0  0  0  0  0
   -0.2006   -2.5573    3.8959 H   0  0  0  0  0  0  0  0  0  0  0  0
    0.7140   -3.2643    2.5420 H   0  0  0  0  0  0  0  0  0  0  0  0
  5  6  2  0  0  0  0
  5  7  1  0  0  0  0
  2  3  1  0  0  0  0
  2  4  1  0  0  0  0
  2  5  1  0  0  0  0
  1  2  1  0  0  0  0
 29 30  2  0  0  0  0
 29 31  1  0  0  0  0
 26 27  1  0  0  0  0
 26 28  2  0  0  0  0
 24 25  1  0  0  0  0
 24 26  1  0  0  0  0
 22 23  1  0  0  0  0
 22 24  2  0  0  0  0
 20 21  1  0  0  0  0
 20 22  1  0  0  0  0
 19 20  2  0  0  0  0
 19 28  1  0  0  0  0
 17 18  1  0  0  0  0
 17 19  1  0  0  0  0
 15 16  1  0  0  0  0
 15 17  1  0  0  0  0
 14 15  2  0  0  0  0
 14 28  1  0  0  0  0
 11 12  1  0  0  0  0
 11 13  1  0  0  0  0
 11 14  1  0  0  0  0
  9 10  1  0  0  0  0
  9 11  1  0  0  0  0
  9 29  1  0  0  0  0
  7  8  1  0  0  0  0
  7  9  1  0  0  0  0
 33 34  1  0  0  0  0
 33 35  1  0  0  0  0
 33 36  1  0  0  0  0
 31 32  1  0  0  0  0
 31 33  1  0  0  0  0
M  END
$$$$
default_name
  -OEChem-12212115393D

 36 37  0     1  0  0  0  0  0999 V2000
   -4.0843   -4.0736    1.2944 H   0  0  0  0  0  0  0  0  0  0  0  0
   -4.0342   -3.2816    0.5484 C   0  0  0  0  0  0  0  0  0  0  0  0
   -4.8842   -2.6126    0.6694 H   0  0  0  0  0  0  0  0  0  0  0  0
   -4.0433   -3.7186   -0.4486 H   0  0  0  0  0  0  0  0  0  0  0  0
   -2.7532   -2.5046    0.7444 C   0  0  0  0  0  0  0  0  0  0  0  0
   -1.9803   -2.8096    1.6434 O   0  0  0  0  0  0  0  0  0  0  0  0
   -2.5332   -1.4966   -0.0966 N   0  0  0  0  0  0  0  0  0  0  0  0
   -3.2312   -1.2816   -0.7936 H   0  0  0  0  0  0  0  0  0  0  0  0
   -1.3593   -0.6196   -0.0536 C   0  0  1  0  0  0  0  0  0  0  0  0
   -0.9607   -0.5197   -1.0639 H   0  0  0  0  0  0  0  0  0  0  0  0
   -1.7793    0.7752    0.4362 C   0  0  0  0  0  0  0  0  0  0  0  0
   -0.9024    1.4251    0.4406 H   0  0  0  0  0  0  0  0  0  0  0  0
   -2.4954    1.1916   -0.2742 H   0  0  0  0  0  0  0  0  0  0  0  0
   -2.3906    0.8124    1.8040 C   0  0  0  0  0  0  0  0  0  0  0  0
   -1.7113    0.9389    2.9660 C   0  0  0  0  0  0  0  0  0  0  0  0
   -0.6321    1.0100    3.0454 H   0  0  0  0  0  0  0  0  0  0  0  0
   -2.6011    0.9834    4.0214 N   0  0  0  0  0  0  0  0  0  0  0  0
   -2.3170    1.0710    4.9862 H   0  0  0  0  0  0  0  0  0  0  0  0
   -3.9074    0.9040    3.5877 C   0  0  0  0  0  0  0  0  0  0  0  0
   -5.1414    0.9348    4.2530 C   0  0  0  0  0  0  0  0  0  0  0  0
   -5.1815    1.0334    5.3278 H   0  0  0  0  0  0  0  0  0  0  0  0
   -6.3248    0.8339    3.5018 C   0  0  0  0  0  0  0  0  0  0  0  0
   -7.2858    0.8548    3.9979 H   0  0  0  0  0  0  0  0  0  0  0  0
   -6.2578    0.6987    2.1030 C   0  0  0  0  0  0  0  0  0  0  0  0
   -7.1705    0.6130    1.5298 H   0  0  0  0  0  0  0  0  0  0  0  0
   -5.0118    0.6669    1.4451 C   0  0  0  0  0  0  0  0  0  0  0  0
   -4.9742    0.5492    0.3714 H   0  0  0  0  0  0  0  0  0  0  0  0
   -3.8053    0.7722    2.1704 C   0  0  0  0  0  0  0  0  0  0  0  0
   -0.2496   -1.2199    0.8235 C   0  0  0  0  0  0  0  0  0  0  0  0
    0.9319   -0.9816    0.5768 O   0  0  0  0  0  0  0  0  0  0  0  0
   -0.6293   -1.9991    1.8452 N   0  0  0  0  0  0  0  0  0  0  0  0
   -1.6161   -2.1891    1.9469 H   0  0  0  0  0  0  0  0  0  0  0  0
    0.2944   -2.6441    2.7741 C   0  0  0  0  0  0  0  0  0  0  0  0
    0.9848   -1.9027    3.1811 H   0  0  0  0  0  0  0  0  0  0  0  0
   -0.2584   -3.1095    3.5911 H   0  0  0  0  0  0  0  0  0  0  0  0
    0.8704   -3.4064    2.2469 H   0  0  0  0  0  0  0  0  0  0  0  0
  5  6  2  0  0  0  0
  5  7  1  0  0  0  0
  2  3  1  0  0  0  0
  2  4  1  0  0  0  0
  2  5  1  0  0  0  0
  1  2  1  0  0  0  0
 29 30  2  0  0  0  0
 29 31  1  0  0  0  0
 26 27  1  0  0  0  0
 26 28  2  0  0  0  0
 24 25  1  0  0  0  0
 24 26  1  0  0  0  0
 22 23  1  0  0  0  0
 22 24  2  0  0  0  0
 20 21  1  0  0  0  0
 20 22  1  0  0  0  0
 19 20  2  0  0  0  0
 19 28  1  0  0  0  0
 17 18  1  0  0  0  0
 17 19  1  0  0  0  0
 15 16  1  0  0  0  0
 15 17  1  0  0  0  0
 14 15  2  0  0  0  0
 14 28  1  0  0  0  0
 11 12  1  0  0  0  0
 11 13  1  0  0  0  0
 11 14  1  0  0  0  0
  9 10  1  0  0  0  0
  9 11  1  0  0  0  0
  9 29  1  0  0  0  0
  7  8  1  0  0  0  0
  7  9  1  0  0  0  0
 33 34  1  0  0  0  0
 33 35  1  0  0  0  0
 33 36  1  0  0  0  0
 31 32  1  0  0  0  0
 31 33  1  0  0  0  0
M  END
$$$$
default_name
  -OEChem-12212115393D

 36 37  0     1  0  0  0  0  0999 V2000
   -4.0843   -4.0736    1.2944 H   0  0  0  0  0  0  0  0  0  0  0  0
   -4.0342   -3.2816    0.5484 C   0  0  0  0  0  0  0  0  0  0  0  0
   -4.8842   -2.6126    0.6694 H   0  0  0  0  0  0  0  0  0  0  0  0
   -4.0433   -3.7186   -0.4486 H   0  0  0  0  0  0  0  0  0  0  0  0
   -2.7532   -2.5046    0.7444 C   0  0  0  0  0  0  0  0  0  0  0  0
   -1.9803   -2.8096    1.6434 O   0  0  0  0  0  0  0  0  0  0  0  0
   -2.5332   -1.4966   -0.0966 N   0  0  0  0  0  0  0  0  0  0  0  0
   -3.2312   -1.2816   -0.7936 H   0  0  0  0  0  0  0  0  0  0  0  0
   -1.3593   -0.6196   -0.0536 C   0  0  1  0  0  0  0  0  0  0  0  0
   -0.9607   -0.5197   -1.0639 H   0  0  0  0  0  0  0  0  0  0  0  0
   -1.7793    0.7752    0.4362 C   0  0  0  0  0  0  0  0  0  0  0  0
   -0.9024    1.4251    0.4406 H   0  0  0  0  0  0  0  0  0  0  0  0
   -2.4954    1.1916   -0.2742 H   0  0  0  0  0  0  0  0  0  0  0  0
   -2.3906    0.8124    1.8040 C   0  0  0  0  0  0  0  0  0  0  0  0
   -1.7113    0.9389    2.9660 C   0  0  0  0  0  0  0  0  0  0  0  0
   -0.6321    1.0100    3.0454 H   0  0  0  0  0  0  0  0  0  0  0  0
   -2.6011    0.9834    4.0214 N   0  0  0  0  0  0  0  0  0  0  0  0
   -2.3170    1.0710    4.9862 H   0  0  0  0  0  0  0  0  0  0  0  0
   -3.9074    0.9040    3.5877 C   0  0  0  0  0  0  0  0  0  0  0  0
   -5.1414    0.9348    4.2530 C   0  0  0  0  0  0  0  0  0  0  0  0
   -5.1815    1.0334    5.3278 H   0  0  0  0  0  0  0  0  0  0  0  0
   -6.3248    0.8339    3.5018 C   0  0  0  0  0  0  0  0  0  0  0  0
   -7.2858    0.8548    3.9979 H   0  0  0  0  0  0  0  0  0  0  0  0
   -6.2578    0.6987    2.1030 C   0  0  0  0  0  0  0  0  0  0  0  0
   -7.1705    0.6130    1.5298 H   0  0  0  0  0  0  0  0  0  0  0  0
   -5.0118    0.6669    1.4451 C   0  0  0  0  0  0  0  0  0  0  0  0
   -4.9742    0.5492    0.3714 H   0  0  0  0  0  0  0  0  0  0  0  0
   -3.8053    0.7722    2.1704 C   0  0  0  0  0  0  0  0  0  0  0  0
   -0.2496   -1.2199    0.8235 C   0  0  0  0  0  0  0  0  0  0  0  0
    0.8966   -0.7773    0.7612 O   0  0  0  0  0  0  0  0  0  0  0  0
   -0.5895   -2.2278    1.6383 N   0  0  0  0  0  0  0  0  0  0  0  0
   -1.5392   -2.5684    1.5900 H   0  0  0  0  0  0  0  0  0  0  0  0
    0.3399   -2.9072    2.5366 C   0  0  0  0  0  0  0  0  0  0  0  0
    0.8668   -2.1711    3.1466 H   0  0  0  0  0  0  0  0  0  0  0  0
   -0.2019   -3.5945    3.1877 H   0  0  0  0  0  0  0  0  0  0  0  0
    1.0723   -3.4655    1.9511 H   0  0  0  0  0  0  0  0  0  0  0  0
  5  6  2  0  0  0  0
  5  7  1  0  0  0  0
  2  3  1  0  0  0  0
  2  4  1  0  0  0  0
  2  5  1  0  0  0  0
  1  2  1  0  0  0  0
 29 30  2  0  0  0  0
 29 31  1  0  0  0  0
 26 27  1  0  0  0  0
 26 28  2  0  0  0  0
 24 25  1  0  0  0  0
 24 26  1  0  0  0  0
 22 23  1  0  0  0  0
 22 24  2  0  0  0  0
 20 21  1  0  0  0  0
 20 22  1  0  0  0  0
 19 20  2  0  0  0  0
 19 28  1  0  0  0  0
 17 18  1  0  0  0  0
 17 19  1  0  0  0  0
 15 16  1  0  0  0  0
 15 17  1  0  0  0  0
 14 15  2  0  0  0  0
 14 28  1  0  0  0  0
 11 12  1  0  0  0  0
 11 13  1  0  0  0  0
 11 14  1  0  0  0  0
  9 10  1  0  0  0  0
  9 11  1  0  0  0  0
  9 29  1  0  0  0  0
  7  8  1  0  0  0  0
  7  9  1  0  0  0  0
 33 34  1  0  0  0  0
 33 35  1  0  0  0  0
 33 36  1  0  0  0  0
 31 32  1  0  0  0  0
 31 33  1  0  0  0  0
M  END
$$$$
default_name
  -OEChem-12212115393D

 36 37  0     1  0  0  0  0  0999 V2000
   -4.0843   -4.0736    1.2944 H   0  0  0  0  0  0  0  0  0  0  0  0
   -4.0342   -3.2816    0.5484 C   0  0  0  0  0  0  0  0  0  0  0  0
   -4.8842   -2.6126    0.6694 H   0  0  0  0  0  0  0  0  0  0  0  0
   -4.0433   -3.7186   -0.4486 H   0  0  0  0  0  0  0  0  0  0  0  0
   -2.7532   -2.5046    0.7444 C   0  0  0  0  0  0  0  0  0  0  0  0
   -1.9803   -2.8096    1.6434 O   0  0  0  0  0  0  0  0  0  0  0  0
   -2.5332   -1.4966   -0.0966 N   0  0  0  0  0  0  0  0  0  0  0  0
   -3.2312   -1.2816   -0.7936 H   0  0  0  0  0  0  0  0  0  0  0  0
   -1.3593   -0.6196   -0.0536 C   0  0  1  0  0  0  0  0  0  0  0  0
   -0.9607   -0.5197   -1.0639 H   0  0  0  0  0  0  0  0  0  0  0  0
   -1.7793    0.7752    0.4362 C   0  0  0  0  0  0  0  0  0  0  0  0
   -0.9024    1.4251    0.4406 H   0  0  0  0  0  0  0  0  0  0  0  0
   -2.4954    1.1916   -0.2742 H   0  0  0  0  0  0  0  0  0  0  0  0
   -2.3906    0.8124    1.8040 C   0  0  0  0  0  0  0  0  0  0  0  0
   -1.7113    0.9389    2.9660 C   0  0  0  0  0  0  0  0  0  0  0  0
   -0.6321    1.0100    3.0454 H   0  0  0  0  0  0  0  0  0  0  0  0
   -2.6011    0.9834    4.0214 N   0  0  0  0  0  0  0  0  0  0  0  0
   -2.3170    1.0710    4.9862 H   0  0  0  0  0  0  0  0  0  0  0  0
   -3.9074    0.9040    3.5877 C   0  0  0  0  0  0  0  0  0  0  0  0
   -5.1414    0.9348    4.2530 C   0  0  0  0  0  0  0  0  0  0  0  0
   -5.1815    1.0334    5.3278 H   0  0  0  0  0  0  0  0  0  0  0  0
   -6.3248    0.8339    3.5018 C   0  0  0  0  0  0  0  0  0  0  0  0
   -7.2858    0.8548    3.9979 H   0  0  0  0  0  0  0  0  0  0  0  0
   -6.2578    0.6987    2.1030 C   0  0  0  0  0  0  0  0  0  0  0  0
   -7.1705    0.6130    1.5298 H   0  0  0  0  0  0  0  0  0  0  0  0
   -5.0118    0.6669    1.4451 C   0  0  0  0  0  0  0  0  0  0  0  0
   -4.9742    0.5492    0.3714 H   0  0  0  0  0  0  0  0  0  0  0  0
   -3.8053    0.7722    2.1704 C   0  0  0  0  0  0  0  0  0  0  0  0
   -0.2496   -1.2199    0.8235 C   0  0  0  0  0  0  0  0  0  0  0  0
    0.8137   -0.6196    0.9740 O   0  0  0  0  0  0  0  0  0  0  0  0
   -0.4963   -2.4041    1.3997 N   0  0  0  0  0  0  0  0  0  0  0  0
   -1.3727   -2.8567    1.1821 H   0  0  0  0  0  0  0  0  0  0  0  0
    0.4466   -3.1103    2.2626 C   0  0  0  0  0  0  0  0  0  0  0  0
    0.7961   -2.4413    3.0512 H   0  0  0  0  0  0  0  0  0  0  0  0
   -0.0348   -3.9792    2.7131 H   0  0  0  0  0  0  0  0  0  0  0  0
    1.3059   -3.4374    1.6748 H   0  0  0  0  0  0  0  0  0  0  0  0
  5  6  2  0  0  0  0
  5  7  1  0  0  0  0
  2  3  1  0  0  0  0
  2  4  1  0  0  0  0
  2  5  1  0  0  0  0
  1  2  1  0  0  0  0
 29 30  2  0  0  0  0
 29 31  1  0  0  0  0
 26 27  1  0  0  0  0
 26 28  2  0  0  0  0
 24 25  1  0  0  0  0
 24 26  1  0  0  0  0
 22 23  1  0  0  0  0
 22 24  2  0  0  0  0
 20 21  1  0  0  0  0
 20 22  1  0  0  0  0
 19 20  2  0  0  0  0
 19 28  1  0  0  0  0
 17 18  1  0  0  0  0
 17 19  1  0  0  0  0
 15 16  1  0  0  0  0
 15 17  1  0  0  0  0
 14 15  2  0  0  0  0
 14 28  1  0  0  0  0
 11 12  1  0  0  0  0
 11 13  1  0  0  0  0
 11 14  1  0  0  0  0
  9 10  1  0  0  0  0
  9 11  1  0  0  0  0
  9 29  1  0  0  0  0
  7  8  1  0  0  0  0
  7  9  1  0  0  0  0
 33 34  1  0  0  0  0
 33 35  1  0  0  0  0
 33 36  1  0  0  0  0
 31 32  1  0  0  0  0
 31 33  1  0  0  0  0
M  END
$$$$
default_name
  -OEChem-12212115393D

 36 37  0     1  0  0  0  0  0999 V2000
   -4.0843   -4.0736    1.2944 H   0  0  0  0  0  0  0  0  0  0  0  0
   -4.0342   -3.2816    0.5484 C   0  0  0  0  0  0  0  0  0  0  0  0
   -4.8842   -2.6126    0.6694 H   0  0  0  0  0  0  0  0  0  0  0  0
   -4.0433   -3.7186   -0.4486 H   0  0  0  0  0  0  0  0  0  0  0  0
   -2.7532   -2.5046    0.7444 C   0  0  0  0  0  0  0  0  0  0  0  0
   -1.9803   -2.8096    1.6434 O   0  0  0  0  0  0  0  0  0  0  0  0
   -2.5332   -1.4966   -0.0966 N   0  0  0  0  0  0  0  0  0  0  0  0
   -3.2312   -1.2816   -0.7936 H   0  0  0  0  0  0  0  0  0  0  0  0
   -1.3593   -0.6196   -0.0536 C   0  0  1  0  0  0  0  0  0  0  0  0
   -0.9607   -0.5197   -1.0639 H   0  0  0  0  0  0  0  0  0  0  0  0
   -1.7793    0.7752    0.4362 C   0  0  0  0  0  0  0  0  0  0  0  0
   -0.9024    1.4251    0.4406 H   0  0  0  0  0  0  0  0  0  0  0  0
   -2.4954    1.1916   -0.2742 H   0  0  0  0  0  0  0  0  0  0  0  0
   -2.3906    0.8124    1.8040 C   0  0  0  0  0  0  0  0  0  0  0  0
   -1.7113    0.9389    2.9660 C   0  0  0  0  0  0  0  0  0  0  0  0
   -0.6321    1.0100    3.0454 H   0  0  0  0  0  0  0  0  0  0  0  0
   -2.6011    0.9834    4.0214 N   0  0  0  0  0  0  0  0  0  0  0  0
   -2.3170    1.0710    4.9862 H   0  0  0  0  0  0  0  0  0  0  0  0
   -3.9074    0.9040    3.5877 C   0  0  0  0  0  0  0  0  0  0  0  0
   -5.1414    0.9348    4.2530 C   0  0  0  0  0  0  0  0  0  0  0  0
   -5.1815    1.0334    5.3278 H   0  0  0  0  0  0  0  0  0  0  0  0
   -6.3248    0.8339    3.5018 C   0  0  0  0  0  0  0  0  0  0  0  0
   -7.2858    0.8548    3.9979 H   0  0  0  0  0  0  0  0  0  0  0  0
   -6.2578    0.6987    2.1030 C   0  0  0  0  0  0  0  0  0  0  0  0
   -7.1705    0.6130    1.5298 H   0  0  0  0  0  0  0  0  0  0  0  0
   -5.0118    0.6669    1.4451 C   0  0  0  0  0  0  0  0  0  0  0  0
   -4.9742    0.5492    0.3714 H   0  0  0  0  0  0  0  0  0  0  0  0
   -3.8053    0.7722    2.1704 C   0  0  0  0  0  0  0  0  0  0  0  0
   -0.2496   -1.2199    0.8235 C   0  0  0  0  0  0  0  0  0  0  0  0
    0.6888   -0.5194    1.2007 O   0  0  0  0  0  0  0  0  0  0  0  0
   -0.3561   -2.5160    1.1457 N   0  0  0  0  0  0  0  0  0  0  0  0
   -1.1280   -3.0343    0.7510 H   0  0  0  0  0  0  0  0  0  0  0  0
    0.6074   -3.2395    1.9707 C   0  0  0  0  0  0  0  0  0  0  0  0
    0.7773   -2.6949    2.9015 H   0  0  0  0  0  0  0  0  0  0  0  0
    0.2314   -4.2374    2.1996 H   0  0  0  0  0  0  0  0  0  0  0  0
    1.5554   -3.3241    1.4368 H   0  0  0  0  0  0  0  0  0  0  0  0
  5  6  2  0  0  0  0
  5  7  1  0  0  0  0
  2  3  1  0  0  0  0
  2  4  1  0  0  0  0
  2  5  1  0  0  0  0
  1  2  1  0  0  0  0
 29 30  2  0  0  0  0
 29 31  1  0  0  0  0
 26 27  1  0  0  0  0
 26 28  2  0  0  0  0
 24 25  1  0  0  0  0
 24 26  1  0  0  0  0
 22 23  1  0  0  0  0
 22 24  2  0  0  0  0
 20 21  1  0  0  0  0
 20 22  1  0  0  0  0
 19 20  2  0  0  0  0
 19 28  1  0  0  0  0
 17 18  1  0  0  0  0
 17 19  1  0  0  0  0
 15 16  1  0  0  0  0
 15 17  1  0  0  0  0
 14 15  2  0  0  0  0
 14 28  1  0  0  0  0
 11 12  1  0  0  0  0
 11 13  1  0  0  0  0
 11 14  1  0  0  0  0
  9 10  1  0  0  0  0
  9 11  1  0  0  0  0
  9 29  1  0  0  0  0
  7  8  1  0  0  0  0
  7  9  1  0  0  0  0
 33 34  1  0  0  0  0
 33 35  1  0  0  0  0
 33 36  1  0  0  0  0
 31 32  1  0  0  0  0
 31 33  1  0  0  0  0
M  END
$$$$
default_name
  -OEChem-12212115393D

 36 37  0     1  0  0  0  0  0999 V2000
   -4.0843   -4.0736    1.2944 H   0  0  0  0  0  0  0  0  0  0  0  0
   -4.0342   -3.2816    0.5484 C   0  0  0  0  0  0  0  0  0  0  0  0
   -4.8842   -2.6126    0.6694 H   0  0  0  0  0  0  0  0  0  0  0  0
   -4.0433   -3.7186   -0.4486 H   0  0  0  0  0  0  0  0  0  0  0  0
   -2.7532   -2.5046    0.7444 C   0  0  0  0  0  0  0  0  0  0  0  0
   -1.9803   -2.8096    1.6434 O   0  0  0  0  0  0  0  0  0  0  0  0
   -2.5332   -1.4966   -0.0966 N   0  0  0  0  0  0  0  0  0  0  0  0
   -3.2312   -1.2816   -0.7936 H   0  0  0  0  0  0  0  0  0  0  0  0
   -1.3593   -0.6196   -0.0536 C   0  0  1  0  0  0  0  0  0  0  0  0
   -0.9607   -0.5197   -1.0639 H   0  0  0  0  0  0  0  0  0  0  0  0
   -1.7793    0.7752    0.4362 C   0  0  0  0  0  0  0  0  0  0  0  0
   -0.9024    1.4251    0.4406 H   0  0  0  0  0  0  0  0  0  0  0  0
   -2.4954    1.1916   -0.2742 H   0  0  0  0  0  0  0  0  0  0  0  0
   -2.3906    0.8124    1.8040 C   0  0  0  0  0  0  0  0  0  0  0  0
   -1.7113    0.9389    2.9660 C   0  0  0  0  0  0  0  0  0  0  0  0
   -0.6321    1.0100    3.0454 H   0  0  0  0  0  0  0  0  0  0  0  0
   -2.6011    0.9834    4.0214 N   0  0  0  0  0  0  0  0  0  0  0  0
   -2.3170    1.0710    4.9862 H   0  0  0  0  0  0  0  0  0  0  0  0
   -3.9074    0.9040    3.5877 C   0  0  0  0  0  0  0  0  0  0  0  0
   -5.1414    0.9348    4.2530 C   0  0  0  0  0  0  0  0  0  0  0  0
   -5.1815    1.0334    5.3278 H   0  0  0  0  0  0  0  0  0  0  0  0
   -6.3248    0.8339    3.5018 C   0  0  0  0  0  0  0  0  0  0  0  0
   -7.2858    0.8548    3.9979 H   0  0  0  0  0  0  0  0  0  0  0  0
   -6.2578    0.6987    2.1030 C   0  0  0  0  0  0  0  0  0  0  0  0
   -7.1705    0.6130    1.5298 H   0  0  0  0  0  0  0  0  0  0  0  0
   -5.0118    0.6669    1.4451 C   0  0  0  0  0  0  0  0  0  0  0  0
   -4.9742    0.5492    0.3714 H   0  0  0  0  0  0  0  0  0  0  0  0
   -3.8053    0.7722    2.1704 C   0  0  0  0  0  0  0  0  0  0  0  0
   -0.2496   -1.2199    0.8235 C   0  0  0  0  0  0  0  0  0  0  0  0
    0.5305   -0.4833    1.4257 O   0  0  0  0  0  0  0  0  0  0  0  0
   -0.1784   -2.5560    0.8936 N   0  0  0  0  0  0  0  0  0  0  0  0
   -0.8219   -3.0891    0.3262 H   0  0  0  0  0  0  0  0  0  0  0  0
    0.8114   -3.2859    1.6809 C   0  0  0  0  0  0  0  0  0  0  0  0
    0.8117   -2.9146    2.7075 H   0  0  0  0  0  0  0  0  0  0  0  0
    0.5785   -4.3515    1.6823 H   0  0  0  0  0  0  0  0  0  0  0  0
    1.8037   -3.1333    1.2532 H   0  0  0  0  0  0  0  0  0  0  0  0
  5  6  2  0  0  0  0
  5  7  1  0  0  0  0
  2  3  1  0  0  0  0
  2  4  1  0  0  0  0
  2  5  1  0  0  0  0
  1  2  1  0  0  0  0
 29 30  2  0  0  0  0
 29 31  1  0  0  0  0
 26 27  1  0  0  0  0
 26 28  2  0  0  0  0
 24 25  1  0  0  0  0
 24 26  1  0  0  0  0
 22 23  1  0  0  0  0
 22 24  2  0  0  0  0
 20 21  1  0  0  0  0
 20 22  1  0  0  0  0
 19 20  2  0  0  0  0
 19 28  1  0  0  0  0
 17 18  1  0  0  0  0
 17 19  1  0  0  0  0
 15 16  1  0  0  0  0
 15 17  1  0  0  0  0
 14 15  2  0  0  0  0
 14 28  1  0  0  0  0
 11 12  1  0  0  0  0
 11 13  1  0  0  0  0
 11 14  1  0  0  0  0
  9 10  1  0  0  0  0
  9 11  1  0  0  0  0
  9 29  1  0  0  0  0
  7  8  1  0  0  0  0
  7  9  1  0  0  0  0
 33 34  1  0  0  0  0
 33 35  1  0  0  0  0
 33 36  1  0  0  0  0
 31 32  1  0  0  0  0
 31 33  1  0  0  0  0
M  END
$$$$
default_name
  -OEChem-12212115393D

 36 37  0     1  0  0  0  0  0999 V2000
   -4.0843   -4.0736    1.2944 H   0  0  0  0  0  0  0  0  0  0  0  0
   -4.0342   -3.2816    0.5484 C   0  0  0  0  0  0  0  0  0  0  0  0
   -4.8842   -2.6126    0.6694 H   0  0  0  0  0  0  0  0  0  0  0  0
   -4.0433   -3.7186   -0.4486 H   0  0  0  0  0  0  0  0  0  0  0  0
   -2.7532   -2.5046    0.7444 C   0  0  0  0  0  0  0  0  0  0  0  0
   -1.9803   -2.8096    1.6434 O   0  0  0  0  0  0  0  0  0  0  0  0
   -2.5332   -1.4966   -0.0966 N   0  0  0  0  0  0  0  0  0  0  0  0
   -3.2312   -1.2816   -0.7936 H   0  0  0  0  0  0  0  0  0  0  0  0
   -1.3593   -0.6196   -0.0536 C   0  0  1  0  0  0  0  0  0  0  0  0
   -0.9607   -0.5197   -1.0639 H   0  0  0  0  0  0  0  0  0  0  0  0
   -1.7793    0.7752    0.4362 C   0  0  0  0  0  0  0  0  0  0  0  0
   -0.9024    1.4251    0.4406 H   0  0  0  0  0  0  0  0  0  0  0  0
   -2.4954    1.1916   -0.2742 H   0  0  0  0  0  0  0  0  0  0  0  0
   -2.3906    0.8124    1.8040 C   0  0  0  0  0  0  0  0  0  0  0  0
   -1.7113    0.9389    2.9660 C   0  0  0  0  0  0  0  0  0  0  0  0
   -0.6321    1.0100    3.0454 H   0  0  0  0  0  0  0  0  0  0  0  0
   -2.6011    0.9834    4.0214 N   0  0  0  0  0  0  0  0  0  0  0  0
   -2.3170    1.0710    4.9862 H   0  0  0  0  0  0  0  0  0  0  0  0
   -3.9074    0.9040    3.5877 C   0  0  0  0  0  0  0  0  0  0  0  0
   -5.1414    0.9348    4.2530 C   0  0  0  0  0  0  0  0  0  0  0  0
   -5.1815    1.0334    5.3278 H   0  0  0  0  0  0  0  0  0  0  0  0
   -6.3248    0.8339    3.5018 C   0  0  0  0  0  0  0  0  0  0  0  0
   -7.2858    0.8548    3.9979 H   0  0  0  0  0  0  0  0  0  0  0  0
   -6.2578    0.6987    2.1030 C   0  0  0  0  0  0  0  0  0  0  0  0
   -7.1705    0.6130    1.5298 H   0  0  0  0  0  0  0  0  0  0  0  0
   -5.0118    0.6669    1.4451 C   0  0  0  0  0  0  0  0  0  0  0  0
   -4.9742    0.5492    0.3714 H   0  0  0  0  0  0  0  0  0  0  0  0
   -3.8053    0.7722    2.1704 C   0  0  0  0  0  0  0  0  0  0  0  0
   -0.2496   -1.2199    0.8235 C   0  0  0  0  0  0  0  0  0  0  0  0
    0.3494   -0.5140    1.6338 O   0  0  0  0  0  0  0  0  0  0  0  0
    0.0245   -2.5212    0.6606 N   0  0  0  0  0  0  0  0  0  0  0  0
   -0.4751   -3.0175   -0.0635 H   0  0  0  0  0  0  0  0  0  0  0  0
    1.0445   -3.2465    1.4129 C   0  0  0  0  0  0  0  0  0  0  0  0
    0.8971   -3.0856    2.4826 H   0  0  0  0  0  0  0  0  0  0  0  0
    0.9831   -4.3138    1.1964 H   0  0  0  0  0  0  0  0  0  0  0  0
    2.0339   -2.8780    1.1367 H   0  0  0  0  0  0  0  0  0  0  0  0
  5  6  2  0  0  0  0
  5  7  1  0  0  0  0
  2  3  1  0  0  0  0
  2  4  1  0  0  0  0
  2  5  1  0  0  0  0
  1  2  1  0  0  0  0
 29 30  2  0  0  0  0
 29 31  1  0  0  0  0
 26 27  1  0  0  0  0
 26 28  2  0  0  0  0
 24 25  1  0  0  0  0
 24 26  1  0  0  0  0
 22 23  1  0  0  0  0
 22 24  2  0  0  0  0
 20 21  1  0  0  0  0
 20 22  1  0  0  0  0
 19 20  2  0  0  0  0
 19 28  1  0  0  0  0
 17 18  1  0  0  0  0
 17 19  1  0  0  0  0
 15 16  1  0  0  0  0
 15 17  1  0  0  0  0
 14 15  2  0  0  0  0
 14 28  1  0  0  0  0
 11 12  1  0  0  0  0
 11 13  1  0  0  0  0
 11 14  1  0  0  0  0
  9 10  1  0  0  0  0
  9 11  1  0  0  0  0
  9 29  1  0  0  0  0
  7  8  1  0  0  0  0
  7  9  1  0  0  0  0
 33 34  1  0  0  0  0
 33 35  1  0  0  0  0
 33 36  1  0  0  0  0
 31 32  1  0  0  0  0
 31 33  1  0  0  0  0
M  END
$$$$
default_name
  -OEChem-12212115393D

 36 37  0     1  0  0  0  0  0999 V2000
   -4.0843   -4.0736    1.2944 H   0  0  0  0  0  0  0  0  0  0  0  0
   -4.0342   -3.2816    0.5484 C   0  0  0  0  0  0  0  0  0  0  0  0
   -4.8842   -2.6126    0.6694 H   0  0  0  0  0  0  0  0  0  0  0  0
   -4.0433   -3.7186   -0.4486 H   0  0  0  0  0  0  0  0  0  0  0  0
   -2.7532   -2.5046    0.7444 C   0  0  0  0  0  0  0  0  0  0  0  0
   -1.9803   -2.8096    1.6434 O   0  0  0  0  0  0  0  0  0  0  0  0
   -2.5332   -1.4966   -0.0966 N   0  0  0  0  0  0  0  0  0  0  0  0
   -3.2312   -1.2816   -0.7936 H   0  0  0  0  0  0  0  0  0  0  0  0
   -1.3593   -0.6196   -0.0536 C   0  0  1  0  0  0  0  0  0  0  0  0
   -0.9607   -0.5197   -1.0639 H   0  0  0  0  0  0  0  0  0  0  0  0
   -1.7793    0.7752    0.4362 C   0  0  0  0  0  0  0  0  0  0  0  0
   -0.9024    1.4251    0.4406 H   0  0  0  0  0  0  0  0  0  0  0  0
   -2.4954    1.1916   -0.2742 H   0  0  0  0  0  0  0  0  0  0  0  0
   -2.3906    0.8124    1.8040 C   0  0  0  0  0  0  0  0  0  0  0  0
   -1.7113    0.9389    2.9660 C   0  0  0  0  0  0  0  0  0  0  0  0
   -0.6321    1.0100    3.0454 H   0  0  0  0  0  0  0  0  0  0  0  0
   -2.6011    0.9834    4.0214 N   0  0  0  0  0  0  0  0  0  0  0  0
   -2.3170    1.0710    4.9862 H   0  0  0  0  0  0  0  0  0  0  0  0
   -3.9074    0.9040    3.5877 C   0  0  0  0  0  0  0  0  0  0  0  0
   -5.1414    0.9348    4.2530 C   0  0  0  0  0  0  0  0  0  0  0  0
   -5.1815    1.0334    5.3278 H   0  0  0  0  0  0  0  0  0  0  0  0
   -6.3248    0.8339    3.5018 C   0  0  0  0  0  0  0  0  0  0  0  0
   -7.2858    0.8548    3.9979 H   0  0  0  0  0  0  0  0  0  0  0  0
   -6.2578    0.6987    2.1030 C   0  0  0  0  0  0  0  0  0  0  0  0
   -7.1705    0.6130    1.5298 H   0  0  0  0  0  0  0  0  0  0  0  0
   -5.0118    0.6669    1.4451 C   0  0  0  0  0  0  0  0  0  0  0  0
   -4.9742    0.5492    0.3714 H   0  0  0  0  0  0  0  0  0  0  0  0
   -3.8053    0.7722    2.1704 C   0  0  0  0  0  0  0  0  0  0  0  0
   -0.2496   -1.2199    0.8235 C   0  0  0  0  0  0  0  0  0  0  0  0
    0.1580   -0.6092    1.8107 O   0  0  0  0  0  0  0  0  0  0  0  0
    0.2390   -2.4141    0.4626 N   0  0  0  0  0  0  0  0  0  0  0  0
   -0.1113   -2.8242   -0.3914 H   0  0  0  0  0  0  0  0  0  0  0  0
    1.2910   -3.1239    1.1850 C   0  0  0  0  0  0  0  0  0  0  0  0
    1.0275   -3.1960    2.2419 H   0  0  0  0  0  0  0  0  0  0  0  0
    1.4173   -4.1267    0.7750 H   0  0  0  0  0  0  0  0  0  0  0  0
    2.2303   -2.5756    1.0951 H   0  0  0  0  0  0  0  0  0  0  0  0
  5  6  2  0  0  0  0
  5  7  1  0  0  0  0
  2  3  1  0  0  0  0
  2  4  1  0  0  0  0
  2  5  1  0  0  0  0
  1  2  1  0  0  0  0
 29 30  2  0  0  0  0
 29 31  1  0  0  0  0
 26 27  1  0  0  0  0
 26 28  2  0  0  0  0
 24 25  1  0  0  0  0
 24 26  1  0  0  0  0
 22 23  1  0  0  0  0
 22 24  2  0  0  0  0
 20 21  1  0  0  0  0
 20 22  1  0  0  0  0
 19 20  2  0  0  0  0
 19 28  1  0  0  0  0
 17 18  1  0  0  0  0
 17 19  1  0  0  0  0
 15 16  1  0  0  0  0
 15 17  1  0  0  0  0
 14 15  2  0  0  0  0
 14 28  1  0  0  0  0
 11 12  1  0  0  0  0
 11 13  1  0  0  0  0
 11 14  1  0  0  0  0
  9 10  1  0  0  0  0
  9 11  1  0  0  0  0
  9 29  1  0  0  0  0
  7  8  1  0  0  0  0
  7  9  1  0  0  0  0
 33 34  1  0  0  0  0
 33 35  1  0  0  0  0
 33 36  1  0  0  0  0
 31 32  1  0  0  0  0
 31 33  1  0  0  0  0
M  END
$$$$
default_name
  -OEChem-12212115393D

 36 37  0     1  0  0  0  0  0999 V2000
   -4.0843   -4.0736    1.2944 H   0  0  0  0  0  0  0  0  0  0  0  0
   -4.0342   -3.2816    0.5484 C   0  0  0  0  0  0  0  0  0  0  0  0
   -4.8842   -2.6126    0.6694 H   0  0  0  0  0  0  0  0  0  0  0  0
   -4.0433   -3.7186   -0.4486 H   0  0  0  0  0  0  0  0  0  0  0  0
   -2.7532   -2.5046    0.7444 C   0  0  0  0  0  0  0  0  0  0  0  0
   -1.9803   -2.8096    1.6434 O   0  0  0  0  0  0  0  0  0  0  0  0
   -2.5332   -1.4966   -0.0966 N   0  0  0  0  0  0  0  0  0  0  0  0
   -3.2312   -1.2816   -0.7936 H   0  0  0  0  0  0  0  0  0  0  0  0
   -1.3593   -0.6196   -0.0536 C   0  0  1  0  0  0  0  0  0  0  0  0
   -0.9607   -0.5197   -1.0639 H   0  0  0  0  0  0  0  0  0  0  0  0
   -1.7793    0.7752    0.4362 C   0  0  0  0  0  0  0  0  0  0  0  0
   -0.9024    1.4251    0.4406 H   0  0  0  0  0  0  0  0  0  0  0  0
   -2.4954    1.1916   -0.2742 H   0  0  0  0  0  0  0  0  0  0  0  0
   -2.3906    0.8124    1.8040 C   0  0  0  0  0  0  0  0  0  0  0  0
   -1.7113    0.9389    2.9660 C   0  0  0  0  0  0  0  0  0  0  0  0
   -0.6321    1.0100    3.0454 H   0  0  0  0  0  0  0  0  0  0  0  0
   -2.6011    0.9834    4.0214 N   0  0  0  0  0  0  0  0  0  0  0  0
   -2.3170    1.0710    4.9862 H   0  0  0  0  0  0  0  0  0  0  0  0
   -3.9074    0.9040    3.5877 C   0  0  0  0  0  0  0  0  0  0  0  0
   -5.1414    0.9348    4.2530 C   0  0  0  0  0  0  0  0  0  0  0  0
   -5.1815    1.0334    5.3278 H   0  0  0  0  0  0  0  0  0  0  0  0
   -6.3248    0.8339    3.5018 C   0  0  0  0  0  0  0  0  0  0  0  0
   -7.2858    0.8548    3.9979 H   0  0  0  0  0  0  0  0  0  0  0  0
   -6.2578    0.6987    2.1030 C   0  0  0  0  0  0  0  0  0  0  0  0
   -7.1705    0.6130    1.5298 H   0  0  0  0  0  0  0  0  0  0  0  0
   -5.0118    0.6669    1.4451 C   0  0  0  0  0  0  0  0  0  0  0  0
   -4.9742    0.5492    0.3714 H   0  0  0  0  0  0  0  0  0  0  0  0
   -3.8053    0.7722    2.1704 C   0  0  0  0  0  0  0  0  0  0  0  0
   -0.2496   -1.2199    0.8235 C   0  0  0  0  0  0  0  0  0  0  0  0
   -0.0307   -0.7626    1.9445 O   0  0  0  0  0  0  0  0  0  0  0  0
    0.4504   -2.2419    0.3130 N   0  0  0  0  0  0  0  0  0  0  0  0
    0.2446   -2.5225   -0.6353 H   0  0  0  0  0  0  0  0  0  0  0  0
    1.5340   -2.9264    1.0127 C   0  0  0  0  0  0  0  0  0  0  0  0
    1.1941   -3.2385    2.0021 H   0  0  0  0  0  0  0  0  0  0  0  0
    1.8518   -3.8031    0.4468 H   0  0  0  0  0  0  0  0  0  0  0  0
    2.3795   -2.2468    1.1314 H   0  0  0  0  0  0  0  0  0  0  0  0
  5  6  2  0  0  0  0
  5  7  1  0  0  0  0
  2  3  1  0  0  0  0
  2  4  1  0  0  0  0
  2  5  1  0  0  0  0
  1  2  1  0  0  0  0
 29 30  2  0  0  0  0
 29 31  1  0  0  0  0
 26 27  1  0  0  0  0
 26 28  2  0  0  0  0
 24 25  1  0  0  0  0
 24 26  1  0  0  0  0
 22 23  1  0  0  0  0
 22 24  2  0  0  0  0
 20 21  1  0  0  0  0
 20 22  1  0  0  0  0
 19 20  2  0  0  0  0
 19 28  1  0  0  0  0
 17 18  1  0  0  0  0
 17 19  1  0  0  0  0
 15 16  1  0  0  0  0
 15 17  1  0  0  0  0
 14 15  2  0  0  0  0
 14 28  1  0  0  0  0
 11 12  1  0  0  0  0
 11 13  1  0  0  0  0
 11 14  1  0  0  0  0
  9 10  1  0  0  0  0
  9 11  1  0  0  0  0
  9 29  1  0  0  0  0
  7  8  1  0  0  0  0
  7  9  1  0  0  0  0
 33 34  1  0  0  0  0
 33 35  1  0  0  0  0
 33 36  1  0  0  0  0
 31 32  1  0  0  0  0
 31 33  1  0  0  0  0
M  END
$$$$
default_name
  -OEChem-12212115393D

 36 37  0     1  0  0  0  0  0999 V2000
   -4.0843   -4.0736    1.2944 H   0  0  0  0  0  0  0  0  0  0  0  0
   -4.0342   -3.2816    0.5484 C   0  0  0  0  0  0  0  0  0  0  0  0
   -4.8842   -2.6126    0.6694 H   0  0  0  0  0  0  0  0  0  0  0  0
   -4.0433   -3.7186   -0.4486 H   0  0  0  0  0  0  0  0  0  0  0  0
   -2.7532   -2.5046    0.7444 C   0  0  0  0  0  0  0  0  0  0  0  0
   -1.9803   -2.8096    1.6434 O   0  0  0  0  0  0  0  0  0  0  0  0
   -2.5332   -1.4966   -0.0966 N   0  0  0  0  0  0  0  0  0  0  0  0
   -3.2312   -1.2816   -0.7936 H   0  0  0  0  0  0  0  0  0  0  0  0
   -1.3593   -0.6196   -0.0536 C   0  0  1  0  0  0  0  0  0  0  0  0
   -0.9607   -0.5197   -1.0639 H   0  0  0  0  0  0  0  0  0  0  0  0
   -1.7793    0.7752    0.4362 C   0  0  0  0  0  0  0  0  0  0  0  0
   -0.9024    1.4251    0.4406 H   0  0  0  0  0  0  0  0  0  0  0  0
   -2.4954    1.1916   -0.2742 H   0  0  0  0  0  0  0  0  0  0  0  0
   -2.3906    0.8124    1.8040 C   0  0  0  0  0  0  0  0  0  0  0  0
   -1.7113    0.9389    2.9660 C   0  0  0  0  0  0  0  0  0  0  0  0
   -0.6321    1.0100    3.0454 H   0  0  0  0  0  0  0  0  0  0  0  0
   -2.6011    0.9834    4.0214 N   0  0  0  0  0  0  0  0  0  0  0  0
   -2.3170    1.0710    4.9862 H   0  0  0  0  0  0  0  0  0  0  0  0
   -3.9074    0.9040    3.5877 C   0  0  0  0  0  0  0  0  0  0  0  0
   -5.1414    0.9348    4.2530 C   0  0  0  0  0  0  0  0  0  0  0  0
   -5.1815    1.0334    5.3278 H   0  0  0  0  0  0  0  0  0  0  0  0
   -6.3248    0.8339    3.5018 C   0  0  0  0  0  0  0  0  0  0  0  0
   -7.2858    0.8548    3.9979 H   0  0  0  0  0  0  0  0  0  0  0  0
   -6.2578    0.6987    2.1030 C   0  0  0  0  0  0  0  0  0  0  0  0
   -7.1705    0.6130    1.5298 H   0  0  0  0  0  0  0  0  0  0  0  0
   -5.0118    0.6669    1.4451 C   0  0  0  0  0  0  0  0  0  0  0  0
   -4.9742    0.5492    0.3714 H   0  0  0  0  0  0  0  0  0  0  0  0
   -3.8053    0.7722    2.1704 C   0  0  0  0  0  0  0  0  0  0  0  0
   -0.2496   -1.2199    0.8235 C   0  0  0  0  0  0  0  0  0  0  0  0
   -0.2038   -0.9636    2.0259 O   0  0  0  0  0  0  0  0  0  0  0  0
    0.6442   -2.0164    0.2221 N   0  0  0  0  0  0  0  0  0  0  0  0
    0.5685   -2.1328   -0.7784 H   0  0  0  0  0  0  0  0  0  0  0  0
    1.7570   -2.6676    0.9078 C   0  0  0  0  0  0  0  0  0  0  0  0
    1.3856   -3.2100    1.7793 H   0  0  0  0  0  0  0  0  0  0  0  0
    2.2568   -3.3650    0.2343 H   0  0  0  0  0  0  0  0  0  0  0  0
    2.4714   -1.9138    1.2429 H   0  0  0  0  0  0  0  0  0  0  0  0
  5  6  2  0  0  0  0
  5  7  1  0  0  0  0
  2  3  1  0  0  0  0
  2  4  1  0  0  0  0
  2  5  1  0  0  0  0
  1  2  1  0  0  0  0
 29 30  2  0  0  0  0
 29 31  1  0  0  0  0
 26 27  1  0  0  0  0
 26 28  2  0  0  0  0
 24 25  1  0  0  0  0
 24 26  1  0  0  0  0
 22 23  1  0  0  0  0
 22 24  2  0  0  0  0
 20 21  1  0  0  0  0
 20 22  1  0  0  0  0
 19 20  2  0  0  0  0
 19 28  1  0  0  0  0
 17 18  1  0  0  0  0
 17 19  1  0  0  0  0
 15 16  1  0  0  0  0
 15 17  1  0  0  0  0
 14 15  2  0  0  0  0
 14 28  1  0  0  0  0
 11 12  1  0  0  0  0
 11 13  1  0  0  0  0
 11 14  1  0  0  0  0
  9 10  1  0  0  0  0
  9 11  1  0  0  0  0
  9 29  1  0  0  0  0
  7  8  1  0  0  0  0
  7  9  1  0  0  0  0
 33 34  1  0  0  0  0
 33 35  1  0  0  0  0
 33 36  1  0  0  0  0
 31 32  1  0  0  0  0
 31 33  1  0  0  0  0
M  END
$$$$
default_name
  -OEChem-12212115393D

 36 37  0     1  0  0  0  0  0999 V2000
   -4.0843   -4.0736    1.2944 H   0  0  0  0  0  0  0  0  0  0  0  0
   -4.0342   -3.2816    0.5484 C   0  0  0  0  0  0  0  0  0  0  0  0
   -4.8842   -2.6126    0.6694 H   0  0  0  0  0  0  0  0  0  0  0  0
   -4.0433   -3.7186   -0.4486 H   0  0  0  0  0  0  0  0  0  0  0  0
   -2.7532   -2.5046    0.7444 C   0  0  0  0  0  0  0  0  0  0  0  0
   -1.9803   -2.8096    1.6434 O   0  0  0  0  0  0  0  0  0  0  0  0
   -2.5332   -1.4966   -0.0966 N   0  0  0  0  0  0  0  0  0  0  0  0
   -3.2312   -1.2816   -0.7936 H   0  0  0  0  0  0  0  0  0  0  0  0
   -1.3593   -0.6196   -0.0536 C   0  0  1  0  0  0  0  0  0  0  0  0
   -0.9607   -0.5197   -1.0639 H   0  0  0  0  0  0  0  0  0  0  0  0
   -1.7793    0.7752    0.4362 C   0  0  0  0  0  0  0  0  0  0  0  0
   -0.9024    1.4251    0.4406 H   0  0  0  0  0  0  0  0  0  0  0  0
   -2.4954    1.1916   -0.2742 H   0  0  0  0  0  0  0  0  0  0  0  0
   -2.3906    0.8124    1.8040 C   0  0  0  0  0  0  0  0  0  0  0  0
   -1.7113    0.9389    2.9660 C   0  0  0  0  0  0  0  0  0  0  0  0
   -0.6321    1.0100    3.0454 H   0  0  0  0  0  0  0  0  0  0  0  0
   -2.6011    0.9834    4.0214 N   0  0  0  0  0  0  0  0  0  0  0  0
   -2.3170    1.0710    4.9862 H   0  0  0  0  0  0  0  0  0  0  0  0
   -3.9074    0.9040    3.5877 C   0  0  0  0  0  0  0  0  0  0  0  0
   -5.1414    0.9348    4.2530 C   0  0  0  0  0  0  0  0  0  0  0  0
   -5.1815    1.0334    5.3278 H   0  0  0  0  0  0  0  0  0  0  0  0
   -6.3248    0.8339    3.5018 C   0  0  0  0  0  0  0  0  0  0  0  0
   -7.2858    0.8548    3.9979 H   0  0  0  0  0  0  0  0  0  0  0  0
   -6.2578    0.6987    2.1030 C   0  0  0  0  0  0  0  0  0  0  0  0
   -7.1705    0.6130    1.5298 H   0  0  0  0  0  0  0  0  0  0  0  0
   -5.0118    0.6669    1.4451 C   0  0  0  0  0  0  0  0  0  0  0  0
   -4.9742    0.5492    0.3714 H   0  0  0  0  0  0  0  0  0  0  0  0
   -3.8053    0.7722    2.1704 C   0  0  0  0  0  0  0  0  0  0  0  0
   -0.2496   -1.2199    0.8235 C   0  0  0  0  0  0  0  0  0  0  0  0
   -0.3496   -1.1985    2.0496 O   0  0  0  0  0  0  0  0  0  0  0  0
    0.8074   -1.7530    0.1960 N   0  0  0  0  0  0  0  0  0  0  0  0
    0.8383   -1.6819   -0.8111 H   0  0  0  0  0  0  0  0  0  0  0  0
    1.9447   -2.3650    0.8773 C   0  0  0  0  0  0  0  0  0  0  0  0
    1.5889   -3.1126    1.5888 H   0  0  0  0  0  0  0  0  0  0  0  0
    2.6048   -2.8422    0.1518 H   0  0  0  0  0  0  0  0  0  0  0  0
    2.4998   -1.5995    1.4222 H   0  0  0  0  0  0  0  0  0  0  0  0
  5  6  2  0  0  0  0
  5  7  1  0  0  0  0
  2  3  1  0  0  0  0
  2  4  1  0  0  0  0
  2  5  1  0  0  0  0
  1  2  1  0  0  0  0
 29 30  2  0  0  0  0
 29 31  1  0  0  0  0
 26 27  1  0  0  0  0
 26 28  2  0  0  0  0
 24 25  1  0  0  0  0
 24 26  1  0  0  0  0
 22 23  1  0  0  0  0
 22 24  2  0  0  0  0
 20 21  1  0  0  0  0
 20 22  1  0  0  0  0
 19 20  2  0  0  0  0
 19 28  1  0  0  0  0
 17 18  1  0  0  0  0
 17 19  1  0  0  0  0
 15 16  1  0  0  0  0
 15 17  1  0  0  0  0
 14 15  2  0  0  0  0
 14 28  1  0  0  0  0
 11 12  1  0  0  0  0
 11 13  1  0  0  0  0
 11 14  1  0  0  0  0
  9 10  1  0  0  0  0
  9 11  1  0  0  0  0
  9 29  1  0  0  0  0
  7  8  1  0  0  0  0
  7  9  1  0  0  0  0
 33 34  1  0  0  0  0
 33 35  1  0  0  0  0
 33 36  1  0  0  0  0
 31 32  1  0  0  0  0
 31 33  1  0  0  0  0
M  END
$$$$
default_name
  -OEChem-12212115393D

 36 37  0     1  0  0  0  0  0999 V2000
   -4.0843   -4.0736    1.2944 H   0  0  0  0  0  0  0  0  0  0  0  0
   -4.0342   -3.2816    0.5484 C   0  0  0  0  0  0  0  0  0  0  0  0
   -4.8842   -2.6126    0.6694 H   0  0  0  0  0  0  0  0  0  0  0  0
   -4.0433   -3.7186   -0.4486 H   0  0  0  0  0  0  0  0  0  0  0  0
   -2.7532   -2.5046    0.7444 C   0  0  0  0  0  0  0  0  0  0  0  0
   -1.9803   -2.8096    1.6434 O   0  0  0  0  0  0  0  0  0  0  0  0
   -2.5332   -1.4966   -0.0966 N   0  0  0  0  0  0  0  0  0  0  0  0
   -3.2312   -1.2816   -0.7936 H   0  0  0  0  0  0  0  0  0  0  0  0
   -1.3593   -0.6196   -0.0536 C   0  0  1  0  0  0  0  0  0  0  0  0
   -0.9607   -0.5197   -1.0639 H   0  0  0  0  0  0  0  0  0  0  0  0
   -1.7793    0.7752    0.4362 C   0  0  0  0  0  0  0  0  0  0  0  0
   -0.9024    1.4251    0.4406 H   0  0  0  0  0  0  0  0  0  0  0  0
   -2.4954    1.1916   -0.2742 H   0  0  0  0  0  0  0  0  0  0  0  0
   -2.3906    0.8124    1.8040 C   0  0  0  0  0  0  0  0  0  0  0  0
   -1.7113    0.9389    2.9660 C   0  0  0  0  0  0  0  0  0  0  0  0
   -0.6321    1.0100    3.0454 H   0  0  0  0  0  0  0  0  0  0  0  0
   -2.6011    0.9834    4.0214 N   0  0  0  0  0  0  0  0  0  0  0  0
   -2.3170    1.0710    4.9862 H   0  0  0  0  0  0  0  0  0  0  0  0
   -3.9074    0.9040    3.5877 C   0  0  0  0  0  0  0  0  0  0  0  0
   -5.1414    0.9348    4.2530 C   0  0  0  0  0  0  0  0  0  0  0  0
   -5.1815    1.0334    5.3278 H   0  0  0  0  0  0  0  0  0  0  0  0
   -6.3248    0.8339    3.5018 C   0  0  0  0  0  0  0  0  0  0  0  0
   -7.2858    0.8548    3.9979 H   0  0  0  0  0  0  0  0  0  0  0  0
   -6.2578    0.6987    2.1030 C   0  0  0  0  0  0  0  0  0  0  0  0
   -7.1705    0.6130    1.5298 H   0  0  0  0  0  0  0  0  0  0  0  0
   -5.0118    0.6669    1.4451 C   0  0  0  0  0  0  0  0  0  0  0  0
   -4.9742    0.5492    0.3714 H   0  0  0  0  0  0  0  0  0  0  0  0
   -3.8053    0.7722    2.1704 C   0  0  0  0  0  0  0  0  0  0  0  0
   -0.2496   -1.2199    0.8235 C   0  0  0  0  0  0  0  0  0  0  0  0
   -0.4580   -1.4514    2.0137 O   0  0  0  0  0  0  0  0  0  0  0  0
    0.9287   -1.4695    0.2365 N   0  0  0  0  0  0  0  0  0  0  0  0
    1.0356   -1.2003   -0.7311 H   0  0  0  0  0  0  0  0  0  0  0  0
    2.0845   -2.0393    0.9235 C   0  0  0  0  0  0  0  0  0  0  0  0
    1.7901   -2.9528    1.4436 H   0  0  0  0  0  0  0  0  0  0  0  0
    2.8720   -2.2704    0.2050 H   0  0  0  0  0  0  0  0  0  0  0  0
    2.4625   -1.3253    1.6570 H   0  0  0  0  0  0  0  0  0  0  0  0
  5  6  2  0  0  0  0
  5  7  1  0  0  0  0
  2  3  1  0  0  0  0
  2  4  1  0  0  0  0
  2  5  1  0  0  0  0
  1  2  1  0  0  0  0
 29 30  2  0  0  0  0
 29 31  1  0  0  0  0
 26 27  1  0  0  0  0
 26 28  2  0  0  0  0
 24 25  1  0  0  0  0
 24 26  1  0  0  0  0
 22 23  1  0  0  0  0
 22 24  2  0  0  0  0
 20 21  1  0  0  0  0
 20 22  1  0  0  0  0
 19 20  2  0  0  0  0
 19 28  1  0  0  0  0
 17 18  1  0  0  0  0
 17 19  1  0  0  0  0
 15 16  1  0  0  0  0
 15 17  1  0  0  0  0
 14 15  2  0  0  0  0
 14 28  1  0  0  0  0
 11 12  1  0  0  0  0
 11 13  1  0  0  0  0
 11 14  1  0  0  0  0
  9 10  1  0  0  0  0
  9 11  1  0  0  0  0
  9 29  1  0  0  0  0
  7  8  1  0  0  0  0
  7  9  1  0  0  0  0
 33 34  1  0  0  0  0
 33 35  1  0  0  0  0
 33 36  1  0  0  0  0
 31 32  1  0  0  0  0
 31 33  1  0  0  0  0
M  END
$$$$
default_name
  -OEChem-12212115393D

 36 37  0     1  0  0  0  0  0999 V2000
   -4.0843   -4.0736    1.2944 H   0  0  0  0  0  0  0  0  0  0  0  0
   -4.0342   -3.2816    0.5484 C   0  0  0  0  0  0  0  0  0  0  0  0
   -4.8842   -2.6126    0.6694 H   0  0  0  0  0  0  0  0  0  0  0  0
   -4.0433   -3.7186   -0.4486 H   0  0  0  0  0  0  0  0  0  0  0  0
   -2.7532   -2.5046    0.7444 C   0  0  0  0  0  0  0  0  0  0  0  0
   -1.9803   -2.8096    1.6434 O   0  0  0  0  0  0  0  0  0  0  0  0
   -2.5332   -1.4966   -0.0966 N   0  0  0  0  0  0  0  0  0  0  0  0
   -3.2312   -1.2816   -0.7936 H   0  0  0  0  0  0  0  0  0  0  0  0
   -1.3593   -0.6196   -0.0536 C   0  0  1  0  0  0  0  0  0  0  0  0
   -0.9607   -0.5197   -1.0639 H   0  0  0  0  0  0  0  0  0  0  0  0
   -1.7793    0.7752    0.4362 C   0  0  0  0  0  0  0  0  0  0  0  0
   -0.9024    1.4251    0.4406 H   0  0  0  0  0  0  0  0  0  0  0  0
   -2.4954    1.1916   -0.2742 H   0  0  0  0  0  0  0  0  0  0  0  0
   -2.3906    0.8124    1.8040 C   0  0  0  0  0  0  0  0  0  0  0  0
   -1.7113    0.9389    2.9660 C   0  0  0  0  0  0  0  0  0  0  0  0
   -0.6321    1.0100    3.0454 H   0  0  0  0  0  0  0  0  0  0  0  0
   -2.6011    0.9834    4.0214 N   0  0  0  0  0  0  0  0  0  0  0  0
   -2.3170    1.0710    4.9862 H   0  0  0  0  0  0  0  0  0  0  0  0
   -3.9074    0.9040    3.5877 C   0  0  0  0  0  0  0  0  0  0  0  0
   -5.1414    0.9348    4.2530 C   0  0  0  0  0  0  0  0  0  0  0  0
   -5.1815    1.0334    5.3278 H   0  0  0  0  0  0  0  0  0  0  0  0
   -6.3248    0.8339    3.5018 C   0  0  0  0  0  0  0  0  0  0  0  0
   -7.2858    0.8548    3.9979 H   0  0  0  0  0  0  0  0  0  0  0  0
   -6.2578    0.6987    2.1030 C   0  0  0  0  0  0  0  0  0  0  0  0
   -7.1705    0.6130    1.5298 H   0  0  0  0  0  0  0  0  0  0  0  0
   -5.0118    0.6669    1.4451 C   0  0  0  0  0  0  0  0  0  0  0  0
   -4.9742    0.5492    0.3714 H   0  0  0  0  0  0  0  0  0  0  0  0
   -3.8053    0.7722    2.1704 C   0  0  0  0  0  0  0  0  0  0  0  0
   -0.2496   -1.2199    0.8235 C   0  0  0  0  0  0  0  0  0  0  0  0
   -0.5218   -1.7050    1.9208 O   0  0  0  0  0  0  0  0  0  0  0  0
    0.9998   -1.1854    0.3409 N   0  0  0  0  0  0  0  0  0  0  0  0
    1.1469   -0.7210   -0.5439 H   0  0  0  0  0  0  0  0  0  0  0  0
    2.1666   -1.7127    1.0430 C   0  0  0  0  0  0  0  0  0  0  0  0
    1.9756   -2.7417    1.3535 H   0  0  0  0  0  0  0  0  0  0  0  0
    3.0403   -1.6886    0.3903 H   0  0  0  0  0  0  0  0  0  0  0  0
    2.3623   -1.1097    1.9313 H   0  0  0  0  0  0  0  0  0  0  0  0
  5  6  2  0  0  0  0
  5  7  1  0  0  0  0
  2  3  1  0  0  0  0
  2  4  1  0  0  0  0
  2  5  1  0  0  0  0
  1  2  1  0  0  0  0
 29 30  2  0  0  0  0
 29 31  1  0  0  0  0
 26 27  1  0  0  0  0
 26 28  2  0  0  0  0
 24 25  1  0  0  0  0
 24 26  1  0  0  0  0
 22 23  1  0  0  0  0
 22 24  2  0  0  0  0
 20 21  1  0  0  0  0
 20 22  1  0  0  0  0
 19 20  2  0  0  0  0
 19 28  1  0  0  0  0
 17 18  1  0  0  0  0
 17 19  1  0  0  0  0
 15 16  1  0  0  0  0
 15 17  1  0  0  0  0
 14 15  2  0  0  0  0
 14 28  1  0  0  0  0
 11 12  1  0  0  0  0
 11 13  1  0  0  0  0
 11 14  1  0  0  0  0
  9 10  1  0  0  0  0
  9 11  1  0  0  0  0
  9 29  1  0  0  0  0
  7  8  1  0  0  0  0
  7  9  1  0  0  0  0
 33 34  1  0  0  0  0
 33 35  1  0  0  0  0
 33 36  1  0  0  0  0
 31 32  1  0  0  0  0
 31 33  1  0  0  0  0
M  END
$$$$
default_name
  -OEChem-12212115393D

 36 37  0     1  0  0  0  0  0999 V2000
   -4.0843   -4.0736    1.2944 H   0  0  0  0  0  0  0  0  0  0  0  0
   -4.0342   -3.2816    0.5484 C   0  0  0  0  0  0  0  0  0  0  0  0
   -4.8842   -2.6126    0.6694 H   0  0  0  0  0  0  0  0  0  0  0  0
   -4.0433   -3.7186   -0.4486 H   0  0  0  0  0  0  0  0  0  0  0  0
   -2.7532   -2.5046    0.7444 C   0  0  0  0  0  0  0  0  0  0  0  0
   -1.9803   -2.8096    1.6434 O   0  0  0  0  0  0  0  0  0  0  0  0
   -2.5332   -1.4966   -0.0966 N   0  0  0  0  0  0  0  0  0  0  0  0
   -3.2312   -1.2816   -0.7936 H   0  0  0  0  0  0  0  0  0  0  0  0
   -1.3593   -0.6196   -0.0536 C   0  0  1  0  0  0  0  0  0  0  0  0
   -0.9607   -0.5197   -1.0639 H   0  0  0  0  0  0  0  0  0  0  0  0
   -1.7793    0.7752    0.4362 C   0  0  0  0  0  0  0  0  0  0  0  0
   -0.9024    1.4251    0.4406 H   0  0  0  0  0  0  0  0  0  0  0  0
   -2.4954    1.1916   -0.2742 H   0  0  0  0  0  0  0  0  0  0  0  0
   -2.3906    0.8124    1.8040 C   0  0  0  0  0  0  0  0  0  0  0  0
   -1.7113    0.9389    2.9660 C   0  0  0  0  0  0  0  0  0  0  0  0
   -0.6321    1.0100    3.0454 H   0  0  0  0  0  0  0  0  0  0  0  0
   -2.6011    0.9834    4.0214 N   0  0  0  0  0  0  0  0  0  0  0  0
   -2.3170    1.0710    4.9862 H   0  0  0  0  0  0  0  0  0  0  0  0
   -3.9074    0.9040    3.5877 C   0  0  0  0  0  0  0  0  0  0  0  0
   -5.1414    0.9348    4.2530 C   0  0  0  0  0  0  0  0  0  0  0  0
   -5.1815    1.0334    5.3278 H   0  0  0  0  0  0  0  0  0  0  0  0
   -6.3248    0.8339    3.5018 C   0  0  0  0  0  0  0  0  0  0  0  0
   -7.2858    0.8548    3.9979 H   0  0  0  0  0  0  0  0  0  0  0  0
   -6.2578    0.6987    2.1030 C   0  0  0  0  0  0  0  0  0  0  0  0
   -7.1705    0.6130    1.5298 H   0  0  0  0  0  0  0  0  0  0  0  0
   -5.0118    0.6669    1.4451 C   0  0  0  0  0  0  0  0  0  0  0  0
   -4.9742    0.5492    0.3714 H   0  0  0  0  0  0  0  0  0  0  0  0
   -3.8053    0.7722    2.1704 C   0  0  0  0  0  0  0  0  0  0  0  0
   -0.2496   -1.2199    0.8235 C   0  0  0  0  0  0  0  0  0  0  0  0
   -0.5366   -1.9421    1.7773 O   0  0  0  0  0  0  0  0  0  0  0  0
    1.0160   -0.9200    0.5021 N   0  0  0  0  0  0  0  0  0  0  0  0
    1.1647   -0.2765   -0.2622 H   0  0  0  0  0  0  0  0  0  0  0  0
    2.1857   -1.4074    1.2279 C   0  0  0  0  0  0  0  0  0  0  0  0
    2.1326   -2.4934    1.3247 H   0  0  0  0  0  0  0  0  0  0  0  0
    3.0981   -1.1364    0.6951 H   0  0  0  0  0  0  0  0  0  0  0  0
    2.2060   -0.9676    2.2264 H   0  0  0  0  0  0  0  0  0  0  0  0
  5  6  2  0  0  0  0
  5  7  1  0  0  0  0
  2  3  1  0  0  0  0
  2  4  1  0  0  0  0
  2  5  1  0  0  0  0
  1  2  1  0  0  0  0
 29 30  2  0  0  0  0
 29 31  1  0  0  0  0
 26 27  1  0  0  0  0
 26 28  2  0  0  0  0
 24 25  1  0  0  0  0
 24 26  1  0  0  0  0
 22 23  1  0  0  0  0
 22 24  2  0  0  0  0
 20 21  1  0  0  0  0
 20 22  1  0  0  0  0
 19 20  2  0  0  0  0
 19 28  1  0  0  0  0
 17 18  1  0  0  0  0
 17 19  1  0  0  0  0
 15 16  1  0  0  0  0
 15 17  1  0  0  0  0
 14 15  2  0  0  0  0
 14 28  1  0  0  0  0
 11 12  1  0  0  0  0
 11 13  1  0  0  0  0
 11 14  1  0  0  0  0
  9 10  1  0  0  0  0
  9 11  1  0  0  0  0
  9 29  1  0  0  0  0
  7  8  1  0  0  0  0
  7  9  1  0  0  0  0
 33 34  1  0  0  0  0
 33 35  1  0  0  0  0
 33 36  1  0  0  0  0
 31 32  1  0  0  0  0
 31 33  1  0  0  0  0
M  END
$$$$
default_name
  -OEChem-12212115393D

 36 37  0     1  0  0  0  0  0999 V2000
   -4.0843   -4.0736    1.2944 H   0  0  0  0  0  0  0  0  0  0  0  0
   -4.0342   -3.2816    0.5484 C   0  0  0  0  0  0  0  0  0  0  0  0
   -4.8842   -2.6126    0.6694 H   0  0  0  0  0  0  0  0  0  0  0  0
   -4.0433   -3.7186   -0.4486 H   0  0  0  0  0  0  0  0  0  0  0  0
   -2.7532   -2.5046    0.7444 C   0  0  0  0  0  0  0  0  0  0  0  0
   -1.9803   -2.8096    1.6434 O   0  0  0  0  0  0  0  0  0  0  0  0
   -2.5332   -1.4966   -0.0966 N   0  0  0  0  0  0  0  0  0  0  0  0
   -3.2312   -1.2816   -0.7936 H   0  0  0  0  0  0  0  0  0  0  0  0
   -1.3593   -0.6196   -0.0536 C   0  0  1  0  0  0  0  0  0  0  0  0
   -0.9607   -0.5197   -1.0639 H   0  0  0  0  0  0  0  0  0  0  0  0
   -1.7793    0.7752    0.4362 C   0  0  0  0  0  0  0  0  0  0  0  0
   -0.9024    1.4251    0.4406 H   0  0  0  0  0  0  0  0  0  0  0  0
   -2.4954    1.1916   -0.2742 H   0  0  0  0  0  0  0  0  0  0  0  0
   -2.3906    0.8124    1.8040 C   0  0  0  0  0  0  0  0  0  0  0  0
   -1.7113    0.9389    2.9660 C   0  0  0  0  0  0  0  0  0  0  0  0
   -0.6321    1.0100    3.0454 H   0  0  0  0  0  0  0  0  0  0  0  0
   -2.6011    0.9834    4.0214 N   0  0  0  0  0  0  0  0  0  0  0  0
   -2.3170    1.0710    4.9862 H   0  0  0  0  0  0  0  0  0  0  0  0
   -3.9074    0.9040    3.5877 C   0  0  0  0  0  0  0  0  0  0  0  0
   -5.1414    0.9348    4.2530 C   0  0  0  0  0  0  0  0  0  0  0  0
   -5.1815    1.0334    5.3278 H   0  0  0  0  0  0  0  0  0  0  0  0
   -6.3248    0.8339    3.5018 C   0  0  0  0  0  0  0  0  0  0  0  0
   -7.2858    0.8548    3.9979 H   0  0  0  0  0  0  0  0  0  0  0  0
   -6.2578    0.6987    2.1030 C   0  0  0  0  0  0  0  0  0  0  0  0
   -7.1705    0.6130    1.5298 H   0  0  0  0  0  0  0  0  0  0  0  0
   -5.0118    0.6669    1.4451 C   0  0  0  0  0  0  0  0  0  0  0  0
   -4.9742    0.5492    0.3714 H   0  0  0  0  0  0  0  0  0  0  0  0
   -3.8053    0.7722    2.1704 C   0  0  0  0  0  0  0  0  0  0  0  0
   -0.2496   -1.2199    0.8235 C   0  0  0  0  0  0  0  0  0  0  0  0
   -0.5013   -2.1464    1.5928 O   0  0  0  0  0  0  0  0  0  0  0  0
    0.9762   -0.6913    0.7090 N   0  0  0  0  0  0  0  0  0  0  0  0
    1.0877    0.1028    0.0948 H   0  0  0  0  0  0  0  0  0  0  0  0
    2.1403   -1.1442    1.4654 C   0  0  0  0  0  0  0  0  0  0  0  0
    2.2505   -2.2251    1.3591 H   0  0  0  0  0  0  0  0  0  0  0  0
    3.0415   -0.6514    1.0985 H   0  0  0  0  0  0  0  0  0  0  0  0
    2.0041   -0.9085    2.5222 H   0  0  0  0  0  0  0  0  0  0  0  0
  5  6  2  0  0  0  0
  5  7  1  0  0  0  0
  2  3  1  0  0  0  0
  2  4  1  0  0  0  0
  2  5  1  0  0  0  0
  1  2  1  0  0  0  0
 29 30  2  0  0  0  0
 29 31  1  0  0  0  0
 26 27  1  0  0  0  0
 26 28  2  0  0  0  0
 24 25  1  0  0  0  0
 24 26  1  0  0  0  0
 22 23  1  0  0  0  0
 22 24  2  0  0  0  0
 20 21  1  0  0  0  0
 20 22  1  0  0  0  0
 19 20  2  0  0  0  0
 19 28  1  0  0  0  0
 17 18  1  0  0  0  0
 17 19  1  0  0  0  0
 15 16  1  0  0  0  0
 15 17  1  0  0  0  0
 14 15  2  0  0  0  0
 14 28  1  0  0  0  0
 11 12  1  0  0  0  0
 11 13  1  0  0  0  0
 11 14  1  0  0  0  0
  9 10  1  0  0  0  0
  9 11  1  0  0  0  0
  9 29  1  0  0  0  0
  7  8  1  0  0  0  0
  7  9  1  0  0  0  0
 33 34  1  0  0  0  0
 33 35  1  0  0  0  0
 33 36  1  0  0  0  0
 31 32  1  0  0  0  0
 31 33  1  0  0  0  0
M  END
$$$$
default_name
  -OEChem-12212115393D

 36 37  0     1  0  0  0  0  0999 V2000
   -4.0843   -4.0736    1.2944 H   0  0  0  0  0  0  0  0  0  0  0  0
   -4.0342   -3.2816    0.5484 C   0  0  0  0  0  0  0  0  0  0  0  0
   -4.8842   -2.6126    0.6694 H   0  0  0  0  0  0  0  0  0  0  0  0
   -4.0433   -3.7186   -0.4486 H   0  0  0  0  0  0  0  0  0  0  0  0
   -2.7532   -2.5046    0.7444 C   0  0  0  0  0  0  0  0  0  0  0  0
   -1.9803   -2.8096    1.6434 O   0  0  0  0  0  0  0  0  0  0  0  0
   -2.5332   -1.4966   -0.0966 N   0  0  0  0  0  0  0  0  0  0  0  0
   -3.2312   -1.2816   -0.7936 H   0  0  0  0  0  0  0  0  0  0  0  0
   -1.3593   -0.6196   -0.0536 C   0  0  1  0  0  0  0  0  0  0  0  0
   -1.1219   -0.3036   -1.0701 H   0  0  0  0  0  0  0  0  0  0  0  0
   -1.6857    0.6334    0.7742 C   0  0  0  0  0  0  0  0  0  0  0  0
   -0.8133    1.2891    0.7785 H   0  0  0  0  0  0  0  0  0  0  0  0
   -2.5001    1.1704    0.2848 H   0  0  0  0  0  0  0  0  0  0  0  0
   -2.0764    0.3725    2.1973 C   0  0  0  0  0  0  0  0  0  0  0  0
   -1.2235    0.2724    3.2414 C   0  0  0  0  0  0  0  0  0  0  0  0
   -0.1445    0.3513    3.1667 H   0  0  0  0  0  0  0  0  0  0  0  0
   -1.9377    0.0765    4.4072 N   0  0  0  0  0  0  0  0  0  0  0  0
   -1.5062   -0.0304    5.3135 H   0  0  0  0  0  0  0  0  0  0  0  0
   -3.2962    0.0572    4.1729 C   0  0  0  0  0  0  0  0  0  0  0  0
   -4.4114   -0.0796    5.0120 C   0  0  0  0  0  0  0  0  0  0  0  0
   -4.2828   -0.2063    6.0770 H   0  0  0  0  0  0  0  0  0  0  0  0
   -5.6981   -0.0515    4.4477 C   0  0  0  0  0  0  0  0  0  0  0  0
   -6.5699   -0.1565    5.0793 H   0  0  0  0  0  0  0  0  0  0  0  0
   -5.8507    0.1070    3.0581 C   0  0  0  0  0  0  0  0  0  0  0  0
   -6.8423    0.1198    2.6272 H   0  0  0  0  0  0  0  0  0  0  0  0
   -4.7227    0.2416    2.2240 C   0  0  0  0  0  0  0  0  0  0  0  0
   -4.8537    0.3494    1.1567 H   0  0  0  0  0  0  0  0  0  0  0  0
   -3.4171    0.2236    2.7608 C   0  0  0  0  0  0  0  0  0  0  0  0
   -0.1319   -1.3615    0.4980 C   0  0  0  0  0  0  0  0  0  0  0  0
   -0.2215   -2.5410    0.8362 O   0  0  0  0  0  0  0  0  0  0  0  0
    1.0123   -0.6705    0.5899 N   0  0  0  0  0  0  0  0  0  0  0  0
    0.9887    0.3085    0.3426 H   0  0  0  0  0  0  0  0  0  0  0  0
    2.2683   -1.2235    1.0890 C   0  0  0  0  0  0  0  0  0  0  0  0
    2.4994   -2.1493    0.5587 H   0  0  0  0  0  0  0  0  0  0  0  0
    3.0790   -0.5094    0.9390 H   0  0  0  0  0  0  0  0  0  0  0  0
    2.1733   -1.4443    2.1534 H   0  0  0  0  0  0  0  0  0  0  0  0
  5  6  2  0  0  0  0
  5  7  1  0  0  0  0
  2  3  1  0  0  0  0
  2  4  1  0  0  0  0
  2  5  1  0  0  0  0
  1  2  1  0  0  0  0
 29 30  2  0  0  0  0
 29 31  1  0  0  0  0
 26 27  1  0  0  0  0
 26 28  2  0  0  0  0
 24 25  1  0  0  0  0
 24 26  1  0  0  0  0
 22 23  1  0  0  0  0
 22 24  2  0  0  0  0
 20 21  1  0  0  0  0
 20 22  1  0  0  0  0
 19 20  2  0  0  0  0
 19 28  1  0  0  0  0
 17 18  1  0  0  0  0
 17 19  1  0  0  0  0
 15 16  1  0  0  0  0
 15 17  1  0  0  0  0
 14 15  2  0  0  0  0
 14 28  1  0  0  0  0
 11 12  1  0  0  0  0
 11 13  1  0  0  0  0
 11 14  1  0  0  0  0
  9 10  1  0  0  0  0
  9 11  1  0  0  0  0
  9 29  1  0  0  0  0
  7  8  1  0  0  0  0
  7  9  1  0  0  0  0
 33 34  1  0  0  0  0
 33 35  1  0  0  0  0
 33 36  1  0  0  0  0
 31 32  1  0  0  0  0
 31 33  1  0  0  0  0
M  END
$$$$
default_name
  -OEChem-12212115393D

 36 37  0     1  0  0  0  0  0999 V2000
   -4.0843   -4.0736    1.2944 H   0  0  0  0  0  0  0  0  0  0  0  0
   -4.0342   -3.2816    0.5484 C   0  0  0  0  0  0  0  0  0  0  0  0
   -4.8842   -2.6126    0.6694 H   0  0  0  0  0  0  0  0  0  0  0  0
   -4.0433   -3.7186   -0.4486 H   0  0  0  0  0  0  0  0  0  0  0  0
   -2.7532   -2.5046    0.7444 C   0  0  0  0  0  0  0  0  0  0  0  0
   -1.9803   -2.8096    1.6434 O   0  0  0  0  0  0  0  0  0  0  0  0
   -2.5332   -1.4966   -0.0966 N   0  0  0  0  0  0  0  0  0  0  0  0
   -3.2312   -1.2816   -0.7936 H   0  0  0  0  0  0  0  0  0  0  0  0
   -1.3593   -0.6196   -0.0536 C   0  0  1  0  0  0  0  0  0  0  0  0
   -1.1219   -0.3036   -1.0701 H   0  0  0  0  0  0  0  0  0  0  0  0
   -1.6857    0.6334    0.7742 C   0  0  0  0  0  0  0  0  0  0  0  0
   -0.8133    1.2891    0.7785 H   0  0  0  0  0  0  0  0  0  0  0  0
   -2.5001    1.1704    0.2848 H   0  0  0  0  0  0  0  0  0  0  0  0
   -2.0764    0.3725    2.1973 C   0  0  0  0  0  0  0  0  0  0  0  0
   -1.2235    0.2724    3.2414 C   0  0  0  0  0  0  0  0  0  0  0  0
   -0.1445    0.3513    3.1667 H   0  0  0  0  0  0  0  0  0  0  0  0
   -1.9377    0.0765    4.4072 N   0  0  0  0  0  0  0  0  0  0  0  0
   -1.5062   -0.0304    5.3135 H   0  0  0  0  0  0  0  0  0  0  0  0
   -3.2962    0.0572    4.1729 C   0  0  0  0  0  0  0  0  0  0  0  0
   -4.4114   -0.0796    5.0120 C   0  0  0  0  0  0  0  0  0  0  0  0
   -4.2828   -0.2063    6.0770 H   0  0  0  0  0  0  0  0  0  0  0  0
   -5.6981   -0.0515    4.4477 C   0  0  0  0  0  0  0  0  0  0  0  0
   -6.5699   -0.1565    5.0793 H   0  0  0  0  0  0  0  0  0  0  0  0
   -5.8507    0.1070    3.0581 C   0  0  0  0  0  0  0  0  0  0  0  0
   -6.8423    0.1198    2.6272 H   0  0  0  0  0  0  0  0  0  0  0  0
   -4.7227    0.2416    2.2240 C   0  0  0  0  0  0  0  0  0  0  0  0
   -4.8537    0.3494    1.1567 H   0  0  0  0  0  0  0  0  0  0  0  0
   -3.4171    0.2236    2.7608 C   0  0  0  0  0  0  0  0  0  0  0  0
   -0.1319   -1.3615    0.4980 C   0  0  0  0  0  0  0  0  0  0  0  0
   -0.1343   -2.5892    0.5772 O   0  0  0  0  0  0  0  0  0  0  0  0
    0.9143   -0.6169    0.8801 N   0  0  0  0  0  0  0  0  0  0  0  0
    0.8157    0.3873    0.8336 H   0  0  0  0  0  0  0  0  0  0  0  0
    2.1560   -1.1614    1.4225 C   0  0  0  0  0  0  0  0  0  0  0  0
    2.5435   -1.9318    0.7532 H   0  0  0  0  0  0  0  0  0  0  0  0
    2.8982   -0.3693    1.5296 H   0  0  0  0  0  0  0  0  0  0  0  0
    1.9630   -1.6103    2.3983 H   0  0  0  0  0  0  0  0  0  0  0  0
  5  6  2  0  0  0  0
  5  7  1  0  0  0  0
  2  3  1  0  0  0  0
  2  4  1  0  0  0  0
  2  5  1  0  0  0  0
  1  2  1  0  0  0  0
 29 30  2  0  0  0  0
 29 31  1  0  0  0  0
 26 27  1  0  0  0  0
 26 28  2  0  0  0  0
 24 25  1  0  0  0  0
 24 26  1  0  0  0  0
 22 23  1  0  0  0  0
 22 24  2  0  0  0  0
 20 21  1  0  0  0  0
 20 22  1  0  0  0  0
 19 20  2  0  0  0  0
 19 28  1  0  0  0  0
 17 18  1  0  0  0  0
 17 19  1  0  0  0  0
 15 16  1  0  0  0  0
 15 17  1  0  0  0  0
 14 15  2  0  0  0  0
 14 28  1  0  0  0  0
 11 12  1  0  0  0  0
 11 13  1  0  0  0  0
 11 14  1  0  0  0  0
  9 10  1  0  0  0  0
  9 11  1  0  0  0  0
  9 29  1  0  0  0  0
  7  8  1  0  0  0  0
  7  9  1  0  0  0  0
 33 34  1  0  0  0  0
 33 35  1  0  0  0  0
 33 36  1  0  0  0  0
 31 32  1  0  0  0  0
 31 33  1  0  0  0  0
M  END
$$$$
default_name
  -OEChem-12212115393D

 36 37  0     1  0  0  0  0  0999 V2000
   -4.0843   -4.0736    1.2944 H   0  0  0  0  0  0  0  0  0  0  0  0
   -4.0342   -3.2816    0.5484 C   0  0  0  0  0  0  0  0  0  0  0  0
   -4.8842   -2.6126    0.6694 H   0  0  0  0  0  0  0  0  0  0  0  0
   -4.0433   -3.7186   -0.4486 H   0  0  0  0  0  0  0  0  0  0  0  0
   -2.7532   -2.5046    0.7444 C   0  0  0  0  0  0  0  0  0  0  0  0
   -1.9803   -2.8096    1.6434 O   0  0  0  0  0  0  0  0  0  0  0  0
   -2.5332   -1.4966   -0.0966 N   0  0  0  0  0  0  0  0  0  0  0  0
   -3.2312   -1.2816   -0.7936 H   0  0  0  0  0  0  0  0  0  0  0  0
   -1.3593   -0.6196   -0.0536 C   0  0  1  0  0  0  0  0  0  0  0  0
   -1.1219   -0.3036   -1.0701 H   0  0  0  0  0  0  0  0  0  0  0  0
   -1.6857    0.6334    0.7742 C   0  0  0  0  0  0  0  0  0  0  0  0
   -0.8133    1.2891    0.7785 H   0  0  0  0  0  0  0  0  0  0  0  0
   -2.5001    1.1704    0.2848 H   0  0  0  0  0  0  0  0  0  0  0  0
   -2.0764    0.3725    2.1973 C   0  0  0  0  0  0  0  0  0  0  0  0
   -1.2235    0.2724    3.2414 C   0  0  0  0  0  0  0  0  0  0  0  0
   -0.1445    0.3513    3.1667 H   0  0  0  0  0  0  0  0  0  0  0  0
   -1.9377    0.0765    4.4072 N   0  0  0  0  0  0  0  0  0  0  0  0
   -1.5062   -0.0304    5.3135 H   0  0  0  0  0  0  0  0  0  0  0  0
   -3.2962    0.0572    4.1729 C   0  0  0  0  0  0  0  0  0  0  0  0
   -4.4114   -0.0796    5.0120 C   0  0  0  0  0  0  0  0  0  0  0  0
   -4.2828   -0.2063    6.0770 H   0  0  0  0  0  0  0  0  0  0  0  0
   -5.6981   -0.0515    4.4477 C   0  0  0  0  0  0  0  0  0  0  0  0
   -6.5699   -0.1565    5.0793 H   0  0  0  0  0  0  0  0  0  0  0  0
   -5.8507    0.1070    3.0581 C   0  0  0  0  0  0  0  0  0  0  0  0
   -6.8423    0.1198    2.6272 H   0  0  0  0  0  0  0  0  0  0  0  0
   -4.7227    0.2416    2.2240 C   0  0  0  0  0  0  0  0  0  0  0  0
   -4.8537    0.3494    1.1567 H   0  0  0  0  0  0  0  0  0  0  0  0
   -3.4171    0.2236    2.7608 C   0  0  0  0  0  0  0  0  0  0  0  0
   -0.1319   -1.3615    0.4980 C   0  0  0  0  0  0  0  0  0  0  0  0
   -0.0132   -2.5742    0.3280 O   0  0  0  0  0  0  0  0  0  0  0  0
    0.7785   -0.6341    1.1593 N   0  0  0  0  0  0  0  0  0  0  0  0
    0.5799    0.3458    1.3025 H   0  0  0  0  0  0  0  0  0  0  0  0
    2.0000   -1.1807    1.7435 C   0  0  0  0  0  0  0  0  0  0  0  0
    2.5416   -1.7577    0.9915 H   0  0  0  0  0  0  0  0  0  0  0  0
    2.6368   -0.3729    2.1065 H   0  0  0  0  0  0  0  0  0  0  0  0
    1.7446   -1.8408    2.5741 H   0  0  0  0  0  0  0  0  0  0  0  0
  5  6  2  0  0  0  0
  5  7  1  0  0  0  0
  2  3  1  0  0  0  0
  2  4  1  0  0  0  0
  2  5  1  0  0  0  0
  1  2  1  0  0  0  0
 29 30  2  0  0  0  0
 29 31  1  0  0  0  0
 26 27  1  0  0  0  0
 26 28  2  0  0  0  0
 24 25  1  0  0  0  0
 24 26  1  0  0  0  0
 22 23  1  0  0  0  0
 22 24  2  0  0  0  0
 20 21  1  0  0  0  0
 20 22  1  0  0  0  0
 19 20  2  0  0  0  0
 19 28  1  0  0  0  0
 17 18  1  0  0  0  0
 17 19  1  0  0  0  0
 15 16  1  0  0  0  0
 15 17  1  0  0  0  0
 14 15  2  0  0  0  0
 14 28  1  0  0  0  0
 11 12  1  0  0  0  0
 11 13  1  0  0  0  0
 11 14  1  0  0  0  0
  9 10  1  0  0  0  0
  9 11  1  0  0  0  0
  9 29  1  0  0  0  0
  7  8  1  0  0  0  0
  7  9  1  0  0  0  0
 33 34  1  0  0  0  0
 33 35  1  0  0  0  0
 33 36  1  0  0  0  0
 31 32  1  0  0  0  0
 31 33  1  0  0  0  0
M  END
$$$$
default_name
  -OEChem-12212115393D

 36 37  0     1  0  0  0  0  0999 V2000
   -4.0843   -4.0736    1.2944 H   0  0  0  0  0  0  0  0  0  0  0  0
   -4.0342   -3.2816    0.5484 C   0  0  0  0  0  0  0  0  0  0  0  0
   -4.8842   -2.6126    0.6694 H   0  0  0  0  0  0  0  0  0  0  0  0
   -4.0433   -3.7186   -0.4486 H   0  0  0  0  0  0  0  0  0  0  0  0
   -2.7532   -2.5046    0.7444 C   0  0  0  0  0  0  0  0  0  0  0  0
   -1.9803   -2.8096    1.6434 O   0  0  0  0  0  0  0  0  0  0  0  0
   -2.5332   -1.4966   -0.0966 N   0  0  0  0  0  0  0  0  0  0  0  0
   -3.2312   -1.2816   -0.7936 H   0  0  0  0  0  0  0  0  0  0  0  0
   -1.3593   -0.6196   -0.0536 C   0  0  1  0  0  0  0  0  0  0  0  0
   -1.1219   -0.3036   -1.0701 H   0  0  0  0  0  0  0  0  0  0  0  0
   -1.6857    0.6334    0.7742 C   0  0  0  0  0  0  0  0  0  0  0  0
   -0.8133    1.2891    0.7785 H   0  0  0  0  0  0  0  0  0  0  0  0
   -2.5001    1.1704    0.2848 H   0  0  0  0  0  0  0  0  0  0  0  0
   -2.0764    0.3725    2.1973 C   0  0  0  0  0  0  0  0  0  0  0  0
   -1.2235    0.2724    3.2414 C   0  0  0  0  0  0  0  0  0  0  0  0
   -0.1445    0.3513    3.1667 H   0  0  0  0  0  0  0  0  0  0  0  0
   -1.9377    0.0765    4.4072 N   0  0  0  0  0  0  0  0  0  0  0  0
   -1.5062   -0.0304    5.3135 H   0  0  0  0  0  0  0  0  0  0  0  0
   -3.2962    0.0572    4.1729 C   0  0  0  0  0  0  0  0  0  0  0  0
   -4.4114   -0.0796    5.0120 C   0  0  0  0  0  0  0  0  0  0  0  0
   -4.2828   -0.2063    6.0770 H   0  0  0  0  0  0  0  0  0  0  0  0
   -5.6981   -0.0515    4.4477 C   0  0  0  0  0  0  0  0  0  0  0  0
   -6.5699   -0.1565    5.0793 H   0  0  0  0  0  0  0  0  0  0  0  0
   -5.8507    0.1070    3.0581 C   0  0  0  0  0  0  0  0  0  0  0  0
   -6.8423    0.1198    2.6272 H   0  0  0  0  0  0  0  0  0  0  0  0
   -4.7227    0.2416    2.2240 C   0  0  0  0  0  0  0  0  0  0  0  0
   -4.8537    0.3494    1.1567 H   0  0  0  0  0  0  0  0  0  0  0  0
   -3.4171    0.2236    2.7608 C   0  0  0  0  0  0  0  0  0  0  0  0
   -0.1319   -1.3615    0.4980 C   0  0  0  0  0  0  0  0  0  0  0  0
    0.1336   -2.4969    0.1055 O   0  0  0  0  0  0  0  0  0  0  0  0
    0.6139   -0.7211    1.4084 N   0  0  0  0  0  0  0  0  0  0  0  0
    0.2974    0.1869    1.7174 H   0  0  0  0  0  0  0  0  0  0  0  0
    1.8111   -1.2802    2.0301 C   0  0  0  0  0  0  0  0  0  0  0  0
    2.4938   -1.6391    1.2575 H   0  0  0  0  0  0  0  0  0  0  0  0
    2.3125   -0.5200    2.6303 H   0  0  0  0  0  0  0  0  0  0  0  0
    1.5331   -2.1200    2.6691 H   0  0  0  0  0  0  0  0  0  0  0  0
  5  6  2  0  0  0  0
  5  7  1  0  0  0  0
  2  3  1  0  0  0  0
  2  4  1  0  0  0  0
  2  5  1  0  0  0  0
  1  2  1  0  0  0  0
 29 30  2  0  0  0  0
 29 31  1  0  0  0  0
 26 27  1  0  0  0  0
 26 28  2  0  0  0  0
 24 25  1  0  0  0  0
 24 26  1  0  0  0  0
 22 23  1  0  0  0  0
 22 24  2  0  0  0  0
 20 21  1  0  0  0  0
 20 22  1  0  0  0  0
 19 20  2  0  0  0  0
 19 28  1  0  0  0  0
 17 18  1  0  0  0  0
 17 19  1  0  0  0  0
 15 16  1  0  0  0  0
 15 17  1  0  0  0  0
 14 15  2  0  0  0  0
 14 28  1  0  0  0  0
 11 12  1  0  0  0  0
 11 13  1  0  0  0  0
 11 14  1  0  0  0  0
  9 10  1  0  0  0  0
  9 11  1  0  0  0  0
  9 29  1  0  0  0  0
  7  8  1  0  0  0  0
  7  9  1  0  0  0  0
 33 34  1  0  0  0  0
 33 35  1  0  0  0  0
 33 36  1  0  0  0  0
 31 32  1  0  0  0  0
 31 33  1  0  0  0  0
M  END
$$$$
default_name
  -OEChem-12212115393D

 36 37  0     1  0  0  0  0  0999 V2000
   -4.0843   -4.0736    1.2944 H   0  0  0  0  0  0  0  0  0  0  0  0
   -4.0342   -3.2816    0.5484 C   0  0  0  0  0  0  0  0  0  0  0  0
   -4.8842   -2.6126    0.6694 H   0  0  0  0  0  0  0  0  0  0  0  0
   -4.0433   -3.7186   -0.4486 H   0  0  0  0  0  0  0  0  0  0  0  0
   -2.7532   -2.5046    0.7444 C   0  0  0  0  0  0  0  0  0  0  0  0
   -1.9803   -2.8096    1.6434 O   0  0  0  0  0  0  0  0  0  0  0  0
   -2.5332   -1.4966   -0.0966 N   0  0  0  0  0  0  0  0  0  0  0  0
   -3.2312   -1.2816   -0.7936 H   0  0  0  0  0  0  0  0  0  0  0  0
   -1.3593   -0.6196   -0.0536 C   0  0  1  0  0  0  0  0  0  0  0  0
   -1.1219   -0.3036   -1.0701 H   0  0  0  0  0  0  0  0  0  0  0  0
   -1.6857    0.6334    0.7742 C   0  0  0  0  0  0  0  0  0  0  0  0
   -0.8133    1.2891    0.7785 H   0  0  0  0  0  0  0  0  0  0  0  0
   -2.5001    1.1704    0.2848 H   0  0  0  0  0  0  0  0  0  0  0  0
   -2.0764    0.3725    2.1973 C   0  0  0  0  0  0  0  0  0  0  0  0
   -1.2235    0.2724    3.2414 C   0  0  0  0  0  0  0  0  0  0  0  0
   -0.1445    0.3513    3.1667 H   0  0  0  0  0  0  0  0  0  0  0  0
   -1.9377    0.0765    4.4072 N   0  0  0  0  0  0  0  0  0  0  0  0
   -1.5062   -0.0304    5.3135 H   0  0  0  0  0  0  0  0  0  0  0  0
   -3.2962    0.0572    4.1729 C   0  0  0  0  0  0  0  0  0  0  0  0
   -4.4114   -0.0796    5.0120 C   0  0  0  0  0  0  0  0  0  0  0  0
   -4.2828   -0.2063    6.0770 H   0  0  0  0  0  0  0  0  0  0  0  0
   -5.6981   -0.0515    4.4477 C   0  0  0  0  0  0  0  0  0  0  0  0
   -6.5699   -0.1565    5.0793 H   0  0  0  0  0  0  0  0  0  0  0  0
   -5.8507    0.1070    3.0581 C   0  0  0  0  0  0  0  0  0  0  0  0
   -6.8423    0.1198    2.6272 H   0  0  0  0  0  0  0  0  0  0  0  0
   -4.7227    0.2416    2.2240 C   0  0  0  0  0  0  0  0  0  0  0  0
   -4.8537    0.3494    1.1567 H   0  0  0  0  0  0  0  0  0  0  0  0
   -3.4171    0.2236    2.7608 C   0  0  0  0  0  0  0  0  0  0  0  0
   -0.1319   -1.3615    0.4980 C   0  0  0  0  0  0  0  0  0  0  0  0
    0.2959   -2.3626   -0.0751 O   0  0  0  0  0  0  0  0  0  0  0  0
    0.4319   -0.8720    1.6104 N   0  0  0  0  0  0  0  0  0  0  0  0
   -0.0126   -0.0786    2.0500 H   0  0  0  0  0  0  0  0  0  0  0  0
    1.6020   -1.4532    2.2627 C   0  0  0  0  0  0  0  0  0  0  0  0
    2.4033   -1.5839    1.5329 H   0  0  0  0  0  0  0  0  0  0  0  0
    1.9475   -0.8004    3.0654 H   0  0  0  0  0  0  0  0  0  0  0  0
    1.3430   -2.4291    2.6766 H   0  0  0  0  0  0  0  0  0  0  0  0
  5  6  2  0  0  0  0
  5  7  1  0  0  0  0
  2  3  1  0  0  0  0
  2  4  1  0  0  0  0
  2  5  1  0  0  0  0
  1  2  1  0  0  0  0
 29 30  2  0  0  0  0
 29 31  1  0  0  0  0
 26 27  1  0  0  0  0
 26 28  2  0  0  0  0
 24 25  1  0  0  0  0
 24 26  1  0  0  0  0
 22 23  1  0  0  0  0
 22 24  2  0  0  0  0
 20 21  1  0  0  0  0
 20 22  1  0  0  0  0
 19 20  2  0  0  0  0
 19 28  1  0  0  0  0
 17 18  1  0  0  0  0
 17 19  1  0  0  0  0
 15 16  1  0  0  0  0
 15 17  1  0  0  0  0
 14 15  2  0  0  0  0
 14 28  1  0  0  0  0
 11 12  1  0  0  0  0
 11 13  1  0  0  0  0
 11 14  1  0  0  0  0
  9 10  1  0  0  0  0
  9 11  1  0  0  0  0
  9 29  1  0  0  0  0
  7  8  1  0  0  0  0
  7  9  1  0  0  0  0
 33 34  1  0  0  0  0
 33 35  1  0  0  0  0
 33 36  1  0  0  0  0
 31 32  1  0  0  0  0
 31 33  1  0  0  0  0
M  END
$$$$
default_name
  -OEChem-12212115393D

 36 37  0     1  0  0  0  0  0999 V2000
   -4.0843   -4.0736    1.2944 H   0  0  0  0  0  0  0  0  0  0  0  0
   -4.0342   -3.2816    0.5484 C   0  0  0  0  0  0  0  0  0  0  0  0
   -4.8842   -2.6126    0.6694 H   0  0  0  0  0  0  0  0  0  0  0  0
   -4.0433   -3.7186   -0.4486 H   0  0  0  0  0  0  0  0  0  0  0  0
   -2.7532   -2.5046    0.7444 C   0  0  0  0  0  0  0  0  0  0  0  0
   -1.9803   -2.8096    1.6434 O   0  0  0  0  0  0  0  0  0  0  0  0
   -2.5332   -1.4966   -0.0966 N   0  0  0  0  0  0  0  0  0  0  0  0
   -3.2312   -1.2816   -0.7936 H   0  0  0  0  0  0  0  0  0  0  0  0
   -1.3593   -0.6196   -0.0536 C   0  0  1  0  0  0  0  0  0  0  0  0
   -1.1219   -0.3036   -1.0701 H   0  0  0  0  0  0  0  0  0  0  0  0
   -1.6857    0.6334    0.7742 C   0  0  0  0  0  0  0  0  0  0  0  0
   -0.8133    1.2891    0.7785 H   0  0  0  0  0  0  0  0  0  0  0  0
   -2.5001    1.1704    0.2848 H   0  0  0  0  0  0  0  0  0  0  0  0
   -2.0764    0.3725    2.1973 C   0  0  0  0  0  0  0  0  0  0  0  0
   -1.2235    0.2724    3.2414 C   0  0  0  0  0  0  0  0  0  0  0  0
   -0.1445    0.3513    3.1667 H   0  0  0  0  0  0  0  0  0  0  0  0
   -1.9377    0.0765    4.4072 N   0  0  0  0  0  0  0  0  0  0  0  0
   -1.5062   -0.0304    5.3135 H   0  0  0  0  0  0  0  0  0  0  0  0
   -3.2962    0.0572    4.1729 C   0  0  0  0  0  0  0  0  0  0  0  0
   -4.4114   -0.0796    5.0120 C   0  0  0  0  0  0  0  0  0  0  0  0
   -4.2828   -0.2063    6.0770 H   0  0  0  0  0  0  0  0  0  0  0  0
   -5.6981   -0.0515    4.4477 C   0  0  0  0  0  0  0  0  0  0  0  0
   -6.5699   -0.1565    5.0793 H   0  0  0  0  0  0  0  0  0  0  0  0
   -5.8507    0.1070    3.0581 C   0  0  0  0  0  0  0  0  0  0  0  0
   -6.8423    0.1198    2.6272 H   0  0  0  0  0  0  0  0  0  0  0  0
   -4.7227    0.2416    2.2240 C   0  0  0  0  0  0  0  0  0  0  0  0
   -4.8537    0.3494    1.1567 H   0  0  0  0  0  0  0  0  0  0  0  0
   -3.4171    0.2236    2.7608 C   0  0  0  0  0  0  0  0  0  0  0  0
   -0.1319   -1.3615    0.4980 C   0  0  0  0  0  0  0  0  0  0  0  0
    0.4628   -2.1804   -0.2015 O   0  0  0  0  0  0  0  0  0  0  0  0
    0.2449   -1.0763    1.7517 N   0  0  0  0  0  0  0  0  0  0  0  0
   -0.3289   -0.4326    2.2777 H   0  0  0  0  0  0  0  0  0  0  0  0
    1.3871   -1.6877    2.4255 C   0  0  0  0  0  0  0  0  0  0  0  0
    2.2764   -1.5959    1.7991 H   0  0  0  0  0  0  0  0  0  0  0  0
    1.5666   -1.1952    3.3820 H   0  0  0  0  0  0  0  0  0  0  0  0
    1.1870   -2.7468    2.5963 H   0  0  0  0  0  0  0  0  0  0  0  0
  5  6  2  0  0  0  0
  5  7  1  0  0  0  0
  2  3  1  0  0  0  0
  2  4  1  0  0  0  0
  2  5  1  0  0  0  0
  1  2  1  0  0  0  0
 29 30  2  0  0  0  0
 29 31  1  0  0  0  0
 26 27  1  0  0  0  0
 26 28  2  0  0  0  0
 24 25  1  0  0  0  0
 24 26  1  0  0  0  0
 22 23  1  0  0  0  0
 22 24  2  0  0  0  0
 20 21  1  0  0  0  0
 20 22  1  0  0  0  0
 19 20  2  0  0  0  0
 19 28  1  0  0  0  0
 17 18  1  0  0  0  0
 17 19  1  0  0  0  0
 15 16  1  0  0  0  0
 15 17  1  0  0  0  0
 14 15  2  0  0  0  0
 14 28  1  0  0  0  0
 11 12  1  0  0  0  0
 11 13  1  0  0  0  0
 11 14  1  0  0  0  0
  9 10  1  0  0  0  0
  9 11  1  0  0  0  0
  9 29  1  0  0  0  0
  7  8  1  0  0  0  0
  7  9  1  0  0  0  0
 33 34  1  0  0  0  0
 33 35  1  0  0  0  0
 33 36  1  0  0  0  0
 31 32  1  0  0  0  0
 31 33  1  0  0  0  0
M  END
$$$$
default_name
  -OEChem-12212115393D

 36 37  0     1  0  0  0  0  0999 V2000
   -4.0843   -4.0736    1.2944 H   0  0  0  0  0  0  0  0  0  0  0  0
   -4.0342   -3.2816    0.5484 C   0  0  0  0  0  0  0  0  0  0  0  0
   -4.8842   -2.6126    0.6694 H   0  0  0  0  0  0  0  0  0  0  0  0
   -4.0433   -3.7186   -0.4486 H   0  0  0  0  0  0  0  0  0  0  0  0
   -2.7532   -2.5046    0.7444 C   0  0  0  0  0  0  0  0  0  0  0  0
   -1.9803   -2.8096    1.6434 O   0  0  0  0  0  0  0  0  0  0  0  0
   -2.5332   -1.4966   -0.0966 N   0  0  0  0  0  0  0  0  0  0  0  0
   -3.2312   -1.2816   -0.7936 H   0  0  0  0  0  0  0  0  0  0  0  0
   -1.3593   -0.6196   -0.0536 C   0  0  1  0  0  0  0  0  0  0  0  0
   -1.1219   -0.3036   -1.0701 H   0  0  0  0  0  0  0  0  0  0  0  0
   -1.6857    0.6334    0.7742 C   0  0  0  0  0  0  0  0  0  0  0  0
   -0.8133    1.2891    0.7785 H   0  0  0  0  0  0  0  0  0  0  0  0
   -2.5001    1.1704    0.2848 H   0  0  0  0  0  0  0  0  0  0  0  0
   -2.0764    0.3725    2.1973 C   0  0  0  0  0  0  0  0  0  0  0  0
   -1.2235    0.2724    3.2414 C   0  0  0  0  0  0  0  0  0  0  0  0
   -0.1445    0.3513    3.1667 H   0  0  0  0  0  0  0  0  0  0  0  0
   -1.9377    0.0765    4.4072 N   0  0  0  0  0  0  0  0  0  0  0  0
   -1.5062   -0.0304    5.3135 H   0  0  0  0  0  0  0  0  0  0  0  0
   -3.2962    0.0572    4.1729 C   0  0  0  0  0  0  0  0  0  0  0  0
   -4.4114   -0.0796    5.0120 C   0  0  0  0  0  0  0  0  0  0  0  0
   -4.2828   -0.2063    6.0770 H   0  0  0  0  0  0  0  0  0  0  0  0
   -5.6981   -0.0515    4.4477 C   0  0  0  0  0  0  0  0  0  0  0  0
   -6.5699   -0.1565    5.0793 H   0  0  0  0  0  0  0  0  0  0  0  0
   -5.8507    0.1070    3.0581 C   0  0  0  0  0  0  0  0  0  0  0  0
   -6.8423    0.1198    2.6272 H   0  0  0  0  0  0  0  0  0  0  0  0
   -4.7227    0.2416    2.2240 C   0  0  0  0  0  0  0  0  0  0  0  0
   -4.8537    0.3494    1.1567 H   0  0  0  0  0  0  0  0  0  0  0  0
   -3.4171    0.2236    2.7608 C   0  0  0  0  0  0  0  0  0  0  0  0
   -0.1319   -1.3615    0.4980 C   0  0  0  0  0  0  0  0  0  0  0  0
    0.6229   -1.9629   -0.2651 O   0  0  0  0  0  0  0  0  0  0  0  0
    0.0656   -1.3203    1.8225 N   0  0  0  0  0  0  0  0  0  0  0  0
   -0.6300   -0.8511    2.3848 H   0  0  0  0  0  0  0  0  0  0  0  0
    1.1809   -1.9679    2.5074 C   0  0  0  0  0  0  0  0  0  0  0  0
    2.1217   -1.6744    2.0379 H   0  0  0  0  0  0  0  0  0  0  0  0
    1.1958   -1.6773    3.5587 H   0  0  0  0  0  0  0  0  0  0  0  0
    1.0760   -3.0516    2.4335 H   0  0  0  0  0  0  0  0  0  0  0  0
  5  6  2  0  0  0  0
  5  7  1  0  0  0  0
  2  3  1  0  0  0  0
  2  4  1  0  0  0  0
  2  5  1  0  0  0  0
  1  2  1  0  0  0  0
 29 30  2  0  0  0  0
 29 31  1  0  0  0  0
 26 27  1  0  0  0  0
 26 28  2  0  0  0  0
 24 25  1  0  0  0  0
 24 26  1  0  0  0  0
 22 23  1  0  0  0  0
 22 24  2  0  0  0  0
 20 21  1  0  0  0  0
 20 22  1  0  0  0  0
 19 20  2  0  0  0  0
 19 28  1  0  0  0  0
 17 18  1  0  0  0  0
 17 19  1  0  0  0  0
 15 16  1  0  0  0  0
 15 17  1  0  0  0  0
 14 15  2  0  0  0  0
 14 28  1  0  0  0  0
 11 12  1  0  0  0  0
 11 13  1  0  0  0  0
 11 14  1  0  0  0  0
  9 10  1  0  0  0  0
  9 11  1  0  0  0  0
  9 29  1  0  0  0  0
  7  8  1  0  0  0  0
  7  9  1  0  0  0  0
 33 34  1  0  0  0  0
 33 35  1  0  0  0  0
 33 36  1  0  0  0  0
 31 32  1  0  0  0  0
 31 33  1  0  0  0  0
M  END
$$$$
default_name
  -OEChem-12212115393D

 36 37  0     1  0  0  0  0  0999 V2000
   -4.0843   -4.0736    1.2944 H   0  0  0  0  0  0  0  0  0  0  0  0
   -4.0342   -3.2816    0.5484 C   0  0  0  0  0  0  0  0  0  0  0  0
   -4.8842   -2.6126    0.6694 H   0  0  0  0  0  0  0  0  0  0  0  0
   -4.0433   -3.7186   -0.4486 H   0  0  0  0  0  0  0  0  0  0  0  0
   -2.7532   -2.5046    0.7444 C   0  0  0  0  0  0  0  0  0  0  0  0
   -1.9803   -2.8096    1.6434 O   0  0  0  0  0  0  0  0  0  0  0  0
   -2.5332   -1.4966   -0.0966 N   0  0  0  0  0  0  0  0  0  0  0  0
   -3.2312   -1.2816   -0.7936 H   0  0  0  0  0  0  0  0  0  0  0  0
   -1.3593   -0.6196   -0.0536 C   0  0  1  0  0  0  0  0  0  0  0  0
   -1.1219   -0.3036   -1.0701 H   0  0  0  0  0  0  0  0  0  0  0  0
   -1.6857    0.6334    0.7742 C   0  0  0  0  0  0  0  0  0  0  0  0
   -0.8133    1.2891    0.7785 H   0  0  0  0  0  0  0  0  0  0  0  0
   -2.5001    1.1704    0.2848 H   0  0  0  0  0  0  0  0  0  0  0  0
   -2.0764    0.3725    2.1973 C   0  0  0  0  0  0  0  0  0  0  0  0
   -1.2235    0.2724    3.2414 C   0  0  0  0  0  0  0  0  0  0  0  0
   -0.1445    0.3513    3.1667 H   0  0  0  0  0  0  0  0  0  0  0  0
   -1.9377    0.0765    4.4072 N   0  0  0  0  0  0  0  0  0  0  0  0
   -1.5062   -0.0304    5.3135 H   0  0  0  0  0  0  0  0  0  0  0  0
   -3.2962    0.0572    4.1729 C   0  0  0  0  0  0  0  0  0  0  0  0
   -4.4114   -0.0796    5.0120 C   0  0  0  0  0  0  0  0  0  0  0  0
   -4.2828   -0.2063    6.0770 H   0  0  0  0  0  0  0  0  0  0  0  0
   -5.6981   -0.0515    4.4477 C   0  0  0  0  0  0  0  0  0  0  0  0
   -6.5699   -0.1565    5.0793 H   0  0  0  0  0  0  0  0  0  0  0  0
   -5.8507    0.1070    3.0581 C   0  0  0  0  0  0  0  0  0  0  0  0
   -6.8423    0.1198    2.6272 H   0  0  0  0  0  0  0  0  0  0  0  0
   -4.7227    0.2416    2.2240 C   0  0  0  0  0  0  0  0  0  0  0  0
   -4.8537    0.3494    1.1567 H   0  0  0  0  0  0  0  0  0  0  0  0
   -3.4171    0.2236    2.7608 C   0  0  0  0  0  0  0  0  0  0  0  0
   -0.1319   -1.3615    0.4980 C   0  0  0  0  0  0  0  0  0  0  0  0
    0.7653   -1.7247   -0.2615 O   0  0  0  0  0  0  0  0  0  0  0  0
   -0.0938   -1.5873    1.8181 N   0  0  0  0  0  0  0  0  0  0  0  0
   -0.8953   -1.3054    2.3642 H   0  0  0  0  0  0  0  0  0  0  0  0
    0.9975   -2.2747    2.5029 C   0  0  0  0  0  0  0  0  0  0  0  0
    1.9497   -1.8139    2.2330 H   0  0  0  0  0  0  0  0  0  0  0  0
    0.8603   -2.2140    3.5833 H   0  0  0  0  0  0  0  0  0  0  0  0
    1.0173   -3.3227    2.1993 H   0  0  0  0  0  0  0  0  0  0  0  0
  5  6  2  0  0  0  0
  5  7  1  0  0  0  0
  2  3  1  0  0  0  0
  2  4  1  0  0  0  0
  2  5  1  0  0  0  0
  1  2  1  0  0  0  0
 29 30  2  0  0  0  0
 29 31  1  0  0  0  0
 26 27  1  0  0  0  0
 26 28  2  0  0  0  0
 24 25  1  0  0  0  0
 24 26  1  0  0  0  0
 22 23  1  0  0  0  0
 22 24  2  0  0  0  0
 20 21  1  0  0  0  0
 20 22  1  0  0  0  0
 19 20  2  0  0  0  0
 19 28  1  0  0  0  0
 17 18  1  0  0  0  0
 17 19  1  0  0  0  0
 15 16  1  0  0  0  0
 15 17  1  0  0  0  0
 14 15  2  0  0  0  0
 14 28  1  0  0  0  0
 11 12  1  0  0  0  0
 11 13  1  0  0  0  0
 11 14  1  0  0  0  0
  9 10  1  0  0  0  0
  9 11  1  0  0  0  0
  9 29  1  0  0  0  0
  7  8  1  0  0  0  0
  7  9  1  0  0  0  0
 33 34  1  0  0  0  0
 33 35  1  0  0  0  0
 33 36  1  0  0  0  0
 31 32  1  0  0  0  0
 31 33  1  0  0  0  0
M  END
$$$$
default_name
  -OEChem-12212115393D

 36 37  0     1  0  0  0  0  0999 V2000
   -4.0843   -4.0736    1.2944 H   0  0  0  0  0  0  0  0  0  0  0  0
   -4.0342   -3.2816    0.5484 C   0  0  0  0  0  0  0  0  0  0  0  0
   -4.8842   -2.6126    0.6694 H   0  0  0  0  0  0  0  0  0  0  0  0
   -4.0433   -3.7186   -0.4486 H   0  0  0  0  0  0  0  0  0  0  0  0
   -2.7532   -2.5046    0.7444 C   0  0  0  0  0  0  0  0  0  0  0  0
   -1.9803   -2.8096    1.6434 O   0  0  0  0  0  0  0  0  0  0  0  0
   -2.5332   -1.4966   -0.0966 N   0  0  0  0  0  0  0  0  0  0  0  0
   -3.2312   -1.2816   -0.7936 H   0  0  0  0  0  0  0  0  0  0  0  0
   -1.3593   -0.6196   -0.0536 C   0  0  1  0  0  0  0  0  0  0  0  0
   -1.1219   -0.3036   -1.0701 H   0  0  0  0  0  0  0  0  0  0  0  0
   -1.6857    0.6334    0.7742 C   0  0  0  0  0  0  0  0  0  0  0  0
   -0.8133    1.2891    0.7785 H   0  0  0  0  0  0  0  0  0  0  0  0
   -2.5001    1.1704    0.2848 H   0  0  0  0  0  0  0  0  0  0  0  0
   -2.0764    0.3725    2.1973 C   0  0  0  0  0  0  0  0  0  0  0  0
   -1.2235    0.2724    3.2414 C   0  0  0  0  0  0  0  0  0  0  0  0
   -0.1445    0.3513    3.1667 H   0  0  0  0  0  0  0  0  0  0  0  0
   -1.9377    0.0765    4.4072 N   0  0  0  0  0  0  0  0  0  0  0  0
   -1.5062   -0.0304    5.3135 H   0  0  0  0  0  0  0  0  0  0  0  0
   -3.2962    0.0572    4.1729 C   0  0  0  0  0  0  0  0  0  0  0  0
   -4.4114   -0.0796    5.0120 C   0  0  0  0  0  0  0  0  0  0  0  0
   -4.2828   -0.2063    6.0770 H   0  0  0  0  0  0  0  0  0  0  0  0
   -5.6981   -0.0515    4.4477 C   0  0  0  0  0  0  0  0  0  0  0  0
   -6.5699   -0.1565    5.0793 H   0  0  0  0  0  0  0  0  0  0  0  0
   -5.8507    0.1070    3.0581 C   0  0  0  0  0  0  0  0  0  0  0  0
   -6.8423    0.1198    2.6272 H   0  0  0  0  0  0  0  0  0  0  0  0
   -4.7227    0.2416    2.2240 C   0  0  0  0  0  0  0  0  0  0  0  0
   -4.8537    0.3494    1.1567 H   0  0  0  0  0  0  0  0  0  0  0  0
   -3.4171    0.2236    2.7608 C   0  0  0  0  0  0  0  0  0  0  0  0
   -0.1319   -1.3615    0.4980 C   0  0  0  0  0  0  0  0  0  0  0  0
    0.8802   -1.4821   -0.1911 O   0  0  0  0  0  0  0  0  0  0  0  0
   -0.2223   -1.8591    1.7387 N   0  0  0  0  0  0  0  0  0  0  0  0
   -1.1068   -1.7646    2.2173 H   0  0  0  0  0  0  0  0  0  0  0  0
    0.8495   -2.5870    2.4121 C   0  0  0  0  0  0  0  0  0  0  0  0
    1.7721   -2.0050    2.3711 H   0  0  0  0  0  0  0  0  0  0  0  0
    0.5831   -2.7686    3.4542 H   0  0  0  0  0  0  0  0  0  0  0  0
    1.0152   -3.5415    1.9098 H   0  0  0  0  0  0  0  0  0  0  0  0
  5  6  2  0  0  0  0
  5  7  1  0  0  0  0
  2  3  1  0  0  0  0
  2  4  1  0  0  0  0
  2  5  1  0  0  0  0
  1  2  1  0  0  0  0
 29 30  2  0  0  0  0
 29 31  1  0  0  0  0
 26 27  1  0  0  0  0
 26 28  2  0  0  0  0
 24 25  1  0  0  0  0
 24 26  1  0  0  0  0
 22 23  1  0  0  0  0
 22 24  2  0  0  0  0
 20 21  1  0  0  0  0
 20 22  1  0  0  0  0
 19 20  2  0  0  0  0
 19 28  1  0  0  0  0
 17 18  1  0  0  0  0
 17 19  1  0  0  0  0
 15 16  1  0  0  0  0
 15 17  1  0  0  0  0
 14 15  2  0  0  0  0
 14 28  1  0  0  0  0
 11 12  1  0  0  0  0
 11 13  1  0  0  0  0
 11 14  1  0  0  0  0
  9 10  1  0  0  0  0
  9 11  1  0  0  0  0
  9 29  1  0  0  0  0
  7  8  1  0  0  0  0
  7  9  1  0  0  0  0
 33 34  1  0  0  0  0
 33 35  1  0  0  0  0
 33 36  1  0  0  0  0
 31 32  1  0  0  0  0
 31 33  1  0  0  0  0
M  END
$$$$
default_name
  -OEChem-12212115393D

 36 37  0     1  0  0  0  0  0999 V2000
   -4.0843   -4.0736    1.2944 H   0  0  0  0  0  0  0  0  0  0  0  0
   -4.0342   -3.2816    0.5484 C   0  0  0  0  0  0  0  0  0  0  0  0
   -4.8842   -2.6126    0.6694 H   0  0  0  0  0  0  0  0  0  0  0  0
   -4.0433   -3.7186   -0.4486 H   0  0  0  0  0  0  0  0  0  0  0  0
   -2.7532   -2.5046    0.7444 C   0  0  0  0  0  0  0  0  0  0  0  0
   -1.9803   -2.8096    1.6434 O   0  0  0  0  0  0  0  0  0  0  0  0
   -2.5332   -1.4966   -0.0966 N   0  0  0  0  0  0  0  0  0  0  0  0
   -3.2312   -1.2816   -0.7936 H   0  0  0  0  0  0  0  0  0  0  0  0
   -1.3593   -0.6196   -0.0536 C   0  0  1  0  0  0  0  0  0  0  0  0
   -1.1219   -0.3036   -1.0701 H   0  0  0  0  0  0  0  0  0  0  0  0
   -1.6857    0.6334    0.7742 C   0  0  0  0  0  0  0  0  0  0  0  0
   -0.8133    1.2891    0.7785 H   0  0  0  0  0  0  0  0  0  0  0  0
   -2.5001    1.1704    0.2848 H   0  0  0  0  0  0  0  0  0  0  0  0
   -2.0764    0.3725    2.1973 C   0  0  0  0  0  0  0  0  0  0  0  0
   -1.2235    0.2724    3.2414 C   0  0  0  0  0  0  0  0  0  0  0  0
   -0.1445    0.3513    3.1667 H   0  0  0  0  0  0  0  0  0  0  0  0
   -1.9377    0.0765    4.4072 N   0  0  0  0  0  0  0  0  0  0  0  0
   -1.5062   -0.0304    5.3135 H   0  0  0  0  0  0  0  0  0  0  0  0
   -3.2962    0.0572    4.1729 C   0  0  0  0  0  0  0  0  0  0  0  0
   -4.4114   -0.0796    5.0120 C   0  0  0  0  0  0  0  0  0  0  0  0
   -4.2828   -0.2063    6.0770 H   0  0  0  0  0  0  0  0  0  0  0  0
   -5.6981   -0.0515    4.4477 C   0  0  0  0  0  0  0  0  0  0  0  0
   -6.5699   -0.1565    5.0793 H   0  0  0  0  0  0  0  0  0  0  0  0
   -5.8507    0.1070    3.0581 C   0  0  0  0  0  0  0  0  0  0  0  0
   -6.8423    0.1198    2.6272 H   0  0  0  0  0  0  0  0  0  0  0  0
   -4.7227    0.2416    2.2240 C   0  0  0  0  0  0  0  0  0  0  0  0
   -4.8537    0.3494    1.1567 H   0  0  0  0  0  0  0  0  0  0  0  0
   -3.4171    0.2236    2.7608 C   0  0  0  0  0  0  0  0  0  0  0  0
   -0.1319   -1.3615    0.4980 C   0  0  0  0  0  0  0  0  0  0  0  0
    0.9599   -1.2517   -0.0585 O   0  0  0  0  0  0  0  0  0  0  0  0
   -0.3114   -2.1171    1.5897 N   0  0  0  0  0  0  0  0  0  0  0  0
   -1.2501   -2.1974    1.9539 H   0  0  0  0  0  0  0  0  0  0  0  0
    0.7469   -2.8838    2.2414 C   0  0  0  0  0  0  0  0  0  0  0  0
    1.6011   -2.2346    2.4428 H   0  0  0  0  0  0  0  0  0  0  0  0
    0.3830   -3.3034    3.1802 H   0  0  0  0  0  0  0  0  0  0  0  0
    1.0696   -3.6933    1.5846 H   0  0  0  0  0  0  0  0  0  0  0  0
  5  6  2  0  0  0  0
  5  7  1  0  0  0  0
  2  3  1  0  0  0  0
  2  4  1  0  0  0  0
  2  5  1  0  0  0  0
  1  2  1  0  0  0  0
 29 30  2  0  0  0  0
 29 31  1  0  0  0  0
 26 27  1  0  0  0  0
 26 28  2  0  0  0  0
 24 25  1  0  0  0  0
 24 26  1  0  0  0  0
 22 23  1  0  0  0  0
 22 24  2  0  0  0  0
 20 21  1  0  0  0  0
 20 22  1  0  0  0  0
 19 20  2  0  0  0  0
 19 28  1  0  0  0  0
 17 18  1  0  0  0  0
 17 19  1  0  0  0  0
 15 16  1  0  0  0  0
 15 17  1  0  0  0  0
 14 15  2  0  0  0  0
 14 28  1  0  0  0  0
 11 12  1  0  0  0  0
 11 13  1  0  0  0  0
 11 14  1  0  0  0  0
  9 10  1  0  0  0  0
  9 11  1  0  0  0  0
  9 29  1  0  0  0  0
  7  8  1  0  0  0  0
  7  9  1  0  0  0  0
 33 34  1  0  0  0  0
 33 35  1  0  0  0  0
 33 36  1  0  0  0  0
 31 32  1  0  0  0  0
 31 33  1  0  0  0  0
M  END
$$$$
default_name
  -OEChem-12212115393D

 36 37  0     1  0  0  0  0  0999 V2000
   -4.0843   -4.0736    1.2944 H   0  0  0  0  0  0  0  0  0  0  0  0
   -4.0342   -3.2816    0.5484 C   0  0  0  0  0  0  0  0  0  0  0  0
   -4.8842   -2.6126    0.6694 H   0  0  0  0  0  0  0  0  0  0  0  0
   -4.0433   -3.7186   -0.4486 H   0  0  0  0  0  0  0  0  0  0  0  0
   -2.7532   -2.5046    0.7444 C   0  0  0  0  0  0  0  0  0  0  0  0
   -1.9803   -2.8096    1.6434 O   0  0  0  0  0  0  0  0  0  0  0  0
   -2.5332   -1.4966   -0.0966 N   0  0  0  0  0  0  0  0  0  0  0  0
   -3.2312   -1.2816   -0.7936 H   0  0  0  0  0  0  0  0  0  0  0  0
   -1.3593   -0.6196   -0.0536 C   0  0  1  0  0  0  0  0  0  0  0  0
   -1.1219   -0.3036   -1.0701 H   0  0  0  0  0  0  0  0  0  0  0  0
   -1.6857    0.6334    0.7742 C   0  0  0  0  0  0  0  0  0  0  0  0
   -0.8133    1.2891    0.7785 H   0  0  0  0  0  0  0  0  0  0  0  0
   -2.5001    1.1704    0.2848 H   0  0  0  0  0  0  0  0  0  0  0  0
   -2.0764    0.3725    2.1973 C   0  0  0  0  0  0  0  0  0  0  0  0
   -1.2235    0.2724    3.2414 C   0  0  0  0  0  0  0  0  0  0  0  0
   -0.1445    0.3513    3.1667 H   0  0  0  0  0  0  0  0  0  0  0  0
   -1.9377    0.0765    4.4072 N   0  0  0  0  0  0  0  0  0  0  0  0
   -1.5062   -0.0304    5.3135 H   0  0  0  0  0  0  0  0  0  0  0  0
   -3.2962    0.0572    4.1729 C   0  0  0  0  0  0  0  0  0  0  0  0
   -4.4114   -0.0796    5.0120 C   0  0  0  0  0  0  0  0  0  0  0  0
   -4.2828   -0.2063    6.0770 H   0  0  0  0  0  0  0  0  0  0  0  0
   -5.6981   -0.0515    4.4477 C   0  0  0  0  0  0  0  0  0  0  0  0
   -6.5699   -0.1565    5.0793 H   0  0  0  0  0  0  0  0  0  0  0  0
   -5.8507    0.1070    3.0581 C   0  0  0  0  0  0  0  0  0  0  0  0
   -6.8423    0.1198    2.6272 H   0  0  0  0  0  0  0  0  0  0  0  0
   -4.7227    0.2416    2.2240 C   0  0  0  0  0  0  0  0  0  0  0  0
   -4.8537    0.3494    1.1567 H   0  0  0  0  0  0  0  0  0  0  0  0
   -3.4171    0.2236    2.7608 C   0  0  0  0  0  0  0  0  0  0  0  0
   -0.1319   -1.3615    0.4980 C   0  0  0  0  0  0  0  0  0  0  0  0
    0.9989   -1.0492    0.1272 O   0  0  0  0  0  0  0  0  0  0  0  0
   -0.3548   -2.3438    1.3814 N   0  0  0  0  0  0  0  0  0  0  0  0
   -1.3154   -2.5744    1.5922 H   0  0  0  0  0  0  0  0  0  0  0  0
    0.6966   -3.1446    2.0023 C   0  0  0  0  0  0  0  0  0  0  0  0
    1.4483   -2.4871    2.4432 H   0  0  0  0  0  0  0  0  0  0  0  0
    0.2736   -3.7820    2.7799 H   0  0  0  0  0  0  0  0  0  0  0  0
    1.1769   -3.7676    1.2459 H   0  0  0  0  0  0  0  0  0  0  0  0
  5  6  2  0  0  0  0
  5  7  1  0  0  0  0
  2  3  1  0  0  0  0
  2  4  1  0  0  0  0
  2  5  1  0  0  0  0
  1  2  1  0  0  0  0
 29 30  2  0  0  0  0
 29 31  1  0  0  0  0
 26 27  1  0  0  0  0
 26 28  2  0  0  0  0
 24 25  1  0  0  0  0
 24 26  1  0  0  0  0
 22 23  1  0  0  0  0
 22 24  2  0  0  0  0
 20 21  1  0  0  0  0
 20 22  1  0  0  0  0
 19 20  2  0  0  0  0
 19 28  1  0  0  0  0
 17 18  1  0  0  0  0
 17 19  1  0  0  0  0
 15 16  1  0  0  0  0
 15 17  1  0  0  0  0
 14 15  2  0  0  0  0
 14 28  1  0  0  0  0
 11 12  1  0  0  0  0
 11 13  1  0  0  0  0
 11 14  1  0  0  0  0
  9 10  1  0  0  0  0
  9 11  1  0  0  0  0
  9 29  1  0  0  0  0
  7  8  1  0  0  0  0
  7  9  1  0  0  0  0
 33 34  1  0  0  0  0
 33 35  1  0  0  0  0
 33 36  1  0  0  0  0
 31 32  1  0  0  0  0
 31 33  1  0  0  0  0
M  END
$$$$
default_name
  -OEChem-12212115393D

 36 37  0     1  0  0  0  0  0999 V2000
   -4.0843   -4.0736    1.2944 H   0  0  0  0  0  0  0  0  0  0  0  0
   -4.0342   -3.2816    0.5484 C   0  0  0  0  0  0  0  0  0  0  0  0
   -4.8842   -2.6126    0.6694 H   0  0  0  0  0  0  0  0  0  0  0  0
   -4.0433   -3.7186   -0.4486 H   0  0  0  0  0  0  0  0  0  0  0  0
   -2.7532   -2.5046    0.7444 C   0  0  0  0  0  0  0  0  0  0  0  0
   -1.9803   -2.8096    1.6434 O   0  0  0  0  0  0  0  0  0  0  0  0
   -2.5332   -1.4966   -0.0966 N   0  0  0  0  0  0  0  0  0  0  0  0
   -3.2312   -1.2816   -0.7936 H   0  0  0  0  0  0  0  0  0  0  0  0
   -1.3593   -0.6196   -0.0536 C   0  0  1  0  0  0  0  0  0  0  0  0
   -1.1219   -0.3036   -1.0701 H   0  0  0  0  0  0  0  0  0  0  0  0
   -1.6857    0.6334    0.7742 C   0  0  0  0  0  0  0  0  0  0  0  0
   -0.8133    1.2891    0.7785 H   0  0  0  0  0  0  0  0  0  0  0  0
   -2.5001    1.1704    0.2848 H   0  0  0  0  0  0  0  0  0  0  0  0
   -2.0764    0.3725    2.1973 C   0  0  0  0  0  0  0  0  0  0  0  0
   -1.2235    0.2724    3.2414 C   0  0  0  0  0  0  0  0  0  0  0  0
   -0.1445    0.3513    3.1667 H   0  0  0  0  0  0  0  0  0  0  0  0
   -1.9377    0.0765    4.4072 N   0  0  0  0  0  0  0  0  0  0  0  0
   -1.5062   -0.0304    5.3135 H   0  0  0  0  0  0  0  0  0  0  0  0
   -3.2962    0.0572    4.1729 C   0  0  0  0  0  0  0  0  0  0  0  0
   -4.4114   -0.0796    5.0120 C   0  0  0  0  0  0  0  0  0  0  0  0
   -4.2828   -0.2063    6.0770 H   0  0  0  0  0  0  0  0  0  0  0  0
   -5.6981   -0.0515    4.4477 C   0  0  0  0  0  0  0  0  0  0  0  0
   -6.5699   -0.1565    5.0793 H   0  0  0  0  0  0  0  0  0  0  0  0
   -5.8507    0.1070    3.0581 C   0  0  0  0  0  0  0  0  0  0  0  0
   -6.8423    0.1198    2.6272 H   0  0  0  0  0  0  0  0  0  0  0  0
   -4.7227    0.2416    2.2240 C   0  0  0  0  0  0  0  0  0  0  0  0
   -4.8537    0.3494    1.1567 H   0  0  0  0  0  0  0  0  0  0  0  0
   -3.4171    0.2236    2.7608 C   0  0  0  0  0  0  0  0  0  0  0  0
   -0.1319   -1.3615    0.4980 C   0  0  0  0  0  0  0  0  0  0  0  0
    0.9945   -0.8883    0.3533 O   0  0  0  0  0  0  0  0  0  0  0  0
   -0.3496   -2.5238    1.1278 N   0  0  0  0  0  0  0  0  0  0  0  0
   -1.2982   -2.8697    1.1567 H   0  0  0  0  0  0  0  0  0  0  0  0
    0.7022   -3.3518    1.7112 C   0  0  0  0  0  0  0  0  0  0  0  0
    1.3241   -2.7453    2.3723 H   0  0  0  0  0  0  0  0  0  0  0  0
    0.2624   -4.1716    2.2807 H   0  0  0  0  0  0  0  0  0  0  0  0
    1.3297   -3.7594    0.9168 H   0  0  0  0  0  0  0  0  0  0  0  0
  5  6  2  0  0  0  0
  5  7  1  0  0  0  0
  2  3  1  0  0  0  0
  2  4  1  0  0  0  0
  2  5  1  0  0  0  0
  1  2  1  0  0  0  0
 29 30  2  0  0  0  0
 29 31  1  0  0  0  0
 26 27  1  0  0  0  0
 26 28  2  0  0  0  0
 24 25  1  0  0  0  0
 24 26  1  0  0  0  0
 22 23  1  0  0  0  0
 22 24  2  0  0  0  0
 20 21  1  0  0  0  0
 20 22  1  0  0  0  0
 19 20  2  0  0  0  0
 19 28  1  0  0  0  0
 17 18  1  0  0  0  0
 17 19  1  0  0  0  0
 15 16  1  0  0  0  0
 15 17  1  0  0  0  0
 14 15  2  0  0  0  0
 14 28  1  0  0  0  0
 11 12  1  0  0  0  0
 11 13  1  0  0  0  0
 11 14  1  0  0  0  0
  9 10  1  0  0  0  0
  9 11  1  0  0  0  0
  9 29  1  0  0  0  0
  7  8  1  0  0  0  0
  7  9  1  0  0  0  0
 33 34  1  0  0  0  0
 33 35  1  0  0  0  0
 33 36  1  0  0  0  0
 31 32  1  0  0  0  0
 31 33  1  0  0  0  0
M  END
$$$$
default_name
  -OEChem-12212115393D

 36 37  0     1  0  0  0  0  0999 V2000
   -4.0843   -4.0736    1.2944 H   0  0  0  0  0  0  0  0  0  0  0  0
   -4.0342   -3.2816    0.5484 C   0  0  0  0  0  0  0  0  0  0  0  0
   -4.8842   -2.6126    0.6694 H   0  0  0  0  0  0  0  0  0  0  0  0
   -4.0433   -3.7186   -0.4486 H   0  0  0  0  0  0  0  0  0  0  0  0
   -2.7532   -2.5046    0.7444 C   0  0  0  0  0  0  0  0  0  0  0  0
   -1.9803   -2.8096    1.6434 O   0  0  0  0  0  0  0  0  0  0  0  0
   -2.5332   -1.4966   -0.0966 N   0  0  0  0  0  0  0  0  0  0  0  0
   -3.2312   -1.2816   -0.7936 H   0  0  0  0  0  0  0  0  0  0  0  0
   -1.3593   -0.6196   -0.0536 C   0  0  1  0  0  0  0  0  0  0  0  0
   -1.1219   -0.3036   -1.0701 H   0  0  0  0  0  0  0  0  0  0  0  0
   -1.6857    0.6334    0.7742 C   0  0  0  0  0  0  0  0  0  0  0  0
   -0.8133    1.2891    0.7785 H   0  0  0  0  0  0  0  0  0  0  0  0
   -2.5001    1.1704    0.2848 H   0  0  0  0  0  0  0  0  0  0  0  0
   -2.0764    0.3725    2.1973 C   0  0  0  0  0  0  0  0  0  0  0  0
   -1.2235    0.2724    3.2414 C   0  0  0  0  0  0  0  0  0  0  0  0
   -0.1445    0.3513    3.1667 H   0  0  0  0  0  0  0  0  0  0  0  0
   -1.9377    0.0765    4.4072 N   0  0  0  0  0  0  0  0  0  0  0  0
   -1.5062   -0.0304    5.3135 H   0  0  0  0  0  0  0  0  0  0  0  0
   -3.2962    0.0572    4.1729 C   0  0  0  0  0  0  0  0  0  0  0  0
   -4.4114   -0.0796    5.0120 C   0  0  0  0  0  0  0  0  0  0  0  0
   -4.2828   -0.2063    6.0770 H   0  0  0  0  0  0  0  0  0  0  0  0
   -5.6981   -0.0515    4.4477 C   0  0  0  0  0  0  0  0  0  0  0  0
   -6.5699   -0.1565    5.0793 H   0  0  0  0  0  0  0  0  0  0  0  0
   -5.8507    0.1070    3.0581 C   0  0  0  0  0  0  0  0  0  0  0  0
   -6.8423    0.1198    2.6272 H   0  0  0  0  0  0  0  0  0  0  0  0
   -4.7227    0.2416    2.2240 C   0  0  0  0  0  0  0  0  0  0  0  0
   -4.8537    0.3494    1.1567 H   0  0  0  0  0  0  0  0  0  0  0  0
   -3.4171    0.2236    2.7608 C   0  0  0  0  0  0  0  0  0  0  0  0
   -0.1319   -1.3615    0.4980 C   0  0  0  0  0  0  0  0  0  0  0  0
    0.9471   -0.7800    0.6044 O   0  0  0  0  0  0  0  0  0  0  0  0
   -0.2962   -2.6447    0.8464 N   0  0  0  0  0  0  0  0  0  0  0  0
   -1.1997   -3.0634    0.6771 H   0  0  0  0  0  0  0  0  0  0  0  0
    0.7633   -3.4913    1.3879 C   0  0  0  0  0  0  0  0  0  0  0  0
    1.2370   -2.9915    2.2349 H   0  0  0  0  0  0  0  0  0  0  0  0
    0.3502   -4.4458    1.7165 H   0  0  0  0  0  0  0  0  0  0  0  0
    1.5177   -3.6692    0.6198 H   0  0  0  0  0  0  0  0  0  0  0  0
  5  6  2  0  0  0  0
  5  7  1  0  0  0  0
  2  3  1  0  0  0  0
  2  4  1  0  0  0  0
  2  5  1  0  0  0  0
  1  2  1  0  0  0  0
 29 30  2  0  0  0  0
 29 31  1  0  0  0  0
 26 27  1  0  0  0  0
 26 28  2  0  0  0  0
 24 25  1  0  0  0  0
 24 26  1  0  0  0  0
 22 23  1  0  0  0  0
 22 24  2  0  0  0  0
 20 21  1  0  0  0  0
 20 22  1  0  0  0  0
 19 20  2  0  0  0  0
 19 28  1  0  0  0  0
 17 18  1  0  0  0  0
 17 19  1  0  0  0  0
 15 16  1  0  0  0  0
 15 17  1  0  0  0  0
 14 15  2  0  0  0  0
 14 28  1  0  0  0  0
 11 12  1  0  0  0  0
 11 13  1  0  0  0  0
 11 14  1  0  0  0  0
  9 10  1  0  0  0  0
  9 11  1  0  0  0  0
  9 29  1  0  0  0  0
  7  8  1  0  0  0  0
  7  9  1  0  0  0  0
 33 34  1  0  0  0  0
 33 35  1  0  0  0  0
 33 36  1  0  0  0  0
 31 32  1  0  0  0  0
 31 33  1  0  0  0  0
M  END
$$$$
default_name
  -OEChem-12212115393D

 36 37  0     1  0  0  0  0  0999 V2000
   -4.0843   -4.0736    1.2944 H   0  0  0  0  0  0  0  0  0  0  0  0
   -4.0342   -3.2816    0.5484 C   0  0  0  0  0  0  0  0  0  0  0  0
   -4.8842   -2.6126    0.6694 H   0  0  0  0  0  0  0  0  0  0  0  0
   -4.0433   -3.7186   -0.4486 H   0  0  0  0  0  0  0  0  0  0  0  0
   -2.7532   -2.5046    0.7444 C   0  0  0  0  0  0  0  0  0  0  0  0
   -1.9803   -2.8096    1.6434 O   0  0  0  0  0  0  0  0  0  0  0  0
   -2.5332   -1.4966   -0.0966 N   0  0  0  0  0  0  0  0  0  0  0  0
   -3.2312   -1.2816   -0.7936 H   0  0  0  0  0  0  0  0  0  0  0  0
   -1.3593   -0.6196   -0.0536 C   0  0  1  0  0  0  0  0  0  0  0  0
   -1.1219   -0.3036   -1.0701 H   0  0  0  0  0  0  0  0  0  0  0  0
   -1.6857    0.6334    0.7742 C   0  0  0  0  0  0  0  0  0  0  0  0
   -0.8133    1.2891    0.7785 H   0  0  0  0  0  0  0  0  0  0  0  0
   -2.5001    1.1704    0.2848 H   0  0  0  0  0  0  0  0  0  0  0  0
   -2.0764    0.3725    2.1973 C   0  0  0  0  0  0  0  0  0  0  0  0
   -1.2235    0.2724    3.2414 C   0  0  0  0  0  0  0  0  0  0  0  0
   -0.1445    0.3513    3.1667 H   0  0  0  0  0  0  0  0  0  0  0  0
   -1.9377    0.0765    4.4072 N   0  0  0  0  0  0  0  0  0  0  0  0
   -1.5062   -0.0304    5.3135 H   0  0  0  0  0  0  0  0  0  0  0  0
   -3.2962    0.0572    4.1729 C   0  0  0  0  0  0  0  0  0  0  0  0
   -4.4114   -0.0796    5.0120 C   0  0  0  0  0  0  0  0  0  0  0  0
   -4.2828   -0.2063    6.0770 H   0  0  0  0  0  0  0  0  0  0  0  0
   -5.6981   -0.0515    4.4477 C   0  0  0  0  0  0  0  0  0  0  0  0
   -6.5699   -0.1565    5.0793 H   0  0  0  0  0  0  0  0  0  0  0  0
   -5.8507    0.1070    3.0581 C   0  0  0  0  0  0  0  0  0  0  0  0
   -6.8423    0.1198    2.6272 H   0  0  0  0  0  0  0  0  0  0  0  0
   -4.7227    0.2416    2.2240 C   0  0  0  0  0  0  0  0  0  0  0  0
   -4.8537    0.3494    1.1567 H   0  0  0  0  0  0  0  0  0  0  0  0
   -3.4171    0.2236    2.7608 C   0  0  0  0  0  0  0  0  0  0  0  0
   -0.1319   -1.3615    0.4980 C   0  0  0  0  0  0  0  0  0  0  0  0
    0.8599   -0.7318    0.8633 O   0  0  0  0  0  0  0  0  0  0  0  0
   -0.1983   -2.6984    0.5562 N   0  0  0  0  0  0  0  0  0  0  0  0
   -1.0267   -3.1422    0.1861 H   0  0  0  0  0  0  0  0  0  0  0  0
    0.8756   -3.5535    1.0543 C   0  0  0  0  0  0  0  0  0  0  0  0
    1.1929   -3.2091    2.0404 H   0  0  0  0  0  0  0  0  0  0  0  0
    0.5310   -4.5859    1.1259 H   0  0  0  0  0  0  0  0  0  0  0  0
    1.7281   -3.5032    0.3749 H   0  0  0  0  0  0  0  0  0  0  0  0
  5  6  2  0  0  0  0
  5  7  1  0  0  0  0
  2  3  1  0  0  0  0
  2  4  1  0  0  0  0
  2  5  1  0  0  0  0
  1  2  1  0  0  0  0
 29 30  2  0  0  0  0
 29 31  1  0  0  0  0
 26 27  1  0  0  0  0
 26 28  2  0  0  0  0
 24 25  1  0  0  0  0
 24 26  1  0  0  0  0
 22 23  1  0  0  0  0
 22 24  2  0  0  0  0
 20 21  1  0  0  0  0
 20 22  1  0  0  0  0
 19 20  2  0  0  0  0
 19 28  1  0  0  0  0
 17 18  1  0  0  0  0
 17 19  1  0  0  0  0
 15 16  1  0  0  0  0
 15 17  1  0  0  0  0
 14 15  2  0  0  0  0
 14 28  1  0  0  0  0
 11 12  1  0  0  0  0
 11 13  1  0  0  0  0
 11 14  1  0  0  0  0
  9 10  1  0  0  0  0
  9 11  1  0  0  0  0
  9 29  1  0  0  0  0
  7  8  1  0  0  0  0
  7  9  1  0  0  0  0
 33 34  1  0  0  0  0
 33 35  1  0  0  0  0
 33 36  1  0  0  0  0
 31 32  1  0  0  0  0
 31 33  1  0  0  0  0
M  END
$$$$
default_name
  -OEChem-12212115393D

 36 37  0     1  0  0  0  0  0999 V2000
   -4.0843   -4.0736    1.2944 H   0  0  0  0  0  0  0  0  0  0  0  0
   -4.0342   -3.2816    0.5484 C   0  0  0  0  0  0  0  0  0  0  0  0
   -4.8842   -2.6126    0.6694 H   0  0  0  0  0  0  0  0  0  0  0  0
   -4.0433   -3.7186   -0.4486 H   0  0  0  0  0  0  0  0  0  0  0  0
   -2.7532   -2.5046    0.7444 C   0  0  0  0  0  0  0  0  0  0  0  0
   -1.9803   -2.8096    1.6434 O   0  0  0  0  0  0  0  0  0  0  0  0
   -2.5332   -1.4966   -0.0966 N   0  0  0  0  0  0  0  0  0  0  0  0
   -3.2312   -1.2816   -0.7936 H   0  0  0  0  0  0  0  0  0  0  0  0
   -1.3593   -0.6196   -0.0536 C   0  0  1  0  0  0  0  0  0  0  0  0
   -1.1219   -0.3036   -1.0701 H   0  0  0  0  0  0  0  0  0  0  0  0
   -1.6857    0.6334    0.7742 C   0  0  0  0  0  0  0  0  0  0  0  0
   -0.8133    1.2891    0.7785 H   0  0  0  0  0  0  0  0  0  0  0  0
   -2.5001    1.1704    0.2848 H   0  0  0  0  0  0  0  0  0  0  0  0
   -2.0764    0.3725    2.1973 C   0  0  0  0  0  0  0  0  0  0  0  0
   -1.2235    0.2724    3.2414 C   0  0  0  0  0  0  0  0  0  0  0  0
   -0.1445    0.3513    3.1667 H   0  0  0  0  0  0  0  0  0  0  0  0
   -1.9377    0.0765    4.4072 N   0  0  0  0  0  0  0  0  0  0  0  0
   -1.5062   -0.0304    5.3135 H   0  0  0  0  0  0  0  0  0  0  0  0
   -3.2962    0.0572    4.1729 C   0  0  0  0  0  0  0  0  0  0  0  0
   -4.4114   -0.0796    5.0120 C   0  0  0  0  0  0  0  0  0  0  0  0
   -4.2828   -0.2063    6.0770 H   0  0  0  0  0  0  0  0  0  0  0  0
   -5.6981   -0.0515    4.4477 C   0  0  0  0  0  0  0  0  0  0  0  0
   -6.5699   -0.1565    5.0793 H   0  0  0  0  0  0  0  0  0  0  0  0
   -5.8507    0.1070    3.0581 C   0  0  0  0  0  0  0  0  0  0  0  0
   -6.8423    0.1198    2.6272 H   0  0  0  0  0  0  0  0  0  0  0  0
   -4.7227    0.2416    2.2240 C   0  0  0  0  0  0  0  0  0  0  0  0
   -4.8537    0.3494    1.1567 H   0  0  0  0  0  0  0  0  0  0  0  0
   -3.4171    0.2236    2.7608 C   0  0  0  0  0  0  0  0  0  0  0  0
   -0.1319   -1.3615    0.4980 C   0  0  0  0  0  0  0  0  0  0  0  0
    0.7388   -0.7468    1.1126 O   0  0  0  0  0  0  0  0  0  0  0  0
   -0.0624   -2.6811    0.2770 N   0  0  0  0  0  0  0  0  0  0  0  0
   -0.7909   -3.1007   -0.2829 H   0  0  0  0  0  0  0  0  0  0  0  0
    1.0315   -3.5341    0.7333 C   0  0  0  0  0  0  0  0  0  0  0  0
    1.1948   -3.3831    1.8021 H   0  0  0  0  0  0  0  0  0  0  0  0
    0.7924   -4.5823    0.5490 H   0  0  0  0  0  0  0  0  0  0  0  0
    1.9464   -3.2727    0.1991 H   0  0  0  0  0  0  0  0  0  0  0  0
  5  6  2  0  0  0  0
  5  7  1  0  0  0  0
  2  3  1  0  0  0  0
  2  4  1  0  0  0  0
  2  5  1  0  0  0  0
  1  2  1  0  0  0  0
 29 30  2  0  0  0  0
 29 31  1  0  0  0  0
 26 27  1  0  0  0  0
 26 28  2  0  0  0  0
 24 25  1  0  0  0  0
 24 26  1  0  0  0  0
 22 23  1  0  0  0  0
 22 24  2  0  0  0  0
 20 21  1  0  0  0  0
 20 22  1  0  0  0  0
 19 20  2  0  0  0  0
 19 28  1  0  0  0  0
 17 18  1  0  0  0  0
 17 19  1  0  0  0  0
 15 16  1  0  0  0  0
 15 17  1  0  0  0  0
 14 15  2  0  0  0  0
 14 28  1  0  0  0  0
 11 12  1  0  0  0  0
 11 13  1  0  0  0  0
 11 14  1  0  0  0  0
  9 10  1  0  0  0  0
  9 11  1  0  0  0  0
  9 29  1  0  0  0  0
  7  8  1  0  0  0  0
  7  9  1  0  0  0  0
 33 34  1  0  0  0  0
 33 35  1  0  0  0  0
 33 36  1  0  0  0  0
 31 32  1  0  0  0  0
 31 33  1  0  0  0  0
M  END
$$$$
default_name
  -OEChem-12212115393D

 36 37  0     1  0  0  0  0  0999 V2000
   -4.0843   -4.0736    1.2944 H   0  0  0  0  0  0  0  0  0  0  0  0
   -4.0342   -3.2816    0.5484 C   0  0  0  0  0  0  0  0  0  0  0  0
   -4.8842   -2.6126    0.6694 H   0  0  0  0  0  0  0  0  0  0  0  0
   -4.0433   -3.7186   -0.4486 H   0  0  0  0  0  0  0  0  0  0  0  0
   -2.7532   -2.5046    0.7444 C   0  0  0  0  0  0  0  0  0  0  0  0
   -1.9803   -2.8096    1.6434 O   0  0  0  0  0  0  0  0  0  0  0  0
   -2.5332   -1.4966   -0.0966 N   0  0  0  0  0  0  0  0  0  0  0  0
   -3.2312   -1.2816   -0.7936 H   0  0  0  0  0  0  0  0  0  0  0  0
   -1.3593   -0.6196   -0.0536 C   0  0  1  0  0  0  0  0  0  0  0  0
   -1.1219   -0.3036   -1.0701 H   0  0  0  0  0  0  0  0  0  0  0  0
   -1.6857    0.6334    0.7742 C   0  0  0  0  0  0  0  0  0  0  0  0
   -0.8133    1.2891    0.7785 H   0  0  0  0  0  0  0  0  0  0  0  0
   -2.5001    1.1704    0.2848 H   0  0  0  0  0  0  0  0  0  0  0  0
   -2.0764    0.3725    2.1973 C   0  0  0  0  0  0  0  0  0  0  0  0
   -1.2235    0.2724    3.2414 C   0  0  0  0  0  0  0  0  0  0  0  0
   -0.1445    0.3513    3.1667 H   0  0  0  0  0  0  0  0  0  0  0  0
   -1.9377    0.0765    4.4072 N   0  0  0  0  0  0  0  0  0  0  0  0
   -1.5062   -0.0304    5.3135 H   0  0  0  0  0  0  0  0  0  0  0  0
   -3.2962    0.0572    4.1729 C   0  0  0  0  0  0  0  0  0  0  0  0
   -4.4114   -0.0796    5.0120 C   0  0  0  0  0  0  0  0  0  0  0  0
   -4.2828   -0.2063    6.0770 H   0  0  0  0  0  0  0  0  0  0  0  0
   -5.6981   -0.0515    4.4477 C   0  0  0  0  0  0  0  0  0  0  0  0
   -6.5699   -0.1565    5.0793 H   0  0  0  0  0  0  0  0  0  0  0  0
   -5.8507    0.1070    3.0581 C   0  0  0  0  0  0  0  0  0  0  0  0
   -6.8423    0.1198    2.6272 H   0  0  0  0  0  0  0  0  0  0  0  0
   -4.7227    0.2416    2.2240 C   0  0  0  0  0  0  0  0  0  0  0  0
   -4.8537    0.3494    1.1567 H   0  0  0  0  0  0  0  0  0  0  0  0
   -3.4171    0.2236    2.7608 C   0  0  0  0  0  0  0  0  0  0  0  0
   -0.1319   -1.3615    0.4980 C   0  0  0  0  0  0  0  0  0  0  0  0
    0.5921   -0.8241    1.3351 O   0  0  0  0  0  0  0  0  0  0  0  0
    0.1022   -2.5941    0.0279 N   0  0  0  0  0  0  0  0  0  0  0  0
   -0.5084   -2.9418   -0.6978 H   0  0  0  0  0  0  0  0  0  0  0  0
    1.2204   -3.4346    0.4467 C   0  0  0  0  0  0  0  0  0  0  0  0
    1.2426   -3.5018    1.5361 H   0  0  0  0  0  0  0  0  0  0  0  0
    1.1167   -4.4352    0.0252 H   0  0  0  0  0  0  0  0  0  0  0  0
    2.1579   -2.9934    0.1041 H   0  0  0  0  0  0  0  0  0  0  0  0
  5  6  2  0  0  0  0
  5  7  1  0  0  0  0
  2  3  1  0  0  0  0
  2  4  1  0  0  0  0
  2  5  1  0  0  0  0
  1  2  1  0  0  0  0
 29 30  2  0  0  0  0
 29 31  1  0  0  0  0
 26 27  1  0  0  0  0
 26 28  2  0  0  0  0
 24 25  1  0  0  0  0
 24 26  1  0  0  0  0
 22 23  1  0  0  0  0
 22 24  2  0  0  0  0
 20 21  1  0  0  0  0
 20 22  1  0  0  0  0
 19 20  2  0  0  0  0
 19 28  1  0  0  0  0
 17 18  1  0  0  0  0
 17 19  1  0  0  0  0
 15 16  1  0  0  0  0
 15 17  1  0  0  0  0
 14 15  2  0  0  0  0
 14 28  1  0  0  0  0
 11 12  1  0  0  0  0
 11 13  1  0  0  0  0
 11 14  1  0  0  0  0
  9 10  1  0  0  0  0
  9 11  1  0  0  0  0
  9 29  1  0  0  0  0
  7  8  1  0  0  0  0
  7  9  1  0  0  0  0
 33 34  1  0  0  0  0
 33 35  1  0  0  0  0
 33 36  1  0  0  0  0
 31 32  1  0  0  0  0
 31 33  1  0  0  0  0
M  END
$$$$
default_name
  -OEChem-12212115393D

 36 37  0     1  0  0  0  0  0999 V2000
   -4.0843   -4.0736    1.2944 H   0  0  0  0  0  0  0  0  0  0  0  0
   -4.0342   -3.2816    0.5484 C   0  0  0  0  0  0  0  0  0  0  0  0
   -4.8842   -2.6126    0.6694 H   0  0  0  0  0  0  0  0  0  0  0  0
   -4.0433   -3.7186   -0.4486 H   0  0  0  0  0  0  0  0  0  0  0  0
   -2.7532   -2.5046    0.7444 C   0  0  0  0  0  0  0  0  0  0  0  0
   -1.9803   -2.8096    1.6434 O   0  0  0  0  0  0  0  0  0  0  0  0
   -2.5332   -1.4966   -0.0966 N   0  0  0  0  0  0  0  0  0  0  0  0
   -3.2312   -1.2816   -0.7936 H   0  0  0  0  0  0  0  0  0  0  0  0
   -1.3593   -0.6196   -0.0536 C   0  0  1  0  0  0  0  0  0  0  0  0
   -1.1219   -0.3036   -1.0701 H   0  0  0  0  0  0  0  0  0  0  0  0
   -1.6857    0.6334    0.7742 C   0  0  0  0  0  0  0  0  0  0  0  0
   -0.8133    1.2891    0.7785 H   0  0  0  0  0  0  0  0  0  0  0  0
   -2.5001    1.1704    0.2848 H   0  0  0  0  0  0  0  0  0  0  0  0
   -2.0764    0.3725    2.1973 C   0  0  0  0  0  0  0  0  0  0  0  0
   -1.2235    0.2724    3.2414 C   0  0  0  0  0  0  0  0  0  0  0  0
   -0.1445    0.3513    3.1667 H   0  0  0  0  0  0  0  0  0  0  0  0
   -1.9377    0.0765    4.4072 N   0  0  0  0  0  0  0  0  0  0  0  0
   -1.5062   -0.0304    5.3135 H   0  0  0  0  0  0  0  0  0  0  0  0
   -3.2962    0.0572    4.1729 C   0  0  0  0  0  0  0  0  0  0  0  0
   -4.4114   -0.0796    5.0120 C   0  0  0  0  0  0  0  0  0  0  0  0
   -4.2828   -0.2063    6.0770 H   0  0  0  0  0  0  0  0  0  0  0  0
   -5.6981   -0.0515    4.4477 C   0  0  0  0  0  0  0  0  0  0  0  0
   -6.5699   -0.1565    5.0793 H   0  0  0  0  0  0  0  0  0  0  0  0
   -5.8507    0.1070    3.0581 C   0  0  0  0  0  0  0  0  0  0  0  0
   -6.8423    0.1198    2.6272 H   0  0  0  0  0  0  0  0  0  0  0  0
   -4.7227    0.2416    2.2240 C   0  0  0  0  0  0  0  0  0  0  0  0
   -4.8537    0.3494    1.1567 H   0  0  0  0  0  0  0  0  0  0  0  0
   -3.4171    0.2236    2.7608 C   0  0  0  0  0  0  0  0  0  0  0  0
   -0.1319   -1.3615    0.4980 C   0  0  0  0  0  0  0  0  0  0  0  0
    0.4297   -0.9585    1.5157 O   0  0  0  0  0  0  0  0  0  0  0  0
    0.2841   -2.4433   -0.1742 N   0  0  0  0  0  0  0  0  0  0  0  0
   -0.1984   -2.6763   -1.0304 H   0  0  0  0  0  0  0  0  0  0  0  0
    1.4295   -3.2617    0.2141 C   0  0  0  0  0  0  0  0  0  0  0  0
    1.3331   -3.5570    1.2606 H   0  0  0  0  0  0  0  0  0  0  0  0
    1.4817   -4.1548   -0.4099 H   0  0  0  0  0  0  0  0  0  0  0  0
    2.3481   -2.6844    0.0966 H   0  0  0  0  0  0  0  0  0  0  0  0
  5  6  2  0  0  0  0
  5  7  1  0  0  0  0
  2  3  1  0  0  0  0
  2  4  1  0  0  0  0
  2  5  1  0  0  0  0
  1  2  1  0  0  0  0
 29 30  2  0  0  0  0
 29 31  1  0  0  0  0
 26 27  1  0  0  0  0
 26 28  2  0  0  0  0
 24 25  1  0  0  0  0
 24 26  1  0  0  0  0
 22 23  1  0  0  0  0
 22 24  2  0  0  0  0
 20 21  1  0  0  0  0
 20 22  1  0  0  0  0
 19 20  2  0  0  0  0
 19 28  1  0  0  0  0
 17 18  1  0  0  0  0
 17 19  1  0  0  0  0
 15 16  1  0  0  0  0
 15 17  1  0  0  0  0
 14 15  2  0  0  0  0
 14 28  1  0  0  0  0
 11 12  1  0  0  0  0
 11 13  1  0  0  0  0
 11 14  1  0  0  0  0
  9 10  1  0  0  0  0
  9 11  1  0  0  0  0
  9 29  1  0  0  0  0
  7  8  1  0  0  0  0
  7  9  1  0  0  0  0
 33 34  1  0  0  0  0
 33 35  1  0  0  0  0
 33 36  1  0  0  0  0
 31 32  1  0  0  0  0
 31 33  1  0  0  0  0
M  END
$$$$
default_name
  -OEChem-12212115393D

 36 37  0     1  0  0  0  0  0999 V2000
   -4.0843   -4.0736    1.2944 H   0  0  0  0  0  0  0  0  0  0  0  0
   -4.0342   -3.2816    0.5484 C   0  0  0  0  0  0  0  0  0  0  0  0
   -4.8842   -2.6126    0.6694 H   0  0  0  0  0  0  0  0  0  0  0  0
   -4.0433   -3.7186   -0.4486 H   0  0  0  0  0  0  0  0  0  0  0  0
   -2.7532   -2.5046    0.7444 C   0  0  0  0  0  0  0  0  0  0  0  0
   -1.9803   -2.8096    1.6434 O   0  0  0  0  0  0  0  0  0  0  0  0
   -2.5332   -1.4966   -0.0966 N   0  0  0  0  0  0  0  0  0  0  0  0
   -3.2312   -1.2816   -0.7936 H   0  0  0  0  0  0  0  0  0  0  0  0
   -1.3593   -0.6196   -0.0536 C   0  0  1  0  0  0  0  0  0  0  0  0
   -1.1219   -0.3036   -1.0701 H   0  0  0  0  0  0  0  0  0  0  0  0
   -1.6857    0.6334    0.7742 C   0  0  0  0  0  0  0  0  0  0  0  0
   -0.8133    1.2891    0.7785 H   0  0  0  0  0  0  0  0  0  0  0  0
   -2.5001    1.1704    0.2848 H   0  0  0  0  0  0  0  0  0  0  0  0
   -2.0764    0.3725    2.1973 C   0  0  0  0  0  0  0  0  0  0  0  0
   -1.2235    0.2724    3.2414 C   0  0  0  0  0  0  0  0  0  0  0  0
   -0.1445    0.3513    3.1667 H   0  0  0  0  0  0  0  0  0  0  0  0
   -1.9377    0.0765    4.4072 N   0  0  0  0  0  0  0  0  0  0  0  0
   -1.5062   -0.0304    5.3135 H   0  0  0  0  0  0  0  0  0  0  0  0
   -3.2962    0.0572    4.1729 C   0  0  0  0  0  0  0  0  0  0  0  0
   -4.4114   -0.0796    5.0120 C   0  0  0  0  0  0  0  0  0  0  0  0
   -4.2828   -0.2063    6.0770 H   0  0  0  0  0  0  0  0  0  0  0  0
   -5.6981   -0.0515    4.4477 C   0  0  0  0  0  0  0  0  0  0  0  0
   -6.5699   -0.1565    5.0793 H   0  0  0  0  0  0  0  0  0  0  0  0
   -5.8507    0.1070    3.0581 C   0  0  0  0  0  0  0  0  0  0  0  0
   -6.8423    0.1198    2.6272 H   0  0  0  0  0  0  0  0  0  0  0  0
   -4.7227    0.2416    2.2240 C   0  0  0  0  0  0  0  0  0  0  0  0
   -4.8537    0.3494    1.1567 H   0  0  0  0  0  0  0  0  0  0  0  0
   -3.4171    0.2236    2.7608 C   0  0  0  0  0  0  0  0  0  0  0  0
   -0.1319   -1.3615    0.4980 C   0  0  0  0  0  0  0  0  0  0  0  0
    0.2628   -1.1406    1.6421 O   0  0  0  0  0  0  0  0  0  0  0  0
    0.4712   -2.2389   -0.3154 N   0  0  0  0  0  0  0  0  0  0  0  0
    0.1179   -2.3223   -1.2580 H   0  0  0  0  0  0  0  0  0  0  0  0
    1.6445   -3.0271    0.0513 C   0  0  0  0  0  0  0  0  0  0  0  0
    1.4600   -3.5449    0.9945 H   0  0  0  0  0  0  0  0  0  0  0  0
    1.8626   -3.7600   -0.7265 H   0  0  0  0  0  0  0  0  0  0  0  0
    2.5040   -2.3666    0.1769 H   0  0  0  0  0  0  0  0  0  0  0  0
  5  6  2  0  0  0  0
  5  7  1  0  0  0  0
  2  3  1  0  0  0  0
  2  4  1  0  0  0  0
  2  5  1  0  0  0  0
  1  2  1  0  0  0  0
 29 30  2  0  0  0  0
 29 31  1  0  0  0  0
 26 27  1  0  0  0  0
 26 28  2  0  0  0  0
 24 25  1  0  0  0  0
 24 26  1  0  0  0  0
 22 23  1  0  0  0  0
 22 24  2  0  0  0  0
 20 21  1  0  0  0  0
 20 22  1  0  0  0  0
 19 20  2  0  0  0  0
 19 28  1  0  0  0  0
 17 18  1  0  0  0  0
 17 19  1  0  0  0  0
 15 16  1  0  0  0  0
 15 17  1  0  0  0  0
 14 15  2  0  0  0  0
 14 28  1  0  0  0  0
 11 12  1  0  0  0  0
 11 13  1  0  0  0  0
 11 14  1  0  0  0  0
  9 10  1  0  0  0  0
  9 11  1  0  0  0  0
  9 29  1  0  0  0  0
  7  8  1  0  0  0  0
  7  9  1  0  0  0  0
 33 34  1  0  0  0  0
 33 35  1  0  0  0  0
 33 36  1  0  0  0  0
 31 32  1  0  0  0  0
 31 33  1  0  0  0  0
M  END
$$$$
default_name
  -OEChem-12212115393D

 36 37  0     1  0  0  0  0  0999 V2000
   -4.0843   -4.0736    1.2944 H   0  0  0  0  0  0  0  0  0  0  0  0
   -4.0342   -3.2816    0.5484 C   0  0  0  0  0  0  0  0  0  0  0  0
   -4.8842   -2.6126    0.6694 H   0  0  0  0  0  0  0  0  0  0  0  0
   -4.0433   -3.7186   -0.4486 H   0  0  0  0  0  0  0  0  0  0  0  0
   -2.7532   -2.5046    0.7444 C   0  0  0  0  0  0  0  0  0  0  0  0
   -1.9803   -2.8096    1.6434 O   0  0  0  0  0  0  0  0  0  0  0  0
   -2.5332   -1.4966   -0.0966 N   0  0  0  0  0  0  0  0  0  0  0  0
   -3.2312   -1.2816   -0.7936 H   0  0  0  0  0  0  0  0  0  0  0  0
   -1.3593   -0.6196   -0.0536 C   0  0  1  0  0  0  0  0  0  0  0  0
   -1.1219   -0.3036   -1.0701 H   0  0  0  0  0  0  0  0  0  0  0  0
   -1.6857    0.6334    0.7742 C   0  0  0  0  0  0  0  0  0  0  0  0
   -0.8133    1.2891    0.7785 H   0  0  0  0  0  0  0  0  0  0  0  0
   -2.5001    1.1704    0.2848 H   0  0  0  0  0  0  0  0  0  0  0  0
   -2.0764    0.3725    2.1973 C   0  0  0  0  0  0  0  0  0  0  0  0
   -1.2235    0.2724    3.2414 C   0  0  0  0  0  0  0  0  0  0  0  0
   -0.1445    0.3513    3.1667 H   0  0  0  0  0  0  0  0  0  0  0  0
   -1.9377    0.0765    4.4072 N   0  0  0  0  0  0  0  0  0  0  0  0
   -1.5062   -0.0304    5.3135 H   0  0  0  0  0  0  0  0  0  0  0  0
   -3.2962    0.0572    4.1729 C   0  0  0  0  0  0  0  0  0  0  0  0
   -4.4114   -0.0796    5.0120 C   0  0  0  0  0  0  0  0  0  0  0  0
   -4.2828   -0.2063    6.0770 H   0  0  0  0  0  0  0  0  0  0  0  0
   -5.6981   -0.0515    4.4477 C   0  0  0  0  0  0  0  0  0  0  0  0
   -6.5699   -0.1565    5.0793 H   0  0  0  0  0  0  0  0  0  0  0  0
   -5.8507    0.1070    3.0581 C   0  0  0  0  0  0  0  0  0  0  0  0
   -6.8423    0.1198    2.6272 H   0  0  0  0  0  0  0  0  0  0  0  0
   -4.7227    0.2416    2.2240 C   0  0  0  0  0  0  0  0  0  0  0  0
   -4.8537    0.3494    1.1567 H   0  0  0  0  0  0  0  0  0  0  0  0
   -3.4171    0.2236    2.7608 C   0  0  0  0  0  0  0  0  0  0  0  0
   -0.1319   -1.3615    0.4980 C   0  0  0  0  0  0  0  0  0  0  0  0
    0.1027   -1.3582    1.7057 O   0  0  0  0  0  0  0  0  0  0  0  0
    0.6505   -1.9949   -0.3862 N   0  0  0  0  0  0  0  0  0  0  0  0
    0.4190   -1.9038   -1.3652 H   0  0  0  0  0  0  0  0  0  0  0  0
    1.8506   -2.7469   -0.0306 C   0  0  0  0  0  0  0  0  0  0  0  0
    1.6147   -3.4665    0.7557 H   0  0  0  0  0  0  0  0  0  0  0  0
    2.2334   -3.2779   -0.9031 H   0  0  0  0  0  0  0  0  0  0  0  0
    2.6151   -2.0619    0.3397 H   0  0  0  0  0  0  0  0  0  0  0  0
  5  6  2  0  0  0  0
  5  7  1  0  0  0  0
  2  3  1  0  0  0  0
  2  4  1  0  0  0  0
  2  5  1  0  0  0  0
  1  2  1  0  0  0  0
 29 30  2  0  0  0  0
 29 31  1  0  0  0  0
 26 27  1  0  0  0  0
 26 28  2  0  0  0  0
 24 25  1  0  0  0  0
 24 26  1  0  0  0  0
 22 23  1  0  0  0  0
 22 24  2  0  0  0  0
 20 21  1  0  0  0  0
 20 22  1  0  0  0  0
 19 20  2  0  0  0  0
 19 28  1  0  0  0  0
 17 18  1  0  0  0  0
 17 19  1  0  0  0  0
 15 16  1  0  0  0  0
 15 17  1  0  0  0  0
 14 15  2  0  0  0  0
 14 28  1  0  0  0  0
 11 12  1  0  0  0  0
 11 13  1  0  0  0  0
 11 14  1  0  0  0  0
  9 10  1  0  0  0  0
  9 11  1  0  0  0  0
  9 29  1  0  0  0  0
  7  8  1  0  0  0  0
  7  9  1  0  0  0  0
 33 34  1  0  0  0  0
 33 35  1  0  0  0  0
 33 36  1  0  0  0  0
 31 32  1  0  0  0  0
 31 33  1  0  0  0  0
M  END
$$$$
default_name
  -OEChem-12212115393D

 36 37  0     1  0  0  0  0  0999 V2000
   -4.0843   -4.0736    1.2944 H   0  0  0  0  0  0  0  0  0  0  0  0
   -4.0342   -3.2816    0.5484 C   0  0  0  0  0  0  0  0  0  0  0  0
   -4.8842   -2.6126    0.6694 H   0  0  0  0  0  0  0  0  0  0  0  0
   -4.0433   -3.7186   -0.4486 H   0  0  0  0  0  0  0  0  0  0  0  0
   -2.7532   -2.5046    0.7444 C   0  0  0  0  0  0  0  0  0  0  0  0
   -1.9803   -2.8096    1.6434 O   0  0  0  0  0  0  0  0  0  0  0  0
   -2.5332   -1.4966   -0.0966 N   0  0  0  0  0  0  0  0  0  0  0  0
   -3.2312   -1.2816   -0.7936 H   0  0  0  0  0  0  0  0  0  0  0  0
   -1.3593   -0.6196   -0.0536 C   0  0  1  0  0  0  0  0  0  0  0  0
   -1.1219   -0.3036   -1.0701 H   0  0  0  0  0  0  0  0  0  0  0  0
   -1.6857    0.6334    0.7742 C   0  0  0  0  0  0  0  0  0  0  0  0
   -0.8133    1.2891    0.7785 H   0  0  0  0  0  0  0  0  0  0  0  0
   -2.5001    1.1704    0.2848 H   0  0  0  0  0  0  0  0  0  0  0  0
   -2.0764    0.3725    2.1973 C   0  0  0  0  0  0  0  0  0  0  0  0
   -1.2235    0.2724    3.2414 C   0  0  0  0  0  0  0  0  0  0  0  0
   -0.1445    0.3513    3.1667 H   0  0  0  0  0  0  0  0  0  0  0  0
   -1.9377    0.0765    4.4072 N   0  0  0  0  0  0  0  0  0  0  0  0
   -1.5062   -0.0304    5.3135 H   0  0  0  0  0  0  0  0  0  0  0  0
   -3.2962    0.0572    4.1729 C   0  0  0  0  0  0  0  0  0  0  0  0
   -4.4114   -0.0796    5.0120 C   0  0  0  0  0  0  0  0  0  0  0  0
   -4.2828   -0.2063    6.0770 H   0  0  0  0  0  0  0  0  0  0  0  0
   -5.6981   -0.0515    4.4477 C   0  0  0  0  0  0  0  0  0  0  0  0
   -6.5699   -0.1565    5.0793 H   0  0  0  0  0  0  0  0  0  0  0  0
   -5.8507    0.1070    3.0581 C   0  0  0  0  0  0  0  0  0  0  0  0
   -6.8423    0.1198    2.6272 H   0  0  0  0  0  0  0  0  0  0  0  0
   -4.7227    0.2416    2.2240 C   0  0  0  0  0  0  0  0  0  0  0  0
   -4.8537    0.3494    1.1567 H   0  0  0  0  0  0  0  0  0  0  0  0
   -3.4171    0.2236    2.7608 C   0  0  0  0  0  0  0  0  0  0  0  0
   -0.1319   -1.3615    0.4980 C   0  0  0  0  0  0  0  0  0  0  0  0
   -0.0396   -1.5964    1.7021 O   0  0  0  0  0  0  0  0  0  0  0  0
    0.8098   -1.7280   -0.3818 N   0  0  0  0  0  0  0  0  0  0  0  0
    0.6843   -1.4495   -1.3446 H   0  0  0  0  0  0  0  0  0  0  0  0
    2.0340   -2.4402   -0.0261 C   0  0  0  0  0  0  0  0  0  0  0  0
    1.7867   -3.3270    0.5606 H   0  0  0  0  0  0  0  0  0  0  0  0
    2.5689   -2.7412   -0.9277 H   0  0  0  0  0  0  0  0  0  0  0  0
    2.6737   -1.7908    0.5739 H   0  0  0  0  0  0  0  0  0  0  0  0
  5  6  2  0  0  0  0
  5  7  1  0  0  0  0
  2  3  1  0  0  0  0
  2  4  1  0  0  0  0
  2  5  1  0  0  0  0
  1  2  1  0  0  0  0
 29 30  2  0  0  0  0
 29 31  1  0  0  0  0
 26 27  1  0  0  0  0
 26 28  2  0  0  0  0
 24 25  1  0  0  0  0
 24 26  1  0  0  0  0
 22 23  1  0  0  0  0
 22 24  2  0  0  0  0
 20 21  1  0  0  0  0
 20 22  1  0  0  0  0
 19 20  2  0  0  0  0
 19 28  1  0  0  0  0
 17 18  1  0  0  0  0
 17 19  1  0  0  0  0
 15 16  1  0  0  0  0
 15 17  1  0  0  0  0
 14 15  2  0  0  0  0
 14 28  1  0  0  0  0
 11 12  1  0  0  0  0
 11 13  1  0  0  0  0
 11 14  1  0  0  0  0
  9 10  1  0  0  0  0
  9 11  1  0  0  0  0
  9 29  1  0  0  0  0
  7  8  1  0  0  0  0
  7  9  1  0  0  0  0
 33 34  1  0  0  0  0
 33 35  1  0  0  0  0
 33 36  1  0  0  0  0
 31 32  1  0  0  0  0
 31 33  1  0  0  0  0
M  END
$$$$
default_name
  -OEChem-12212115393D

 36 37  0     1  0  0  0  0  0999 V2000
   -4.0843   -4.0736    1.2944 H   0  0  0  0  0  0  0  0  0  0  0  0
   -4.0342   -3.2816    0.5484 C   0  0  0  0  0  0  0  0  0  0  0  0
   -4.8842   -2.6126    0.6694 H   0  0  0  0  0  0  0  0  0  0  0  0
   -4.0433   -3.7186   -0.4486 H   0  0  0  0  0  0  0  0  0  0  0  0
   -2.7532   -2.5046    0.7444 C   0  0  0  0  0  0  0  0  0  0  0  0
   -1.9803   -2.8096    1.6434 O   0  0  0  0  0  0  0  0  0  0  0  0
   -2.5332   -1.4966   -0.0966 N   0  0  0  0  0  0  0  0  0  0  0  0
   -3.2312   -1.2816   -0.7936 H   0  0  0  0  0  0  0  0  0  0  0  0
   -1.3593   -0.6196   -0.0536 C   0  0  1  0  0  0  0  0  0  0  0  0
   -1.1219   -0.3036   -1.0701 H   0  0  0  0  0  0  0  0  0  0  0  0
   -1.6857    0.6334    0.7742 C   0  0  0  0  0  0  0  0  0  0  0  0
   -0.8133    1.2891    0.7785 H   0  0  0  0  0  0  0  0  0  0  0  0
   -2.5001    1.1704    0.2848 H   0  0  0  0  0  0  0  0  0  0  0  0
   -2.0764    0.3725    2.1973 C   0  0  0  0  0  0  0  0  0  0  0  0
   -1.2235    0.2724    3.2414 C   0  0  0  0  0  0  0  0  0  0  0  0
   -0.1445    0.3513    3.1667 H   0  0  0  0  0  0  0  0  0  0  0  0
   -1.9377    0.0765    4.4072 N   0  0  0  0  0  0  0  0  0  0  0  0
   -1.5062   -0.0304    5.3135 H   0  0  0  0  0  0  0  0  0  0  0  0
   -3.2962    0.0572    4.1729 C   0  0  0  0  0  0  0  0  0  0  0  0
   -4.4114   -0.0796    5.0120 C   0  0  0  0  0  0  0  0  0  0  0  0
   -4.2828   -0.2063    6.0770 H   0  0  0  0  0  0  0  0  0  0  0  0
   -5.6981   -0.0515    4.4477 C   0  0  0  0  0  0  0  0  0  0  0  0
   -6.5699   -0.1565    5.0793 H   0  0  0  0  0  0  0  0  0  0  0  0
   -5.8507    0.1070    3.0581 C   0  0  0  0  0  0  0  0  0  0  0  0
   -6.8423    0.1198    2.6272 H   0  0  0  0  0  0  0  0  0  0  0  0
   -4.7227    0.2416    2.2240 C   0  0  0  0  0  0  0  0  0  0  0  0
   -4.8537    0.3494    1.1567 H   0  0  0  0  0  0  0  0  0  0  0  0
   -3.4171    0.2236    2.7608 C   0  0  0  0  0  0  0  0  0  0  0  0
   -0.1319   -1.3615    0.4980 C   0  0  0  0  0  0  0  0  0  0  0  0
   -0.1546   -1.8389    1.6316 O   0  0  0  0  0  0  0  0  0  0  0  0
    0.9384   -1.4562   -0.3024 N   0  0  0  0  0  0  0  0  0  0  0  0
    0.8958   -0.9903   -1.1976 H   0  0  0  0  0  0  0  0  0  0  0  0
    2.1820   -2.1278    0.0647 C   0  0  0  0  0  0  0  0  0  0  0  0
    1.9643   -3.1359    0.4225 H   0  0  0  0  0  0  0  0  0  0  0  0
    2.8461   -2.1866   -0.7986 H   0  0  0  0  0  0  0  0  0  0  0  0
    2.6759   -1.5719    0.8634 H   0  0  0  0  0  0  0  0  0  0  0  0
  5  6  2  0  0  0  0
  5  7  1  0  0  0  0
  2  3  1  0  0  0  0
  2  4  1  0  0  0  0
  2  5  1  0  0  0  0
  1  2  1  0  0  0  0
 29 30  2  0  0  0  0
 29 31  1  0  0  0  0
 26 27  1  0  0  0  0
 26 28  2  0  0  0  0
 24 25  1  0  0  0  0
 24 26  1  0  0  0  0
 22 23  1  0  0  0  0
 22 24  2  0  0  0  0
 20 21  1  0  0  0  0
 20 22  1  0  0  0  0
 19 20  2  0  0  0  0
 19 28  1  0  0  0  0
 17 18  1  0  0  0  0
 17 19  1  0  0  0  0
 15 16  1  0  0  0  0
 15 17  1  0  0  0  0
 14 15  2  0  0  0  0
 14 28  1  0  0  0  0
 11 12  1  0  0  0  0
 11 13  1  0  0  0  0
 11 14  1  0  0  0  0
  9 10  1  0  0  0  0
  9 11  1  0  0  0  0
  9 29  1  0  0  0  0
  7  8  1  0  0  0  0
  7  9  1  0  0  0  0
 33 34  1  0  0  0  0
 33 35  1  0  0  0  0
 33 36  1  0  0  0  0
 31 32  1  0  0  0  0
 31 33  1  0  0  0  0
M  END
$$$$
default_name
  -OEChem-12212115393D

 36 37  0     1  0  0  0  0  0999 V2000
   -4.0843   -4.0736    1.2944 H   0  0  0  0  0  0  0  0  0  0  0  0
   -4.0342   -3.2816    0.5484 C   0  0  0  0  0  0  0  0  0  0  0  0
   -4.8842   -2.6126    0.6694 H   0  0  0  0  0  0  0  0  0  0  0  0
   -4.0433   -3.7186   -0.4486 H   0  0  0  0  0  0  0  0  0  0  0  0
   -2.7532   -2.5046    0.7444 C   0  0  0  0  0  0  0  0  0  0  0  0
   -1.9803   -2.8096    1.6434 O   0  0  0  0  0  0  0  0  0  0  0  0
   -2.5332   -1.4966   -0.0966 N   0  0  0  0  0  0  0  0  0  0  0  0
   -3.2312   -1.2816   -0.7936 H   0  0  0  0  0  0  0  0  0  0  0  0
   -1.3593   -0.6196   -0.0536 C   0  0  1  0  0  0  0  0  0  0  0  0
   -1.1219   -0.3036   -1.0701 H   0  0  0  0  0  0  0  0  0  0  0  0
   -1.6857    0.6334    0.7742 C   0  0  0  0  0  0  0  0  0  0  0  0
   -0.8133    1.2891    0.7785 H   0  0  0  0  0  0  0  0  0  0  0  0
   -2.5001    1.1704    0.2848 H   0  0  0  0  0  0  0  0  0  0  0  0
   -2.0764    0.3725    2.1973 C   0  0  0  0  0  0  0  0  0  0  0  0
   -1.2235    0.2724    3.2414 C   0  0  0  0  0  0  0  0  0  0  0  0
   -0.1445    0.3513    3.1667 H   0  0  0  0  0  0  0  0  0  0  0  0
   -1.9377    0.0765    4.4072 N   0  0  0  0  0  0  0  0  0  0  0  0
   -1.5062   -0.0304    5.3135 H   0  0  0  0  0  0  0  0  0  0  0  0
   -3.2962    0.0572    4.1729 C   0  0  0  0  0  0  0  0  0  0  0  0
   -4.4114   -0.0796    5.0120 C   0  0  0  0  0  0  0  0  0  0  0  0
   -4.2828   -0.2063    6.0770 H   0  0  0  0  0  0  0  0  0  0  0  0
   -5.6981   -0.0515    4.4477 C   0  0  0  0  0  0  0  0  0  0  0  0
   -6.5699   -0.1565    5.0793 H   0  0  0  0  0  0  0  0  0  0  0  0
   -5.8507    0.1070    3.0581 C   0  0  0  0  0  0  0  0  0  0  0  0
   -6.8423    0.1198    2.6272 H   0  0  0  0  0  0  0  0  0  0  0  0
   -4.7227    0.2416    2.2240 C   0  0  0  0  0  0  0  0  0  0  0  0
   -4.8537    0.3494    1.1567 H   0  0  0  0  0  0  0  0  0  0  0  0
   -3.4171    0.2236    2.7608 C   0  0  0  0  0  0  0  0  0  0  0  0
   -0.1319   -1.3615    0.4980 C   0  0  0  0  0  0  0  0  0  0  0  0
   -0.2343   -2.0693    1.4990 O   0  0  0  0  0  0  0  0  0  0  0  0
    1.0275   -1.1982   -0.1535 N   0  0  0  0  0  0  0  0  0  0  0  0
    1.0391   -0.5575   -0.9343 H   0  0  0  0  0  0  0  0  0  0  0  0
    2.2847   -1.8311    0.2354 C   0  0  0  0  0  0  0  0  0  0  0  0
    2.1353   -2.9063    0.3508 H   0  0  0  0  0  0  0  0  0  0  0  0
    3.0462   -1.6518   -0.5246 H   0  0  0  0  0  0  0  0  0  0  0  0
    2.6215   -1.4202    1.1886 H   0  0  0  0  0  0  0  0  0  0  0  0
  5  6  2  0  0  0  0
  5  7  1  0  0  0  0
  2  3  1  0  0  0  0
  2  4  1  0  0  0  0
  2  5  1  0  0  0  0
  1  2  1  0  0  0  0
 29 30  2  0  0  0  0
 29 31  1  0  0  0  0
 26 27  1  0  0  0  0
 26 28  2  0  0  0  0
 24 25  1  0  0  0  0
 24 26  1  0  0  0  0
 22 23  1  0  0  0  0
 22 24  2  0  0  0  0
 20 21  1  0  0  0  0
 20 22  1  0  0  0  0
 19 20  2  0  0  0  0
 19 28  1  0  0  0  0
 17 18  1  0  0  0  0
 17 19  1  0  0  0  0
 15 16  1  0  0  0  0
 15 17  1  0  0  0  0
 14 15  2  0  0  0  0
 14 28  1  0  0  0  0
 11 12  1  0  0  0  0
 11 13  1  0  0  0  0
 11 14  1  0  0  0  0
  9 10  1  0  0  0  0
  9 11  1  0  0  0  0
  9 29  1  0  0  0  0
  7  8  1  0  0  0  0
  7  9  1  0  0  0  0
 33 34  1  0  0  0  0
 33 35  1  0  0  0  0
 33 36  1  0  0  0  0
 31 32  1  0  0  0  0
 31 33  1  0  0  0  0
M  END
$$$$
default_name
  -OEChem-12212115393D

 36 37  0     1  0  0  0  0  0999 V2000
   -4.0843   -4.0736    1.2944 H   0  0  0  0  0  0  0  0  0  0  0  0
   -4.0342   -3.2816    0.5484 C   0  0  0  0  0  0  0  0  0  0  0  0
   -4.8842   -2.6126    0.6694 H   0  0  0  0  0  0  0  0  0  0  0  0
   -4.0433   -3.7186   -0.4486 H   0  0  0  0  0  0  0  0  0  0  0  0
   -2.7532   -2.5046    0.7444 C   0  0  0  0  0  0  0  0  0  0  0  0
   -1.9803   -2.8096    1.6434 O   0  0  0  0  0  0  0  0  0  0  0  0
   -2.5332   -1.4966   -0.0966 N   0  0  0  0  0  0  0  0  0  0  0  0
   -3.2312   -1.2816   -0.7936 H   0  0  0  0  0  0  0  0  0  0  0  0
   -1.3593   -0.6196   -0.0536 C   0  0  1  0  0  0  0  0  0  0  0  0
   -1.1219   -0.3036   -1.0701 H   0  0  0  0  0  0  0  0  0  0  0  0
   -1.6857    0.6334    0.7742 C   0  0  0  0  0  0  0  0  0  0  0  0
   -0.8133    1.2891    0.7785 H   0  0  0  0  0  0  0  0  0  0  0  0
   -2.5001    1.1704    0.2848 H   0  0  0  0  0  0  0  0  0  0  0  0
   -2.0764    0.3725    2.1973 C   0  0  0  0  0  0  0  0  0  0  0  0
   -1.2235    0.2724    3.2414 C   0  0  0  0  0  0  0  0  0  0  0  0
   -0.1445    0.3513    3.1667 H   0  0  0  0  0  0  0  0  0  0  0  0
   -1.9377    0.0765    4.4072 N   0  0  0  0  0  0  0  0  0  0  0  0
   -1.5062   -0.0304    5.3135 H   0  0  0  0  0  0  0  0  0  0  0  0
   -3.2962    0.0572    4.1729 C   0  0  0  0  0  0  0  0  0  0  0  0
   -4.4114   -0.0796    5.0120 C   0  0  0  0  0  0  0  0  0  0  0  0
   -4.2828   -0.2063    6.0770 H   0  0  0  0  0  0  0  0  0  0  0  0
   -5.6981   -0.0515    4.4477 C   0  0  0  0  0  0  0  0  0  0  0  0
   -6.5699   -0.1565    5.0793 H   0  0  0  0  0  0  0  0  0  0  0  0
   -5.8507    0.1070    3.0581 C   0  0  0  0  0  0  0  0  0  0  0  0
   -6.8423    0.1198    2.6272 H   0  0  0  0  0  0  0  0  0  0  0  0
   -4.7227    0.2416    2.2240 C   0  0  0  0  0  0  0  0  0  0  0  0
   -4.8537    0.3494    1.1567 H   0  0  0  0  0  0  0  0  0  0  0  0
   -3.4171    0.2236    2.7608 C   0  0  0  0  0  0  0  0  0  0  0  0
   -0.1319   -1.3615    0.4980 C   0  0  0  0  0  0  0  0  0  0  0  0
   -0.2732   -2.2719    1.3134 O   0  0  0  0  0  0  0  0  0  0  0  0
    1.0709   -0.9714    0.0549 N   0  0  0  0  0  0  0  0  0  0  0  0
    1.1044   -0.1805   -0.5725 H   0  0  0  0  0  0  0  0  0  0  0  0
    2.3349   -1.5702    0.4745 C   0  0  0  0  0  0  0  0  0  0  0  0
    2.2881   -2.6538    0.3504 H   0  0  0  0  0  0  0  0  0  0  0  0
    3.1556   -1.1732   -0.1244 H   0  0  0  0  0  0  0  0  0  0  0  0
    2.5142   -1.3459    1.5273 H   0  0  0  0  0  0  0  0  0  0  0  0
  5  6  2  0  0  0  0
  5  7  1  0  0  0  0
  2  3  1  0  0  0  0
  2  4  1  0  0  0  0
  2  5  1  0  0  0  0
  1  2  1  0  0  0  0
 29 30  2  0  0  0  0
 29 31  1  0  0  0  0
 26 27  1  0  0  0  0
 26 28  2  0  0  0  0
 24 25  1  0  0  0  0
 24 26  1  0  0  0  0
 22 23  1  0  0  0  0
 22 24  2  0  0  0  0
 20 21  1  0  0  0  0
 20 22  1  0  0  0  0
 19 20  2  0  0  0  0
 19 28  1  0  0  0  0
 17 18  1  0  0  0  0
 17 19  1  0  0  0  0
 15 16  1  0  0  0  0
 15 17  1  0  0  0  0
 14 15  2  0  0  0  0
 14 28  1  0  0  0  0
 11 12  1  0  0  0  0
 11 13  1  0  0  0  0
 11 14  1  0  0  0  0
  9 10  1  0  0  0  0
  9 11  1  0  0  0  0
  9 29  1  0  0  0  0
  7  8  1  0  0  0  0
  7  9  1  0  0  0  0
 33 34  1  0  0  0  0
 33 35  1  0  0  0  0
 33 36  1  0  0  0  0
 31 32  1  0  0  0  0
 31 33  1  0  0  0  0
M  END
$$$$
default_name
  -OEChem-12212115393D

 36 37  0     1  0  0  0  0  0999 V2000
   -4.0843   -4.0736    1.2944 H   0  0  0  0  0  0  0  0  0  0  0  0
   -4.0342   -3.2816    0.5484 C   0  0  0  0  0  0  0  0  0  0  0  0
   -4.8842   -2.6126    0.6694 H   0  0  0  0  0  0  0  0  0  0  0  0
   -4.0433   -3.7186   -0.4486 H   0  0  0  0  0  0  0  0  0  0  0  0
   -2.7532   -2.5046    0.7444 C   0  0  0  0  0  0  0  0  0  0  0  0
   -1.9803   -2.8096    1.6434 O   0  0  0  0  0  0  0  0  0  0  0  0
   -2.5332   -1.4966   -0.0966 N   0  0  0  0  0  0  0  0  0  0  0  0
   -3.2312   -1.2816   -0.7936 H   0  0  0  0  0  0  0  0  0  0  0  0
   -1.3593   -0.6196   -0.0536 C   0  0  1  0  0  0  0  0  0  0  0  0
   -1.1219   -0.3036   -1.0701 H   0  0  0  0  0  0  0  0  0  0  0  0
   -1.6857    0.6334    0.7742 C   0  0  0  0  0  0  0  0  0  0  0  0
   -0.8133    1.2891    0.7785 H   0  0  0  0  0  0  0  0  0  0  0  0
   -2.5001    1.1704    0.2848 H   0  0  0  0  0  0  0  0  0  0  0  0
   -2.0764    0.3725    2.1973 C   0  0  0  0  0  0  0  0  0  0  0  0
   -1.2235    0.2724    3.2414 C   0  0  0  0  0  0  0  0  0  0  0  0
   -0.1445    0.3513    3.1667 H   0  0  0  0  0  0  0  0  0  0  0  0
   -1.9377    0.0765    4.4072 N   0  0  0  0  0  0  0  0  0  0  0  0
   -1.5062   -0.0304    5.3135 H   0  0  0  0  0  0  0  0  0  0  0  0
   -3.2962    0.0572    4.1729 C   0  0  0  0  0  0  0  0  0  0  0  0
   -4.4114   -0.0796    5.0120 C   0  0  0  0  0  0  0  0  0  0  0  0
   -4.2828   -0.2063    6.0770 H   0  0  0  0  0  0  0  0  0  0  0  0
   -5.6981   -0.0515    4.4477 C   0  0  0  0  0  0  0  0  0  0  0  0
   -6.5699   -0.1565    5.0793 H   0  0  0  0  0  0  0  0  0  0  0  0
   -5.8507    0.1070    3.0581 C   0  0  0  0  0  0  0  0  0  0  0  0
   -6.8423    0.1198    2.6272 H   0  0  0  0  0  0  0  0  0  0  0  0
   -4.7227    0.2416    2.2240 C   0  0  0  0  0  0  0  0  0  0  0  0
   -4.8537    0.3494    1.1567 H   0  0  0  0  0  0  0  0  0  0  0  0
   -3.4171    0.2236    2.7608 C   0  0  0  0  0  0  0  0  0  0  0  0
   -0.1319   -1.3615    0.4980 C   0  0  0  0  0  0  0  0  0  0  0  0
   -0.2689   -2.4327    1.0873 O   0  0  0  0  0  0  0  0  0  0  0  0
    1.0657   -0.7915    0.3084 N   0  0  0  0  0  0  0  0  0  0  0  0
    1.0872    0.1148   -0.1370 H   0  0  0  0  0  0  0  0  0  0  0  0
    2.3293   -1.3630    0.7656 C   0  0  0  0  0  0  0  0  0  0  0  0
    2.4123   -2.3956    0.4213 H   0  0  0  0  0  0  0  0  0  0  0  0
    3.1668   -0.7836    0.3748 H   0  0  0  0  0  0  0  0  0  0  0  0
    2.3613   -1.3541    1.8564 H   0  0  0  0  0  0  0  0  0  0  0  0
  5  6  2  0  0  0  0
  5  7  1  0  0  0  0
  2  3  1  0  0  0  0
  2  4  1  0  0  0  0
  2  5  1  0  0  0  0
  1  2  1  0  0  0  0
 29 30  2  0  0  0  0
 29 31  1  0  0  0  0
 26 27  1  0  0  0  0
 26 28  2  0  0  0  0
 24 25  1  0  0  0  0
 24 26  1  0  0  0  0
 22 23  1  0  0  0  0
 22 24  2  0  0  0  0
 20 21  1  0  0  0  0
 20 22  1  0  0  0  0
 19 20  2  0  0  0  0
 19 28  1  0  0  0  0
 17 18  1  0  0  0  0
 17 19  1  0  0  0  0
 15 16  1  0  0  0  0
 15 17  1  0  0  0  0
 14 15  2  0  0  0  0
 14 28  1  0  0  0  0
 11 12  1  0  0  0  0
 11 13  1  0  0  0  0
 11 14  1  0  0  0  0
  9 10  1  0  0  0  0
  9 11  1  0  0  0  0
  9 29  1  0  0  0  0
  7  8  1  0  0  0  0
  7  9  1  0  0  0  0
 33 34  1  0  0  0  0
 33 35  1  0  0  0  0
 33 36  1  0  0  0  0
 31 32  1  0  0  0  0
 31 33  1  0  0  0  0
M  END
$$$$
default_name
  -OEChem-12212115393D

 36 37  0     1  0  0  0  0  0999 V2000
   -4.0843   -4.0736    1.2944 H   0  0  0  0  0  0  0  0  0  0  0  0
   -4.0342   -3.2816    0.5484 C   0  0  0  0  0  0  0  0  0  0  0  0
   -4.8842   -2.6126    0.6694 H   0  0  0  0  0  0  0  0  0  0  0  0
   -4.0433   -3.7186   -0.4486 H   0  0  0  0  0  0  0  0  0  0  0  0
   -2.7532   -2.5046    0.7444 C   0  0  0  0  0  0  0  0  0  0  0  0
   -1.9803   -2.8096    1.6434 O   0  0  0  0  0  0  0  0  0  0  0  0
   -2.5332   -1.4966   -0.0966 N   0  0  0  0  0  0  0  0  0  0  0  0
   -3.2312   -1.2816   -0.7936 H   0  0  0  0  0  0  0  0  0  0  0  0
   -1.3593   -0.6196   -0.0536 C   0  0  1  0  0  0  0  0  0  0  0  0
   -1.2803   -0.0947   -1.0064 H   0  0  0  0  0  0  0  0  0  0  0  0
   -1.5420    0.4271    1.0567 C   0  0  0  0  0  0  0  0  0  0  0  0
   -0.6738    1.0885    1.0628 H   0  0  0  0  0  0  0  0  0  0  0  0
   -2.4178    1.0340    0.8211 H   0  0  0  0  0  0  0  0  0  0  0  0
   -1.7087   -0.1315    2.4374 C   0  0  0  0  0  0  0  0  0  0  0  0
   -0.7046   -0.4249    3.2937 C   0  0  0  0  0  0  0  0  0  0  0  0
    0.3503   -0.3064    3.0717 H   0  0  0  0  0  0  0  0  0  0  0  0
   -1.2304   -0.8745    4.4891 N   0  0  0  0  0  0  0  0  0  0  0  0
   -0.6640   -1.1560    5.2759 H   0  0  0  0  0  0  0  0  0  0  0  0
   -2.6089   -0.8774    4.4680 C   0  0  0  0  0  0  0  0  0  0  0  0
   -3.5810   -1.2113    5.4219 C   0  0  0  0  0  0  0  0  0  0  0  0
   -3.2894   -1.5522    6.4045 H   0  0  0  0  0  0  0  0  0  0  0  0
   -4.9396   -1.0979    5.0809 C   0  0  0  0  0  0  0  0  0  0  0  0
   -5.7034   -1.3520    5.8034 H   0  0  0  0  0  0  0  0  0  0  0  0
   -5.3052   -0.6594    3.7951 C   0  0  0  0  0  0  0  0  0  0  0  0
   -6.3516   -0.5815    3.5341 H   0  0  0  0  0  0  0  0  0  0  0  0
   -4.3196   -0.3283    2.8436 C   0  0  0  0  0  0  0  0  0  0  0  0
   -4.6141   -0.0055    1.8551 H   0  0  0  0  0  0  0  0  0  0  0  0
   -2.9466   -0.4257    3.1572 C   0  0  0  0  0  0  0  0  0  0  0  0
   -0.0675   -1.4299    0.1359 C   0  0  0  0  0  0  0  0  0  0  0  0
   -0.1137   -2.6556    0.2313 O   0  0  0  0  0  0  0  0  0  0  0  0
    1.0830   -0.7457    0.1921 N   0  0  0  0  0  0  0  0  0  0  0  0
    1.0298    0.2625    0.1604 H   0  0  0  0  0  0  0  0  0  0  0  0
    2.3965   -1.3597    0.3658 C   0  0  0  0  0  0  0  0  0  0  0  0
    2.5341   -2.1501   -0.3745 H   0  0  0  0  0  0  0  0  0  0  0  0
    3.1802   -0.6108    0.2445 H   0  0  0  0  0  0  0  0  0  0  0  0
    2.4664   -1.7979    1.3628 H   0  0  0  0  0  0  0  0  0  0  0  0
  5  6  2  0  0  0  0
  5  7  1  0  0  0  0
  2  3  1  0  0  0  0
  2  4  1  0  0  0  0
  2  5  1  0  0  0  0
  1  2  1  0  0  0  0
 29 30  2  0  0  0  0
 29 31  1  0  0  0  0
 26 27  1  0  0  0  0
 26 28  2  0  0  0  0
 24 25  1  0  0  0  0
 24 26  1  0  0  0  0
 22 23  1  0  0  0  0
 22 24  2  0  0  0  0
 20 21  1  0  0  0  0
 20 22  1  0  0  0  0
 19 20  2  0  0  0  0
 19 28  1  0  0  0  0
 17 18  1  0  0  0  0
 17 19  1  0  0  0  0
 15 16  1  0  0  0  0
 15 17  1  0  0  0  0
 14 15  2  0  0  0  0
 14 28  1  0  0  0  0
 11 12  1  0  0  0  0
 11 13  1  0  0  0  0
 11 14  1  0  0  0  0
  9 10  1  0  0  0  0
  9 11  1  0  0  0  0
  9 29  1  0  0  0  0
  7  8  1  0  0  0  0
  7  9  1  0  0  0  0
 33 34  1  0  0  0  0
 33 35  1  0  0  0  0
 33 36  1  0  0  0  0
 31 32  1  0  0  0  0
 31 33  1  0  0  0  0
M  END
$$$$
default_name
  -OEChem-12212115393D

 36 37  0     1  0  0  0  0  0999 V2000
   -4.0843   -4.0736    1.2944 H   0  0  0  0  0  0  0  0  0  0  0  0
   -4.0342   -3.2816    0.5484 C   0  0  0  0  0  0  0  0  0  0  0  0
   -4.8842   -2.6126    0.6694 H   0  0  0  0  0  0  0  0  0  0  0  0
   -4.0433   -3.7186   -0.4486 H   0  0  0  0  0  0  0  0  0  0  0  0
   -2.7532   -2.5046    0.7444 C   0  0  0  0  0  0  0  0  0  0  0  0
   -1.9803   -2.8096    1.6434 O   0  0  0  0  0  0  0  0  0  0  0  0
   -2.5332   -1.4966   -0.0966 N   0  0  0  0  0  0  0  0  0  0  0  0
   -3.2312   -1.2816   -0.7936 H   0  0  0  0  0  0  0  0  0  0  0  0
   -1.3593   -0.6196   -0.0536 C   0  0  1  0  0  0  0  0  0  0  0  0
   -1.2803   -0.0947   -1.0064 H   0  0  0  0  0  0  0  0  0  0  0  0
   -1.5420    0.4271    1.0567 C   0  0  0  0  0  0  0  0  0  0  0  0
   -0.6738    1.0885    1.0628 H   0  0  0  0  0  0  0  0  0  0  0  0
   -2.4178    1.0340    0.8211 H   0  0  0  0  0  0  0  0  0  0  0  0
   -1.7087   -0.1315    2.4374 C   0  0  0  0  0  0  0  0  0  0  0  0
   -0.7046   -0.4249    3.2937 C   0  0  0  0  0  0  0  0  0  0  0  0
    0.3503   -0.3064    3.0717 H   0  0  0  0  0  0  0  0  0  0  0  0
   -1.2304   -0.8745    4.4891 N   0  0  0  0  0  0  0  0  0  0  0  0
   -0.6640   -1.1560    5.2759 H   0  0  0  0  0  0  0  0  0  0  0  0
   -2.6089   -0.8774    4.4680 C   0  0  0  0  0  0  0  0  0  0  0  0
   -3.5810   -1.2113    5.4219 C   0  0  0  0  0  0  0  0  0  0  0  0
   -3.2894   -1.5522    6.4045 H   0  0  0  0  0  0  0  0  0  0  0  0
   -4.9396   -1.0979    5.0809 C   0  0  0  0  0  0  0  0  0  0  0  0
   -5.7034   -1.3520    5.8034 H   0  0  0  0  0  0  0  0  0  0  0  0
   -5.3052   -0.6594    3.7951 C   0  0  0  0  0  0  0  0  0  0  0  0
   -6.3516   -0.5815    3.5341 H   0  0  0  0  0  0  0  0  0  0  0  0
   -4.3196   -0.3283    2.8436 C   0  0  0  0  0  0  0  0  0  0  0  0
   -4.6141   -0.0055    1.8551 H   0  0  0  0  0  0  0  0  0  0  0  0
   -2.9466   -0.4257    3.1572 C   0  0  0  0  0  0  0  0  0  0  0  0
   -0.0675   -1.4299    0.1359 C   0  0  0  0  0  0  0  0  0  0  0  0
   -0.0682   -2.6472   -0.0424 O   0  0  0  0  0  0  0  0  0  0  0  0
    1.0319   -0.7555    0.4987 N   0  0  0  0  0  0  0  0  0  0  0  0
    0.9360    0.2340    0.6777 H   0  0  0  0  0  0  0  0  0  0  0  0
    2.3380   -1.3705    0.7182 C   0  0  0  0  0  0  0  0  0  0  0  0
    2.6099   -1.9765   -0.1482 H   0  0  0  0  0  0  0  0  0  0  0  0
    3.0948   -0.6002    0.8720 H   0  0  0  0  0  0  0  0  0  0  0  0
    2.2953   -2.0159    1.5972 H   0  0  0  0  0  0  0  0  0  0  0  0
  5  6  2  0  0  0  0
  5  7  1  0  0  0  0
  2  3  1  0  0  0  0
  2  4  1  0  0  0  0
  2  5  1  0  0  0  0
  1  2  1  0  0  0  0
 29 30  2  0  0  0  0
 29 31  1  0  0  0  0
 26 27  1  0  0  0  0
 26 28  2  0  0  0  0
 24 25  1  0  0  0  0
 24 26  1  0  0  0  0
 22 23  1  0  0  0  0
 22 24  2  0  0  0  0
 20 21  1  0  0  0  0
 20 22  1  0  0  0  0
 19 20  2  0  0  0  0
 19 28  1  0  0  0  0
 17 18  1  0  0  0  0
 17 19  1  0  0  0  0
 15 16  1  0  0  0  0
 15 17  1  0  0  0  0
 14 15  2  0  0  0  0
 14 28  1  0  0  0  0
 11 12  1  0  0  0  0
 11 13  1  0  0  0  0
 11 14  1  0  0  0  0
  9 10  1  0  0  0  0
  9 11  1  0  0  0  0
  9 29  1  0  0  0  0
  7  8  1  0  0  0  0
  7  9  1  0  0  0  0
 33 34  1  0  0  0  0
 33 35  1  0  0  0  0
 33 36  1  0  0  0  0
 31 32  1  0  0  0  0
 31 33  1  0  0  0  0
M  END
$$$$
default_name
  -OEChem-12212115393D

 36 37  0     1  0  0  0  0  0999 V2000
   -4.0843   -4.0736    1.2944 H   0  0  0  0  0  0  0  0  0  0  0  0
   -4.0342   -3.2816    0.5484 C   0  0  0  0  0  0  0  0  0  0  0  0
   -4.8842   -2.6126    0.6694 H   0  0  0  0  0  0  0  0  0  0  0  0
   -4.0433   -3.7186   -0.4486 H   0  0  0  0  0  0  0  0  0  0  0  0
   -2.7532   -2.5046    0.7444 C   0  0  0  0  0  0  0  0  0  0  0  0
   -1.9803   -2.8096    1.6434 O   0  0  0  0  0  0  0  0  0  0  0  0
   -2.5332   -1.4966   -0.0966 N   0  0  0  0  0  0  0  0  0  0  0  0
   -3.2312   -1.2816   -0.7936 H   0  0  0  0  0  0  0  0  0  0  0  0
   -1.3593   -0.6196   -0.0536 C   0  0  1  0  0  0  0  0  0  0  0  0
   -1.2803   -0.0947   -1.0064 H   0  0  0  0  0  0  0  0  0  0  0  0
   -1.5420    0.4271    1.0567 C   0  0  0  0  0  0  0  0  0  0  0  0
   -0.6738    1.0885    1.0628 H   0  0  0  0  0  0  0  0  0  0  0  0
   -2.4178    1.0340    0.8211 H   0  0  0  0  0  0  0  0  0  0  0  0
   -1.7087   -0.1315    2.4374 C   0  0  0  0  0  0  0  0  0  0  0  0
   -0.7046   -0.4249    3.2937 C   0  0  0  0  0  0  0  0  0  0  0  0
    0.3503   -0.3064    3.0717 H   0  0  0  0  0  0  0  0  0  0  0  0
   -1.2304   -0.8745    4.4891 N   0  0  0  0  0  0  0  0  0  0  0  0
   -0.6640   -1.1560    5.2759 H   0  0  0  0  0  0  0  0  0  0  0  0
   -2.6089   -0.8774    4.4680 C   0  0  0  0  0  0  0  0  0  0  0  0
   -3.5810   -1.2113    5.4219 C   0  0  0  0  0  0  0  0  0  0  0  0
   -3.2894   -1.5522    6.4045 H   0  0  0  0  0  0  0  0  0  0  0  0
   -4.9396   -1.0979    5.0809 C   0  0  0  0  0  0  0  0  0  0  0  0
   -5.7034   -1.3520    5.8034 H   0  0  0  0  0  0  0  0  0  0  0  0
   -5.3052   -0.6594    3.7951 C   0  0  0  0  0  0  0  0  0  0  0  0
   -6.3516   -0.5815    3.5341 H   0  0  0  0  0  0  0  0  0  0  0  0
   -4.3196   -0.3283    2.8436 C   0  0  0  0  0  0  0  0  0  0  0  0
   -4.6141   -0.0055    1.8551 H   0  0  0  0  0  0  0  0  0  0  0  0
   -2.9466   -0.4257    3.1572 C   0  0  0  0  0  0  0  0  0  0  0  0
   -0.0675   -1.4299    0.1359 C   0  0  0  0  0  0  0  0  0  0  0  0
    0.0127   -2.5781   -0.2986 O   0  0  0  0  0  0  0  0  0  0  0  0
    0.9410   -0.8333    0.7857 N   0  0  0  0  0  0  0  0  0  0  0  0
    0.7757    0.0908    1.1583 H   0  0  0  0  0  0  0  0  0  0  0  0
    2.2338   -1.4595    1.0483 C   0  0  0  0  0  0  0  0  0  0  0  0
    2.6466   -1.8555    0.1185 H   0  0  0  0  0  0  0  0  0  0  0  0
    2.9263   -0.7292    1.4688 H   0  0  0  0  0  0  0  0  0  0  0  0
    2.1050   -2.2829    1.7528 H   0  0  0  0  0  0  0  0  0  0  0  0
  5  6  2  0  0  0  0
  5  7  1  0  0  0  0
  2  3  1  0  0  0  0
  2  4  1  0  0  0  0
  2  5  1  0  0  0  0
  1  2  1  0  0  0  0
 29 30  2  0  0  0  0
 29 31  1  0  0  0  0
 26 27  1  0  0  0  0
 26 28  2  0  0  0  0
 24 25  1  0  0  0  0
 24 26  1  0  0  0  0
 22 23  1  0  0  0  0
 22 24  2  0  0  0  0
 20 21  1  0  0  0  0
 20 22  1  0  0  0  0
 19 20  2  0  0  0  0
 19 28  1  0  0  0  0
 17 18  1  0  0  0  0
 17 19  1  0  0  0  0
 15 16  1  0  0  0  0
 15 17  1  0  0  0  0
 14 15  2  0  0  0  0
 14 28  1  0  0  0  0
 11 12  1  0  0  0  0
 11 13  1  0  0  0  0
 11 14  1  0  0  0  0
  9 10  1  0  0  0  0
  9 11  1  0  0  0  0
  9 29  1  0  0  0  0
  7  8  1  0  0  0  0
  7  9  1  0  0  0  0
 33 34  1  0  0  0  0
 33 35  1  0  0  0  0
 33 36  1  0  0  0  0
 31 32  1  0  0  0  0
 31 33  1  0  0  0  0
M  END
$$$$
default_name
  -OEChem-12212115393D

 36 37  0     1  0  0  0  0  0999 V2000
   -4.0843   -4.0736    1.2944 H   0  0  0  0  0  0  0  0  0  0  0  0
   -4.0342   -3.2816    0.5484 C   0  0  0  0  0  0  0  0  0  0  0  0
   -4.8842   -2.6126    0.6694 H   0  0  0  0  0  0  0  0  0  0  0  0
   -4.0433   -3.7186   -0.4486 H   0  0  0  0  0  0  0  0  0  0  0  0
   -2.7532   -2.5046    0.7444 C   0  0  0  0  0  0  0  0  0  0  0  0
   -1.9803   -2.8096    1.6434 O   0  0  0  0  0  0  0  0  0  0  0  0
   -2.5332   -1.4966   -0.0966 N   0  0  0  0  0  0  0  0  0  0  0  0
   -3.2312   -1.2816   -0.7936 H   0  0  0  0  0  0  0  0  0  0  0  0
   -1.3593   -0.6196   -0.0536 C   0  0  1  0  0  0  0  0  0  0  0  0
   -1.2803   -0.0947   -1.0064 H   0  0  0  0  0  0  0  0  0  0  0  0
   -1.5420    0.4271    1.0567 C   0  0  0  0  0  0  0  0  0  0  0  0
   -0.6738    1.0885    1.0628 H   0  0  0  0  0  0  0  0  0  0  0  0
   -2.4178    1.0340    0.8211 H   0  0  0  0  0  0  0  0  0  0  0  0
   -1.7087   -0.1315    2.4374 C   0  0  0  0  0  0  0  0  0  0  0  0
   -0.7046   -0.4249    3.2937 C   0  0  0  0  0  0  0  0  0  0  0  0
    0.3503   -0.3064    3.0717 H   0  0  0  0  0  0  0  0  0  0  0  0
   -1.2304   -0.8745    4.4891 N   0  0  0  0  0  0  0  0  0  0  0  0
   -0.6640   -1.1560    5.2759 H   0  0  0  0  0  0  0  0  0  0  0  0
   -2.6089   -0.8774    4.4680 C   0  0  0  0  0  0  0  0  0  0  0  0
   -3.5810   -1.2113    5.4219 C   0  0  0  0  0  0  0  0  0  0  0  0
   -3.2894   -1.5522    6.4045 H   0  0  0  0  0  0  0  0  0  0  0  0
   -4.9396   -1.0979    5.0809 C   0  0  0  0  0  0  0  0  0  0  0  0
   -5.7034   -1.3520    5.8034 H   0  0  0  0  0  0  0  0  0  0  0  0
   -5.3052   -0.6594    3.7951 C   0  0  0  0  0  0  0  0  0  0  0  0
   -6.3516   -0.5815    3.5341 H   0  0  0  0  0  0  0  0  0  0  0  0
   -4.3196   -0.3283    2.8436 C   0  0  0  0  0  0  0  0  0  0  0  0
   -4.6141   -0.0055    1.8551 H   0  0  0  0  0  0  0  0  0  0  0  0
   -2.9466   -0.4257    3.1572 C   0  0  0  0  0  0  0  0  0  0  0  0
   -0.0675   -1.4299    0.1359 C   0  0  0  0  0  0  0  0  0  0  0  0
    0.1237   -2.4530   -0.5201 O   0  0  0  0  0  0  0  0  0  0  0  0
    0.8164   -0.9739    1.0336 N   0  0  0  0  0  0  0  0  0  0  0  0
    0.5598   -0.1571    1.5696 H   0  0  0  0  0  0  0  0  0  0  0  0
    2.0909   -1.6206    1.3335 C   0  0  0  0  0  0  0  0  0  0  0  0
    2.6418   -1.7956    0.4075 H   0  0  0  0  0  0  0  0  0  0  0  0
    2.6862   -0.9890    1.9941 H   0  0  0  0  0  0  0  0  0  0  0  0
    1.9084   -2.5807    1.8190 H   0  0  0  0  0  0  0  0  0  0  0  0
  5  6  2  0  0  0  0
  5  7  1  0  0  0  0
  2  3  1  0  0  0  0
  2  4  1  0  0  0  0
  2  5  1  0  0  0  0
  1  2  1  0  0  0  0
 29 30  2  0  0  0  0
 29 31  1  0  0  0  0
 26 27  1  0  0  0  0
 26 28  2  0  0  0  0
 24 25  1  0  0  0  0
 24 26  1  0  0  0  0
 22 23  1  0  0  0  0
 22 24  2  0  0  0  0
 20 21  1  0  0  0  0
 20 22  1  0  0  0  0
 19 20  2  0  0  0  0
 19 28  1  0  0  0  0
 17 18  1  0  0  0  0
 17 19  1  0  0  0  0
 15 16  1  0  0  0  0
 15 17  1  0  0  0  0
 14 15  2  0  0  0  0
 14 28  1  0  0  0  0
 11 12  1  0  0  0  0
 11 13  1  0  0  0  0
 11 14  1  0  0  0  0
  9 10  1  0  0  0  0
  9 11  1  0  0  0  0
  9 29  1  0  0  0  0
  7  8  1  0  0  0  0
  7  9  1  0  0  0  0
 33 34  1  0  0  0  0
 33 35  1  0  0  0  0
 33 36  1  0  0  0  0
 31 32  1  0  0  0  0
 31 33  1  0  0  0  0
M  END
$$$$
default_name
  -OEChem-12212115393D

 36 37  0     1  0  0  0  0  0999 V2000
   -4.0843   -4.0736    1.2944 H   0  0  0  0  0  0  0  0  0  0  0  0
   -4.0342   -3.2816    0.5484 C   0  0  0  0  0  0  0  0  0  0  0  0
   -4.8842   -2.6126    0.6694 H   0  0  0  0  0  0  0  0  0  0  0  0
   -4.0433   -3.7186   -0.4486 H   0  0  0  0  0  0  0  0  0  0  0  0
   -2.7532   -2.5046    0.7444 C   0  0  0  0  0  0  0  0  0  0  0  0
   -1.9803   -2.8096    1.6434 O   0  0  0  0  0  0  0  0  0  0  0  0
   -2.5332   -1.4966   -0.0966 N   0  0  0  0  0  0  0  0  0  0  0  0
   -3.2312   -1.2816   -0.7936 H   0  0  0  0  0  0  0  0  0  0  0  0
   -1.3593   -0.6196   -0.0536 C   0  0  1  0  0  0  0  0  0  0  0  0
   -1.2803   -0.0947   -1.0064 H   0  0  0  0  0  0  0  0  0  0  0  0
   -1.5420    0.4271    1.0567 C   0  0  0  0  0  0  0  0  0  0  0  0
   -0.6738    1.0885    1.0628 H   0  0  0  0  0  0  0  0  0  0  0  0
   -2.4178    1.0340    0.8211 H   0  0  0  0  0  0  0  0  0  0  0  0
   -1.7087   -0.1315    2.4374 C   0  0  0  0  0  0  0  0  0  0  0  0
   -0.7046   -0.4249    3.2937 C   0  0  0  0  0  0  0  0  0  0  0  0
    0.3503   -0.3064    3.0717 H   0  0  0  0  0  0  0  0  0  0  0  0
   -1.2304   -0.8745    4.4891 N   0  0  0  0  0  0  0  0  0  0  0  0
   -0.6640   -1.1560    5.2759 H   0  0  0  0  0  0  0  0  0  0  0  0
   -2.6089   -0.8774    4.4680 C   0  0  0  0  0  0  0  0  0  0  0  0
   -3.5810   -1.2113    5.4219 C   0  0  0  0  0  0  0  0  0  0  0  0
   -3.2894   -1.5522    6.4045 H   0  0  0  0  0  0  0  0  0  0  0  0
   -4.9396   -1.0979    5.0809 C   0  0  0  0  0  0  0  0  0  0  0  0
   -5.7034   -1.3520    5.8034 H   0  0  0  0  0  0  0  0  0  0  0  0
   -5.3052   -0.6594    3.7951 C   0  0  0  0  0  0  0  0  0  0  0  0
   -6.3516   -0.5815    3.5341 H   0  0  0  0  0  0  0  0  0  0  0  0
   -4.3196   -0.3283    2.8436 C   0  0  0  0  0  0  0  0  0  0  0  0
   -4.6141   -0.0055    1.8551 H   0  0  0  0  0  0  0  0  0  0  0  0
   -2.9466   -0.4257    3.1572 C   0  0  0  0  0  0  0  0  0  0  0  0
   -0.0675   -1.4299    0.1359 C   0  0  0  0  0  0  0  0  0  0  0  0
    0.2571   -2.2804   -0.6916 O   0  0  0  0  0  0  0  0  0  0  0  0
    0.6668   -1.1675    1.2254 N   0  0  0  0  0  0  0  0  0  0  0  0
    0.3031   -0.4930    1.8834 H   0  0  0  0  0  0  0  0  0  0  0  0
    1.9190   -1.8428    1.5545 C   0  0  0  0  0  0  0  0  0  0  0  0
    2.5958   -1.8007    0.6990 H   0  0  0  0  0  0  0  0  0  0  0  0
    2.3909   -1.3620    2.4123 H   0  0  0  0  0  0  0  0  0  0  0  0
    1.7190   -2.8891    1.7914 H   0  0  0  0  0  0  0  0  0  0  0  0
  5  6  2  0  0  0  0
  5  7  1  0  0  0  0
  2  3  1  0  0  0  0
  2  4  1  0  0  0  0
  2  5  1  0  0  0  0
  1  2  1  0  0  0  0
 29 30  2  0  0  0  0
 29 31  1  0  0  0  0
 26 27  1  0  0  0  0
 26 28  2  0  0  0  0
 24 25  1  0  0  0  0
 24 26  1  0  0  0  0
 22 23  1  0  0  0  0
 22 24  2  0  0  0  0
 20 21  1  0  0  0  0
 20 22  1  0  0  0  0
 19 20  2  0  0  0  0
 19 28  1  0  0  0  0
 17 18  1  0  0  0  0
 17 19  1  0  0  0  0
 15 16  1  0  0  0  0
 15 17  1  0  0  0  0
 14 15  2  0  0  0  0
 14 28  1  0  0  0  0
 11 12  1  0  0  0  0
 11 13  1  0  0  0  0
 11 14  1  0  0  0  0
  9 10  1  0  0  0  0
  9 11  1  0  0  0  0
  9 29  1  0  0  0  0
  7  8  1  0  0  0  0
  7  9  1  0  0  0  0
 33 34  1  0  0  0  0
 33 35  1  0  0  0  0
 33 36  1  0  0  0  0
 31 32  1  0  0  0  0
 31 33  1  0  0  0  0
M  END
$$$$
default_name
  -OEChem-12212115393D

 36 37  0     1  0  0  0  0  0999 V2000
   -4.0843   -4.0736    1.2944 H   0  0  0  0  0  0  0  0  0  0  0  0
   -4.0342   -3.2816    0.5484 C   0  0  0  0  0  0  0  0  0  0  0  0
   -4.8842   -2.6126    0.6694 H   0  0  0  0  0  0  0  0  0  0  0  0
   -4.0433   -3.7186   -0.4486 H   0  0  0  0  0  0  0  0  0  0  0  0
   -2.7532   -2.5046    0.7444 C   0  0  0  0  0  0  0  0  0  0  0  0
   -1.9803   -2.8096    1.6434 O   0  0  0  0  0  0  0  0  0  0  0  0
   -2.5332   -1.4966   -0.0966 N   0  0  0  0  0  0  0  0  0  0  0  0
   -3.2312   -1.2816   -0.7936 H   0  0  0  0  0  0  0  0  0  0  0  0
   -1.3593   -0.6196   -0.0536 C   0  0  1  0  0  0  0  0  0  0  0  0
   -1.2803   -0.0947   -1.0064 H   0  0  0  0  0  0  0  0  0  0  0  0
   -1.5420    0.4271    1.0567 C   0  0  0  0  0  0  0  0  0  0  0  0
   -0.6738    1.0885    1.0628 H   0  0  0  0  0  0  0  0  0  0  0  0
   -2.4178    1.0340    0.8211 H   0  0  0  0  0  0  0  0  0  0  0  0
   -1.7087   -0.1315    2.4374 C   0  0  0  0  0  0  0  0  0  0  0  0
   -0.7046   -0.4249    3.2937 C   0  0  0  0  0  0  0  0  0  0  0  0
    0.3503   -0.3064    3.0717 H   0  0  0  0  0  0  0  0  0  0  0  0
   -1.2304   -0.8745    4.4891 N   0  0  0  0  0  0  0  0  0  0  0  0
   -0.6640   -1.1560    5.2759 H   0  0  0  0  0  0  0  0  0  0  0  0
   -2.6089   -0.8774    4.4680 C   0  0  0  0  0  0  0  0  0  0  0  0
   -3.5810   -1.2113    5.4219 C   0  0  0  0  0  0  0  0  0  0  0  0
   -3.2894   -1.5522    6.4045 H   0  0  0  0  0  0  0  0  0  0  0  0
   -4.9396   -1.0979    5.0809 C   0  0  0  0  0  0  0  0  0  0  0  0
   -5.7034   -1.3520    5.8034 H   0  0  0  0  0  0  0  0  0  0  0  0
   -5.3052   -0.6594    3.7951 C   0  0  0  0  0  0  0  0  0  0  0  0
   -6.3516   -0.5815    3.5341 H   0  0  0  0  0  0  0  0  0  0  0  0
   -4.3196   -0.3283    2.8436 C   0  0  0  0  0  0  0  0  0  0  0  0
   -4.6141   -0.0055    1.8551 H   0  0  0  0  0  0  0  0  0  0  0  0
   -2.9466   -0.4257    3.1572 C   0  0  0  0  0  0  0  0  0  0  0  0
   -0.0675   -1.4299    0.1359 C   0  0  0  0  0  0  0  0  0  0  0  0
    0.4039   -2.0721   -0.8016 O   0  0  0  0  0  0  0  0  0  0  0  0
    0.5023   -1.4011    1.3482 N   0  0  0  0  0  0  0  0  0  0  0  0
    0.0230   -0.8939    2.0785 H   0  0  0  0  0  0  0  0  0  0  0  0
    1.7300   -2.1110    1.6961 C   0  0  0  0  0  0  0  0  0  0  0  0
    2.5118   -1.8705    0.9731 H   0  0  0  0  0  0  0  0  0  0  0  0
    2.0605   -1.8226    2.6948 H   0  0  0  0  0  0  0  0  0  0  0  0
    1.5497   -3.1870    1.6717 H   0  0  0  0  0  0  0  0  0  0  0  0
  5  6  2  0  0  0  0
  5  7  1  0  0  0  0
  2  3  1  0  0  0  0
  2  4  1  0  0  0  0
  2  5  1  0  0  0  0
  1  2  1  0  0  0  0
 29 30  2  0  0  0  0
 29 31  1  0  0  0  0
 26 27  1  0  0  0  0
 26 28  2  0  0  0  0
 24 25  1  0  0  0  0
 24 26  1  0  0  0  0
 22 23  1  0  0  0  0
 22 24  2  0  0  0  0
 20 21  1  0  0  0  0
 20 22  1  0  0  0  0
 19 20  2  0  0  0  0
 19 28  1  0  0  0  0
 17 18  1  0  0  0  0
 17 19  1  0  0  0  0
 15 16  1  0  0  0  0
 15 17  1  0  0  0  0
 14 15  2  0  0  0  0
 14 28  1  0  0  0  0
 11 12  1  0  0  0  0
 11 13  1  0  0  0  0
 11 14  1  0  0  0  0
  9 10  1  0  0  0  0
  9 11  1  0  0  0  0
  9 29  1  0  0  0  0
  7  8  1  0  0  0  0
  7  9  1  0  0  0  0
 33 34  1  0  0  0  0
 33 35  1  0  0  0  0
 33 36  1  0  0  0  0
 31 32  1  0  0  0  0
 31 33  1  0  0  0  0
M  END
$$$$
default_name
  -OEChem-12212115393D

 36 37  0     1  0  0  0  0  0999 V2000
   -4.0843   -4.0736    1.2944 H   0  0  0  0  0  0  0  0  0  0  0  0
   -4.0342   -3.2816    0.5484 C   0  0  0  0  0  0  0  0  0  0  0  0
   -4.8842   -2.6126    0.6694 H   0  0  0  0  0  0  0  0  0  0  0  0
   -4.0433   -3.7186   -0.4486 H   0  0  0  0  0  0  0  0  0  0  0  0
   -2.7532   -2.5046    0.7444 C   0  0  0  0  0  0  0  0  0  0  0  0
   -1.9803   -2.8096    1.6434 O   0  0  0  0  0  0  0  0  0  0  0  0
   -2.5332   -1.4966   -0.0966 N   0  0  0  0  0  0  0  0  0  0  0  0
   -3.2312   -1.2816   -0.7936 H   0  0  0  0  0  0  0  0  0  0  0  0
   -1.3593   -0.6196   -0.0536 C   0  0  1  0  0  0  0  0  0  0  0  0
   -1.2803   -0.0947   -1.0064 H   0  0  0  0  0  0  0  0  0  0  0  0
   -1.5420    0.4271    1.0567 C   0  0  0  0  0  0  0  0  0  0  0  0
   -0.6738    1.0885    1.0628 H   0  0  0  0  0  0  0  0  0  0  0  0
   -2.4178    1.0340    0.8211 H   0  0  0  0  0  0  0  0  0  0  0  0
   -1.7087   -0.1315    2.4374 C   0  0  0  0  0  0  0  0  0  0  0  0
   -0.7046   -0.4249    3.2937 C   0  0  0  0  0  0  0  0  0  0  0  0
    0.3503   -0.3064    3.0717 H   0  0  0  0  0  0  0  0  0  0  0  0
   -1.2304   -0.8745    4.4891 N   0  0  0  0  0  0  0  0  0  0  0  0
   -0.6640   -1.1560    5.2759 H   0  0  0  0  0  0  0  0  0  0  0  0
   -2.6089   -0.8774    4.4680 C   0  0  0  0  0  0  0  0  0  0  0  0
   -3.5810   -1.2113    5.4219 C   0  0  0  0  0  0  0  0  0  0  0  0
   -3.2894   -1.5522    6.4045 H   0  0  0  0  0  0  0  0  0  0  0  0
   -4.9396   -1.0979    5.0809 C   0  0  0  0  0  0  0  0  0  0  0  0
   -5.7034   -1.3520    5.8034 H   0  0  0  0  0  0  0  0  0  0  0  0
   -5.3052   -0.6594    3.7951 C   0  0  0  0  0  0  0  0  0  0  0  0
   -6.3516   -0.5815    3.5341 H   0  0  0  0  0  0  0  0  0  0  0  0
   -4.3196   -0.3283    2.8436 C   0  0  0  0  0  0  0  0  0  0  0  0
   -4.6141   -0.0055    1.8551 H   0  0  0  0  0  0  0  0  0  0  0  0
   -2.9466   -0.4257    3.1572 C   0  0  0  0  0  0  0  0  0  0  0  0
   -0.0675   -1.4299    0.1359 C   0  0  0  0  0  0  0  0  0  0  0  0
    0.5540   -1.8424   -0.8424 O   0  0  0  0  0  0  0  0  0  0  0  0
    0.3341   -1.6587    1.3935 N   0  0  0  0  0  0  0  0  0  0  0  0
   -0.2614   -1.3325    2.1414 H   0  0  0  0  0  0  0  0  0  0  0  0
    1.5367   -2.4069    1.7487 C   0  0  0  0  0  0  0  0  0  0  0  0
    2.3954   -2.0003    1.2113 H   0  0  0  0  0  0  0  0  0  0  0  0
    1.7175   -2.3396    2.8223 H   0  0  0  0  0  0  0  0  0  0  0  0
    1.4120   -3.4541    1.4682 H   0  0  0  0  0  0  0  0  0  0  0  0
  5  6  2  0  0  0  0
  5  7  1  0  0  0  0
  2  3  1  0  0  0  0
  2  4  1  0  0  0  0
  2  5  1  0  0  0  0
  1  2  1  0  0  0  0
 29 30  2  0  0  0  0
 29 31  1  0  0  0  0
 26 27  1  0  0  0  0
 26 28  2  0  0  0  0
 24 25  1  0  0  0  0
 24 26  1  0  0  0  0
 22 23  1  0  0  0  0
 22 24  2  0  0  0  0
 20 21  1  0  0  0  0
 20 22  1  0  0  0  0
 19 20  2  0  0  0  0
 19 28  1  0  0  0  0
 17 18  1  0  0  0  0
 17 19  1  0  0  0  0
 15 16  1  0  0  0  0
 15 17  1  0  0  0  0
 14 15  2  0  0  0  0
 14 28  1  0  0  0  0
 11 12  1  0  0  0  0
 11 13  1  0  0  0  0
 11 14  1  0  0  0  0
  9 10  1  0  0  0  0
  9 11  1  0  0  0  0
  9 29  1  0  0  0  0
  7  8  1  0  0  0  0
  7  9  1  0  0  0  0
 33 34  1  0  0  0  0
 33 35  1  0  0  0  0
 33 36  1  0  0  0  0
 31 32  1  0  0  0  0
 31 33  1  0  0  0  0
M  END
$$$$
default_name
  -OEChem-12212115393D

 36 37  0     1  0  0  0  0  0999 V2000
   -4.0843   -4.0736    1.2944 H   0  0  0  0  0  0  0  0  0  0  0  0
   -4.0342   -3.2816    0.5484 C   0  0  0  0  0  0  0  0  0  0  0  0
   -4.8842   -2.6126    0.6694 H   0  0  0  0  0  0  0  0  0  0  0  0
   -4.0433   -3.7186   -0.4486 H   0  0  0  0  0  0  0  0  0  0  0  0
   -2.7532   -2.5046    0.7444 C   0  0  0  0  0  0  0  0  0  0  0  0
   -1.9803   -2.8096    1.6434 O   0  0  0  0  0  0  0  0  0  0  0  0
   -2.5332   -1.4966   -0.0966 N   0  0  0  0  0  0  0  0  0  0  0  0
   -3.2312   -1.2816   -0.7936 H   0  0  0  0  0  0  0  0  0  0  0  0
   -1.3593   -0.6196   -0.0536 C   0  0  1  0  0  0  0  0  0  0  0  0
   -1.2803   -0.0947   -1.0064 H   0  0  0  0  0  0  0  0  0  0  0  0
   -1.5420    0.4271    1.0567 C   0  0  0  0  0  0  0  0  0  0  0  0
   -0.6738    1.0885    1.0628 H   0  0  0  0  0  0  0  0  0  0  0  0
   -2.4178    1.0340    0.8211 H   0  0  0  0  0  0  0  0  0  0  0  0
   -1.7087   -0.1315    2.4374 C   0  0  0  0  0  0  0  0  0  0  0  0
   -0.7046   -0.4249    3.2937 C   0  0  0  0  0  0  0  0  0  0  0  0
    0.3503   -0.3064    3.0717 H   0  0  0  0  0  0  0  0  0  0  0  0
   -1.2304   -0.8745    4.4891 N   0  0  0  0  0  0  0  0  0  0  0  0
   -0.6640   -1.1560    5.2759 H   0  0  0  0  0  0  0  0  0  0  0  0
   -2.6089   -0.8774    4.4680 C   0  0  0  0  0  0  0  0  0  0  0  0
   -3.5810   -1.2113    5.4219 C   0  0  0  0  0  0  0  0  0  0  0  0
   -3.2894   -1.5522    6.4045 H   0  0  0  0  0  0  0  0  0  0  0  0
   -4.9396   -1.0979    5.0809 C   0  0  0  0  0  0  0  0  0  0  0  0
   -5.7034   -1.3520    5.8034 H   0  0  0  0  0  0  0  0  0  0  0  0
   -5.3052   -0.6594    3.7951 C   0  0  0  0  0  0  0  0  0  0  0  0
   -6.3516   -0.5815    3.5341 H   0  0  0  0  0  0  0  0  0  0  0  0
   -4.3196   -0.3283    2.8436 C   0  0  0  0  0  0  0  0  0  0  0  0
   -4.6141   -0.0055    1.8551 H   0  0  0  0  0  0  0  0  0  0  0  0
   -2.9466   -0.4257    3.1572 C   0  0  0  0  0  0  0  0  0  0  0  0
   -0.0675   -1.4299    0.1359 C   0  0  0  0  0  0  0  0  0  0  0  0
    0.6973   -1.6067   -0.8114 O   0  0  0  0  0  0  0  0  0  0  0  0
    0.1736   -1.9227    1.3583 N   0  0  0  0  0  0  0  0  0  0  0  0
   -0.5307   -1.7789    2.0679 H   0  0  0  0  0  0  0  0  0  0  0  0
    1.3522   -2.7104    1.7088 C   0  0  0  0  0  0  0  0  0  0  0  0
    2.2547   -2.1812    1.3972 H   0  0  0  0  0  0  0  0  0  0  0  0
    1.3853   -2.8776    2.7862 H   0  0  0  0  0  0  0  0  0  0  0  0
    1.3153   -3.6723    1.1947 H   0  0  0  0  0  0  0  0  0  0  0  0
  5  6  2  0  0  0  0
  5  7  1  0  0  0  0
  2  3  1  0  0  0  0
  2  4  1  0  0  0  0
  2  5  1  0  0  0  0
  1  2  1  0  0  0  0
 29 30  2  0  0  0  0
 29 31  1  0  0  0  0
 26 27  1  0  0  0  0
 26 28  2  0  0  0  0
 24 25  1  0  0  0  0
 24 26  1  0  0  0  0
 22 23  1  0  0  0  0
 22 24  2  0  0  0  0
 20 21  1  0  0  0  0
 20 22  1  0  0  0  0
 19 20  2  0  0  0  0
 19 28  1  0  0  0  0
 17 18  1  0  0  0  0
 17 19  1  0  0  0  0
 15 16  1  0  0  0  0
 15 17  1  0  0  0  0
 14 15  2  0  0  0  0
 14 28  1  0  0  0  0
 11 12  1  0  0  0  0
 11 13  1  0  0  0  0
 11 14  1  0  0  0  0
  9 10  1  0  0  0  0
  9 11  1  0  0  0  0
  9 29  1  0  0  0  0
  7  8  1  0  0  0  0
  7  9  1  0  0  0  0
 33 34  1  0  0  0  0
 33 35  1  0  0  0  0
 33 36  1  0  0  0  0
 31 32  1  0  0  0  0
 31 33  1  0  0  0  0
M  END
$$$$
default_name
  -OEChem-12212115393D

 36 37  0     1  0  0  0  0  0999 V2000
   -4.0843   -4.0736    1.2944 H   0  0  0  0  0  0  0  0  0  0  0  0
   -4.0342   -3.2816    0.5484 C   0  0  0  0  0  0  0  0  0  0  0  0
   -4.8842   -2.6126    0.6694 H   0  0  0  0  0  0  0  0  0  0  0  0
   -4.0433   -3.7186   -0.4486 H   0  0  0  0  0  0  0  0  0  0  0  0
   -2.7532   -2.5046    0.7444 C   0  0  0  0  0  0  0  0  0  0  0  0
   -1.9803   -2.8096    1.6434 O   0  0  0  0  0  0  0  0  0  0  0  0
   -2.5332   -1.4966   -0.0966 N   0  0  0  0  0  0  0  0  0  0  0  0
   -3.2312   -1.2816   -0.7936 H   0  0  0  0  0  0  0  0  0  0  0  0
   -1.3593   -0.6196   -0.0536 C   0  0  1  0  0  0  0  0  0  0  0  0
   -1.2803   -0.0947   -1.0064 H   0  0  0  0  0  0  0  0  0  0  0  0
   -1.5420    0.4271    1.0567 C   0  0  0  0  0  0  0  0  0  0  0  0
   -0.6738    1.0885    1.0628 H   0  0  0  0  0  0  0  0  0  0  0  0
   -2.4178    1.0340    0.8211 H   0  0  0  0  0  0  0  0  0  0  0  0
   -1.7087   -0.1315    2.4374 C   0  0  0  0  0  0  0  0  0  0  0  0
   -0.7046   -0.4249    3.2937 C   0  0  0  0  0  0  0  0  0  0  0  0
    0.3503   -0.3064    3.0717 H   0  0  0  0  0  0  0  0  0  0  0  0
   -1.2304   -0.8745    4.4891 N   0  0  0  0  0  0  0  0  0  0  0  0
   -0.6640   -1.1560    5.2759 H   0  0  0  0  0  0  0  0  0  0  0  0
   -2.6089   -0.8774    4.4680 C   0  0  0  0  0  0  0  0  0  0  0  0
   -3.5810   -1.2113    5.4219 C   0  0  0  0  0  0  0  0  0  0  0  0
   -3.2894   -1.5522    6.4045 H   0  0  0  0  0  0  0  0  0  0  0  0
   -4.9396   -1.0979    5.0809 C   0  0  0  0  0  0  0  0  0  0  0  0
   -5.7034   -1.3520    5.8034 H   0  0  0  0  0  0  0  0  0  0  0  0
   -5.3052   -0.6594    3.7951 C   0  0  0  0  0  0  0  0  0  0  0  0
   -6.3516   -0.5815    3.5341 H   0  0  0  0  0  0  0  0  0  0  0  0
   -4.3196   -0.3283    2.8436 C   0  0  0  0  0  0  0  0  0  0  0  0
   -4.6141   -0.0055    1.8551 H   0  0  0  0  0  0  0  0  0  0  0  0
   -2.9466   -0.4257    3.1572 C   0  0  0  0  0  0  0  0  0  0  0  0
   -0.0675   -1.4299    0.1359 C   0  0  0  0  0  0  0  0  0  0  0  0
    0.8239   -1.3813   -0.7106 O   0  0  0  0  0  0  0  0  0  0  0  0
    0.0319   -2.1752    1.2449 N   0  0  0  0  0  0  0  0  0  0  0  0
   -0.7665   -2.2028    1.8631 H   0  0  0  0  0  0  0  0  0  0  0  0
    1.1891   -3.0007    1.5790 C   0  0  0  0  0  0  0  0  0  0  0  0
    2.0991   -2.4009    1.5182 H   0  0  0  0  0  0  0  0  0  0  0  0
    1.0865   -3.4001    2.5889 H   0  0  0  0  0  0  0  0  0  0  0  0
    1.2662   -3.8266    0.8699 H   0  0  0  0  0  0  0  0  0  0  0  0
  5  6  2  0  0  0  0
  5  7  1  0  0  0  0
  2  3  1  0  0  0  0
  2  4  1  0  0  0  0
  2  5  1  0  0  0  0
  1  2  1  0  0  0  0
 29 30  2  0  0  0  0
 29 31  1  0  0  0  0
 26 27  1  0  0  0  0
 26 28  2  0  0  0  0
 24 25  1  0  0  0  0
 24 26  1  0  0  0  0
 22 23  1  0  0  0  0
 22 24  2  0  0  0  0
 20 21  1  0  0  0  0
 20 22  1  0  0  0  0
 19 20  2  0  0  0  0
 19 28  1  0  0  0  0
 17 18  1  0  0  0  0
 17 19  1  0  0  0  0
 15 16  1  0  0  0  0
 15 17  1  0  0  0  0
 14 15  2  0  0  0  0
 14 28  1  0  0  0  0
 11 12  1  0  0  0  0
 11 13  1  0  0  0  0
 11 14  1  0  0  0  0
  9 10  1  0  0  0  0
  9 11  1  0  0  0  0
  9 29  1  0  0  0  0
  7  8  1  0  0  0  0
  7  9  1  0  0  0  0
 33 34  1  0  0  0  0
 33 35  1  0  0  0  0
 33 36  1  0  0  0  0
 31 32  1  0  0  0  0
 31 33  1  0  0  0  0
M  END
$$$$
default_name
  -OEChem-12212115393D

 36 37  0     1  0  0  0  0  0999 V2000
   -4.0843   -4.0736    1.2944 H   0  0  0  0  0  0  0  0  0  0  0  0
   -4.0342   -3.2816    0.5484 C   0  0  0  0  0  0  0  0  0  0  0  0
   -4.8842   -2.6126    0.6694 H   0  0  0  0  0  0  0  0  0  0  0  0
   -4.0433   -3.7186   -0.4486 H   0  0  0  0  0  0  0  0  0  0  0  0
   -2.7532   -2.5046    0.7444 C   0  0  0  0  0  0  0  0  0  0  0  0
   -1.9803   -2.8096    1.6434 O   0  0  0  0  0  0  0  0  0  0  0  0
   -2.5332   -1.4966   -0.0966 N   0  0  0  0  0  0  0  0  0  0  0  0
   -3.2312   -1.2816   -0.7936 H   0  0  0  0  0  0  0  0  0  0  0  0
   -1.3593   -0.6196   -0.0536 C   0  0  1  0  0  0  0  0  0  0  0  0
   -1.2803   -0.0947   -1.0064 H   0  0  0  0  0  0  0  0  0  0  0  0
   -1.5420    0.4271    1.0567 C   0  0  0  0  0  0  0  0  0  0  0  0
   -0.6738    1.0885    1.0628 H   0  0  0  0  0  0  0  0  0  0  0  0
   -2.4178    1.0340    0.8211 H   0  0  0  0  0  0  0  0  0  0  0  0
   -1.7087   -0.1315    2.4374 C   0  0  0  0  0  0  0  0  0  0  0  0
   -0.7046   -0.4249    3.2937 C   0  0  0  0  0  0  0  0  0  0  0  0
    0.3503   -0.3064    3.0717 H   0  0  0  0  0  0  0  0  0  0  0  0
   -1.2304   -0.8745    4.4891 N   0  0  0  0  0  0  0  0  0  0  0  0
   -0.6640   -1.1560    5.2759 H   0  0  0  0  0  0  0  0  0  0  0  0
   -2.6089   -0.8774    4.4680 C   0  0  0  0  0  0  0  0  0  0  0  0
   -3.5810   -1.2113    5.4219 C   0  0  0  0  0  0  0  0  0  0  0  0
   -3.2894   -1.5522    6.4045 H   0  0  0  0  0  0  0  0  0  0  0  0
   -4.9396   -1.0979    5.0809 C   0  0  0  0  0  0  0  0  0  0  0  0
   -5.7034   -1.3520    5.8034 H   0  0  0  0  0  0  0  0  0  0  0  0
   -5.3052   -0.6594    3.7951 C   0  0  0  0  0  0  0  0  0  0  0  0
   -6.3516   -0.5815    3.5341 H   0  0  0  0  0  0  0  0  0  0  0  0
   -4.3196   -0.3283    2.8436 C   0  0  0  0  0  0  0  0  0  0  0  0
   -4.6141   -0.0055    1.8551 H   0  0  0  0  0  0  0  0  0  0  0  0
   -2.9466   -0.4257    3.1572 C   0  0  0  0  0  0  0  0  0  0  0  0
   -0.0675   -1.4299    0.1359 C   0  0  0  0  0  0  0  0  0  0  0  0
    0.9253   -1.1814   -0.5469 O   0  0  0  0  0  0  0  0  0  0  0  0
   -0.0815   -2.3989    1.0611 N   0  0  0  0  0  0  0  0  0  0  0  0
   -0.9528   -2.5752    1.5408 H   0  0  0  0  0  0  0  0  0  0  0  0
    1.0585   -3.2582    1.3683 C   0  0  0  0  0  0  0  0  0  0  0  0
    1.9394   -2.6444    1.5661 H   0  0  0  0  0  0  0  0  0  0  0  0
    0.8415   -3.8714    2.2439 H   0  0  0  0  0  0  0  0  0  0  0  0
    1.2680   -3.9065    0.5158 H   0  0  0  0  0  0  0  0  0  0  0  0
  5  6  2  0  0  0  0
  5  7  1  0  0  0  0
  2  3  1  0  0  0  0
  2  4  1  0  0  0  0
  2  5  1  0  0  0  0
  1  2  1  0  0  0  0
 29 30  2  0  0  0  0
 29 31  1  0  0  0  0
 26 27  1  0  0  0  0
 26 28  2  0  0  0  0
 24 25  1  0  0  0  0
 24 26  1  0  0  0  0
 22 23  1  0  0  0  0
 22 24  2  0  0  0  0
 20 21  1  0  0  0  0
 20 22  1  0  0  0  0
 19 20  2  0  0  0  0
 19 28  1  0  0  0  0
 17 18  1  0  0  0  0
 17 19  1  0  0  0  0
 15 16  1  0  0  0  0
 15 17  1  0  0  0  0
 14 15  2  0  0  0  0
 14 28  1  0  0  0  0
 11 12  1  0  0  0  0
 11 13  1  0  0  0  0
 11 14  1  0  0  0  0
  9 10  1  0  0  0  0
  9 11  1  0  0  0  0
  9 29  1  0  0  0  0
  7  8  1  0  0  0  0
  7  9  1  0  0  0  0
 33 34  1  0  0  0  0
 33 35  1  0  0  0  0
 33 36  1  0  0  0  0
 31 32  1  0  0  0  0
 31 33  1  0  0  0  0
M  END
$$$$
default_name
  -OEChem-12212115393D

 36 37  0     1  0  0  0  0  0999 V2000
   -4.0843   -4.0736    1.2944 H   0  0  0  0  0  0  0  0  0  0  0  0
   -4.0342   -3.2816    0.5484 C   0  0  0  0  0  0  0  0  0  0  0  0
   -4.8842   -2.6126    0.6694 H   0  0  0  0  0  0  0  0  0  0  0  0
   -4.0433   -3.7186   -0.4486 H   0  0  0  0  0  0  0  0  0  0  0  0
   -2.7532   -2.5046    0.7444 C   0  0  0  0  0  0  0  0  0  0  0  0
   -1.9803   -2.8096    1.6434 O   0  0  0  0  0  0  0  0  0  0  0  0
   -2.5332   -1.4966   -0.0966 N   0  0  0  0  0  0  0  0  0  0  0  0
   -3.2312   -1.2816   -0.7936 H   0  0  0  0  0  0  0  0  0  0  0  0
   -1.3593   -0.6196   -0.0536 C   0  0  1  0  0  0  0  0  0  0  0  0
   -1.2803   -0.0947   -1.0064 H   0  0  0  0  0  0  0  0  0  0  0  0
   -1.5420    0.4271    1.0567 C   0  0  0  0  0  0  0  0  0  0  0  0
   -0.6738    1.0885    1.0628 H   0  0  0  0  0  0  0  0  0  0  0  0
   -2.4178    1.0340    0.8211 H   0  0  0  0  0  0  0  0  0  0  0  0
   -1.7087   -0.1315    2.4374 C   0  0  0  0  0  0  0  0  0  0  0  0
   -0.7046   -0.4249    3.2937 C   0  0  0  0  0  0  0  0  0  0  0  0
    0.3503   -0.3064    3.0717 H   0  0  0  0  0  0  0  0  0  0  0  0
   -1.2304   -0.8745    4.4891 N   0  0  0  0  0  0  0  0  0  0  0  0
   -0.6640   -1.1560    5.2759 H   0  0  0  0  0  0  0  0  0  0  0  0
   -2.6089   -0.8774    4.4680 C   0  0  0  0  0  0  0  0  0  0  0  0
   -3.5810   -1.2113    5.4219 C   0  0  0  0  0  0  0  0  0  0  0  0
   -3.2894   -1.5522    6.4045 H   0  0  0  0  0  0  0  0  0  0  0  0
   -4.9396   -1.0979    5.0809 C   0  0  0  0  0  0  0  0  0  0  0  0
   -5.7034   -1.3520    5.8034 H   0  0  0  0  0  0  0  0  0  0  0  0
   -5.3052   -0.6594    3.7951 C   0  0  0  0  0  0  0  0  0  0  0  0
   -6.3516   -0.5815    3.5341 H   0  0  0  0  0  0  0  0  0  0  0  0
   -4.3196   -0.3283    2.8436 C   0  0  0  0  0  0  0  0  0  0  0  0
   -4.6141   -0.0055    1.8551 H   0  0  0  0  0  0  0  0  0  0  0  0
   -2.9466   -0.4257    3.1572 C   0  0  0  0  0  0  0  0  0  0  0  0
   -0.0675   -1.4299    0.1359 C   0  0  0  0  0  0  0  0  0  0  0  0
    0.9944   -1.0207   -0.3315 O   0  0  0  0  0  0  0  0  0  0  0  0
   -0.1588   -2.5787    0.8194 N   0  0  0  0  0  0  0  0  0  0  0  0
   -1.0768   -2.8707    1.1231 H   0  0  0  0  0  0  0  0  0  0  0  0
    0.9694   -3.4651    1.0908 C   0  0  0  0  0  0  0  0  0  0  0  0
    1.7863   -2.8951    1.5376 H   0  0  0  0  0  0  0  0  0  0  0  0
    0.6670   -4.2593    1.7746 H   0  0  0  0  0  0  0  0  0  0  0  0
    1.3206   -3.9066    0.1567 H   0  0  0  0  0  0  0  0  0  0  0  0
  5  6  2  0  0  0  0
  5  7  1  0  0  0  0
  2  3  1  0  0  0  0
  2  4  1  0  0  0  0
  2  5  1  0  0  0  0
  1  2  1  0  0  0  0
 29 30  2  0  0  0  0
 29 31  1  0  0  0  0
 26 27  1  0  0  0  0
 26 28  2  0  0  0  0
 24 25  1  0  0  0  0
 24 26  1  0  0  0  0
 22 23  1  0  0  0  0
 22 24  2  0  0  0  0
 20 21  1  0  0  0  0
 20 22  1  0  0  0  0
 19 20  2  0  0  0  0
 19 28  1  0  0  0  0
 17 18  1  0  0  0  0
 17 19  1  0  0  0  0
 15 16  1  0  0  0  0
 15 17  1  0  0  0  0
 14 15  2  0  0  0  0
 14 28  1  0  0  0  0
 11 12  1  0  0  0  0
 11 13  1  0  0  0  0
 11 14  1  0  0  0  0
  9 10  1  0  0  0  0
  9 11  1  0  0  0  0
  9 29  1  0  0  0  0
  7  8  1  0  0  0  0
  7  9  1  0  0  0  0
 33 34  1  0  0  0  0
 33 35  1  0  0  0  0
 33 36  1  0  0  0  0
 31 32  1  0  0  0  0
 31 33  1  0  0  0  0
M  END
$$$$
default_name
  -OEChem-12212115393D

 36 37  0     1  0  0  0  0  0999 V2000
   -4.0843   -4.0736    1.2944 H   0  0  0  0  0  0  0  0  0  0  0  0
   -4.0342   -3.2816    0.5484 C   0  0  0  0  0  0  0  0  0  0  0  0
   -4.8842   -2.6126    0.6694 H   0  0  0  0  0  0  0  0  0  0  0  0
   -4.0433   -3.7186   -0.4486 H   0  0  0  0  0  0  0  0  0  0  0  0
   -2.7532   -2.5046    0.7444 C   0  0  0  0  0  0  0  0  0  0  0  0
   -1.9803   -2.8096    1.6434 O   0  0  0  0  0  0  0  0  0  0  0  0
   -2.5332   -1.4966   -0.0966 N   0  0  0  0  0  0  0  0  0  0  0  0
   -3.2312   -1.2816   -0.7936 H   0  0  0  0  0  0  0  0  0  0  0  0
   -1.3593   -0.6196   -0.0536 C   0  0  1  0  0  0  0  0  0  0  0  0
   -1.2803   -0.0947   -1.0064 H   0  0  0  0  0  0  0  0  0  0  0  0
   -1.5420    0.4271    1.0567 C   0  0  0  0  0  0  0  0  0  0  0  0
   -0.6738    1.0885    1.0628 H   0  0  0  0  0  0  0  0  0  0  0  0
   -2.4178    1.0340    0.8211 H   0  0  0  0  0  0  0  0  0  0  0  0
   -1.7087   -0.1315    2.4374 C   0  0  0  0  0  0  0  0  0  0  0  0
   -0.7046   -0.4249    3.2937 C   0  0  0  0  0  0  0  0  0  0  0  0
    0.3503   -0.3064    3.0717 H   0  0  0  0  0  0  0  0  0  0  0  0
   -1.2304   -0.8745    4.4891 N   0  0  0  0  0  0  0  0  0  0  0  0
   -0.6640   -1.1560    5.2759 H   0  0  0  0  0  0  0  0  0  0  0  0
   -2.6089   -0.8774    4.4680 C   0  0  0  0  0  0  0  0  0  0  0  0
   -3.5810   -1.2113    5.4219 C   0  0  0  0  0  0  0  0  0  0  0  0
   -3.2894   -1.5522    6.4045 H   0  0  0  0  0  0  0  0  0  0  0  0
   -4.9396   -1.0979    5.0809 C   0  0  0  0  0  0  0  0  0  0  0  0
   -5.7034   -1.3520    5.8034 H   0  0  0  0  0  0  0  0  0  0  0  0
   -5.3052   -0.6594    3.7951 C   0  0  0  0  0  0  0  0  0  0  0  0
   -6.3516   -0.5815    3.5341 H   0  0  0  0  0  0  0  0  0  0  0  0
   -4.3196   -0.3283    2.8436 C   0  0  0  0  0  0  0  0  0  0  0  0
   -4.6141   -0.0055    1.8551 H   0  0  0  0  0  0  0  0  0  0  0  0
   -2.9466   -0.4257    3.1572 C   0  0  0  0  0  0  0  0  0  0  0  0
   -0.0675   -1.4299    0.1359 C   0  0  0  0  0  0  0  0  0  0  0  0
    1.0267   -0.9102   -0.0790 O   0  0  0  0  0  0  0  0  0  0  0  0
   -0.1947   -2.7022    0.5363 N   0  0  0  0  0  0  0  0  0  0  0  0
   -1.1302   -3.0692    0.6383 H   0  0  0  0  0  0  0  0  0  0  0  0
    0.9278   -3.6075    0.7657 C   0  0  0  0  0  0  0  0  0  0  0  0
    1.6503   -3.1359    1.4345 H   0  0  0  0  0  0  0  0  0  0  0  0
    0.5749   -4.5375    1.2131 H   0  0  0  0  0  0  0  0  0  0  0  0
    1.4205   -3.8269   -0.1830 H   0  0  0  0  0  0  0  0  0  0  0  0
  5  6  2  0  0  0  0
  5  7  1  0  0  0  0
  2  3  1  0  0  0  0
  2  4  1  0  0  0  0
  2  5  1  0  0  0  0
  1  2  1  0  0  0  0
 29 30  2  0  0  0  0
 29 31  1  0  0  0  0
 26 27  1  0  0  0  0
 26 28  2  0  0  0  0
 24 25  1  0  0  0  0
 24 26  1  0  0  0  0
 22 23  1  0  0  0  0
 22 24  2  0  0  0  0
 20 21  1  0  0  0  0
 20 22  1  0  0  0  0
 19 20  2  0  0  0  0
 19 28  1  0  0  0  0
 17 18  1  0  0  0  0
 17 19  1  0  0  0  0
 15 16  1  0  0  0  0
 15 17  1  0  0  0  0
 14 15  2  0  0  0  0
 14 28  1  0  0  0  0
 11 12  1  0  0  0  0
 11 13  1  0  0  0  0
 11 14  1  0  0  0  0
  9 10  1  0  0  0  0
  9 11  1  0  0  0  0
  9 29  1  0  0  0  0
  7  8  1  0  0  0  0
  7  9  1  0  0  0  0
 33 34  1  0  0  0  0
 33 35  1  0  0  0  0
 33 36  1  0  0  0  0
 31 32  1  0  0  0  0
 31 33  1  0  0  0  0
M  END
$$$$
default_name
  -OEChem-12212115393D

 36 37  0     1  0  0  0  0  0999 V2000
   -4.0843   -4.0736    1.2944 H   0  0  0  0  0  0  0  0  0  0  0  0
   -4.0342   -3.2816    0.5484 C   0  0  0  0  0  0  0  0  0  0  0  0
   -4.8842   -2.6126    0.6694 H   0  0  0  0  0  0  0  0  0  0  0  0
   -4.0433   -3.7186   -0.4486 H   0  0  0  0  0  0  0  0  0  0  0  0
   -2.7532   -2.5046    0.7444 C   0  0  0  0  0  0  0  0  0  0  0  0
   -1.9803   -2.8096    1.6434 O   0  0  0  0  0  0  0  0  0  0  0  0
   -2.5332   -1.4966   -0.0966 N   0  0  0  0  0  0  0  0  0  0  0  0
   -3.2312   -1.2816   -0.7936 H   0  0  0  0  0  0  0  0  0  0  0  0
   -1.3593   -0.6196   -0.0536 C   0  0  1  0  0  0  0  0  0  0  0  0
   -1.2803   -0.0947   -1.0064 H   0  0  0  0  0  0  0  0  0  0  0  0
   -1.5420    0.4271    1.0567 C   0  0  0  0  0  0  0  0  0  0  0  0
   -0.6738    1.0885    1.0628 H   0  0  0  0  0  0  0  0  0  0  0  0
   -2.4178    1.0340    0.8211 H   0  0  0  0  0  0  0  0  0  0  0  0
   -1.7087   -0.1315    2.4374 C   0  0  0  0  0  0  0  0  0  0  0  0
   -0.7046   -0.4249    3.2937 C   0  0  0  0  0  0  0  0  0  0  0  0
    0.3503   -0.3064    3.0717 H   0  0  0  0  0  0  0  0  0  0  0  0
   -1.2304   -0.8745    4.4891 N   0  0  0  0  0  0  0  0  0  0  0  0
   -0.6640   -1.1560    5.2759 H   0  0  0  0  0  0  0  0  0  0  0  0
   -2.6089   -0.8774    4.4680 C   0  0  0  0  0  0  0  0  0  0  0  0
   -3.5810   -1.2113    5.4219 C   0  0  0  0  0  0  0  0  0  0  0  0
   -3.2894   -1.5522    6.4045 H   0  0  0  0  0  0  0  0  0  0  0  0
   -4.9396   -1.0979    5.0809 C   0  0  0  0  0  0  0  0  0  0  0  0
   -5.7034   -1.3520    5.8034 H   0  0  0  0  0  0  0  0  0  0  0  0
   -5.3052   -0.6594    3.7951 C   0  0  0  0  0  0  0  0  0  0  0  0
   -6.3516   -0.5815    3.5341 H   0  0  0  0  0  0  0  0  0  0  0  0
   -4.3196   -0.3283    2.8436 C   0  0  0  0  0  0  0  0  0  0  0  0
   -4.6141   -0.0055    1.8551 H   0  0  0  0  0  0  0  0  0  0  0  0
   -2.9466   -0.4257    3.1572 C   0  0  0  0  0  0  0  0  0  0  0  0
   -0.0675   -1.4299    0.1359 C   0  0  0  0  0  0  0  0  0  0  0  0
    1.0199   -0.8574    0.1934 O   0  0  0  0  0  0  0  0  0  0  0  0
   -0.1868   -2.7610    0.2311 N   0  0  0  0  0  0  0  0  0  0  0  0
   -1.1093   -3.1571    0.1197 H   0  0  0  0  0  0  0  0  0  0  0  0
    0.9366   -3.6756    0.4150 C   0  0  0  0  0  0  0  0  0  0  0  0
    1.5407   -3.3505    1.2641 H   0  0  0  0  0  0  0  0  0  0  0  0
    0.5714   -4.6870    0.5977 H   0  0  0  0  0  0  0  0  0  0  0  0
    1.5607   -3.6728   -0.4802 H   0  0  0  0  0  0  0  0  0  0  0  0
  5  6  2  0  0  0  0
  5  7  1  0  0  0  0
  2  3  1  0  0  0  0
  2  4  1  0  0  0  0
  2  5  1  0  0  0  0
  1  2  1  0  0  0  0
 29 30  2  0  0  0  0
 29 31  1  0  0  0  0
 26 27  1  0  0  0  0
 26 28  2  0  0  0  0
 24 25  1  0  0  0  0
 24 26  1  0  0  0  0
 22 23  1  0  0  0  0
 22 24  2  0  0  0  0
 20 21  1  0  0  0  0
 20 22  1  0  0  0  0
 19 20  2  0  0  0  0
 19 28  1  0  0  0  0
 17 18  1  0  0  0  0
 17 19  1  0  0  0  0
 15 16  1  0  0  0  0
 15 17  1  0  0  0  0
 14 15  2  0  0  0  0
 14 28  1  0  0  0  0
 11 12  1  0  0  0  0
 11 13  1  0  0  0  0
 11 14  1  0  0  0  0
  9 10  1  0  0  0  0
  9 11  1  0  0  0  0
  9 29  1  0  0  0  0
  7  8  1  0  0  0  0
  7  9  1  0  0  0  0
 33 34  1  0  0  0  0
 33 35  1  0  0  0  0
 33 36  1  0  0  0  0
 31 32  1  0  0  0  0
 31 33  1  0  0  0  0
M  END
$$$$
default_name
  -OEChem-12212115393D

 36 37  0     1  0  0  0  0  0999 V2000
   -4.0843   -4.0736    1.2944 H   0  0  0  0  0  0  0  0  0  0  0  0
   -4.0342   -3.2816    0.5484 C   0  0  0  0  0  0  0  0  0  0  0  0
   -4.8842   -2.6126    0.6694 H   0  0  0  0  0  0  0  0  0  0  0  0
   -4.0433   -3.7186   -0.4486 H   0  0  0  0  0  0  0  0  0  0  0  0
   -2.7532   -2.5046    0.7444 C   0  0  0  0  0  0  0  0  0  0  0  0
   -1.9803   -2.8096    1.6434 O   0  0  0  0  0  0  0  0  0  0  0  0
   -2.5332   -1.4966   -0.0966 N   0  0  0  0  0  0  0  0  0  0  0  0
   -3.2312   -1.2816   -0.7936 H   0  0  0  0  0  0  0  0  0  0  0  0
   -1.3593   -0.6196   -0.0536 C   0  0  1  0  0  0  0  0  0  0  0  0
   -1.2803   -0.0947   -1.0064 H   0  0  0  0  0  0  0  0  0  0  0  0
   -1.5420    0.4271    1.0567 C   0  0  0  0  0  0  0  0  0  0  0  0
   -0.6738    1.0885    1.0628 H   0  0  0  0  0  0  0  0  0  0  0  0
   -2.4178    1.0340    0.8211 H   0  0  0  0  0  0  0  0  0  0  0  0
   -1.7087   -0.1315    2.4374 C   0  0  0  0  0  0  0  0  0  0  0  0
   -0.7046   -0.4249    3.2937 C   0  0  0  0  0  0  0  0  0  0  0  0
    0.3503   -0.3064    3.0717 H   0  0  0  0  0  0  0  0  0  0  0  0
   -1.2304   -0.8745    4.4891 N   0  0  0  0  0  0  0  0  0  0  0  0
   -0.6640   -1.1560    5.2759 H   0  0  0  0  0  0  0  0  0  0  0  0
   -2.6089   -0.8774    4.4680 C   0  0  0  0  0  0  0  0  0  0  0  0
   -3.5810   -1.2113    5.4219 C   0  0  0  0  0  0  0  0  0  0  0  0
   -3.2894   -1.5522    6.4045 H   0  0  0  0  0  0  0  0  0  0  0  0
   -4.9396   -1.0979    5.0809 C   0  0  0  0  0  0  0  0  0  0  0  0
   -5.7034   -1.3520    5.8034 H   0  0  0  0  0  0  0  0  0  0  0  0
   -5.3052   -0.6594    3.7951 C   0  0  0  0  0  0  0  0  0  0  0  0
   -6.3516   -0.5815    3.5341 H   0  0  0  0  0  0  0  0  0  0  0  0
   -4.3196   -0.3283    2.8436 C   0  0  0  0  0  0  0  0  0  0  0  0
   -4.6141   -0.0055    1.8551 H   0  0  0  0  0  0  0  0  0  0  0  0
   -2.9466   -0.4257    3.1572 C   0  0  0  0  0  0  0  0  0  0  0  0
   -0.0675   -1.4299    0.1359 C   0  0  0  0  0  0  0  0  0  0  0  0
    0.9745   -0.8658    0.4670 O   0  0  0  0  0  0  0  0  0  0  0  0
   -0.1357   -2.7512   -0.0755 N   0  0  0  0  0  0  0  0  0  0  0  0
   -1.0155   -3.1286   -0.3976 H   0  0  0  0  0  0  0  0  0  0  0  0
    0.9951   -3.6648    0.0625 C   0  0  0  0  0  0  0  0  0  0  0  0
    1.4650   -3.5242    1.0378 H   0  0  0  0  0  0  0  0  0  0  0  0
    0.6568   -4.6977   -0.0298 H   0  0  0  0  0  0  0  0  0  0  0  0
    1.7319   -3.4548   -0.7146 H   0  0  0  0  0  0  0  0  0  0  0  0
  5  6  2  0  0  0  0
  5  7  1  0  0  0  0
  2  3  1  0  0  0  0
  2  4  1  0  0  0  0
  2  5  1  0  0  0  0
  1  2  1  0  0  0  0
 29 30  2  0  0  0  0
 29 31  1  0  0  0  0
 26 27  1  0  0  0  0
 26 28  2  0  0  0  0
 24 25  1  0  0  0  0
 24 26  1  0  0  0  0
 22 23  1  0  0  0  0
 22 24  2  0  0  0  0
 20 21  1  0  0  0  0
 20 22  1  0  0  0  0
 19 20  2  0  0  0  0
 19 28  1  0  0  0  0
 17 18  1  0  0  0  0
 17 19  1  0  0  0  0
 15 16  1  0  0  0  0
 15 17  1  0  0  0  0
 14 15  2  0  0  0  0
 14 28  1  0  0  0  0
 11 12  1  0  0  0  0
 11 13  1  0  0  0  0
 11 14  1  0  0  0  0
  9 10  1  0  0  0  0
  9 11  1  0  0  0  0
  9 29  1  0  0  0  0
  7  8  1  0  0  0  0
  7  9  1  0  0  0  0
 33 34  1  0  0  0  0
 33 35  1  0  0  0  0
 33 36  1  0  0  0  0
 31 32  1  0  0  0  0
 31 33  1  0  0  0  0
M  END
$$$$
default_name
  -OEChem-12212115393D

 36 37  0     1  0  0  0  0  0999 V2000
   -4.0843   -4.0736    1.2944 H   0  0  0  0  0  0  0  0  0  0  0  0
   -4.0342   -3.2816    0.5484 C   0  0  0  0  0  0  0  0  0  0  0  0
   -4.8842   -2.6126    0.6694 H   0  0  0  0  0  0  0  0  0  0  0  0
   -4.0433   -3.7186   -0.4486 H   0  0  0  0  0  0  0  0  0  0  0  0
   -2.7532   -2.5046    0.7444 C   0  0  0  0  0  0  0  0  0  0  0  0
   -1.9803   -2.8096    1.6434 O   0  0  0  0  0  0  0  0  0  0  0  0
   -2.5332   -1.4966   -0.0966 N   0  0  0  0  0  0  0  0  0  0  0  0
   -3.2312   -1.2816   -0.7936 H   0  0  0  0  0  0  0  0  0  0  0  0
   -1.3593   -0.6196   -0.0536 C   0  0  1  0  0  0  0  0  0  0  0  0
   -1.2803   -0.0947   -1.0064 H   0  0  0  0  0  0  0  0  0  0  0  0
   -1.5420    0.4271    1.0567 C   0  0  0  0  0  0  0  0  0  0  0  0
   -0.6738    1.0885    1.0628 H   0  0  0  0  0  0  0  0  0  0  0  0
   -2.4178    1.0340    0.8211 H   0  0  0  0  0  0  0  0  0  0  0  0
   -1.7087   -0.1315    2.4374 C   0  0  0  0  0  0  0  0  0  0  0  0
   -0.7046   -0.4249    3.2937 C   0  0  0  0  0  0  0  0  0  0  0  0
    0.3503   -0.3064    3.0717 H   0  0  0  0  0  0  0  0  0  0  0  0
   -1.2304   -0.8745    4.4891 N   0  0  0  0  0  0  0  0  0  0  0  0
   -0.6640   -1.1560    5.2759 H   0  0  0  0  0  0  0  0  0  0  0  0
   -2.6089   -0.8774    4.4680 C   0  0  0  0  0  0  0  0  0  0  0  0
   -3.5810   -1.2113    5.4219 C   0  0  0  0  0  0  0  0  0  0  0  0
   -3.2894   -1.5522    6.4045 H   0  0  0  0  0  0  0  0  0  0  0  0
   -4.9396   -1.0979    5.0809 C   0  0  0  0  0  0  0  0  0  0  0  0
   -5.7034   -1.3520    5.8034 H   0  0  0  0  0  0  0  0  0  0  0  0
   -5.3052   -0.6594    3.7951 C   0  0  0  0  0  0  0  0  0  0  0  0
   -6.3516   -0.5815    3.5341 H   0  0  0  0  0  0  0  0  0  0  0  0
   -4.3196   -0.3283    2.8436 C   0  0  0  0  0  0  0  0  0  0  0  0
   -4.6141   -0.0055    1.8551 H   0  0  0  0  0  0  0  0  0  0  0  0
   -2.9466   -0.4257    3.1572 C   0  0  0  0  0  0  0  0  0  0  0  0
   -0.0675   -1.4299    0.1359 C   0  0  0  0  0  0  0  0  0  0  0  0
    0.8935   -0.9349    0.7233 O   0  0  0  0  0  0  0  0  0  0  0  0
   -0.0448   -2.6734   -0.3625 N   0  0  0  0  0  0  0  0  0  0  0  0
   -0.8552   -2.9855   -0.8783 H   0  0  0  0  0  0  0  0  0  0  0  0
    1.0993   -3.5758   -0.2675 C   0  0  0  0  0  0  0  0  0  0  0  0
    1.4283   -3.6451    0.7711 H   0  0  0  0  0  0  0  0  0  0  0  0
    0.8253   -4.5687   -0.6266 H   0  0  0  0  0  0  0  0  0  0  0  0
    1.9222   -3.1878   -0.8702 H   0  0  0  0  0  0  0  0  0  0  0  0
  5  6  2  0  0  0  0
  5  7  1  0  0  0  0
  2  3  1  0  0  0  0
  2  4  1  0  0  0  0
  2  5  1  0  0  0  0
  1  2  1  0  0  0  0
 29 30  2  0  0  0  0
 29 31  1  0  0  0  0
 26 27  1  0  0  0  0
 26 28  2  0  0  0  0
 24 25  1  0  0  0  0
 24 26  1  0  0  0  0
 22 23  1  0  0  0  0
 22 24  2  0  0  0  0
 20 21  1  0  0  0  0
 20 22  1  0  0  0  0
 19 20  2  0  0  0  0
 19 28  1  0  0  0  0
 17 18  1  0  0  0  0
 17 19  1  0  0  0  0
 15 16  1  0  0  0  0
 15 17  1  0  0  0  0
 14 15  2  0  0  0  0
 14 28  1  0  0  0  0
 11 12  1  0  0  0  0
 11 13  1  0  0  0  0
 11 14  1  0  0  0  0
  9 10  1  0  0  0  0
  9 11  1  0  0  0  0
  9 29  1  0  0  0  0
  7  8  1  0  0  0  0
  7  9  1  0  0  0  0
 33 34  1  0  0  0  0
 33 35  1  0  0  0  0
 33 36  1  0  0  0  0
 31 32  1  0  0  0  0
 31 33  1  0  0  0  0
M  END
$$$$
default_name
  -OEChem-12212115393D

 36 37  0     1  0  0  0  0  0999 V2000
   -4.0843   -4.0736    1.2944 H   0  0  0  0  0  0  0  0  0  0  0  0
   -4.0342   -3.2816    0.5484 C   0  0  0  0  0  0  0  0  0  0  0  0
   -4.8842   -2.6126    0.6694 H   0  0  0  0  0  0  0  0  0  0  0  0
   -4.0433   -3.7186   -0.4486 H   0  0  0  0  0  0  0  0  0  0  0  0
   -2.7532   -2.5046    0.7444 C   0  0  0  0  0  0  0  0  0  0  0  0
   -1.9803   -2.8096    1.6434 O   0  0  0  0  0  0  0  0  0  0  0  0
   -2.5332   -1.4966   -0.0966 N   0  0  0  0  0  0  0  0  0  0  0  0
   -3.2312   -1.2816   -0.7936 H   0  0  0  0  0  0  0  0  0  0  0  0
   -1.3593   -0.6196   -0.0536 C   0  0  1  0  0  0  0  0  0  0  0  0
   -1.2803   -0.0947   -1.0064 H   0  0  0  0  0  0  0  0  0  0  0  0
   -1.5420    0.4271    1.0567 C   0  0  0  0  0  0  0  0  0  0  0  0
   -0.6738    1.0885    1.0628 H   0  0  0  0  0  0  0  0  0  0  0  0
   -2.4178    1.0340    0.8211 H   0  0  0  0  0  0  0  0  0  0  0  0
   -1.7087   -0.1315    2.4374 C   0  0  0  0  0  0  0  0  0  0  0  0
   -0.7046   -0.4249    3.2937 C   0  0  0  0  0  0  0  0  0  0  0  0
    0.3503   -0.3064    3.0717 H   0  0  0  0  0  0  0  0  0  0  0  0
   -1.2304   -0.8745    4.4891 N   0  0  0  0  0  0  0  0  0  0  0  0
   -0.6640   -1.1560    5.2759 H   0  0  0  0  0  0  0  0  0  0  0  0
   -2.6089   -0.8774    4.4680 C   0  0  0  0  0  0  0  0  0  0  0  0
   -3.5810   -1.2113    5.4219 C   0  0  0  0  0  0  0  0  0  0  0  0
   -3.2894   -1.5522    6.4045 H   0  0  0  0  0  0  0  0  0  0  0  0
   -4.9396   -1.0979    5.0809 C   0  0  0  0  0  0  0  0  0  0  0  0
   -5.7034   -1.3520    5.8034 H   0  0  0  0  0  0  0  0  0  0  0  0
   -5.3052   -0.6594    3.7951 C   0  0  0  0  0  0  0  0  0  0  0  0
   -6.3516   -0.5815    3.5341 H   0  0  0  0  0  0  0  0  0  0  0  0
   -4.3196   -0.3283    2.8436 C   0  0  0  0  0  0  0  0  0  0  0  0
   -4.6141   -0.0055    1.8551 H   0  0  0  0  0  0  0  0  0  0  0  0
   -2.9466   -0.4257    3.1572 C   0  0  0  0  0  0  0  0  0  0  0  0
   -0.0675   -1.4299    0.1359 C   0  0  0  0  0  0  0  0  0  0  0  0
    0.7825   -1.0600    0.9447 O   0  0  0  0  0  0  0  0  0  0  0  0
    0.0798   -2.5328   -0.6104 N   0  0  0  0  0  0  0  0  0  0  0  0
   -0.6393   -2.7375   -1.2896 H   0  0  0  0  0  0  0  0  0  0  0  0
    1.2422   -3.4147   -0.5528 C   0  0  0  0  0  0  0  0  0  0  0  0
    1.4331   -3.7050    0.4821 H   0  0  0  0  0  0  0  0  0  0  0  0
    1.0654   -4.3088   -1.1520 H   0  0  0  0  0  0  0  0  0  0  0  0
    2.1187   -2.8900   -0.9364 H   0  0  0  0  0  0  0  0  0  0  0  0
  5  6  2  0  0  0  0
  5  7  1  0  0  0  0
  2  3  1  0  0  0  0
  2  4  1  0  0  0  0
  2  5  1  0  0  0  0
  1  2  1  0  0  0  0
 29 30  2  0  0  0  0
 29 31  1  0  0  0  0
 26 27  1  0  0  0  0
 26 28  2  0  0  0  0
 24 25  1  0  0  0  0
 24 26  1  0  0  0  0
 22 23  1  0  0  0  0
 22 24  2  0  0  0  0
 20 21  1  0  0  0  0
 20 22  1  0  0  0  0
 19 20  2  0  0  0  0
 19 28  1  0  0  0  0
 17 18  1  0  0  0  0
 17 19  1  0  0  0  0
 15 16  1  0  0  0  0
 15 17  1  0  0  0  0
 14 15  2  0  0  0  0
 14 28  1  0  0  0  0
 11 12  1  0  0  0  0
 11 13  1  0  0  0  0
 11 14  1  0  0  0  0
  9 10  1  0  0  0  0
  9 11  1  0  0  0  0
  9 29  1  0  0  0  0
  7  8  1  0  0  0  0
  7  9  1  0  0  0  0
 33 34  1  0  0  0  0
 33 35  1  0  0  0  0
 33 36  1  0  0  0  0
 31 32  1  0  0  0  0
 31 33  1  0  0  0  0
M  END
$$$$
default_name
  -OEChem-12212115393D

 36 37  0     1  0  0  0  0  0999 V2000
   -4.0843   -4.0736    1.2944 H   0  0  0  0  0  0  0  0  0  0  0  0
   -4.0342   -3.2816    0.5484 C   0  0  0  0  0  0  0  0  0  0  0  0
   -4.8842   -2.6126    0.6694 H   0  0  0  0  0  0  0  0  0  0  0  0
   -4.0433   -3.7186   -0.4486 H   0  0  0  0  0  0  0  0  0  0  0  0
   -2.7532   -2.5046    0.7444 C   0  0  0  0  0  0  0  0  0  0  0  0
   -1.9803   -2.8096    1.6434 O   0  0  0  0  0  0  0  0  0  0  0  0
   -2.5332   -1.4966   -0.0966 N   0  0  0  0  0  0  0  0  0  0  0  0
   -3.2312   -1.2816   -0.7936 H   0  0  0  0  0  0  0  0  0  0  0  0
   -1.3593   -0.6196   -0.0536 C   0  0  1  0  0  0  0  0  0  0  0  0
   -1.2803   -0.0947   -1.0064 H   0  0  0  0  0  0  0  0  0  0  0  0
   -1.5420    0.4271    1.0567 C   0  0  0  0  0  0  0  0  0  0  0  0
   -0.6738    1.0885    1.0628 H   0  0  0  0  0  0  0  0  0  0  0  0
   -2.4178    1.0340    0.8211 H   0  0  0  0  0  0  0  0  0  0  0  0
   -1.7087   -0.1315    2.4374 C   0  0  0  0  0  0  0  0  0  0  0  0
   -0.7046   -0.4249    3.2937 C   0  0  0  0  0  0  0  0  0  0  0  0
    0.3503   -0.3064    3.0717 H   0  0  0  0  0  0  0  0  0  0  0  0
   -1.2304   -0.8745    4.4891 N   0  0  0  0  0  0  0  0  0  0  0  0
   -0.6640   -1.1560    5.2759 H   0  0  0  0  0  0  0  0  0  0  0  0
   -2.6089   -0.8774    4.4680 C   0  0  0  0  0  0  0  0  0  0  0  0
   -3.5810   -1.2113    5.4219 C   0  0  0  0  0  0  0  0  0  0  0  0
   -3.2894   -1.5522    6.4045 H   0  0  0  0  0  0  0  0  0  0  0  0
   -4.9396   -1.0979    5.0809 C   0  0  0  0  0  0  0  0  0  0  0  0
   -5.7034   -1.3520    5.8034 H   0  0  0  0  0  0  0  0  0  0  0  0
   -5.3052   -0.6594    3.7951 C   0  0  0  0  0  0  0  0  0  0  0  0
   -6.3516   -0.5815    3.5341 H   0  0  0  0  0  0  0  0  0  0  0  0
   -4.3196   -0.3283    2.8436 C   0  0  0  0  0  0  0  0  0  0  0  0
   -4.6141   -0.0055    1.8551 H   0  0  0  0  0  0  0  0  0  0  0  0
   -2.9466   -0.4257    3.1572 C   0  0  0  0  0  0  0  0  0  0  0  0
   -0.0675   -1.4299    0.1359 C   0  0  0  0  0  0  0  0  0  0  0  0
    0.6491   -1.2326    1.1163 O   0  0  0  0  0  0  0  0  0  0  0  0
    0.2294   -2.3392   -0.8022 N   0  0  0  0  0  0  0  0  0  0  0  0
   -0.3826   -2.4017   -1.6034 H   0  0  0  0  0  0  0  0  0  0  0  0
    1.4140   -3.1925   -0.7737 C   0  0  0  0  0  0  0  0  0  0  0  0
    1.4791   -3.6999    0.1906 H   0  0  0  0  0  0  0  0  0  0  0  0
    1.3607   -3.9359   -1.5701 H   0  0  0  0  0  0  0  0  0  0  0  0
    2.3081   -2.5816   -0.9088 H   0  0  0  0  0  0  0  0  0  0  0  0
  5  6  2  0  0  0  0
  5  7  1  0  0  0  0
  2  3  1  0  0  0  0
  2  4  1  0  0  0  0
  2  5  1  0  0  0  0
  1  2  1  0  0  0  0
 29 30  2  0  0  0  0
 29 31  1  0  0  0  0
 26 27  1  0  0  0  0
 26 28  2  0  0  0  0
 24 25  1  0  0  0  0
 24 26  1  0  0  0  0
 22 23  1  0  0  0  0
 22 24  2  0  0  0  0
 20 21  1  0  0  0  0
 20 22  1  0  0  0  0
 19 20  2  0  0  0  0
 19 28  1  0  0  0  0
 17 18  1  0  0  0  0
 17 19  1  0  0  0  0
 15 16  1  0  0  0  0
 15 17  1  0  0  0  0
 14 15  2  0  0  0  0
 14 28  1  0  0  0  0
 11 12  1  0  0  0  0
 11 13  1  0  0  0  0
 11 14  1  0  0  0  0
  9 10  1  0  0  0  0
  9 11  1  0  0  0  0
  9 29  1  0  0  0  0
  7  8  1  0  0  0  0
  7  9  1  0  0  0  0
 33 34  1  0  0  0  0
 33 35  1  0  0  0  0
 33 36  1  0  0  0  0
 31 32  1  0  0  0  0
 31 33  1  0  0  0  0
M  END
$$$$
default_name
  -OEChem-12212115393D

 36 37  0     1  0  0  0  0  0999 V2000
   -4.0843   -4.0736    1.2944 H   0  0  0  0  0  0  0  0  0  0  0  0
   -4.0342   -3.2816    0.5484 C   0  0  0  0  0  0  0  0  0  0  0  0
   -4.8842   -2.6126    0.6694 H   0  0  0  0  0  0  0  0  0  0  0  0
   -4.0433   -3.7186   -0.4486 H   0  0  0  0  0  0  0  0  0  0  0  0
   -2.7532   -2.5046    0.7444 C   0  0  0  0  0  0  0  0  0  0  0  0
   -1.9803   -2.8096    1.6434 O   0  0  0  0  0  0  0  0  0  0  0  0
   -2.5332   -1.4966   -0.0966 N   0  0  0  0  0  0  0  0  0  0  0  0
   -3.2312   -1.2816   -0.7936 H   0  0  0  0  0  0  0  0  0  0  0  0
   -1.3593   -0.6196   -0.0536 C   0  0  1  0  0  0  0  0  0  0  0  0
   -1.2803   -0.0947   -1.0064 H   0  0  0  0  0  0  0  0  0  0  0  0
   -1.5420    0.4271    1.0567 C   0  0  0  0  0  0  0  0  0  0  0  0
   -0.6738    1.0885    1.0628 H   0  0  0  0  0  0  0  0  0  0  0  0
   -2.4178    1.0340    0.8211 H   0  0  0  0  0  0  0  0  0  0  0  0
   -1.7087   -0.1315    2.4374 C   0  0  0  0  0  0  0  0  0  0  0  0
   -0.7046   -0.4249    3.2937 C   0  0  0  0  0  0  0  0  0  0  0  0
    0.3503   -0.3064    3.0717 H   0  0  0  0  0  0  0  0  0  0  0  0
   -1.2304   -0.8745    4.4891 N   0  0  0  0  0  0  0  0  0  0  0  0
   -0.6640   -1.1560    5.2759 H   0  0  0  0  0  0  0  0  0  0  0  0
   -2.6089   -0.8774    4.4680 C   0  0  0  0  0  0  0  0  0  0  0  0
   -3.5810   -1.2113    5.4219 C   0  0  0  0  0  0  0  0  0  0  0  0
   -3.2894   -1.5522    6.4045 H   0  0  0  0  0  0  0  0  0  0  0  0
   -4.9396   -1.0979    5.0809 C   0  0  0  0  0  0  0  0  0  0  0  0
   -5.7034   -1.3520    5.8034 H   0  0  0  0  0  0  0  0  0  0  0  0
   -5.3052   -0.6594    3.7951 C   0  0  0  0  0  0  0  0  0  0  0  0
   -6.3516   -0.5815    3.5341 H   0  0  0  0  0  0  0  0  0  0  0  0
   -4.3196   -0.3283    2.8436 C   0  0  0  0  0  0  0  0  0  0  0  0
   -4.6141   -0.0055    1.8551 H   0  0  0  0  0  0  0  0  0  0  0  0
   -2.9466   -0.4257    3.1572 C   0  0  0  0  0  0  0  0  0  0  0  0
   -0.0675   -1.4299    0.1359 C   0  0  0  0  0  0  0  0  0  0  0  0
    0.5023   -1.4409    1.2262 O   0  0  0  0  0  0  0  0  0  0  0  0
    0.3939   -2.1056   -0.9250 N   0  0  0  0  0  0  0  0  0  0  0  0
   -0.1025   -2.0008   -1.7984 H   0  0  0  0  0  0  0  0  0  0  0  0
    1.6031   -2.9243   -0.9153 C   0  0  0  0  0  0  0  0  0  0  0  0
    1.5631   -3.6301   -0.0835 H   0  0  0  0  0  0  0  0  0  0  0  0
    1.6911   -3.4752   -1.8526 H   0  0  0  0  0  0  0  0  0  0  0  0
    2.4774   -2.2837   -0.7891 H   0  0  0  0  0  0  0  0  0  0  0  0
  5  6  2  0  0  0  0
  5  7  1  0  0  0  0
  2  3  1  0  0  0  0
  2  4  1  0  0  0  0
  2  5  1  0  0  0  0
  1  2  1  0  0  0  0
 29 30  2  0  0  0  0
 29 31  1  0  0  0  0
 26 27  1  0  0  0  0
 26 28  2  0  0  0  0
 24 25  1  0  0  0  0
 24 26  1  0  0  0  0
 22 23  1  0  0  0  0
 22 24  2  0  0  0  0
 20 21  1  0  0  0  0
 20 22  1  0  0  0  0
 19 20  2  0  0  0  0
 19 28  1  0  0  0  0
 17 18  1  0  0  0  0
 17 19  1  0  0  0  0
 15 16  1  0  0  0  0
 15 17  1  0  0  0  0
 14 15  2  0  0  0  0
 14 28  1  0  0  0  0
 11 12  1  0  0  0  0
 11 13  1  0  0  0  0
 11 14  1  0  0  0  0
  9 10  1  0  0  0  0
  9 11  1  0  0  0  0
  9 29  1  0  0  0  0
  7  8  1  0  0  0  0
  7  9  1  0  0  0  0
 33 34  1  0  0  0  0
 33 35  1  0  0  0  0
 33 36  1  0  0  0  0
 31 32  1  0  0  0  0
 31 33  1  0  0  0  0
M  END
$$$$
default_name
  -OEChem-12212115393D

 36 37  0     1  0  0  0  0  0999 V2000
   -4.0843   -4.0736    1.2944 H   0  0  0  0  0  0  0  0  0  0  0  0
   -4.0342   -3.2816    0.5484 C   0  0  0  0  0  0  0  0  0  0  0  0
   -4.8842   -2.6126    0.6694 H   0  0  0  0  0  0  0  0  0  0  0  0
   -4.0433   -3.7186   -0.4486 H   0  0  0  0  0  0  0  0  0  0  0  0
   -2.7532   -2.5046    0.7444 C   0  0  0  0  0  0  0  0  0  0  0  0
   -1.9803   -2.8096    1.6434 O   0  0  0  0  0  0  0  0  0  0  0  0
   -2.5332   -1.4966   -0.0966 N   0  0  0  0  0  0  0  0  0  0  0  0
   -3.2312   -1.2816   -0.7936 H   0  0  0  0  0  0  0  0  0  0  0  0
   -1.3593   -0.6196   -0.0536 C   0  0  1  0  0  0  0  0  0  0  0  0
   -1.2803   -0.0947   -1.0064 H   0  0  0  0  0  0  0  0  0  0  0  0
   -1.5420    0.4271    1.0567 C   0  0  0  0  0  0  0  0  0  0  0  0
   -0.6738    1.0885    1.0628 H   0  0  0  0  0  0  0  0  0  0  0  0
   -2.4178    1.0340    0.8211 H   0  0  0  0  0  0  0  0  0  0  0  0
   -1.7087   -0.1315    2.4374 C   0  0  0  0  0  0  0  0  0  0  0  0
   -0.7046   -0.4249    3.2937 C   0  0  0  0  0  0  0  0  0  0  0  0
    0.3503   -0.3064    3.0717 H   0  0  0  0  0  0  0  0  0  0  0  0
   -1.2304   -0.8745    4.4891 N   0  0  0  0  0  0  0  0  0  0  0  0
   -0.6640   -1.1560    5.2759 H   0  0  0  0  0  0  0  0  0  0  0  0
   -2.6089   -0.8774    4.4680 C   0  0  0  0  0  0  0  0  0  0  0  0
   -3.5810   -1.2113    5.4219 C   0  0  0  0  0  0  0  0  0  0  0  0
   -3.2894   -1.5522    6.4045 H   0  0  0  0  0  0  0  0  0  0  0  0
   -4.9396   -1.0979    5.0809 C   0  0  0  0  0  0  0  0  0  0  0  0
   -5.7034   -1.3520    5.8034 H   0  0  0  0  0  0  0  0  0  0  0  0
   -5.3052   -0.6594    3.7951 C   0  0  0  0  0  0  0  0  0  0  0  0
   -6.3516   -0.5815    3.5341 H   0  0  0  0  0  0  0  0  0  0  0  0
   -4.3196   -0.3283    2.8436 C   0  0  0  0  0  0  0  0  0  0  0  0
   -4.6141   -0.0055    1.8551 H   0  0  0  0  0  0  0  0  0  0  0  0
   -2.9466   -0.4257    3.1572 C   0  0  0  0  0  0  0  0  0  0  0  0
   -0.0675   -1.4299    0.1359 C   0  0  0  0  0  0  0  0  0  0  0  0
    0.3522   -1.6706    1.2671 O   0  0  0  0  0  0  0  0  0  0  0  0
    0.5621   -1.8480   -0.9703 N   0  0  0  0  0  0  0  0  0  0  0  0
    0.1819   -1.5622   -1.8614 H   0  0  0  0  0  0  0  0  0  0  0  0
    1.7964   -2.6284   -0.9680 C   0  0  0  0  0  0  0  0  0  0  0  0
    1.6794   -3.5003   -0.3217 H   0  0  0  0  0  0  0  0  0  0  0  0
    2.0341   -2.9583   -1.9801 H   0  0  0  0  0  0  0  0  0  0  0  0
    2.6151   -2.0166   -0.5856 H   0  0  0  0  0  0  0  0  0  0  0  0
  5  6  2  0  0  0  0
  5  7  1  0  0  0  0
  2  3  1  0  0  0  0
  2  4  1  0  0  0  0
  2  5  1  0  0  0  0
  1  2  1  0  0  0  0
 29 30  2  0  0  0  0
 29 31  1  0  0  0  0
 26 27  1  0  0  0  0
 26 28  2  0  0  0  0
 24 25  1  0  0  0  0
 24 26  1  0  0  0  0
 22 23  1  0  0  0  0
 22 24  2  0  0  0  0
 20 21  1  0  0  0  0
 20 22  1  0  0  0  0
 19 20  2  0  0  0  0
 19 28  1  0  0  0  0
 17 18  1  0  0  0  0
 17 19  1  0  0  0  0
 15 16  1  0  0  0  0
 15 17  1  0  0  0  0
 14 15  2  0  0  0  0
 14 28  1  0  0  0  0
 11 12  1  0  0  0  0
 11 13  1  0  0  0  0
 11 14  1  0  0  0  0
  9 10  1  0  0  0  0
  9 11  1  0  0  0  0
  9 29  1  0  0  0  0
  7  8  1  0  0  0  0
  7  9  1  0  0  0  0
 33 34  1  0  0  0  0
 33 35  1  0  0  0  0
 33 36  1  0  0  0  0
 31 32  1  0  0  0  0
 31 33  1  0  0  0  0
M  END
$$$$
default_name
  -OEChem-12212115393D

 36 37  0     1  0  0  0  0  0999 V2000
   -4.0843   -4.0736    1.2944 H   0  0  0  0  0  0  0  0  0  0  0  0
   -4.0342   -3.2816    0.5484 C   0  0  0  0  0  0  0  0  0  0  0  0
   -4.8842   -2.6126    0.6694 H   0  0  0  0  0  0  0  0  0  0  0  0
   -4.0433   -3.7186   -0.4486 H   0  0  0  0  0  0  0  0  0  0  0  0
   -2.7532   -2.5046    0.7444 C   0  0  0  0  0  0  0  0  0  0  0  0
   -1.9803   -2.8096    1.6434 O   0  0  0  0  0  0  0  0  0  0  0  0
   -2.5332   -1.4966   -0.0966 N   0  0  0  0  0  0  0  0  0  0  0  0
   -3.2312   -1.2816   -0.7936 H   0  0  0  0  0  0  0  0  0  0  0  0
   -1.3593   -0.6196   -0.0536 C   0  0  1  0  0  0  0  0  0  0  0  0
   -1.2803   -0.0947   -1.0064 H   0  0  0  0  0  0  0  0  0  0  0  0
   -1.5420    0.4271    1.0567 C   0  0  0  0  0  0  0  0  0  0  0  0
   -0.6738    1.0885    1.0628 H   0  0  0  0  0  0  0  0  0  0  0  0
   -2.4178    1.0340    0.8211 H   0  0  0  0  0  0  0  0  0  0  0  0
   -1.7087   -0.1315    2.4374 C   0  0  0  0  0  0  0  0  0  0  0  0
   -0.7046   -0.4249    3.2937 C   0  0  0  0  0  0  0  0  0  0  0  0
    0.3503   -0.3064    3.0717 H   0  0  0  0  0  0  0  0  0  0  0  0
   -1.2304   -0.8745    4.4891 N   0  0  0  0  0  0  0  0  0  0  0  0
   -0.6640   -1.1560    5.2759 H   0  0  0  0  0  0  0  0  0  0  0  0
   -2.6089   -0.8774    4.4680 C   0  0  0  0  0  0  0  0  0  0  0  0
   -3.5810   -1.2113    5.4219 C   0  0  0  0  0  0  0  0  0  0  0  0
   -3.2894   -1.5522    6.4045 H   0  0  0  0  0  0  0  0  0  0  0  0
   -4.9396   -1.0979    5.0809 C   0  0  0  0  0  0  0  0  0  0  0  0
   -5.7034   -1.3520    5.8034 H   0  0  0  0  0  0  0  0  0  0  0  0
   -5.3052   -0.6594    3.7951 C   0  0  0  0  0  0  0  0  0  0  0  0
   -6.3516   -0.5815    3.5341 H   0  0  0  0  0  0  0  0  0  0  0  0
   -4.3196   -0.3283    2.8436 C   0  0  0  0  0  0  0  0  0  0  0  0
   -4.6141   -0.0055    1.8551 H   0  0  0  0  0  0  0  0  0  0  0  0
   -2.9466   -0.4257    3.1572 C   0  0  0  0  0  0  0  0  0  0  0  0
   -0.0675   -1.4299    0.1359 C   0  0  0  0  0  0  0  0  0  0  0  0
    0.2089   -1.9063    1.2360 O   0  0  0  0  0  0  0  0  0  0  0  0
    0.7226   -1.5840   -0.9351 N   0  0  0  0  0  0  0  0  0  0  0  0
    0.4512   -1.1157   -1.7879 H   0  0  0  0  0  0  0  0  0  0  0  0
    1.9809   -2.3249   -0.9281 C   0  0  0  0  0  0  0  0  0  0  0  0
    1.8202   -3.3194   -0.5076 H   0  0  0  0  0  0  0  0  0  0  0  0
    2.3663   -2.4202   -1.9440 H   0  0  0  0  0  0  0  0  0  0  0  0
    2.7118   -1.7984   -0.3121 H   0  0  0  0  0  0  0  0  0  0  0  0
  5  6  2  0  0  0  0
  5  7  1  0  0  0  0
  2  3  1  0  0  0  0
  2  4  1  0  0  0  0
  2  5  1  0  0  0  0
  1  2  1  0  0  0  0
 29 30  2  0  0  0  0
 29 31  1  0  0  0  0
 26 27  1  0  0  0  0
 26 28  2  0  0  0  0
 24 25  1  0  0  0  0
 24 26  1  0  0  0  0
 22 23  1  0  0  0  0
 22 24  2  0  0  0  0
 20 21  1  0  0  0  0
 20 22  1  0  0  0  0
 19 20  2  0  0  0  0
 19 28  1  0  0  0  0
 17 18  1  0  0  0  0
 17 19  1  0  0  0  0
 15 16  1  0  0  0  0
 15 17  1  0  0  0  0
 14 15  2  0  0  0  0
 14 28  1  0  0  0  0
 11 12  1  0  0  0  0
 11 13  1  0  0  0  0
 11 14  1  0  0  0  0
  9 10  1  0  0  0  0
  9 11  1  0  0  0  0
  9 29  1  0  0  0  0
  7  8  1  0  0  0  0
  7  9  1  0  0  0  0
 33 34  1  0  0  0  0
 33 35  1  0  0  0  0
 33 36  1  0  0  0  0
 31 32  1  0  0  0  0
 31 33  1  0  0  0  0
M  END
$$$$
default_name
  -OEChem-12212115393D

 36 37  0     1  0  0  0  0  0999 V2000
   -4.0843   -4.0736    1.2944 H   0  0  0  0  0  0  0  0  0  0  0  0
   -4.0342   -3.2816    0.5484 C   0  0  0  0  0  0  0  0  0  0  0  0
   -4.8842   -2.6126    0.6694 H   0  0  0  0  0  0  0  0  0  0  0  0
   -4.0433   -3.7186   -0.4486 H   0  0  0  0  0  0  0  0  0  0  0  0
   -2.7532   -2.5046    0.7444 C   0  0  0  0  0  0  0  0  0  0  0  0
   -1.9803   -2.8096    1.6434 O   0  0  0  0  0  0  0  0  0  0  0  0
   -2.5332   -1.4966   -0.0966 N   0  0  0  0  0  0  0  0  0  0  0  0
   -3.2312   -1.2816   -0.7936 H   0  0  0  0  0  0  0  0  0  0  0  0
   -1.3593   -0.6196   -0.0536 C   0  0  1  0  0  0  0  0  0  0  0  0
   -1.2803   -0.0947   -1.0064 H   0  0  0  0  0  0  0  0  0  0  0  0
   -1.5420    0.4271    1.0567 C   0  0  0  0  0  0  0  0  0  0  0  0
   -0.6738    1.0885    1.0628 H   0  0  0  0  0  0  0  0  0  0  0  0
   -2.4178    1.0340    0.8211 H   0  0  0  0  0  0  0  0  0  0  0  0
   -1.7087   -0.1315    2.4374 C   0  0  0  0  0  0  0  0  0  0  0  0
   -0.7046   -0.4249    3.2937 C   0  0  0  0  0  0  0  0  0  0  0  0
    0.3503   -0.3064    3.0717 H   0  0  0  0  0  0  0  0  0  0  0  0
   -1.2304   -0.8745    4.4891 N   0  0  0  0  0  0  0  0  0  0  0  0
   -0.6640   -1.1560    5.2759 H   0  0  0  0  0  0  0  0  0  0  0  0
   -2.6089   -0.8774    4.4680 C   0  0  0  0  0  0  0  0  0  0  0  0
   -3.5810   -1.2113    5.4219 C   0  0  0  0  0  0  0  0  0  0  0  0
   -3.2894   -1.5522    6.4045 H   0  0  0  0  0  0  0  0  0  0  0  0
   -4.9396   -1.0979    5.0809 C   0  0  0  0  0  0  0  0  0  0  0  0
   -5.7034   -1.3520    5.8034 H   0  0  0  0  0  0  0  0  0  0  0  0
   -5.3052   -0.6594    3.7951 C   0  0  0  0  0  0  0  0  0  0  0  0
   -6.3516   -0.5815    3.5341 H   0  0  0  0  0  0  0  0  0  0  0  0
   -4.3196   -0.3283    2.8436 C   0  0  0  0  0  0  0  0  0  0  0  0
   -4.6141   -0.0055    1.8551 H   0  0  0  0  0  0  0  0  0  0  0  0
   -2.9466   -0.4257    3.1572 C   0  0  0  0  0  0  0  0  0  0  0  0
   -0.0675   -1.4299    0.1359 C   0  0  0  0  0  0  0  0  0  0  0  0
    0.0823   -2.1317    1.1352 O   0  0  0  0  0  0  0  0  0  0  0  0
    0.8643   -1.3315   -0.8217 N   0  0  0  0  0  0  0  0  0  0  0  0
    0.6870   -0.6919   -1.5831 H   0  0  0  0  0  0  0  0  0  0  0  0
    2.1440   -2.0345   -0.7983 C   0  0  0  0  0  0  0  0  0  0  0  0
    1.9758   -3.0997   -0.6286 H   0  0  0  0  0  0  0  0  0  0  0  0
    2.6651   -1.8978   -1.7467 H   0  0  0  0  0  0  0  0  0  0  0  0
    2.7610   -1.6441    0.0127 H   0  0  0  0  0  0  0  0  0  0  0  0
  5  6  2  0  0  0  0
  5  7  1  0  0  0  0
  2  3  1  0  0  0  0
  2  4  1  0  0  0  0
  2  5  1  0  0  0  0
  1  2  1  0  0  0  0
 29 30  2  0  0  0  0
 29 31  1  0  0  0  0
 26 27  1  0  0  0  0
 26 28  2  0  0  0  0
 24 25  1  0  0  0  0
 24 26  1  0  0  0  0
 22 23  1  0  0  0  0
 22 24  2  0  0  0  0
 20 21  1  0  0  0  0
 20 22  1  0  0  0  0
 19 20  2  0  0  0  0
 19 28  1  0  0  0  0
 17 18  1  0  0  0  0
 17 19  1  0  0  0  0
 15 16  1  0  0  0  0
 15 17  1  0  0  0  0
 14 15  2  0  0  0  0
 14 28  1  0  0  0  0
 11 12  1  0  0  0  0
 11 13  1  0  0  0  0
 11 14  1  0  0  0  0
  9 10  1  0  0  0  0
  9 11  1  0  0  0  0
  9 29  1  0  0  0  0
  7  8  1  0  0  0  0
  7  9  1  0  0  0  0
 33 34  1  0  0  0  0
 33 35  1  0  0  0  0
 33 36  1  0  0  0  0
 31 32  1  0  0  0  0
 31 33  1  0  0  0  0
M  END
$$$$
default_name
  -OEChem-12212115393D

 36 37  0     1  0  0  0  0  0999 V2000
   -4.0843   -4.0736    1.2944 H   0  0  0  0  0  0  0  0  0  0  0  0
   -4.0342   -3.2816    0.5484 C   0  0  0  0  0  0  0  0  0  0  0  0
   -4.8842   -2.6126    0.6694 H   0  0  0  0  0  0  0  0  0  0  0  0
   -4.0433   -3.7186   -0.4486 H   0  0  0  0  0  0  0  0  0  0  0  0
   -2.7532   -2.5046    0.7444 C   0  0  0  0  0  0  0  0  0  0  0  0
   -1.9803   -2.8096    1.6434 O   0  0  0  0  0  0  0  0  0  0  0  0
   -2.5332   -1.4966   -0.0966 N   0  0  0  0  0  0  0  0  0  0  0  0
   -3.2312   -1.2816   -0.7936 H   0  0  0  0  0  0  0  0  0  0  0  0
   -1.3593   -0.6196   -0.0536 C   0  0  1  0  0  0  0  0  0  0  0  0
   -1.2803   -0.0947   -1.0064 H   0  0  0  0  0  0  0  0  0  0  0  0
   -1.5420    0.4271    1.0567 C   0  0  0  0  0  0  0  0  0  0  0  0
   -0.6738    1.0885    1.0628 H   0  0  0  0  0  0  0  0  0  0  0  0
   -2.4178    1.0340    0.8211 H   0  0  0  0  0  0  0  0  0  0  0  0
   -1.7087   -0.1315    2.4374 C   0  0  0  0  0  0  0  0  0  0  0  0
   -0.7046   -0.4249    3.2937 C   0  0  0  0  0  0  0  0  0  0  0  0
    0.3503   -0.3064    3.0717 H   0  0  0  0  0  0  0  0  0  0  0  0
   -1.2304   -0.8745    4.4891 N   0  0  0  0  0  0  0  0  0  0  0  0
   -0.6640   -1.1560    5.2759 H   0  0  0  0  0  0  0  0  0  0  0  0
   -2.6089   -0.8774    4.4680 C   0  0  0  0  0  0  0  0  0  0  0  0
   -3.5810   -1.2113    5.4219 C   0  0  0  0  0  0  0  0  0  0  0  0
   -3.2894   -1.5522    6.4045 H   0  0  0  0  0  0  0  0  0  0  0  0
   -4.9396   -1.0979    5.0809 C   0  0  0  0  0  0  0  0  0  0  0  0
   -5.7034   -1.3520    5.8034 H   0  0  0  0  0  0  0  0  0  0  0  0
   -5.3052   -0.6594    3.7951 C   0  0  0  0  0  0  0  0  0  0  0  0
   -6.3516   -0.5815    3.5341 H   0  0  0  0  0  0  0  0  0  0  0  0
   -4.3196   -0.3283    2.8436 C   0  0  0  0  0  0  0  0  0  0  0  0
   -4.6141   -0.0055    1.8551 H   0  0  0  0  0  0  0  0  0  0  0  0
   -2.9466   -0.4257    3.1572 C   0  0  0  0  0  0  0  0  0  0  0  0
   -0.0675   -1.4299    0.1359 C   0  0  0  0  0  0  0  0  0  0  0  0
   -0.0190   -2.3316    0.9716 O   0  0  0  0  0  0  0  0  0  0  0  0
    0.9777   -1.1078   -0.6379 N   0  0  0  0  0  0  0  0  0  0  0  0
    0.8733   -0.3195   -1.2608 H   0  0  0  0  0  0  0  0  0  0  0  0
    2.2745   -1.7771   -0.5875 C   0  0  0  0  0  0  0  0  0  0  0  0
    2.1355   -2.8562   -0.6765 H   0  0  0  0  0  0  0  0  0  0  0  0
    2.9101   -1.4265   -1.4017 H   0  0  0  0  0  0  0  0  0  0  0  0
    2.7592   -1.5642    0.3668 H   0  0  0  0  0  0  0  0  0  0  0  0
  5  6  2  0  0  0  0
  5  7  1  0  0  0  0
  2  3  1  0  0  0  0
  2  4  1  0  0  0  0
  2  5  1  0  0  0  0
  1  2  1  0  0  0  0
 29 30  2  0  0  0  0
 29 31  1  0  0  0  0
 26 27  1  0  0  0  0
 26 28  2  0  0  0  0
 24 25  1  0  0  0  0
 24 26  1  0  0  0  0
 22 23  1  0  0  0  0
 22 24  2  0  0  0  0
 20 21  1  0  0  0  0
 20 22  1  0  0  0  0
 19 20  2  0  0  0  0
 19 28  1  0  0  0  0
 17 18  1  0  0  0  0
 17 19  1  0  0  0  0
 15 16  1  0  0  0  0
 15 17  1  0  0  0  0
 14 15  2  0  0  0  0
 14 28  1  0  0  0  0
 11 12  1  0  0  0  0
 11 13  1  0  0  0  0
 11 14  1  0  0  0  0
  9 10  1  0  0  0  0
  9 11  1  0  0  0  0
  9 29  1  0  0  0  0
  7  8  1  0  0  0  0
  7  9  1  0  0  0  0
 33 34  1  0  0  0  0
 33 35  1  0  0  0  0
 33 36  1  0  0  0  0
 31 32  1  0  0  0  0
 31 33  1  0  0  0  0
M  END
$$$$
default_name
  -OEChem-12212115393D

 36 37  0     1  0  0  0  0  0999 V2000
   -4.0843   -4.0736    1.2944 H   0  0  0  0  0  0  0  0  0  0  0  0
   -4.0342   -3.2816    0.5484 C   0  0  0  0  0  0  0  0  0  0  0  0
   -4.8842   -2.6126    0.6694 H   0  0  0  0  0  0  0  0  0  0  0  0
   -4.0433   -3.7186   -0.4486 H   0  0  0  0  0  0  0  0  0  0  0  0
   -2.7532   -2.5046    0.7444 C   0  0  0  0  0  0  0  0  0  0  0  0
   -1.9803   -2.8096    1.6434 O   0  0  0  0  0  0  0  0  0  0  0  0
   -2.5332   -1.4966   -0.0966 N   0  0  0  0  0  0  0  0  0  0  0  0
   -3.2312   -1.2816   -0.7936 H   0  0  0  0  0  0  0  0  0  0  0  0
   -1.3593   -0.6196   -0.0536 C   0  0  1  0  0  0  0  0  0  0  0  0
   -1.2803   -0.0947   -1.0064 H   0  0  0  0  0  0  0  0  0  0  0  0
   -1.5420    0.4271    1.0567 C   0  0  0  0  0  0  0  0  0  0  0  0
   -0.6738    1.0885    1.0628 H   0  0  0  0  0  0  0  0  0  0  0  0
   -2.4178    1.0340    0.8211 H   0  0  0  0  0  0  0  0  0  0  0  0
   -1.7087   -0.1315    2.4374 C   0  0  0  0  0  0  0  0  0  0  0  0
   -0.7046   -0.4249    3.2937 C   0  0  0  0  0  0  0  0  0  0  0  0
    0.3503   -0.3064    3.0717 H   0  0  0  0  0  0  0  0  0  0  0  0
   -1.2304   -0.8745    4.4891 N   0  0  0  0  0  0  0  0  0  0  0  0
   -0.6640   -1.1560    5.2759 H   0  0  0  0  0  0  0  0  0  0  0  0
   -2.6089   -0.8774    4.4680 C   0  0  0  0  0  0  0  0  0  0  0  0
   -3.5810   -1.2113    5.4219 C   0  0  0  0  0  0  0  0  0  0  0  0
   -3.2894   -1.5522    6.4045 H   0  0  0  0  0  0  0  0  0  0  0  0
   -4.9396   -1.0979    5.0809 C   0  0  0  0  0  0  0  0  0  0  0  0
   -5.7034   -1.3520    5.8034 H   0  0  0  0  0  0  0  0  0  0  0  0
   -5.3052   -0.6594    3.7951 C   0  0  0  0  0  0  0  0  0  0  0  0
   -6.3516   -0.5815    3.5341 H   0  0  0  0  0  0  0  0  0  0  0  0
   -4.3196   -0.3283    2.8436 C   0  0  0  0  0  0  0  0  0  0  0  0
   -4.6141   -0.0055    1.8551 H   0  0  0  0  0  0  0  0  0  0  0  0
   -2.9466   -0.4257    3.1572 C   0  0  0  0  0  0  0  0  0  0  0  0
   -0.0675   -1.4299    0.1359 C   0  0  0  0  0  0  0  0  0  0  0  0
   -0.0882   -2.4922    0.7561 O   0  0  0  0  0  0  0  0  0  0  0  0
    1.0550   -0.9280   -0.3962 N   0  0  0  0  0  0  0  0  0  0  0  0
    0.9973   -0.0240   -0.8431 H   0  0  0  0  0  0  0  0  0  0  0  0
    2.3636   -1.5702   -0.3101 C   0  0  0  0  0  0  0  0  0  0  0  0
    2.2886   -2.6055   -0.6480 H   0  0  0  0  0  0  0  0  0  0  0  0
    3.0846   -1.0385   -0.9324 H   0  0  0  0  0  0  0  0  0  0  0  0
    2.7065   -1.5641    0.7259 H   0  0  0  0  0  0  0  0  0  0  0  0
  5  6  2  0  0  0  0
  5  7  1  0  0  0  0
  2  3  1  0  0  0  0
  2  4  1  0  0  0  0
  2  5  1  0  0  0  0
  1  2  1  0  0  0  0
 29 30  2  0  0  0  0
 29 31  1  0  0  0  0
 26 27  1  0  0  0  0
 26 28  2  0  0  0  0
 24 25  1  0  0  0  0
 24 26  1  0  0  0  0
 22 23  1  0  0  0  0
 22 24  2  0  0  0  0
 20 21  1  0  0  0  0
 20 22  1  0  0  0  0
 19 20  2  0  0  0  0
 19 28  1  0  0  0  0
 17 18  1  0  0  0  0
 17 19  1  0  0  0  0
 15 16  1  0  0  0  0
 15 17  1  0  0  0  0
 14 15  2  0  0  0  0
 14 28  1  0  0  0  0
 11 12  1  0  0  0  0
 11 13  1  0  0  0  0
 11 14  1  0  0  0  0
  9 10  1  0  0  0  0
  9 11  1  0  0  0  0
  9 29  1  0  0  0  0
  7  8  1  0  0  0  0
  7  9  1  0  0  0  0
 33 34  1  0  0  0  0
 33 35  1  0  0  0  0
 33 36  1  0  0  0  0
 31 32  1  0  0  0  0
 31 33  1  0  0  0  0
M  END
$$$$
default_name
  -OEChem-12212115393D

 36 37  0     1  0  0  0  0  0999 V2000
   -4.0843   -4.0736    1.2944 H   0  0  0  0  0  0  0  0  0  0  0  0
   -4.0342   -3.2816    0.5484 C   0  0  0  0  0  0  0  0  0  0  0  0
   -4.8842   -2.6126    0.6694 H   0  0  0  0  0  0  0  0  0  0  0  0
   -4.0433   -3.7186   -0.4486 H   0  0  0  0  0  0  0  0  0  0  0  0
   -2.7532   -2.5046    0.7444 C   0  0  0  0  0  0  0  0  0  0  0  0
   -1.9803   -2.8096    1.6434 O   0  0  0  0  0  0  0  0  0  0  0  0
   -2.5332   -1.4966   -0.0966 N   0  0  0  0  0  0  0  0  0  0  0  0
   -3.2312   -1.2816   -0.7936 H   0  0  0  0  0  0  0  0  0  0  0  0
   -1.3593   -0.6196   -0.0536 C   0  0  1  0  0  0  0  0  0  0  0  0
   -1.2803   -0.0947   -1.0064 H   0  0  0  0  0  0  0  0  0  0  0  0
   -1.5420    0.4271    1.0567 C   0  0  0  0  0  0  0  0  0  0  0  0
   -0.6738    1.0885    1.0628 H   0  0  0  0  0  0  0  0  0  0  0  0
   -2.4178    1.0340    0.8211 H   0  0  0  0  0  0  0  0  0  0  0  0
   -1.7087   -0.1315    2.4374 C   0  0  0  0  0  0  0  0  0  0  0  0
   -0.7046   -0.4249    3.2937 C   0  0  0  0  0  0  0  0  0  0  0  0
    0.3503   -0.3064    3.0717 H   0  0  0  0  0  0  0  0  0  0  0  0
   -1.2304   -0.8745    4.4891 N   0  0  0  0  0  0  0  0  0  0  0  0
   -0.6640   -1.1560    5.2759 H   0  0  0  0  0  0  0  0  0  0  0  0
   -2.6089   -0.8774    4.4680 C   0  0  0  0  0  0  0  0  0  0  0  0
   -3.5810   -1.2113    5.4219 C   0  0  0  0  0  0  0  0  0  0  0  0
   -3.2894   -1.5522    6.4045 H   0  0  0  0  0  0  0  0  0  0  0  0
   -4.9396   -1.0979    5.0809 C   0  0  0  0  0  0  0  0  0  0  0  0
   -5.7034   -1.3520    5.8034 H   0  0  0  0  0  0  0  0  0  0  0  0
   -5.3052   -0.6594    3.7951 C   0  0  0  0  0  0  0  0  0  0  0  0
   -6.3516   -0.5815    3.5341 H   0  0  0  0  0  0  0  0  0  0  0  0
   -4.3196   -0.3283    2.8436 C   0  0  0  0  0  0  0  0  0  0  0  0
   -4.6141   -0.0055    1.8551 H   0  0  0  0  0  0  0  0  0  0  0  0
   -2.9466   -0.4257    3.1572 C   0  0  0  0  0  0  0  0  0  0  0  0
   -0.0675   -1.4299    0.1359 C   0  0  0  0  0  0  0  0  0  0  0  0
   -0.1205   -2.6028    0.5036 O   0  0  0  0  0  0  0  0  0  0  0  0
    1.0909   -0.8045   -0.1131 N   0  0  0  0  0  0  0  0  0  0  0  0
    1.0507    0.1745   -0.3583 H   0  0  0  0  0  0  0  0  0  0  0  0
    2.4052   -1.4278    0.0151 C   0  0  0  0  0  0  0  0  0  0  0  0
    2.4246   -2.3647   -0.5449 H   0  0  0  0  0  0  0  0  0  0  0  0
    3.1767   -0.7603   -0.3710 H   0  0  0  0  0  0  0  0  0  0  0  0
    2.6067   -1.6438    1.0656 H   0  0  0  0  0  0  0  0  0  0  0  0
  5  6  2  0  0  0  0
  5  7  1  0  0  0  0
  2  3  1  0  0  0  0
  2  4  1  0  0  0  0
  2  5  1  0  0  0  0
  1  2  1  0  0  0  0
 29 30  2  0  0  0  0
 29 31  1  0  0  0  0
 26 27  1  0  0  0  0
 26 28  2  0  0  0  0
 24 25  1  0  0  0  0
 24 26  1  0  0  0  0
 22 23  1  0  0  0  0
 22 24  2  0  0  0  0
 20 21  1  0  0  0  0
 20 22  1  0  0  0  0
 19 20  2  0  0  0  0
 19 28  1  0  0  0  0
 17 18  1  0  0  0  0
 17 19  1  0  0  0  0
 15 16  1  0  0  0  0
 15 17  1  0  0  0  0
 14 15  2  0  0  0  0
 14 28  1  0  0  0  0
 11 12  1  0  0  0  0
 11 13  1  0  0  0  0
 11 14  1  0  0  0  0
  9 10  1  0  0  0  0
  9 11  1  0  0  0  0
  9 29  1  0  0  0  0
  7  8  1  0  0  0  0
  7  9  1  0  0  0  0
 33 34  1  0  0  0  0
 33 35  1  0  0  0  0
 33 36  1  0  0  0  0
 31 32  1  0  0  0  0
 31 33  1  0  0  0  0
M  END
$$$$
default_name
  -OEChem-12212115393D

 36 37  0     1  0  0  0  0  0999 V2000
   -4.0843   -4.0736    1.2944 H   0  0  0  0  0  0  0  0  0  0  0  0
   -4.0342   -3.2816    0.5484 C   0  0  0  0  0  0  0  0  0  0  0  0
   -4.8842   -2.6126    0.6694 H   0  0  0  0  0  0  0  0  0  0  0  0
   -4.0433   -3.7186   -0.4486 H   0  0  0  0  0  0  0  0  0  0  0  0
   -2.7532   -2.5046    0.7444 C   0  0  0  0  0  0  0  0  0  0  0  0
   -1.9803   -2.8096    1.6434 O   0  0  0  0  0  0  0  0  0  0  0  0
   -2.5332   -1.4966   -0.0966 N   0  0  0  0  0  0  0  0  0  0  0  0
   -3.2312   -1.2816   -0.7936 H   0  0  0  0  0  0  0  0  0  0  0  0
   -1.3593   -0.6196   -0.0536 C   0  0  1  0  0  0  0  0  0  0  0  0
   -1.4249    0.0926   -0.8770 H   0  0  0  0  0  0  0  0  0  0  0  0
   -1.3578    0.1703    1.2646 C   0  0  0  0  0  0  0  0  0  0  0  0
   -0.4935    0.8368    1.2743 H   0  0  0  0  0  0  0  0  0  0  0  0
   -2.2543    0.7918    1.2981 H   0  0  0  0  0  0  0  0  0  0  0  0
   -1.3125   -0.6654    2.5079 C   0  0  0  0  0  0  0  0  0  0  0  0
   -0.1899   -1.1052    3.1194 C   0  0  0  0  0  0  0  0  0  0  0  0
    0.8186   -0.9183    2.7671 H   0  0  0  0  0  0  0  0  0  0  0  0
   -0.5272   -1.8046    4.2616 N   0  0  0  0  0  0  0  0  0  0  0  0
    0.1523   -2.2291    4.8759 H   0  0  0  0  0  0  0  0  0  0  0  0
   -1.8922   -1.8361    4.4530 C   0  0  0  0  0  0  0  0  0  0  0  0
   -2.7068   -2.3831    5.4547 C   0  0  0  0  0  0  0  0  0  0  0  0
   -2.2689   -2.9126    6.2881 H   0  0  0  0  0  0  0  0  0  0  0  0
   -4.1009   -2.2342    5.3581 C   0  0  0  0  0  0  0  0  0  0  0  0
   -4.7451   -2.6503    6.1208 H   0  0  0  0  0  0  0  0  0  0  0  0
   -4.6584   -1.5482    4.2636 C   0  0  0  0  0  0  0  0  0  0  0  0
   -5.7319   -1.4432    4.1889 H   0  0  0  0  0  0  0  0  0  0  0  0
   -3.8300   -1.0043    3.2615 C   0  0  0  0  0  0  0  0  0  0  0  0
   -4.2719   -0.4913    2.4191 H   0  0  0  0  0  0  0  0  0  0  0  0
   -2.4258   -1.1314    3.3327 C   0  0  0  0  0  0  0  0  0  0  0  0
   -0.0609   -1.4205   -0.2379 C   0  0  0  0  0  0  0  0  0  0  0  0
   -0.1023   -2.6402   -0.3935 O   0  0  0  0  0  0  0  0  0  0  0  0
    1.0903   -0.7353   -0.2186 N   0  0  0  0  0  0  0  0  0  0  0  0
    1.0416    0.2561   -0.0316 H   0  0  0  0  0  0  0  0  0  0  0  0
    2.4094   -1.3404   -0.3808 C   0  0  0  0  0  0  0  0  0  0  0  0
    2.4233   -1.9572   -1.2814 H   0  0  0  0  0  0  0  0  0  0  0  0
    3.1712   -0.5640   -0.4630 H   0  0  0  0  0  0  0  0  0  0  0  0
    2.6298   -1.9733    0.4804 H   0  0  0  0  0  0  0  0  0  0  0  0
  5  6  2  0  0  0  0
  5  7  1  0  0  0  0
  2  3  1  0  0  0  0
  2  4  1  0  0  0  0
  2  5  1  0  0  0  0
  1  2  1  0  0  0  0
 29 30  2  0  0  0  0
 29 31  1  0  0  0  0
 26 27  1  0  0  0  0
 26 28  2  0  0  0  0
 24 25  1  0  0  0  0
 24 26  1  0  0  0  0
 22 23  1  0  0  0  0
 22 24  2  0  0  0  0
 20 21  1  0  0  0  0
 20 22  1  0  0  0  0
 19 20  2  0  0  0  0
 19 28  1  0  0  0  0
 17 18  1  0  0  0  0
 17 19  1  0  0  0  0
 15 16  1  0  0  0  0
 15 17  1  0  0  0  0
 14 15  2  0  0  0  0
 14 28  1  0  0  0  0
 11 12  1  0  0  0  0
 11 13  1  0  0  0  0
 11 14  1  0  0  0  0
  9 10  1  0  0  0  0
  9 11  1  0  0  0  0
  9 29  1  0  0  0  0
  7  8  1  0  0  0  0
  7  9  1  0  0  0  0
 33 34  1  0  0  0  0
 33 35  1  0  0  0  0
 33 36  1  0  0  0  0
 31 32  1  0  0  0  0
 31 33  1  0  0  0  0
M  END
$$$$
default_name
  -OEChem-12212115393D

 36 37  0     1  0  0  0  0  0999 V2000
   -4.0843   -4.0736    1.2944 H   0  0  0  0  0  0  0  0  0  0  0  0
   -4.0342   -3.2816    0.5484 C   0  0  0  0  0  0  0  0  0  0  0  0
   -4.8842   -2.6126    0.6694 H   0  0  0  0  0  0  0  0  0  0  0  0
   -4.0433   -3.7186   -0.4486 H   0  0  0  0  0  0  0  0  0  0  0  0
   -2.7532   -2.5046    0.7444 C   0  0  0  0  0  0  0  0  0  0  0  0
   -1.9803   -2.8096    1.6434 O   0  0  0  0  0  0  0  0  0  0  0  0
   -2.5332   -1.4966   -0.0966 N   0  0  0  0  0  0  0  0  0  0  0  0
   -3.2312   -1.2816   -0.7936 H   0  0  0  0  0  0  0  0  0  0  0  0
   -1.3593   -0.6196   -0.0536 C   0  0  1  0  0  0  0  0  0  0  0  0
   -1.4249    0.0926   -0.8770 H   0  0  0  0  0  0  0  0  0  0  0  0
   -1.3578    0.1703    1.2646 C   0  0  0  0  0  0  0  0  0  0  0  0
   -0.4935    0.8368    1.2743 H   0  0  0  0  0  0  0  0  0  0  0  0
   -2.2543    0.7918    1.2981 H   0  0  0  0  0  0  0  0  0  0  0  0
   -1.3125   -0.6654    2.5079 C   0  0  0  0  0  0  0  0  0  0  0  0
   -0.1899   -1.1052    3.1194 C   0  0  0  0  0  0  0  0  0  0  0  0
    0.8186   -0.9183    2.7671 H   0  0  0  0  0  0  0  0  0  0  0  0
   -0.5272   -1.8046    4.2616 N   0  0  0  0  0  0  0  0  0  0  0  0
    0.1523   -2.2291    4.8759 H   0  0  0  0  0  0  0  0  0  0  0  0
   -1.8922   -1.8361    4.4530 C   0  0  0  0  0  0  0  0  0  0  0  0
   -2.7068   -2.3831    5.4547 C   0  0  0  0  0  0  0  0  0  0  0  0
   -2.2689   -2.9126    6.2881 H   0  0  0  0  0  0  0  0  0  0  0  0
   -4.1009   -2.2342    5.3581 C   0  0  0  0  0  0  0  0  0  0  0  0
   -4.7451   -2.6503    6.1208 H   0  0  0  0  0  0  0  0  0  0  0  0
   -4.6584   -1.5482    4.2636 C   0  0  0  0  0  0  0  0  0  0  0  0
   -5.7319   -1.4432    4.1889 H   0  0  0  0  0  0  0  0  0  0  0  0
   -3.8300   -1.0043    3.2615 C   0  0  0  0  0  0  0  0  0  0  0  0
   -4.2719   -0.4913    2.4191 H   0  0  0  0  0  0  0  0  0  0  0  0
   -2.4258   -1.1314    3.3327 C   0  0  0  0  0  0  0  0  0  0  0  0
   -0.0609   -1.4205   -0.2379 C   0  0  0  0  0  0  0  0  0  0  0  0
   -0.1000   -2.5743   -0.6630 O   0  0  0  0  0  0  0  0  0  0  0  0
    1.0874   -0.8095    0.0833 N   0  0  0  0  0  0  0  0  0  0  0  0
    1.0292    0.1190    0.4767 H   0  0  0  0  0  0  0  0  0  0  0  0
    2.4064   -1.4252   -0.0336 C   0  0  0  0  0  0  0  0  0  0  0  0
    2.5348   -1.8323   -1.0383 H   0  0  0  0  0  0  0  0  0  0  0  0
    3.1845   -0.6854    0.1585 H   0  0  0  0  0  0  0  0  0  0  0  0
    2.4953   -2.2391    0.6878 H   0  0  0  0  0  0  0  0  0  0  0  0
  5  6  2  0  0  0  0
  5  7  1  0  0  0  0
  2  3  1  0  0  0  0
  2  4  1  0  0  0  0
  2  5  1  0  0  0  0
  1  2  1  0  0  0  0
 29 30  2  0  0  0  0
 29 31  1  0  0  0  0
 26 27  1  0  0  0  0
 26 28  2  0  0  0  0
 24 25  1  0  0  0  0
 24 26  1  0  0  0  0
 22 23  1  0  0  0  0
 22 24  2  0  0  0  0
 20 21  1  0  0  0  0
 20 22  1  0  0  0  0
 19 20  2  0  0  0  0
 19 28  1  0  0  0  0
 17 18  1  0  0  0  0
 17 19  1  0  0  0  0
 15 16  1  0  0  0  0
 15 17  1  0  0  0  0
 14 15  2  0  0  0  0
 14 28  1  0  0  0  0
 11 12  1  0  0  0  0
 11 13  1  0  0  0  0
 11 14  1  0  0  0  0
  9 10  1  0  0  0  0
  9 11  1  0  0  0  0
  9 29  1  0  0  0  0
  7  8  1  0  0  0  0
  7  9  1  0  0  0  0
 33 34  1  0  0  0  0
 33 35  1  0  0  0  0
 33 36  1  0  0  0  0
 31 32  1  0  0  0  0
 31 33  1  0  0  0  0
M  END
$$$$
default_name
  -OEChem-12212115393D

 36 37  0     1  0  0  0  0  0999 V2000
   -4.0843   -4.0736    1.2944 H   0  0  0  0  0  0  0  0  0  0  0  0
   -4.0342   -3.2816    0.5484 C   0  0  0  0  0  0  0  0  0  0  0  0
   -4.8842   -2.6126    0.6694 H   0  0  0  0  0  0  0  0  0  0  0  0
   -4.0433   -3.7186   -0.4486 H   0  0  0  0  0  0  0  0  0  0  0  0
   -2.7532   -2.5046    0.7444 C   0  0  0  0  0  0  0  0  0  0  0  0
   -1.9803   -2.8096    1.6434 O   0  0  0  0  0  0  0  0  0  0  0  0
   -2.5332   -1.4966   -0.0966 N   0  0  0  0  0  0  0  0  0  0  0  0
   -3.2312   -1.2816   -0.7936 H   0  0  0  0  0  0  0  0  0  0  0  0
   -1.3593   -0.6196   -0.0536 C   0  0  1  0  0  0  0  0  0  0  0  0
   -1.4249    0.0926   -0.8770 H   0  0  0  0  0  0  0  0  0  0  0  0
   -1.3578    0.1703    1.2646 C   0  0  0  0  0  0  0  0  0  0  0  0
   -0.4935    0.8368    1.2743 H   0  0  0  0  0  0  0  0  0  0  0  0
   -2.2543    0.7918    1.2981 H   0  0  0  0  0  0  0  0  0  0  0  0
   -1.3125   -0.6654    2.5079 C   0  0  0  0  0  0  0  0  0  0  0  0
   -0.1899   -1.1052    3.1194 C   0  0  0  0  0  0  0  0  0  0  0  0
    0.8186   -0.9183    2.7671 H   0  0  0  0  0  0  0  0  0  0  0  0
   -0.5272   -1.8046    4.2616 N   0  0  0  0  0  0  0  0  0  0  0  0
    0.1523   -2.2291    4.8759 H   0  0  0  0  0  0  0  0  0  0  0  0
   -1.8922   -1.8361    4.4530 C   0  0  0  0  0  0  0  0  0  0  0  0
   -2.7068   -2.3831    5.4547 C   0  0  0  0  0  0  0  0  0  0  0  0
   -2.2689   -2.9126    6.2881 H   0  0  0  0  0  0  0  0  0  0  0  0
   -4.1009   -2.2342    5.3581 C   0  0  0  0  0  0  0  0  0  0  0  0
   -4.7451   -2.6503    6.1208 H   0  0  0  0  0  0  0  0  0  0  0  0
   -4.6584   -1.5482    4.2636 C   0  0  0  0  0  0  0  0  0  0  0  0
   -5.7319   -1.4432    4.1889 H   0  0  0  0  0  0  0  0  0  0  0  0
   -3.8300   -1.0043    3.2615 C   0  0  0  0  0  0  0  0  0  0  0  0
   -4.2719   -0.4913    2.4191 H   0  0  0  0  0  0  0  0  0  0  0  0
   -2.4258   -1.1314    3.3327 C   0  0  0  0  0  0  0  0  0  0  0  0
   -0.0609   -1.4205   -0.2379 C   0  0  0  0  0  0  0  0  0  0  0  0
   -0.0593   -2.4518   -0.9087 O   0  0  0  0  0  0  0  0  0  0  0  0
    1.0416   -0.9471    0.3584 N   0  0  0  0  0  0  0  0  0  0  0  0
    0.9444   -0.1241    0.9359 H   0  0  0  0  0  0  0  0  0  0  0  0
    2.3540   -1.5829    0.2828 C   0  0  0  0  0  0  0  0  0  0  0  0
    2.6136   -1.7683   -0.7612 H   0  0  0  0  0  0  0  0  0  0  0  0
    3.1099   -0.9389    0.7341 H   0  0  0  0  0  0  0  0  0  0  0  0
    2.3292   -2.5369    0.8120 H   0  0  0  0  0  0  0  0  0  0  0  0
  5  6  2  0  0  0  0
  5  7  1  0  0  0  0
  2  3  1  0  0  0  0
  2  4  1  0  0  0  0
  2  5  1  0  0  0  0
  1  2  1  0  0  0  0
 29 30  2  0  0  0  0
 29 31  1  0  0  0  0
 26 27  1  0  0  0  0
 26 28  2  0  0  0  0
 24 25  1  0  0  0  0
 24 26  1  0  0  0  0
 22 23  1  0  0  0  0
 22 24  2  0  0  0  0
 20 21  1  0  0  0  0
 20 22  1  0  0  0  0
 19 20  2  0  0  0  0
 19 28  1  0  0  0  0
 17 18  1  0  0  0  0
 17 19  1  0  0  0  0
 15 16  1  0  0  0  0
 15 17  1  0  0  0  0
 14 15  2  0  0  0  0
 14 28  1  0  0  0  0
 11 12  1  0  0  0  0
 11 13  1  0  0  0  0
 11 14  1  0  0  0  0
  9 10  1  0  0  0  0
  9 11  1  0  0  0  0
  9 29  1  0  0  0  0
  7  8  1  0  0  0  0
  7  9  1  0  0  0  0
 33 34  1  0  0  0  0
 33 35  1  0  0  0  0
 33 36  1  0  0  0  0
 31 32  1  0  0  0  0
 31 33  1  0  0  0  0
M  END
$$$$
default_name
  -OEChem-12212115393D

 36 37  0     1  0  0  0  0  0999 V2000
   -4.0843   -4.0736    1.2944 H   0  0  0  0  0  0  0  0  0  0  0  0
   -4.0342   -3.2816    0.5484 C   0  0  0  0  0  0  0  0  0  0  0  0
   -4.8842   -2.6126    0.6694 H   0  0  0  0  0  0  0  0  0  0  0  0
   -4.0433   -3.7186   -0.4486 H   0  0  0  0  0  0  0  0  0  0  0  0
   -2.7532   -2.5046    0.7444 C   0  0  0  0  0  0  0  0  0  0  0  0
   -1.9803   -2.8096    1.6434 O   0  0  0  0  0  0  0  0  0  0  0  0
   -2.5332   -1.4966   -0.0966 N   0  0  0  0  0  0  0  0  0  0  0  0
   -3.2312   -1.2816   -0.7936 H   0  0  0  0  0  0  0  0  0  0  0  0
   -1.3593   -0.6196   -0.0536 C   0  0  1  0  0  0  0  0  0  0  0  0
   -1.4249    0.0926   -0.8770 H   0  0  0  0  0  0  0  0  0  0  0  0
   -1.3578    0.1703    1.2646 C   0  0  0  0  0  0  0  0  0  0  0  0
   -0.4935    0.8368    1.2743 H   0  0  0  0  0  0  0  0  0  0  0  0
   -2.2543    0.7918    1.2981 H   0  0  0  0  0  0  0  0  0  0  0  0
   -1.3125   -0.6654    2.5079 C   0  0  0  0  0  0  0  0  0  0  0  0
   -0.1899   -1.1052    3.1194 C   0  0  0  0  0  0  0  0  0  0  0  0
    0.8186   -0.9183    2.7671 H   0  0  0  0  0  0  0  0  0  0  0  0
   -0.5272   -1.8046    4.2616 N   0  0  0  0  0  0  0  0  0  0  0  0
    0.1523   -2.2291    4.8759 H   0  0  0  0  0  0  0  0  0  0  0  0
   -1.8922   -1.8361    4.4530 C   0  0  0  0  0  0  0  0  0  0  0  0
   -2.7068   -2.3831    5.4547 C   0  0  0  0  0  0  0  0  0  0  0  0
   -2.2689   -2.9126    6.2881 H   0  0  0  0  0  0  0  0  0  0  0  0
   -4.1009   -2.2342    5.3581 C   0  0  0  0  0  0  0  0  0  0  0  0
   -4.7451   -2.6503    6.1208 H   0  0  0  0  0  0  0  0  0  0  0  0
   -4.6584   -1.5482    4.2636 C   0  0  0  0  0  0  0  0  0  0  0  0
   -5.7319   -1.4432    4.1889 H   0  0  0  0  0  0  0  0  0  0  0  0
   -3.8300   -1.0043    3.2615 C   0  0  0  0  0  0  0  0  0  0  0  0
   -4.2719   -0.4913    2.4191 H   0  0  0  0  0  0  0  0  0  0  0  0
   -2.4258   -1.1314    3.3327 C   0  0  0  0  0  0  0  0  0  0  0  0
   -0.0609   -1.4205   -0.2379 C   0  0  0  0  0  0  0  0  0  0  0  0
    0.0170   -2.2810   -1.1137 O   0  0  0  0  0  0  0  0  0  0  0  0
    0.9559   -1.1388    0.5878 N   0  0  0  0  0  0  0  0  0  0  0  0
    0.7930   -0.4568    1.3149 H   0  0  0  0  0  0  0  0  0  0  0  0
    2.2558   -1.8028    0.5468 C   0  0  0  0  0  0  0  0  0  0  0  0
    2.6544   -1.7695   -0.4689 H   0  0  0  0  0  0  0  0  0  0  0  0
    2.9522   -1.3074    1.2245 H   0  0  0  0  0  0  0  0  0  0  0  0
    2.1428   -2.8467    0.8443 H   0  0  0  0  0  0  0  0  0  0  0  0
  5  6  2  0  0  0  0
  5  7  1  0  0  0  0
  2  3  1  0  0  0  0
  2  4  1  0  0  0  0
  2  5  1  0  0  0  0
  1  2  1  0  0  0  0
 29 30  2  0  0  0  0
 29 31  1  0  0  0  0
 26 27  1  0  0  0  0
 26 28  2  0  0  0  0
 24 25  1  0  0  0  0
 24 26  1  0  0  0  0
 22 23  1  0  0  0  0
 22 24  2  0  0  0  0
 20 21  1  0  0  0  0
 20 22  1  0  0  0  0
 19 20  2  0  0  0  0
 19 28  1  0  0  0  0
 17 18  1  0  0  0  0
 17 19  1  0  0  0  0
 15 16  1  0  0  0  0
 15 17  1  0  0  0  0
 14 15  2  0  0  0  0
 14 28  1  0  0  0  0
 11 12  1  0  0  0  0
 11 13  1  0  0  0  0
 11 14  1  0  0  0  0
  9 10  1  0  0  0  0
  9 11  1  0  0  0  0
  9 29  1  0  0  0  0
  7  8  1  0  0  0  0
  7  9  1  0  0  0  0
 33 34  1  0  0  0  0
 33 35  1  0  0  0  0
 33 36  1  0  0  0  0
 31 32  1  0  0  0  0
 31 33  1  0  0  0  0
M  END
$$$$
default_name
  -OEChem-12212115393D

 36 37  0     1  0  0  0  0  0999 V2000
   -4.0843   -4.0736    1.2944 H   0  0  0  0  0  0  0  0  0  0  0  0
   -4.0342   -3.2816    0.5484 C   0  0  0  0  0  0  0  0  0  0  0  0
   -4.8842   -2.6126    0.6694 H   0  0  0  0  0  0  0  0  0  0  0  0
   -4.0433   -3.7186   -0.4486 H   0  0  0  0  0  0  0  0  0  0  0  0
   -2.7532   -2.5046    0.7444 C   0  0  0  0  0  0  0  0  0  0  0  0
   -1.9803   -2.8096    1.6434 O   0  0  0  0  0  0  0  0  0  0  0  0
   -2.5332   -1.4966   -0.0966 N   0  0  0  0  0  0  0  0  0  0  0  0
   -3.2312   -1.2816   -0.7936 H   0  0  0  0  0  0  0  0  0  0  0  0
   -1.3593   -0.6196   -0.0536 C   0  0  1  0  0  0  0  0  0  0  0  0
   -1.4249    0.0926   -0.8770 H   0  0  0  0  0  0  0  0  0  0  0  0
   -1.3578    0.1703    1.2646 C   0  0  0  0  0  0  0  0  0  0  0  0
   -0.4935    0.8368    1.2743 H   0  0  0  0  0  0  0  0  0  0  0  0
   -2.2543    0.7918    1.2981 H   0  0  0  0  0  0  0  0  0  0  0  0
   -1.3125   -0.6654    2.5079 C   0  0  0  0  0  0  0  0  0  0  0  0
   -0.1899   -1.1052    3.1194 C   0  0  0  0  0  0  0  0  0  0  0  0
    0.8186   -0.9183    2.7671 H   0  0  0  0  0  0  0  0  0  0  0  0
   -0.5272   -1.8046    4.2616 N   0  0  0  0  0  0  0  0  0  0  0  0
    0.1523   -2.2291    4.8759 H   0  0  0  0  0  0  0  0  0  0  0  0
   -1.8922   -1.8361    4.4530 C   0  0  0  0  0  0  0  0  0  0  0  0
   -2.7068   -2.3831    5.4547 C   0  0  0  0  0  0  0  0  0  0  0  0
   -2.2689   -2.9126    6.2881 H   0  0  0  0  0  0  0  0  0  0  0  0
   -4.1009   -2.2342    5.3581 C   0  0  0  0  0  0  0  0  0  0  0  0
   -4.7451   -2.6503    6.1208 H   0  0  0  0  0  0  0  0  0  0  0  0
   -4.6584   -1.5482    4.2636 C   0  0  0  0  0  0  0  0  0  0  0  0
   -5.7319   -1.4432    4.1889 H   0  0  0  0  0  0  0  0  0  0  0  0
   -3.8300   -1.0043    3.2615 C   0  0  0  0  0  0  0  0  0  0  0  0
   -4.2719   -0.4913    2.4191 H   0  0  0  0  0  0  0  0  0  0  0  0
   -2.4258   -1.1314    3.3327 C   0  0  0  0  0  0  0  0  0  0  0  0
   -0.0609   -1.4205   -0.2379 C   0  0  0  0  0  0  0  0  0  0  0  0
    0.1236   -2.0736   -1.2641 O   0  0  0  0  0  0  0  0  0  0  0  0
    0.8363   -1.3714    0.7559 N   0  0  0  0  0  0  0  0  0  0  0  0
    0.5853   -0.8563    1.5878 H   0  0  0  0  0  0  0  0  0  0  0  0
    2.1185   -2.0700    0.7405 C   0  0  0  0  0  0  0  0  0  0  0  0
    2.6543   -1.8358   -0.1814 H   0  0  0  0  0  0  0  0  0  0  0  0
    2.7224   -1.7657    1.5964 H   0  0  0  0  0  0  0  0  0  0  0  0
    1.9487   -3.1471    0.7827 H   0  0  0  0  0  0  0  0  0  0  0  0
  5  6  2  0  0  0  0
  5  7  1  0  0  0  0
  2  3  1  0  0  0  0
  2  4  1  0  0  0  0
  2  5  1  0  0  0  0
  1  2  1  0  0  0  0
 29 30  2  0  0  0  0
 29 31  1  0  0  0  0
 26 27  1  0  0  0  0
 26 28  2  0  0  0  0
 24 25  1  0  0  0  0
 24 26  1  0  0  0  0
 22 23  1  0  0  0  0
 22 24  2  0  0  0  0
 20 21  1  0  0  0  0
 20 22  1  0  0  0  0
 19 20  2  0  0  0  0
 19 28  1  0  0  0  0
 17 18  1  0  0  0  0
 17 19  1  0  0  0  0
 15 16  1  0  0  0  0
 15 17  1  0  0  0  0
 14 15  2  0  0  0  0
 14 28  1  0  0  0  0
 11 12  1  0  0  0  0
 11 13  1  0  0  0  0
 11 14  1  0  0  0  0
  9 10  1  0  0  0  0
  9 11  1  0  0  0  0
  9 29  1  0  0  0  0
  7  8  1  0  0  0  0
  7  9  1  0  0  0  0
 33 34  1  0  0  0  0
 33 35  1  0  0  0  0
 33 36  1  0  0  0  0
 31 32  1  0  0  0  0
 31 33  1  0  0  0  0
M  END
$$$$
default_name
  -OEChem-12212115393D

 36 37  0     1  0  0  0  0  0999 V2000
   -4.0843   -4.0736    1.2944 H   0  0  0  0  0  0  0  0  0  0  0  0
   -4.0342   -3.2816    0.5484 C   0  0  0  0  0  0  0  0  0  0  0  0
   -4.8842   -2.6126    0.6694 H   0  0  0  0  0  0  0  0  0  0  0  0
   -4.0433   -3.7186   -0.4486 H   0  0  0  0  0  0  0  0  0  0  0  0
   -2.7532   -2.5046    0.7444 C   0  0  0  0  0  0  0  0  0  0  0  0
   -1.9803   -2.8096    1.6434 O   0  0  0  0  0  0  0  0  0  0  0  0
   -2.5332   -1.4966   -0.0966 N   0  0  0  0  0  0  0  0  0  0  0  0
   -3.2312   -1.2816   -0.7936 H   0  0  0  0  0  0  0  0  0  0  0  0
   -1.3593   -0.6196   -0.0536 C   0  0  1  0  0  0  0  0  0  0  0  0
   -1.4249    0.0926   -0.8770 H   0  0  0  0  0  0  0  0  0  0  0  0
   -1.3578    0.1703    1.2646 C   0  0  0  0  0  0  0  0  0  0  0  0
   -0.4935    0.8368    1.2743 H   0  0  0  0  0  0  0  0  0  0  0  0
   -2.2543    0.7918    1.2981 H   0  0  0  0  0  0  0  0  0  0  0  0
   -1.3125   -0.6654    2.5079 C   0  0  0  0  0  0  0  0  0  0  0  0
   -0.1899   -1.1052    3.1194 C   0  0  0  0  0  0  0  0  0  0  0  0
    0.8186   -0.9183    2.7671 H   0  0  0  0  0  0  0  0  0  0  0  0
   -0.5272   -1.8046    4.2616 N   0  0  0  0  0  0  0  0  0  0  0  0
    0.1523   -2.2291    4.8759 H   0  0  0  0  0  0  0  0  0  0  0  0
   -1.8922   -1.8361    4.4530 C   0  0  0  0  0  0  0  0  0  0  0  0
   -2.7068   -2.3831    5.4547 C   0  0  0  0  0  0  0  0  0  0  0  0
   -2.2689   -2.9126    6.2881 H   0  0  0  0  0  0  0  0  0  0  0  0
   -4.1009   -2.2342    5.3581 C   0  0  0  0  0  0  0  0  0  0  0  0
   -4.7451   -2.6503    6.1208 H   0  0  0  0  0  0  0  0  0  0  0  0
   -4.6584   -1.5482    4.2636 C   0  0  0  0  0  0  0  0  0  0  0  0
   -5.7319   -1.4432    4.1889 H   0  0  0  0  0  0  0  0  0  0  0  0
   -3.8300   -1.0043    3.2615 C   0  0  0  0  0  0  0  0  0  0  0  0
   -4.2719   -0.4913    2.4191 H   0  0  0  0  0  0  0  0  0  0  0  0
   -2.4258   -1.1314    3.3327 C   0  0  0  0  0  0  0  0  0  0  0  0
   -0.0609   -1.4205   -0.2379 C   0  0  0  0  0  0  0  0  0  0  0  0
    0.2533   -1.8436   -1.3496 O   0  0  0  0  0  0  0  0  0  0  0  0
    0.6909   -1.6292    0.8513 N   0  0  0  0  0  0  0  0  0  0  0  0
    0.3355   -1.2954    1.7360 H   0  0  0  0  0  0  0  0  0  0  0  0
    1.9515   -2.3661    0.8507 C   0  0  0  0  0  0  0  0  0  0  0  0
    2.6133   -1.9628    0.0819 H   0  0  0  0  0  0  0  0  0  0  0  0
    2.4359   -2.2825    1.8244 H   0  0  0  0  0  0  0  0  0  0  0  0
    1.7603   -3.4178    0.6312 H   0  0  0  0  0  0  0  0  0  0  0  0
  5  6  2  0  0  0  0
  5  7  1  0  0  0  0
  2  3  1  0  0  0  0
  2  4  1  0  0  0  0
  2  5  1  0  0  0  0
  1  2  1  0  0  0  0
 29 30  2  0  0  0  0
 29 31  1  0  0  0  0
 26 27  1  0  0  0  0
 26 28  2  0  0  0  0
 24 25  1  0  0  0  0
 24 26  1  0  0  0  0
 22 23  1  0  0  0  0
 22 24  2  0  0  0  0
 20 21  1  0  0  0  0
 20 22  1  0  0  0  0
 19 20  2  0  0  0  0
 19 28  1  0  0  0  0
 17 18  1  0  0  0  0
 17 19  1  0  0  0  0
 15 16  1  0  0  0  0
 15 17  1  0  0  0  0
 14 15  2  0  0  0  0
 14 28  1  0  0  0  0
 11 12  1  0  0  0  0
 11 13  1  0  0  0  0
 11 14  1  0  0  0  0
  9 10  1  0  0  0  0
  9 11  1  0  0  0  0
  9 29  1  0  0  0  0
  7  8  1  0  0  0  0
  7  9  1  0  0  0  0
 33 34  1  0  0  0  0
 33 35  1  0  0  0  0
 33 36  1  0  0  0  0
 31 32  1  0  0  0  0
 31 33  1  0  0  0  0
M  END
$$$$
default_name
  -OEChem-12212115393D

 36 37  0     1  0  0  0  0  0999 V2000
   -4.0843   -4.0736    1.2944 H   0  0  0  0  0  0  0  0  0  0  0  0
   -4.0342   -3.2816    0.5484 C   0  0  0  0  0  0  0  0  0  0  0  0
   -4.8842   -2.6126    0.6694 H   0  0  0  0  0  0  0  0  0  0  0  0
   -4.0433   -3.7186   -0.4486 H   0  0  0  0  0  0  0  0  0  0  0  0
   -2.7532   -2.5046    0.7444 C   0  0  0  0  0  0  0  0  0  0  0  0
   -1.9803   -2.8096    1.6434 O   0  0  0  0  0  0  0  0  0  0  0  0
   -2.5332   -1.4966   -0.0966 N   0  0  0  0  0  0  0  0  0  0  0  0
   -3.2312   -1.2816   -0.7936 H   0  0  0  0  0  0  0  0  0  0  0  0
   -1.3593   -0.6196   -0.0536 C   0  0  1  0  0  0  0  0  0  0  0  0
   -1.4249    0.0926   -0.8770 H   0  0  0  0  0  0  0  0  0  0  0  0
   -1.3578    0.1703    1.2646 C   0  0  0  0  0  0  0  0  0  0  0  0
   -0.4935    0.8368    1.2743 H   0  0  0  0  0  0  0  0  0  0  0  0
   -2.2543    0.7918    1.2981 H   0  0  0  0  0  0  0  0  0  0  0  0
   -1.3125   -0.6654    2.5079 C   0  0  0  0  0  0  0  0  0  0  0  0
   -0.1899   -1.1052    3.1194 C   0  0  0  0  0  0  0  0  0  0  0  0
    0.8186   -0.9183    2.7671 H   0  0  0  0  0  0  0  0  0  0  0  0
   -0.5272   -1.8046    4.2616 N   0  0  0  0  0  0  0  0  0  0  0  0
    0.1523   -2.2291    4.8759 H   0  0  0  0  0  0  0  0  0  0  0  0
   -1.8922   -1.8361    4.4530 C   0  0  0  0  0  0  0  0  0  0  0  0
   -2.7068   -2.3831    5.4547 C   0  0  0  0  0  0  0  0  0  0  0  0
   -2.2689   -2.9126    6.2881 H   0  0  0  0  0  0  0  0  0  0  0  0
   -4.1009   -2.2342    5.3581 C   0  0  0  0  0  0  0  0  0  0  0  0
   -4.7451   -2.6503    6.1208 H   0  0  0  0  0  0  0  0  0  0  0  0
   -4.6584   -1.5482    4.2636 C   0  0  0  0  0  0  0  0  0  0  0  0
   -5.7319   -1.4432    4.1889 H   0  0  0  0  0  0  0  0  0  0  0  0
   -3.8300   -1.0043    3.2615 C   0  0  0  0  0  0  0  0  0  0  0  0
   -4.2719   -0.4913    2.4191 H   0  0  0  0  0  0  0  0  0  0  0  0
   -2.4258   -1.1314    3.3327 C   0  0  0  0  0  0  0  0  0  0  0  0
   -0.0609   -1.4205   -0.2379 C   0  0  0  0  0  0  0  0  0  0  0  0
    0.3972   -1.6068   -1.3644 O   0  0  0  0  0  0  0  0  0  0  0  0
    0.5295   -1.8945    0.8675 N   0  0  0  0  0  0  0  0  0  0  0  0
    0.0606   -1.7443    1.7494 H   0  0  0  0  0  0  0  0  0  0  0  0
    1.7661   -2.6711    0.8698 C   0  0  0  0  0  0  0  0  0  0  0  0
    2.5343   -2.1417    0.3029 H   0  0  0  0  0  0  0  0  0  0  0  0
    2.1125   -2.8227    1.8930 H   0  0  0  0  0  0  0  0  0  0  0  0
    1.5902   -3.6403    0.4003 H   0  0  0  0  0  0  0  0  0  0  0  0
  5  6  2  0  0  0  0
  5  7  1  0  0  0  0
  2  3  1  0  0  0  0
  2  4  1  0  0  0  0
  2  5  1  0  0  0  0
  1  2  1  0  0  0  0
 29 30  2  0  0  0  0
 29 31  1  0  0  0  0
 26 27  1  0  0  0  0
 26 28  2  0  0  0  0
 24 25  1  0  0  0  0
 24 26  1  0  0  0  0
 22 23  1  0  0  0  0
 22 24  2  0  0  0  0
 20 21  1  0  0  0  0
 20 22  1  0  0  0  0
 19 20  2  0  0  0  0
 19 28  1  0  0  0  0
 17 18  1  0  0  0  0
 17 19  1  0  0  0  0
 15 16  1  0  0  0  0
 15 17  1  0  0  0  0
 14 15  2  0  0  0  0
 14 28  1  0  0  0  0
 11 12  1  0  0  0  0
 11 13  1  0  0  0  0
 11 14  1  0  0  0  0
  9 10  1  0  0  0  0
  9 11  1  0  0  0  0
  9 29  1  0  0  0  0
  7  8  1  0  0  0  0
  7  9  1  0  0  0  0
 33 34  1  0  0  0  0
 33 35  1  0  0  0  0
 33 36  1  0  0  0  0
 31 32  1  0  0  0  0
 31 33  1  0  0  0  0
M  END
$$$$
default_name
  -OEChem-12212115393D

 36 37  0     1  0  0  0  0  0999 V2000
   -4.0843   -4.0736    1.2944 H   0  0  0  0  0  0  0  0  0  0  0  0
   -4.0342   -3.2816    0.5484 C   0  0  0  0  0  0  0  0  0  0  0  0
   -4.8842   -2.6126    0.6694 H   0  0  0  0  0  0  0  0  0  0  0  0
   -4.0433   -3.7186   -0.4486 H   0  0  0  0  0  0  0  0  0  0  0  0
   -2.7532   -2.5046    0.7444 C   0  0  0  0  0  0  0  0  0  0  0  0
   -1.9803   -2.8096    1.6434 O   0  0  0  0  0  0  0  0  0  0  0  0
   -2.5332   -1.4966   -0.0966 N   0  0  0  0  0  0  0  0  0  0  0  0
   -3.2312   -1.2816   -0.7936 H   0  0  0  0  0  0  0  0  0  0  0  0
   -1.3593   -0.6196   -0.0536 C   0  0  1  0  0  0  0  0  0  0  0  0
   -1.4249    0.0926   -0.8770 H   0  0  0  0  0  0  0  0  0  0  0  0
   -1.3578    0.1703    1.2646 C   0  0  0  0  0  0  0  0  0  0  0  0
   -0.4935    0.8368    1.2743 H   0  0  0  0  0  0  0  0  0  0  0  0
   -2.2543    0.7918    1.2981 H   0  0  0  0  0  0  0  0  0  0  0  0
   -1.3125   -0.6654    2.5079 C   0  0  0  0  0  0  0  0  0  0  0  0
   -0.1899   -1.1052    3.1194 C   0  0  0  0  0  0  0  0  0  0  0  0
    0.8186   -0.9183    2.7671 H   0  0  0  0  0  0  0  0  0  0  0  0
   -0.5272   -1.8046    4.2616 N   0  0  0  0  0  0  0  0  0  0  0  0
    0.1523   -2.2291    4.8759 H   0  0  0  0  0  0  0  0  0  0  0  0
   -1.8922   -1.8361    4.4530 C   0  0  0  0  0  0  0  0  0  0  0  0
   -2.7068   -2.3831    5.4547 C   0  0  0  0  0  0  0  0  0  0  0  0
   -2.2689   -2.9126    6.2881 H   0  0  0  0  0  0  0  0  0  0  0  0
   -4.1009   -2.2342    5.3581 C   0  0  0  0  0  0  0  0  0  0  0  0
   -4.7451   -2.6503    6.1208 H   0  0  0  0  0  0  0  0  0  0  0  0
   -4.6584   -1.5482    4.2636 C   0  0  0  0  0  0  0  0  0  0  0  0
   -5.7319   -1.4432    4.1889 H   0  0  0  0  0  0  0  0  0  0  0  0
   -3.8300   -1.0043    3.2615 C   0  0  0  0  0  0  0  0  0  0  0  0
   -4.2719   -0.4913    2.4191 H   0  0  0  0  0  0  0  0  0  0  0  0
   -2.4258   -1.1314    3.3327 C   0  0  0  0  0  0  0  0  0  0  0  0
   -0.0609   -1.4205   -0.2379 C   0  0  0  0  0  0  0  0  0  0  0  0
    0.5456   -1.3793   -1.3075 O   0  0  0  0  0  0  0  0  0  0  0  0
    0.3632   -2.1493    0.8033 N   0  0  0  0  0  0  0  0  0  0  0  0
   -0.2207   -2.1722    1.6271 H   0  0  0  0  0  0  0  0  0  0  0  0
    1.5750   -2.9641    0.7966 C   0  0  0  0  0  0  0  0  0  0  0  0
    2.4227   -2.3604    0.4666 H   0  0  0  0  0  0  0  0  0  0  0  0
    1.7740   -3.3495    1.7974 H   0  0  0  0  0  0  0  0  0  0  0  0
    1.4502   -3.7995    0.1057 H   0  0  0  0  0  0  0  0  0  0  0  0
  5  6  2  0  0  0  0
  5  7  1  0  0  0  0
  2  3  1  0  0  0  0
  2  4  1  0  0  0  0
  2  5  1  0  0  0  0
  1  2  1  0  0  0  0
 29 30  2  0  0  0  0
 29 31  1  0  0  0  0
 26 27  1  0  0  0  0
 26 28  2  0  0  0  0
 24 25  1  0  0  0  0
 24 26  1  0  0  0  0
 22 23  1  0  0  0  0
 22 24  2  0  0  0  0
 20 21  1  0  0  0  0
 20 22  1  0  0  0  0
 19 20  2  0  0  0  0
 19 28  1  0  0  0  0
 17 18  1  0  0  0  0
 17 19  1  0  0  0  0
 15 16  1  0  0  0  0
 15 17  1  0  0  0  0
 14 15  2  0  0  0  0
 14 28  1  0  0  0  0
 11 12  1  0  0  0  0
 11 13  1  0  0  0  0
 11 14  1  0  0  0  0
  9 10  1  0  0  0  0
  9 11  1  0  0  0  0
  9 29  1  0  0  0  0
  7  8  1  0  0  0  0
  7  9  1  0  0  0  0
 33 34  1  0  0  0  0
 33 35  1  0  0  0  0
 33 36  1  0  0  0  0
 31 32  1  0  0  0  0
 31 33  1  0  0  0  0
M  END
$$$$
default_name
  -OEChem-12212115393D

 36 37  0     1  0  0  0  0  0999 V2000
   -4.0843   -4.0736    1.2944 H   0  0  0  0  0  0  0  0  0  0  0  0
   -4.0342   -3.2816    0.5484 C   0  0  0  0  0  0  0  0  0  0  0  0
   -4.8842   -2.6126    0.6694 H   0  0  0  0  0  0  0  0  0  0  0  0
   -4.0433   -3.7186   -0.4486 H   0  0  0  0  0  0  0  0  0  0  0  0
   -2.7532   -2.5046    0.7444 C   0  0  0  0  0  0  0  0  0  0  0  0
   -1.9803   -2.8096    1.6434 O   0  0  0  0  0  0  0  0  0  0  0  0
   -2.5332   -1.4966   -0.0966 N   0  0  0  0  0  0  0  0  0  0  0  0
   -3.2312   -1.2816   -0.7936 H   0  0  0  0  0  0  0  0  0  0  0  0
   -1.3593   -0.6196   -0.0536 C   0  0  1  0  0  0  0  0  0  0  0  0
   -1.4249    0.0926   -0.8770 H   0  0  0  0  0  0  0  0  0  0  0  0
   -1.3578    0.1703    1.2646 C   0  0  0  0  0  0  0  0  0  0  0  0
   -0.4935    0.8368    1.2743 H   0  0  0  0  0  0  0  0  0  0  0  0
   -2.2543    0.7918    1.2981 H   0  0  0  0  0  0  0  0  0  0  0  0
   -1.3125   -0.6654    2.5079 C   0  0  0  0  0  0  0  0  0  0  0  0
   -0.1899   -1.1052    3.1194 C   0  0  0  0  0  0  0  0  0  0  0  0
    0.8186   -0.9183    2.7671 H   0  0  0  0  0  0  0  0  0  0  0  0
   -0.5272   -1.8046    4.2616 N   0  0  0  0  0  0  0  0  0  0  0  0
    0.1523   -2.2291    4.8759 H   0  0  0  0  0  0  0  0  0  0  0  0
   -1.8922   -1.8361    4.4530 C   0  0  0  0  0  0  0  0  0  0  0  0
   -2.7068   -2.3831    5.4547 C   0  0  0  0  0  0  0  0  0  0  0  0
   -2.2689   -2.9126    6.2881 H   0  0  0  0  0  0  0  0  0  0  0  0
   -4.1009   -2.2342    5.3581 C   0  0  0  0  0  0  0  0  0  0  0  0
   -4.7451   -2.6503    6.1208 H   0  0  0  0  0  0  0  0  0  0  0  0
   -4.6584   -1.5482    4.2636 C   0  0  0  0  0  0  0  0  0  0  0  0
   -5.7319   -1.4432    4.1889 H   0  0  0  0  0  0  0  0  0  0  0  0
   -3.8300   -1.0043    3.2615 C   0  0  0  0  0  0  0  0  0  0  0  0
   -4.2719   -0.4913    2.4191 H   0  0  0  0  0  0  0  0  0  0  0  0
   -2.4258   -1.1314    3.3327 C   0  0  0  0  0  0  0  0  0  0  0  0
   -0.0609   -1.4205   -0.2379 C   0  0  0  0  0  0  0  0  0  0  0  0
    0.6883   -1.1766   -1.1828 O   0  0  0  0  0  0  0  0  0  0  0  0
    0.2034   -2.3762    0.6631 N   0  0  0  0  0  0  0  0  0  0  0  0
   -0.4893   -2.5501    1.3774 H   0  0  0  0  0  0  0  0  0  0  0  0
    1.3912   -3.2251    0.6360 C   0  0  0  0  0  0  0  0  0  0  0  0
    2.2859   -2.6041    0.5618 H   0  0  0  0  0  0  0  0  0  0  0  0
    1.4436   -3.8269    1.5443 H   0  0  0  0  0  0  0  0  0  0  0  0
    1.3498   -3.8845   -0.2326 H   0  0  0  0  0  0  0  0  0  0  0  0
  5  6  2  0  0  0  0
  5  7  1  0  0  0  0
  2  3  1  0  0  0  0
  2  4  1  0  0  0  0
  2  5  1  0  0  0  0
  1  2  1  0  0  0  0
 29 30  2  0  0  0  0
 29 31  1  0  0  0  0
 26 27  1  0  0  0  0
 26 28  2  0  0  0  0
 24 25  1  0  0  0  0
 24 26  1  0  0  0  0
 22 23  1  0  0  0  0
 22 24  2  0  0  0  0
 20 21  1  0  0  0  0
 20 22  1  0  0  0  0
 19 20  2  0  0  0  0
 19 28  1  0  0  0  0
 17 18  1  0  0  0  0
 17 19  1  0  0  0  0
 15 16  1  0  0  0  0
 15 17  1  0  0  0  0
 14 15  2  0  0  0  0
 14 28  1  0  0  0  0
 11 12  1  0  0  0  0
 11 13  1  0  0  0  0
 11 14  1  0  0  0  0
  9 10  1  0  0  0  0
  9 11  1  0  0  0  0
  9 29  1  0  0  0  0
  7  8  1  0  0  0  0
  7  9  1  0  0  0  0
 33 34  1  0  0  0  0
 33 35  1  0  0  0  0
 33 36  1  0  0  0  0
 31 32  1  0  0  0  0
 31 33  1  0  0  0  0
M  END
$$$$
default_name
  -OEChem-12212115393D

 36 37  0     1  0  0  0  0  0999 V2000
   -4.0843   -4.0736    1.2944 H   0  0  0  0  0  0  0  0  0  0  0  0
   -4.0342   -3.2816    0.5484 C   0  0  0  0  0  0  0  0  0  0  0  0
   -4.8842   -2.6126    0.6694 H   0  0  0  0  0  0  0  0  0  0  0  0
   -4.0433   -3.7186   -0.4486 H   0  0  0  0  0  0  0  0  0  0  0  0
   -2.7532   -2.5046    0.7444 C   0  0  0  0  0  0  0  0  0  0  0  0
   -1.9803   -2.8096    1.6434 O   0  0  0  0  0  0  0  0  0  0  0  0
   -2.5332   -1.4966   -0.0966 N   0  0  0  0  0  0  0  0  0  0  0  0
   -3.2312   -1.2816   -0.7936 H   0  0  0  0  0  0  0  0  0  0  0  0
   -1.3593   -0.6196   -0.0536 C   0  0  1  0  0  0  0  0  0  0  0  0
   -1.4249    0.0926   -0.8770 H   0  0  0  0  0  0  0  0  0  0  0  0
   -1.3578    0.1703    1.2646 C   0  0  0  0  0  0  0  0  0  0  0  0
   -0.4935    0.8368    1.2743 H   0  0  0  0  0  0  0  0  0  0  0  0
   -2.2543    0.7918    1.2981 H   0  0  0  0  0  0  0  0  0  0  0  0
   -1.3125   -0.6654    2.5079 C   0  0  0  0  0  0  0  0  0  0  0  0
   -0.1899   -1.1052    3.1194 C   0  0  0  0  0  0  0  0  0  0  0  0
    0.8186   -0.9183    2.7671 H   0  0  0  0  0  0  0  0  0  0  0  0
   -0.5272   -1.8046    4.2616 N   0  0  0  0  0  0  0  0  0  0  0  0
    0.1523   -2.2291    4.8759 H   0  0  0  0  0  0  0  0  0  0  0  0
   -1.8922   -1.8361    4.4530 C   0  0  0  0  0  0  0  0  0  0  0  0
   -2.7068   -2.3831    5.4547 C   0  0  0  0  0  0  0  0  0  0  0  0
   -2.2689   -2.9126    6.2881 H   0  0  0  0  0  0  0  0  0  0  0  0
   -4.1009   -2.2342    5.3581 C   0  0  0  0  0  0  0  0  0  0  0  0
   -4.7451   -2.6503    6.1208 H   0  0  0  0  0  0  0  0  0  0  0  0
   -4.6584   -1.5482    4.2636 C   0  0  0  0  0  0  0  0  0  0  0  0
   -5.7319   -1.4432    4.1889 H   0  0  0  0  0  0  0  0  0  0  0  0
   -3.8300   -1.0043    3.2615 C   0  0  0  0  0  0  0  0  0  0  0  0
   -4.2719   -0.4913    2.4191 H   0  0  0  0  0  0  0  0  0  0  0  0
   -2.4258   -1.1314    3.3327 C   0  0  0  0  0  0  0  0  0  0  0  0
   -0.0609   -1.4205   -0.2379 C   0  0  0  0  0  0  0  0  0  0  0  0
    0.8157   -1.0125   -0.9988 O   0  0  0  0  0  0  0  0  0  0  0  0
    0.0608   -2.5598    0.4565 N   0  0  0  0  0  0  0  0  0  0  0  0
   -0.7267   -2.8522    1.0174 H   0  0  0  0  0  0  0  0  0  0  0  0
    1.2272   -3.4365    0.3990 C   0  0  0  0  0  0  0  0  0  0  0  0
    2.1334   -2.8559    0.5820 H   0  0  0  0  0  0  0  0  0  0  0  0
    1.1438   -4.2224    1.1508 H   0  0  0  0  0  0  0  0  0  0  0  0
    1.2958   -3.8894   -0.5914 H   0  0  0  0  0  0  0  0  0  0  0  0
  5  6  2  0  0  0  0
  5  7  1  0  0  0  0
  2  3  1  0  0  0  0
  2  4  1  0  0  0  0
  2  5  1  0  0  0  0
  1  2  1  0  0  0  0
 29 30  2  0  0  0  0
 29 31  1  0  0  0  0
 26 27  1  0  0  0  0
 26 28  2  0  0  0  0
 24 25  1  0  0  0  0
 24 26  1  0  0  0  0
 22 23  1  0  0  0  0
 22 24  2  0  0  0  0
 20 21  1  0  0  0  0
 20 22  1  0  0  0  0
 19 20  2  0  0  0  0
 19 28  1  0  0  0  0
 17 18  1  0  0  0  0
 17 19  1  0  0  0  0
 15 16  1  0  0  0  0
 15 17  1  0  0  0  0
 14 15  2  0  0  0  0
 14 28  1  0  0  0  0
 11 12  1  0  0  0  0
 11 13  1  0  0  0  0
 11 14  1  0  0  0  0
  9 10  1  0  0  0  0
  9 11  1  0  0  0  0
  9 29  1  0  0  0  0
  7  8  1  0  0  0  0
  7  9  1  0  0  0  0
 33 34  1  0  0  0  0
 33 35  1  0  0  0  0
 33 36  1  0  0  0  0
 31 32  1  0  0  0  0
 31 33  1  0  0  0  0
M  END
$$$$
default_name
  -OEChem-12212115393D

 36 37  0     1  0  0  0  0  0999 V2000
   -4.0843   -4.0736    1.2944 H   0  0  0  0  0  0  0  0  0  0  0  0
   -4.0342   -3.2816    0.5484 C   0  0  0  0  0  0  0  0  0  0  0  0
   -4.8842   -2.6126    0.6694 H   0  0  0  0  0  0  0  0  0  0  0  0
   -4.0433   -3.7186   -0.4486 H   0  0  0  0  0  0  0  0  0  0  0  0
   -2.7532   -2.5046    0.7444 C   0  0  0  0  0  0  0  0  0  0  0  0
   -1.9803   -2.8096    1.6434 O   0  0  0  0  0  0  0  0  0  0  0  0
   -2.5332   -1.4966   -0.0966 N   0  0  0  0  0  0  0  0  0  0  0  0
   -3.2312   -1.2816   -0.7936 H   0  0  0  0  0  0  0  0  0  0  0  0
   -1.3593   -0.6196   -0.0536 C   0  0  1  0  0  0  0  0  0  0  0  0
   -1.4249    0.0926   -0.8770 H   0  0  0  0  0  0  0  0  0  0  0  0
   -1.3578    0.1703    1.2646 C   0  0  0  0  0  0  0  0  0  0  0  0
   -0.4935    0.8368    1.2743 H   0  0  0  0  0  0  0  0  0  0  0  0
   -2.2543    0.7918    1.2981 H   0  0  0  0  0  0  0  0  0  0  0  0
   -1.3125   -0.6654    2.5079 C   0  0  0  0  0  0  0  0  0  0  0  0
   -0.1899   -1.1052    3.1194 C   0  0  0  0  0  0  0  0  0  0  0  0
    0.8186   -0.9183    2.7671 H   0  0  0  0  0  0  0  0  0  0  0  0
   -0.5272   -1.8046    4.2616 N   0  0  0  0  0  0  0  0  0  0  0  0
    0.1523   -2.2291    4.8759 H   0  0  0  0  0  0  0  0  0  0  0  0
   -1.8922   -1.8361    4.4530 C   0  0  0  0  0  0  0  0  0  0  0  0
   -2.7068   -2.3831    5.4547 C   0  0  0  0  0  0  0  0  0  0  0  0
   -2.2689   -2.9126    6.2881 H   0  0  0  0  0  0  0  0  0  0  0  0
   -4.1009   -2.2342    5.3581 C   0  0  0  0  0  0  0  0  0  0  0  0
   -4.7451   -2.6503    6.1208 H   0  0  0  0  0  0  0  0  0  0  0  0
   -4.6584   -1.5482    4.2636 C   0  0  0  0  0  0  0  0  0  0  0  0
   -5.7319   -1.4432    4.1889 H   0  0  0  0  0  0  0  0  0  0  0  0
   -3.8300   -1.0043    3.2615 C   0  0  0  0  0  0  0  0  0  0  0  0
   -4.2719   -0.4913    2.4191 H   0  0  0  0  0  0  0  0  0  0  0  0
   -2.4258   -1.1314    3.3327 C   0  0  0  0  0  0  0  0  0  0  0  0
   -0.0609   -1.4205   -0.2379 C   0  0  0  0  0  0  0  0  0  0  0  0
    0.9189   -0.8983   -0.7679 O   0  0  0  0  0  0  0  0  0  0  0  0
   -0.0547   -2.6875    0.1976 N   0  0  0  0  0  0  0  0  0  0  0  0
   -0.9168   -3.0578    0.5716 H   0  0  0  0  0  0  0  0  0  0  0  0
    1.0942   -3.5837    0.1017 C   0  0  0  0  0  0  0  0  0  0  0  0
    1.9756   -3.0989    0.5259 H   0  0  0  0  0  0  0  0  0  0  0  0
    0.8950   -4.5091    0.6437 H   0  0  0  0  0  0  0  0  0  0  0  0
    1.2919   -3.8141   -0.9465 H   0  0  0  0  0  0  0  0  0  0  0  0
  5  6  2  0  0  0  0
  5  7  1  0  0  0  0
  2  3  1  0  0  0  0
  2  4  1  0  0  0  0
  2  5  1  0  0  0  0
  1  2  1  0  0  0  0
 29 30  2  0  0  0  0
 29 31  1  0  0  0  0
 26 27  1  0  0  0  0
 26 28  2  0  0  0  0
 24 25  1  0  0  0  0
 24 26  1  0  0  0  0
 22 23  1  0  0  0  0
 22 24  2  0  0  0  0
 20 21  1  0  0  0  0
 20 22  1  0  0  0  0
 19 20  2  0  0  0  0
 19 28  1  0  0  0  0
 17 18  1  0  0  0  0
 17 19  1  0  0  0  0
 15 16  1  0  0  0  0
 15 17  1  0  0  0  0
 14 15  2  0  0  0  0
 14 28  1  0  0  0  0
 11 12  1  0  0  0  0
 11 13  1  0  0  0  0
 11 14  1  0  0  0  0
  9 10  1  0  0  0  0
  9 11  1  0  0  0  0
  9 29  1  0  0  0  0
  7  8  1  0  0  0  0
  7  9  1  0  0  0  0
 33 34  1  0  0  0  0
 33 35  1  0  0  0  0
 33 36  1  0  0  0  0
 31 32  1  0  0  0  0
 31 33  1  0  0  0  0
M  END
$$$$
default_name
  -OEChem-12212115393D

 36 37  0     1  0  0  0  0  0999 V2000
   -4.0843   -4.0736    1.2944 H   0  0  0  0  0  0  0  0  0  0  0  0
   -4.0342   -3.2816    0.5484 C   0  0  0  0  0  0  0  0  0  0  0  0
   -4.8842   -2.6126    0.6694 H   0  0  0  0  0  0  0  0  0  0  0  0
   -4.0433   -3.7186   -0.4486 H   0  0  0  0  0  0  0  0  0  0  0  0
   -2.7532   -2.5046    0.7444 C   0  0  0  0  0  0  0  0  0  0  0  0
   -1.9803   -2.8096    1.6434 O   0  0  0  0  0  0  0  0  0  0  0  0
   -2.5332   -1.4966   -0.0966 N   0  0  0  0  0  0  0  0  0  0  0  0
   -3.2312   -1.2816   -0.7936 H   0  0  0  0  0  0  0  0  0  0  0  0
   -1.3593   -0.6196   -0.0536 C   0  0  1  0  0  0  0  0  0  0  0  0
   -1.4249    0.0926   -0.8770 H   0  0  0  0  0  0  0  0  0  0  0  0
   -1.3578    0.1703    1.2646 C   0  0  0  0  0  0  0  0  0  0  0  0
   -0.4935    0.8368    1.2743 H   0  0  0  0  0  0  0  0  0  0  0  0
   -2.2543    0.7918    1.2981 H   0  0  0  0  0  0  0  0  0  0  0  0
   -1.3125   -0.6654    2.5079 C   0  0  0  0  0  0  0  0  0  0  0  0
   -0.1899   -1.1052    3.1194 C   0  0  0  0  0  0  0  0  0  0  0  0
    0.8186   -0.9183    2.7671 H   0  0  0  0  0  0  0  0  0  0  0  0
   -0.5272   -1.8046    4.2616 N   0  0  0  0  0  0  0  0  0  0  0  0
    0.1523   -2.2291    4.8759 H   0  0  0  0  0  0  0  0  0  0  0  0
   -1.8922   -1.8361    4.4530 C   0  0  0  0  0  0  0  0  0  0  0  0
   -2.7068   -2.3831    5.4547 C   0  0  0  0  0  0  0  0  0  0  0  0
   -2.2689   -2.9126    6.2881 H   0  0  0  0  0  0  0  0  0  0  0  0
   -4.1009   -2.2342    5.3581 C   0  0  0  0  0  0  0  0  0  0  0  0
   -4.7451   -2.6503    6.1208 H   0  0  0  0  0  0  0  0  0  0  0  0
   -4.6584   -1.5482    4.2636 C   0  0  0  0  0  0  0  0  0  0  0  0
   -5.7319   -1.4432    4.1889 H   0  0  0  0  0  0  0  0  0  0  0  0
   -3.8300   -1.0043    3.2615 C   0  0  0  0  0  0  0  0  0  0  0  0
   -4.2719   -0.4913    2.4191 H   0  0  0  0  0  0  0  0  0  0  0  0
   -2.4258   -1.1314    3.3327 C   0  0  0  0  0  0  0  0  0  0  0  0
   -0.0609   -1.4205   -0.2379 C   0  0  0  0  0  0  0  0  0  0  0  0
    0.9911   -0.8416   -0.5060 O   0  0  0  0  0  0  0  0  0  0  0  0
   -0.1353   -2.7507   -0.0960 N   0  0  0  0  0  0  0  0  0  0  0  0
   -1.0467   -3.1531    0.0703 H   0  0  0  0  0  0  0  0  0  0  0  0
    1.0013   -3.6567   -0.2355 C   0  0  0  0  0  0  0  0  0  0  0  0
    1.8232   -3.3165    0.3973 H   0  0  0  0  0  0  0  0  0  0  0  0
    0.7142   -4.6673    0.0577 H   0  0  0  0  0  0  0  0  0  0  0  0
    1.3383   -3.6635   -1.2734 H   0  0  0  0  0  0  0  0  0  0  0  0
  5  6  2  0  0  0  0
  5  7  1  0  0  0  0
  2  3  1  0  0  0  0
  2  4  1  0  0  0  0
  2  5  1  0  0  0  0
  1  2  1  0  0  0  0
 29 30  2  0  0  0  0
 29 31  1  0  0  0  0
 26 27  1  0  0  0  0
 26 28  2  0  0  0  0
 24 25  1  0  0  0  0
 24 26  1  0  0  0  0
 22 23  1  0  0  0  0
 22 24  2  0  0  0  0
 20 21  1  0  0  0  0
 20 22  1  0  0  0  0
 19 20  2  0  0  0  0
 19 28  1  0  0  0  0
 17 18  1  0  0  0  0
 17 19  1  0  0  0  0
 15 16  1  0  0  0  0
 15 17  1  0  0  0  0
 14 15  2  0  0  0  0
 14 28  1  0  0  0  0
 11 12  1  0  0  0  0
 11 13  1  0  0  0  0
 11 14  1  0  0  0  0
  9 10  1  0  0  0  0
  9 11  1  0  0  0  0
  9 29  1  0  0  0  0
  7  8  1  0  0  0  0
  7  9  1  0  0  0  0
 33 34  1  0  0  0  0
 33 35  1  0  0  0  0
 33 36  1  0  0  0  0
 31 32  1  0  0  0  0
 31 33  1  0  0  0  0
M  END
$$$$
default_name
  -OEChem-12212115393D

 36 37  0     1  0  0  0  0  0999 V2000
   -4.0843   -4.0736    1.2944 H   0  0  0  0  0  0  0  0  0  0  0  0
   -4.0342   -3.2816    0.5484 C   0  0  0  0  0  0  0  0  0  0  0  0
   -4.8842   -2.6126    0.6694 H   0  0  0  0  0  0  0  0  0  0  0  0
   -4.0433   -3.7186   -0.4486 H   0  0  0  0  0  0  0  0  0  0  0  0
   -2.7532   -2.5046    0.7444 C   0  0  0  0  0  0  0  0  0  0  0  0
   -1.9803   -2.8096    1.6434 O   0  0  0  0  0  0  0  0  0  0  0  0
   -2.5332   -1.4966   -0.0966 N   0  0  0  0  0  0  0  0  0  0  0  0
   -3.2312   -1.2816   -0.7936 H   0  0  0  0  0  0  0  0  0  0  0  0
   -1.3593   -0.6196   -0.0536 C   0  0  1  0  0  0  0  0  0  0  0  0
   -1.4249    0.0926   -0.8770 H   0  0  0  0  0  0  0  0  0  0  0  0
   -1.3578    0.1703    1.2646 C   0  0  0  0  0  0  0  0  0  0  0  0
   -0.4935    0.8368    1.2743 H   0  0  0  0  0  0  0  0  0  0  0  0
   -2.2543    0.7918    1.2981 H   0  0  0  0  0  0  0  0  0  0  0  0
   -1.3125   -0.6654    2.5079 C   0  0  0  0  0  0  0  0  0  0  0  0
   -0.1899   -1.1052    3.1194 C   0  0  0  0  0  0  0  0  0  0  0  0
    0.8186   -0.9183    2.7671 H   0  0  0  0  0  0  0  0  0  0  0  0
   -0.5272   -1.8046    4.2616 N   0  0  0  0  0  0  0  0  0  0  0  0
    0.1523   -2.2291    4.8759 H   0  0  0  0  0  0  0  0  0  0  0  0
   -1.8922   -1.8361    4.4530 C   0  0  0  0  0  0  0  0  0  0  0  0
   -2.7068   -2.3831    5.4547 C   0  0  0  0  0  0  0  0  0  0  0  0
   -2.2689   -2.9126    6.2881 H   0  0  0  0  0  0  0  0  0  0  0  0
   -4.1009   -2.2342    5.3581 C   0  0  0  0  0  0  0  0  0  0  0  0
   -4.7451   -2.6503    6.1208 H   0  0  0  0  0  0  0  0  0  0  0  0
   -4.6584   -1.5482    4.2636 C   0  0  0  0  0  0  0  0  0  0  0  0
   -5.7319   -1.4432    4.1889 H   0  0  0  0  0  0  0  0  0  0  0  0
   -3.8300   -1.0043    3.2615 C   0  0  0  0  0  0  0  0  0  0  0  0
   -4.2719   -0.4913    2.4191 H   0  0  0  0  0  0  0  0  0  0  0  0
   -2.4258   -1.1314    3.3327 C   0  0  0  0  0  0  0  0  0  0  0  0
   -0.0609   -1.4205   -0.2379 C   0  0  0  0  0  0  0  0  0  0  0  0
    1.0272   -0.8463   -0.2309 O   0  0  0  0  0  0  0  0  0  0  0  0
   -0.1756   -2.7449   -0.4043 N   0  0  0  0  0  0  0  0  0  0  0  0
   -1.1076   -3.1315   -0.4522 H   0  0  0  0  0  0  0  0  0  0  0  0
    0.9547   -3.6507   -0.5898 C   0  0  0  0  0  0  0  0  0  0  0  0
    1.6865   -3.4937    0.2049 H   0  0  0  0  0  0  0  0  0  0  0  0
    0.6137   -4.6865   -0.5673 H   0  0  0  0  0  0  0  0  0  0  0  0
    1.4320   -3.4480   -1.5501 H   0  0  0  0  0  0  0  0  0  0  0  0
  5  6  2  0  0  0  0
  5  7  1  0  0  0  0
  2  3  1  0  0  0  0
  2  4  1  0  0  0  0
  2  5  1  0  0  0  0
  1  2  1  0  0  0  0
 29 30  2  0  0  0  0
 29 31  1  0  0  0  0
 26 27  1  0  0  0  0
 26 28  2  0  0  0  0
 24 25  1  0  0  0  0
 24 26  1  0  0  0  0
 22 23  1  0  0  0  0
 22 24  2  0  0  0  0
 20 21  1  0  0  0  0
 20 22  1  0  0  0  0
 19 20  2  0  0  0  0
 19 28  1  0  0  0  0
 17 18  1  0  0  0  0
 17 19  1  0  0  0  0
 15 16  1  0  0  0  0
 15 17  1  0  0  0  0
 14 15  2  0  0  0  0
 14 28  1  0  0  0  0
 11 12  1  0  0  0  0
 11 13  1  0  0  0  0
 11 14  1  0  0  0  0
  9 10  1  0  0  0  0
  9 11  1  0  0  0  0
  9 29  1  0  0  0  0
  7  8  1  0  0  0  0
  7  9  1  0  0  0  0
 33 34  1  0  0  0  0
 33 35  1  0  0  0  0
 33 36  1  0  0  0  0
 31 32  1  0  0  0  0
 31 33  1  0  0  0  0
M  END
$$$$
default_name
  -OEChem-12212115393D

 36 37  0     1  0  0  0  0  0999 V2000
   -4.0843   -4.0736    1.2944 H   0  0  0  0  0  0  0  0  0  0  0  0
   -4.0342   -3.2816    0.5484 C   0  0  0  0  0  0  0  0  0  0  0  0
   -4.8842   -2.6126    0.6694 H   0  0  0  0  0  0  0  0  0  0  0  0
   -4.0433   -3.7186   -0.4486 H   0  0  0  0  0  0  0  0  0  0  0  0
   -2.7532   -2.5046    0.7444 C   0  0  0  0  0  0  0  0  0  0  0  0
   -1.9803   -2.8096    1.6434 O   0  0  0  0  0  0  0  0  0  0  0  0
   -2.5332   -1.4966   -0.0966 N   0  0  0  0  0  0  0  0  0  0  0  0
   -3.2312   -1.2816   -0.7936 H   0  0  0  0  0  0  0  0  0  0  0  0
   -1.3593   -0.6196   -0.0536 C   0  0  1  0  0  0  0  0  0  0  0  0
   -1.4249    0.0926   -0.8770 H   0  0  0  0  0  0  0  0  0  0  0  0
   -1.3578    0.1703    1.2646 C   0  0  0  0  0  0  0  0  0  0  0  0
   -0.4935    0.8368    1.2743 H   0  0  0  0  0  0  0  0  0  0  0  0
   -2.2543    0.7918    1.2981 H   0  0  0  0  0  0  0  0  0  0  0  0
   -1.3125   -0.6654    2.5079 C   0  0  0  0  0  0  0  0  0  0  0  0
   -0.1899   -1.1052    3.1194 C   0  0  0  0  0  0  0  0  0  0  0  0
    0.8186   -0.9183    2.7671 H   0  0  0  0  0  0  0  0  0  0  0  0
   -0.5272   -1.8046    4.2616 N   0  0  0  0  0  0  0  0  0  0  0  0
    0.1523   -2.2291    4.8759 H   0  0  0  0  0  0  0  0  0  0  0  0
   -1.8922   -1.8361    4.4530 C   0  0  0  0  0  0  0  0  0  0  0  0
   -2.7068   -2.3831    5.4547 C   0  0  0  0  0  0  0  0  0  0  0  0
   -2.2689   -2.9126    6.2881 H   0  0  0  0  0  0  0  0  0  0  0  0
   -4.1009   -2.2342    5.3581 C   0  0  0  0  0  0  0  0  0  0  0  0
   -4.7451   -2.6503    6.1208 H   0  0  0  0  0  0  0  0  0  0  0  0
   -4.6584   -1.5482    4.2636 C   0  0  0  0  0  0  0  0  0  0  0  0
   -5.7319   -1.4432    4.1889 H   0  0  0  0  0  0  0  0  0  0  0  0
   -3.8300   -1.0043    3.2615 C   0  0  0  0  0  0  0  0  0  0  0  0
   -4.2719   -0.4913    2.4191 H   0  0  0  0  0  0  0  0  0  0  0  0
   -2.4258   -1.1314    3.3327 C   0  0  0  0  0  0  0  0  0  0  0  0
   -0.0609   -1.4205   -0.2379 C   0  0  0  0  0  0  0  0  0  0  0  0
    1.0248   -0.9122    0.0387 O   0  0  0  0  0  0  0  0  0  0  0  0
   -0.1727   -2.6708   -0.7063 N   0  0  0  0  0  0  0  0  0  0  0  0
   -1.0952   -2.9944   -0.9604 H   0  0  0  0  0  0  0  0  0  0  0  0
    0.9578   -3.5659   -0.9370 C   0  0  0  0  0  0  0  0  0  0  0  0
    1.5750   -3.6186   -0.0381 H   0  0  0  0  0  0  0  0  0  0  0  0
    0.6003   -4.5651   -1.1888 H   0  0  0  0  0  0  0  0  0  0  0  0
    1.5665   -3.1823   -1.7575 H   0  0  0  0  0  0  0  0  0  0  0  0
  5  6  2  0  0  0  0
  5  7  1  0  0  0  0
  2  3  1  0  0  0  0
  2  4  1  0  0  0  0
  2  5  1  0  0  0  0
  1  2  1  0  0  0  0
 29 30  2  0  0  0  0
 29 31  1  0  0  0  0
 26 27  1  0  0  0  0
 26 28  2  0  0  0  0
 24 25  1  0  0  0  0
 24 26  1  0  0  0  0
 22 23  1  0  0  0  0
 22 24  2  0  0  0  0
 20 21  1  0  0  0  0
 20 22  1  0  0  0  0
 19 20  2  0  0  0  0
 19 28  1  0  0  0  0
 17 18  1  0  0  0  0
 17 19  1  0  0  0  0
 15 16  1  0  0  0  0
 15 17  1  0  0  0  0
 14 15  2  0  0  0  0
 14 28  1  0  0  0  0
 11 12  1  0  0  0  0
 11 13  1  0  0  0  0
 11 14  1  0  0  0  0
  9 10  1  0  0  0  0
  9 11  1  0  0  0  0
  9 29  1  0  0  0  0
  7  8  1  0  0  0  0
  7  9  1  0  0  0  0
 33 34  1  0  0  0  0
 33 35  1  0  0  0  0
 33 36  1  0  0  0  0
 31 32  1  0  0  0  0
 31 33  1  0  0  0  0
M  END
$$$$
default_name
  -OEChem-12212115393D

 36 37  0     1  0  0  0  0  0999 V2000
   -4.0843   -4.0736    1.2944 H   0  0  0  0  0  0  0  0  0  0  0  0
   -4.0342   -3.2816    0.5484 C   0  0  0  0  0  0  0  0  0  0  0  0
   -4.8842   -2.6126    0.6694 H   0  0  0  0  0  0  0  0  0  0  0  0
   -4.0433   -3.7186   -0.4486 H   0  0  0  0  0  0  0  0  0  0  0  0
   -2.7532   -2.5046    0.7444 C   0  0  0  0  0  0  0  0  0  0  0  0
   -1.9803   -2.8096    1.6434 O   0  0  0  0  0  0  0  0  0  0  0  0
   -2.5332   -1.4966   -0.0966 N   0  0  0  0  0  0  0  0  0  0  0  0
   -3.2312   -1.2816   -0.7936 H   0  0  0  0  0  0  0  0  0  0  0  0
   -1.3593   -0.6196   -0.0536 C   0  0  1  0  0  0  0  0  0  0  0  0
   -1.4249    0.0926   -0.8770 H   0  0  0  0  0  0  0  0  0  0  0  0
   -1.3578    0.1703    1.2646 C   0  0  0  0  0  0  0  0  0  0  0  0
   -0.4935    0.8368    1.2743 H   0  0  0  0  0  0  0  0  0  0  0  0
   -2.2543    0.7918    1.2981 H   0  0  0  0  0  0  0  0  0  0  0  0
   -1.3125   -0.6654    2.5079 C   0  0  0  0  0  0  0  0  0  0  0  0
   -0.1899   -1.1052    3.1194 C   0  0  0  0  0  0  0  0  0  0  0  0
    0.8186   -0.9183    2.7671 H   0  0  0  0  0  0  0  0  0  0  0  0
   -0.5272   -1.8046    4.2616 N   0  0  0  0  0  0  0  0  0  0  0  0
    0.1523   -2.2291    4.8759 H   0  0  0  0  0  0  0  0  0  0  0  0
   -1.8922   -1.8361    4.4530 C   0  0  0  0  0  0  0  0  0  0  0  0
   -2.7068   -2.3831    5.4547 C   0  0  0  0  0  0  0  0  0  0  0  0
   -2.2689   -2.9126    6.2881 H   0  0  0  0  0  0  0  0  0  0  0  0
   -4.1009   -2.2342    5.3581 C   0  0  0  0  0  0  0  0  0  0  0  0
   -4.7451   -2.6503    6.1208 H   0  0  0  0  0  0  0  0  0  0  0  0
   -4.6584   -1.5482    4.2636 C   0  0  0  0  0  0  0  0  0  0  0  0
   -5.7319   -1.4432    4.1889 H   0  0  0  0  0  0  0  0  0  0  0  0
   -3.8300   -1.0043    3.2615 C   0  0  0  0  0  0  0  0  0  0  0  0
   -4.2719   -0.4913    2.4191 H   0  0  0  0  0  0  0  0  0  0  0  0
   -2.4258   -1.1314    3.3327 C   0  0  0  0  0  0  0  0  0  0  0  0
   -0.0609   -1.4205   -0.2379 C   0  0  0  0  0  0  0  0  0  0  0  0
    0.9841   -1.0347    0.2843 O   0  0  0  0  0  0  0  0  0  0  0  0
   -0.1268   -2.5331   -0.9813 N   0  0  0  0  0  0  0  0  0  0  0  0
   -1.0104   -2.7512   -1.4196 H   0  0  0  0  0  0  0  0  0  0  0  0
    1.0101   -3.4081   -1.2534 C   0  0  0  0  0  0  0  0  0  0  0  0
    1.4961   -3.6827   -0.3152 H   0  0  0  0  0  0  0  0  0  0  0  0
    0.6750   -4.3116   -1.7644 H   0  0  0  0  0  0  0  0  0  0  0  0
    1.7326   -2.8844   -1.8816 H   0  0  0  0  0  0  0  0  0  0  0  0
  5  6  2  0  0  0  0
  5  7  1  0  0  0  0
  2  3  1  0  0  0  0
  2  4  1  0  0  0  0
  2  5  1  0  0  0  0
  1  2  1  0  0  0  0
 29 30  2  0  0  0  0
 29 31  1  0  0  0  0
 26 27  1  0  0  0  0
 26 28  2  0  0  0  0
 24 25  1  0  0  0  0
 24 26  1  0  0  0  0
 22 23  1  0  0  0  0
 22 24  2  0  0  0  0
 20 21  1  0  0  0  0
 20 22  1  0  0  0  0
 19 20  2  0  0  0  0
 19 28  1  0  0  0  0
 17 18  1  0  0  0  0
 17 19  1  0  0  0  0
 15 16  1  0  0  0  0
 15 17  1  0  0  0  0
 14 15  2  0  0  0  0
 14 28  1  0  0  0  0
 11 12  1  0  0  0  0
 11 13  1  0  0  0  0
 11 14  1  0  0  0  0
  9 10  1  0  0  0  0
  9 11  1  0  0  0  0
  9 29  1  0  0  0  0
  7  8  1  0  0  0  0
  7  9  1  0  0  0  0
 33 34  1  0  0  0  0
 33 35  1  0  0  0  0
 33 36  1  0  0  0  0
 31 32  1  0  0  0  0
 31 33  1  0  0  0  0
M  END
$$$$
default_name
  -OEChem-12212115393D

 36 37  0     1  0  0  0  0  0999 V2000
   -4.0843   -4.0736    1.2944 H   0  0  0  0  0  0  0  0  0  0  0  0
   -4.0342   -3.2816    0.5484 C   0  0  0  0  0  0  0  0  0  0  0  0
   -4.8842   -2.6126    0.6694 H   0  0  0  0  0  0  0  0  0  0  0  0
   -4.0433   -3.7186   -0.4486 H   0  0  0  0  0  0  0  0  0  0  0  0
   -2.7532   -2.5046    0.7444 C   0  0  0  0  0  0  0  0  0  0  0  0
   -1.9803   -2.8096    1.6434 O   0  0  0  0  0  0  0  0  0  0  0  0
   -2.5332   -1.4966   -0.0966 N   0  0  0  0  0  0  0  0  0  0  0  0
   -3.2312   -1.2816   -0.7936 H   0  0  0  0  0  0  0  0  0  0  0  0
   -1.3593   -0.6196   -0.0536 C   0  0  1  0  0  0  0  0  0  0  0  0
   -1.4249    0.0926   -0.8770 H   0  0  0  0  0  0  0  0  0  0  0  0
   -1.3578    0.1703    1.2646 C   0  0  0  0  0  0  0  0  0  0  0  0
   -0.4935    0.8368    1.2743 H   0  0  0  0  0  0  0  0  0  0  0  0
   -2.2543    0.7918    1.2981 H   0  0  0  0  0  0  0  0  0  0  0  0
   -1.3125   -0.6654    2.5079 C   0  0  0  0  0  0  0  0  0  0  0  0
   -0.1899   -1.1052    3.1194 C   0  0  0  0  0  0  0  0  0  0  0  0
    0.8186   -0.9183    2.7671 H   0  0  0  0  0  0  0  0  0  0  0  0
   -0.5272   -1.8046    4.2616 N   0  0  0  0  0  0  0  0  0  0  0  0
    0.1523   -2.2291    4.8759 H   0  0  0  0  0  0  0  0  0  0  0  0
   -1.8922   -1.8361    4.4530 C   0  0  0  0  0  0  0  0  0  0  0  0
   -2.7068   -2.3831    5.4547 C   0  0  0  0  0  0  0  0  0  0  0  0
   -2.2689   -2.9126    6.2881 H   0  0  0  0  0  0  0  0  0  0  0  0
   -4.1009   -2.2342    5.3581 C   0  0  0  0  0  0  0  0  0  0  0  0
   -4.7451   -2.6503    6.1208 H   0  0  0  0  0  0  0  0  0  0  0  0
   -4.6584   -1.5482    4.2636 C   0  0  0  0  0  0  0  0  0  0  0  0
   -5.7319   -1.4432    4.1889 H   0  0  0  0  0  0  0  0  0  0  0  0
   -3.8300   -1.0043    3.2615 C   0  0  0  0  0  0  0  0  0  0  0  0
   -4.2719   -0.4913    2.4191 H   0  0  0  0  0  0  0  0  0  0  0  0
   -2.4258   -1.1314    3.3327 C   0  0  0  0  0  0  0  0  0  0  0  0
   -0.0609   -1.4205   -0.2379 C   0  0  0  0  0  0  0  0  0  0  0  0
    0.9079   -1.2055    0.4893 O   0  0  0  0  0  0  0  0  0  0  0  0
   -0.0412   -2.3415   -1.2108 N   0  0  0  0  0  0  0  0  0  0  0  0
   -0.8590   -2.4186   -1.7986 H   0  0  0  0  0  0  0  0  0  0  0  0
    1.1083   -3.1882   -1.5174 C   0  0  0  0  0  0  0  0  0  0  0  0
    1.4554   -3.6815   -0.6075 H   0  0  0  0  0  0  0  0  0  0  0  0
    0.8326   -3.9431   -2.2549 H   0  0  0  0  0  0  0  0  0  0  0  0
    1.9190   -2.5747   -1.9140 H   0  0  0  0  0  0  0  0  0  0  0  0
  5  6  2  0  0  0  0
  5  7  1  0  0  0  0
  2  3  1  0  0  0  0
  2  4  1  0  0  0  0
  2  5  1  0  0  0  0
  1  2  1  0  0  0  0
 29 30  2  0  0  0  0
 29 31  1  0  0  0  0
 26 27  1  0  0  0  0
 26 28  2  0  0  0  0
 24 25  1  0  0  0  0
 24 26  1  0  0  0  0
 22 23  1  0  0  0  0
 22 24  2  0  0  0  0
 20 21  1  0  0  0  0
 20 22  1  0  0  0  0
 19 20  2  0  0  0  0
 19 28  1  0  0  0  0
 17 18  1  0  0  0  0
 17 19  1  0  0  0  0
 15 16  1  0  0  0  0
 15 17  1  0  0  0  0
 14 15  2  0  0  0  0
 14 28  1  0  0  0  0
 11 12  1  0  0  0  0
 11 13  1  0  0  0  0
 11 14  1  0  0  0  0
  9 10  1  0  0  0  0
  9 11  1  0  0  0  0
  9 29  1  0  0  0  0
  7  8  1  0  0  0  0
  7  9  1  0  0  0  0
 33 34  1  0  0  0  0
 33 35  1  0  0  0  0
 33 36  1  0  0  0  0
 31 32  1  0  0  0  0
 31 33  1  0  0  0  0
M  END
$$$$
default_name
  -OEChem-12212115393D

 36 37  0     1  0  0  0  0  0999 V2000
   -4.0843   -4.0736    1.2944 H   0  0  0  0  0  0  0  0  0  0  0  0
   -4.0342   -3.2816    0.5484 C   0  0  0  0  0  0  0  0  0  0  0  0
   -4.8842   -2.6126    0.6694 H   0  0  0  0  0  0  0  0  0  0  0  0
   -4.0433   -3.7186   -0.4486 H   0  0  0  0  0  0  0  0  0  0  0  0
   -2.7532   -2.5046    0.7444 C   0  0  0  0  0  0  0  0  0  0  0  0
   -1.9803   -2.8096    1.6434 O   0  0  0  0  0  0  0  0  0  0  0  0
   -2.5332   -1.4966   -0.0966 N   0  0  0  0  0  0  0  0  0  0  0  0
   -3.2312   -1.2816   -0.7936 H   0  0  0  0  0  0  0  0  0  0  0  0
   -1.3593   -0.6196   -0.0536 C   0  0  1  0  0  0  0  0  0  0  0  0
   -1.4249    0.0926   -0.8770 H   0  0  0  0  0  0  0  0  0  0  0  0
   -1.3578    0.1703    1.2646 C   0  0  0  0  0  0  0  0  0  0  0  0
   -0.4935    0.8368    1.2743 H   0  0  0  0  0  0  0  0  0  0  0  0
   -2.2543    0.7918    1.2981 H   0  0  0  0  0  0  0  0  0  0  0  0
   -1.3125   -0.6654    2.5079 C   0  0  0  0  0  0  0  0  0  0  0  0
   -0.1899   -1.1052    3.1194 C   0  0  0  0  0  0  0  0  0  0  0  0
    0.8186   -0.9183    2.7671 H   0  0  0  0  0  0  0  0  0  0  0  0
   -0.5272   -1.8046    4.2616 N   0  0  0  0  0  0  0  0  0  0  0  0
    0.1523   -2.2291    4.8759 H   0  0  0  0  0  0  0  0  0  0  0  0
   -1.8922   -1.8361    4.4530 C   0  0  0  0  0  0  0  0  0  0  0  0
   -2.7068   -2.3831    5.4547 C   0  0  0  0  0  0  0  0  0  0  0  0
   -2.2689   -2.9126    6.2881 H   0  0  0  0  0  0  0  0  0  0  0  0
   -4.1009   -2.2342    5.3581 C   0  0  0  0  0  0  0  0  0  0  0  0
   -4.7451   -2.6503    6.1208 H   0  0  0  0  0  0  0  0  0  0  0  0
   -4.6584   -1.5482    4.2636 C   0  0  0  0  0  0  0  0  0  0  0  0
   -5.7319   -1.4432    4.1889 H   0  0  0  0  0  0  0  0  0  0  0  0
   -3.8300   -1.0043    3.2615 C   0  0  0  0  0  0  0  0  0  0  0  0
   -4.2719   -0.4913    2.4191 H   0  0  0  0  0  0  0  0  0  0  0  0
   -2.4258   -1.1314    3.3327 C   0  0  0  0  0  0  0  0  0  0  0  0
   -0.0609   -1.4205   -0.2379 C   0  0  0  0  0  0  0  0  0  0  0  0
    0.8013   -1.4129    0.6397 O   0  0  0  0  0  0  0  0  0  0  0  0
    0.0784   -2.1089   -1.3789 N   0  0  0  0  0  0  0  0  0  0  0  0
   -0.6513   -2.0190   -2.0715 H   0  0  0  0  0  0  0  0  0  0  0  0
    1.2456   -2.9211   -1.7112 C   0  0  0  0  0  0  0  0  0  0  0  0
    1.4555   -3.6151   -0.8951 H   0  0  0  0  0  0  0  0  0  0  0  0
    1.0625   -3.4849   -2.6268 H   0  0  0  0  0  0  0  0  0  0  0  0
    2.1131   -2.2742   -1.8523 H   0  0  0  0  0  0  0  0  0  0  0  0
  5  6  2  0  0  0  0
  5  7  1  0  0  0  0
  2  3  1  0  0  0  0
  2  4  1  0  0  0  0
  2  5  1  0  0  0  0
  1  2  1  0  0  0  0
 29 30  2  0  0  0  0
 29 31  1  0  0  0  0
 26 27  1  0  0  0  0
 26 28  2  0  0  0  0
 24 25  1  0  0  0  0
 24 26  1  0  0  0  0
 22 23  1  0  0  0  0
 22 24  2  0  0  0  0
 20 21  1  0  0  0  0
 20 22  1  0  0  0  0
 19 20  2  0  0  0  0
 19 28  1  0  0  0  0
 17 18  1  0  0  0  0
 17 19  1  0  0  0  0
 15 16  1  0  0  0  0
 15 17  1  0  0  0  0
 14 15  2  0  0  0  0
 14 28  1  0  0  0  0
 11 12  1  0  0  0  0
 11 13  1  0  0  0  0
 11 14  1  0  0  0  0
  9 10  1  0  0  0  0
  9 11  1  0  0  0  0
  9 29  1  0  0  0  0
  7  8  1  0  0  0  0
  7  9  1  0  0  0  0
 33 34  1  0  0  0  0
 33 35  1  0  0  0  0
 33 36  1  0  0  0  0
 31 32  1  0  0  0  0
 31 33  1  0  0  0  0
M  END
$$$$
default_name
  -OEChem-12212115393D

 36 37  0     1  0  0  0  0  0999 V2000
   -4.0843   -4.0736    1.2944 H   0  0  0  0  0  0  0  0  0  0  0  0
   -4.0342   -3.2816    0.5484 C   0  0  0  0  0  0  0  0  0  0  0  0
   -4.8842   -2.6126    0.6694 H   0  0  0  0  0  0  0  0  0  0  0  0
   -4.0433   -3.7186   -0.4486 H   0  0  0  0  0  0  0  0  0  0  0  0
   -2.7532   -2.5046    0.7444 C   0  0  0  0  0  0  0  0  0  0  0  0
   -1.9803   -2.8096    1.6434 O   0  0  0  0  0  0  0  0  0  0  0  0
   -2.5332   -1.4966   -0.0966 N   0  0  0  0  0  0  0  0  0  0  0  0
   -3.2312   -1.2816   -0.7936 H   0  0  0  0  0  0  0  0  0  0  0  0
   -1.3593   -0.6196   -0.0536 C   0  0  1  0  0  0  0  0  0  0  0  0
   -1.4249    0.0926   -0.8770 H   0  0  0  0  0  0  0  0  0  0  0  0
   -1.3578    0.1703    1.2646 C   0  0  0  0  0  0  0  0  0  0  0  0
   -0.4935    0.8368    1.2743 H   0  0  0  0  0  0  0  0  0  0  0  0
   -2.2543    0.7918    1.2981 H   0  0  0  0  0  0  0  0  0  0  0  0
   -1.3125   -0.6654    2.5079 C   0  0  0  0  0  0  0  0  0  0  0  0
   -0.1899   -1.1052    3.1194 C   0  0  0  0  0  0  0  0  0  0  0  0
    0.8186   -0.9183    2.7671 H   0  0  0  0  0  0  0  0  0  0  0  0
   -0.5272   -1.8046    4.2616 N   0  0  0  0  0  0  0  0  0  0  0  0
    0.1523   -2.2291    4.8759 H   0  0  0  0  0  0  0  0  0  0  0  0
   -1.8922   -1.8361    4.4530 C   0  0  0  0  0  0  0  0  0  0  0  0
   -2.7068   -2.3831    5.4547 C   0  0  0  0  0  0  0  0  0  0  0  0
   -2.2689   -2.9126    6.2881 H   0  0  0  0  0  0  0  0  0  0  0  0
   -4.1009   -2.2342    5.3581 C   0  0  0  0  0  0  0  0  0  0  0  0
   -4.7451   -2.6503    6.1208 H   0  0  0  0  0  0  0  0  0  0  0  0
   -4.6584   -1.5482    4.2636 C   0  0  0  0  0  0  0  0  0  0  0  0
   -5.7319   -1.4432    4.1889 H   0  0  0  0  0  0  0  0  0  0  0  0
   -3.8300   -1.0043    3.2615 C   0  0  0  0  0  0  0  0  0  0  0  0
   -4.2719   -0.4913    2.4191 H   0  0  0  0  0  0  0  0  0  0  0  0
   -2.4258   -1.1314    3.3327 C   0  0  0  0  0  0  0  0  0  0  0  0
   -0.0609   -1.4205   -0.2379 C   0  0  0  0  0  0  0  0  0  0  0  0
    0.6716   -1.6429    0.7252 O   0  0  0  0  0  0  0  0  0  0  0  0
    0.2239   -1.8511   -1.4743 N   0  0  0  0  0  0  0  0  0  0  0  0
   -0.4015   -1.5799   -2.2197 H   0  0  0  0  0  0  0  0  0  0  0  0
    1.4126   -2.6249   -1.8213 C   0  0  0  0  0  0  0  0  0  0  0  0
    1.4964   -3.4882   -1.1584 H   0  0  0  0  0  0  0  0  0  0  0  0
    1.3489   -2.9680   -2.8548 H   0  0  0  0  0  0  0  0  0  0  0  0
    2.3016   -2.0035   -1.7009 H   0  0  0  0  0  0  0  0  0  0  0  0
  5  6  2  0  0  0  0
  5  7  1  0  0  0  0
  2  3  1  0  0  0  0
  2  4  1  0  0  0  0
  2  5  1  0  0  0  0
  1  2  1  0  0  0  0
 29 30  2  0  0  0  0
 29 31  1  0  0  0  0
 26 27  1  0  0  0  0
 26 28  2  0  0  0  0
 24 25  1  0  0  0  0
 24 26  1  0  0  0  0
 22 23  1  0  0  0  0
 22 24  2  0  0  0  0
 20 21  1  0  0  0  0
 20 22  1  0  0  0  0
 19 20  2  0  0  0  0
 19 28  1  0  0  0  0
 17 18  1  0  0  0  0
 17 19  1  0  0  0  0
 15 16  1  0  0  0  0
 15 17  1  0  0  0  0
 14 15  2  0  0  0  0
 14 28  1  0  0  0  0
 11 12  1  0  0  0  0
 11 13  1  0  0  0  0
 11 14  1  0  0  0  0
  9 10  1  0  0  0  0
  9 11  1  0  0  0  0
  9 29  1  0  0  0  0
  7  8  1  0  0  0  0
  7  9  1  0  0  0  0
 33 34  1  0  0  0  0
 33 35  1  0  0  0  0
 33 36  1  0  0  0  0
 31 32  1  0  0  0  0
 31 33  1  0  0  0  0
M  END
$$$$
default_name
  -OEChem-12212115393D

 36 37  0     1  0  0  0  0  0999 V2000
   -4.0843   -4.0736    1.2944 H   0  0  0  0  0  0  0  0  0  0  0  0
   -4.0342   -3.2816    0.5484 C   0  0  0  0  0  0  0  0  0  0  0  0
   -4.8842   -2.6126    0.6694 H   0  0  0  0  0  0  0  0  0  0  0  0
   -4.0433   -3.7186   -0.4486 H   0  0  0  0  0  0  0  0  0  0  0  0
   -2.7532   -2.5046    0.7444 C   0  0  0  0  0  0  0  0  0  0  0  0
   -1.9803   -2.8096    1.6434 O   0  0  0  0  0  0  0  0  0  0  0  0
   -2.5332   -1.4966   -0.0966 N   0  0  0  0  0  0  0  0  0  0  0  0
   -3.2312   -1.2816   -0.7936 H   0  0  0  0  0  0  0  0  0  0  0  0
   -1.3593   -0.6196   -0.0536 C   0  0  1  0  0  0  0  0  0  0  0  0
   -1.4249    0.0926   -0.8770 H   0  0  0  0  0  0  0  0  0  0  0  0
   -1.3578    0.1703    1.2646 C   0  0  0  0  0  0  0  0  0  0  0  0
   -0.4935    0.8368    1.2743 H   0  0  0  0  0  0  0  0  0  0  0  0
   -2.2543    0.7918    1.2981 H   0  0  0  0  0  0  0  0  0  0  0  0
   -1.3125   -0.6654    2.5079 C   0  0  0  0  0  0  0  0  0  0  0  0
   -0.1899   -1.1052    3.1194 C   0  0  0  0  0  0  0  0  0  0  0  0
    0.8186   -0.9183    2.7671 H   0  0  0  0  0  0  0  0  0  0  0  0
   -0.5272   -1.8046    4.2616 N   0  0  0  0  0  0  0  0  0  0  0  0
    0.1523   -2.2291    4.8759 H   0  0  0  0  0  0  0  0  0  0  0  0
   -1.8922   -1.8361    4.4530 C   0  0  0  0  0  0  0  0  0  0  0  0
   -2.7068   -2.3831    5.4547 C   0  0  0  0  0  0  0  0  0  0  0  0
   -2.2689   -2.9126    6.2881 H   0  0  0  0  0  0  0  0  0  0  0  0
   -4.1009   -2.2342    5.3581 C   0  0  0  0  0  0  0  0  0  0  0  0
   -4.7451   -2.6503    6.1208 H   0  0  0  0  0  0  0  0  0  0  0  0
   -4.6584   -1.5482    4.2636 C   0  0  0  0  0  0  0  0  0  0  0  0
   -5.7319   -1.4432    4.1889 H   0  0  0  0  0  0  0  0  0  0  0  0
   -3.8300   -1.0043    3.2615 C   0  0  0  0  0  0  0  0  0  0  0  0
   -4.2719   -0.4913    2.4191 H   0  0  0  0  0  0  0  0  0  0  0  0
   -2.4258   -1.1314    3.3327 C   0  0  0  0  0  0  0  0  0  0  0  0
   -0.0609   -1.4205   -0.2379 C   0  0  0  0  0  0  0  0  0  0  0  0
    0.5276   -1.8797    0.7400 O   0  0  0  0  0  0  0  0  0  0  0  0
    0.3852   -1.5858   -1.4904 N   0  0  0  0  0  0  0  0  0  0  0  0
   -0.1265   -1.1311   -2.2331 H   0  0  0  0  0  0  0  0  0  0  0  0
    1.5980   -2.3200   -1.8405 C   0  0  0  0  0  0  0  0  0  0  0  0
    1.5754   -3.3092   -1.3794 H   0  0  0  0  0  0  0  0  0  0  0  0
    1.6724   -2.4278   -2.9233 H   0  0  0  0  0  0  0  0  0  0  0  0
    2.4716   -1.7810   -1.4700 H   0  0  0  0  0  0  0  0  0  0  0  0
  5  6  2  0  0  0  0
  5  7  1  0  0  0  0
  2  3  1  0  0  0  0
  2  4  1  0  0  0  0
  2  5  1  0  0  0  0
  1  2  1  0  0  0  0
 29 30  2  0  0  0  0
 29 31  1  0  0  0  0
 26 27  1  0  0  0  0
 26 28  2  0  0  0  0
 24 25  1  0  0  0  0
 24 26  1  0  0  0  0
 22 23  1  0  0  0  0
 22 24  2  0  0  0  0
 20 21  1  0  0  0  0
 20 22  1  0  0  0  0
 19 20  2  0  0  0  0
 19 28  1  0  0  0  0
 17 18  1  0  0  0  0
 17 19  1  0  0  0  0
 15 16  1  0  0  0  0
 15 17  1  0  0  0  0
 14 15  2  0  0  0  0
 14 28  1  0  0  0  0
 11 12  1  0  0  0  0
 11 13  1  0  0  0  0
 11 14  1  0  0  0  0
  9 10  1  0  0  0  0
  9 11  1  0  0  0  0
  9 29  1  0  0  0  0
  7  8  1  0  0  0  0
  7  9  1  0  0  0  0
 33 34  1  0  0  0  0
 33 35  1  0  0  0  0
 33 36  1  0  0  0  0
 31 32  1  0  0  0  0
 31 33  1  0  0  0  0
M  END
$$$$
default_name
  -OEChem-12212115393D

 36 37  0     1  0  0  0  0  0999 V2000
   -4.0843   -4.0736    1.2944 H   0  0  0  0  0  0  0  0  0  0  0  0
   -4.0342   -3.2816    0.5484 C   0  0  0  0  0  0  0  0  0  0  0  0
   -4.8842   -2.6126    0.6694 H   0  0  0  0  0  0  0  0  0  0  0  0
   -4.0433   -3.7186   -0.4486 H   0  0  0  0  0  0  0  0  0  0  0  0
   -2.7532   -2.5046    0.7444 C   0  0  0  0  0  0  0  0  0  0  0  0
   -1.9803   -2.8096    1.6434 O   0  0  0  0  0  0  0  0  0  0  0  0
   -2.5332   -1.4966   -0.0966 N   0  0  0  0  0  0  0  0  0  0  0  0
   -3.2312   -1.2816   -0.7936 H   0  0  0  0  0  0  0  0  0  0  0  0
   -1.3593   -0.6196   -0.0536 C   0  0  1  0  0  0  0  0  0  0  0  0
   -1.4249    0.0926   -0.8770 H   0  0  0  0  0  0  0  0  0  0  0  0
   -1.3578    0.1703    1.2646 C   0  0  0  0  0  0  0  0  0  0  0  0
   -0.4935    0.8368    1.2743 H   0  0  0  0  0  0  0  0  0  0  0  0
   -2.2543    0.7918    1.2981 H   0  0  0  0  0  0  0  0  0  0  0  0
   -1.3125   -0.6654    2.5079 C   0  0  0  0  0  0  0  0  0  0  0  0
   -0.1899   -1.1052    3.1194 C   0  0  0  0  0  0  0  0  0  0  0  0
    0.8186   -0.9183    2.7671 H   0  0  0  0  0  0  0  0  0  0  0  0
   -0.5272   -1.8046    4.2616 N   0  0  0  0  0  0  0  0  0  0  0  0
    0.1523   -2.2291    4.8759 H   0  0  0  0  0  0  0  0  0  0  0  0
   -1.8922   -1.8361    4.4530 C   0  0  0  0  0  0  0  0  0  0  0  0
   -2.7068   -2.3831    5.4547 C   0  0  0  0  0  0  0  0  0  0  0  0
   -2.2689   -2.9126    6.2881 H   0  0  0  0  0  0  0  0  0  0  0  0
   -4.1009   -2.2342    5.3581 C   0  0  0  0  0  0  0  0  0  0  0  0
   -4.7451   -2.6503    6.1208 H   0  0  0  0  0  0  0  0  0  0  0  0
   -4.6584   -1.5482    4.2636 C   0  0  0  0  0  0  0  0  0  0  0  0
   -5.7319   -1.4432    4.1889 H   0  0  0  0  0  0  0  0  0  0  0  0
   -3.8300   -1.0043    3.2615 C   0  0  0  0  0  0  0  0  0  0  0  0
   -4.2719   -0.4913    2.4191 H   0  0  0  0  0  0  0  0  0  0  0  0
   -2.4258   -1.1314    3.3327 C   0  0  0  0  0  0  0  0  0  0  0  0
   -0.0609   -1.4205   -0.2379 C   0  0  0  0  0  0  0  0  0  0  0  0
    0.3792   -2.1072    0.6832 O   0  0  0  0  0  0  0  0  0  0  0  0
    0.5515   -1.3310   -1.4262 N   0  0  0  0  0  0  0  0  0  0  0  0
    0.1548   -0.7031   -2.1108 H   0  0  0  0  0  0  0  0  0  0  0  0
    1.7891   -2.0270   -1.7672 C   0  0  0  0  0  0  0  0  0  0  0  0
    1.6871   -3.0905   -1.5431 H   0  0  0  0  0  0  0  0  0  0  0  0
    2.0108   -1.9010   -2.8278 H   0  0  0  0  0  0  0  0  0  0  0  0
    2.6116   -1.6218   -1.1754 H   0  0  0  0  0  0  0  0  0  0  0  0
  5  6  2  0  0  0  0
  5  7  1  0  0  0  0
  2  3  1  0  0  0  0
  2  4  1  0  0  0  0
  2  5  1  0  0  0  0
  1  2  1  0  0  0  0
 29 30  2  0  0  0  0
 29 31  1  0  0  0  0
 26 27  1  0  0  0  0
 26 28  2  0  0  0  0
 24 25  1  0  0  0  0
 24 26  1  0  0  0  0
 22 23  1  0  0  0  0
 22 24  2  0  0  0  0
 20 21  1  0  0  0  0
 20 22  1  0  0  0  0
 19 20  2  0  0  0  0
 19 28  1  0  0  0  0
 17 18  1  0  0  0  0
 17 19  1  0  0  0  0
 15 16  1  0  0  0  0
 15 17  1  0  0  0  0
 14 15  2  0  0  0  0
 14 28  1  0  0  0  0
 11 12  1  0  0  0  0
 11 13  1  0  0  0  0
 11 14  1  0  0  0  0
  9 10  1  0  0  0  0
  9 11  1  0  0  0  0
  9 29  1  0  0  0  0
  7  8  1  0  0  0  0
  7  9  1  0  0  0  0
 33 34  1  0  0  0  0
 33 35  1  0  0  0  0
 33 36  1  0  0  0  0
 31 32  1  0  0  0  0
 31 33  1  0  0  0  0
M  END
$$$$
default_name
  -OEChem-12212115393D

 36 37  0     1  0  0  0  0  0999 V2000
   -4.0843   -4.0736    1.2944 H   0  0  0  0  0  0  0  0  0  0  0  0
   -4.0342   -3.2816    0.5484 C   0  0  0  0  0  0  0  0  0  0  0  0
   -4.8842   -2.6126    0.6694 H   0  0  0  0  0  0  0  0  0  0  0  0
   -4.0433   -3.7186   -0.4486 H   0  0  0  0  0  0  0  0  0  0  0  0
   -2.7532   -2.5046    0.7444 C   0  0  0  0  0  0  0  0  0  0  0  0
   -1.9803   -2.8096    1.6434 O   0  0  0  0  0  0  0  0  0  0  0  0
   -2.5332   -1.4966   -0.0966 N   0  0  0  0  0  0  0  0  0  0  0  0
   -3.2312   -1.2816   -0.7936 H   0  0  0  0  0  0  0  0  0  0  0  0
   -1.3593   -0.6196   -0.0536 C   0  0  1  0  0  0  0  0  0  0  0  0
   -1.4249    0.0926   -0.8770 H   0  0  0  0  0  0  0  0  0  0  0  0
   -1.3578    0.1703    1.2646 C   0  0  0  0  0  0  0  0  0  0  0  0
   -0.4935    0.8368    1.2743 H   0  0  0  0  0  0  0  0  0  0  0  0
   -2.2543    0.7918    1.2981 H   0  0  0  0  0  0  0  0  0  0  0  0
   -1.3125   -0.6654    2.5079 C   0  0  0  0  0  0  0  0  0  0  0  0
   -0.1899   -1.1052    3.1194 C   0  0  0  0  0  0  0  0  0  0  0  0
    0.8186   -0.9183    2.7671 H   0  0  0  0  0  0  0  0  0  0  0  0
   -0.5272   -1.8046    4.2616 N   0  0  0  0  0  0  0  0  0  0  0  0
    0.1523   -2.2291    4.8759 H   0  0  0  0  0  0  0  0  0  0  0  0
   -1.8922   -1.8361    4.4530 C   0  0  0  0  0  0  0  0  0  0  0  0
   -2.7068   -2.3831    5.4547 C   0  0  0  0  0  0  0  0  0  0  0  0
   -2.2689   -2.9126    6.2881 H   0  0  0  0  0  0  0  0  0  0  0  0
   -4.1009   -2.2342    5.3581 C   0  0  0  0  0  0  0  0  0  0  0  0
   -4.7451   -2.6503    6.1208 H   0  0  0  0  0  0  0  0  0  0  0  0
   -4.6584   -1.5482    4.2636 C   0  0  0  0  0  0  0  0  0  0  0  0
   -5.7319   -1.4432    4.1889 H   0  0  0  0  0  0  0  0  0  0  0  0
   -3.8300   -1.0043    3.2615 C   0  0  0  0  0  0  0  0  0  0  0  0
   -4.2719   -0.4913    2.4191 H   0  0  0  0  0  0  0  0  0  0  0  0
   -2.4258   -1.1314    3.3327 C   0  0  0  0  0  0  0  0  0  0  0  0
   -0.0609   -1.4205   -0.2379 C   0  0  0  0  0  0  0  0  0  0  0  0
    0.2365   -2.3099    0.5584 O   0  0  0  0  0  0  0  0  0  0  0  0
    0.7114   -1.1040   -1.2860 N   0  0  0  0  0  0  0  0  0  0  0  0
    0.4233   -0.3253   -1.8612 H   0  0  0  0  0  0  0  0  0  0  0  0
    1.9729   -1.7659   -1.6066 C   0  0  0  0  0  0  0  0  0  0  0  0
    1.8239   -2.8469   -1.6383 H   0  0  0  0  0  0  0  0  0  0  0  0
    2.3412   -1.4236   -2.5746 H   0  0  0  0  0  0  0  0  0  0  0  0
    2.7120   -1.5369   -0.8371 H   0  0  0  0  0  0  0  0  0  0  0  0
  5  6  2  0  0  0  0
  5  7  1  0  0  0  0
  2  3  1  0  0  0  0
  2  4  1  0  0  0  0
  2  5  1  0  0  0  0
  1  2  1  0  0  0  0
 29 30  2  0  0  0  0
 29 31  1  0  0  0  0
 26 27  1  0  0  0  0
 26 28  2  0  0  0  0
 24 25  1  0  0  0  0
 24 26  1  0  0  0  0
 22 23  1  0  0  0  0
 22 24  2  0  0  0  0
 20 21  1  0  0  0  0
 20 22  1  0  0  0  0
 19 20  2  0  0  0  0
 19 28  1  0  0  0  0
 17 18  1  0  0  0  0
 17 19  1  0  0  0  0
 15 16  1  0  0  0  0
 15 17  1  0  0  0  0
 14 15  2  0  0  0  0
 14 28  1  0  0  0  0
 11 12  1  0  0  0  0
 11 13  1  0  0  0  0
 11 14  1  0  0  0  0
  9 10  1  0  0  0  0
  9 11  1  0  0  0  0
  9 29  1  0  0  0  0
  7  8  1  0  0  0  0
  7  9  1  0  0  0  0
 33 34  1  0  0  0  0
 33 35  1  0  0  0  0
 33 36  1  0  0  0  0
 31 32  1  0  0  0  0
 31 33  1  0  0  0  0
M  END
$$$$
default_name
  -OEChem-12212115393D

 36 37  0     1  0  0  0  0  0999 V2000
   -4.0843   -4.0736    1.2944 H   0  0  0  0  0  0  0  0  0  0  0  0
   -4.0342   -3.2816    0.5484 C   0  0  0  0  0  0  0  0  0  0  0  0
   -4.8842   -2.6126    0.6694 H   0  0  0  0  0  0  0  0  0  0  0  0
   -4.0433   -3.7186   -0.4486 H   0  0  0  0  0  0  0  0  0  0  0  0
   -2.7532   -2.5046    0.7444 C   0  0  0  0  0  0  0  0  0  0  0  0
   -1.9803   -2.8096    1.6434 O   0  0  0  0  0  0  0  0  0  0  0  0
   -2.5332   -1.4966   -0.0966 N   0  0  0  0  0  0  0  0  0  0  0  0
   -3.2312   -1.2816   -0.7936 H   0  0  0  0  0  0  0  0  0  0  0  0
   -1.3593   -0.6196   -0.0536 C   0  0  1  0  0  0  0  0  0  0  0  0
   -1.4249    0.0926   -0.8770 H   0  0  0  0  0  0  0  0  0  0  0  0
   -1.3578    0.1703    1.2646 C   0  0  0  0  0  0  0  0  0  0  0  0
   -0.4935    0.8368    1.2743 H   0  0  0  0  0  0  0  0  0  0  0  0
   -2.2543    0.7918    1.2981 H   0  0  0  0  0  0  0  0  0  0  0  0
   -1.3125   -0.6654    2.5079 C   0  0  0  0  0  0  0  0  0  0  0  0
   -0.1899   -1.1052    3.1194 C   0  0  0  0  0  0  0  0  0  0  0  0
    0.8186   -0.9183    2.7671 H   0  0  0  0  0  0  0  0  0  0  0  0
   -0.5272   -1.8046    4.2616 N   0  0  0  0  0  0  0  0  0  0  0  0
    0.1523   -2.2291    4.8759 H   0  0  0  0  0  0  0  0  0  0  0  0
   -1.8922   -1.8361    4.4530 C   0  0  0  0  0  0  0  0  0  0  0  0
   -2.7068   -2.3831    5.4547 C   0  0  0  0  0  0  0  0  0  0  0  0
   -2.2689   -2.9126    6.2881 H   0  0  0  0  0  0  0  0  0  0  0  0
   -4.1009   -2.2342    5.3581 C   0  0  0  0  0  0  0  0  0  0  0  0
   -4.7451   -2.6503    6.1208 H   0  0  0  0  0  0  0  0  0  0  0  0
   -4.6584   -1.5482    4.2636 C   0  0  0  0  0  0  0  0  0  0  0  0
   -5.7319   -1.4432    4.1889 H   0  0  0  0  0  0  0  0  0  0  0  0
   -3.8300   -1.0043    3.2615 C   0  0  0  0  0  0  0  0  0  0  0  0
   -4.2719   -0.4913    2.4191 H   0  0  0  0  0  0  0  0  0  0  0  0
   -2.4258   -1.1314    3.3327 C   0  0  0  0  0  0  0  0  0  0  0  0
   -0.0609   -1.4205   -0.2379 C   0  0  0  0  0  0  0  0  0  0  0  0
    0.1092   -2.4739    0.3744 O   0  0  0  0  0  0  0  0  0  0  0  0
    0.8539   -0.9205   -1.0795 N   0  0  0  0  0  0  0  0  0  0  0  0
    0.6607   -0.0232   -1.5012 H   0  0  0  0  0  0  0  0  0  0  0  0
    2.1369   -1.5546   -1.3696 C   0  0  0  0  0  0  0  0  0  0  0  0
    1.9763   -2.5950   -1.6585 H   0  0  0  0  0  0  0  0  0  0  0  0
    2.6410   -1.0281   -2.1811 H   0  0  0  0  0  0  0  0  0  0  0  0
    2.7660   -1.5319   -0.4782 H   0  0  0  0  0  0  0  0  0  0  0  0
  5  6  2  0  0  0  0
  5  7  1  0  0  0  0
  2  3  1  0  0  0  0
  2  4  1  0  0  0  0
  2  5  1  0  0  0  0
  1  2  1  0  0  0  0
 29 30  2  0  0  0  0
 29 31  1  0  0  0  0
 26 27  1  0  0  0  0
 26 28  2  0  0  0  0
 24 25  1  0  0  0  0
 24 26  1  0  0  0  0
 22 23  1  0  0  0  0
 22 24  2  0  0  0  0
 20 21  1  0  0  0  0
 20 22  1  0  0  0  0
 19 20  2  0  0  0  0
 19 28  1  0  0  0  0
 17 18  1  0  0  0  0
 17 19  1  0  0  0  0
 15 16  1  0  0  0  0
 15 17  1  0  0  0  0
 14 15  2  0  0  0  0
 14 28  1  0  0  0  0
 11 12  1  0  0  0  0
 11 13  1  0  0  0  0
 11 14  1  0  0  0  0
  9 10  1  0  0  0  0
  9 11  1  0  0  0  0
  9 29  1  0  0  0  0
  7  8  1  0  0  0  0
  7  9  1  0  0  0  0
 33 34  1  0  0  0  0
 33 35  1  0  0  0  0
 33 36  1  0  0  0  0
 31 32  1  0  0  0  0
 31 33  1  0  0  0  0
M  END
$$$$
default_name
  -OEChem-12212115393D

 36 37  0     1  0  0  0  0  0999 V2000
   -4.0843   -4.0736    1.2944 H   0  0  0  0  0  0  0  0  0  0  0  0
   -4.0342   -3.2816    0.5484 C   0  0  0  0  0  0  0  0  0  0  0  0
   -4.8842   -2.6126    0.6694 H   0  0  0  0  0  0  0  0  0  0  0  0
   -4.0433   -3.7186   -0.4486 H   0  0  0  0  0  0  0  0  0  0  0  0
   -2.7532   -2.5046    0.7444 C   0  0  0  0  0  0  0  0  0  0  0  0
   -1.9803   -2.8096    1.6434 O   0  0  0  0  0  0  0  0  0  0  0  0
   -2.5332   -1.4966   -0.0966 N   0  0  0  0  0  0  0  0  0  0  0  0
   -3.2312   -1.2816   -0.7936 H   0  0  0  0  0  0  0  0  0  0  0  0
   -1.3593   -0.6196   -0.0536 C   0  0  1  0  0  0  0  0  0  0  0  0
   -1.4249    0.0926   -0.8770 H   0  0  0  0  0  0  0  0  0  0  0  0
   -1.3578    0.1703    1.2646 C   0  0  0  0  0  0  0  0  0  0  0  0
   -0.4935    0.8368    1.2743 H   0  0  0  0  0  0  0  0  0  0  0  0
   -2.2543    0.7918    1.2981 H   0  0  0  0  0  0  0  0  0  0  0  0
   -1.3125   -0.6654    2.5079 C   0  0  0  0  0  0  0  0  0  0  0  0
   -0.1899   -1.1052    3.1194 C   0  0  0  0  0  0  0  0  0  0  0  0
    0.8186   -0.9183    2.7671 H   0  0  0  0  0  0  0  0  0  0  0  0
   -0.5272   -1.8046    4.2616 N   0  0  0  0  0  0  0  0  0  0  0  0
    0.1523   -2.2291    4.8759 H   0  0  0  0  0  0  0  0  0  0  0  0
   -1.8922   -1.8361    4.4530 C   0  0  0  0  0  0  0  0  0  0  0  0
   -2.7068   -2.3831    5.4547 C   0  0  0  0  0  0  0  0  0  0  0  0
   -2.2689   -2.9126    6.2881 H   0  0  0  0  0  0  0  0  0  0  0  0
   -4.1009   -2.2342    5.3581 C   0  0  0  0  0  0  0  0  0  0  0  0
   -4.7451   -2.6503    6.1208 H   0  0  0  0  0  0  0  0  0  0  0  0
   -4.6584   -1.5482    4.2636 C   0  0  0  0  0  0  0  0  0  0  0  0
   -5.7319   -1.4432    4.1889 H   0  0  0  0  0  0  0  0  0  0  0  0
   -3.8300   -1.0043    3.2615 C   0  0  0  0  0  0  0  0  0  0  0  0
   -4.2719   -0.4913    2.4191 H   0  0  0  0  0  0  0  0  0  0  0  0
   -2.4258   -1.1314    3.3327 C   0  0  0  0  0  0  0  0  0  0  0  0
   -0.0609   -1.4205   -0.2379 C   0  0  0  0  0  0  0  0  0  0  0  0
    0.0059   -2.5882    0.1435 O   0  0  0  0  0  0  0  0  0  0  0  0
    0.9695   -0.7927   -0.8205 N   0  0  0  0  0  0  0  0  0  0  0  0
    0.8509    0.1825   -1.0554 H   0  0  0  0  0  0  0  0  0  0  0  0
    2.2699   -1.4074   -1.0724 C   0  0  0  0  0  0  0  0  0  0  0  0
    2.1342   -2.3520   -1.6024 H   0  0  0  0  0  0  0  0  0  0  0  0
    2.8898   -0.7415   -1.6741 H   0  0  0  0  0  0  0  0  0  0  0  0
    2.7699   -1.6073   -0.1232 H   0  0  0  0  0  0  0  0  0  0  0  0
  5  6  2  0  0  0  0
  5  7  1  0  0  0  0
  2  3  1  0  0  0  0
  2  4  1  0  0  0  0
  2  5  1  0  0  0  0
  1  2  1  0  0  0  0
 29 30  2  0  0  0  0
 29 31  1  0  0  0  0
 26 27  1  0  0  0  0
 26 28  2  0  0  0  0
 24 25  1  0  0  0  0
 24 26  1  0  0  0  0
 22 23  1  0  0  0  0
 22 24  2  0  0  0  0
 20 21  1  0  0  0  0
 20 22  1  0  0  0  0
 19 20  2  0  0  0  0
 19 28  1  0  0  0  0
 17 18  1  0  0  0  0
 17 19  1  0  0  0  0
 15 16  1  0  0  0  0
 15 17  1  0  0  0  0
 14 15  2  0  0  0  0
 14 28  1  0  0  0  0
 11 12  1  0  0  0  0
 11 13  1  0  0  0  0
 11 14  1  0  0  0  0
  9 10  1  0  0  0  0
  9 11  1  0  0  0  0
  9 29  1  0  0  0  0
  7  8  1  0  0  0  0
  7  9  1  0  0  0  0
 33 34  1  0  0  0  0
 33 35  1  0  0  0  0
 33 36  1  0  0  0  0
 31 32  1  0  0  0  0
 31 33  1  0  0  0  0
M  END
$$$$
default_name
  -OEChem-12212115393D

 36 37  0     1  0  0  0  0  0999 V2000
   -4.0843   -4.0736    1.2944 H   0  0  0  0  0  0  0  0  0  0  0  0
   -4.0342   -3.2816    0.5484 C   0  0  0  0  0  0  0  0  0  0  0  0
   -4.8842   -2.6126    0.6694 H   0  0  0  0  0  0  0  0  0  0  0  0
   -4.0433   -3.7186   -0.4486 H   0  0  0  0  0  0  0  0  0  0  0  0
   -2.7532   -2.5046    0.7444 C   0  0  0  0  0  0  0  0  0  0  0  0
   -1.9803   -2.8096    1.6434 O   0  0  0  0  0  0  0  0  0  0  0  0
   -2.5332   -1.4966   -0.0966 N   0  0  0  0  0  0  0  0  0  0  0  0
   -3.2312   -1.2816   -0.7936 H   0  0  0  0  0  0  0  0  0  0  0  0
   -1.3593   -0.6196   -0.0536 C   0  0  1  0  0  0  0  0  0  0  0  0
   -1.4249    0.0926   -0.8770 H   0  0  0  0  0  0  0  0  0  0  0  0
   -1.3578    0.1703    1.2646 C   0  0  0  0  0  0  0  0  0  0  0  0
   -0.4935    0.8368    1.2743 H   0  0  0  0  0  0  0  0  0  0  0  0
   -2.2543    0.7918    1.2981 H   0  0  0  0  0  0  0  0  0  0  0  0
   -1.3125   -0.6654    2.5079 C   0  0  0  0  0  0  0  0  0  0  0  0
   -0.1899   -1.1052    3.1194 C   0  0  0  0  0  0  0  0  0  0  0  0
    0.8186   -0.9183    2.7671 H   0  0  0  0  0  0  0  0  0  0  0  0
   -0.5272   -1.8046    4.2616 N   0  0  0  0  0  0  0  0  0  0  0  0
    0.1523   -2.2291    4.8759 H   0  0  0  0  0  0  0  0  0  0  0  0
   -1.8922   -1.8361    4.4530 C   0  0  0  0  0  0  0  0  0  0  0  0
   -2.7068   -2.3831    5.4547 C   0  0  0  0  0  0  0  0  0  0  0  0
   -2.2689   -2.9126    6.2881 H   0  0  0  0  0  0  0  0  0  0  0  0
   -4.1009   -2.2342    5.3581 C   0  0  0  0  0  0  0  0  0  0  0  0
   -4.7451   -2.6503    6.1208 H   0  0  0  0  0  0  0  0  0  0  0  0
   -4.6584   -1.5482    4.2636 C   0  0  0  0  0  0  0  0  0  0  0  0
   -5.7319   -1.4432    4.1889 H   0  0  0  0  0  0  0  0  0  0  0  0
   -3.8300   -1.0043    3.2615 C   0  0  0  0  0  0  0  0  0  0  0  0
   -4.2719   -0.4913    2.4191 H   0  0  0  0  0  0  0  0  0  0  0  0
   -2.4258   -1.1314    3.3327 C   0  0  0  0  0  0  0  0  0  0  0  0
   -0.0609   -1.4205   -0.2379 C   0  0  0  0  0  0  0  0  0  0  0  0
   -0.0662   -2.6449   -0.1184 O   0  0  0  0  0  0  0  0  0  0  0  0
    1.0501   -0.7296   -0.5269 N   0  0  0  0  0  0  0  0  0  0  0  0
    0.9808    0.2777   -0.5541 H   0  0  0  0  0  0  0  0  0  0  0  0
    2.3629   -1.3343   -0.7351 C   0  0  0  0  0  0  0  0  0  0  0  0
    2.2866   -2.1345   -1.4738 H   0  0  0  0  0  0  0  0  0  0  0  0
    3.0706   -0.5832   -1.0881 H   0  0  0  0  0  0  0  0  0  0  0  0
    2.7235   -1.7578    0.2038 H   0  0  0  0  0  0  0  0  0  0  0  0
  5  6  2  0  0  0  0
  5  7  1  0  0  0  0
  2  3  1  0  0  0  0
  2  4  1  0  0  0  0
  2  5  1  0  0  0  0
  1  2  1  0  0  0  0
 29 30  2  0  0  0  0
 29 31  1  0  0  0  0
 26 27  1  0  0  0  0
 26 28  2  0  0  0  0
 24 25  1  0  0  0  0
 24 26  1  0  0  0  0
 22 23  1  0  0  0  0
 22 24  2  0  0  0  0
 20 21  1  0  0  0  0
 20 22  1  0  0  0  0
 19 20  2  0  0  0  0
 19 28  1  0  0  0  0
 17 18  1  0  0  0  0
 17 19  1  0  0  0  0
 15 16  1  0  0  0  0
 15 17  1  0  0  0  0
 14 15  2  0  0  0  0
 14 28  1  0  0  0  0
 11 12  1  0  0  0  0
 11 13  1  0  0  0  0
 11 14  1  0  0  0  0
  9 10  1  0  0  0  0
  9 11  1  0  0  0  0
  9 29  1  0  0  0  0
  7  8  1  0  0  0  0
  7  9  1  0  0  0  0
 33 34  1  0  0  0  0
 33 35  1  0  0  0  0
 33 36  1  0  0  0  0
 31 32  1  0  0  0  0
 31 33  1  0  0  0  0
M  END
$$$$
default_name
  -OEChem-12212115393D

 36 37  0     1  0  0  0  0  0999 V2000
   -4.0843   -4.0736    1.2944 H   0  0  0  0  0  0  0  0  0  0  0  0
   -4.0342   -3.2816    0.5484 C   0  0  0  0  0  0  0  0  0  0  0  0
   -4.8842   -2.6126    0.6694 H   0  0  0  0  0  0  0  0  0  0  0  0
   -4.0433   -3.7186   -0.4486 H   0  0  0  0  0  0  0  0  0  0  0  0
   -2.7532   -2.5046    0.7444 C   0  0  0  0  0  0  0  0  0  0  0  0
   -1.9803   -2.8096    1.6434 O   0  0  0  0  0  0  0  0  0  0  0  0
   -2.5332   -1.4966   -0.0966 N   0  0  0  0  0  0  0  0  0  0  0  0
   -3.2312   -1.2816   -0.7936 H   0  0  0  0  0  0  0  0  0  0  0  0
   -1.3593   -0.6196   -0.0536 C   0  0  1  0  0  0  0  0  0  0  0  0
   -1.5461    0.2456   -0.6908 H   0  0  0  0  0  0  0  0  0  0  0  0
   -1.1458   -0.1194    1.3837 C   0  0  0  0  0  0  0  0  0  0  0  0
   -0.2847    0.5512    1.3984 H   0  0  0  0  0  0  0  0  0  0  0  0
   -2.0207    0.4601    1.6833 H   0  0  0  0  0  0  0  0  0  0  0  0
   -0.9148   -1.1926    2.4039 C   0  0  0  0  0  0  0  0  0  0  0  0
    0.2854   -1.7224    2.7303 C   0  0  0  0  0  0  0  0  0  0  0  0
    1.2283   -1.4426    2.2736 H   0  0  0  0  0  0  0  0  0  0  0  0
    0.1239   -2.6506    3.7402 N   0  0  0  0  0  0  0  0  0  0  0  0
    0.8869   -3.1765    4.1407 H   0  0  0  0  0  0  0  0  0  0  0  0
   -1.1949   -2.7536    4.1288 C   0  0  0  0  0  0  0  0  0  0  0  0
   -1.8485   -3.5151    5.1082 C   0  0  0  0  0  0  0  0  0  0  0  0
   -1.2908   -4.1948    5.7357 H   0  0  0  0  0  0  0  0  0  0  0  0
   -3.2393   -3.3828    5.2606 C   0  0  0  0  0  0  0  0  0  0  0  0
   -3.7606   -3.9629    6.0101 H   0  0  0  0  0  0  0  0  0  0  0  0
   -3.9543   -2.4990    4.4317 C   0  0  0  0  0  0  0  0  0  0  0  0
   -5.0254   -2.4065    4.5468 H   0  0  0  0  0  0  0  0  0  0  0  0
   -3.2872   -1.7400    3.4492 C   0  0  0  0  0  0  0  0  0  0  0  0
   -3.8504   -1.0748    2.8103 H   0  0  0  0  0  0  0  0  0  0  0  0
   -1.8902   -1.8456    3.2753 C   0  0  0  0  0  0  0  0  0  0  0  0
   -0.1124   -1.3338   -0.5981 C   0  0  0  0  0  0  0  0  0  0  0  0
   -0.1882   -2.4957   -0.9955 O   0  0  0  0  0  0  0  0  0  0  0  0
    1.0337   -0.6401   -0.6144 N   0  0  0  0  0  0  0  0  0  0  0  0
    1.0233    0.2898   -0.2201 H   0  0  0  0  0  0  0  0  0  0  0  0
    2.3061   -1.1669   -1.1000 C   0  0  0  0  0  0  0  0  0  0  0  0
    2.1743   -1.5838   -2.1002 H   0  0  0  0  0  0  0  0  0  0  0  0
    3.0526   -0.3723   -1.1353 H   0  0  0  0  0  0  0  0  0  0  0  0
    2.6523   -1.9587   -0.4336 H   0  0  0  0  0  0  0  0  0  0  0  0
  5  6  2  0  0  0  0
  5  7  1  0  0  0  0
  2  3  1  0  0  0  0
  2  4  1  0  0  0  0
  2  5  1  0  0  0  0
  1  2  1  0  0  0  0
 29 30  2  0  0  0  0
 29 31  1  0  0  0  0
 26 27  1  0  0  0  0
 26 28  2  0  0  0  0
 24 25  1  0  0  0  0
 24 26  1  0  0  0  0
 22 23  1  0  0  0  0
 22 24  2  0  0  0  0
 20 21  1  0  0  0  0
 20 22  1  0  0  0  0
 19 20  2  0  0  0  0
 19 28  1  0  0  0  0
 17 18  1  0  0  0  0
 17 19  1  0  0  0  0
 15 16  1  0  0  0  0
 15 17  1  0  0  0  0
 14 15  2  0  0  0  0
 14 28  1  0  0  0  0
 11 12  1  0  0  0  0
 11 13  1  0  0  0  0
 11 14  1  0  0  0  0
  9 10  1  0  0  0  0
  9 11  1  0  0  0  0
  9 29  1  0  0  0  0
  7  8  1  0  0  0  0
  7  9  1  0  0  0  0
 33 34  1  0  0  0  0
 33 35  1  0  0  0  0
 33 36  1  0  0  0  0
 31 32  1  0  0  0  0
 31 33  1  0  0  0  0
M  END
$$$$
default_name
  -OEChem-12212115393D

 36 37  0     1  0  0  0  0  0999 V2000
   -4.0843   -4.0736    1.2944 H   0  0  0  0  0  0  0  0  0  0  0  0
   -4.0342   -3.2816    0.5484 C   0  0  0  0  0  0  0  0  0  0  0  0
   -4.8842   -2.6126    0.6694 H   0  0  0  0  0  0  0  0  0  0  0  0
   -4.0433   -3.7186   -0.4486 H   0  0  0  0  0  0  0  0  0  0  0  0
   -2.7532   -2.5046    0.7444 C   0  0  0  0  0  0  0  0  0  0  0  0
   -1.9803   -2.8096    1.6434 O   0  0  0  0  0  0  0  0  0  0  0  0
   -2.5332   -1.4966   -0.0966 N   0  0  0  0  0  0  0  0  0  0  0  0
   -3.2312   -1.2816   -0.7936 H   0  0  0  0  0  0  0  0  0  0  0  0
   -1.3593   -0.6196   -0.0536 C   0  0  1  0  0  0  0  0  0  0  0  0
   -1.5461    0.2456   -0.6908 H   0  0  0  0  0  0  0  0  0  0  0  0
   -1.1458   -0.1194    1.3837 C   0  0  0  0  0  0  0  0  0  0  0  0
   -0.2847    0.5512    1.3984 H   0  0  0  0  0  0  0  0  0  0  0  0
   -2.0207    0.4601    1.6833 H   0  0  0  0  0  0  0  0  0  0  0  0
   -0.9148   -1.1926    2.4039 C   0  0  0  0  0  0  0  0  0  0  0  0
    0.2854   -1.7224    2.7303 C   0  0  0  0  0  0  0  0  0  0  0  0
    1.2283   -1.4426    2.2736 H   0  0  0  0  0  0  0  0  0  0  0  0
    0.1239   -2.6506    3.7402 N   0  0  0  0  0  0  0  0  0  0  0  0
    0.8869   -3.1765    4.1407 H   0  0  0  0  0  0  0  0  0  0  0  0
   -1.1949   -2.7536    4.1288 C   0  0  0  0  0  0  0  0  0  0  0  0
   -1.8485   -3.5151    5.1082 C   0  0  0  0  0  0  0  0  0  0  0  0
   -1.2908   -4.1948    5.7357 H   0  0  0  0  0  0  0  0  0  0  0  0
   -3.2393   -3.3828    5.2606 C   0  0  0  0  0  0  0  0  0  0  0  0
   -3.7606   -3.9629    6.0101 H   0  0  0  0  0  0  0  0  0  0  0  0
   -3.9543   -2.4990    4.4317 C   0  0  0  0  0  0  0  0  0  0  0  0
   -5.0254   -2.4065    4.5468 H   0  0  0  0  0  0  0  0  0  0  0  0
   -3.2872   -1.7400    3.4492 C   0  0  0  0  0  0  0  0  0  0  0  0
   -3.8504   -1.0748    2.8103 H   0  0  0  0  0  0  0  0  0  0  0  0
   -1.8902   -1.8456    3.2753 C   0  0  0  0  0  0  0  0  0  0  0  0
   -0.1124   -1.3338   -0.5981 C   0  0  0  0  0  0  0  0  0  0  0  0
   -0.2273   -2.3755   -1.2426 O   0  0  0  0  0  0  0  0  0  0  0  0
    1.0772   -0.7751   -0.3377 N   0  0  0  0  0  0  0  0  0  0  0  0
    1.0890    0.0504    0.2443 H   0  0  0  0  0  0  0  0  0  0  0  0
    2.3564   -1.3216   -0.7818 C   0  0  0  0  0  0  0  0  0  0  0  0
    2.3234   -1.5091   -1.8567 H   0  0  0  0  0  0  0  0  0  0  0  0
    3.1614   -0.6191   -0.5623 H   0  0  0  0  0  0  0  0  0  0  0  0
    2.5495   -2.2647   -0.2677 H   0  0  0  0  0  0  0  0  0  0  0  0
  5  6  2  0  0  0  0
  5  7  1  0  0  0  0
  2  3  1  0  0  0  0
  2  4  1  0  0  0  0
  2  5  1  0  0  0  0
  1  2  1  0  0  0  0
 29 30  2  0  0  0  0
 29 31  1  0  0  0  0
 26 27  1  0  0  0  0
 26 28  2  0  0  0  0
 24 25  1  0  0  0  0
 24 26  1  0  0  0  0
 22 23  1  0  0  0  0
 22 24  2  0  0  0  0
 20 21  1  0  0  0  0
 20 22  1  0  0  0  0
 19 20  2  0  0  0  0
 19 28  1  0  0  0  0
 17 18  1  0  0  0  0
 17 19  1  0  0  0  0
 15 16  1  0  0  0  0
 15 17  1  0  0  0  0
 14 15  2  0  0  0  0
 14 28  1  0  0  0  0
 11 12  1  0  0  0  0
 11 13  1  0  0  0  0
 11 14  1  0  0  0  0
  9 10  1  0  0  0  0
  9 11  1  0  0  0  0
  9 29  1  0  0  0  0
  7  8  1  0  0  0  0
  7  9  1  0  0  0  0
 33 34  1  0  0  0  0
 33 35  1  0  0  0  0
 33 36  1  0  0  0  0
 31 32  1  0  0  0  0
 31 33  1  0  0  0  0
M  END
$$$$
default_name
  -OEChem-12212115393D

 36 37  0     1  0  0  0  0  0999 V2000
   -4.0843   -4.0736    1.2944 H   0  0  0  0  0  0  0  0  0  0  0  0
   -4.0342   -3.2816    0.5484 C   0  0  0  0  0  0  0  0  0  0  0  0
   -4.8842   -2.6126    0.6694 H   0  0  0  0  0  0  0  0  0  0  0  0
   -4.0433   -3.7186   -0.4486 H   0  0  0  0  0  0  0  0  0  0  0  0
   -2.7532   -2.5046    0.7444 C   0  0  0  0  0  0  0  0  0  0  0  0
   -1.9803   -2.8096    1.6434 O   0  0  0  0  0  0  0  0  0  0  0  0
   -2.5332   -1.4966   -0.0966 N   0  0  0  0  0  0  0  0  0  0  0  0
   -3.2312   -1.2816   -0.7936 H   0  0  0  0  0  0  0  0  0  0  0  0
   -1.3593   -0.6196   -0.0536 C   0  0  1  0  0  0  0  0  0  0  0  0
   -1.5461    0.2456   -0.6908 H   0  0  0  0  0  0  0  0  0  0  0  0
   -1.1458   -0.1194    1.3837 C   0  0  0  0  0  0  0  0  0  0  0  0
   -0.2847    0.5512    1.3984 H   0  0  0  0  0  0  0  0  0  0  0  0
   -2.0207    0.4601    1.6833 H   0  0  0  0  0  0  0  0  0  0  0  0
   -0.9148   -1.1926    2.4039 C   0  0  0  0  0  0  0  0  0  0  0  0
    0.2854   -1.7224    2.7303 C   0  0  0  0  0  0  0  0  0  0  0  0
    1.2283   -1.4426    2.2736 H   0  0  0  0  0  0  0  0  0  0  0  0
    0.1239   -2.6506    3.7402 N   0  0  0  0  0  0  0  0  0  0  0  0
    0.8869   -3.1765    4.1407 H   0  0  0  0  0  0  0  0  0  0  0  0
   -1.1949   -2.7536    4.1288 C   0  0  0  0  0  0  0  0  0  0  0  0
   -1.8485   -3.5151    5.1082 C   0  0  0  0  0  0  0  0  0  0  0  0
   -1.2908   -4.1948    5.7357 H   0  0  0  0  0  0  0  0  0  0  0  0
   -3.2393   -3.3828    5.2606 C   0  0  0  0  0  0  0  0  0  0  0  0
   -3.7606   -3.9629    6.0101 H   0  0  0  0  0  0  0  0  0  0  0  0
   -3.9543   -2.4990    4.4317 C   0  0  0  0  0  0  0  0  0  0  0  0
   -5.0254   -2.4065    4.5468 H   0  0  0  0  0  0  0  0  0  0  0  0
   -3.2872   -1.7400    3.4492 C   0  0  0  0  0  0  0  0  0  0  0  0
   -3.8504   -1.0748    2.8103 H   0  0  0  0  0  0  0  0  0  0  0  0
   -1.8902   -1.8456    3.2753 C   0  0  0  0  0  0  0  0  0  0  0  0
   -0.1124   -1.3338   -0.5981 C   0  0  0  0  0  0  0  0  0  0  0  0
   -0.2243   -2.2039   -1.4607 O   0  0  0  0  0  0  0  0  0  0  0  0
    1.0735   -0.9677   -0.0935 N   0  0  0  0  0  0  0  0  0  0  0  0
    1.0746   -0.2844    0.6504 H   0  0  0  0  0  0  0  0  0  0  0  0
    2.3525   -1.5425   -0.5009 C   0  0  0  0  0  0  0  0  0  0  0  0
    2.4449   -1.5019   -1.5878 H   0  0  0  0  0  0  0  0  0  0  0  0
    3.1750   -0.9878   -0.0475 H   0  0  0  0  0  0  0  0  0  0  0  0
    2.4021   -2.5857   -0.1842 H   0  0  0  0  0  0  0  0  0  0  0  0
  5  6  2  0  0  0  0
  5  7  1  0  0  0  0
  2  3  1  0  0  0  0
  2  4  1  0  0  0  0
  2  5  1  0  0  0  0
  1  2  1  0  0  0  0
 29 30  2  0  0  0  0
 29 31  1  0  0  0  0
 26 27  1  0  0  0  0
 26 28  2  0  0  0  0
 24 25  1  0  0  0  0
 24 26  1  0  0  0  0
 22 23  1  0  0  0  0
 22 24  2  0  0  0  0
 20 21  1  0  0  0  0
 20 22  1  0  0  0  0
 19 20  2  0  0  0  0
 19 28  1  0  0  0  0
 17 18  1  0  0  0  0
 17 19  1  0  0  0  0
 15 16  1  0  0  0  0
 15 17  1  0  0  0  0
 14 15  2  0  0  0  0
 14 28  1  0  0  0  0
 11 12  1  0  0  0  0
 11 13  1  0  0  0  0
 11 14  1  0  0  0  0
  9 10  1  0  0  0  0
  9 11  1  0  0  0  0
  9 29  1  0  0  0  0
  7  8  1  0  0  0  0
  7  9  1  0  0  0  0
 33 34  1  0  0  0  0
 33 35  1  0  0  0  0
 33 36  1  0  0  0  0
 31 32  1  0  0  0  0
 31 33  1  0  0  0  0
M  END
$$$$
default_name
  -OEChem-12212115393D

 36 37  0     1  0  0  0  0  0999 V2000
   -4.0843   -4.0736    1.2944 H   0  0  0  0  0  0  0  0  0  0  0  0
   -4.0342   -3.2816    0.5484 C   0  0  0  0  0  0  0  0  0  0  0  0
   -4.8842   -2.6126    0.6694 H   0  0  0  0  0  0  0  0  0  0  0  0
   -4.0433   -3.7186   -0.4486 H   0  0  0  0  0  0  0  0  0  0  0  0
   -2.7532   -2.5046    0.7444 C   0  0  0  0  0  0  0  0  0  0  0  0
   -1.9803   -2.8096    1.6434 O   0  0  0  0  0  0  0  0  0  0  0  0
   -2.5332   -1.4966   -0.0966 N   0  0  0  0  0  0  0  0  0  0  0  0
   -3.2312   -1.2816   -0.7936 H   0  0  0  0  0  0  0  0  0  0  0  0
   -1.3593   -0.6196   -0.0536 C   0  0  1  0  0  0  0  0  0  0  0  0
   -1.5461    0.2456   -0.6908 H   0  0  0  0  0  0  0  0  0  0  0  0
   -1.1458   -0.1194    1.3837 C   0  0  0  0  0  0  0  0  0  0  0  0
   -0.2847    0.5512    1.3984 H   0  0  0  0  0  0  0  0  0  0  0  0
   -2.0207    0.4601    1.6833 H   0  0  0  0  0  0  0  0  0  0  0  0
   -0.9148   -1.1926    2.4039 C   0  0  0  0  0  0  0  0  0  0  0  0
    0.2854   -1.7224    2.7303 C   0  0  0  0  0  0  0  0  0  0  0  0
    1.2283   -1.4426    2.2736 H   0  0  0  0  0  0  0  0  0  0  0  0
    0.1239   -2.6506    3.7402 N   0  0  0  0  0  0  0  0  0  0  0  0
    0.8869   -3.1765    4.1407 H   0  0  0  0  0  0  0  0  0  0  0  0
   -1.1949   -2.7536    4.1288 C   0  0  0  0  0  0  0  0  0  0  0  0
   -1.8485   -3.5151    5.1082 C   0  0  0  0  0  0  0  0  0  0  0  0
   -1.2908   -4.1948    5.7357 H   0  0  0  0  0  0  0  0  0  0  0  0
   -3.2393   -3.3828    5.2606 C   0  0  0  0  0  0  0  0  0  0  0  0
   -3.7606   -3.9629    6.0101 H   0  0  0  0  0  0  0  0  0  0  0  0
   -3.9543   -2.4990    4.4317 C   0  0  0  0  0  0  0  0  0  0  0  0
   -5.0254   -2.4065    4.5468 H   0  0  0  0  0  0  0  0  0  0  0  0
   -3.2872   -1.7400    3.4492 C   0  0  0  0  0  0  0  0  0  0  0  0
   -3.8504   -1.0748    2.8103 H   0  0  0  0  0  0  0  0  0  0  0  0
   -1.8902   -1.8456    3.2753 C   0  0  0  0  0  0  0  0  0  0  0  0
   -0.1124   -1.3338   -0.5981 C   0  0  0  0  0  0  0  0  0  0  0  0
   -0.1794   -1.9927   -1.6349 O   0  0  0  0  0  0  0  0  0  0  0  0
    1.0229   -1.2046    0.1015 N   0  0  0  0  0  0  0  0  0  0  0  0
    0.9811   -0.6917    0.9706 H   0  0  0  0  0  0  0  0  0  0  0  0
    2.2947   -1.8146   -0.2764 C   0  0  0  0  0  0  0  0  0  0  0  0
    2.5307   -1.5625   -1.3120 H   0  0  0  0  0  0  0  0  0  0  0  0
    3.0924   -1.4534    0.3740 H   0  0  0  0  0  0  0  0  0  0  0  0
    2.2203   -2.8998   -0.1886 H   0  0  0  0  0  0  0  0  0  0  0  0
  5  6  2  0  0  0  0
  5  7  1  0  0  0  0
  2  3  1  0  0  0  0
  2  4  1  0  0  0  0
  2  5  1  0  0  0  0
  1  2  1  0  0  0  0
 29 30  2  0  0  0  0
 29 31  1  0  0  0  0
 26 27  1  0  0  0  0
 26 28  2  0  0  0  0
 24 25  1  0  0  0  0
 24 26  1  0  0  0  0
 22 23  1  0  0  0  0
 22 24  2  0  0  0  0
 20 21  1  0  0  0  0
 20 22  1  0  0  0  0
 19 20  2  0  0  0  0
 19 28  1  0  0  0  0
 17 18  1  0  0  0  0
 17 19  1  0  0  0  0
 15 16  1  0  0  0  0
 15 17  1  0  0  0  0
 14 15  2  0  0  0  0
 14 28  1  0  0  0  0
 11 12  1  0  0  0  0
 11 13  1  0  0  0  0
 11 14  1  0  0  0  0
  9 10  1  0  0  0  0
  9 11  1  0  0  0  0
  9 29  1  0  0  0  0
  7  8  1  0  0  0  0
  7  9  1  0  0  0  0
 33 34  1  0  0  0  0
 33 35  1  0  0  0  0
 33 36  1  0  0  0  0
 31 32  1  0  0  0  0
 31 33  1  0  0  0  0
M  END
$$$$
default_name
  -OEChem-12212115393D

 36 37  0     1  0  0  0  0  0999 V2000
   -4.0843   -4.0736    1.2944 H   0  0  0  0  0  0  0  0  0  0  0  0
   -4.0342   -3.2816    0.5484 C   0  0  0  0  0  0  0  0  0  0  0  0
   -4.8842   -2.6126    0.6694 H   0  0  0  0  0  0  0  0  0  0  0  0
   -4.0433   -3.7186   -0.4486 H   0  0  0  0  0  0  0  0  0  0  0  0
   -2.7532   -2.5046    0.7444 C   0  0  0  0  0  0  0  0  0  0  0  0
   -1.9803   -2.8096    1.6434 O   0  0  0  0  0  0  0  0  0  0  0  0
   -2.5332   -1.4966   -0.0966 N   0  0  0  0  0  0  0  0  0  0  0  0
   -3.2312   -1.2816   -0.7936 H   0  0  0  0  0  0  0  0  0  0  0  0
   -1.3593   -0.6196   -0.0536 C   0  0  1  0  0  0  0  0  0  0  0  0
   -1.5461    0.2456   -0.6908 H   0  0  0  0  0  0  0  0  0  0  0  0
   -1.1458   -0.1194    1.3837 C   0  0  0  0  0  0  0  0  0  0  0  0
   -0.2847    0.5512    1.3984 H   0  0  0  0  0  0  0  0  0  0  0  0
   -2.0207    0.4601    1.6833 H   0  0  0  0  0  0  0  0  0  0  0  0
   -0.9148   -1.1926    2.4039 C   0  0  0  0  0  0  0  0  0  0  0  0
    0.2854   -1.7224    2.7303 C   0  0  0  0  0  0  0  0  0  0  0  0
    1.2283   -1.4426    2.2736 H   0  0  0  0  0  0  0  0  0  0  0  0
    0.1239   -2.6506    3.7402 N   0  0  0  0  0  0  0  0  0  0  0  0
    0.8869   -3.1765    4.1407 H   0  0  0  0  0  0  0  0  0  0  0  0
   -1.1949   -2.7536    4.1288 C   0  0  0  0  0  0  0  0  0  0  0  0
   -1.8485   -3.5151    5.1082 C   0  0  0  0  0  0  0  0  0  0  0  0
   -1.2908   -4.1948    5.7357 H   0  0  0  0  0  0  0  0  0  0  0  0
   -3.2393   -3.3828    5.2606 C   0  0  0  0  0  0  0  0  0  0  0  0
   -3.7606   -3.9629    6.0101 H   0  0  0  0  0  0  0  0  0  0  0  0
   -3.9543   -2.4990    4.4317 C   0  0  0  0  0  0  0  0  0  0  0  0
   -5.0254   -2.4065    4.5468 H   0  0  0  0  0  0  0  0  0  0  0  0
   -3.2872   -1.7400    3.4492 C   0  0  0  0  0  0  0  0  0  0  0  0
   -3.8504   -1.0748    2.8103 H   0  0  0  0  0  0  0  0  0  0  0  0
   -1.8902   -1.8456    3.2753 C   0  0  0  0  0  0  0  0  0  0  0  0
   -0.1124   -1.3338   -0.5981 C   0  0  0  0  0  0  0  0  0  0  0  0
   -0.0956   -1.7561   -1.7535 O   0  0  0  0  0  0  0  0  0  0  0  0
    0.9289   -1.4698    0.2339 N   0  0  0  0  0  0  0  0  0  0  0  0
    0.8149   -1.1438    1.1832 H   0  0  0  0  0  0  0  0  0  0  0  0
    2.1870   -2.1192   -0.1237 C   0  0  0  0  0  0  0  0  0  0  0  0
    2.5747   -1.6868   -1.0480 H   0  0  0  0  0  0  0  0  0  0  0  0
    2.9192   -1.9840    0.6734 H   0  0  0  0  0  0  0  0  0  0  0  0
    2.0164   -3.1855   -0.2807 H   0  0  0  0  0  0  0  0  0  0  0  0
  5  6  2  0  0  0  0
  5  7  1  0  0  0  0
  2  3  1  0  0  0  0
  2  4  1  0  0  0  0
  2  5  1  0  0  0  0
  1  2  1  0  0  0  0
 29 30  2  0  0  0  0
 29 31  1  0  0  0  0
 26 27  1  0  0  0  0
 26 28  2  0  0  0  0
 24 25  1  0  0  0  0
 24 26  1  0  0  0  0
 22 23  1  0  0  0  0
 22 24  2  0  0  0  0
 20 21  1  0  0  0  0
 20 22  1  0  0  0  0
 19 20  2  0  0  0  0
 19 28  1  0  0  0  0
 17 18  1  0  0  0  0
 17 19  1  0  0  0  0
 15 16  1  0  0  0  0
 15 17  1  0  0  0  0
 14 15  2  0  0  0  0
 14 28  1  0  0  0  0
 11 12  1  0  0  0  0
 11 13  1  0  0  0  0
 11 14  1  0  0  0  0
  9 10  1  0  0  0  0
  9 11  1  0  0  0  0
  9 29  1  0  0  0  0
  7  8  1  0  0  0  0
  7  9  1  0  0  0  0
 33 34  1  0  0  0  0
 33 35  1  0  0  0  0
 33 36  1  0  0  0  0
 31 32  1  0  0  0  0
 31 33  1  0  0  0  0
M  END
$$$$
default_name
  -OEChem-12212115393D

 36 37  0     1  0  0  0  0  0999 V2000
   -4.0843   -4.0736    1.2944 H   0  0  0  0  0  0  0  0  0  0  0  0
   -4.0342   -3.2816    0.5484 C   0  0  0  0  0  0  0  0  0  0  0  0
   -4.8842   -2.6126    0.6694 H   0  0  0  0  0  0  0  0  0  0  0  0
   -4.0433   -3.7186   -0.4486 H   0  0  0  0  0  0  0  0  0  0  0  0
   -2.7532   -2.5046    0.7444 C   0  0  0  0  0  0  0  0  0  0  0  0
   -1.9803   -2.8096    1.6434 O   0  0  0  0  0  0  0  0  0  0  0  0
   -2.5332   -1.4966   -0.0966 N   0  0  0  0  0  0  0  0  0  0  0  0
   -3.2312   -1.2816   -0.7936 H   0  0  0  0  0  0  0  0  0  0  0  0
   -1.3593   -0.6196   -0.0536 C   0  0  1  0  0  0  0  0  0  0  0  0
   -1.5461    0.2456   -0.6908 H   0  0  0  0  0  0  0  0  0  0  0  0
   -1.1458   -0.1194    1.3837 C   0  0  0  0  0  0  0  0  0  0  0  0
   -0.2847    0.5512    1.3984 H   0  0  0  0  0  0  0  0  0  0  0  0
   -2.0207    0.4601    1.6833 H   0  0  0  0  0  0  0  0  0  0  0  0
   -0.9148   -1.1926    2.4039 C   0  0  0  0  0  0  0  0  0  0  0  0
    0.2854   -1.7224    2.7303 C   0  0  0  0  0  0  0  0  0  0  0  0
    1.2283   -1.4426    2.2736 H   0  0  0  0  0  0  0  0  0  0  0  0
    0.1239   -2.6506    3.7402 N   0  0  0  0  0  0  0  0  0  0  0  0
    0.8869   -3.1765    4.1407 H   0  0  0  0  0  0  0  0  0  0  0  0
   -1.1949   -2.7536    4.1288 C   0  0  0  0  0  0  0  0  0  0  0  0
   -1.8485   -3.5151    5.1082 C   0  0  0  0  0  0  0  0  0  0  0  0
   -1.2908   -4.1948    5.7357 H   0  0  0  0  0  0  0  0  0  0  0  0
   -3.2393   -3.3828    5.2606 C   0  0  0  0  0  0  0  0  0  0  0  0
   -3.7606   -3.9629    6.0101 H   0  0  0  0  0  0  0  0  0  0  0  0
   -3.9543   -2.4990    4.4317 C   0  0  0  0  0  0  0  0  0  0  0  0
   -5.0254   -2.4065    4.5468 H   0  0  0  0  0  0  0  0  0  0  0  0
   -3.2872   -1.7400    3.4492 C   0  0  0  0  0  0  0  0  0  0  0  0
   -3.8504   -1.0748    2.8103 H   0  0  0  0  0  0  0  0  0  0  0  0
   -1.8902   -1.8456    3.2753 C   0  0  0  0  0  0  0  0  0  0  0  0
   -0.1124   -1.3338   -0.5981 C   0  0  0  0  0  0  0  0  0  0  0  0
    0.0212   -1.5104   -1.8083 O   0  0  0  0  0  0  0  0  0  0  0  0
    0.7978   -1.7451    0.2949 N   0  0  0  0  0  0  0  0  0  0  0  0
    0.5874   -1.6100    1.2735 H   0  0  0  0  0  0  0  0  0  0  0  0
    2.0365   -2.4356   -0.0531 C   0  0  0  0  0  0  0  0  0  0  0  0
    2.5741   -1.8664   -0.8138 H   0  0  0  0  0  0  0  0  0  0  0  0
    2.6673   -2.5435    0.8303 H   0  0  0  0  0  0  0  0  0  0  0  0
    1.8043   -3.4235   -0.4542 H   0  0  0  0  0  0  0  0  0  0  0  0
  5  6  2  0  0  0  0
  5  7  1  0  0  0  0
  2  3  1  0  0  0  0
  2  4  1  0  0  0  0
  2  5  1  0  0  0  0
  1  2  1  0  0  0  0
 29 30  2  0  0  0  0
 29 31  1  0  0  0  0
 26 27  1  0  0  0  0
 26 28  2  0  0  0  0
 24 25  1  0  0  0  0
 24 26  1  0  0  0  0
 22 23  1  0  0  0  0
 22 24  2  0  0  0  0
 20 21  1  0  0  0  0
 20 22  1  0  0  0  0
 19 20  2  0  0  0  0
 19 28  1  0  0  0  0
 17 18  1  0  0  0  0
 17 19  1  0  0  0  0
 15 16  1  0  0  0  0
 15 17  1  0  0  0  0
 14 15  2  0  0  0  0
 14 28  1  0  0  0  0
 11 12  1  0  0  0  0
 11 13  1  0  0  0  0
 11 14  1  0  0  0  0
  9 10  1  0  0  0  0
  9 11  1  0  0  0  0
  9 29  1  0  0  0  0
  7  8  1  0  0  0  0
  7  9  1  0  0  0  0
 33 34  1  0  0  0  0
 33 35  1  0  0  0  0
 33 36  1  0  0  0  0
 31 32  1  0  0  0  0
 31 33  1  0  0  0  0
M  END
$$$$
default_name
  -OEChem-12212115393D

 36 37  0     1  0  0  0  0  0999 V2000
   -4.0843   -4.0736    1.2944 H   0  0  0  0  0  0  0  0  0  0  0  0
   -4.0342   -3.2816    0.5484 C   0  0  0  0  0  0  0  0  0  0  0  0
   -4.8842   -2.6126    0.6694 H   0  0  0  0  0  0  0  0  0  0  0  0
   -4.0433   -3.7186   -0.4486 H   0  0  0  0  0  0  0  0  0  0  0  0
   -2.7532   -2.5046    0.7444 C   0  0  0  0  0  0  0  0  0  0  0  0
   -1.9803   -2.8096    1.6434 O   0  0  0  0  0  0  0  0  0  0  0  0
   -2.5332   -1.4966   -0.0966 N   0  0  0  0  0  0  0  0  0  0  0  0
   -3.2312   -1.2816   -0.7936 H   0  0  0  0  0  0  0  0  0  0  0  0
   -1.3593   -0.6196   -0.0536 C   0  0  1  0  0  0  0  0  0  0  0  0
   -1.5461    0.2456   -0.6908 H   0  0  0  0  0  0  0  0  0  0  0  0
   -1.1458   -0.1194    1.3837 C   0  0  0  0  0  0  0  0  0  0  0  0
   -0.2847    0.5512    1.3984 H   0  0  0  0  0  0  0  0  0  0  0  0
   -2.0207    0.4601    1.6833 H   0  0  0  0  0  0  0  0  0  0  0  0
   -0.9148   -1.1926    2.4039 C   0  0  0  0  0  0  0  0  0  0  0  0
    0.2854   -1.7224    2.7303 C   0  0  0  0  0  0  0  0  0  0  0  0
    1.2283   -1.4426    2.2736 H   0  0  0  0  0  0  0  0  0  0  0  0
    0.1239   -2.6506    3.7402 N   0  0  0  0  0  0  0  0  0  0  0  0
    0.8869   -3.1765    4.1407 H   0  0  0  0  0  0  0  0  0  0  0  0
   -1.1949   -2.7536    4.1288 C   0  0  0  0  0  0  0  0  0  0  0  0
   -1.8485   -3.5151    5.1082 C   0  0  0  0  0  0  0  0  0  0  0  0
   -1.2908   -4.1948    5.7357 H   0  0  0  0  0  0  0  0  0  0  0  0
   -3.2393   -3.3828    5.2606 C   0  0  0  0  0  0  0  0  0  0  0  0
   -3.7606   -3.9629    6.0101 H   0  0  0  0  0  0  0  0  0  0  0  0
   -3.9543   -2.4990    4.4317 C   0  0  0  0  0  0  0  0  0  0  0  0
   -5.0254   -2.4065    4.5468 H   0  0  0  0  0  0  0  0  0  0  0  0
   -3.2872   -1.7400    3.4492 C   0  0  0  0  0  0  0  0  0  0  0  0
   -3.8504   -1.0748    2.8103 H   0  0  0  0  0  0  0  0  0  0  0  0
   -1.8902   -1.8456    3.2753 C   0  0  0  0  0  0  0  0  0  0  0  0
   -0.1124   -1.3338   -0.5981 C   0  0  0  0  0  0  0  0  0  0  0  0
    0.1631   -1.2723   -1.7955 O   0  0  0  0  0  0  0  0  0  0  0  0
    0.6386   -2.0118    0.2802 N   0  0  0  0  0  0  0  0  0  0  0  0
    0.3140   -2.0583    1.2355 H   0  0  0  0  0  0  0  0  0  0  0  0
    1.8537   -2.7423   -0.0694 C   0  0  0  0  0  0  0  0  0  0  0  0
    2.5289   -2.0890   -0.6253 H   0  0  0  0  0  0  0  0  0  0  0  0
    2.3537   -3.0938    0.8340 H   0  0  0  0  0  0  0  0  0  0  0  0
    1.5984   -3.5975   -0.6973 H   0  0  0  0  0  0  0  0  0  0  0  0
  5  6  2  0  0  0  0
  5  7  1  0  0  0  0
  2  3  1  0  0  0  0
  2  4  1  0  0  0  0
  2  5  1  0  0  0  0
  1  2  1  0  0  0  0
 29 30  2  0  0  0  0
 29 31  1  0  0  0  0
 26 27  1  0  0  0  0
 26 28  2  0  0  0  0
 24 25  1  0  0  0  0
 24 26  1  0  0  0  0
 22 23  1  0  0  0  0
 22 24  2  0  0  0  0
 20 21  1  0  0  0  0
 20 22  1  0  0  0  0
 19 20  2  0  0  0  0
 19 28  1  0  0  0  0
 17 18  1  0  0  0  0
 17 19  1  0  0  0  0
 15 16  1  0  0  0  0
 15 17  1  0  0  0  0
 14 15  2  0  0  0  0
 14 28  1  0  0  0  0
 11 12  1  0  0  0  0
 11 13  1  0  0  0  0
 11 14  1  0  0  0  0
  9 10  1  0  0  0  0
  9 11  1  0  0  0  0
  9 29  1  0  0  0  0
  7  8  1  0  0  0  0
  7  9  1  0  0  0  0
 33 34  1  0  0  0  0
 33 35  1  0  0  0  0
 33 36  1  0  0  0  0
 31 32  1  0  0  0  0
 31 33  1  0  0  0  0
M  END
$$$$
default_name
  -OEChem-12212115393D

 36 37  0     1  0  0  0  0  0999 V2000
   -4.0843   -4.0736    1.2944 H   0  0  0  0  0  0  0  0  0  0  0  0
   -4.0342   -3.2816    0.5484 C   0  0  0  0  0  0  0  0  0  0  0  0
   -4.8842   -2.6126    0.6694 H   0  0  0  0  0  0  0  0  0  0  0  0
   -4.0433   -3.7186   -0.4486 H   0  0  0  0  0  0  0  0  0  0  0  0
   -2.7532   -2.5046    0.7444 C   0  0  0  0  0  0  0  0  0  0  0  0
   -1.9803   -2.8096    1.6434 O   0  0  0  0  0  0  0  0  0  0  0  0
   -2.5332   -1.4966   -0.0966 N   0  0  0  0  0  0  0  0  0  0  0  0
   -3.2312   -1.2816   -0.7936 H   0  0  0  0  0  0  0  0  0  0  0  0
   -1.3593   -0.6196   -0.0536 C   0  0  1  0  0  0  0  0  0  0  0  0
   -1.5461    0.2456   -0.6908 H   0  0  0  0  0  0  0  0  0  0  0  0
   -1.1458   -0.1194    1.3837 C   0  0  0  0  0  0  0  0  0  0  0  0
   -0.2847    0.5512    1.3984 H   0  0  0  0  0  0  0  0  0  0  0  0
   -2.0207    0.4601    1.6833 H   0  0  0  0  0  0  0  0  0  0  0  0
   -0.9148   -1.1926    2.4039 C   0  0  0  0  0  0  0  0  0  0  0  0
    0.2854   -1.7224    2.7303 C   0  0  0  0  0  0  0  0  0  0  0  0
    1.2283   -1.4426    2.2736 H   0  0  0  0  0  0  0  0  0  0  0  0
    0.1239   -2.6506    3.7402 N   0  0  0  0  0  0  0  0  0  0  0  0
    0.8869   -3.1765    4.1407 H   0  0  0  0  0  0  0  0  0  0  0  0
   -1.1949   -2.7536    4.1288 C   0  0  0  0  0  0  0  0  0  0  0  0
   -1.8485   -3.5151    5.1082 C   0  0  0  0  0  0  0  0  0  0  0  0
   -1.2908   -4.1948    5.7357 H   0  0  0  0  0  0  0  0  0  0  0  0
   -3.2393   -3.3828    5.2606 C   0  0  0  0  0  0  0  0  0  0  0  0
   -3.7606   -3.9629    6.0101 H   0  0  0  0  0  0  0  0  0  0  0  0
   -3.9543   -2.4990    4.4317 C   0  0  0  0  0  0  0  0  0  0  0  0
   -5.0254   -2.4065    4.5468 H   0  0  0  0  0  0  0  0  0  0  0  0
   -3.2872   -1.7400    3.4492 C   0  0  0  0  0  0  0  0  0  0  0  0
   -3.8504   -1.0748    2.8103 H   0  0  0  0  0  0  0  0  0  0  0  0
   -1.8902   -1.8456    3.2753 C   0  0  0  0  0  0  0  0  0  0  0  0
   -0.1124   -1.3338   -0.5981 C   0  0  0  0  0  0  0  0  0  0  0  0
    0.3205   -1.0580   -1.7162 O   0  0  0  0  0  0  0  0  0  0  0  0
    0.4622   -2.2517    0.1908 N   0  0  0  0  0  0  0  0  0  0  0  0
    0.0133   -2.4584    1.0718 H   0  0  0  0  0  0  0  0  0  0  0  0
    1.6510   -3.0183   -0.1716 C   0  0  0  0  0  0  0  0  0  0  0  0
    2.4422   -2.3394   -0.4955 H   0  0  0  0  0  0  0  0  0  0  0  0
    1.9999   -3.5973    0.6844 H   0  0  0  0  0  0  0  0  0  0  0  0
    1.4129   -3.6957   -0.9934 H   0  0  0  0  0  0  0  0  0  0  0  0
  5  6  2  0  0  0  0
  5  7  1  0  0  0  0
  2  3  1  0  0  0  0
  2  4  1  0  0  0  0
  2  5  1  0  0  0  0
  1  2  1  0  0  0  0
 29 30  2  0  0  0  0
 29 31  1  0  0  0  0
 26 27  1  0  0  0  0
 26 28  2  0  0  0  0
 24 25  1  0  0  0  0
 24 26  1  0  0  0  0
 22 23  1  0  0  0  0
 22 24  2  0  0  0  0
 20 21  1  0  0  0  0
 20 22  1  0  0  0  0
 19 20  2  0  0  0  0
 19 28  1  0  0  0  0
 17 18  1  0  0  0  0
 17 19  1  0  0  0  0
 15 16  1  0  0  0  0
 15 17  1  0  0  0  0
 14 15  2  0  0  0  0
 14 28  1  0  0  0  0
 11 12  1  0  0  0  0
 11 13  1  0  0  0  0
 11 14  1  0  0  0  0
  9 10  1  0  0  0  0
  9 11  1  0  0  0  0
  9 29  1  0  0  0  0
  7  8  1  0  0  0  0
  7  9  1  0  0  0  0
 33 34  1  0  0  0  0
 33 35  1  0  0  0  0
 33 36  1  0  0  0  0
 31 32  1  0  0  0  0
 31 33  1  0  0  0  0
M  END
$$$$
default_name
  -OEChem-12212115393D

 36 37  0     1  0  0  0  0  0999 V2000
   -4.0843   -4.0736    1.2944 H   0  0  0  0  0  0  0  0  0  0  0  0
   -4.0342   -3.2816    0.5484 C   0  0  0  0  0  0  0  0  0  0  0  0
   -4.8842   -2.6126    0.6694 H   0  0  0  0  0  0  0  0  0  0  0  0
   -4.0433   -3.7186   -0.4486 H   0  0  0  0  0  0  0  0  0  0  0  0
   -2.7532   -2.5046    0.7444 C   0  0  0  0  0  0  0  0  0  0  0  0
   -1.9803   -2.8096    1.6434 O   0  0  0  0  0  0  0  0  0  0  0  0
   -2.5332   -1.4966   -0.0966 N   0  0  0  0  0  0  0  0  0  0  0  0
   -3.2312   -1.2816   -0.7936 H   0  0  0  0  0  0  0  0  0  0  0  0
   -1.3593   -0.6196   -0.0536 C   0  0  1  0  0  0  0  0  0  0  0  0
   -1.5461    0.2456   -0.6908 H   0  0  0  0  0  0  0  0  0  0  0  0
   -1.1458   -0.1194    1.3837 C   0  0  0  0  0  0  0  0  0  0  0  0
   -0.2847    0.5512    1.3984 H   0  0  0  0  0  0  0  0  0  0  0  0
   -2.0207    0.4601    1.6833 H   0  0  0  0  0  0  0  0  0  0  0  0
   -0.9148   -1.1926    2.4039 C   0  0  0  0  0  0  0  0  0  0  0  0
    0.2854   -1.7224    2.7303 C   0  0  0  0  0  0  0  0  0  0  0  0
    1.2283   -1.4426    2.2736 H   0  0  0  0  0  0  0  0  0  0  0  0
    0.1239   -2.6506    3.7402 N   0  0  0  0  0  0  0  0  0  0  0  0
    0.8869   -3.1765    4.1407 H   0  0  0  0  0  0  0  0  0  0  0  0
   -1.1949   -2.7536    4.1288 C   0  0  0  0  0  0  0  0  0  0  0  0
   -1.8485   -3.5151    5.1082 C   0  0  0  0  0  0  0  0  0  0  0  0
   -1.2908   -4.1948    5.7357 H   0  0  0  0  0  0  0  0  0  0  0  0
   -3.2393   -3.3828    5.2606 C   0  0  0  0  0  0  0  0  0  0  0  0
   -3.7606   -3.9629    6.0101 H   0  0  0  0  0  0  0  0  0  0  0  0
   -3.9543   -2.4990    4.4317 C   0  0  0  0  0  0  0  0  0  0  0  0
   -5.0254   -2.4065    4.5468 H   0  0  0  0  0  0  0  0  0  0  0  0
   -3.2872   -1.7400    3.4492 C   0  0  0  0  0  0  0  0  0  0  0  0
   -3.8504   -1.0748    2.8103 H   0  0  0  0  0  0  0  0  0  0  0  0
   -1.8902   -1.8456    3.2753 C   0  0  0  0  0  0  0  0  0  0  0  0
   -0.1124   -1.3338   -0.5981 C   0  0  0  0  0  0  0  0  0  0  0  0
    0.4827   -0.8821   -1.5755 O   0  0  0  0  0  0  0  0  0  0  0  0
    0.2805   -2.4485    0.0329 N   0  0  0  0  0  0  0  0  0  0  0  0
   -0.2940   -2.7828    0.7935 H   0  0  0  0  0  0  0  0  0  0  0  0
    1.4422   -3.2449   -0.3527 C   0  0  0  0  0  0  0  0  0  0  0  0
    2.3198   -2.6006   -0.4331 H   0  0  0  0  0  0  0  0  0  0  0  0
    1.6300   -4.0199    0.3915 H   0  0  0  0  0  0  0  0  0  0  0  0
    1.2603   -3.7113   -1.3224 H   0  0  0  0  0  0  0  0  0  0  0  0
  5  6  2  0  0  0  0
  5  7  1  0  0  0  0
  2  3  1  0  0  0  0
  2  4  1  0  0  0  0
  2  5  1  0  0  0  0
  1  2  1  0  0  0  0
 29 30  2  0  0  0  0
 29 31  1  0  0  0  0
 26 27  1  0  0  0  0
 26 28  2  0  0  0  0
 24 25  1  0  0  0  0
 24 26  1  0  0  0  0
 22 23  1  0  0  0  0
 22 24  2  0  0  0  0
 20 21  1  0  0  0  0
 20 22  1  0  0  0  0
 19 20  2  0  0  0  0
 19 28  1  0  0  0  0
 17 18  1  0  0  0  0
 17 19  1  0  0  0  0
 15 16  1  0  0  0  0
 15 17  1  0  0  0  0
 14 15  2  0  0  0  0
 14 28  1  0  0  0  0
 11 12  1  0  0  0  0
 11 13  1  0  0  0  0
 11 14  1  0  0  0  0
  9 10  1  0  0  0  0
  9 11  1  0  0  0  0
  9 29  1  0  0  0  0
  7  8  1  0  0  0  0
  7  9  1  0  0  0  0
 33 34  1  0  0  0  0
 33 35  1  0  0  0  0
 33 36  1  0  0  0  0
 31 32  1  0  0  0  0
 31 33  1  0  0  0  0
M  END
$$$$
default_name
  -OEChem-12212115393D

 36 37  0     1  0  0  0  0  0999 V2000
   -4.0843   -4.0736    1.2944 H   0  0  0  0  0  0  0  0  0  0  0  0
   -4.0342   -3.2816    0.5484 C   0  0  0  0  0  0  0  0  0  0  0  0
   -4.8842   -2.6126    0.6694 H   0  0  0  0  0  0  0  0  0  0  0  0
   -4.0433   -3.7186   -0.4486 H   0  0  0  0  0  0  0  0  0  0  0  0
   -2.7532   -2.5046    0.7444 C   0  0  0  0  0  0  0  0  0  0  0  0
   -1.9803   -2.8096    1.6434 O   0  0  0  0  0  0  0  0  0  0  0  0
   -2.5332   -1.4966   -0.0966 N   0  0  0  0  0  0  0  0  0  0  0  0
   -3.2312   -1.2816   -0.7936 H   0  0  0  0  0  0  0  0  0  0  0  0
   -1.3593   -0.6196   -0.0536 C   0  0  1  0  0  0  0  0  0  0  0  0
   -1.5461    0.2456   -0.6908 H   0  0  0  0  0  0  0  0  0  0  0  0
   -1.1458   -0.1194    1.3837 C   0  0  0  0  0  0  0  0  0  0  0  0
   -0.2847    0.5512    1.3984 H   0  0  0  0  0  0  0  0  0  0  0  0
   -2.0207    0.4601    1.6833 H   0  0  0  0  0  0  0  0  0  0  0  0
   -0.9148   -1.1926    2.4039 C   0  0  0  0  0  0  0  0  0  0  0  0
    0.2854   -1.7224    2.7303 C   0  0  0  0  0  0  0  0  0  0  0  0
    1.2283   -1.4426    2.2736 H   0  0  0  0  0  0  0  0  0  0  0  0
    0.1239   -2.6506    3.7402 N   0  0  0  0  0  0  0  0  0  0  0  0
    0.8869   -3.1765    4.1407 H   0  0  0  0  0  0  0  0  0  0  0  0
   -1.1949   -2.7536    4.1288 C   0  0  0  0  0  0  0  0  0  0  0  0
   -1.8485   -3.5151    5.1082 C   0  0  0  0  0  0  0  0  0  0  0  0
   -1.2908   -4.1948    5.7357 H   0  0  0  0  0  0  0  0  0  0  0  0
   -3.2393   -3.3828    5.2606 C   0  0  0  0  0  0  0  0  0  0  0  0
   -3.7606   -3.9629    6.0101 H   0  0  0  0  0  0  0  0  0  0  0  0
   -3.9543   -2.4990    4.4317 C   0  0  0  0  0  0  0  0  0  0  0  0
   -5.0254   -2.4065    4.5468 H   0  0  0  0  0  0  0  0  0  0  0  0
   -3.2872   -1.7400    3.4492 C   0  0  0  0  0  0  0  0  0  0  0  0
   -3.8504   -1.0748    2.8103 H   0  0  0  0  0  0  0  0  0  0  0  0
   -1.8902   -1.8456    3.2753 C   0  0  0  0  0  0  0  0  0  0  0  0
   -0.1124   -1.3338   -0.5981 C   0  0  0  0  0  0  0  0  0  0  0  0
    0.6385   -0.7566   -1.3833 O   0  0  0  0  0  0  0  0  0  0  0  0
    0.1059   -2.5888   -0.1829 N   0  0  0  0  0  0  0  0  0  0  0  0
   -0.5872   -3.0095    0.4195 H   0  0  0  0  0  0  0  0  0  0  0  0
    1.2415   -3.4065   -0.6003 C   0  0  0  0  0  0  0  0  0  0  0  0
    2.1701   -2.8548   -0.4424 H   0  0  0  0  0  0  0  0  0  0  0  0
    1.2692   -4.3326   -0.0247 H   0  0  0  0  0  0  0  0  0  0  0  0
    1.1511   -3.6433   -1.6617 H   0  0  0  0  0  0  0  0  0  0  0  0
  5  6  2  0  0  0  0
  5  7  1  0  0  0  0
  2  3  1  0  0  0  0
  2  4  1  0  0  0  0
  2  5  1  0  0  0  0
  1  2  1  0  0  0  0
 29 30  2  0  0  0  0
 29 31  1  0  0  0  0
 26 27  1  0  0  0  0
 26 28  2  0  0  0  0
 24 25  1  0  0  0  0
 24 26  1  0  0  0  0
 22 23  1  0  0  0  0
 22 24  2  0  0  0  0
 20 21  1  0  0  0  0
 20 22  1  0  0  0  0
 19 20  2  0  0  0  0
 19 28  1  0  0  0  0
 17 18  1  0  0  0  0
 17 19  1  0  0  0  0
 15 16  1  0  0  0  0
 15 17  1  0  0  0  0
 14 15  2  0  0  0  0
 14 28  1  0  0  0  0
 11 12  1  0  0  0  0
 11 13  1  0  0  0  0
 11 14  1  0  0  0  0
  9 10  1  0  0  0  0
  9 11  1  0  0  0  0
  9 29  1  0  0  0  0
  7  8  1  0  0  0  0
  7  9  1  0  0  0  0
 33 34  1  0  0  0  0
 33 35  1  0  0  0  0
 33 36  1  0  0  0  0
 31 32  1  0  0  0  0
 31 33  1  0  0  0  0
M  END
$$$$
default_name
  -OEChem-12212115393D

 36 37  0     1  0  0  0  0  0999 V2000
   -4.0843   -4.0736    1.2944 H   0  0  0  0  0  0  0  0  0  0  0  0
   -4.0342   -3.2816    0.5484 C   0  0  0  0  0  0  0  0  0  0  0  0
   -4.8842   -2.6126    0.6694 H   0  0  0  0  0  0  0  0  0  0  0  0
   -4.0433   -3.7186   -0.4486 H   0  0  0  0  0  0  0  0  0  0  0  0
   -2.7532   -2.5046    0.7444 C   0  0  0  0  0  0  0  0  0  0  0  0
   -1.9803   -2.8096    1.6434 O   0  0  0  0  0  0  0  0  0  0  0  0
   -2.5332   -1.4966   -0.0966 N   0  0  0  0  0  0  0  0  0  0  0  0
   -3.2312   -1.2816   -0.7936 H   0  0  0  0  0  0  0  0  0  0  0  0
   -1.3593   -0.6196   -0.0536 C   0  0  1  0  0  0  0  0  0  0  0  0
   -1.5461    0.2456   -0.6908 H   0  0  0  0  0  0  0  0  0  0  0  0
   -1.1458   -0.1194    1.3837 C   0  0  0  0  0  0  0  0  0  0  0  0
   -0.2847    0.5512    1.3984 H   0  0  0  0  0  0  0  0  0  0  0  0
   -2.0207    0.4601    1.6833 H   0  0  0  0  0  0  0  0  0  0  0  0
   -0.9148   -1.1926    2.4039 C   0  0  0  0  0  0  0  0  0  0  0  0
    0.2854   -1.7224    2.7303 C   0  0  0  0  0  0  0  0  0  0  0  0
    1.2283   -1.4426    2.2736 H   0  0  0  0  0  0  0  0  0  0  0  0
    0.1239   -2.6506    3.7402 N   0  0  0  0  0  0  0  0  0  0  0  0
    0.8869   -3.1765    4.1407 H   0  0  0  0  0  0  0  0  0  0  0  0
   -1.1949   -2.7536    4.1288 C   0  0  0  0  0  0  0  0  0  0  0  0
   -1.8485   -3.5151    5.1082 C   0  0  0  0  0  0  0  0  0  0  0  0
   -1.2908   -4.1948    5.7357 H   0  0  0  0  0  0  0  0  0  0  0  0
   -3.2393   -3.3828    5.2606 C   0  0  0  0  0  0  0  0  0  0  0  0
   -3.7606   -3.9629    6.0101 H   0  0  0  0  0  0  0  0  0  0  0  0
   -3.9543   -2.4990    4.4317 C   0  0  0  0  0  0  0  0  0  0  0  0
   -5.0254   -2.4065    4.5468 H   0  0  0  0  0  0  0  0  0  0  0  0
   -3.2872   -1.7400    3.4492 C   0  0  0  0  0  0  0  0  0  0  0  0
   -3.8504   -1.0748    2.8103 H   0  0  0  0  0  0  0  0  0  0  0  0
   -1.8902   -1.8456    3.2753 C   0  0  0  0  0  0  0  0  0  0  0  0
   -0.1124   -1.3338   -0.5981 C   0  0  0  0  0  0  0  0  0  0  0  0
    0.7775   -0.6901   -1.1524 O   0  0  0  0  0  0  0  0  0  0  0  0
   -0.0496   -2.6630   -0.4417 N   0  0  0  0  0  0  0  0  0  0  0  0
   -0.8462   -3.1231   -0.0246 H   0  0  0  0  0  0  0  0  0  0  0  0
    1.0625   -3.4923   -0.8976 C   0  0  0  0  0  0  0  0  0  0  0  0
    2.0034   -3.0847   -0.5228 H   0  0  0  0  0  0  0  0  0  0  0  0
    0.9420   -4.5142   -0.5357 H   0  0  0  0  0  0  0  0  0  0  0  0
    1.0926   -3.4963   -1.9884 H   0  0  0  0  0  0  0  0  0  0  0  0
  5  6  2  0  0  0  0
  5  7  1  0  0  0  0
  2  3  1  0  0  0  0
  2  4  1  0  0  0  0
  2  5  1  0  0  0  0
  1  2  1  0  0  0  0
 29 30  2  0  0  0  0
 29 31  1  0  0  0  0
 26 27  1  0  0  0  0
 26 28  2  0  0  0  0
 24 25  1  0  0  0  0
 24 26  1  0  0  0  0
 22 23  1  0  0  0  0
 22 24  2  0  0  0  0
 20 21  1  0  0  0  0
 20 22  1  0  0  0  0
 19 20  2  0  0  0  0
 19 28  1  0  0  0  0
 17 18  1  0  0  0  0
 17 19  1  0  0  0  0
 15 16  1  0  0  0  0
 15 17  1  0  0  0  0
 14 15  2  0  0  0  0
 14 28  1  0  0  0  0
 11 12  1  0  0  0  0
 11 13  1  0  0  0  0
 11 14  1  0  0  0  0
  9 10  1  0  0  0  0
  9 11  1  0  0  0  0
  9 29  1  0  0  0  0
  7  8  1  0  0  0  0
  7  9  1  0  0  0  0
 33 34  1  0  0  0  0
 33 35  1  0  0  0  0
 33 36  1  0  0  0  0
 31 32  1  0  0  0  0
 31 33  1  0  0  0  0
M  END
$$$$
default_name
  -OEChem-12212115393D

 36 37  0     1  0  0  0  0  0999 V2000
   -4.0843   -4.0736    1.2944 H   0  0  0  0  0  0  0  0  0  0  0  0
   -4.0342   -3.2816    0.5484 C   0  0  0  0  0  0  0  0  0  0  0  0
   -4.8842   -2.6126    0.6694 H   0  0  0  0  0  0  0  0  0  0  0  0
   -4.0433   -3.7186   -0.4486 H   0  0  0  0  0  0  0  0  0  0  0  0
   -2.7532   -2.5046    0.7444 C   0  0  0  0  0  0  0  0  0  0  0  0
   -1.9803   -2.8096    1.6434 O   0  0  0  0  0  0  0  0  0  0  0  0
   -2.5332   -1.4966   -0.0966 N   0  0  0  0  0  0  0  0  0  0  0  0
   -3.2312   -1.2816   -0.7936 H   0  0  0  0  0  0  0  0  0  0  0  0
   -1.3593   -0.6196   -0.0536 C   0  0  1  0  0  0  0  0  0  0  0  0
   -1.5461    0.2456   -0.6908 H   0  0  0  0  0  0  0  0  0  0  0  0
   -1.1458   -0.1194    1.3837 C   0  0  0  0  0  0  0  0  0  0  0  0
   -0.2847    0.5512    1.3984 H   0  0  0  0  0  0  0  0  0  0  0  0
   -2.0207    0.4601    1.6833 H   0  0  0  0  0  0  0  0  0  0  0  0
   -0.9148   -1.1926    2.4039 C   0  0  0  0  0  0  0  0  0  0  0  0
    0.2854   -1.7224    2.7303 C   0  0  0  0  0  0  0  0  0  0  0  0
    1.2283   -1.4426    2.2736 H   0  0  0  0  0  0  0  0  0  0  0  0
    0.1239   -2.6506    3.7402 N   0  0  0  0  0  0  0  0  0  0  0  0
    0.8869   -3.1765    4.1407 H   0  0  0  0  0  0  0  0  0  0  0  0
   -1.1949   -2.7536    4.1288 C   0  0  0  0  0  0  0  0  0  0  0  0
   -1.8485   -3.5151    5.1082 C   0  0  0  0  0  0  0  0  0  0  0  0
   -1.2908   -4.1948    5.7357 H   0  0  0  0  0  0  0  0  0  0  0  0
   -3.2393   -3.3828    5.2606 C   0  0  0  0  0  0  0  0  0  0  0  0
   -3.7606   -3.9629    6.0101 H   0  0  0  0  0  0  0  0  0  0  0  0
   -3.9543   -2.4990    4.4317 C   0  0  0  0  0  0  0  0  0  0  0  0
   -5.0254   -2.4065    4.5468 H   0  0  0  0  0  0  0  0  0  0  0  0
   -3.2872   -1.7400    3.4492 C   0  0  0  0  0  0  0  0  0  0  0  0
   -3.8504   -1.0748    2.8103 H   0  0  0  0  0  0  0  0  0  0  0  0
   -1.8902   -1.8456    3.2753 C   0  0  0  0  0  0  0  0  0  0  0  0
   -0.1124   -1.3338   -0.5981 C   0  0  0  0  0  0  0  0  0  0  0  0
    0.8900   -0.6870   -0.8988 O   0  0  0  0  0  0  0  0  0  0  0  0
   -0.1755   -2.6660   -0.7261 N   0  0  0  0  0  0  0  0  0  0  0  0
   -1.0534   -3.1158   -0.5086 H   0  0  0  0  0  0  0  0  0  0  0  0
    0.9176   -3.4962   -1.2242 C   0  0  0  0  0  0  0  0  0  0  0  0
    1.8309   -3.2745   -0.6688 H   0  0  0  0  0  0  0  0  0  0  0  0
    0.6708   -4.5522   -1.1068 H   0  0  0  0  0  0  0  0  0  0  0  0
    1.0890   -3.2803   -2.2801 H   0  0  0  0  0  0  0  0  0  0  0  0
  5  6  2  0  0  0  0
  5  7  1  0  0  0  0
  2  3  1  0  0  0  0
  2  4  1  0  0  0  0
  2  5  1  0  0  0  0
  1  2  1  0  0  0  0
 29 30  2  0  0  0  0
 29 31  1  0  0  0  0
 26 27  1  0  0  0  0
 26 28  2  0  0  0  0
 24 25  1  0  0  0  0
 24 26  1  0  0  0  0
 22 23  1  0  0  0  0
 22 24  2  0  0  0  0
 20 21  1  0  0  0  0
 20 22  1  0  0  0  0
 19 20  2  0  0  0  0
 19 28  1  0  0  0  0
 17 18  1  0  0  0  0
 17 19  1  0  0  0  0
 15 16  1  0  0  0  0
 15 17  1  0  0  0  0
 14 15  2  0  0  0  0
 14 28  1  0  0  0  0
 11 12  1  0  0  0  0
 11 13  1  0  0  0  0
 11 14  1  0  0  0  0
  9 10  1  0  0  0  0
  9 11  1  0  0  0  0
  9 29  1  0  0  0  0
  7  8  1  0  0  0  0
  7  9  1  0  0  0  0
 33 34  1  0  0  0  0
 33 35  1  0  0  0  0
 33 36  1  0  0  0  0
 31 32  1  0  0  0  0
 31 33  1  0  0  0  0
M  END
$$$$
default_name
  -OEChem-12212115393D

 36 37  0     1  0  0  0  0  0999 V2000
   -4.0843   -4.0736    1.2944 H   0  0  0  0  0  0  0  0  0  0  0  0
   -4.0342   -3.2816    0.5484 C   0  0  0  0  0  0  0  0  0  0  0  0
   -4.8842   -2.6126    0.6694 H   0  0  0  0  0  0  0  0  0  0  0  0
   -4.0433   -3.7186   -0.4486 H   0  0  0  0  0  0  0  0  0  0  0  0
   -2.7532   -2.5046    0.7444 C   0  0  0  0  0  0  0  0  0  0  0  0
   -1.9803   -2.8096    1.6434 O   0  0  0  0  0  0  0  0  0  0  0  0
   -2.5332   -1.4966   -0.0966 N   0  0  0  0  0  0  0  0  0  0  0  0
   -3.2312   -1.2816   -0.7936 H   0  0  0  0  0  0  0  0  0  0  0  0
   -1.3593   -0.6196   -0.0536 C   0  0  1  0  0  0  0  0  0  0  0  0
   -1.5461    0.2456   -0.6908 H   0  0  0  0  0  0  0  0  0  0  0  0
   -1.1458   -0.1194    1.3837 C   0  0  0  0  0  0  0  0  0  0  0  0
   -0.2847    0.5512    1.3984 H   0  0  0  0  0  0  0  0  0  0  0  0
   -2.0207    0.4601    1.6833 H   0  0  0  0  0  0  0  0  0  0  0  0
   -0.9148   -1.1926    2.4039 C   0  0  0  0  0  0  0  0  0  0  0  0
    0.2854   -1.7224    2.7303 C   0  0  0  0  0  0  0  0  0  0  0  0
    1.2283   -1.4426    2.2736 H   0  0  0  0  0  0  0  0  0  0  0  0
    0.1239   -2.6506    3.7402 N   0  0  0  0  0  0  0  0  0  0  0  0
    0.8869   -3.1765    4.1407 H   0  0  0  0  0  0  0  0  0  0  0  0
   -1.1949   -2.7536    4.1288 C   0  0  0  0  0  0  0  0  0  0  0  0
   -1.8485   -3.5151    5.1082 C   0  0  0  0  0  0  0  0  0  0  0  0
   -1.2908   -4.1948    5.7357 H   0  0  0  0  0  0  0  0  0  0  0  0
   -3.2393   -3.3828    5.2606 C   0  0  0  0  0  0  0  0  0  0  0  0
   -3.7606   -3.9629    6.0101 H   0  0  0  0  0  0  0  0  0  0  0  0
   -3.9543   -2.4990    4.4317 C   0  0  0  0  0  0  0  0  0  0  0  0
   -5.0254   -2.4065    4.5468 H   0  0  0  0  0  0  0  0  0  0  0  0
   -3.2872   -1.7400    3.4492 C   0  0  0  0  0  0  0  0  0  0  0  0
   -3.8504   -1.0748    2.8103 H   0  0  0  0  0  0  0  0  0  0  0  0
   -1.8902   -1.8456    3.2753 C   0  0  0  0  0  0  0  0  0  0  0  0
   -0.1124   -1.3338   -0.5981 C   0  0  0  0  0  0  0  0  0  0  0  0
    0.9684   -0.7476   -0.6396 O   0  0  0  0  0  0  0  0  0  0  0  0
   -0.2632   -2.5977   -1.0165 N   0  0  0  0  0  0  0  0  0  0  0  0
   -1.1946   -2.9881   -0.9995 H   0  0  0  0  0  0  0  0  0  0  0  0
    0.8165   -3.4182   -1.5580 C   0  0  0  0  0  0  0  0  0  0  0  0
    1.6644   -3.4114   -0.8704 H   0  0  0  0  0  0  0  0  0  0  0  0
    0.4741   -4.4441   -1.6991 H   0  0  0  0  0  0  0  0  0  0  0  0
    1.1403   -3.0101   -2.5170 H   0  0  0  0  0  0  0  0  0  0  0  0
  5  6  2  0  0  0  0
  5  7  1  0  0  0  0
  2  3  1  0  0  0  0
  2  4  1  0  0  0  0
  2  5  1  0  0  0  0
  1  2  1  0  0  0  0
 29 30  2  0  0  0  0
 29 31  1  0  0  0  0
 26 27  1  0  0  0  0
 26 28  2  0  0  0  0
 24 25  1  0  0  0  0
 24 26  1  0  0  0  0
 22 23  1  0  0  0  0
 22 24  2  0  0  0  0
 20 21  1  0  0  0  0
 20 22  1  0  0  0  0
 19 20  2  0  0  0  0
 19 28  1  0  0  0  0
 17 18  1  0  0  0  0
 17 19  1  0  0  0  0
 15 16  1  0  0  0  0
 15 17  1  0  0  0  0
 14 15  2  0  0  0  0
 14 28  1  0  0  0  0
 11 12  1  0  0  0  0
 11 13  1  0  0  0  0
 11 14  1  0  0  0  0
  9 10  1  0  0  0  0
  9 11  1  0  0  0  0
  9 29  1  0  0  0  0
  7  8  1  0  0  0  0
  7  9  1  0  0  0  0
 33 34  1  0  0  0  0
 33 35  1  0  0  0  0
 33 36  1  0  0  0  0
 31 32  1  0  0  0  0
 31 33  1  0  0  0  0
M  END
$$$$
default_name
  -OEChem-12212115393D

 36 37  0     1  0  0  0  0  0999 V2000
   -4.0843   -4.0736    1.2944 H   0  0  0  0  0  0  0  0  0  0  0  0
   -4.0342   -3.2816    0.5484 C   0  0  0  0  0  0  0  0  0  0  0  0
   -4.8842   -2.6126    0.6694 H   0  0  0  0  0  0  0  0  0  0  0  0
   -4.0433   -3.7186   -0.4486 H   0  0  0  0  0  0  0  0  0  0  0  0
   -2.7532   -2.5046    0.7444 C   0  0  0  0  0  0  0  0  0  0  0  0
   -1.9803   -2.8096    1.6434 O   0  0  0  0  0  0  0  0  0  0  0  0
   -2.5332   -1.4966   -0.0966 N   0  0  0  0  0  0  0  0  0  0  0  0
   -3.2312   -1.2816   -0.7936 H   0  0  0  0  0  0  0  0  0  0  0  0
   -1.3593   -0.6196   -0.0536 C   0  0  1  0  0  0  0  0  0  0  0  0
   -1.5461    0.2456   -0.6908 H   0  0  0  0  0  0  0  0  0  0  0  0
   -1.1458   -0.1194    1.3837 C   0  0  0  0  0  0  0  0  0  0  0  0
   -0.2847    0.5512    1.3984 H   0  0  0  0  0  0  0  0  0  0  0  0
   -2.0207    0.4601    1.6833 H   0  0  0  0  0  0  0  0  0  0  0  0
   -0.9148   -1.1926    2.4039 C   0  0  0  0  0  0  0  0  0  0  0  0
    0.2854   -1.7224    2.7303 C   0  0  0  0  0  0  0  0  0  0  0  0
    1.2283   -1.4426    2.2736 H   0  0  0  0  0  0  0  0  0  0  0  0
    0.1239   -2.6506    3.7402 N   0  0  0  0  0  0  0  0  0  0  0  0
    0.8869   -3.1765    4.1407 H   0  0  0  0  0  0  0  0  0  0  0  0
   -1.1949   -2.7536    4.1288 C   0  0  0  0  0  0  0  0  0  0  0  0
   -1.8485   -3.5151    5.1082 C   0  0  0  0  0  0  0  0  0  0  0  0
   -1.2908   -4.1948    5.7357 H   0  0  0  0  0  0  0  0  0  0  0  0
   -3.2393   -3.3828    5.2606 C   0  0  0  0  0  0  0  0  0  0  0  0
   -3.7606   -3.9629    6.0101 H   0  0  0  0  0  0  0  0  0  0  0  0
   -3.9543   -2.4990    4.4317 C   0  0  0  0  0  0  0  0  0  0  0  0
   -5.0254   -2.4065    4.5468 H   0  0  0  0  0  0  0  0  0  0  0  0
   -3.2872   -1.7400    3.4492 C   0  0  0  0  0  0  0  0  0  0  0  0
   -3.8504   -1.0748    2.8103 H   0  0  0  0  0  0  0  0  0  0  0  0
   -1.8902   -1.8456    3.2753 C   0  0  0  0  0  0  0  0  0  0  0  0
   -0.1124   -1.3338   -0.5981 C   0  0  0  0  0  0  0  0  0  0  0  0
    1.0075   -0.8678   -0.3925 O   0  0  0  0  0  0  0  0  0  0  0  0
   -0.3067   -2.4626   -1.2932 N   0  0  0  0  0  0  0  0  0  0  0  0
   -1.2602   -2.7487   -1.4638 H   0  0  0  0  0  0  0  0  0  0  0  0
    0.7662   -3.2634   -1.8762 C   0  0  0  0  0  0  0  0  0  0  0  0
    1.5153   -3.4860   -1.1140 H   0  0  0  0  0  0  0  0  0  0  0  0
    0.3652   -4.1973   -2.2721 H   0  0  0  0  0  0  0  0  0  0  0  0
    1.2431   -2.7041   -2.6828 H   0  0  0  0  0  0  0  0  0  0  0  0
  5  6  2  0  0  0  0
  5  7  1  0  0  0  0
  2  3  1  0  0  0  0
  2  4  1  0  0  0  0
  2  5  1  0  0  0  0
  1  2  1  0  0  0  0
 29 30  2  0  0  0  0
 29 31  1  0  0  0  0
 26 27  1  0  0  0  0
 26 28  2  0  0  0  0
 24 25  1  0  0  0  0
 24 26  1  0  0  0  0
 22 23  1  0  0  0  0
 22 24  2  0  0  0  0
 20 21  1  0  0  0  0
 20 22  1  0  0  0  0
 19 20  2  0  0  0  0
 19 28  1  0  0  0  0
 17 18  1  0  0  0  0
 17 19  1  0  0  0  0
 15 16  1  0  0  0  0
 15 17  1  0  0  0  0
 14 15  2  0  0  0  0
 14 28  1  0  0  0  0
 11 12  1  0  0  0  0
 11 13  1  0  0  0  0
 11 14  1  0  0  0  0
  9 10  1  0  0  0  0
  9 11  1  0  0  0  0
  9 29  1  0  0  0  0
  7  8  1  0  0  0  0
  7  9  1  0  0  0  0
 33 34  1  0  0  0  0
 33 35  1  0  0  0  0
 33 36  1  0  0  0  0
 31 32  1  0  0  0  0
 31 33  1  0  0  0  0
M  END
$$$$
default_name
  -OEChem-12212115393D

 36 37  0     1  0  0  0  0  0999 V2000
   -4.0843   -4.0736    1.2944 H   0  0  0  0  0  0  0  0  0  0  0  0
   -4.0342   -3.2816    0.5484 C   0  0  0  0  0  0  0  0  0  0  0  0
   -4.8842   -2.6126    0.6694 H   0  0  0  0  0  0  0  0  0  0  0  0
   -4.0433   -3.7186   -0.4486 H   0  0  0  0  0  0  0  0  0  0  0  0
   -2.7532   -2.5046    0.7444 C   0  0  0  0  0  0  0  0  0  0  0  0
   -1.9803   -2.8096    1.6434 O   0  0  0  0  0  0  0  0  0  0  0  0
   -2.5332   -1.4966   -0.0966 N   0  0  0  0  0  0  0  0  0  0  0  0
   -3.2312   -1.2816   -0.7936 H   0  0  0  0  0  0  0  0  0  0  0  0
   -1.3593   -0.6196   -0.0536 C   0  0  1  0  0  0  0  0  0  0  0  0
   -1.5461    0.2456   -0.6908 H   0  0  0  0  0  0  0  0  0  0  0  0
   -1.1458   -0.1194    1.3837 C   0  0  0  0  0  0  0  0  0  0  0  0
   -0.2847    0.5512    1.3984 H   0  0  0  0  0  0  0  0  0  0  0  0
   -2.0207    0.4601    1.6833 H   0  0  0  0  0  0  0  0  0  0  0  0
   -0.9148   -1.1926    2.4039 C   0  0  0  0  0  0  0  0  0  0  0  0
    0.2854   -1.7224    2.7303 C   0  0  0  0  0  0  0  0  0  0  0  0
    1.2283   -1.4426    2.2736 H   0  0  0  0  0  0  0  0  0  0  0  0
    0.1239   -2.6506    3.7402 N   0  0  0  0  0  0  0  0  0  0  0  0
    0.8869   -3.1765    4.1407 H   0  0  0  0  0  0  0  0  0  0  0  0
   -1.1949   -2.7536    4.1288 C   0  0  0  0  0  0  0  0  0  0  0  0
   -1.8485   -3.5151    5.1082 C   0  0  0  0  0  0  0  0  0  0  0  0
   -1.2908   -4.1948    5.7357 H   0  0  0  0  0  0  0  0  0  0  0  0
   -3.2393   -3.3828    5.2606 C   0  0  0  0  0  0  0  0  0  0  0  0
   -3.7606   -3.9629    6.0101 H   0  0  0  0  0  0  0  0  0  0  0  0
   -3.9543   -2.4990    4.4317 C   0  0  0  0  0  0  0  0  0  0  0  0
   -5.0254   -2.4065    4.5468 H   0  0  0  0  0  0  0  0  0  0  0  0
   -3.2872   -1.7400    3.4492 C   0  0  0  0  0  0  0  0  0  0  0  0
   -3.8504   -1.0748    2.8103 H   0  0  0  0  0  0  0  0  0  0  0  0
   -1.8902   -1.8456    3.2753 C   0  0  0  0  0  0  0  0  0  0  0  0
   -0.1124   -1.3338   -0.5981 C   0  0  0  0  0  0  0  0  0  0  0  0
    1.0045   -1.0394   -0.1744 O   0  0  0  0  0  0  0  0  0  0  0  0
   -0.3030   -2.2701   -1.5373 N   0  0  0  0  0  0  0  0  0  0  0  0
   -1.2458   -2.4139   -1.8699 H   0  0  0  0  0  0  0  0  0  0  0  0
    0.7701   -3.0425   -2.1571 C   0  0  0  0  0  0  0  0  0  0  0  0
    1.3938   -3.4933   -1.3828 H   0  0  0  0  0  0  0  0  0  0  0  0
    0.3516   -3.8286   -2.7869 H   0  0  0  0  0  0  0  0  0  0  0  0
    1.3905   -2.3831   -2.7664 H   0  0  0  0  0  0  0  0  0  0  0  0
  5  6  2  0  0  0  0
  5  7  1  0  0  0  0
  2  3  1  0  0  0  0
  2  4  1  0  0  0  0
  2  5  1  0  0  0  0
  1  2  1  0  0  0  0
 29 30  2  0  0  0  0
 29 31  1  0  0  0  0
 26 27  1  0  0  0  0
 26 28  2  0  0  0  0
 24 25  1  0  0  0  0
 24 26  1  0  0  0  0
 22 23  1  0  0  0  0
 22 24  2  0  0  0  0
 20 21  1  0  0  0  0
 20 22  1  0  0  0  0
 19 20  2  0  0  0  0
 19 28  1  0  0  0  0
 17 18  1  0  0  0  0
 17 19  1  0  0  0  0
 15 16  1  0  0  0  0
 15 17  1  0  0  0  0
 14 15  2  0  0  0  0
 14 28  1  0  0  0  0
 11 12  1  0  0  0  0
 11 13  1  0  0  0  0
 11 14  1  0  0  0  0
  9 10  1  0  0  0  0
  9 11  1  0  0  0  0
  9 29  1  0  0  0  0
  7  8  1  0  0  0  0
  7  9  1  0  0  0  0
 33 34  1  0  0  0  0
 33 35  1  0  0  0  0
 33 36  1  0  0  0  0
 31 32  1  0  0  0  0
 31 33  1  0  0  0  0
M  END
$$$$
default_name
  -OEChem-12212115393D

 36 37  0     1  0  0  0  0  0999 V2000
   -4.0843   -4.0736    1.2944 H   0  0  0  0  0  0  0  0  0  0  0  0
   -4.0342   -3.2816    0.5484 C   0  0  0  0  0  0  0  0  0  0  0  0
   -4.8842   -2.6126    0.6694 H   0  0  0  0  0  0  0  0  0  0  0  0
   -4.0433   -3.7186   -0.4486 H   0  0  0  0  0  0  0  0  0  0  0  0
   -2.7532   -2.5046    0.7444 C   0  0  0  0  0  0  0  0  0  0  0  0
   -1.9803   -2.8096    1.6434 O   0  0  0  0  0  0  0  0  0  0  0  0
   -2.5332   -1.4966   -0.0966 N   0  0  0  0  0  0  0  0  0  0  0  0
   -3.2312   -1.2816   -0.7936 H   0  0  0  0  0  0  0  0  0  0  0  0
   -1.3593   -0.6196   -0.0536 C   0  0  1  0  0  0  0  0  0  0  0  0
   -1.5461    0.2456   -0.6908 H   0  0  0  0  0  0  0  0  0  0  0  0
   -1.1458   -0.1194    1.3837 C   0  0  0  0  0  0  0  0  0  0  0  0
   -0.2847    0.5512    1.3984 H   0  0  0  0  0  0  0  0  0  0  0  0
   -2.0207    0.4601    1.6833 H   0  0  0  0  0  0  0  0  0  0  0  0
   -0.9148   -1.1926    2.4039 C   0  0  0  0  0  0  0  0  0  0  0  0
    0.2854   -1.7224    2.7303 C   0  0  0  0  0  0  0  0  0  0  0  0
    1.2283   -1.4426    2.2736 H   0  0  0  0  0  0  0  0  0  0  0  0
    0.1239   -2.6506    3.7402 N   0  0  0  0  0  0  0  0  0  0  0  0
    0.8869   -3.1765    4.1407 H   0  0  0  0  0  0  0  0  0  0  0  0
   -1.1949   -2.7536    4.1288 C   0  0  0  0  0  0  0  0  0  0  0  0
   -1.8485   -3.5151    5.1082 C   0  0  0  0  0  0  0  0  0  0  0  0
   -1.2908   -4.1948    5.7357 H   0  0  0  0  0  0  0  0  0  0  0  0
   -3.2393   -3.3828    5.2606 C   0  0  0  0  0  0  0  0  0  0  0  0
   -3.7606   -3.9629    6.0101 H   0  0  0  0  0  0  0  0  0  0  0  0
   -3.9543   -2.4990    4.4317 C   0  0  0  0  0  0  0  0  0  0  0  0
   -5.0254   -2.4065    4.5468 H   0  0  0  0  0  0  0  0  0  0  0  0
   -3.2872   -1.7400    3.4492 C   0  0  0  0  0  0  0  0  0  0  0  0
   -3.8504   -1.0748    2.8103 H   0  0  0  0  0  0  0  0  0  0  0  0
   -1.8902   -1.8456    3.2753 C   0  0  0  0  0  0  0  0  0  0  0  0
   -0.1124   -1.3338   -0.5981 C   0  0  0  0  0  0  0  0  0  0  0  0
    0.9596   -1.2506   -0.0001 O   0  0  0  0  0  0  0  0  0  0  0  0
   -0.2524   -2.0332   -1.7323 N   0  0  0  0  0  0  0  0  0  0  0  0
   -1.1524   -2.0066   -2.1902 H   0  0  0  0  0  0  0  0  0  0  0  0
    0.8279   -2.7705   -2.3816 C   0  0  0  0  0  0  0  0  0  0  0  0
    1.3080   -3.4327   -1.6587 H   0  0  0  0  0  0  0  0  0  0  0  0
    0.4342   -3.3631   -3.2084 H   0  0  0  0  0  0  0  0  0  0  0  0
    1.5723   -2.0690   -2.7620 H   0  0  0  0  0  0  0  0  0  0  0  0
  5  6  2  0  0  0  0
  5  7  1  0  0  0  0
  2  3  1  0  0  0  0
  2  4  1  0  0  0  0
  2  5  1  0  0  0  0
  1  2  1  0  0  0  0
 29 30  2  0  0  0  0
 29 31  1  0  0  0  0
 26 27  1  0  0  0  0
 26 28  2  0  0  0  0
 24 25  1  0  0  0  0
 24 26  1  0  0  0  0
 22 23  1  0  0  0  0
 22 24  2  0  0  0  0
 20 21  1  0  0  0  0
 20 22  1  0  0  0  0
 19 20  2  0  0  0  0
 19 28  1  0  0  0  0
 17 18  1  0  0  0  0
 17 19  1  0  0  0  0
 15 16  1  0  0  0  0
 15 17  1  0  0  0  0
 14 15  2  0  0  0  0
 14 28  1  0  0  0  0
 11 12  1  0  0  0  0
 11 13  1  0  0  0  0
 11 14  1  0  0  0  0
  9 10  1  0  0  0  0
  9 11  1  0  0  0  0
  9 29  1  0  0  0  0
  7  8  1  0  0  0  0
  7  9  1  0  0  0  0
 33 34  1  0  0  0  0
 33 35  1  0  0  0  0
 33 36  1  0  0  0  0
 31 32  1  0  0  0  0
 31 33  1  0  0  0  0
M  END
$$$$
default_name
  -OEChem-12212115393D

 36 37  0     1  0  0  0  0  0999 V2000
   -4.0843   -4.0736    1.2944 H   0  0  0  0  0  0  0  0  0  0  0  0
   -4.0342   -3.2816    0.5484 C   0  0  0  0  0  0  0  0  0  0  0  0
   -4.8842   -2.6126    0.6694 H   0  0  0  0  0  0  0  0  0  0  0  0
   -4.0433   -3.7186   -0.4486 H   0  0  0  0  0  0  0  0  0  0  0  0
   -2.7532   -2.5046    0.7444 C   0  0  0  0  0  0  0  0  0  0  0  0
   -1.9803   -2.8096    1.6434 O   0  0  0  0  0  0  0  0  0  0  0  0
   -2.5332   -1.4966   -0.0966 N   0  0  0  0  0  0  0  0  0  0  0  0
   -3.2312   -1.2816   -0.7936 H   0  0  0  0  0  0  0  0  0  0  0  0
   -1.3593   -0.6196   -0.0536 C   0  0  1  0  0  0  0  0  0  0  0  0
   -1.5461    0.2456   -0.6908 H   0  0  0  0  0  0  0  0  0  0  0  0
   -1.1458   -0.1194    1.3837 C   0  0  0  0  0  0  0  0  0  0  0  0
   -0.2847    0.5512    1.3984 H   0  0  0  0  0  0  0  0  0  0  0  0
   -2.0207    0.4601    1.6833 H   0  0  0  0  0  0  0  0  0  0  0  0
   -0.9148   -1.1926    2.4039 C   0  0  0  0  0  0  0  0  0  0  0  0
    0.2854   -1.7224    2.7303 C   0  0  0  0  0  0  0  0  0  0  0  0
    1.2283   -1.4426    2.2736 H   0  0  0  0  0  0  0  0  0  0  0  0
    0.1239   -2.6506    3.7402 N   0  0  0  0  0  0  0  0  0  0  0  0
    0.8869   -3.1765    4.1407 H   0  0  0  0  0  0  0  0  0  0  0  0
   -1.1949   -2.7536    4.1288 C   0  0  0  0  0  0  0  0  0  0  0  0
   -1.8485   -3.5151    5.1082 C   0  0  0  0  0  0  0  0  0  0  0  0
   -1.2908   -4.1948    5.7357 H   0  0  0  0  0  0  0  0  0  0  0  0
   -3.2393   -3.3828    5.2606 C   0  0  0  0  0  0  0  0  0  0  0  0
   -3.7606   -3.9629    6.0101 H   0  0  0  0  0  0  0  0  0  0  0  0
   -3.9543   -2.4990    4.4317 C   0  0  0  0  0  0  0  0  0  0  0  0
   -5.0254   -2.4065    4.5468 H   0  0  0  0  0  0  0  0  0  0  0  0
   -3.2872   -1.7400    3.4492 C   0  0  0  0  0  0  0  0  0  0  0  0
   -3.8504   -1.0748    2.8103 H   0  0  0  0  0  0  0  0  0  0  0  0
   -1.8902   -1.8456    3.2753 C   0  0  0  0  0  0  0  0  0  0  0  0
   -0.1124   -1.3338   -0.5981 C   0  0  0  0  0  0  0  0  0  0  0  0
    0.8759   -1.4872    0.1184 O   0  0  0  0  0  0  0  0  0  0  0  0
   -0.1584   -1.7680   -1.8648 N   0  0  0  0  0  0  0  0  0  0  0  0
   -0.9862   -1.5545   -2.4027 H   0  0  0  0  0  0  0  0  0  0  0  0
    0.9357   -2.4659   -2.5343 C   0  0  0  0  0  0  0  0  0  0  0  0
    1.2640   -3.3084   -1.9227 H   0  0  0  0  0  0  0  0  0  0  0  0
    0.6074   -2.8325   -3.5078 H   0  0  0  0  0  0  0  0  0  0  0  0
    1.7763   -1.7833   -2.6699 H   0  0  0  0  0  0  0  0  0  0  0  0
  5  6  2  0  0  0  0
  5  7  1  0  0  0  0
  2  3  1  0  0  0  0
  2  4  1  0  0  0  0
  2  5  1  0  0  0  0
  1  2  1  0  0  0  0
 29 30  2  0  0  0  0
 29 31  1  0  0  0  0
 26 27  1  0  0  0  0
 26 28  2  0  0  0  0
 24 25  1  0  0  0  0
 24 26  1  0  0  0  0
 22 23  1  0  0  0  0
 22 24  2  0  0  0  0
 20 21  1  0  0  0  0
 20 22  1  0  0  0  0
 19 20  2  0  0  0  0
 19 28  1  0  0  0  0
 17 18  1  0  0  0  0
 17 19  1  0  0  0  0
 15 16  1  0  0  0  0
 15 17  1  0  0  0  0
 14 15  2  0  0  0  0
 14 28  1  0  0  0  0
 11 12  1  0  0  0  0
 11 13  1  0  0  0  0
 11 14  1  0  0  0  0
  9 10  1  0  0  0  0
  9 11  1  0  0  0  0
  9 29  1  0  0  0  0
  7  8  1  0  0  0  0
  7  9  1  0  0  0  0
 33 34  1  0  0  0  0
 33 35  1  0  0  0  0
 33 36  1  0  0  0  0
 31 32  1  0  0  0  0
 31 33  1  0  0  0  0
M  END
$$$$
default_name
  -OEChem-12212115393D

 36 37  0     1  0  0  0  0  0999 V2000
   -4.0843   -4.0736    1.2944 H   0  0  0  0  0  0  0  0  0  0  0  0
   -4.0342   -3.2816    0.5484 C   0  0  0  0  0  0  0  0  0  0  0  0
   -4.8842   -2.6126    0.6694 H   0  0  0  0  0  0  0  0  0  0  0  0
   -4.0433   -3.7186   -0.4486 H   0  0  0  0  0  0  0  0  0  0  0  0
   -2.7532   -2.5046    0.7444 C   0  0  0  0  0  0  0  0  0  0  0  0
   -1.9803   -2.8096    1.6434 O   0  0  0  0  0  0  0  0  0  0  0  0
   -2.5332   -1.4966   -0.0966 N   0  0  0  0  0  0  0  0  0  0  0  0
   -3.2312   -1.2816   -0.7936 H   0  0  0  0  0  0  0  0  0  0  0  0
   -1.3593   -0.6196   -0.0536 C   0  0  1  0  0  0  0  0  0  0  0  0
   -1.5461    0.2456   -0.6908 H   0  0  0  0  0  0  0  0  0  0  0  0
   -1.1458   -0.1194    1.3837 C   0  0  0  0  0  0  0  0  0  0  0  0
   -0.2847    0.5512    1.3984 H   0  0  0  0  0  0  0  0  0  0  0  0
   -2.0207    0.4601    1.6833 H   0  0  0  0  0  0  0  0  0  0  0  0
   -0.9148   -1.1926    2.4039 C   0  0  0  0  0  0  0  0  0  0  0  0
    0.2854   -1.7224    2.7303 C   0  0  0  0  0  0  0  0  0  0  0  0
    1.2283   -1.4426    2.2736 H   0  0  0  0  0  0  0  0  0  0  0  0
    0.1239   -2.6506    3.7402 N   0  0  0  0  0  0  0  0  0  0  0  0
    0.8869   -3.1765    4.1407 H   0  0  0  0  0  0  0  0  0  0  0  0
   -1.1949   -2.7536    4.1288 C   0  0  0  0  0  0  0  0  0  0  0  0
   -1.8485   -3.5151    5.1082 C   0  0  0  0  0  0  0  0  0  0  0  0
   -1.2908   -4.1948    5.7357 H   0  0  0  0  0  0  0  0  0  0  0  0
   -3.2393   -3.3828    5.2606 C   0  0  0  0  0  0  0  0  0  0  0  0
   -3.7606   -3.9629    6.0101 H   0  0  0  0  0  0  0  0  0  0  0  0
   -3.9543   -2.4990    4.4317 C   0  0  0  0  0  0  0  0  0  0  0  0
   -5.0254   -2.4065    4.5468 H   0  0  0  0  0  0  0  0  0  0  0  0
   -3.2872   -1.7400    3.4492 C   0  0  0  0  0  0  0  0  0  0  0  0
   -3.8504   -1.0748    2.8103 H   0  0  0  0  0  0  0  0  0  0  0  0
   -1.8902   -1.8456    3.2753 C   0  0  0  0  0  0  0  0  0  0  0  0
   -0.1124   -1.3338   -0.5981 C   0  0  0  0  0  0  0  0  0  0  0  0
    0.7590   -1.7329    0.1732 O   0  0  0  0  0  0  0  0  0  0  0  0
   -0.0273   -1.4927   -1.9257 N   0  0  0  0  0  0  0  0  0  0  0  0
   -0.7587   -1.0883   -2.4931 H   0  0  0  0  0  0  0  0  0  0  0  0
    1.0861   -2.1494   -2.6049 C   0  0  0  0  0  0  0  0  0  0  0  0
    1.2645   -3.1288   -2.1569 H   0  0  0  0  0  0  0  0  0  0  0  0
    0.8594   -2.2730   -3.6647 H   0  0  0  0  0  0  0  0  0  0  0  0
    1.9884   -1.5453   -2.4963 H   0  0  0  0  0  0  0  0  0  0  0  0
  5  6  2  0  0  0  0
  5  7  1  0  0  0  0
  2  3  1  0  0  0  0
  2  4  1  0  0  0  0
  2  5  1  0  0  0  0
  1  2  1  0  0  0  0
 29 30  2  0  0  0  0
 29 31  1  0  0  0  0
 26 27  1  0  0  0  0
 26 28  2  0  0  0  0
 24 25  1  0  0  0  0
 24 26  1  0  0  0  0
 22 23  1  0  0  0  0
 22 24  2  0  0  0  0
 20 21  1  0  0  0  0
 20 22  1  0  0  0  0
 19 20  2  0  0  0  0
 19 28  1  0  0  0  0
 17 18  1  0  0  0  0
 17 19  1  0  0  0  0
 15 16  1  0  0  0  0
 15 17  1  0  0  0  0
 14 15  2  0  0  0  0
 14 28  1  0  0  0  0
 11 12  1  0  0  0  0
 11 13  1  0  0  0  0
 11 14  1  0  0  0  0
  9 10  1  0  0  0  0
  9 11  1  0  0  0  0
  9 29  1  0  0  0  0
  7  8  1  0  0  0  0
  7  9  1  0  0  0  0
 33 34  1  0  0  0  0
 33 35  1  0  0  0  0
 33 36  1  0  0  0  0
 31 32  1  0  0  0  0
 31 33  1  0  0  0  0
M  END
$$$$
default_name
  -OEChem-12212115393D

 36 37  0     1  0  0  0  0  0999 V2000
   -4.0843   -4.0736    1.2944 H   0  0  0  0  0  0  0  0  0  0  0  0
   -4.0342   -3.2816    0.5484 C   0  0  0  0  0  0  0  0  0  0  0  0
   -4.8842   -2.6126    0.6694 H   0  0  0  0  0  0  0  0  0  0  0  0
   -4.0433   -3.7186   -0.4486 H   0  0  0  0  0  0  0  0  0  0  0  0
   -2.7532   -2.5046    0.7444 C   0  0  0  0  0  0  0  0  0  0  0  0
   -1.9803   -2.8096    1.6434 O   0  0  0  0  0  0  0  0  0  0  0  0
   -2.5332   -1.4966   -0.0966 N   0  0  0  0  0  0  0  0  0  0  0  0
   -3.2312   -1.2816   -0.7936 H   0  0  0  0  0  0  0  0  0  0  0  0
   -1.3593   -0.6196   -0.0536 C   0  0  1  0  0  0  0  0  0  0  0  0
   -1.5461    0.2456   -0.6908 H   0  0  0  0  0  0  0  0  0  0  0  0
   -1.1458   -0.1194    1.3837 C   0  0  0  0  0  0  0  0  0  0  0  0
   -0.2847    0.5512    1.3984 H   0  0  0  0  0  0  0  0  0  0  0  0
   -2.0207    0.4601    1.6833 H   0  0  0  0  0  0  0  0  0  0  0  0
   -0.9148   -1.1926    2.4039 C   0  0  0  0  0  0  0  0  0  0  0  0
    0.2854   -1.7224    2.7303 C   0  0  0  0  0  0  0  0  0  0  0  0
    1.2283   -1.4426    2.2736 H   0  0  0  0  0  0  0  0  0  0  0  0
    0.1239   -2.6506    3.7402 N   0  0  0  0  0  0  0  0  0  0  0  0
    0.8869   -3.1765    4.1407 H   0  0  0  0  0  0  0  0  0  0  0  0
   -1.1949   -2.7536    4.1288 C   0  0  0  0  0  0  0  0  0  0  0  0
   -1.8485   -3.5151    5.1082 C   0  0  0  0  0  0  0  0  0  0  0  0
   -1.2908   -4.1948    5.7357 H   0  0  0  0  0  0  0  0  0  0  0  0
   -3.2393   -3.3828    5.2606 C   0  0  0  0  0  0  0  0  0  0  0  0
   -3.7606   -3.9629    6.0101 H   0  0  0  0  0  0  0  0  0  0  0  0
   -3.9543   -2.4990    4.4317 C   0  0  0  0  0  0  0  0  0  0  0  0
   -5.0254   -2.4065    4.5468 H   0  0  0  0  0  0  0  0  0  0  0  0
   -3.2872   -1.7400    3.4492 C   0  0  0  0  0  0  0  0  0  0  0  0
   -3.8504   -1.0748    2.8103 H   0  0  0  0  0  0  0  0  0  0  0  0
   -1.8902   -1.8456    3.2753 C   0  0  0  0  0  0  0  0  0  0  0  0
   -0.1124   -1.3338   -0.5981 C   0  0  0  0  0  0  0  0  0  0  0  0
    0.6171   -1.9710    0.1605 O   0  0  0  0  0  0  0  0  0  0  0  0
    0.1319   -1.2260   -1.9110 N   0  0  0  0  0  0  0  0  0  0  0  0
   -0.4853   -0.6400   -2.4551 H   0  0  0  0  0  0  0  0  0  0  0  0
    1.2689   -1.8428   -2.5886 C   0  0  0  0  0  0  0  0  0  0  0  0
    1.3097   -2.9062   -2.3453 H   0  0  0  0  0  0  0  0  0  0  0  0
    1.1729   -1.7227   -3.6684 H   0  0  0  0  0  0  0  0  0  0  0  0
    2.1942   -1.3713   -2.2533 H   0  0  0  0  0  0  0  0  0  0  0  0
  5  6  2  0  0  0  0
  5  7  1  0  0  0  0
  2  3  1  0  0  0  0
  2  4  1  0  0  0  0
  2  5  1  0  0  0  0
  1  2  1  0  0  0  0
 29 30  2  0  0  0  0
 29 31  1  0  0  0  0
 26 27  1  0  0  0  0
 26 28  2  0  0  0  0
 24 25  1  0  0  0  0
 24 26  1  0  0  0  0
 22 23  1  0  0  0  0
 22 24  2  0  0  0  0
 20 21  1  0  0  0  0
 20 22  1  0  0  0  0
 19 20  2  0  0  0  0
 19 28  1  0  0  0  0
 17 18  1  0  0  0  0
 17 19  1  0  0  0  0
 15 16  1  0  0  0  0
 15 17  1  0  0  0  0
 14 15  2  0  0  0  0
 14 28  1  0  0  0  0
 11 12  1  0  0  0  0
 11 13  1  0  0  0  0
 11 14  1  0  0  0  0
  9 10  1  0  0  0  0
  9 11  1  0  0  0  0
  9 29  1  0  0  0  0
  7  8  1  0  0  0  0
  7  9  1  0  0  0  0
 33 34  1  0  0  0  0
 33 35  1  0  0  0  0
 33 36  1  0  0  0  0
 31 32  1  0  0  0  0
 31 33  1  0  0  0  0
M  END
$$$$
default_name
  -OEChem-12212115393D

 36 37  0     1  0  0  0  0  0999 V2000
   -4.0843   -4.0736    1.2944 H   0  0  0  0  0  0  0  0  0  0  0  0
   -4.0342   -3.2816    0.5484 C   0  0  0  0  0  0  0  0  0  0  0  0
   -4.8842   -2.6126    0.6694 H   0  0  0  0  0  0  0  0  0  0  0  0
   -4.0433   -3.7186   -0.4486 H   0  0  0  0  0  0  0  0  0  0  0  0
   -2.7532   -2.5046    0.7444 C   0  0  0  0  0  0  0  0  0  0  0  0
   -1.9803   -2.8096    1.6434 O   0  0  0  0  0  0  0  0  0  0  0  0
   -2.5332   -1.4966   -0.0966 N   0  0  0  0  0  0  0  0  0  0  0  0
   -3.2312   -1.2816   -0.7936 H   0  0  0  0  0  0  0  0  0  0  0  0
   -1.3593   -0.6196   -0.0536 C   0  0  1  0  0  0  0  0  0  0  0  0
   -1.5461    0.2456   -0.6908 H   0  0  0  0  0  0  0  0  0  0  0  0
   -1.1458   -0.1194    1.3837 C   0  0  0  0  0  0  0  0  0  0  0  0
   -0.2847    0.5512    1.3984 H   0  0  0  0  0  0  0  0  0  0  0  0
   -2.0207    0.4601    1.6833 H   0  0  0  0  0  0  0  0  0  0  0  0
   -0.9148   -1.1926    2.4039 C   0  0  0  0  0  0  0  0  0  0  0  0
    0.2854   -1.7224    2.7303 C   0  0  0  0  0  0  0  0  0  0  0  0
    1.2283   -1.4426    2.2736 H   0  0  0  0  0  0  0  0  0  0  0  0
    0.1239   -2.6506    3.7402 N   0  0  0  0  0  0  0  0  0  0  0  0
    0.8869   -3.1765    4.1407 H   0  0  0  0  0  0  0  0  0  0  0  0
   -1.1949   -2.7536    4.1288 C   0  0  0  0  0  0  0  0  0  0  0  0
   -1.8485   -3.5151    5.1082 C   0  0  0  0  0  0  0  0  0  0  0  0
   -1.2908   -4.1948    5.7357 H   0  0  0  0  0  0  0  0  0  0  0  0
   -3.2393   -3.3828    5.2606 C   0  0  0  0  0  0  0  0  0  0  0  0
   -3.7606   -3.9629    6.0101 H   0  0  0  0  0  0  0  0  0  0  0  0
   -3.9543   -2.4990    4.4317 C   0  0  0  0  0  0  0  0  0  0  0  0
   -5.0254   -2.4065    4.5468 H   0  0  0  0  0  0  0  0  0  0  0  0
   -3.2872   -1.7400    3.4492 C   0  0  0  0  0  0  0  0  0  0  0  0
   -3.8504   -1.0748    2.8103 H   0  0  0  0  0  0  0  0  0  0  0  0
   -1.8902   -1.8456    3.2753 C   0  0  0  0  0  0  0  0  0  0  0  0
   -0.1124   -1.3338   -0.5981 C   0  0  0  0  0  0  0  0  0  0  0  0
    0.4597   -2.1853    0.0811 O   0  0  0  0  0  0  0  0  0  0  0  0
    0.3083   -0.9860   -1.8216 N   0  0  0  0  0  0  0  0  0  0  0  0
   -0.1846   -0.2399   -2.2914 H   0  0  0  0  0  0  0  0  0  0  0  0
    1.4716   -1.5667   -2.4864 C   0  0  0  0  0  0  0  0  0  0  0  0
    1.3965   -2.6558   -2.4752 H   0  0  0  0  0  0  0  0  0  0  0  0
    1.5267   -1.2191   -3.5188 H   0  0  0  0  0  0  0  0  0  0  0  0
    2.3797   -1.2731   -1.9571 H   0  0  0  0  0  0  0  0  0  0  0  0
  5  6  2  0  0  0  0
  5  7  1  0  0  0  0
  2  3  1  0  0  0  0
  2  4  1  0  0  0  0
  2  5  1  0  0  0  0
  1  2  1  0  0  0  0
 29 30  2  0  0  0  0
 29 31  1  0  0  0  0
 26 27  1  0  0  0  0
 26 28  2  0  0  0  0
 24 25  1  0  0  0  0
 24 26  1  0  0  0  0
 22 23  1  0  0  0  0
 22 24  2  0  0  0  0
 20 21  1  0  0  0  0
 20 22  1  0  0  0  0
 19 20  2  0  0  0  0
 19 28  1  0  0  0  0
 17 18  1  0  0  0  0
 17 19  1  0  0  0  0
 15 16  1  0  0  0  0
 15 17  1  0  0  0  0
 14 15  2  0  0  0  0
 14 28  1  0  0  0  0
 11 12  1  0  0  0  0
 11 13  1  0  0  0  0
 11 14  1  0  0  0  0
  9 10  1  0  0  0  0
  9 11  1  0  0  0  0
  9 29  1  0  0  0  0
  7  8  1  0  0  0  0
  7  9  1  0  0  0  0
 33 34  1  0  0  0  0
 33 35  1  0  0  0  0
 33 36  1  0  0  0  0
 31 32  1  0  0  0  0
 31 33  1  0  0  0  0
M  END
$$$$
default_name
  -OEChem-12212115393D

 36 37  0     1  0  0  0  0  0999 V2000
   -4.0843   -4.0736    1.2944 H   0  0  0  0  0  0  0  0  0  0  0  0
   -4.0342   -3.2816    0.5484 C   0  0  0  0  0  0  0  0  0  0  0  0
   -4.8842   -2.6126    0.6694 H   0  0  0  0  0  0  0  0  0  0  0  0
   -4.0433   -3.7186   -0.4486 H   0  0  0  0  0  0  0  0  0  0  0  0
   -2.7532   -2.5046    0.7444 C   0  0  0  0  0  0  0  0  0  0  0  0
   -1.9803   -2.8096    1.6434 O   0  0  0  0  0  0  0  0  0  0  0  0
   -2.5332   -1.4966   -0.0966 N   0  0  0  0  0  0  0  0  0  0  0  0
   -3.2312   -1.2816   -0.7936 H   0  0  0  0  0  0  0  0  0  0  0  0
   -1.3593   -0.6196   -0.0536 C   0  0  1  0  0  0  0  0  0  0  0  0
   -1.5461    0.2456   -0.6908 H   0  0  0  0  0  0  0  0  0  0  0  0
   -1.1458   -0.1194    1.3837 C   0  0  0  0  0  0  0  0  0  0  0  0
   -0.2847    0.5512    1.3984 H   0  0  0  0  0  0  0  0  0  0  0  0
   -2.0207    0.4601    1.6833 H   0  0  0  0  0  0  0  0  0  0  0  0
   -0.9148   -1.1926    2.4039 C   0  0  0  0  0  0  0  0  0  0  0  0
    0.2854   -1.7224    2.7303 C   0  0  0  0  0  0  0  0  0  0  0  0
    1.2283   -1.4426    2.2736 H   0  0  0  0  0  0  0  0  0  0  0  0
    0.1239   -2.6506    3.7402 N   0  0  0  0  0  0  0  0  0  0  0  0
    0.8869   -3.1765    4.1407 H   0  0  0  0  0  0  0  0  0  0  0  0
   -1.1949   -2.7536    4.1288 C   0  0  0  0  0  0  0  0  0  0  0  0
   -1.8485   -3.5151    5.1082 C   0  0  0  0  0  0  0  0  0  0  0  0
   -1.2908   -4.1948    5.7357 H   0  0  0  0  0  0  0  0  0  0  0  0
   -3.2393   -3.3828    5.2606 C   0  0  0  0  0  0  0  0  0  0  0  0
   -3.7606   -3.9629    6.0101 H   0  0  0  0  0  0  0  0  0  0  0  0
   -3.9543   -2.4990    4.4317 C   0  0  0  0  0  0  0  0  0  0  0  0
   -5.0254   -2.4065    4.5468 H   0  0  0  0  0  0  0  0  0  0  0  0
   -3.2872   -1.7400    3.4492 C   0  0  0  0  0  0  0  0  0  0  0  0
   -3.8504   -1.0748    2.8103 H   0  0  0  0  0  0  0  0  0  0  0  0
   -1.8902   -1.8456    3.2753 C   0  0  0  0  0  0  0  0  0  0  0  0
   -0.1124   -1.3338   -0.5981 C   0  0  0  0  0  0  0  0  0  0  0  0
    0.2975   -2.3612   -0.0595 O   0  0  0  0  0  0  0  0  0  0  0  0
    0.4900   -0.7892   -1.6637 N   0  0  0  0  0  0  0  0  0  0  0  0
    0.1228    0.0845   -2.0130 H   0  0  0  0  0  0  0  0  0  0  0  0
    1.6805   -1.3402   -2.3053 C   0  0  0  0  0  0  0  0  0  0  0  0
    1.5189   -2.3945   -2.5376 H   0  0  0  0  0  0  0  0  0  0  0  0
    1.8966   -0.7966   -3.2259 H   0  0  0  0  0  0  0  0  0  0  0  0
    2.5323   -1.2575   -1.6282 H   0  0  0  0  0  0  0  0  0  0  0  0
  5  6  2  0  0  0  0
  5  7  1  0  0  0  0
  2  3  1  0  0  0  0
  2  4  1  0  0  0  0
  2  5  1  0  0  0  0
  1  2  1  0  0  0  0
 29 30  2  0  0  0  0
 29 31  1  0  0  0  0
 26 27  1  0  0  0  0
 26 28  2  0  0  0  0
 24 25  1  0  0  0  0
 24 26  1  0  0  0  0
 22 23  1  0  0  0  0
 22 24  2  0  0  0  0
 20 21  1  0  0  0  0
 20 22  1  0  0  0  0
 19 20  2  0  0  0  0
 19 28  1  0  0  0  0
 17 18  1  0  0  0  0
 17 19  1  0  0  0  0
 15 16  1  0  0  0  0
 15 17  1  0  0  0  0
 14 15  2  0  0  0  0
 14 28  1  0  0  0  0
 11 12  1  0  0  0  0
 11 13  1  0  0  0  0
 11 14  1  0  0  0  0
  9 10  1  0  0  0  0
  9 11  1  0  0  0  0
  9 29  1  0  0  0  0
  7  8  1  0  0  0  0
  7  9  1  0  0  0  0
 33 34  1  0  0  0  0
 33 35  1  0  0  0  0
 33 36  1  0  0  0  0
 31 32  1  0  0  0  0
 31 33  1  0  0  0  0
M  END
$$$$
default_name
  -OEChem-12212115393D

 36 37  0     1  0  0  0  0  0999 V2000
   -4.0843   -4.0736    1.2944 H   0  0  0  0  0  0  0  0  0  0  0  0
   -4.0342   -3.2816    0.5484 C   0  0  0  0  0  0  0  0  0  0  0  0
   -4.8842   -2.6126    0.6694 H   0  0  0  0  0  0  0  0  0  0  0  0
   -4.0433   -3.7186   -0.4486 H   0  0  0  0  0  0  0  0  0  0  0  0
   -2.7532   -2.5046    0.7444 C   0  0  0  0  0  0  0  0  0  0  0  0
   -1.9803   -2.8096    1.6434 O   0  0  0  0  0  0  0  0  0  0  0  0
   -2.5332   -1.4966   -0.0966 N   0  0  0  0  0  0  0  0  0  0  0  0
   -3.2312   -1.2816   -0.7936 H   0  0  0  0  0  0  0  0  0  0  0  0
   -1.3593   -0.6196   -0.0536 C   0  0  1  0  0  0  0  0  0  0  0  0
   -1.5461    0.2456   -0.6908 H   0  0  0  0  0  0  0  0  0  0  0  0
   -1.1458   -0.1194    1.3837 C   0  0  0  0  0  0  0  0  0  0  0  0
   -0.2847    0.5512    1.3984 H   0  0  0  0  0  0  0  0  0  0  0  0
   -2.0207    0.4601    1.6833 H   0  0  0  0  0  0  0  0  0  0  0  0
   -0.9148   -1.1926    2.4039 C   0  0  0  0  0  0  0  0  0  0  0  0
    0.2854   -1.7224    2.7303 C   0  0  0  0  0  0  0  0  0  0  0  0
    1.2283   -1.4426    2.2736 H   0  0  0  0  0  0  0  0  0  0  0  0
    0.1239   -2.6506    3.7402 N   0  0  0  0  0  0  0  0  0  0  0  0
    0.8869   -3.1765    4.1407 H   0  0  0  0  0  0  0  0  0  0  0  0
   -1.1949   -2.7536    4.1288 C   0  0  0  0  0  0  0  0  0  0  0  0
   -1.8485   -3.5151    5.1082 C   0  0  0  0  0  0  0  0  0  0  0  0
   -1.2908   -4.1948    5.7357 H   0  0  0  0  0  0  0  0  0  0  0  0
   -3.2393   -3.3828    5.2606 C   0  0  0  0  0  0  0  0  0  0  0  0
   -3.7606   -3.9629    6.0101 H   0  0  0  0  0  0  0  0  0  0  0  0
   -3.9543   -2.4990    4.4317 C   0  0  0  0  0  0  0  0  0  0  0  0
   -5.0254   -2.4065    4.5468 H   0  0  0  0  0  0  0  0  0  0  0  0
   -3.2872   -1.7400    3.4492 C   0  0  0  0  0  0  0  0  0  0  0  0
   -3.8504   -1.0748    2.8103 H   0  0  0  0  0  0  0  0  0  0  0  0
   -1.8902   -1.8456    3.2753 C   0  0  0  0  0  0  0  0  0  0  0  0
   -0.1124   -1.3338   -0.5981 C   0  0  0  0  0  0  0  0  0  0  0  0
    0.1417   -2.4867   -0.2518 O   0  0  0  0  0  0  0  0  0  0  0  0
    0.6646   -0.6489   -1.4480 N   0  0  0  0  0  0  0  0  0  0  0  0
    0.4159    0.3112   -1.6391 H   0  0  0  0  0  0  0  0  0  0  0  0
    1.8812   -1.1785   -2.0577 C   0  0  0  0  0  0  0  0  0  0  0  0
    1.6686   -2.1403   -2.5282 H   0  0  0  0  0  0  0  0  0  0  0  0
    2.2575   -0.4839   -2.8097 H   0  0  0  0  0  0  0  0  0  0  0  0
    2.6415   -1.3255   -1.2888 H   0  0  0  0  0  0  0  0  0  0  0  0
  5  6  2  0  0  0  0
  5  7  1  0  0  0  0
  2  3  1  0  0  0  0
  2  4  1  0  0  0  0
  2  5  1  0  0  0  0
  1  2  1  0  0  0  0
 29 30  2  0  0  0  0
 29 31  1  0  0  0  0
 26 27  1  0  0  0  0
 26 28  2  0  0  0  0
 24 25  1  0  0  0  0
 24 26  1  0  0  0  0
 22 23  1  0  0  0  0
 22 24  2  0  0  0  0
 20 21  1  0  0  0  0
 20 22  1  0  0  0  0
 19 20  2  0  0  0  0
 19 28  1  0  0  0  0
 17 18  1  0  0  0  0
 17 19  1  0  0  0  0
 15 16  1  0  0  0  0
 15 17  1  0  0  0  0
 14 15  2  0  0  0  0
 14 28  1  0  0  0  0
 11 12  1  0  0  0  0
 11 13  1  0  0  0  0
 11 14  1  0  0  0  0
  9 10  1  0  0  0  0
  9 11  1  0  0  0  0
  9 29  1  0  0  0  0
  7  8  1  0  0  0  0
  7  9  1  0  0  0  0
 33 34  1  0  0  0  0
 33 35  1  0  0  0  0
 33 36  1  0  0  0  0
 31 32  1  0  0  0  0
 31 33  1  0  0  0  0
M  END
$$$$
default_name
  -OEChem-12212115393D

 36 37  0     1  0  0  0  0  0999 V2000
   -4.0843   -4.0736    1.2944 H   0  0  0  0  0  0  0  0  0  0  0  0
   -4.0342   -3.2816    0.5484 C   0  0  0  0  0  0  0  0  0  0  0  0
   -4.8842   -2.6126    0.6694 H   0  0  0  0  0  0  0  0  0  0  0  0
   -4.0433   -3.7186   -0.4486 H   0  0  0  0  0  0  0  0  0  0  0  0
   -2.7532   -2.5046    0.7444 C   0  0  0  0  0  0  0  0  0  0  0  0
   -1.9803   -2.8096    1.6434 O   0  0  0  0  0  0  0  0  0  0  0  0
   -2.5332   -1.4966   -0.0966 N   0  0  0  0  0  0  0  0  0  0  0  0
   -3.2312   -1.2816   -0.7936 H   0  0  0  0  0  0  0  0  0  0  0  0
   -1.3593   -0.6196   -0.0536 C   0  0  1  0  0  0  0  0  0  0  0  0
   -1.5461    0.2456   -0.6908 H   0  0  0  0  0  0  0  0  0  0  0  0
   -1.1458   -0.1194    1.3837 C   0  0  0  0  0  0  0  0  0  0  0  0
   -0.2847    0.5512    1.3984 H   0  0  0  0  0  0  0  0  0  0  0  0
   -2.0207    0.4601    1.6833 H   0  0  0  0  0  0  0  0  0  0  0  0
   -0.9148   -1.1926    2.4039 C   0  0  0  0  0  0  0  0  0  0  0  0
    0.2854   -1.7224    2.7303 C   0  0  0  0  0  0  0  0  0  0  0  0
    1.2283   -1.4426    2.2736 H   0  0  0  0  0  0  0  0  0  0  0  0
    0.1239   -2.6506    3.7402 N   0  0  0  0  0  0  0  0  0  0  0  0
    0.8869   -3.1765    4.1407 H   0  0  0  0  0  0  0  0  0  0  0  0
   -1.1949   -2.7536    4.1288 C   0  0  0  0  0  0  0  0  0  0  0  0
   -1.8485   -3.5151    5.1082 C   0  0  0  0  0  0  0  0  0  0  0  0
   -1.2908   -4.1948    5.7357 H   0  0  0  0  0  0  0  0  0  0  0  0
   -3.2393   -3.3828    5.2606 C   0  0  0  0  0  0  0  0  0  0  0  0
   -3.7606   -3.9629    6.0101 H   0  0  0  0  0  0  0  0  0  0  0  0
   -3.9543   -2.4990    4.4317 C   0  0  0  0  0  0  0  0  0  0  0  0
   -5.0254   -2.4065    4.5468 H   0  0  0  0  0  0  0  0  0  0  0  0
   -3.2872   -1.7400    3.4492 C   0  0  0  0  0  0  0  0  0  0  0  0
   -3.8504   -1.0748    2.8103 H   0  0  0  0  0  0  0  0  0  0  0  0
   -1.8902   -1.8456    3.2753 C   0  0  0  0  0  0  0  0  0  0  0  0
   -0.1124   -1.3338   -0.5981 C   0  0  0  0  0  0  0  0  0  0  0  0
    0.0027   -2.5532   -0.4826 O   0  0  0  0  0  0  0  0  0  0  0  0
    0.8201   -0.5748   -1.1891 N   0  0  0  0  0  0  0  0  0  0  0  0
    0.6749    0.4248   -1.1949 H   0  0  0  0  0  0  0  0  0  0  0  0
    2.0601   -1.0928   -1.7604 C   0  0  0  0  0  0  0  0  0  0  0  0
    1.8353   -1.9105   -2.4478 H   0  0  0  0  0  0  0  0  0  0  0  0
    2.5846   -0.3023   -2.2987 H   0  0  0  0  0  0  0  0  0  0  0  0
    2.7000   -1.4725   -0.9621 H   0  0  0  0  0  0  0  0  0  0  0  0
  5  6  2  0  0  0  0
  5  7  1  0  0  0  0
  2  3  1  0  0  0  0
  2  4  1  0  0  0  0
  2  5  1  0  0  0  0
  1  2  1  0  0  0  0
 29 30  2  0  0  0  0
 29 31  1  0  0  0  0
 26 27  1  0  0  0  0
 26 28  2  0  0  0  0
 24 25  1  0  0  0  0
 24 26  1  0  0  0  0
 22 23  1  0  0  0  0
 22 24  2  0  0  0  0
 20 21  1  0  0  0  0
 20 22  1  0  0  0  0
 19 20  2  0  0  0  0
 19 28  1  0  0  0  0
 17 18  1  0  0  0  0
 17 19  1  0  0  0  0
 15 16  1  0  0  0  0
 15 17  1  0  0  0  0
 14 15  2  0  0  0  0
 14 28  1  0  0  0  0
 11 12  1  0  0  0  0
 11 13  1  0  0  0  0
 11 14  1  0  0  0  0
  9 10  1  0  0  0  0
  9 11  1  0  0  0  0
  9 29  1  0  0  0  0
  7  8  1  0  0  0  0
  7  9  1  0  0  0  0
 33 34  1  0  0  0  0
 33 35  1  0  0  0  0
 33 36  1  0  0  0  0
 31 32  1  0  0  0  0
 31 33  1  0  0  0  0
M  END
$$$$
default_name
  -OEChem-12212115393D

 36 37  0     1  0  0  0  0  0999 V2000
   -4.0843   -4.0736    1.2944 H   0  0  0  0  0  0  0  0  0  0  0  0
   -4.0342   -3.2816    0.5484 C   0  0  0  0  0  0  0  0  0  0  0  0
   -4.8842   -2.6126    0.6694 H   0  0  0  0  0  0  0  0  0  0  0  0
   -4.0433   -3.7186   -0.4486 H   0  0  0  0  0  0  0  0  0  0  0  0
   -2.7532   -2.5046    0.7444 C   0  0  0  0  0  0  0  0  0  0  0  0
   -1.9803   -2.8096    1.6434 O   0  0  0  0  0  0  0  0  0  0  0  0
   -2.5332   -1.4966   -0.0966 N   0  0  0  0  0  0  0  0  0  0  0  0
   -3.2312   -1.2816   -0.7936 H   0  0  0  0  0  0  0  0  0  0  0  0
   -1.3593   -0.6196   -0.0536 C   0  0  1  0  0  0  0  0  0  0  0  0
   -1.5461    0.2456   -0.6908 H   0  0  0  0  0  0  0  0  0  0  0  0
   -1.1458   -0.1194    1.3837 C   0  0  0  0  0  0  0  0  0  0  0  0
   -0.2847    0.5512    1.3984 H   0  0  0  0  0  0  0  0  0  0  0  0
   -2.0207    0.4601    1.6833 H   0  0  0  0  0  0  0  0  0  0  0  0
   -0.9148   -1.1926    2.4039 C   0  0  0  0  0  0  0  0  0  0  0  0
    0.2854   -1.7224    2.7303 C   0  0  0  0  0  0  0  0  0  0  0  0
    1.2283   -1.4426    2.2736 H   0  0  0  0  0  0  0  0  0  0  0  0
    0.1239   -2.6506    3.7402 N   0  0  0  0  0  0  0  0  0  0  0  0
    0.8869   -3.1765    4.1407 H   0  0  0  0  0  0  0  0  0  0  0  0
   -1.1949   -2.7536    4.1288 C   0  0  0  0  0  0  0  0  0  0  0  0
   -1.8485   -3.5151    5.1082 C   0  0  0  0  0  0  0  0  0  0  0  0
   -1.2908   -4.1948    5.7357 H   0  0  0  0  0  0  0  0  0  0  0  0
   -3.2393   -3.3828    5.2606 C   0  0  0  0  0  0  0  0  0  0  0  0
   -3.7606   -3.9629    6.0101 H   0  0  0  0  0  0  0  0  0  0  0  0
   -3.9543   -2.4990    4.4317 C   0  0  0  0  0  0  0  0  0  0  0  0
   -5.0254   -2.4065    4.5468 H   0  0  0  0  0  0  0  0  0  0  0  0
   -3.2872   -1.7400    3.4492 C   0  0  0  0  0  0  0  0  0  0  0  0
   -3.8504   -1.0748    2.8103 H   0  0  0  0  0  0  0  0  0  0  0  0
   -1.8902   -1.8456    3.2753 C   0  0  0  0  0  0  0  0  0  0  0  0
   -0.1124   -1.3338   -0.5981 C   0  0  0  0  0  0  0  0  0  0  0  0
   -0.1098   -2.5563   -0.7363 O   0  0  0  0  0  0  0  0  0  0  0  0
    0.9460   -0.5718   -0.9048 N   0  0  0  0  0  0  0  0  0  0  0  0
    0.8821    0.4175   -0.7110 H   0  0  0  0  0  0  0  0  0  0  0  0
    2.2051   -1.0888   -1.4338 C   0  0  0  0  0  0  0  0  0  0  0  0
    2.0078   -1.7207   -2.3019 H   0  0  0  0  0  0  0  0  0  0  0  0
    2.8558   -0.2642   -1.7276 H   0  0  0  0  0  0  0  0  0  0  0  0
    2.7037   -1.6885   -0.6704 H   0  0  0  0  0  0  0  0  0  0  0  0
  5  6  2  0  0  0  0
  5  7  1  0  0  0  0
  2  3  1  0  0  0  0
  2  4  1  0  0  0  0
  2  5  1  0  0  0  0
  1  2  1  0  0  0  0
 29 30  2  0  0  0  0
 29 31  1  0  0  0  0
 26 27  1  0  0  0  0
 26 28  2  0  0  0  0
 24 25  1  0  0  0  0
 24 26  1  0  0  0  0
 22 23  1  0  0  0  0
 22 24  2  0  0  0  0
 20 21  1  0  0  0  0
 20 22  1  0  0  0  0
 19 20  2  0  0  0  0
 19 28  1  0  0  0  0
 17 18  1  0  0  0  0
 17 19  1  0  0  0  0
 15 16  1  0  0  0  0
 15 17  1  0  0  0  0
 14 15  2  0  0  0  0
 14 28  1  0  0  0  0
 11 12  1  0  0  0  0
 11 13  1  0  0  0  0
 11 14  1  0  0  0  0
  9 10  1  0  0  0  0
  9 11  1  0  0  0  0
  9 29  1  0  0  0  0
  7  8  1  0  0  0  0
  7  9  1  0  0  0  0
 33 34  1  0  0  0  0
 33 35  1  0  0  0  0
 33 36  1  0  0  0  0
 31 32  1  0  0  0  0
 31 33  1  0  0  0  0
M  END
$$$$
default_name
  -OEChem-12212115393D

 36 37  0     1  0  0  0  0  0999 V2000
   -4.0843   -4.0736    1.2944 H   0  0  0  0  0  0  0  0  0  0  0  0
   -4.0342   -3.2816    0.5484 C   0  0  0  0  0  0  0  0  0  0  0  0
   -4.8842   -2.6126    0.6694 H   0  0  0  0  0  0  0  0  0  0  0  0
   -4.0433   -3.7186   -0.4486 H   0  0  0  0  0  0  0  0  0  0  0  0
   -2.7532   -2.5046    0.7444 C   0  0  0  0  0  0  0  0  0  0  0  0
   -1.9803   -2.8096    1.6434 O   0  0  0  0  0  0  0  0  0  0  0  0
   -2.5332   -1.4966   -0.0966 N   0  0  0  0  0  0  0  0  0  0  0  0
   -3.2312   -1.2816   -0.7936 H   0  0  0  0  0  0  0  0  0  0  0  0
   -1.3593   -0.6196   -0.0536 C   0  0  1  0  0  0  0  0  0  0  0  0
   -1.6354    0.3539   -0.4605 H   0  0  0  0  0  0  0  0  0  0  0  0
   -0.9203   -0.4222    1.4059 C   0  0  0  0  0  0  0  0  0  0  0  0
   -0.0616    0.2512    1.4269 H   0  0  0  0  0  0  0  0  0  0  0  0
   -1.7329    0.0617    1.9505 H   0  0  0  0  0  0  0  0  0  0  0  0
   -0.5428   -1.6773    2.1327 C   0  0  0  0  0  0  0  0  0  0  0  0
    0.6889   -2.2343    2.1530 C   0  0  0  0  0  0  0  0  0  0  0  0
    1.5517   -1.8437    1.6247 H   0  0  0  0  0  0  0  0  0  0  0  0
    0.6784   -3.3547    2.9605 N   0  0  0  0  0  0  0  0  0  0  0  0
    1.4899   -3.9336    3.1205 H   0  0  0  0  0  0  0  0  0  0  0  0
   -0.5646   -3.5674    3.5175 C   0  0  0  0  0  0  0  0  0  0  0  0
   -1.0645   -4.5303    4.4060 C   0  0  0  0  0  0  0  0  0  0  0  0
   -0.4219   -5.3114    4.7849 H   0  0  0  0  0  0  0  0  0  0  0  0
   -2.4134   -4.4656    4.7949 C   0  0  0  0  0  0  0  0  0  0  0  0
   -2.8167   -5.2003    5.4786 H   0  0  0  0  0  0  0  0  0  0  0  0
   -3.2409   -3.4469    4.2881 C   0  0  0  0  0  0  0  0  0  0  0  0
   -4.2802   -3.4058    4.5834 H   0  0  0  0  0  0  0  0  0  0  0  0
   -2.7283   -2.4856    3.3941 C   0  0  0  0  0  0  0  0  0  0  0  0
   -3.3782   -1.7162    3.0019 H   0  0  0  0  0  0  0  0  0  0  0  0
   -1.3764   -2.5194    2.9890 C   0  0  0  0  0  0  0  0  0  0  0  0
   -0.2187   -1.1758   -0.9200 C   0  0  0  0  0  0  0  0  0  0  0  0
   -0.3655   -2.2320   -1.5337 O   0  0  0  0  0  0  0  0  0  0  0  0
    0.9170   -0.4665   -0.9681 N   0  0  0  0  0  0  0  0  0  0  0  0
    0.9762    0.3613   -0.3924 H   0  0  0  0  0  0  0  0  0  0  0  0
    2.0937   -0.8510   -1.7427 C   0  0  0  0  0  0  0  0  0  0  0  0
    1.8041   -1.0552   -2.7752 H   0  0  0  0  0  0  0  0  0  0  0  0
    2.8325   -0.0487   -1.7266 H   0  0  0  0  0  0  0  0  0  0  0  0
    2.5325   -1.7549   -1.3169 H   0  0  0  0  0  0  0  0  0  0  0  0
  5  6  2  0  0  0  0
  5  7  1  0  0  0  0
  2  3  1  0  0  0  0
  2  4  1  0  0  0  0
  2  5  1  0  0  0  0
  1  2  1  0  0  0  0
 29 30  2  0  0  0  0
 29 31  1  0  0  0  0
 26 27  1  0  0  0  0
 26 28  2  0  0  0  0
 24 25  1  0  0  0  0
 24 26  1  0  0  0  0
 22 23  1  0  0  0  0
 22 24  2  0  0  0  0
 20 21  1  0  0  0  0
 20 22  1  0  0  0  0
 19 20  2  0  0  0  0
 19 28  1  0  0  0  0
 17 18  1  0  0  0  0
 17 19  1  0  0  0  0
 15 16  1  0  0  0  0
 15 17  1  0  0  0  0
 14 15  2  0  0  0  0
 14 28  1  0  0  0  0
 11 12  1  0  0  0  0
 11 13  1  0  0  0  0
 11 14  1  0  0  0  0
  9 10  1  0  0  0  0
  9 11  1  0  0  0  0
  9 29  1  0  0  0  0
  7  8  1  0  0  0  0
  7  9  1  0  0  0  0
 33 34  1  0  0  0  0
 33 35  1  0  0  0  0
 33 36  1  0  0  0  0
 31 32  1  0  0  0  0
 31 33  1  0  0  0  0
M  END
$$$$
default_name
  -OEChem-12212115393D

 36 37  0     1  0  0  0  0  0999 V2000
   -4.0843   -4.0736    1.2944 H   0  0  0  0  0  0  0  0  0  0  0  0
   -4.0342   -3.2816    0.5484 C   0  0  0  0  0  0  0  0  0  0  0  0
   -4.8842   -2.6126    0.6694 H   0  0  0  0  0  0  0  0  0  0  0  0
   -4.0433   -3.7186   -0.4486 H   0  0  0  0  0  0  0  0  0  0  0  0
   -2.7532   -2.5046    0.7444 C   0  0  0  0  0  0  0  0  0  0  0  0
   -1.9803   -2.8096    1.6434 O   0  0  0  0  0  0  0  0  0  0  0  0
   -2.5332   -1.4966   -0.0966 N   0  0  0  0  0  0  0  0  0  0  0  0
   -3.2312   -1.2816   -0.7936 H   0  0  0  0  0  0  0  0  0  0  0  0
   -1.3593   -0.6196   -0.0536 C   0  0  1  0  0  0  0  0  0  0  0  0
   -1.6354    0.3539   -0.4605 H   0  0  0  0  0  0  0  0  0  0  0  0
   -0.9203   -0.4222    1.4059 C   0  0  0  0  0  0  0  0  0  0  0  0
   -0.0616    0.2512    1.4269 H   0  0  0  0  0  0  0  0  0  0  0  0
   -1.7329    0.0617    1.9505 H   0  0  0  0  0  0  0  0  0  0  0  0
   -0.5428   -1.6773    2.1327 C   0  0  0  0  0  0  0  0  0  0  0  0
    0.6889   -2.2343    2.1530 C   0  0  0  0  0  0  0  0  0  0  0  0
    1.5517   -1.8437    1.6247 H   0  0  0  0  0  0  0  0  0  0  0  0
    0.6784   -3.3547    2.9605 N   0  0  0  0  0  0  0  0  0  0  0  0
    1.4899   -3.9336    3.1205 H   0  0  0  0  0  0  0  0  0  0  0  0
   -0.5646   -3.5674    3.5175 C   0  0  0  0  0  0  0  0  0  0  0  0
   -1.0645   -4.5303    4.4060 C   0  0  0  0  0  0  0  0  0  0  0  0
   -0.4219   -5.3114    4.7849 H   0  0  0  0  0  0  0  0  0  0  0  0
   -2.4134   -4.4656    4.7949 C   0  0  0  0  0  0  0  0  0  0  0  0
   -2.8167   -5.2003    5.4786 H   0  0  0  0  0  0  0  0  0  0  0  0
   -3.2409   -3.4469    4.2881 C   0  0  0  0  0  0  0  0  0  0  0  0
   -4.2802   -3.4058    4.5834 H   0  0  0  0  0  0  0  0  0  0  0  0
   -2.7283   -2.4856    3.3941 C   0  0  0  0  0  0  0  0  0  0  0  0
   -3.3782   -1.7162    3.0019 H   0  0  0  0  0  0  0  0  0  0  0  0
   -1.3764   -2.5194    2.9890 C   0  0  0  0  0  0  0  0  0  0  0  0
   -0.2187   -1.1758   -0.9200 C   0  0  0  0  0  0  0  0  0  0  0  0
   -0.4415   -2.0643   -1.7414 O   0  0  0  0  0  0  0  0  0  0  0  0
    1.0018   -0.6548   -0.7356 N   0  0  0  0  0  0  0  0  0  0  0  0
    1.1113    0.0327   -0.0037 H   0  0  0  0  0  0  0  0  0  0  0  0
    2.1916   -1.0669   -1.4752 C   0  0  0  0  0  0  0  0  0  0  0  0
    1.9900   -1.0290   -2.5474 H   0  0  0  0  0  0  0  0  0  0  0  0
    3.0270   -0.4059   -1.2412 H   0  0  0  0  0  0  0  0  0  0  0  0
    2.4540   -2.0910   -1.2044 H   0  0  0  0  0  0  0  0  0  0  0  0
  5  6  2  0  0  0  0
  5  7  1  0  0  0  0
  2  3  1  0  0  0  0
  2  4  1  0  0  0  0
  2  5  1  0  0  0  0
  1  2  1  0  0  0  0
 29 30  2  0  0  0  0
 29 31  1  0  0  0  0
 26 27  1  0  0  0  0
 26 28  2  0  0  0  0
 24 25  1  0  0  0  0
 24 26  1  0  0  0  0
 22 23  1  0  0  0  0
 22 24  2  0  0  0  0
 20 21  1  0  0  0  0
 20 22  1  0  0  0  0
 19 20  2  0  0  0  0
 19 28  1  0  0  0  0
 17 18  1  0  0  0  0
 17 19  1  0  0  0  0
 15 16  1  0  0  0  0
 15 17  1  0  0  0  0
 14 15  2  0  0  0  0
 14 28  1  0  0  0  0
 11 12  1  0  0  0  0
 11 13  1  0  0  0  0
 11 14  1  0  0  0  0
  9 10  1  0  0  0  0
  9 11  1  0  0  0  0
  9 29  1  0  0  0  0
  7  8  1  0  0  0  0
  7  9  1  0  0  0  0
 33 34  1  0  0  0  0
 33 35  1  0  0  0  0
 33 36  1  0  0  0  0
 31 32  1  0  0  0  0
 31 33  1  0  0  0  0
M  END
$$$$
default_name
  -OEChem-12212115393D

 36 37  0     1  0  0  0  0  0999 V2000
   -4.0843   -4.0736    1.2944 H   0  0  0  0  0  0  0  0  0  0  0  0
   -4.0342   -3.2816    0.5484 C   0  0  0  0  0  0  0  0  0  0  0  0
   -4.8842   -2.6126    0.6694 H   0  0  0  0  0  0  0  0  0  0  0  0
   -4.0433   -3.7186   -0.4486 H   0  0  0  0  0  0  0  0  0  0  0  0
   -2.7532   -2.5046    0.7444 C   0  0  0  0  0  0  0  0  0  0  0  0
   -1.9803   -2.8096    1.6434 O   0  0  0  0  0  0  0  0  0  0  0  0
   -2.5332   -1.4966   -0.0966 N   0  0  0  0  0  0  0  0  0  0  0  0
   -3.2312   -1.2816   -0.7936 H   0  0  0  0  0  0  0  0  0  0  0  0
   -1.3593   -0.6196   -0.0536 C   0  0  1  0  0  0  0  0  0  0  0  0
   -1.6354    0.3539   -0.4605 H   0  0  0  0  0  0  0  0  0  0  0  0
   -0.9203   -0.4222    1.4059 C   0  0  0  0  0  0  0  0  0  0  0  0
   -0.0616    0.2512    1.4269 H   0  0  0  0  0  0  0  0  0  0  0  0
   -1.7329    0.0617    1.9505 H   0  0  0  0  0  0  0  0  0  0  0  0
   -0.5428   -1.6773    2.1327 C   0  0  0  0  0  0  0  0  0  0  0  0
    0.6889   -2.2343    2.1530 C   0  0  0  0  0  0  0  0  0  0  0  0
    1.5517   -1.8437    1.6247 H   0  0  0  0  0  0  0  0  0  0  0  0
    0.6784   -3.3547    2.9605 N   0  0  0  0  0  0  0  0  0  0  0  0
    1.4899   -3.9336    3.1205 H   0  0  0  0  0  0  0  0  0  0  0  0
   -0.5646   -3.5674    3.5175 C   0  0  0  0  0  0  0  0  0  0  0  0
   -1.0645   -4.5303    4.4060 C   0  0  0  0  0  0  0  0  0  0  0  0
   -0.4219   -5.3114    4.7849 H   0  0  0  0  0  0  0  0  0  0  0  0
   -2.4134   -4.4656    4.7949 C   0  0  0  0  0  0  0  0  0  0  0  0
   -2.8167   -5.2003    5.4786 H   0  0  0  0  0  0  0  0  0  0  0  0
   -3.2409   -3.4469    4.2881 C   0  0  0  0  0  0  0  0  0  0  0  0
   -4.2802   -3.4058    4.5834 H   0  0  0  0  0  0  0  0  0  0  0  0
   -2.7283   -2.4856    3.3941 C   0  0  0  0  0  0  0  0  0  0  0  0
   -3.3782   -1.7162    3.0019 H   0  0  0  0  0  0  0  0  0  0  0  0
   -1.3764   -2.5194    2.9890 C   0  0  0  0  0  0  0  0  0  0  0  0
   -0.2187   -1.1758   -0.9200 C   0  0  0  0  0  0  0  0  0  0  0  0
   -0.4709   -1.8513   -1.9169 O   0  0  0  0  0  0  0  0  0  0  0  0
    1.0345   -0.8936   -0.5392 N   0  0  0  0  0  0  0  0  0  0  0  0
    1.1573   -0.3790    0.3212 H   0  0  0  0  0  0  0  0  0  0  0  0
    2.2295   -1.3412   -1.2492 C   0  0  0  0  0  0  0  0  0  0  0  0
    2.1519   -1.0745   -2.3049 H   0  0  0  0  0  0  0  0  0  0  0  0
    3.1174   -0.8726   -0.8226 H   0  0  0  0  0  0  0  0  0  0  0  0
    2.3187   -2.4257   -1.1677 H   0  0  0  0  0  0  0  0  0  0  0  0
  5  6  2  0  0  0  0
  5  7  1  0  0  0  0
  2  3  1  0  0  0  0
  2  4  1  0  0  0  0
  2  5  1  0  0  0  0
  1  2  1  0  0  0  0
 29 30  2  0  0  0  0
 29 31  1  0  0  0  0
 26 27  1  0  0  0  0
 26 28  2  0  0  0  0
 24 25  1  0  0  0  0
 24 26  1  0  0  0  0
 22 23  1  0  0  0  0
 22 24  2  0  0  0  0
 20 21  1  0  0  0  0
 20 22  1  0  0  0  0
 19 20  2  0  0  0  0
 19 28  1  0  0  0  0
 17 18  1  0  0  0  0
 17 19  1  0  0  0  0
 15 16  1  0  0  0  0
 15 17  1  0  0  0  0
 14 15  2  0  0  0  0
 14 28  1  0  0  0  0
 11 12  1  0  0  0  0
 11 13  1  0  0  0  0
 11 14  1  0  0  0  0
  9 10  1  0  0  0  0
  9 11  1  0  0  0  0
  9 29  1  0  0  0  0
  7  8  1  0  0  0  0
  7  9  1  0  0  0  0
 33 34  1  0  0  0  0
 33 35  1  0  0  0  0
 33 36  1  0  0  0  0
 31 32  1  0  0  0  0
 31 33  1  0  0  0  0
M  END
$$$$
default_name
  -OEChem-12212115393D

 36 37  0     1  0  0  0  0  0999 V2000
   -4.0843   -4.0736    1.2944 H   0  0  0  0  0  0  0  0  0  0  0  0
   -4.0342   -3.2816    0.5484 C   0  0  0  0  0  0  0  0  0  0  0  0
   -4.8842   -2.6126    0.6694 H   0  0  0  0  0  0  0  0  0  0  0  0
   -4.0433   -3.7186   -0.4486 H   0  0  0  0  0  0  0  0  0  0  0  0
   -2.7532   -2.5046    0.7444 C   0  0  0  0  0  0  0  0  0  0  0  0
   -1.9803   -2.8096    1.6434 O   0  0  0  0  0  0  0  0  0  0  0  0
   -2.5332   -1.4966   -0.0966 N   0  0  0  0  0  0  0  0  0  0  0  0
   -3.2312   -1.2816   -0.7936 H   0  0  0  0  0  0  0  0  0  0  0  0
   -1.3593   -0.6196   -0.0536 C   0  0  1  0  0  0  0  0  0  0  0  0
   -1.6354    0.3539   -0.4605 H   0  0  0  0  0  0  0  0  0  0  0  0
   -0.9203   -0.4222    1.4059 C   0  0  0  0  0  0  0  0  0  0  0  0
   -0.0616    0.2512    1.4269 H   0  0  0  0  0  0  0  0  0  0  0  0
   -1.7329    0.0617    1.9505 H   0  0  0  0  0  0  0  0  0  0  0  0
   -0.5428   -1.6773    2.1327 C   0  0  0  0  0  0  0  0  0  0  0  0
    0.6889   -2.2343    2.1530 C   0  0  0  0  0  0  0  0  0  0  0  0
    1.5517   -1.8437    1.6247 H   0  0  0  0  0  0  0  0  0  0  0  0
    0.6784   -3.3547    2.9605 N   0  0  0  0  0  0  0  0  0  0  0  0
    1.4899   -3.9336    3.1205 H   0  0  0  0  0  0  0  0  0  0  0  0
   -0.5646   -3.5674    3.5175 C   0  0  0  0  0  0  0  0  0  0  0  0
   -1.0645   -4.5303    4.4060 C   0  0  0  0  0  0  0  0  0  0  0  0
   -0.4219   -5.3114    4.7849 H   0  0  0  0  0  0  0  0  0  0  0  0
   -2.4134   -4.4656    4.7949 C   0  0  0  0  0  0  0  0  0  0  0  0
   -2.8167   -5.2003    5.4786 H   0  0  0  0  0  0  0  0  0  0  0  0
   -3.2409   -3.4469    4.2881 C   0  0  0  0  0  0  0  0  0  0  0  0
   -4.2802   -3.4058    4.5834 H   0  0  0  0  0  0  0  0  0  0  0  0
   -2.7283   -2.4856    3.3941 C   0  0  0  0  0  0  0  0  0  0  0  0
   -3.3782   -1.7162    3.0019 H   0  0  0  0  0  0  0  0  0  0  0  0
   -1.3764   -2.5194    2.9890 C   0  0  0  0  0  0  0  0  0  0  0  0
   -0.2187   -1.1758   -0.9200 C   0  0  0  0  0  0  0  0  0  0  0  0
   -0.4519   -1.6076   -2.0482 O   0  0  0  0  0  0  0  0  0  0  0  0
    1.0128   -1.1669   -0.3923 N   0  0  0  0  0  0  0  0  0  0  0  0
    1.1113   -0.8458    0.5603 H   0  0  0  0  0  0  0  0  0  0  0  0
    2.2050   -1.6550   -1.0800 C   0  0  0  0  0  0  0  0  0  0  0  0
    2.2790   -1.1888   -2.0643 H   0  0  0  0  0  0  0  0  0  0  0  0
    3.0973   -1.4170   -0.4996 H   0  0  0  0  0  0  0  0  0  0  0  0
    2.1356   -2.7364   -1.2093 H   0  0  0  0  0  0  0  0  0  0  0  0
  5  6  2  0  0  0  0
  5  7  1  0  0  0  0
  2  3  1  0  0  0  0
  2  4  1  0  0  0  0
  2  5  1  0  0  0  0
  1  2  1  0  0  0  0
 29 30  2  0  0  0  0
 29 31  1  0  0  0  0
 26 27  1  0  0  0  0
 26 28  2  0  0  0  0
 24 25  1  0  0  0  0
 24 26  1  0  0  0  0
 22 23  1  0  0  0  0
 22 24  2  0  0  0  0
 20 21  1  0  0  0  0
 20 22  1  0  0  0  0
 19 20  2  0  0  0  0
 19 28  1  0  0  0  0
 17 18  1  0  0  0  0
 17 19  1  0  0  0  0
 15 16  1  0  0  0  0
 15 17  1  0  0  0  0
 14 15  2  0  0  0  0
 14 28  1  0  0  0  0
 11 12  1  0  0  0  0
 11 13  1  0  0  0  0
 11 14  1  0  0  0  0
  9 10  1  0  0  0  0
  9 11  1  0  0  0  0
  9 29  1  0  0  0  0
  7  8  1  0  0  0  0
  7  9  1  0  0  0  0
 33 34  1  0  0  0  0
 33 35  1  0  0  0  0
 33 36  1  0  0  0  0
 31 32  1  0  0  0  0
 31 33  1  0  0  0  0
M  END
$$$$
default_name
  -OEChem-12212115393D

 36 37  0     1  0  0  0  0  0999 V2000
   -4.0843   -4.0736    1.2944 H   0  0  0  0  0  0  0  0  0  0  0  0
   -4.0342   -3.2816    0.5484 C   0  0  0  0  0  0  0  0  0  0  0  0
   -4.8842   -2.6126    0.6694 H   0  0  0  0  0  0  0  0  0  0  0  0
   -4.0433   -3.7186   -0.4486 H   0  0  0  0  0  0  0  0  0  0  0  0
   -2.7532   -2.5046    0.7444 C   0  0  0  0  0  0  0  0  0  0  0  0
   -1.9803   -2.8096    1.6434 O   0  0  0  0  0  0  0  0  0  0  0  0
   -2.5332   -1.4966   -0.0966 N   0  0  0  0  0  0  0  0  0  0  0  0
   -3.2312   -1.2816   -0.7936 H   0  0  0  0  0  0  0  0  0  0  0  0
   -1.3593   -0.6196   -0.0536 C   0  0  1  0  0  0  0  0  0  0  0  0
   -1.6354    0.3539   -0.4605 H   0  0  0  0  0  0  0  0  0  0  0  0
   -0.9203   -0.4222    1.4059 C   0  0  0  0  0  0  0  0  0  0  0  0
   -0.0616    0.2512    1.4269 H   0  0  0  0  0  0  0  0  0  0  0  0
   -1.7329    0.0617    1.9505 H   0  0  0  0  0  0  0  0  0  0  0  0
   -0.5428   -1.6773    2.1327 C   0  0  0  0  0  0  0  0  0  0  0  0
    0.6889   -2.2343    2.1530 C   0  0  0  0  0  0  0  0  0  0  0  0
    1.5517   -1.8437    1.6247 H   0  0  0  0  0  0  0  0  0  0  0  0
    0.6784   -3.3547    2.9605 N   0  0  0  0  0  0  0  0  0  0  0  0
    1.4899   -3.9336    3.1205 H   0  0  0  0  0  0  0  0  0  0  0  0
   -0.5646   -3.5674    3.5175 C   0  0  0  0  0  0  0  0  0  0  0  0
   -1.0645   -4.5303    4.4060 C   0  0  0  0  0  0  0  0  0  0  0  0
   -0.4219   -5.3114    4.7849 H   0  0  0  0  0  0  0  0  0  0  0  0
   -2.4134   -4.4656    4.7949 C   0  0  0  0  0  0  0  0  0  0  0  0
   -2.8167   -5.2003    5.4786 H   0  0  0  0  0  0  0  0  0  0  0  0
   -3.2409   -3.4469    4.2881 C   0  0  0  0  0  0  0  0  0  0  0  0
   -4.2802   -3.4058    4.5834 H   0  0  0  0  0  0  0  0  0  0  0  0
   -2.7283   -2.4856    3.3941 C   0  0  0  0  0  0  0  0  0  0  0  0
   -3.3782   -1.7162    3.0019 H   0  0  0  0  0  0  0  0  0  0  0  0
   -1.3764   -2.5194    2.9890 C   0  0  0  0  0  0  0  0  0  0  0  0
   -0.2187   -1.1758   -0.9200 C   0  0  0  0  0  0  0  0  0  0  0  0
   -0.3856   -1.3497   -2.1265 O   0  0  0  0  0  0  0  0  0  0  0  0
    0.9383   -1.4559   -0.3050 N   0  0  0  0  0  0  0  0  0  0  0  0
    0.9763   -1.3360    0.6972 H   0  0  0  0  0  0  0  0  0  0  0  0
    2.1196   -1.9871   -0.9792 C   0  0  0  0  0  0  0  0  0  0  0  0
    2.3626   -1.3639   -1.8419 H   0  0  0  0  0  0  0  0  0  0  0  0
    2.9682   -2.0020   -0.2940 H   0  0  0  0  0  0  0  0  0  0  0  0
    1.9174   -3.0017   -1.3262 H   0  0  0  0  0  0  0  0  0  0  0  0
  5  6  2  0  0  0  0
  5  7  1  0  0  0  0
  2  3  1  0  0  0  0
  2  4  1  0  0  0  0
  2  5  1  0  0  0  0
  1  2  1  0  0  0  0
 29 30  2  0  0  0  0
 29 31  1  0  0  0  0
 26 27  1  0  0  0  0
 26 28  2  0  0  0  0
 24 25  1  0  0  0  0
 24 26  1  0  0  0  0
 22 23  1  0  0  0  0
 22 24  2  0  0  0  0
 20 21  1  0  0  0  0
 20 22  1  0  0  0  0
 19 20  2  0  0  0  0
 19 28  1  0  0  0  0
 17 18  1  0  0  0  0
 17 19  1  0  0  0  0
 15 16  1  0  0  0  0
 15 17  1  0  0  0  0
 14 15  2  0  0  0  0
 14 28  1  0  0  0  0
 11 12  1  0  0  0  0
 11 13  1  0  0  0  0
 11 14  1  0  0  0  0
  9 10  1  0  0  0  0
  9 11  1  0  0  0  0
  9 29  1  0  0  0  0
  7  8  1  0  0  0  0
  7  9  1  0  0  0  0
 33 34  1  0  0  0  0
 33 35  1  0  0  0  0
 33 36  1  0  0  0  0
 31 32  1  0  0  0  0
 31 33  1  0  0  0  0
M  END
$$$$
default_name
  -OEChem-12212115393D

 36 37  0     1  0  0  0  0  0999 V2000
   -4.0843   -4.0736    1.2944 H   0  0  0  0  0  0  0  0  0  0  0  0
   -4.0342   -3.2816    0.5484 C   0  0  0  0  0  0  0  0  0  0  0  0
   -4.8842   -2.6126    0.6694 H   0  0  0  0  0  0  0  0  0  0  0  0
   -4.0433   -3.7186   -0.4486 H   0  0  0  0  0  0  0  0  0  0  0  0
   -2.7532   -2.5046    0.7444 C   0  0  0  0  0  0  0  0  0  0  0  0
   -1.9803   -2.8096    1.6434 O   0  0  0  0  0  0  0  0  0  0  0  0
   -2.5332   -1.4966   -0.0966 N   0  0  0  0  0  0  0  0  0  0  0  0
   -3.2312   -1.2816   -0.7936 H   0  0  0  0  0  0  0  0  0  0  0  0
   -1.3593   -0.6196   -0.0536 C   0  0  1  0  0  0  0  0  0  0  0  0
   -1.6354    0.3539   -0.4605 H   0  0  0  0  0  0  0  0  0  0  0  0
   -0.9203   -0.4222    1.4059 C   0  0  0  0  0  0  0  0  0  0  0  0
   -0.0616    0.2512    1.4269 H   0  0  0  0  0  0  0  0  0  0  0  0
   -1.7329    0.0617    1.9505 H   0  0  0  0  0  0  0  0  0  0  0  0
   -0.5428   -1.6773    2.1327 C   0  0  0  0  0  0  0  0  0  0  0  0
    0.6889   -2.2343    2.1530 C   0  0  0  0  0  0  0  0  0  0  0  0
    1.5517   -1.8437    1.6247 H   0  0  0  0  0  0  0  0  0  0  0  0
    0.6784   -3.3547    2.9605 N   0  0  0  0  0  0  0  0  0  0  0  0
    1.4899   -3.9336    3.1205 H   0  0  0  0  0  0  0  0  0  0  0  0
   -0.5646   -3.5674    3.5175 C   0  0  0  0  0  0  0  0  0  0  0  0
   -1.0645   -4.5303    4.4060 C   0  0  0  0  0  0  0  0  0  0  0  0
   -0.4219   -5.3114    4.7849 H   0  0  0  0  0  0  0  0  0  0  0  0
   -2.4134   -4.4656    4.7949 C   0  0  0  0  0  0  0  0  0  0  0  0
   -2.8167   -5.2003    5.4786 H   0  0  0  0  0  0  0  0  0  0  0  0
   -3.2409   -3.4469    4.2881 C   0  0  0  0  0  0  0  0  0  0  0  0
   -4.2802   -3.4058    4.5834 H   0  0  0  0  0  0  0  0  0  0  0  0
   -2.7283   -2.4856    3.3941 C   0  0  0  0  0  0  0  0  0  0  0  0
   -3.3782   -1.7162    3.0019 H   0  0  0  0  0  0  0  0  0  0  0  0
   -1.3764   -2.5194    2.9890 C   0  0  0  0  0  0  0  0  0  0  0  0
   -0.2187   -1.1758   -0.9200 C   0  0  0  0  0  0  0  0  0  0  0  0
   -0.2766   -1.0953   -2.1463 O   0  0  0  0  0  0  0  0  0  0  0  0
    0.8159   -1.7409   -0.2832 N   0  0  0  0  0  0  0  0  0  0  0  0
    0.7615   -1.8160    0.7227 H   0  0  0  0  0  0  0  0  0  0  0  0
    1.9793   -2.3148   -0.9536 C   0  0  0  0  0  0  0  0  0  0  0  0
    2.3969   -1.5879   -1.6529 H   0  0  0  0  0  0  0  0  0  0  0  0
    2.7388   -2.5878   -0.2199 H   0  0  0  0  0  0  0  0  0  0  0  0
    1.6788   -3.2037   -1.5107 H   0  0  0  0  0  0  0  0  0  0  0  0
  5  6  2  0  0  0  0
  5  7  1  0  0  0  0
  2  3  1  0  0  0  0
  2  4  1  0  0  0  0
  2  5  1  0  0  0  0
  1  2  1  0  0  0  0
 29 30  2  0  0  0  0
 29 31  1  0  0  0  0
 26 27  1  0  0  0  0
 26 28  2  0  0  0  0
 24 25  1  0  0  0  0
 24 26  1  0  0  0  0
 22 23  1  0  0  0  0
 22 24  2  0  0  0  0
 20 21  1  0  0  0  0
 20 22  1  0  0  0  0
 19 20  2  0  0  0  0
 19 28  1  0  0  0  0
 17 18  1  0  0  0  0
 17 19  1  0  0  0  0
 15 16  1  0  0  0  0
 15 17  1  0  0  0  0
 14 15  2  0  0  0  0
 14 28  1  0  0  0  0
 11 12  1  0  0  0  0
 11 13  1  0  0  0  0
 11 14  1  0  0  0  0
  9 10  1  0  0  0  0
  9 11  1  0  0  0  0
  9 29  1  0  0  0  0
  7  8  1  0  0  0  0
  7  9  1  0  0  0  0
 33 34  1  0  0  0  0
 33 35  1  0  0  0  0
 33 36  1  0  0  0  0
 31 32  1  0  0  0  0
 31 33  1  0  0  0  0
M  END
$$$$
default_name
  -OEChem-12212115393D

 36 37  0     1  0  0  0  0  0999 V2000
   -4.0843   -4.0736    1.2944 H   0  0  0  0  0  0  0  0  0  0  0  0
   -4.0342   -3.2816    0.5484 C   0  0  0  0  0  0  0  0  0  0  0  0
   -4.8842   -2.6126    0.6694 H   0  0  0  0  0  0  0  0  0  0  0  0
   -4.0433   -3.7186   -0.4486 H   0  0  0  0  0  0  0  0  0  0  0  0
   -2.7532   -2.5046    0.7444 C   0  0  0  0  0  0  0  0  0  0  0  0
   -1.9803   -2.8096    1.6434 O   0  0  0  0  0  0  0  0  0  0  0  0
   -2.5332   -1.4966   -0.0966 N   0  0  0  0  0  0  0  0  0  0  0  0
   -3.2312   -1.2816   -0.7936 H   0  0  0  0  0  0  0  0  0  0  0  0
   -1.3593   -0.6196   -0.0536 C   0  0  1  0  0  0  0  0  0  0  0  0
   -1.6354    0.3539   -0.4605 H   0  0  0  0  0  0  0  0  0  0  0  0
   -0.9203   -0.4222    1.4059 C   0  0  0  0  0  0  0  0  0  0  0  0
   -0.0616    0.2512    1.4269 H   0  0  0  0  0  0  0  0  0  0  0  0
   -1.7329    0.0617    1.9505 H   0  0  0  0  0  0  0  0  0  0  0  0
   -0.5428   -1.6773    2.1327 C   0  0  0  0  0  0  0  0  0  0  0  0
    0.6889   -2.2343    2.1530 C   0  0  0  0  0  0  0  0  0  0  0  0
    1.5517   -1.8437    1.6247 H   0  0  0  0  0  0  0  0  0  0  0  0
    0.6784   -3.3547    2.9605 N   0  0  0  0  0  0  0  0  0  0  0  0
    1.4899   -3.9336    3.1205 H   0  0  0  0  0  0  0  0  0  0  0  0
   -0.5646   -3.5674    3.5175 C   0  0  0  0  0  0  0  0  0  0  0  0
   -1.0645   -4.5303    4.4060 C   0  0  0  0  0  0  0  0  0  0  0  0
   -0.4219   -5.3114    4.7849 H   0  0  0  0  0  0  0  0  0  0  0  0
   -2.4134   -4.4656    4.7949 C   0  0  0  0  0  0  0  0  0  0  0  0
   -2.8167   -5.2003    5.4786 H   0  0  0  0  0  0  0  0  0  0  0  0
   -3.2409   -3.4469    4.2881 C   0  0  0  0  0  0  0  0  0  0  0  0
   -4.2802   -3.4058    4.5834 H   0  0  0  0  0  0  0  0  0  0  0  0
   -2.7283   -2.4856    3.3941 C   0  0  0  0  0  0  0  0  0  0  0  0
   -3.3782   -1.7162    3.0019 H   0  0  0  0  0  0  0  0  0  0  0  0
   -1.3764   -2.5194    2.9890 C   0  0  0  0  0  0  0  0  0  0  0  0
   -0.2187   -1.1758   -0.9200 C   0  0  0  0  0  0  0  0  0  0  0  0
   -0.1323   -0.8616   -2.1064 O   0  0  0  0  0  0  0  0  0  0  0  0
    0.6540   -2.0025   -0.3283 N   0  0  0  0  0  0  0  0  0  0  0  0
    0.4816   -2.2533    0.6349 H   0  0  0  0  0  0  0  0  0  0  0  0
    1.7935   -2.6157   -1.0050 C   0  0  0  0  0  0  0  0  0  0  0  0
    2.3796   -1.8457   -1.5102 H   0  0  0  0  0  0  0  0  0  0  0  0
    2.4249   -3.1343   -0.2824 H   0  0  0  0  0  0  0  0  0  0  0  0
    1.4361   -3.3286   -1.7499 H   0  0  0  0  0  0  0  0  0  0  0  0
  5  6  2  0  0  0  0
  5  7  1  0  0  0  0
  2  3  1  0  0  0  0
  2  4  1  0  0  0  0
  2  5  1  0  0  0  0
  1  2  1  0  0  0  0
 29 30  2  0  0  0  0
 29 31  1  0  0  0  0
 26 27  1  0  0  0  0
 26 28  2  0  0  0  0
 24 25  1  0  0  0  0
 24 26  1  0  0  0  0
 22 23  1  0  0  0  0
 22 24  2  0  0  0  0
 20 21  1  0  0  0  0
 20 22  1  0  0  0  0
 19 20  2  0  0  0  0
 19 28  1  0  0  0  0
 17 18  1  0  0  0  0
 17 19  1  0  0  0  0
 15 16  1  0  0  0  0
 15 17  1  0  0  0  0
 14 15  2  0  0  0  0
 14 28  1  0  0  0  0
 11 12  1  0  0  0  0
 11 13  1  0  0  0  0
 11 14  1  0  0  0  0
  9 10  1  0  0  0  0
  9 11  1  0  0  0  0
  9 29  1  0  0  0  0
  7  8  1  0  0  0  0
  7  9  1  0  0  0  0
 33 34  1  0  0  0  0
 33 35  1  0  0  0  0
 33 36  1  0  0  0  0
 31 32  1  0  0  0  0
 31 33  1  0  0  0  0
M  END
$$$$
default_name
  -OEChem-12212115393D

 36 37  0     1  0  0  0  0  0999 V2000
   -4.0843   -4.0736    1.2944 H   0  0  0  0  0  0  0  0  0  0  0  0
   -4.0342   -3.2816    0.5484 C   0  0  0  0  0  0  0  0  0  0  0  0
   -4.8842   -2.6126    0.6694 H   0  0  0  0  0  0  0  0  0  0  0  0
   -4.0433   -3.7186   -0.4486 H   0  0  0  0  0  0  0  0  0  0  0  0
   -2.7532   -2.5046    0.7444 C   0  0  0  0  0  0  0  0  0  0  0  0
   -1.9803   -2.8096    1.6434 O   0  0  0  0  0  0  0  0  0  0  0  0
   -2.5332   -1.4966   -0.0966 N   0  0  0  0  0  0  0  0  0  0  0  0
   -3.2312   -1.2816   -0.7936 H   0  0  0  0  0  0  0  0  0  0  0  0
   -1.3593   -0.6196   -0.0536 C   0  0  1  0  0  0  0  0  0  0  0  0
   -1.6354    0.3539   -0.4605 H   0  0  0  0  0  0  0  0  0  0  0  0
   -0.9203   -0.4222    1.4059 C   0  0  0  0  0  0  0  0  0  0  0  0
   -0.0616    0.2512    1.4269 H   0  0  0  0  0  0  0  0  0  0  0  0
   -1.7329    0.0617    1.9505 H   0  0  0  0  0  0  0  0  0  0  0  0
   -0.5428   -1.6773    2.1327 C   0  0  0  0  0  0  0  0  0  0  0  0
    0.6889   -2.2343    2.1530 C   0  0  0  0  0  0  0  0  0  0  0  0
    1.5517   -1.8437    1.6247 H   0  0  0  0  0  0  0  0  0  0  0  0
    0.6784   -3.3547    2.9605 N   0  0  0  0  0  0  0  0  0  0  0  0
    1.4899   -3.9336    3.1205 H   0  0  0  0  0  0  0  0  0  0  0  0
   -0.5646   -3.5674    3.5175 C   0  0  0  0  0  0  0  0  0  0  0  0
   -1.0645   -4.5303    4.4060 C   0  0  0  0  0  0  0  0  0  0  0  0
   -0.4219   -5.3114    4.7849 H   0  0  0  0  0  0  0  0  0  0  0  0
   -2.4134   -4.4656    4.7949 C   0  0  0  0  0  0  0  0  0  0  0  0
   -2.8167   -5.2003    5.4786 H   0  0  0  0  0  0  0  0  0  0  0  0
   -3.2409   -3.4469    4.2881 C   0  0  0  0  0  0  0  0  0  0  0  0
   -4.2802   -3.4058    4.5834 H   0  0  0  0  0  0  0  0  0  0  0  0
   -2.7283   -2.4856    3.3941 C   0  0  0  0  0  0  0  0  0  0  0  0
   -3.3782   -1.7162    3.0019 H   0  0  0  0  0  0  0  0  0  0  0  0
   -1.3764   -2.5194    2.9890 C   0  0  0  0  0  0  0  0  0  0  0  0
   -0.2187   -1.1758   -0.9200 C   0  0  0  0  0  0  0  0  0  0  0  0
    0.0374   -0.6647   -2.0094 O   0  0  0  0  0  0  0  0  0  0  0  0
    0.4637   -2.2230   -0.4373 N   0  0  0  0  0  0  0  0  0  0  0  0
    0.1557   -2.6179    0.4399 H   0  0  0  0  0  0  0  0  0  0  0  0
    1.5749   -2.8694   -1.1299 C   0  0  0  0  0  0  0  0  0  0  0  0
    2.3119   -2.1196   -1.4235 H   0  0  0  0  0  0  0  0  0  0  0  0
    2.0477   -3.6044   -0.4771 H   0  0  0  0  0  0  0  0  0  0  0  0
    1.2059   -3.3679   -2.0278 H   0  0  0  0  0  0  0  0  0  0  0  0
  5  6  2  0  0  0  0
  5  7  1  0  0  0  0
  2  3  1  0  0  0  0
  2  4  1  0  0  0  0
  2  5  1  0  0  0  0
  1  2  1  0  0  0  0
 29 30  2  0  0  0  0
 29 31  1  0  0  0  0
 26 27  1  0  0  0  0
 26 28  2  0  0  0  0
 24 25  1  0  0  0  0
 24 26  1  0  0  0  0
 22 23  1  0  0  0  0
 22 24  2  0  0  0  0
 20 21  1  0  0  0  0
 20 22  1  0  0  0  0
 19 20  2  0  0  0  0
 19 28  1  0  0  0  0
 17 18  1  0  0  0  0
 17 19  1  0  0  0  0
 15 16  1  0  0  0  0
 15 17  1  0  0  0  0
 14 15  2  0  0  0  0
 14 28  1  0  0  0  0
 11 12  1  0  0  0  0
 11 13  1  0  0  0  0
 11 14  1  0  0  0  0
  9 10  1  0  0  0  0
  9 11  1  0  0  0  0
  9 29  1  0  0  0  0
  7  8  1  0  0  0  0
  7  9  1  0  0  0  0
 33 34  1  0  0  0  0
 33 35  1  0  0  0  0
 33 36  1  0  0  0  0
 31 32  1  0  0  0  0
 31 33  1  0  0  0  0
M  END
$$$$
default_name
  -OEChem-12212115393D

 36 37  0     1  0  0  0  0  0999 V2000
   -4.0843   -4.0736    1.2944 H   0  0  0  0  0  0  0  0  0  0  0  0
   -4.0342   -3.2816    0.5484 C   0  0  0  0  0  0  0  0  0  0  0  0
   -4.8842   -2.6126    0.6694 H   0  0  0  0  0  0  0  0  0  0  0  0
   -4.0433   -3.7186   -0.4486 H   0  0  0  0  0  0  0  0  0  0  0  0
   -2.7532   -2.5046    0.7444 C   0  0  0  0  0  0  0  0  0  0  0  0
   -1.9803   -2.8096    1.6434 O   0  0  0  0  0  0  0  0  0  0  0  0
   -2.5332   -1.4966   -0.0966 N   0  0  0  0  0  0  0  0  0  0  0  0
   -3.2312   -1.2816   -0.7936 H   0  0  0  0  0  0  0  0  0  0  0  0
   -1.3593   -0.6196   -0.0536 C   0  0  1  0  0  0  0  0  0  0  0  0
   -1.6354    0.3539   -0.4605 H   0  0  0  0  0  0  0  0  0  0  0  0
   -0.9203   -0.4222    1.4059 C   0  0  0  0  0  0  0  0  0  0  0  0
   -0.0616    0.2512    1.4269 H   0  0  0  0  0  0  0  0  0  0  0  0
   -1.7329    0.0617    1.9505 H   0  0  0  0  0  0  0  0  0  0  0  0
   -0.5428   -1.6773    2.1327 C   0  0  0  0  0  0  0  0  0  0  0  0
    0.6889   -2.2343    2.1530 C   0  0  0  0  0  0  0  0  0  0  0  0
    1.5517   -1.8437    1.6247 H   0  0  0  0  0  0  0  0  0  0  0  0
    0.6784   -3.3547    2.9605 N   0  0  0  0  0  0  0  0  0  0  0  0
    1.4899   -3.9336    3.1205 H   0  0  0  0  0  0  0  0  0  0  0  0
   -0.5646   -3.5674    3.5175 C   0  0  0  0  0  0  0  0  0  0  0  0
   -1.0645   -4.5303    4.4060 C   0  0  0  0  0  0  0  0  0  0  0  0
   -0.4219   -5.3114    4.7849 H   0  0  0  0  0  0  0  0  0  0  0  0
   -2.4134   -4.4656    4.7949 C   0  0  0  0  0  0  0  0  0  0  0  0
   -2.8167   -5.2003    5.4786 H   0  0  0  0  0  0  0  0  0  0  0  0
   -3.2409   -3.4469    4.2881 C   0  0  0  0  0  0  0  0  0  0  0  0
   -4.2802   -3.4058    4.5834 H   0  0  0  0  0  0  0  0  0  0  0  0
   -2.7283   -2.4856    3.3941 C   0  0  0  0  0  0  0  0  0  0  0  0
   -3.3782   -1.7162    3.0019 H   0  0  0  0  0  0  0  0  0  0  0  0
   -1.3764   -2.5194    2.9890 C   0  0  0  0  0  0  0  0  0  0  0  0
   -0.2187   -1.1758   -0.9200 C   0  0  0  0  0  0  0  0  0  0  0  0
    0.2210   -0.5178   -1.8620 O   0  0  0  0  0  0  0  0  0  0  0  0
    0.2579   -2.3872   -0.6028 N   0  0  0  0  0  0  0  0  0  0  0  0
   -0.1941   -2.8850    0.1509 H   0  0  0  0  0  0  0  0  0  0  0  0
    1.3385   -3.0586   -1.3197 C   0  0  0  0  0  0  0  0  0  0  0  0
    2.1985   -2.3909   -1.3986 H   0  0  0  0  0  0  0  0  0  0  0  0
    1.6330   -3.9660   -0.7909 H   0  0  0  0  0  0  0  0  0  0  0  0
    1.0039   -3.3188   -2.3253 H   0  0  0  0  0  0  0  0  0  0  0  0
  5  6  2  0  0  0  0
  5  7  1  0  0  0  0
  2  3  1  0  0  0  0
  2  4  1  0  0  0  0
  2  5  1  0  0  0  0
  1  2  1  0  0  0  0
 29 30  2  0  0  0  0
 29 31  1  0  0  0  0
 26 27  1  0  0  0  0
 26 28  2  0  0  0  0
 24 25  1  0  0  0  0
 24 26  1  0  0  0  0
 22 23  1  0  0  0  0
 22 24  2  0  0  0  0
 20 21  1  0  0  0  0
 20 22  1  0  0  0  0
 19 20  2  0  0  0  0
 19 28  1  0  0  0  0
 17 18  1  0  0  0  0
 17 19  1  0  0  0  0
 15 16  1  0  0  0  0
 15 17  1  0  0  0  0
 14 15  2  0  0  0  0
 14 28  1  0  0  0  0
 11 12  1  0  0  0  0
 11 13  1  0  0  0  0
 11 14  1  0  0  0  0
  9 10  1  0  0  0  0
  9 11  1  0  0  0  0
  9 29  1  0  0  0  0
  7  8  1  0  0  0  0
  7  9  1  0  0  0  0
 33 34  1  0  0  0  0
 33 35  1  0  0  0  0
 33 36  1  0  0  0  0
 31 32  1  0  0  0  0
 31 33  1  0  0  0  0
M  END
$$$$
default_name
  -OEChem-12212115393D

 36 37  0     1  0  0  0  0  0999 V2000
   -4.0843   -4.0736    1.2944 H   0  0  0  0  0  0  0  0  0  0  0  0
   -4.0342   -3.2816    0.5484 C   0  0  0  0  0  0  0  0  0  0  0  0
   -4.8842   -2.6126    0.6694 H   0  0  0  0  0  0  0  0  0  0  0  0
   -4.0433   -3.7186   -0.4486 H   0  0  0  0  0  0  0  0  0  0  0  0
   -2.7532   -2.5046    0.7444 C   0  0  0  0  0  0  0  0  0  0  0  0
   -1.9803   -2.8096    1.6434 O   0  0  0  0  0  0  0  0  0  0  0  0
   -2.5332   -1.4966   -0.0966 N   0  0  0  0  0  0  0  0  0  0  0  0
   -3.2312   -1.2816   -0.7936 H   0  0  0  0  0  0  0  0  0  0  0  0
   -1.3593   -0.6196   -0.0536 C   0  0  1  0  0  0  0  0  0  0  0  0
   -1.6354    0.3539   -0.4605 H   0  0  0  0  0  0  0  0  0  0  0  0
   -0.9203   -0.4222    1.4059 C   0  0  0  0  0  0  0  0  0  0  0  0
   -0.0616    0.2512    1.4269 H   0  0  0  0  0  0  0  0  0  0  0  0
   -1.7329    0.0617    1.9505 H   0  0  0  0  0  0  0  0  0  0  0  0
   -0.5428   -1.6773    2.1327 C   0  0  0  0  0  0  0  0  0  0  0  0
    0.6889   -2.2343    2.1530 C   0  0  0  0  0  0  0  0  0  0  0  0
    1.5517   -1.8437    1.6247 H   0  0  0  0  0  0  0  0  0  0  0  0
    0.6784   -3.3547    2.9605 N   0  0  0  0  0  0  0  0  0  0  0  0
    1.4899   -3.9336    3.1205 H   0  0  0  0  0  0  0  0  0  0  0  0
   -0.5646   -3.5674    3.5175 C   0  0  0  0  0  0  0  0  0  0  0  0
   -1.0645   -4.5303    4.4060 C   0  0  0  0  0  0  0  0  0  0  0  0
   -0.4219   -5.3114    4.7849 H   0  0  0  0  0  0  0  0  0  0  0  0
   -2.4134   -4.4656    4.7949 C   0  0  0  0  0  0  0  0  0  0  0  0
   -2.8167   -5.2003    5.4786 H   0  0  0  0  0  0  0  0  0  0  0  0
   -3.2409   -3.4469    4.2881 C   0  0  0  0  0  0  0  0  0  0  0  0
   -4.2802   -3.4058    4.5834 H   0  0  0  0  0  0  0  0  0  0  0  0
   -2.7283   -2.4856    3.3941 C   0  0  0  0  0  0  0  0  0  0  0  0
   -3.3782   -1.7162    3.0019 H   0  0  0  0  0  0  0  0  0  0  0  0
   -1.3764   -2.5194    2.9890 C   0  0  0  0  0  0  0  0  0  0  0  0
   -0.2187   -1.1758   -0.9200 C   0  0  0  0  0  0  0  0  0  0  0  0
    0.4060   -0.4310   -1.6742 O   0  0  0  0  0  0  0  0  0  0  0  0
    0.0507   -2.4840   -0.8135 N   0  0  0  0  0  0  0  0  0  0  0  0
   -0.5439   -3.0366   -0.2123 H   0  0  0  0  0  0  0  0  0  0  0  0
    1.1003   -3.1704   -1.5616 C   0  0  0  0  0  0  0  0  0  0  0  0
    2.0470   -2.6412   -1.4374 H   0  0  0  0  0  0  0  0  0  0  0  0
    1.2091   -4.1945   -1.2023 H   0  0  0  0  0  0  0  0  0  0  0  0
    0.8437   -3.1847   -2.6221 H   0  0  0  0  0  0  0  0  0  0  0  0
  5  6  2  0  0  0  0
  5  7  1  0  0  0  0
  2  3  1  0  0  0  0
  2  4  1  0  0  0  0
  2  5  1  0  0  0  0
  1  2  1  0  0  0  0
 29 30  2  0  0  0  0
 29 31  1  0  0  0  0
 26 27  1  0  0  0  0
 26 28  2  0  0  0  0
 24 25  1  0  0  0  0
 24 26  1  0  0  0  0
 22 23  1  0  0  0  0
 22 24  2  0  0  0  0
 20 21  1  0  0  0  0
 20 22  1  0  0  0  0
 19 20  2  0  0  0  0
 19 28  1  0  0  0  0
 17 18  1  0  0  0  0
 17 19  1  0  0  0  0
 15 16  1  0  0  0  0
 15 17  1  0  0  0  0
 14 15  2  0  0  0  0
 14 28  1  0  0  0  0
 11 12  1  0  0  0  0
 11 13  1  0  0  0  0
 11 14  1  0  0  0  0
  9 10  1  0  0  0  0
  9 11  1  0  0  0  0
  9 29  1  0  0  0  0
  7  8  1  0  0  0  0
  7  9  1  0  0  0  0
 33 34  1  0  0  0  0
 33 35  1  0  0  0  0
 33 36  1  0  0  0  0
 31 32  1  0  0  0  0
 31 33  1  0  0  0  0
M  END
$$$$
default_name
  -OEChem-12212115393D

 36 37  0     1  0  0  0  0  0999 V2000
   -4.0843   -4.0736    1.2944 H   0  0  0  0  0  0  0  0  0  0  0  0
   -4.0342   -3.2816    0.5484 C   0  0  0  0  0  0  0  0  0  0  0  0
   -4.8842   -2.6126    0.6694 H   0  0  0  0  0  0  0  0  0  0  0  0
   -4.0433   -3.7186   -0.4486 H   0  0  0  0  0  0  0  0  0  0  0  0
   -2.7532   -2.5046    0.7444 C   0  0  0  0  0  0  0  0  0  0  0  0
   -1.9803   -2.8096    1.6434 O   0  0  0  0  0  0  0  0  0  0  0  0
   -2.5332   -1.4966   -0.0966 N   0  0  0  0  0  0  0  0  0  0  0  0
   -3.2312   -1.2816   -0.7936 H   0  0  0  0  0  0  0  0  0  0  0  0
   -1.3593   -0.6196   -0.0536 C   0  0  1  0  0  0  0  0  0  0  0  0
   -1.6354    0.3539   -0.4605 H   0  0  0  0  0  0  0  0  0  0  0  0
   -0.9203   -0.4222    1.4059 C   0  0  0  0  0  0  0  0  0  0  0  0
   -0.0616    0.2512    1.4269 H   0  0  0  0  0  0  0  0  0  0  0  0
   -1.7329    0.0617    1.9505 H   0  0  0  0  0  0  0  0  0  0  0  0
   -0.5428   -1.6773    2.1327 C   0  0  0  0  0  0  0  0  0  0  0  0
    0.6889   -2.2343    2.1530 C   0  0  0  0  0  0  0  0  0  0  0  0
    1.5517   -1.8437    1.6247 H   0  0  0  0  0  0  0  0  0  0  0  0
    0.6784   -3.3547    2.9605 N   0  0  0  0  0  0  0  0  0  0  0  0
    1.4899   -3.9336    3.1205 H   0  0  0  0  0  0  0  0  0  0  0  0
   -0.5646   -3.5674    3.5175 C   0  0  0  0  0  0  0  0  0  0  0  0
   -1.0645   -4.5303    4.4060 C   0  0  0  0  0  0  0  0  0  0  0  0
   -0.4219   -5.3114    4.7849 H   0  0  0  0  0  0  0  0  0  0  0  0
   -2.4134   -4.4656    4.7949 C   0  0  0  0  0  0  0  0  0  0  0  0
   -2.8167   -5.2003    5.4786 H   0  0  0  0  0  0  0  0  0  0  0  0
   -3.2409   -3.4469    4.2881 C   0  0  0  0  0  0  0  0  0  0  0  0
   -4.2802   -3.4058    4.5834 H   0  0  0  0  0  0  0  0  0  0  0  0
   -2.7283   -2.4856    3.3941 C   0  0  0  0  0  0  0  0  0  0  0  0
   -3.3782   -1.7162    3.0019 H   0  0  0  0  0  0  0  0  0  0  0  0
   -1.3764   -2.5194    2.9890 C   0  0  0  0  0  0  0  0  0  0  0  0
   -0.2187   -1.1758   -0.9200 C   0  0  0  0  0  0  0  0  0  0  0  0
    0.5797   -0.4103   -1.4588 O   0  0  0  0  0  0  0  0  0  0  0  0
   -0.1439   -2.5067   -1.0550 N   0  0  0  0  0  0  0  0  0  0  0  0
   -0.8698   -3.0621   -0.6250 H   0  0  0  0  0  0  0  0  0  0  0  0
    0.8765   -3.1971   -1.8390 C   0  0  0  0  0  0  0  0  0  0  0  0
    1.8677   -2.8534   -1.5372 H   0  0  0  0  0  0  0  0  0  0  0  0
    0.8048   -4.2743   -1.6833 H   0  0  0  0  0  0  0  0  0  0  0  0
    0.7364   -2.9748   -2.8981 H   0  0  0  0  0  0  0  0  0  0  0  0
  5  6  2  0  0  0  0
  5  7  1  0  0  0  0
  2  3  1  0  0  0  0
  2  4  1  0  0  0  0
  2  5  1  0  0  0  0
  1  2  1  0  0  0  0
 29 30  2  0  0  0  0
 29 31  1  0  0  0  0
 26 27  1  0  0  0  0
 26 28  2  0  0  0  0
 24 25  1  0  0  0  0
 24 26  1  0  0  0  0
 22 23  1  0  0  0  0
 22 24  2  0  0  0  0
 20 21  1  0  0  0  0
 20 22  1  0  0  0  0
 19 20  2  0  0  0  0
 19 28  1  0  0  0  0
 17 18  1  0  0  0  0
 17 19  1  0  0  0  0
 15 16  1  0  0  0  0
 15 17  1  0  0  0  0
 14 15  2  0  0  0  0
 14 28  1  0  0  0  0
 11 12  1  0  0  0  0
 11 13  1  0  0  0  0
 11 14  1  0  0  0  0
  9 10  1  0  0  0  0
  9 11  1  0  0  0  0
  9 29  1  0  0  0  0
  7  8  1  0  0  0  0
  7  9  1  0  0  0  0
 33 34  1  0  0  0  0
 33 35  1  0  0  0  0
 33 36  1  0  0  0  0
 31 32  1  0  0  0  0
 31 33  1  0  0  0  0
M  END
$$$$
default_name
  -OEChem-12212115393D

 36 37  0     1  0  0  0  0  0999 V2000
   -4.0843   -4.0736    1.2944 H   0  0  0  0  0  0  0  0  0  0  0  0
   -4.0342   -3.2816    0.5484 C   0  0  0  0  0  0  0  0  0  0  0  0
   -4.8842   -2.6126    0.6694 H   0  0  0  0  0  0  0  0  0  0  0  0
   -4.0433   -3.7186   -0.4486 H   0  0  0  0  0  0  0  0  0  0  0  0
   -2.7532   -2.5046    0.7444 C   0  0  0  0  0  0  0  0  0  0  0  0
   -1.9803   -2.8096    1.6434 O   0  0  0  0  0  0  0  0  0  0  0  0
   -2.5332   -1.4966   -0.0966 N   0  0  0  0  0  0  0  0  0  0  0  0
   -3.2312   -1.2816   -0.7936 H   0  0  0  0  0  0  0  0  0  0  0  0
   -1.3593   -0.6196   -0.0536 C   0  0  1  0  0  0  0  0  0  0  0  0
   -1.6354    0.3539   -0.4605 H   0  0  0  0  0  0  0  0  0  0  0  0
   -0.9203   -0.4222    1.4059 C   0  0  0  0  0  0  0  0  0  0  0  0
   -0.0616    0.2512    1.4269 H   0  0  0  0  0  0  0  0  0  0  0  0
   -1.7329    0.0617    1.9505 H   0  0  0  0  0  0  0  0  0  0  0  0
   -0.5428   -1.6773    2.1327 C   0  0  0  0  0  0  0  0  0  0  0  0
    0.6889   -2.2343    2.1530 C   0  0  0  0  0  0  0  0  0  0  0  0
    1.5517   -1.8437    1.6247 H   0  0  0  0  0  0  0  0  0  0  0  0
    0.6784   -3.3547    2.9605 N   0  0  0  0  0  0  0  0  0  0  0  0
    1.4899   -3.9336    3.1205 H   0  0  0  0  0  0  0  0  0  0  0  0
   -0.5646   -3.5674    3.5175 C   0  0  0  0  0  0  0  0  0  0  0  0
   -1.0645   -4.5303    4.4060 C   0  0  0  0  0  0  0  0  0  0  0  0
   -0.4219   -5.3114    4.7849 H   0  0  0  0  0  0  0  0  0  0  0  0
   -2.4134   -4.4656    4.7949 C   0  0  0  0  0  0  0  0  0  0  0  0
   -2.8167   -5.2003    5.4786 H   0  0  0  0  0  0  0  0  0  0  0  0
   -3.2409   -3.4469    4.2881 C   0  0  0  0  0  0  0  0  0  0  0  0
   -4.2802   -3.4058    4.5834 H   0  0  0  0  0  0  0  0  0  0  0  0
   -2.7283   -2.4856    3.3941 C   0  0  0  0  0  0  0  0  0  0  0  0
   -3.3782   -1.7162    3.0019 H   0  0  0  0  0  0  0  0  0  0  0  0
   -1.3764   -2.5194    2.9890 C   0  0  0  0  0  0  0  0  0  0  0  0
   -0.2187   -1.1758   -0.9200 C   0  0  0  0  0  0  0  0  0  0  0  0
    0.7304   -0.4571   -1.2304 O   0  0  0  0  0  0  0  0  0  0  0  0
   -0.3125   -2.4539   -1.3108 N   0  0  0  0  0  0  0  0  0  0  0  0
   -1.1497   -2.9598   -1.0591 H   0  0  0  0  0  0  0  0  0  0  0  0
    0.6825   -3.1369   -2.1330 C   0  0  0  0  0  0  0  0  0  0  0  0
    1.6730   -3.0130   -1.6911 H   0  0  0  0  0  0  0  0  0  0  0  0
    0.4478   -4.1999   -2.2011 H   0  0  0  0  0  0  0  0  0  0  0  0
    0.6893   -2.7034   -3.1344 H   0  0  0  0  0  0  0  0  0  0  0  0
  5  6  2  0  0  0  0
  5  7  1  0  0  0  0
  2  3  1  0  0  0  0
  2  4  1  0  0  0  0
  2  5  1  0  0  0  0
  1  2  1  0  0  0  0
 29 30  2  0  0  0  0
 29 31  1  0  0  0  0
 26 27  1  0  0  0  0
 26 28  2  0  0  0  0
 24 25  1  0  0  0  0
 24 26  1  0  0  0  0
 22 23  1  0  0  0  0
 22 24  2  0  0  0  0
 20 21  1  0  0  0  0
 20 22  1  0  0  0  0
 19 20  2  0  0  0  0
 19 28  1  0  0  0  0
 17 18  1  0  0  0  0
 17 19  1  0  0  0  0
 15 16  1  0  0  0  0
 15 17  1  0  0  0  0
 14 15  2  0  0  0  0
 14 28  1  0  0  0  0
 11 12  1  0  0  0  0
 11 13  1  0  0  0  0
 11 14  1  0  0  0  0
  9 10  1  0  0  0  0
  9 11  1  0  0  0  0
  9 29  1  0  0  0  0
  7  8  1  0  0  0  0
  7  9  1  0  0  0  0
 33 34  1  0  0  0  0
 33 35  1  0  0  0  0
 33 36  1  0  0  0  0
 31 32  1  0  0  0  0
 31 33  1  0  0  0  0
M  END
$$$$
default_name
  -OEChem-12212115393D

 36 37  0     1  0  0  0  0  0999 V2000
   -4.0843   -4.0736    1.2944 H   0  0  0  0  0  0  0  0  0  0  0  0
   -4.0342   -3.2816    0.5484 C   0  0  0  0  0  0  0  0  0  0  0  0
   -4.8842   -2.6126    0.6694 H   0  0  0  0  0  0  0  0  0  0  0  0
   -4.0433   -3.7186   -0.4486 H   0  0  0  0  0  0  0  0  0  0  0  0
   -2.7532   -2.5046    0.7444 C   0  0  0  0  0  0  0  0  0  0  0  0
   -1.9803   -2.8096    1.6434 O   0  0  0  0  0  0  0  0  0  0  0  0
   -2.5332   -1.4966   -0.0966 N   0  0  0  0  0  0  0  0  0  0  0  0
   -3.2312   -1.2816   -0.7936 H   0  0  0  0  0  0  0  0  0  0  0  0
   -1.3593   -0.6196   -0.0536 C   0  0  1  0  0  0  0  0  0  0  0  0
   -1.6354    0.3539   -0.4605 H   0  0  0  0  0  0  0  0  0  0  0  0
   -0.9203   -0.4222    1.4059 C   0  0  0  0  0  0  0  0  0  0  0  0
   -0.0616    0.2512    1.4269 H   0  0  0  0  0  0  0  0  0  0  0  0
   -1.7329    0.0617    1.9505 H   0  0  0  0  0  0  0  0  0  0  0  0
   -0.5428   -1.6773    2.1327 C   0  0  0  0  0  0  0  0  0  0  0  0
    0.6889   -2.2343    2.1530 C   0  0  0  0  0  0  0  0  0  0  0  0
    1.5517   -1.8437    1.6247 H   0  0  0  0  0  0  0  0  0  0  0  0
    0.6784   -3.3547    2.9605 N   0  0  0  0  0  0  0  0  0  0  0  0
    1.4899   -3.9336    3.1205 H   0  0  0  0  0  0  0  0  0  0  0  0
   -0.5646   -3.5674    3.5175 C   0  0  0  0  0  0  0  0  0  0  0  0
   -1.0645   -4.5303    4.4060 C   0  0  0  0  0  0  0  0  0  0  0  0
   -0.4219   -5.3114    4.7849 H   0  0  0  0  0  0  0  0  0  0  0  0
   -2.4134   -4.4656    4.7949 C   0  0  0  0  0  0  0  0  0  0  0  0
   -2.8167   -5.2003    5.4786 H   0  0  0  0  0  0  0  0  0  0  0  0
   -3.2409   -3.4469    4.2881 C   0  0  0  0  0  0  0  0  0  0  0  0
   -4.2802   -3.4058    4.5834 H   0  0  0  0  0  0  0  0  0  0  0  0
   -2.7283   -2.4856    3.3941 C   0  0  0  0  0  0  0  0  0  0  0  0
   -3.3782   -1.7162    3.0019 H   0  0  0  0  0  0  0  0  0  0  0  0
   -1.3764   -2.5194    2.9890 C   0  0  0  0  0  0  0  0  0  0  0  0
   -0.2187   -1.1758   -0.9200 C   0  0  0  0  0  0  0  0  0  0  0  0
    0.8477   -0.5681   -1.0048 O   0  0  0  0  0  0  0  0  0  0  0  0
   -0.4437   -2.3292   -1.5637 N   0  0  0  0  0  0  0  0  0  0  0  0
   -1.3645   -2.7369   -1.4850 H   0  0  0  0  0  0  0  0  0  0  0  0
    0.5314   -2.9940   -2.4237 C   0  0  0  0  0  0  0  0  0  0  0  0
    1.4760   -3.1092   -1.8887 H   0  0  0  0  0  0  0  0  0  0  0  0
    0.1622   -3.9766   -2.7204 H   0  0  0  0  0  0  0  0  0  0  0  0
    0.7055   -2.3890   -3.3150 H   0  0  0  0  0  0  0  0  0  0  0  0
  5  6  2  0  0  0  0
  5  7  1  0  0  0  0
  2  3  1  0  0  0  0
  2  4  1  0  0  0  0
  2  5  1  0  0  0  0
  1  2  1  0  0  0  0
 29 30  2  0  0  0  0
 29 31  1  0  0  0  0
 26 27  1  0  0  0  0
 26 28  2  0  0  0  0
 24 25  1  0  0  0  0
 24 26  1  0  0  0  0
 22 23  1  0  0  0  0
 22 24  2  0  0  0  0
 20 21  1  0  0  0  0
 20 22  1  0  0  0  0
 19 20  2  0  0  0  0
 19 28  1  0  0  0  0
 17 18  1  0  0  0  0
 17 19  1  0  0  0  0
 15 16  1  0  0  0  0
 15 17  1  0  0  0  0
 14 15  2  0  0  0  0
 14 28  1  0  0  0  0
 11 12  1  0  0  0  0
 11 13  1  0  0  0  0
 11 14  1  0  0  0  0
  9 10  1  0  0  0  0
  9 11  1  0  0  0  0
  9 29  1  0  0  0  0
  7  8  1  0  0  0  0
  7  9  1  0  0  0  0
 33 34  1  0  0  0  0
 33 35  1  0  0  0  0
 33 36  1  0  0  0  0
 31 32  1  0  0  0  0
 31 33  1  0  0  0  0
M  END
$$$$
default_name
  -OEChem-12212115393D

 36 37  0     1  0  0  0  0  0999 V2000
   -4.0843   -4.0736    1.2944 H   0  0  0  0  0  0  0  0  0  0  0  0
   -4.0342   -3.2816    0.5484 C   0  0  0  0  0  0  0  0  0  0  0  0
   -4.8842   -2.6126    0.6694 H   0  0  0  0  0  0  0  0  0  0  0  0
   -4.0433   -3.7186   -0.4486 H   0  0  0  0  0  0  0  0  0  0  0  0
   -2.7532   -2.5046    0.7444 C   0  0  0  0  0  0  0  0  0  0  0  0
   -1.9803   -2.8096    1.6434 O   0  0  0  0  0  0  0  0  0  0  0  0
   -2.5332   -1.4966   -0.0966 N   0  0  0  0  0  0  0  0  0  0  0  0
   -3.2312   -1.2816   -0.7936 H   0  0  0  0  0  0  0  0  0  0  0  0
   -1.3593   -0.6196   -0.0536 C   0  0  1  0  0  0  0  0  0  0  0  0
   -1.6354    0.3539   -0.4605 H   0  0  0  0  0  0  0  0  0  0  0  0
   -0.9203   -0.4222    1.4059 C   0  0  0  0  0  0  0  0  0  0  0  0
   -0.0616    0.2512    1.4269 H   0  0  0  0  0  0  0  0  0  0  0  0
   -1.7329    0.0617    1.9505 H   0  0  0  0  0  0  0  0  0  0  0  0
   -0.5428   -1.6773    2.1327 C   0  0  0  0  0  0  0  0  0  0  0  0
    0.6889   -2.2343    2.1530 C   0  0  0  0  0  0  0  0  0  0  0  0
    1.5517   -1.8437    1.6247 H   0  0  0  0  0  0  0  0  0  0  0  0
    0.6784   -3.3547    2.9605 N   0  0  0  0  0  0  0  0  0  0  0  0
    1.4899   -3.9336    3.1205 H   0  0  0  0  0  0  0  0  0  0  0  0
   -0.5646   -3.5674    3.5175 C   0  0  0  0  0  0  0  0  0  0  0  0
   -1.0645   -4.5303    4.4060 C   0  0  0  0  0  0  0  0  0  0  0  0
   -0.4219   -5.3114    4.7849 H   0  0  0  0  0  0  0  0  0  0  0  0
   -2.4134   -4.4656    4.7949 C   0  0  0  0  0  0  0  0  0  0  0  0
   -2.8167   -5.2003    5.4786 H   0  0  0  0  0  0  0  0  0  0  0  0
   -3.2409   -3.4469    4.2881 C   0  0  0  0  0  0  0  0  0  0  0  0
   -4.2802   -3.4058    4.5834 H   0  0  0  0  0  0  0  0  0  0  0  0
   -2.7283   -2.4856    3.3941 C   0  0  0  0  0  0  0  0  0  0  0  0
   -3.3782   -1.7162    3.0019 H   0  0  0  0  0  0  0  0  0  0  0  0
   -1.3764   -2.5194    2.9890 C   0  0  0  0  0  0  0  0  0  0  0  0
   -0.2187   -1.1758   -0.9200 C   0  0  0  0  0  0  0  0  0  0  0  0
    0.9237   -0.7358   -0.7971 O   0  0  0  0  0  0  0  0  0  0  0  0
   -0.5285   -2.1409   -1.7962 N   0  0  0  0  0  0  0  0  0  0  0  0
   -1.4995   -2.4083   -1.8736 H   0  0  0  0  0  0  0  0  0  0  0  0
    0.4335   -2.7781   -2.6911 C   0  0  0  0  0  0  0  0  0  0  0  0
    1.2901   -3.1354   -2.1165 H   0  0  0  0  0  0  0  0  0  0  0  0
   -0.0324   -3.6193   -3.2059 H   0  0  0  0  0  0  0  0  0  0  0  0
    0.7840   -2.0529   -3.4274 H   0  0  0  0  0  0  0  0  0  0  0  0
  5  6  2  0  0  0  0
  5  7  1  0  0  0  0
  2  3  1  0  0  0  0
  2  4  1  0  0  0  0
  2  5  1  0  0  0  0
  1  2  1  0  0  0  0
 29 30  2  0  0  0  0
 29 31  1  0  0  0  0
 26 27  1  0  0  0  0
 26 28  2  0  0  0  0
 24 25  1  0  0  0  0
 24 26  1  0  0  0  0
 22 23  1  0  0  0  0
 22 24  2  0  0  0  0
 20 21  1  0  0  0  0
 20 22  1  0  0  0  0
 19 20  2  0  0  0  0
 19 28  1  0  0  0  0
 17 18  1  0  0  0  0
 17 19  1  0  0  0  0
 15 16  1  0  0  0  0
 15 17  1  0  0  0  0
 14 15  2  0  0  0  0
 14 28  1  0  0  0  0
 11 12  1  0  0  0  0
 11 13  1  0  0  0  0
 11 14  1  0  0  0  0
  9 10  1  0  0  0  0
  9 11  1  0  0  0  0
  9 29  1  0  0  0  0
  7  8  1  0  0  0  0
  7  9  1  0  0  0  0
 33 34  1  0  0  0  0
 33 35  1  0  0  0  0
 33 36  1  0  0  0  0
 31 32  1  0  0  0  0
 31 33  1  0  0  0  0
M  END
$$$$
default_name
  -OEChem-12212115393D

 36 37  0     1  0  0  0  0  0999 V2000
   -4.0843   -4.0736    1.2944 H   0  0  0  0  0  0  0  0  0  0  0  0
   -4.0342   -3.2816    0.5484 C   0  0  0  0  0  0  0  0  0  0  0  0
   -4.8842   -2.6126    0.6694 H   0  0  0  0  0  0  0  0  0  0  0  0
   -4.0433   -3.7186   -0.4486 H   0  0  0  0  0  0  0  0  0  0  0  0
   -2.7532   -2.5046    0.7444 C   0  0  0  0  0  0  0  0  0  0  0  0
   -1.9803   -2.8096    1.6434 O   0  0  0  0  0  0  0  0  0  0  0  0
   -2.5332   -1.4966   -0.0966 N   0  0  0  0  0  0  0  0  0  0  0  0
   -3.2312   -1.2816   -0.7936 H   0  0  0  0  0  0  0  0  0  0  0  0
   -1.3593   -0.6196   -0.0536 C   0  0  1  0  0  0  0  0  0  0  0  0
   -1.6354    0.3539   -0.4605 H   0  0  0  0  0  0  0  0  0  0  0  0
   -0.9203   -0.4222    1.4059 C   0  0  0  0  0  0  0  0  0  0  0  0
   -0.0616    0.2512    1.4269 H   0  0  0  0  0  0  0  0  0  0  0  0
   -1.7329    0.0617    1.9505 H   0  0  0  0  0  0  0  0  0  0  0  0
   -0.5428   -1.6773    2.1327 C   0  0  0  0  0  0  0  0  0  0  0  0
    0.6889   -2.2343    2.1530 C   0  0  0  0  0  0  0  0  0  0  0  0
    1.5517   -1.8437    1.6247 H   0  0  0  0  0  0  0  0  0  0  0  0
    0.6784   -3.3547    2.9605 N   0  0  0  0  0  0  0  0  0  0  0  0
    1.4899   -3.9336    3.1205 H   0  0  0  0  0  0  0  0  0  0  0  0
   -0.5646   -3.5674    3.5175 C   0  0  0  0  0  0  0  0  0  0  0  0
   -1.0645   -4.5303    4.4060 C   0  0  0  0  0  0  0  0  0  0  0  0
   -0.4219   -5.3114    4.7849 H   0  0  0  0  0  0  0  0  0  0  0  0
   -2.4134   -4.4656    4.7949 C   0  0  0  0  0  0  0  0  0  0  0  0
   -2.8167   -5.2003    5.4786 H   0  0  0  0  0  0  0  0  0  0  0  0
   -3.2409   -3.4469    4.2881 C   0  0  0  0  0  0  0  0  0  0  0  0
   -4.2802   -3.4058    4.5834 H   0  0  0  0  0  0  0  0  0  0  0  0
   -2.7283   -2.4856    3.3941 C   0  0  0  0  0  0  0  0  0  0  0  0
   -3.3782   -1.7162    3.0019 H   0  0  0  0  0  0  0  0  0  0  0  0
   -1.3764   -2.5194    2.9890 C   0  0  0  0  0  0  0  0  0  0  0  0
   -0.2187   -1.1758   -0.9200 C   0  0  0  0  0  0  0  0  0  0  0  0
    0.9531   -0.9487   -0.6216 O   0  0  0  0  0  0  0  0  0  0  0  0
   -0.5612   -1.9021   -1.9926 N   0  0  0  0  0  0  0  0  0  0  0  0
   -1.5456   -1.9966   -2.1985 H   0  0  0  0  0  0  0  0  0  0  0  0
    0.3956   -2.5038   -2.9171 C   0  0  0  0  0  0  0  0  0  0  0  0
    1.1282   -3.0899   -2.3589 H   0  0  0  0  0  0  0  0  0  0  0  0
   -0.1227   -3.1526   -3.6244 H   0  0  0  0  0  0  0  0  0  0  0  0
    0.9193   -1.7181   -3.4641 H   0  0  0  0  0  0  0  0  0  0  0  0
  5  6  2  0  0  0  0
  5  7  1  0  0  0  0
  2  3  1  0  0  0  0
  2  4  1  0  0  0  0
  2  5  1  0  0  0  0
  1  2  1  0  0  0  0
 29 30  2  0  0  0  0
 29 31  1  0  0  0  0
 26 27  1  0  0  0  0
 26 28  2  0  0  0  0
 24 25  1  0  0  0  0
 24 26  1  0  0  0  0
 22 23  1  0  0  0  0
 22 24  2  0  0  0  0
 20 21  1  0  0  0  0
 20 22  1  0  0  0  0
 19 20  2  0  0  0  0
 19 28  1  0  0  0  0
 17 18  1  0  0  0  0
 17 19  1  0  0  0  0
 15 16  1  0  0  0  0
 15 17  1  0  0  0  0
 14 15  2  0  0  0  0
 14 28  1  0  0  0  0
 11 12  1  0  0  0  0
 11 13  1  0  0  0  0
 11 14  1  0  0  0  0
  9 10  1  0  0  0  0
  9 11  1  0  0  0  0
  9 29  1  0  0  0  0
  7  8  1  0  0  0  0
  7  9  1  0  0  0  0
 33 34  1  0  0  0  0
 33 35  1  0  0  0  0
 33 36  1  0  0  0  0
 31 32  1  0  0  0  0
 31 33  1  0  0  0  0
M  END
$$$$
default_name
  -OEChem-12212115393D

 36 37  0     1  0  0  0  0  0999 V2000
   -4.0843   -4.0736    1.2944 H   0  0  0  0  0  0  0  0  0  0  0  0
   -4.0342   -3.2816    0.5484 C   0  0  0  0  0  0  0  0  0  0  0  0
   -4.8842   -2.6126    0.6694 H   0  0  0  0  0  0  0  0  0  0  0  0
   -4.0433   -3.7186   -0.4486 H   0  0  0  0  0  0  0  0  0  0  0  0
   -2.7532   -2.5046    0.7444 C   0  0  0  0  0  0  0  0  0  0  0  0
   -1.9803   -2.8096    1.6434 O   0  0  0  0  0  0  0  0  0  0  0  0
   -2.5332   -1.4966   -0.0966 N   0  0  0  0  0  0  0  0  0  0  0  0
   -3.2312   -1.2816   -0.7936 H   0  0  0  0  0  0  0  0  0  0  0  0
   -1.3593   -0.6196   -0.0536 C   0  0  1  0  0  0  0  0  0  0  0  0
   -1.6354    0.3539   -0.4605 H   0  0  0  0  0  0  0  0  0  0  0  0
   -0.9203   -0.4222    1.4059 C   0  0  0  0  0  0  0  0  0  0  0  0
   -0.0616    0.2512    1.4269 H   0  0  0  0  0  0  0  0  0  0  0  0
   -1.7329    0.0617    1.9505 H   0  0  0  0  0  0  0  0  0  0  0  0
   -0.5428   -1.6773    2.1327 C   0  0  0  0  0  0  0  0  0  0  0  0
    0.6889   -2.2343    2.1530 C   0  0  0  0  0  0  0  0  0  0  0  0
    1.5517   -1.8437    1.6247 H   0  0  0  0  0  0  0  0  0  0  0  0
    0.6784   -3.3547    2.9605 N   0  0  0  0  0  0  0  0  0  0  0  0
    1.4899   -3.9336    3.1205 H   0  0  0  0  0  0  0  0  0  0  0  0
   -0.5646   -3.5674    3.5175 C   0  0  0  0  0  0  0  0  0  0  0  0
   -1.0645   -4.5303    4.4060 C   0  0  0  0  0  0  0  0  0  0  0  0
   -0.4219   -5.3114    4.7849 H   0  0  0  0  0  0  0  0  0  0  0  0
   -2.4134   -4.4656    4.7949 C   0  0  0  0  0  0  0  0  0  0  0  0
   -2.8167   -5.2003    5.4786 H   0  0  0  0  0  0  0  0  0  0  0  0
   -3.2409   -3.4469    4.2881 C   0  0  0  0  0  0  0  0  0  0  0  0
   -4.2802   -3.4058    4.5834 H   0  0  0  0  0  0  0  0  0  0  0  0
   -2.7283   -2.4856    3.3941 C   0  0  0  0  0  0  0  0  0  0  0  0
   -3.3782   -1.7162    3.0019 H   0  0  0  0  0  0  0  0  0  0  0  0
   -1.3764   -2.5194    2.9890 C   0  0  0  0  0  0  0  0  0  0  0  0
   -0.2187   -1.1758   -0.9200 C   0  0  0  0  0  0  0  0  0  0  0  0
    0.9340   -1.1924   -0.4903 O   0  0  0  0  0  0  0  0  0  0  0  0
   -0.5395   -1.6288   -2.1394 N   0  0  0  0  0  0  0  0  0  0  0  0
   -1.4995   -1.5298   -2.4376 H   0  0  0  0  0  0  0  0  0  0  0  0
    0.4201   -2.1900   -3.0863 C   0  0  0  0  0  0  0  0  0  0  0  0
    1.0011   -2.9757   -2.5996 H   0  0  0  0  0  0  0  0  0  0  0  0
   -0.1026   -2.6082   -3.9475 H   0  0  0  0  0  0  0  0  0  0  0  0
    1.1024   -1.4075   -3.4226 H   0  0  0  0  0  0  0  0  0  0  0  0
  5  6  2  0  0  0  0
  5  7  1  0  0  0  0
  2  3  1  0  0  0  0
  2  4  1  0  0  0  0
  2  5  1  0  0  0  0
  1  2  1  0  0  0  0
 29 30  2  0  0  0  0
 29 31  1  0  0  0  0
 26 27  1  0  0  0  0
 26 28  2  0  0  0  0
 24 25  1  0  0  0  0
 24 26  1  0  0  0  0
 22 23  1  0  0  0  0
 22 24  2  0  0  0  0
 20 21  1  0  0  0  0
 20 22  1  0  0  0  0
 19 20  2  0  0  0  0
 19 28  1  0  0  0  0
 17 18  1  0  0  0  0
 17 19  1  0  0  0  0
 15 16  1  0  0  0  0
 15 17  1  0  0  0  0
 14 15  2  0  0  0  0
 14 28  1  0  0  0  0
 11 12  1  0  0  0  0
 11 13  1  0  0  0  0
 11 14  1  0  0  0  0
  9 10  1  0  0  0  0
  9 11  1  0  0  0  0
  9 29  1  0  0  0  0
  7  8  1  0  0  0  0
  7  9  1  0  0  0  0
 33 34  1  0  0  0  0
 33 35  1  0  0  0  0
 33 36  1  0  0  0  0
 31 32  1  0  0  0  0
 31 33  1  0  0  0  0
M  END
$$$$
default_name
  -OEChem-12212115393D

 36 37  0     1  0  0  0  0  0999 V2000
   -4.0843   -4.0736    1.2944 H   0  0  0  0  0  0  0  0  0  0  0  0
   -4.0342   -3.2816    0.5484 C   0  0  0  0  0  0  0  0  0  0  0  0
   -4.8842   -2.6126    0.6694 H   0  0  0  0  0  0  0  0  0  0  0  0
   -4.0433   -3.7186   -0.4486 H   0  0  0  0  0  0  0  0  0  0  0  0
   -2.7532   -2.5046    0.7444 C   0  0  0  0  0  0  0  0  0  0  0  0
   -1.9803   -2.8096    1.6434 O   0  0  0  0  0  0  0  0  0  0  0  0
   -2.5332   -1.4966   -0.0966 N   0  0  0  0  0  0  0  0  0  0  0  0
   -3.2312   -1.2816   -0.7936 H   0  0  0  0  0  0  0  0  0  0  0  0
   -1.3593   -0.6196   -0.0536 C   0  0  1  0  0  0  0  0  0  0  0  0
   -1.6354    0.3539   -0.4605 H   0  0  0  0  0  0  0  0  0  0  0  0
   -0.9203   -0.4222    1.4059 C   0  0  0  0  0  0  0  0  0  0  0  0
   -0.0616    0.2512    1.4269 H   0  0  0  0  0  0  0  0  0  0  0  0
   -1.7329    0.0617    1.9505 H   0  0  0  0  0  0  0  0  0  0  0  0
   -0.5428   -1.6773    2.1327 C   0  0  0  0  0  0  0  0  0  0  0  0
    0.6889   -2.2343    2.1530 C   0  0  0  0  0  0  0  0  0  0  0  0
    1.5517   -1.8437    1.6247 H   0  0  0  0  0  0  0  0  0  0  0  0
    0.6784   -3.3547    2.9605 N   0  0  0  0  0  0  0  0  0  0  0  0
    1.4899   -3.9336    3.1205 H   0  0  0  0  0  0  0  0  0  0  0  0
   -0.5646   -3.5674    3.5175 C   0  0  0  0  0  0  0  0  0  0  0  0
   -1.0645   -4.5303    4.4060 C   0  0  0  0  0  0  0  0  0  0  0  0
   -0.4219   -5.3114    4.7849 H   0  0  0  0  0  0  0  0  0  0  0  0
   -2.4134   -4.4656    4.7949 C   0  0  0  0  0  0  0  0  0  0  0  0
   -2.8167   -5.2003    5.4786 H   0  0  0  0  0  0  0  0  0  0  0  0
   -3.2409   -3.4469    4.2881 C   0  0  0  0  0  0  0  0  0  0  0  0
   -4.2802   -3.4058    4.5834 H   0  0  0  0  0  0  0  0  0  0  0  0
   -2.7283   -2.4856    3.3941 C   0  0  0  0  0  0  0  0  0  0  0  0
   -3.3782   -1.7162    3.0019 H   0  0  0  0  0  0  0  0  0  0  0  0
   -1.3764   -2.5194    2.9890 C   0  0  0  0  0  0  0  0  0  0  0  0
   -0.2187   -1.1758   -0.9200 C   0  0  0  0  0  0  0  0  0  0  0  0
    0.8677   -1.4503   -0.4120 O   0  0  0  0  0  0  0  0  0  0  0  0
   -0.4650   -1.3399   -2.2268 N   0  0  0  0  0  0  0  0  0  0  0  0
   -1.3645   -1.0396   -2.5745 H   0  0  0  0  0  0  0  0  0  0  0  0
    0.5054   -1.8579   -3.1871 C   0  0  0  0  0  0  0  0  0  0  0  0
    0.9175   -2.8005   -2.8220 H   0  0  0  0  0  0  0  0  0  0  0  0
    0.0265   -2.0232   -4.1530 H   0  0  0  0  0  0  0  0  0  0  0  0
    1.3206   -1.1421   -3.3056 H   0  0  0  0  0  0  0  0  0  0  0  0
  5  6  2  0  0  0  0
  5  7  1  0  0  0  0
  2  3  1  0  0  0  0
  2  4  1  0  0  0  0
  2  5  1  0  0  0  0
  1  2  1  0  0  0  0
 29 30  2  0  0  0  0
 29 31  1  0  0  0  0
 26 27  1  0  0  0  0
 26 28  2  0  0  0  0
 24 25  1  0  0  0  0
 24 26  1  0  0  0  0
 22 23  1  0  0  0  0
 22 24  2  0  0  0  0
 20 21  1  0  0  0  0
 20 22  1  0  0  0  0
 19 20  2  0  0  0  0
 19 28  1  0  0  0  0
 17 18  1  0  0  0  0
 17 19  1  0  0  0  0
 15 16  1  0  0  0  0
 15 17  1  0  0  0  0
 14 15  2  0  0  0  0
 14 28  1  0  0  0  0
 11 12  1  0  0  0  0
 11 13  1  0  0  0  0
 11 14  1  0  0  0  0
  9 10  1  0  0  0  0
  9 11  1  0  0  0  0
  9 29  1  0  0  0  0
  7  8  1  0  0  0  0
  7  9  1  0  0  0  0
 33 34  1  0  0  0  0
 33 35  1  0  0  0  0
 33 36  1  0  0  0  0
 31 32  1  0  0  0  0
 31 33  1  0  0  0  0
M  END
$$$$
default_name
  -OEChem-12212115393D

 36 37  0     1  0  0  0  0  0999 V2000
   -4.0843   -4.0736    1.2944 H   0  0  0  0  0  0  0  0  0  0  0  0
   -4.0342   -3.2816    0.5484 C   0  0  0  0  0  0  0  0  0  0  0  0
   -4.8842   -2.6126    0.6694 H   0  0  0  0  0  0  0  0  0  0  0  0
   -4.0433   -3.7186   -0.4486 H   0  0  0  0  0  0  0  0  0  0  0  0
   -2.7532   -2.5046    0.7444 C   0  0  0  0  0  0  0  0  0  0  0  0
   -1.9803   -2.8096    1.6434 O   0  0  0  0  0  0  0  0  0  0  0  0
   -2.5332   -1.4966   -0.0966 N   0  0  0  0  0  0  0  0  0  0  0  0
   -3.2312   -1.2816   -0.7936 H   0  0  0  0  0  0  0  0  0  0  0  0
   -1.3593   -0.6196   -0.0536 C   0  0  1  0  0  0  0  0  0  0  0  0
   -1.6354    0.3539   -0.4605 H   0  0  0  0  0  0  0  0  0  0  0  0
   -0.9203   -0.4222    1.4059 C   0  0  0  0  0  0  0  0  0  0  0  0
   -0.0616    0.2512    1.4269 H   0  0  0  0  0  0  0  0  0  0  0  0
   -1.7329    0.0617    1.9505 H   0  0  0  0  0  0  0  0  0  0  0  0
   -0.5428   -1.6773    2.1327 C   0  0  0  0  0  0  0  0  0  0  0  0
    0.6889   -2.2343    2.1530 C   0  0  0  0  0  0  0  0  0  0  0  0
    1.5517   -1.8437    1.6247 H   0  0  0  0  0  0  0  0  0  0  0  0
    0.6784   -3.3547    2.9605 N   0  0  0  0  0  0  0  0  0  0  0  0
    1.4899   -3.9336    3.1205 H   0  0  0  0  0  0  0  0  0  0  0  0
   -0.5646   -3.5674    3.5175 C   0  0  0  0  0  0  0  0  0  0  0  0
   -1.0645   -4.5303    4.4060 C   0  0  0  0  0  0  0  0  0  0  0  0
   -0.4219   -5.3114    4.7849 H   0  0  0  0  0  0  0  0  0  0  0  0
   -2.4134   -4.4656    4.7949 C   0  0  0  0  0  0  0  0  0  0  0  0
   -2.8167   -5.2003    5.4786 H   0  0  0  0  0  0  0  0  0  0  0  0
   -3.2409   -3.4469    4.2881 C   0  0  0  0  0  0  0  0  0  0  0  0
   -4.2802   -3.4058    4.5834 H   0  0  0  0  0  0  0  0  0  0  0  0
   -2.7283   -2.4856    3.3941 C   0  0  0  0  0  0  0  0  0  0  0  0
   -3.3782   -1.7162    3.0019 H   0  0  0  0  0  0  0  0  0  0  0  0
   -1.3764   -2.5194    2.9890 C   0  0  0  0  0  0  0  0  0  0  0  0
   -0.2187   -1.1758   -0.9200 C   0  0  0  0  0  0  0  0  0  0  0  0
    0.7587   -1.7047   -0.3922 O   0  0  0  0  0  0  0  0  0  0  0  0
   -0.3426   -1.0548   -2.2486 N   0  0  0  0  0  0  0  0  0  0  0  0
   -1.1497   -0.5596   -2.6000 H   0  0  0  0  0  0  0  0  0  0  0  0
    0.6458   -1.5302   -3.2127 C   0  0  0  0  0  0  0  0  0  0  0  0
    0.8832   -2.5765   -3.0110 H   0  0  0  0  0  0  0  0  0  0  0  0
    0.2558   -1.4375   -4.2271 H   0  0  0  0  0  0  0  0  0  0  0  0
    1.5592   -0.9401   -3.1212 H   0  0  0  0  0  0  0  0  0  0  0  0
  5  6  2  0  0  0  0
  5  7  1  0  0  0  0
  2  3  1  0  0  0  0
  2  4  1  0  0  0  0
  2  5  1  0  0  0  0
  1  2  1  0  0  0  0
 29 30  2  0  0  0  0
 29 31  1  0  0  0  0
 26 27  1  0  0  0  0
 26 28  2  0  0  0  0
 24 25  1  0  0  0  0
 24 26  1  0  0  0  0
 22 23  1  0  0  0  0
 22 24  2  0  0  0  0
 20 21  1  0  0  0  0
 20 22  1  0  0  0  0
 19 20  2  0  0  0  0
 19 28  1  0  0  0  0
 17 18  1  0  0  0  0
 17 19  1  0  0  0  0
 15 16  1  0  0  0  0
 15 17  1  0  0  0  0
 14 15  2  0  0  0  0
 14 28  1  0  0  0  0
 11 12  1  0  0  0  0
 11 13  1  0  0  0  0
 11 14  1  0  0  0  0
  9 10  1  0  0  0  0
  9 11  1  0  0  0  0
  9 29  1  0  0  0  0
  7  8  1  0  0  0  0
  7  9  1  0  0  0  0
 33 34  1  0  0  0  0
 33 35  1  0  0  0  0
 33 36  1  0  0  0  0
 31 32  1  0  0  0  0
 31 33  1  0  0  0  0
M  END
$$$$
default_name
  -OEChem-12212115393D

 36 37  0     1  0  0  0  0  0999 V2000
   -4.0843   -4.0736    1.2944 H   0  0  0  0  0  0  0  0  0  0  0  0
   -4.0342   -3.2816    0.5484 C   0  0  0  0  0  0  0  0  0  0  0  0
   -4.8842   -2.6126    0.6694 H   0  0  0  0  0  0  0  0  0  0  0  0
   -4.0433   -3.7186   -0.4486 H   0  0  0  0  0  0  0  0  0  0  0  0
   -2.7532   -2.5046    0.7444 C   0  0  0  0  0  0  0  0  0  0  0  0
   -1.9803   -2.8096    1.6434 O   0  0  0  0  0  0  0  0  0  0  0  0
   -2.5332   -1.4966   -0.0966 N   0  0  0  0  0  0  0  0  0  0  0  0
   -3.2312   -1.2816   -0.7936 H   0  0  0  0  0  0  0  0  0  0  0  0
   -1.3593   -0.6196   -0.0536 C   0  0  1  0  0  0  0  0  0  0  0  0
   -1.6354    0.3539   -0.4605 H   0  0  0  0  0  0  0  0  0  0  0  0
   -0.9203   -0.4222    1.4059 C   0  0  0  0  0  0  0  0  0  0  0  0
   -0.0616    0.2512    1.4269 H   0  0  0  0  0  0  0  0  0  0  0  0
   -1.7329    0.0617    1.9505 H   0  0  0  0  0  0  0  0  0  0  0  0
   -0.5428   -1.6773    2.1327 C   0  0  0  0  0  0  0  0  0  0  0  0
    0.6889   -2.2343    2.1530 C   0  0  0  0  0  0  0  0  0  0  0  0
    1.5517   -1.8437    1.6247 H   0  0  0  0  0  0  0  0  0  0  0  0
    0.6784   -3.3547    2.9605 N   0  0  0  0  0  0  0  0  0  0  0  0
    1.4899   -3.9336    3.1205 H   0  0  0  0  0  0  0  0  0  0  0  0
   -0.5646   -3.5674    3.5175 C   0  0  0  0  0  0  0  0  0  0  0  0
   -1.0645   -4.5303    4.4060 C   0  0  0  0  0  0  0  0  0  0  0  0
   -0.4219   -5.3114    4.7849 H   0  0  0  0  0  0  0  0  0  0  0  0
   -2.4134   -4.4656    4.7949 C   0  0  0  0  0  0  0  0  0  0  0  0
   -2.8167   -5.2003    5.4786 H   0  0  0  0  0  0  0  0  0  0  0  0
   -3.2409   -3.4469    4.2881 C   0  0  0  0  0  0  0  0  0  0  0  0
   -4.2802   -3.4058    4.5834 H   0  0  0  0  0  0  0  0  0  0  0  0
   -2.7283   -2.4856    3.3941 C   0  0  0  0  0  0  0  0  0  0  0  0
   -3.3782   -1.7162    3.0019 H   0  0  0  0  0  0  0  0  0  0  0  0
   -1.3764   -2.5194    2.9890 C   0  0  0  0  0  0  0  0  0  0  0  0
   -0.2187   -1.1758   -0.9200 C   0  0  0  0  0  0  0  0  0  0  0  0
    0.6145   -1.9384   -0.4321 O   0  0  0  0  0  0  0  0  0  0  0  0
   -0.1807   -0.7932   -2.2035 N   0  0  0  0  0  0  0  0  0  0  0  0
   -0.8699   -0.1223   -2.5122 H   0  0  0  0  0  0  0  0  0  0  0  0
    0.8316   -1.2293   -3.1613 C   0  0  0  0  0  0  0  0  0  0  0  0
    0.9005   -2.3187   -3.1537 H   0  0  0  0  0  0  0  0  0  0  0  0
    0.5698   -0.8909   -4.1647 H   0  0  0  0  0  0  0  0  0  0  0  0
    1.8018   -0.8152   -2.8819 H   0  0  0  0  0  0  0  0  0  0  0  0
  5  6  2  0  0  0  0
  5  7  1  0  0  0  0
  2  3  1  0  0  0  0
  2  4  1  0  0  0  0
  2  5  1  0  0  0  0
  1  2  1  0  0  0  0
 29 30  2  0  0  0  0
 29 31  1  0  0  0  0
 26 27  1  0  0  0  0
 26 28  2  0  0  0  0
 24 25  1  0  0  0  0
 24 26  1  0  0  0  0
 22 23  1  0  0  0  0
 22 24  2  0  0  0  0
 20 21  1  0  0  0  0
 20 22  1  0  0  0  0
 19 20  2  0  0  0  0
 19 28  1  0  0  0  0
 17 18  1  0  0  0  0
 17 19  1  0  0  0  0
 15 16  1  0  0  0  0
 15 17  1  0  0  0  0
 14 15  2  0  0  0  0
 14 28  1  0  0  0  0
 11 12  1  0  0  0  0
 11 13  1  0  0  0  0
 11 14  1  0  0  0  0
  9 10  1  0  0  0  0
  9 11  1  0  0  0  0
  9 29  1  0  0  0  0
  7  8  1  0  0  0  0
  7  9  1  0  0  0  0
 33 34  1  0  0  0  0
 33 35  1  0  0  0  0
 33 36  1  0  0  0  0
 31 32  1  0  0  0  0
 31 33  1  0  0  0  0
M  END
$$$$
default_name
  -OEChem-12212115393D

 36 37  0     1  0  0  0  0  0999 V2000
   -4.0843   -4.0736    1.2944 H   0  0  0  0  0  0  0  0  0  0  0  0
   -4.0342   -3.2816    0.5484 C   0  0  0  0  0  0  0  0  0  0  0  0
   -4.8842   -2.6126    0.6694 H   0  0  0  0  0  0  0  0  0  0  0  0
   -4.0433   -3.7186   -0.4486 H   0  0  0  0  0  0  0  0  0  0  0  0
   -2.7532   -2.5046    0.7444 C   0  0  0  0  0  0  0  0  0  0  0  0
   -1.9803   -2.8096    1.6434 O   0  0  0  0  0  0  0  0  0  0  0  0
   -2.5332   -1.4966   -0.0966 N   0  0  0  0  0  0  0  0  0  0  0  0
   -3.2312   -1.2816   -0.7936 H   0  0  0  0  0  0  0  0  0  0  0  0
   -1.3593   -0.6196   -0.0536 C   0  0  1  0  0  0  0  0  0  0  0  0
   -1.6354    0.3539   -0.4605 H   0  0  0  0  0  0  0  0  0  0  0  0
   -0.9203   -0.4222    1.4059 C   0  0  0  0  0  0  0  0  0  0  0  0
   -0.0616    0.2512    1.4269 H   0  0  0  0  0  0  0  0  0  0  0  0
   -1.7329    0.0617    1.9505 H   0  0  0  0  0  0  0  0  0  0  0  0
   -0.5428   -1.6773    2.1327 C   0  0  0  0  0  0  0  0  0  0  0  0
    0.6889   -2.2343    2.1530 C   0  0  0  0  0  0  0  0  0  0  0  0
    1.5517   -1.8437    1.6247 H   0  0  0  0  0  0  0  0  0  0  0  0
    0.6784   -3.3547    2.9605 N   0  0  0  0  0  0  0  0  0  0  0  0
    1.4899   -3.9336    3.1205 H   0  0  0  0  0  0  0  0  0  0  0  0
   -0.5646   -3.5674    3.5175 C   0  0  0  0  0  0  0  0  0  0  0  0
   -1.0645   -4.5303    4.4060 C   0  0  0  0  0  0  0  0  0  0  0  0
   -0.4219   -5.3114    4.7849 H   0  0  0  0  0  0  0  0  0  0  0  0
   -2.4134   -4.4656    4.7949 C   0  0  0  0  0  0  0  0  0  0  0  0
   -2.8167   -5.2003    5.4786 H   0  0  0  0  0  0  0  0  0  0  0  0
   -3.2409   -3.4469    4.2881 C   0  0  0  0  0  0  0  0  0  0  0  0
   -4.2802   -3.4058    4.5834 H   0  0  0  0  0  0  0  0  0  0  0  0
   -2.7283   -2.4856    3.3941 C   0  0  0  0  0  0  0  0  0  0  0  0
   -3.3782   -1.7162    3.0019 H   0  0  0  0  0  0  0  0  0  0  0  0
   -1.3764   -2.5194    2.9890 C   0  0  0  0  0  0  0  0  0  0  0  0
   -0.2187   -1.1758   -0.9200 C   0  0  0  0  0  0  0  0  0  0  0  0
    0.4447   -2.1354   -0.5291 O   0  0  0  0  0  0  0  0  0  0  0  0
    0.0096   -0.5727   -2.0945 N   0  0  0  0  0  0  0  0  0  0  0  0
   -0.5439    0.2423   -2.3172 H   0  0  0  0  0  0  0  0  0  0  0  0
    1.0502   -0.9756   -3.0364 C   0  0  0  0  0  0  0  0  0  0  0  0
    0.9682   -2.0449   -3.2404 H   0  0  0  0  0  0  0  0  0  0  0  0
    0.9469   -0.4208   -3.9699 H   0  0  0  0  0  0  0  0  0  0  0  0
    2.0320   -0.7760   -2.6041 H   0  0  0  0  0  0  0  0  0  0  0  0
  5  6  2  0  0  0  0
  5  7  1  0  0  0  0
  2  3  1  0  0  0  0
  2  4  1  0  0  0  0
  2  5  1  0  0  0  0
  1  2  1  0  0  0  0
 29 30  2  0  0  0  0
 29 31  1  0  0  0  0
 26 27  1  0  0  0  0
 26 28  2  0  0  0  0
 24 25  1  0  0  0  0
 24 26  1  0  0  0  0
 22 23  1  0  0  0  0
 22 24  2  0  0  0  0
 20 21  1  0  0  0  0
 20 22  1  0  0  0  0
 19 20  2  0  0  0  0
 19 28  1  0  0  0  0
 17 18  1  0  0  0  0
 17 19  1  0  0  0  0
 15 16  1  0  0  0  0
 15 17  1  0  0  0  0
 14 15  2  0  0  0  0
 14 28  1  0  0  0  0
 11 12  1  0  0  0  0
 11 13  1  0  0  0  0
 11 14  1  0  0  0  0
  9 10  1  0  0  0  0
  9 11  1  0  0  0  0
  9 29  1  0  0  0  0
  7  8  1  0  0  0  0
  7  9  1  0  0  0  0
 33 34  1  0  0  0  0
 33 35  1  0  0  0  0
 33 36  1  0  0  0  0
 31 32  1  0  0  0  0
 31 33  1  0  0  0  0
M  END
$$$$
default_name
  -OEChem-12212115393D

 36 37  0     1  0  0  0  0  0999 V2000
   -4.0843   -4.0736    1.2944 H   0  0  0  0  0  0  0  0  0  0  0  0
   -4.0342   -3.2816    0.5484 C   0  0  0  0  0  0  0  0  0  0  0  0
   -4.8842   -2.6126    0.6694 H   0  0  0  0  0  0  0  0  0  0  0  0
   -4.0433   -3.7186   -0.4486 H   0  0  0  0  0  0  0  0  0  0  0  0
   -2.7532   -2.5046    0.7444 C   0  0  0  0  0  0  0  0  0  0  0  0
   -1.9803   -2.8096    1.6434 O   0  0  0  0  0  0  0  0  0  0  0  0
   -2.5332   -1.4966   -0.0966 N   0  0  0  0  0  0  0  0  0  0  0  0
   -3.2312   -1.2816   -0.7936 H   0  0  0  0  0  0  0  0  0  0  0  0
   -1.3593   -0.6196   -0.0536 C   0  0  1  0  0  0  0  0  0  0  0  0
   -1.6354    0.3539   -0.4605 H   0  0  0  0  0  0  0  0  0  0  0  0
   -0.9203   -0.4222    1.4059 C   0  0  0  0  0  0  0  0  0  0  0  0
   -0.0616    0.2512    1.4269 H   0  0  0  0  0  0  0  0  0  0  0  0
   -1.7329    0.0617    1.9505 H   0  0  0  0  0  0  0  0  0  0  0  0
   -0.5428   -1.6773    2.1327 C   0  0  0  0  0  0  0  0  0  0  0  0
    0.6889   -2.2343    2.1530 C   0  0  0  0  0  0  0  0  0  0  0  0
    1.5517   -1.8437    1.6247 H   0  0  0  0  0  0  0  0  0  0  0  0
    0.6784   -3.3547    2.9605 N   0  0  0  0  0  0  0  0  0  0  0  0
    1.4899   -3.9336    3.1205 H   0  0  0  0  0  0  0  0  0  0  0  0
   -0.5646   -3.5674    3.5175 C   0  0  0  0  0  0  0  0  0  0  0  0
   -1.0645   -4.5303    4.4060 C   0  0  0  0  0  0  0  0  0  0  0  0
   -0.4219   -5.3114    4.7849 H   0  0  0  0  0  0  0  0  0  0  0  0
   -2.4134   -4.4656    4.7949 C   0  0  0  0  0  0  0  0  0  0  0  0
   -2.8167   -5.2003    5.4786 H   0  0  0  0  0  0  0  0  0  0  0  0
   -3.2409   -3.4469    4.2881 C   0  0  0  0  0  0  0  0  0  0  0  0
   -4.2802   -3.4058    4.5834 H   0  0  0  0  0  0  0  0  0  0  0  0
   -2.7283   -2.4856    3.3941 C   0  0  0  0  0  0  0  0  0  0  0  0
   -3.3782   -1.7162    3.0019 H   0  0  0  0  0  0  0  0  0  0  0  0
   -1.3764   -2.5194    2.9890 C   0  0  0  0  0  0  0  0  0  0  0  0
   -0.2187   -1.1758   -0.9200 C   0  0  0  0  0  0  0  0  0  0  0  0
    0.2611   -2.2822   -0.6765 O   0  0  0  0  0  0  0  0  0  0  0  0
    0.2154   -0.4085   -1.9290 N   0  0  0  0  0  0  0  0  0  0  0  0
   -0.1941    0.5095   -2.0282 H   0  0  0  0  0  0  0  0  0  0  0  0
    1.2866   -0.7864   -2.8466 C   0  0  0  0  0  0  0  0  0  0  0  0
    1.0816   -1.7735   -3.2652 H   0  0  0  0  0  0  0  0  0  0  0  0
    1.3616   -0.0592   -3.6562 H   0  0  0  0  0  0  0  0  0  0  0  0
    2.2341   -0.8251   -2.3066 H   0  0  0  0  0  0  0  0  0  0  0  0
  5  6  2  0  0  0  0
  5  7  1  0  0  0  0
  2  3  1  0  0  0  0
  2  4  1  0  0  0  0
  2  5  1  0  0  0  0
  1  2  1  0  0  0  0
 29 30  2  0  0  0  0
 29 31  1  0  0  0  0
 26 27  1  0  0  0  0
 26 28  2  0  0  0  0
 24 25  1  0  0  0  0
 24 26  1  0  0  0  0
 22 23  1  0  0  0  0
 22 24  2  0  0  0  0
 20 21  1  0  0  0  0
 20 22  1  0  0  0  0
 19 20  2  0  0  0  0
 19 28  1  0  0  0  0
 17 18  1  0  0  0  0
 17 19  1  0  0  0  0
 15 16  1  0  0  0  0
 15 17  1  0  0  0  0
 14 15  2  0  0  0  0
 14 28  1  0  0  0  0
 11 12  1  0  0  0  0
 11 13  1  0  0  0  0
 11 14  1  0  0  0  0
  9 10  1  0  0  0  0
  9 11  1  0  0  0  0
  9 29  1  0  0  0  0
  7  8  1  0  0  0  0
  7  9  1  0  0  0  0
 33 34  1  0  0  0  0
 33 35  1  0  0  0  0
 33 36  1  0  0  0  0
 31 32  1  0  0  0  0
 31 33  1  0  0  0  0
M  END
$$$$
default_name
  -OEChem-12212115393D

 36 37  0     1  0  0  0  0  0999 V2000
   -4.0843   -4.0736    1.2944 H   0  0  0  0  0  0  0  0  0  0  0  0
   -4.0342   -3.2816    0.5484 C   0  0  0  0  0  0  0  0  0  0  0  0
   -4.8842   -2.6126    0.6694 H   0  0  0  0  0  0  0  0  0  0  0  0
   -4.0433   -3.7186   -0.4486 H   0  0  0  0  0  0  0  0  0  0  0  0
   -2.7532   -2.5046    0.7444 C   0  0  0  0  0  0  0  0  0  0  0  0
   -1.9803   -2.8096    1.6434 O   0  0  0  0  0  0  0  0  0  0  0  0
   -2.5332   -1.4966   -0.0966 N   0  0  0  0  0  0  0  0  0  0  0  0
   -3.2312   -1.2816   -0.7936 H   0  0  0  0  0  0  0  0  0  0  0  0
   -1.3593   -0.6196   -0.0536 C   0  0  1  0  0  0  0  0  0  0  0  0
   -1.6354    0.3539   -0.4605 H   0  0  0  0  0  0  0  0  0  0  0  0
   -0.9203   -0.4222    1.4059 C   0  0  0  0  0  0  0  0  0  0  0  0
   -0.0616    0.2512    1.4269 H   0  0  0  0  0  0  0  0  0  0  0  0
   -1.7329    0.0617    1.9505 H   0  0  0  0  0  0  0  0  0  0  0  0
   -0.5428   -1.6773    2.1327 C   0  0  0  0  0  0  0  0  0  0  0  0
    0.6889   -2.2343    2.1530 C   0  0  0  0  0  0  0  0  0  0  0  0
    1.5517   -1.8437    1.6247 H   0  0  0  0  0  0  0  0  0  0  0  0
    0.6784   -3.3547    2.9605 N   0  0  0  0  0  0  0  0  0  0  0  0
    1.4899   -3.9336    3.1205 H   0  0  0  0  0  0  0  0  0  0  0  0
   -0.5646   -3.5674    3.5175 C   0  0  0  0  0  0  0  0  0  0  0  0
   -1.0645   -4.5303    4.4060 C   0  0  0  0  0  0  0  0  0  0  0  0
   -0.4219   -5.3114    4.7849 H   0  0  0  0  0  0  0  0  0  0  0  0
   -2.4134   -4.4656    4.7949 C   0  0  0  0  0  0  0  0  0  0  0  0
   -2.8167   -5.2003    5.4786 H   0  0  0  0  0  0  0  0  0  0  0  0
   -3.2409   -3.4469    4.2881 C   0  0  0  0  0  0  0  0  0  0  0  0
   -4.2802   -3.4058    4.5834 H   0  0  0  0  0  0  0  0  0  0  0  0
   -2.7283   -2.4856    3.3941 C   0  0  0  0  0  0  0  0  0  0  0  0
   -3.3782   -1.7162    3.0019 H   0  0  0  0  0  0  0  0  0  0  0  0
   -1.3764   -2.5194    2.9890 C   0  0  0  0  0  0  0  0  0  0  0  0
   -0.2187   -1.1758   -0.9200 C   0  0  0  0  0  0  0  0  0  0  0  0
    0.0762   -2.3690   -0.8643 O   0  0  0  0  0  0  0  0  0  0  0  0
    0.4226   -0.3117   -1.7183 N   0  0  0  0  0  0  0  0  0  0  0  0
    0.1556    0.6610   -1.6650 H   0  0  0  0  0  0  0  0  0  0  0  0
    1.5248   -0.6746   -2.6048 C   0  0  0  0  0  0  0  0  0  0  0  0
    1.2331   -1.5232   -3.2264 H   0  0  0  0  0  0  0  0  0  0  0  0
    1.7855    0.1693   -3.2448 H   0  0  0  0  0  0  0  0  0  0  0  0
    2.3942   -0.9591   -2.0097 H   0  0  0  0  0  0  0  0  0  0  0  0
  5  6  2  0  0  0  0
  5  7  1  0  0  0  0
  2  3  1  0  0  0  0
  2  4  1  0  0  0  0
  2  5  1  0  0  0  0
  1  2  1  0  0  0  0
 29 30  2  0  0  0  0
 29 31  1  0  0  0  0
 26 27  1  0  0  0  0
 26 28  2  0  0  0  0
 24 25  1  0  0  0  0
 24 26  1  0  0  0  0
 22 23  1  0  0  0  0
 22 24  2  0  0  0  0
 20 21  1  0  0  0  0
 20 22  1  0  0  0  0
 19 20  2  0  0  0  0
 19 28  1  0  0  0  0
 17 18  1  0  0  0  0
 17 19  1  0  0  0  0
 15 16  1  0  0  0  0
 15 17  1  0  0  0  0
 14 15  2  0  0  0  0
 14 28  1  0  0  0  0
 11 12  1  0  0  0  0
 11 13  1  0  0  0  0
 11 14  1  0  0  0  0
  9 10  1  0  0  0  0
  9 11  1  0  0  0  0
  9 29  1  0  0  0  0
  7  8  1  0  0  0  0
  7  9  1  0  0  0  0
 33 34  1  0  0  0  0
 33 35  1  0  0  0  0
 33 36  1  0  0  0  0
 31 32  1  0  0  0  0
 31 33  1  0  0  0  0
M  END
$$$$
default_name
  -OEChem-12212115393D

 36 37  0     1  0  0  0  0  0999 V2000
   -4.0843   -4.0736    1.2944 H   0  0  0  0  0  0  0  0  0  0  0  0
   -4.0342   -3.2816    0.5484 C   0  0  0  0  0  0  0  0  0  0  0  0
   -4.8842   -2.6126    0.6694 H   0  0  0  0  0  0  0  0  0  0  0  0
   -4.0433   -3.7186   -0.4486 H   0  0  0  0  0  0  0  0  0  0  0  0
   -2.7532   -2.5046    0.7444 C   0  0  0  0  0  0  0  0  0  0  0  0
   -1.9803   -2.8096    1.6434 O   0  0  0  0  0  0  0  0  0  0  0  0
   -2.5332   -1.4966   -0.0966 N   0  0  0  0  0  0  0  0  0  0  0  0
   -3.2312   -1.2816   -0.7936 H   0  0  0  0  0  0  0  0  0  0  0  0
   -1.3593   -0.6196   -0.0536 C   0  0  1  0  0  0  0  0  0  0  0  0
   -1.6354    0.3539   -0.4605 H   0  0  0  0  0  0  0  0  0  0  0  0
   -0.9203   -0.4222    1.4059 C   0  0  0  0  0  0  0  0  0  0  0  0
   -0.0616    0.2512    1.4269 H   0  0  0  0  0  0  0  0  0  0  0  0
   -1.7329    0.0617    1.9505 H   0  0  0  0  0  0  0  0  0  0  0  0
   -0.5428   -1.6773    2.1327 C   0  0  0  0  0  0  0  0  0  0  0  0
    0.6889   -2.2343    2.1530 C   0  0  0  0  0  0  0  0  0  0  0  0
    1.5517   -1.8437    1.6247 H   0  0  0  0  0  0  0  0  0  0  0  0
    0.6784   -3.3547    2.9605 N   0  0  0  0  0  0  0  0  0  0  0  0
    1.4899   -3.9336    3.1205 H   0  0  0  0  0  0  0  0  0  0  0  0
   -0.5646   -3.5674    3.5175 C   0  0  0  0  0  0  0  0  0  0  0  0
   -1.0645   -4.5303    4.4060 C   0  0  0  0  0  0  0  0  0  0  0  0
   -0.4219   -5.3114    4.7849 H   0  0  0  0  0  0  0  0  0  0  0  0
   -2.4134   -4.4656    4.7949 C   0  0  0  0  0  0  0  0  0  0  0  0
   -2.8167   -5.2003    5.4786 H   0  0  0  0  0  0  0  0  0  0  0  0
   -3.2409   -3.4469    4.2881 C   0  0  0  0  0  0  0  0  0  0  0  0
   -4.2802   -3.4058    4.5834 H   0  0  0  0  0  0  0  0  0  0  0  0
   -2.7283   -2.4856    3.3941 C   0  0  0  0  0  0  0  0  0  0  0  0
   -3.3782   -1.7162    3.0019 H   0  0  0  0  0  0  0  0  0  0  0  0
   -1.3764   -2.5194    2.9890 C   0  0  0  0  0  0  0  0  0  0  0  0
   -0.2187   -1.1758   -0.9200 C   0  0  0  0  0  0  0  0  0  0  0  0
   -0.0976   -2.3897   -1.0797 O   0  0  0  0  0  0  0  0  0  0  0  0
    0.6172   -0.2890   -1.4768 N   0  0  0  0  0  0  0  0  0  0  0  0
    0.4816    0.6865   -1.2523 H   0  0  0  0  0  0  0  0  0  0  0  0
    1.7486   -0.6479   -2.3273 C   0  0  0  0  0  0  0  0  0  0  0  0
    1.4124   -1.3111   -3.1267 H   0  0  0  0  0  0  0  0  0  0  0  0
    2.1898    0.2491   -2.7638 H   0  0  0  0  0  0  0  0  0  0  0  0
    2.5015   -1.1690   -1.7337 H   0  0  0  0  0  0  0  0  0  0  0  0
  5  6  2  0  0  0  0
  5  7  1  0  0  0  0
  2  3  1  0  0  0  0
  2  4  1  0  0  0  0
  2  5  1  0  0  0  0
  1  2  1  0  0  0  0
 29 30  2  0  0  0  0
 29 31  1  0  0  0  0
 26 27  1  0  0  0  0
 26 28  2  0  0  0  0
 24 25  1  0  0  0  0
 24 26  1  0  0  0  0
 22 23  1  0  0  0  0
 22 24  2  0  0  0  0
 20 21  1  0  0  0  0
 20 22  1  0  0  0  0
 19 20  2  0  0  0  0
 19 28  1  0  0  0  0
 17 18  1  0  0  0  0
 17 19  1  0  0  0  0
 15 16  1  0  0  0  0
 15 17  1  0  0  0  0
 14 15  2  0  0  0  0
 14 28  1  0  0  0  0
 11 12  1  0  0  0  0
 11 13  1  0  0  0  0
 11 14  1  0  0  0  0
  9 10  1  0  0  0  0
  9 11  1  0  0  0  0
  9 29  1  0  0  0  0
  7  8  1  0  0  0  0
  7  9  1  0  0  0  0
 33 34  1  0  0  0  0
 33 35  1  0  0  0  0
 33 36  1  0  0  0  0
 31 32  1  0  0  0  0
 31 33  1  0  0  0  0
M  END
$$$$
default_name
  -OEChem-12212115393D

 36 37  0     1  0  0  0  0  0999 V2000
   -4.0843   -4.0736    1.2944 H   0  0  0  0  0  0  0  0  0  0  0  0
   -4.0342   -3.2816    0.5484 C   0  0  0  0  0  0  0  0  0  0  0  0
   -4.8842   -2.6126    0.6694 H   0  0  0  0  0  0  0  0  0  0  0  0
   -4.0433   -3.7186   -0.4486 H   0  0  0  0  0  0  0  0  0  0  0  0
   -2.7532   -2.5046    0.7444 C   0  0  0  0  0  0  0  0  0  0  0  0
   -1.9803   -2.8096    1.6434 O   0  0  0  0  0  0  0  0  0  0  0  0
   -2.5332   -1.4966   -0.0966 N   0  0  0  0  0  0  0  0  0  0  0  0
   -3.2312   -1.2816   -0.7936 H   0  0  0  0  0  0  0  0  0  0  0  0
   -1.3593   -0.6196   -0.0536 C   0  0  1  0  0  0  0  0  0  0  0  0
   -1.6354    0.3539   -0.4605 H   0  0  0  0  0  0  0  0  0  0  0  0
   -0.9203   -0.4222    1.4059 C   0  0  0  0  0  0  0  0  0  0  0  0
   -0.0616    0.2512    1.4269 H   0  0  0  0  0  0  0  0  0  0  0  0
   -1.7329    0.0617    1.9505 H   0  0  0  0  0  0  0  0  0  0  0  0
   -0.5428   -1.6773    2.1327 C   0  0  0  0  0  0  0  0  0  0  0  0
    0.6889   -2.2343    2.1530 C   0  0  0  0  0  0  0  0  0  0  0  0
    1.5517   -1.8437    1.6247 H   0  0  0  0  0  0  0  0  0  0  0  0
    0.6784   -3.3547    2.9605 N   0  0  0  0  0  0  0  0  0  0  0  0
    1.4899   -3.9336    3.1205 H   0  0  0  0  0  0  0  0  0  0  0  0
   -0.5646   -3.5674    3.5175 C   0  0  0  0  0  0  0  0  0  0  0  0
   -1.0645   -4.5303    4.4060 C   0  0  0  0  0  0  0  0  0  0  0  0
   -0.4219   -5.3114    4.7849 H   0  0  0  0  0  0  0  0  0  0  0  0
   -2.4134   -4.4656    4.7949 C   0  0  0  0  0  0  0  0  0  0  0  0
   -2.8167   -5.2003    5.4786 H   0  0  0  0  0  0  0  0  0  0  0  0
   -3.2409   -3.4469    4.2881 C   0  0  0  0  0  0  0  0  0  0  0  0
   -4.2802   -3.4058    4.5834 H   0  0  0  0  0  0  0  0  0  0  0  0
   -2.7283   -2.4856    3.3941 C   0  0  0  0  0  0  0  0  0  0  0  0
   -3.3782   -1.7162    3.0019 H   0  0  0  0  0  0  0  0  0  0  0  0
   -1.3764   -2.5194    2.9890 C   0  0  0  0  0  0  0  0  0  0  0  0
   -0.2187   -1.1758   -0.9200 C   0  0  0  0  0  0  0  0  0  0  0  0
   -0.2482   -2.3430   -1.3081 O   0  0  0  0  0  0  0  0  0  0  0  0
    0.7858   -0.3418   -1.2209 N   0  0  0  0  0  0  0  0  0  0  0  0
    0.7615    0.5843   -0.8182 H   0  0  0  0  0  0  0  0  0  0  0  0
    1.9426   -0.7081   -2.0333 C   0  0  0  0  0  0  0  0  0  0  0  0
    1.6071   -1.1514   -2.9728 H   0  0  0  0  0  0  0  0  0  0  0  0
    2.5469    0.1747   -2.2460 H   0  0  0  0  0  0  0  0  0  0  0  0
    2.5487   -1.4405   -1.4974 H   0  0  0  0  0  0  0  0  0  0  0  0
  5  6  2  0  0  0  0
  5  7  1  0  0  0  0
  2  3  1  0  0  0  0
  2  4  1  0  0  0  0
  2  5  1  0  0  0  0
  1  2  1  0  0  0  0
 29 30  2  0  0  0  0
 29 31  1  0  0  0  0
 26 27  1  0  0  0  0
 26 28  2  0  0  0  0
 24 25  1  0  0  0  0
 24 26  1  0  0  0  0
 22 23  1  0  0  0  0
 22 24  2  0  0  0  0
 20 21  1  0  0  0  0
 20 22  1  0  0  0  0
 19 20  2  0  0  0  0
 19 28  1  0  0  0  0
 17 18  1  0  0  0  0
 17 19  1  0  0  0  0
 15 16  1  0  0  0  0
 15 17  1  0  0  0  0
 14 15  2  0  0  0  0
 14 28  1  0  0  0  0
 11 12  1  0  0  0  0
 11 13  1  0  0  0  0
 11 14  1  0  0  0  0
  9 10  1  0  0  0  0
  9 11  1  0  0  0  0
  9 29  1  0  0  0  0
  7  8  1  0  0  0  0
  7  9  1  0  0  0  0
 33 34  1  0  0  0  0
 33 35  1  0  0  0  0
 33 36  1  0  0  0  0
 31 32  1  0  0  0  0
 31 33  1  0  0  0  0
M  END
$$$$
default_name
  -OEChem-12212115393D

 36 37  0     1  0  0  0  0  0999 V2000
   -4.0843   -4.0736    1.2944 H   0  0  0  0  0  0  0  0  0  0  0  0
   -4.0342   -3.2816    0.5484 C   0  0  0  0  0  0  0  0  0  0  0  0
   -4.8842   -2.6126    0.6694 H   0  0  0  0  0  0  0  0  0  0  0  0
   -4.0433   -3.7186   -0.4486 H   0  0  0  0  0  0  0  0  0  0  0  0
   -2.7532   -2.5046    0.7444 C   0  0  0  0  0  0  0  0  0  0  0  0
   -1.9803   -2.8096    1.6434 O   0  0  0  0  0  0  0  0  0  0  0  0
   -2.5332   -1.4966   -0.0966 N   0  0  0  0  0  0  0  0  0  0  0  0
   -3.2312   -1.2816   -0.7936 H   0  0  0  0  0  0  0  0  0  0  0  0
   -1.3593   -0.6196   -0.0536 C   0  0  1  0  0  0  0  0  0  0  0  0
   -1.6868    0.4101   -0.2017 H   0  0  0  0  0  0  0  0  0  0  0  0
   -0.6968   -0.7177    1.3296 C   0  0  0  0  0  0  0  0  0  0  0  0
    0.1605   -0.0428    1.3576 H   0  0  0  0  0  0  0  0  0  0  0  0
   -1.4105   -0.3763    2.0814 H   0  0  0  0  0  0  0  0  0  0  0  0
   -0.2217   -2.0865    1.7127 C   0  0  0  0  0  0  0  0  0  0  0  0
    0.9932   -2.6060    1.4268 C   0  0  0  0  0  0  0  0  0  0  0  0
    1.7666   -2.0941    0.8648 H   0  0  0  0  0  0  0  0  0  0  0  0
    1.0987   -3.8691    1.9755 N   0  0  0  0  0  0  0  0  0  0  0  0
    1.9201   -4.4489    1.8847 H   0  0  0  0  0  0  0  0  0  0  0  0
   -0.0443   -4.2219    2.6608 C   0  0  0  0  0  0  0  0  0  0  0  0
   -0.4082   -5.3593    3.3959 C   0  0  0  0  0  0  0  0  0  0  0  0
    0.2787   -6.1863    3.5006 H   0  0  0  0  0  0  0  0  0  0  0  0
   -1.6795   -5.4087    3.9928 C   0  0  0  0  0  0  0  0  0  0  0  0
   -1.9779   -6.2783    4.5626 H   0  0  0  0  0  0  0  0  0  0  0  0
   -2.5669   -4.3273    3.8424 C   0  0  0  0  0  0  0  0  0  0  0  0
   -3.5472   -4.3730    4.2963 H   0  0  0  0  0  0  0  0  0  0  0  0
   -2.1913   -3.1900    3.0997 C   0  0  0  0  0  0  0  0  0  0  0  0
   -2.8876   -2.3720    2.9809 H   0  0  0  0  0  0  0  0  0  0  0  0
   -0.9192   -3.1070    2.4931 C   0  0  0  0  0  0  0  0  0  0  0  0
   -0.3723   -0.9573   -1.1818 C   0  0  0  0  0  0  0  0  0  0  0  0
   -0.6221   -1.8670   -1.9716 O   0  0  0  0  0  0  0  0  0  0  0  0
    0.7482   -0.2265   -1.2558 N   0  0  0  0  0  0  0  0  0  0  0  0
    0.9035    0.4657   -0.5367 H   0  0  0  0  0  0  0  0  0  0  0  0
    1.7866   -0.4143   -2.2651 C   0  0  0  0  0  0  0  0  0  0  0  0
    1.3381   -0.4076   -3.2603 H   0  0  0  0  0  0  0  0  0  0  0  0
    2.5258    0.3848   -2.1966 H   0  0  0  0  0  0  0  0  0  0  0  0
    2.2784   -1.3759   -2.1093 H   0  0  0  0  0  0  0  0  0  0  0  0
  5  6  2  0  0  0  0
  5  7  1  0  0  0  0
  2  3  1  0  0  0  0
  2  4  1  0  0  0  0
  2  5  1  0  0  0  0
  1  2  1  0  0  0  0
 29 30  2  0  0  0  0
 29 31  1  0  0  0  0
 26 27  1  0  0  0  0
 26 28  2  0  0  0  0
 24 25  1  0  0  0  0
 24 26  1  0  0  0  0
 22 23  1  0  0  0  0
 22 24  2  0  0  0  0
 20 21  1  0  0  0  0
 20 22  1  0  0  0  0
 19 20  2  0  0  0  0
 19 28  1  0  0  0  0
 17 18  1  0  0  0  0
 17 19  1  0  0  0  0
 15 16  1  0  0  0  0
 15 17  1  0  0  0  0
 14 15  2  0  0  0  0
 14 28  1  0  0  0  0
 11 12  1  0  0  0  0
 11 13  1  0  0  0  0
 11 14  1  0  0  0  0
  9 10  1  0  0  0  0
  9 11  1  0  0  0  0
  9 29  1  0  0  0  0
  7  8  1  0  0  0  0
  7  9  1  0  0  0  0
 33 34  1  0  0  0  0
 33 35  1  0  0  0  0
 33 36  1  0  0  0  0
 31 32  1  0  0  0  0
 31 33  1  0  0  0  0
M  END
$$$$
default_name
  -OEChem-12212115393D

 36 37  0     1  0  0  0  0  0999 V2000
   -4.0843   -4.0736    1.2944 H   0  0  0  0  0  0  0  0  0  0  0  0
   -4.0342   -3.2816    0.5484 C   0  0  0  0  0  0  0  0  0  0  0  0
   -4.8842   -2.6126    0.6694 H   0  0  0  0  0  0  0  0  0  0  0  0
   -4.0433   -3.7186   -0.4486 H   0  0  0  0  0  0  0  0  0  0  0  0
   -2.7532   -2.5046    0.7444 C   0  0  0  0  0  0  0  0  0  0  0  0
   -1.9803   -2.8096    1.6434 O   0  0  0  0  0  0  0  0  0  0  0  0
   -2.5332   -1.4966   -0.0966 N   0  0  0  0  0  0  0  0  0  0  0  0
   -3.2312   -1.2816   -0.7936 H   0  0  0  0  0  0  0  0  0  0  0  0
   -1.3593   -0.6196   -0.0536 C   0  0  1  0  0  0  0  0  0  0  0  0
   -1.6868    0.4101   -0.2017 H   0  0  0  0  0  0  0  0  0  0  0  0
   -0.6968   -0.7177    1.3296 C   0  0  0  0  0  0  0  0  0  0  0  0
    0.1605   -0.0428    1.3576 H   0  0  0  0  0  0  0  0  0  0  0  0
   -1.4105   -0.3763    2.0814 H   0  0  0  0  0  0  0  0  0  0  0  0
   -0.2217   -2.0865    1.7127 C   0  0  0  0  0  0  0  0  0  0  0  0
    0.9932   -2.6060    1.4268 C   0  0  0  0  0  0  0  0  0  0  0  0
    1.7666   -2.0941    0.8648 H   0  0  0  0  0  0  0  0  0  0  0  0
    1.0987   -3.8691    1.9755 N   0  0  0  0  0  0  0  0  0  0  0  0
    1.9201   -4.4489    1.8847 H   0  0  0  0  0  0  0  0  0  0  0  0
   -0.0443   -4.2219    2.6608 C   0  0  0  0  0  0  0  0  0  0  0  0
   -0.4082   -5.3593    3.3959 C   0  0  0  0  0  0  0  0  0  0  0  0
    0.2787   -6.1863    3.5006 H   0  0  0  0  0  0  0  0  0  0  0  0
   -1.6795   -5.4087    3.9928 C   0  0  0  0  0  0  0  0  0  0  0  0
   -1.9779   -6.2783    4.5626 H   0  0  0  0  0  0  0  0  0  0  0  0
   -2.5669   -4.3273    3.8424 C   0  0  0  0  0  0  0  0  0  0  0  0
   -3.5472   -4.3730    4.2963 H   0  0  0  0  0  0  0  0  0  0  0  0
   -2.1913   -3.1900    3.0997 C   0  0  0  0  0  0  0  0  0  0  0  0
   -2.8876   -2.3720    2.9809 H   0  0  0  0  0  0  0  0  0  0  0  0
   -0.9192   -3.1070    2.4931 C   0  0  0  0  0  0  0  0  0  0  0  0
   -0.3723   -0.9573   -1.1818 C   0  0  0  0  0  0  0  0  0  0  0  0
   -0.7280   -1.6619   -2.1256 O   0  0  0  0  0  0  0  0  0  0  0  0
    0.8665   -0.4566   -1.0833 N   0  0  0  0  0  0  0  0  0  0  0  0
    1.0945    0.0672   -0.2503 H   0  0  0  0  0  0  0  0  0  0  0  0
    1.9230   -0.6784   -2.0667 C   0  0  0  0  0  0  0  0  0  0  0  0
    1.5573   -0.4245   -3.0635 H   0  0  0  0  0  0  0  0  0  0  0  0
    2.7905   -0.0602   -1.8319 H   0  0  0  0  0  0  0  0  0  0  0  0
    2.2155   -1.7297   -2.0584 H   0  0  0  0  0  0  0  0  0  0  0  0
  5  6  2  0  0  0  0
  5  7  1  0  0  0  0
  2  3  1  0  0  0  0
  2  4  1  0  0  0  0
  2  5  1  0  0  0  0
  1  2  1  0  0  0  0
 29 30  2  0  0  0  0
 29 31  1  0  0  0  0
 26 27  1  0  0  0  0
 26 28  2  0  0  0  0
 24 25  1  0  0  0  0
 24 26  1  0  0  0  0
 22 23  1  0  0  0  0
 22 24  2  0  0  0  0
 20 21  1  0  0  0  0
 20 22  1  0  0  0  0
 19 20  2  0  0  0  0
 19 28  1  0  0  0  0
 17 18  1  0  0  0  0
 17 19  1  0  0  0  0
 15 16  1  0  0  0  0
 15 17  1  0  0  0  0
 14 15  2  0  0  0  0
 14 28  1  0  0  0  0
 11 12  1  0  0  0  0
 11 13  1  0  0  0  0
 11 14  1  0  0  0  0
  9 10  1  0  0  0  0
  9 11  1  0  0  0  0
  9 29  1  0  0  0  0
  7  8  1  0  0  0  0
  7  9  1  0  0  0  0
 33 34  1  0  0  0  0
 33 35  1  0  0  0  0
 33 36  1  0  0  0  0
 31 32  1  0  0  0  0
 31 33  1  0  0  0  0
M  END
$$$$
default_name
  -OEChem-12212115393D

 36 37  0     1  0  0  0  0  0999 V2000
   -4.0843   -4.0736    1.2944 H   0  0  0  0  0  0  0  0  0  0  0  0
   -4.0342   -3.2816    0.5484 C   0  0  0  0  0  0  0  0  0  0  0  0
   -4.8842   -2.6126    0.6694 H   0  0  0  0  0  0  0  0  0  0  0  0
   -4.0433   -3.7186   -0.4486 H   0  0  0  0  0  0  0  0  0  0  0  0
   -2.7532   -2.5046    0.7444 C   0  0  0  0  0  0  0  0  0  0  0  0
   -1.9803   -2.8096    1.6434 O   0  0  0  0  0  0  0  0  0  0  0  0
   -2.5332   -1.4966   -0.0966 N   0  0  0  0  0  0  0  0  0  0  0  0
   -3.2312   -1.2816   -0.7936 H   0  0  0  0  0  0  0  0  0  0  0  0
   -1.3593   -0.6196   -0.0536 C   0  0  1  0  0  0  0  0  0  0  0  0
   -1.6868    0.4101   -0.2017 H   0  0  0  0  0  0  0  0  0  0  0  0
   -0.6968   -0.7177    1.3296 C   0  0  0  0  0  0  0  0  0  0  0  0
    0.1605   -0.0428    1.3576 H   0  0  0  0  0  0  0  0  0  0  0  0
   -1.4105   -0.3763    2.0814 H   0  0  0  0  0  0  0  0  0  0  0  0
   -0.2217   -2.0865    1.7127 C   0  0  0  0  0  0  0  0  0  0  0  0
    0.9932   -2.6060    1.4268 C   0  0  0  0  0  0  0  0  0  0  0  0
    1.7666   -2.0941    0.8648 H   0  0  0  0  0  0  0  0  0  0  0  0
    1.0987   -3.8691    1.9755 N   0  0  0  0  0  0  0  0  0  0  0  0
    1.9201   -4.4489    1.8847 H   0  0  0  0  0  0  0  0  0  0  0  0
   -0.0443   -4.2219    2.6608 C   0  0  0  0  0  0  0  0  0  0  0  0
   -0.4082   -5.3593    3.3959 C   0  0  0  0  0  0  0  0  0  0  0  0
    0.2787   -6.1863    3.5006 H   0  0  0  0  0  0  0  0  0  0  0  0
   -1.6795   -5.4087    3.9928 C   0  0  0  0  0  0  0  0  0  0  0  0
   -1.9779   -6.2783    4.5626 H   0  0  0  0  0  0  0  0  0  0  0  0
   -2.5669   -4.3273    3.8424 C   0  0  0  0  0  0  0  0  0  0  0  0
   -3.5472   -4.3730    4.2963 H   0  0  0  0  0  0  0  0  0  0  0  0
   -2.1913   -3.1900    3.0997 C   0  0  0  0  0  0  0  0  0  0  0  0
   -2.8876   -2.3720    2.9809 H   0  0  0  0  0  0  0  0  0  0  0  0
   -0.9192   -3.1070    2.4931 C   0  0  0  0  0  0  0  0  0  0  0  0
   -0.3723   -0.9573   -1.1818 C   0  0  0  0  0  0  0  0  0  0  0  0
   -0.7825   -1.4181   -2.2463 O   0  0  0  0  0  0  0  0  0  0  0  0
    0.9273   -0.7300   -0.9483 N   0  0  0  0  0  0  0  0  0  0  0  0
    1.1870   -0.4015   -0.0291 H   0  0  0  0  0  0  0  0  0  0  0  0
    1.9933   -0.9925   -1.9112 C   0  0  0  0  0  0  0  0  0  0  0  0
    1.7547   -0.5153   -2.8637 H   0  0  0  0  0  0  0  0  0  0  0  0
    2.9407   -0.6011   -1.5386 H   0  0  0  0  0  0  0  0  0  0  0  0
    2.0845   -2.0680   -2.0717 H   0  0  0  0  0  0  0  0  0  0  0  0
  5  6  2  0  0  0  0
  5  7  1  0  0  0  0
  2  3  1  0  0  0  0
  2  4  1  0  0  0  0
  2  5  1  0  0  0  0
  1  2  1  0  0  0  0
 29 30  2  0  0  0  0
 29 31  1  0  0  0  0
 26 27  1  0  0  0  0
 26 28  2  0  0  0  0
 24 25  1  0  0  0  0
 24 26  1  0  0  0  0
 22 23  1  0  0  0  0
 22 24  2  0  0  0  0
 20 21  1  0  0  0  0
 20 22  1  0  0  0  0
 19 20  2  0  0  0  0
 19 28  1  0  0  0  0
 17 18  1  0  0  0  0
 17 19  1  0  0  0  0
 15 16  1  0  0  0  0
 15 17  1  0  0  0  0
 14 15  2  0  0  0  0
 14 28  1  0  0  0  0
 11 12  1  0  0  0  0
 11 13  1  0  0  0  0
 11 14  1  0  0  0  0
  9 10  1  0  0  0  0
  9 11  1  0  0  0  0
  9 29  1  0  0  0  0
  7  8  1  0  0  0  0
  7  9  1  0  0  0  0
 33 34  1  0  0  0  0
 33 35  1  0  0  0  0
 33 36  1  0  0  0  0
 31 32  1  0  0  0  0
 31 33  1  0  0  0  0
M  END
$$$$
default_name
  -OEChem-12212115393D

 36 37  0     1  0  0  0  0  0999 V2000
   -4.0843   -4.0736    1.2944 H   0  0  0  0  0  0  0  0  0  0  0  0
   -4.0342   -3.2816    0.5484 C   0  0  0  0  0  0  0  0  0  0  0  0
   -4.8842   -2.6126    0.6694 H   0  0  0  0  0  0  0  0  0  0  0  0
   -4.0433   -3.7186   -0.4486 H   0  0  0  0  0  0  0  0  0  0  0  0
   -2.7532   -2.5046    0.7444 C   0  0  0  0  0  0  0  0  0  0  0  0
   -1.9803   -2.8096    1.6434 O   0  0  0  0  0  0  0  0  0  0  0  0
   -2.5332   -1.4966   -0.0966 N   0  0  0  0  0  0  0  0  0  0  0  0
   -3.2312   -1.2816   -0.7936 H   0  0  0  0  0  0  0  0  0  0  0  0
   -1.3593   -0.6196   -0.0536 C   0  0  1  0  0  0  0  0  0  0  0  0
   -1.6868    0.4101   -0.2017 H   0  0  0  0  0  0  0  0  0  0  0  0
   -0.6968   -0.7177    1.3296 C   0  0  0  0  0  0  0  0  0  0  0  0
    0.1605   -0.0428    1.3576 H   0  0  0  0  0  0  0  0  0  0  0  0
   -1.4105   -0.3763    2.0814 H   0  0  0  0  0  0  0  0  0  0  0  0
   -0.2217   -2.0865    1.7127 C   0  0  0  0  0  0  0  0  0  0  0  0
    0.9932   -2.6060    1.4268 C   0  0  0  0  0  0  0  0  0  0  0  0
    1.7666   -2.0941    0.8648 H   0  0  0  0  0  0  0  0  0  0  0  0
    1.0987   -3.8691    1.9755 N   0  0  0  0  0  0  0  0  0  0  0  0
    1.9201   -4.4489    1.8847 H   0  0  0  0  0  0  0  0  0  0  0  0
   -0.0443   -4.2219    2.6608 C   0  0  0  0  0  0  0  0  0  0  0  0
   -0.4082   -5.3593    3.3959 C   0  0  0  0  0  0  0  0  0  0  0  0
    0.2787   -6.1863    3.5006 H   0  0  0  0  0  0  0  0  0  0  0  0
   -1.6795   -5.4087    3.9928 C   0  0  0  0  0  0  0  0  0  0  0  0
   -1.9779   -6.2783    4.5626 H   0  0  0  0  0  0  0  0  0  0  0  0
   -2.5669   -4.3273    3.8424 C   0  0  0  0  0  0  0  0  0  0  0  0
   -3.5472   -4.3730    4.2963 H   0  0  0  0  0  0  0  0  0  0  0  0
   -2.1913   -3.1900    3.0997 C   0  0  0  0  0  0  0  0  0  0  0  0
   -2.8876   -2.3720    2.9809 H   0  0  0  0  0  0  0  0  0  0  0  0
   -0.9192   -3.1070    2.4931 C   0  0  0  0  0  0  0  0  0  0  0  0
   -0.3723   -0.9573   -1.1818 C   0  0  0  0  0  0  0  0  0  0  0  0
   -0.7820   -1.1521   -2.3254 O   0  0  0  0  0  0  0  0  0  0  0  0
    0.9264   -1.0282   -0.8599 N   0  0  0  0  0  0  0  0  0  0  0  0
    1.1746   -0.9087    0.1119 H   0  0  0  0  0  0  0  0  0  0  0  0
    1.9926   -1.3350   -1.8093 C   0  0  0  0  0  0  0  0  0  0  0  0
    1.9167   -0.6738   -2.6746 H   0  0  0  0  0  0  0  0  0  0  0  0
    2.9664   -1.2008   -1.3366 H   0  0  0  0  0  0  0  0  0  0  0  0
    1.8946   -2.3676   -2.1482 H   0  0  0  0  0  0  0  0  0  0  0  0
  5  6  2  0  0  0  0
  5  7  1  0  0  0  0
  2  3  1  0  0  0  0
  2  4  1  0  0  0  0
  2  5  1  0  0  0  0
  1  2  1  0  0  0  0
 29 30  2  0  0  0  0
 29 31  1  0  0  0  0
 26 27  1  0  0  0  0
 26 28  2  0  0  0  0
 24 25  1  0  0  0  0
 24 26  1  0  0  0  0
 22 23  1  0  0  0  0
 22 24  2  0  0  0  0
 20 21  1  0  0  0  0
 20 22  1  0  0  0  0
 19 20  2  0  0  0  0
 19 28  1  0  0  0  0
 17 18  1  0  0  0  0
 17 19  1  0  0  0  0
 15 16  1  0  0  0  0
 15 17  1  0  0  0  0
 14 15  2  0  0  0  0
 14 28  1  0  0  0  0
 11 12  1  0  0  0  0
 11 13  1  0  0  0  0
 11 14  1  0  0  0  0
  9 10  1  0  0  0  0
  9 11  1  0  0  0  0
  9 29  1  0  0  0  0
  7  8  1  0  0  0  0
  7  9  1  0  0  0  0
 33 34  1  0  0  0  0
 33 35  1  0  0  0  0
 33 36  1  0  0  0  0
 31 32  1  0  0  0  0
 31 33  1  0  0  0  0
M  END
$$$$
default_name
  -OEChem-12212115393D

 36 37  0     1  0  0  0  0  0999 V2000
   -4.0843   -4.0736    1.2944 H   0  0  0  0  0  0  0  0  0  0  0  0
   -4.0342   -3.2816    0.5484 C   0  0  0  0  0  0  0  0  0  0  0  0
   -4.8842   -2.6126    0.6694 H   0  0  0  0  0  0  0  0  0  0  0  0
   -4.0433   -3.7186   -0.4486 H   0  0  0  0  0  0  0  0  0  0  0  0
   -2.7532   -2.5046    0.7444 C   0  0  0  0  0  0  0  0  0  0  0  0
   -1.9803   -2.8096    1.6434 O   0  0  0  0  0  0  0  0  0  0  0  0
   -2.5332   -1.4966   -0.0966 N   0  0  0  0  0  0  0  0  0  0  0  0
   -3.2312   -1.2816   -0.7936 H   0  0  0  0  0  0  0  0  0  0  0  0
   -1.3593   -0.6196   -0.0536 C   0  0  1  0  0  0  0  0  0  0  0  0
   -1.6868    0.4101   -0.2017 H   0  0  0  0  0  0  0  0  0  0  0  0
   -0.6968   -0.7177    1.3296 C   0  0  0  0  0  0  0  0  0  0  0  0
    0.1605   -0.0428    1.3576 H   0  0  0  0  0  0  0  0  0  0  0  0
   -1.4105   -0.3763    2.0814 H   0  0  0  0  0  0  0  0  0  0  0  0
   -0.2217   -2.0865    1.7127 C   0  0  0  0  0  0  0  0  0  0  0  0
    0.9932   -2.6060    1.4268 C   0  0  0  0  0  0  0  0  0  0  0  0
    1.7666   -2.0941    0.8648 H   0  0  0  0  0  0  0  0  0  0  0  0
    1.0987   -3.8691    1.9755 N   0  0  0  0  0  0  0  0  0  0  0  0
    1.9201   -4.4489    1.8847 H   0  0  0  0  0  0  0  0  0  0  0  0
   -0.0443   -4.2219    2.6608 C   0  0  0  0  0  0  0  0  0  0  0  0
   -0.4082   -5.3593    3.3959 C   0  0  0  0  0  0  0  0  0  0  0  0
    0.2787   -6.1863    3.5006 H   0  0  0  0  0  0  0  0  0  0  0  0
   -1.6795   -5.4087    3.9928 C   0  0  0  0  0  0  0  0  0  0  0  0
   -1.9779   -6.2783    4.5626 H   0  0  0  0  0  0  0  0  0  0  0  0
   -2.5669   -4.3273    3.8424 C   0  0  0  0  0  0  0  0  0  0  0  0
   -3.5472   -4.3730    4.2963 H   0  0  0  0  0  0  0  0  0  0  0  0
   -2.1913   -3.1900    3.0997 C   0  0  0  0  0  0  0  0  0  0  0  0
   -2.8876   -2.3720    2.9809 H   0  0  0  0  0  0  0  0  0  0  0  0
   -0.9192   -3.1070    2.4931 C   0  0  0  0  0  0  0  0  0  0  0  0
   -0.3723   -0.9573   -1.1818 C   0  0  0  0  0  0  0  0  0  0  0  0
   -0.7264   -0.8821   -2.3576 O   0  0  0  0  0  0  0  0  0  0  0  0
    0.8638   -1.3307   -0.8242 N   0  0  0  0  0  0  0  0  0  0  0  0
    1.0583   -1.4196    0.1630 H   0  0  0  0  0  0  0  0  0  0  0  0
    1.9211   -1.6827   -1.7678 C   0  0  0  0  0  0  0  0  0  0  0  0
    2.0323   -0.8890   -2.5090 H   0  0  0  0  0  0  0  0  0  0  0  0
    2.8658   -1.8186   -1.2397 H   0  0  0  0  0  0  0  0  0  0  0  0
    1.6584   -2.6083   -2.2828 H   0  0  0  0  0  0  0  0  0  0  0  0
  5  6  2  0  0  0  0
  5  7  1  0  0  0  0
  2  3  1  0  0  0  0
  2  4  1  0  0  0  0
  2  5  1  0  0  0  0
  1  2  1  0  0  0  0
 29 30  2  0  0  0  0
 29 31  1  0  0  0  0
 26 27  1  0  0  0  0
 26 28  2  0  0  0  0
 24 25  1  0  0  0  0
 24 26  1  0  0  0  0
 22 23  1  0  0  0  0
 22 24  2  0  0  0  0
 20 21  1  0  0  0  0
 20 22  1  0  0  0  0
 19 20  2  0  0  0  0
 19 28  1  0  0  0  0
 17 18  1  0  0  0  0
 17 19  1  0  0  0  0
 15 16  1  0  0  0  0
 15 17  1  0  0  0  0
 14 15  2  0  0  0  0
 14 28  1  0  0  0  0
 11 12  1  0  0  0  0
 11 13  1  0  0  0  0
 11 14  1  0  0  0  0
  9 10  1  0  0  0  0
  9 11  1  0  0  0  0
  9 29  1  0  0  0  0
  7  8  1  0  0  0  0
  7  9  1  0  0  0  0
 33 34  1  0  0  0  0
 33 35  1  0  0  0  0
 33 36  1  0  0  0  0
 31 32  1  0  0  0  0
 31 33  1  0  0  0  0
M  END
$$$$
default_name
  -OEChem-12212115393D

 36 37  0     1  0  0  0  0  0999 V2000
   -4.0843   -4.0736    1.2944 H   0  0  0  0  0  0  0  0  0  0  0  0
   -4.0342   -3.2816    0.5484 C   0  0  0  0  0  0  0  0  0  0  0  0
   -4.8842   -2.6126    0.6694 H   0  0  0  0  0  0  0  0  0  0  0  0
   -4.0433   -3.7186   -0.4486 H   0  0  0  0  0  0  0  0  0  0  0  0
   -2.7532   -2.5046    0.7444 C   0  0  0  0  0  0  0  0  0  0  0  0
   -1.9803   -2.8096    1.6434 O   0  0  0  0  0  0  0  0  0  0  0  0
   -2.5332   -1.4966   -0.0966 N   0  0  0  0  0  0  0  0  0  0  0  0
   -3.2312   -1.2816   -0.7936 H   0  0  0  0  0  0  0  0  0  0  0  0
   -1.3593   -0.6196   -0.0536 C   0  0  1  0  0  0  0  0  0  0  0  0
   -1.6868    0.4101   -0.2017 H   0  0  0  0  0  0  0  0  0  0  0  0
   -0.6968   -0.7177    1.3296 C   0  0  0  0  0  0  0  0  0  0  0  0
    0.1605   -0.0428    1.3576 H   0  0  0  0  0  0  0  0  0  0  0  0
   -1.4105   -0.3763    2.0814 H   0  0  0  0  0  0  0  0  0  0  0  0
   -0.2217   -2.0865    1.7127 C   0  0  0  0  0  0  0  0  0  0  0  0
    0.9932   -2.6060    1.4268 C   0  0  0  0  0  0  0  0  0  0  0  0
    1.7666   -2.0941    0.8648 H   0  0  0  0  0  0  0  0  0  0  0  0
    1.0987   -3.8691    1.9755 N   0  0  0  0  0  0  0  0  0  0  0  0
    1.9201   -4.4489    1.8847 H   0  0  0  0  0  0  0  0  0  0  0  0
   -0.0443   -4.2219    2.6608 C   0  0  0  0  0  0  0  0  0  0  0  0
   -0.4082   -5.3593    3.3959 C   0  0  0  0  0  0  0  0  0  0  0  0
    0.2787   -6.1863    3.5006 H   0  0  0  0  0  0  0  0  0  0  0  0
   -1.6795   -5.4087    3.9928 C   0  0  0  0  0  0  0  0  0  0  0  0
   -1.9779   -6.2783    4.5626 H   0  0  0  0  0  0  0  0  0  0  0  0
   -2.5669   -4.3273    3.8424 C   0  0  0  0  0  0  0  0  0  0  0  0
   -3.5472   -4.3730    4.2963 H   0  0  0  0  0  0  0  0  0  0  0  0
   -2.1913   -3.1900    3.0997 C   0  0  0  0  0  0  0  0  0  0  0  0
   -2.8876   -2.3720    2.9809 H   0  0  0  0  0  0  0  0  0  0  0  0
   -0.9192   -3.1070    2.4931 C   0  0  0  0  0  0  0  0  0  0  0  0
   -0.3723   -0.9573   -1.1818 C   0  0  0  0  0  0  0  0  0  0  0  0
   -0.6196   -0.6265   -2.3407 O   0  0  0  0  0  0  0  0  0  0  0  0
    0.7438   -1.6169   -0.8434 N   0  0  0  0  0  0  0  0  0  0  0  0
    0.8459   -1.8996    0.1209 H   0  0  0  0  0  0  0  0  0  0  0  0
    1.7836   -2.0119   -1.7895 C   0  0  0  0  0  0  0  0  0  0  0  0
    2.0936   -1.1464   -2.3783 H   0  0  0  0  0  0  0  0  0  0  0  0
    2.6457   -2.4123   -1.2546 H   0  0  0  0  0  0  0  0  0  0  0  0
    1.3923   -2.7734   -2.4661 H   0  0  0  0  0  0  0  0  0  0  0  0
  5  6  2  0  0  0  0
  5  7  1  0  0  0  0
  2  3  1  0  0  0  0
  2  4  1  0  0  0  0
  2  5  1  0  0  0  0
  1  2  1  0  0  0  0
 29 30  2  0  0  0  0
 29 31  1  0  0  0  0
 26 27  1  0  0  0  0
 26 28  2  0  0  0  0
 24 25  1  0  0  0  0
 24 26  1  0  0  0  0
 22 23  1  0  0  0  0
 22 24  2  0  0  0  0
 20 21  1  0  0  0  0
 20 22  1  0  0  0  0
 19 20  2  0  0  0  0
 19 28  1  0  0  0  0
 17 18  1  0  0  0  0
 17 19  1  0  0  0  0
 15 16  1  0  0  0  0
 15 17  1  0  0  0  0
 14 15  2  0  0  0  0
 14 28  1  0  0  0  0
 11 12  1  0  0  0  0
 11 13  1  0  0  0  0
 11 14  1  0  0  0  0
  9 10  1  0  0  0  0
  9 11  1  0  0  0  0
  9 29  1  0  0  0  0
  7  8  1  0  0  0  0
  7  9  1  0  0  0  0
 33 34  1  0  0  0  0
 33 35  1  0  0  0  0
 33 36  1  0  0  0  0
 31 32  1  0  0  0  0
 31 33  1  0  0  0  0
M  END
$$$$
default_name
  -OEChem-12212115393D

 36 37  0     1  0  0  0  0  0999 V2000
   -4.0843   -4.0736    1.2944 H   0  0  0  0  0  0  0  0  0  0  0  0
   -4.0342   -3.2816    0.5484 C   0  0  0  0  0  0  0  0  0  0  0  0
   -4.8842   -2.6126    0.6694 H   0  0  0  0  0  0  0  0  0  0  0  0
   -4.0433   -3.7186   -0.4486 H   0  0  0  0  0  0  0  0  0  0  0  0
   -2.7532   -2.5046    0.7444 C   0  0  0  0  0  0  0  0  0  0  0  0
   -1.9803   -2.8096    1.6434 O   0  0  0  0  0  0  0  0  0  0  0  0
   -2.5332   -1.4966   -0.0966 N   0  0  0  0  0  0  0  0  0  0  0  0
   -3.2312   -1.2816   -0.7936 H   0  0  0  0  0  0  0  0  0  0  0  0
   -1.3593   -0.6196   -0.0536 C   0  0  1  0  0  0  0  0  0  0  0  0
   -1.6868    0.4101   -0.2017 H   0  0  0  0  0  0  0  0  0  0  0  0
   -0.6968   -0.7177    1.3296 C   0  0  0  0  0  0  0  0  0  0  0  0
    0.1605   -0.0428    1.3576 H   0  0  0  0  0  0  0  0  0  0  0  0
   -1.4105   -0.3763    2.0814 H   0  0  0  0  0  0  0  0  0  0  0  0
   -0.2217   -2.0865    1.7127 C   0  0  0  0  0  0  0  0  0  0  0  0
    0.9932   -2.6060    1.4268 C   0  0  0  0  0  0  0  0  0  0  0  0
    1.7666   -2.0941    0.8648 H   0  0  0  0  0  0  0  0  0  0  0  0
    1.0987   -3.8691    1.9755 N   0  0  0  0  0  0  0  0  0  0  0  0
    1.9201   -4.4489    1.8847 H   0  0  0  0  0  0  0  0  0  0  0  0
   -0.0443   -4.2219    2.6608 C   0  0  0  0  0  0  0  0  0  0  0  0
   -0.4082   -5.3593    3.3959 C   0  0  0  0  0  0  0  0  0  0  0  0
    0.2787   -6.1863    3.5006 H   0  0  0  0  0  0  0  0  0  0  0  0
   -1.6795   -5.4087    3.9928 C   0  0  0  0  0  0  0  0  0  0  0  0
   -1.9779   -6.2783    4.5626 H   0  0  0  0  0  0  0  0  0  0  0  0
   -2.5669   -4.3273    3.8424 C   0  0  0  0  0  0  0  0  0  0  0  0
   -3.5472   -4.3730    4.2963 H   0  0  0  0  0  0  0  0  0  0  0  0
   -2.1913   -3.1900    3.0997 C   0  0  0  0  0  0  0  0  0  0  0  0
   -2.8876   -2.3720    2.9809 H   0  0  0  0  0  0  0  0  0  0  0  0
   -0.9192   -3.1070    2.4931 C   0  0  0  0  0  0  0  0  0  0  0  0
   -0.3723   -0.9573   -1.1818 C   0  0  0  0  0  0  0  0  0  0  0  0
   -0.4689   -0.4028   -2.2758 O   0  0  0  0  0  0  0  0  0  0  0  0
    0.5746   -1.8674   -0.9165 N   0  0  0  0  0  0  0  0  0  0  0  0
    0.5520   -2.3158   -0.0117 H   0  0  0  0  0  0  0  0  0  0  0  0
    1.5894   -2.3000   -1.8731 C   0  0  0  0  0  0  0  0  0  0  0  0
    2.0965   -1.4284   -2.2913 H   0  0  0  0  0  0  0  0  0  0  0  0
    2.3211   -2.9415   -1.3801 H   0  0  0  0  0  0  0  0  0  0  0  0
    1.1143   -2.8519   -2.6858 H   0  0  0  0  0  0  0  0  0  0  0  0
  5  6  2  0  0  0  0
  5  7  1  0  0  0  0
  2  3  1  0  0  0  0
  2  4  1  0  0  0  0
  2  5  1  0  0  0  0
  1  2  1  0  0  0  0
 29 30  2  0  0  0  0
 29 31  1  0  0  0  0
 26 27  1  0  0  0  0
 26 28  2  0  0  0  0
 24 25  1  0  0  0  0
 24 26  1  0  0  0  0
 22 23  1  0  0  0  0
 22 24  2  0  0  0  0
 20 21  1  0  0  0  0
 20 22  1  0  0  0  0
 19 20  2  0  0  0  0
 19 28  1  0  0  0  0
 17 18  1  0  0  0  0
 17 19  1  0  0  0  0
 15 16  1  0  0  0  0
 15 17  1  0  0  0  0
 14 15  2  0  0  0  0
 14 28  1  0  0  0  0
 11 12  1  0  0  0  0
 11 13  1  0  0  0  0
 11 14  1  0  0  0  0
  9 10  1  0  0  0  0
  9 11  1  0  0  0  0
  9 29  1  0  0  0  0
  7  8  1  0  0  0  0
  7  9  1  0  0  0  0
 33 34  1  0  0  0  0
 33 35  1  0  0  0  0
 33 36  1  0  0  0  0
 31 32  1  0  0  0  0
 31 33  1  0  0  0  0
M  END
$$$$
default_name
  -OEChem-12212115393D

 36 37  0     1  0  0  0  0  0999 V2000
   -4.0843   -4.0736    1.2944 H   0  0  0  0  0  0  0  0  0  0  0  0
   -4.0342   -3.2816    0.5484 C   0  0  0  0  0  0  0  0  0  0  0  0
   -4.8842   -2.6126    0.6694 H   0  0  0  0  0  0  0  0  0  0  0  0
   -4.0433   -3.7186   -0.4486 H   0  0  0  0  0  0  0  0  0  0  0  0
   -2.7532   -2.5046    0.7444 C   0  0  0  0  0  0  0  0  0  0  0  0
   -1.9803   -2.8096    1.6434 O   0  0  0  0  0  0  0  0  0  0  0  0
   -2.5332   -1.4966   -0.0966 N   0  0  0  0  0  0  0  0  0  0  0  0
   -3.2312   -1.2816   -0.7936 H   0  0  0  0  0  0  0  0  0  0  0  0
   -1.3593   -0.6196   -0.0536 C   0  0  1  0  0  0  0  0  0  0  0  0
   -1.6868    0.4101   -0.2017 H   0  0  0  0  0  0  0  0  0  0  0  0
   -0.6968   -0.7177    1.3296 C   0  0  0  0  0  0  0  0  0  0  0  0
    0.1605   -0.0428    1.3576 H   0  0  0  0  0  0  0  0  0  0  0  0
   -1.4105   -0.3763    2.0814 H   0  0  0  0  0  0  0  0  0  0  0  0
   -0.2217   -2.0865    1.7127 C   0  0  0  0  0  0  0  0  0  0  0  0
    0.9932   -2.6060    1.4268 C   0  0  0  0  0  0  0  0  0  0  0  0
    1.7666   -2.0941    0.8648 H   0  0  0  0  0  0  0  0  0  0  0  0
    1.0987   -3.8691    1.9755 N   0  0  0  0  0  0  0  0  0  0  0  0
    1.9201   -4.4489    1.8847 H   0  0  0  0  0  0  0  0  0  0  0  0
   -0.0443   -4.2219    2.6608 C   0  0  0  0  0  0  0  0  0  0  0  0
   -0.4082   -5.3593    3.3959 C   0  0  0  0  0  0  0  0  0  0  0  0
    0.2787   -6.1863    3.5006 H   0  0  0  0  0  0  0  0  0  0  0  0
   -1.6795   -5.4087    3.9928 C   0  0  0  0  0  0  0  0  0  0  0  0
   -1.9779   -6.2783    4.5626 H   0  0  0  0  0  0  0  0  0  0  0  0
   -2.5669   -4.3273    3.8424 C   0  0  0  0  0  0  0  0  0  0  0  0
   -3.5472   -4.3730    4.2963 H   0  0  0  0  0  0  0  0  0  0  0  0
   -2.1913   -3.1900    3.0997 C   0  0  0  0  0  0  0  0  0  0  0  0
   -2.8876   -2.3720    2.9809 H   0  0  0  0  0  0  0  0  0  0  0  0
   -0.9192   -3.1070    2.4931 C   0  0  0  0  0  0  0  0  0  0  0  0
   -0.3723   -0.9573   -1.1818 C   0  0  0  0  0  0  0  0  0  0  0  0
   -0.2844   -0.2261   -2.1673 O   0  0  0  0  0  0  0  0  0  0  0  0
    0.3677   -2.0650   -1.0383 N   0  0  0  0  0  0  0  0  0  0  0  0
    0.1965   -2.6399   -0.2256 H   0  0  0  0  0  0  0  0  0  0  0  0
    1.3519   -2.5276   -2.0128 C   0  0  0  0  0  0  0  0  0  0  0  0
    2.0408   -1.7158   -2.2541 H   0  0  0  0  0  0  0  0  0  0  0  0
    1.9141   -3.3701   -1.6079 H   0  0  0  0  0  0  0  0  0  0  0  0
    0.8433   -2.8384   -2.9269 H   0  0  0  0  0  0  0  0  0  0  0  0
  5  6  2  0  0  0  0
  5  7  1  0  0  0  0
  2  3  1  0  0  0  0
  2  4  1  0  0  0  0
  2  5  1  0  0  0  0
  1  2  1  0  0  0  0
 29 30  2  0  0  0  0
 29 31  1  0  0  0  0
 26 27  1  0  0  0  0
 26 28  2  0  0  0  0
 24 25  1  0  0  0  0
 24 26  1  0  0  0  0
 22 23  1  0  0  0  0
 22 24  2  0  0  0  0
 20 21  1  0  0  0  0
 20 22  1  0  0  0  0
 19 20  2  0  0  0  0
 19 28  1  0  0  0  0
 17 18  1  0  0  0  0
 17 19  1  0  0  0  0
 15 16  1  0  0  0  0
 15 17  1  0  0  0  0
 14 15  2  0  0  0  0
 14 28  1  0  0  0  0
 11 12  1  0  0  0  0
 11 13  1  0  0  0  0
 11 14  1  0  0  0  0
  9 10  1  0  0  0  0
  9 11  1  0  0  0  0
  9 29  1  0  0  0  0
  7  8  1  0  0  0  0
  7  9  1  0  0  0  0
 33 34  1  0  0  0  0
 33 35  1  0  0  0  0
 33 36  1  0  0  0  0
 31 32  1  0  0  0  0
 31 33  1  0  0  0  0
M  END
$$$$
default_name
  -OEChem-12212115393D

 36 37  0     1  0  0  0  0  0999 V2000
   -4.0843   -4.0736    1.2944 H   0  0  0  0  0  0  0  0  0  0  0  0
   -4.0342   -3.2816    0.5484 C   0  0  0  0  0  0  0  0  0  0  0  0
   -4.8842   -2.6126    0.6694 H   0  0  0  0  0  0  0  0  0  0  0  0
   -4.0433   -3.7186   -0.4486 H   0  0  0  0  0  0  0  0  0  0  0  0
   -2.7532   -2.5046    0.7444 C   0  0  0  0  0  0  0  0  0  0  0  0
   -1.9803   -2.8096    1.6434 O   0  0  0  0  0  0  0  0  0  0  0  0
   -2.5332   -1.4966   -0.0966 N   0  0  0  0  0  0  0  0  0  0  0  0
   -3.2312   -1.2816   -0.7936 H   0  0  0  0  0  0  0  0  0  0  0  0
   -1.3593   -0.6196   -0.0536 C   0  0  1  0  0  0  0  0  0  0  0  0
   -1.6868    0.4101   -0.2017 H   0  0  0  0  0  0  0  0  0  0  0  0
   -0.6968   -0.7177    1.3296 C   0  0  0  0  0  0  0  0  0  0  0  0
    0.1605   -0.0428    1.3576 H   0  0  0  0  0  0  0  0  0  0  0  0
   -1.4105   -0.3763    2.0814 H   0  0  0  0  0  0  0  0  0  0  0  0
   -0.2217   -2.0865    1.7127 C   0  0  0  0  0  0  0  0  0  0  0  0
    0.9932   -2.6060    1.4268 C   0  0  0  0  0  0  0  0  0  0  0  0
    1.7666   -2.0941    0.8648 H   0  0  0  0  0  0  0  0  0  0  0  0
    1.0987   -3.8691    1.9755 N   0  0  0  0  0  0  0  0  0  0  0  0
    1.9201   -4.4489    1.8847 H   0  0  0  0  0  0  0  0  0  0  0  0
   -0.0443   -4.2219    2.6608 C   0  0  0  0  0  0  0  0  0  0  0  0
   -0.4082   -5.3593    3.3959 C   0  0  0  0  0  0  0  0  0  0  0  0
    0.2787   -6.1863    3.5006 H   0  0  0  0  0  0  0  0  0  0  0  0
   -1.6795   -5.4087    3.9928 C   0  0  0  0  0  0  0  0  0  0  0  0
   -1.9779   -6.2783    4.5626 H   0  0  0  0  0  0  0  0  0  0  0  0
   -2.5669   -4.3273    3.8424 C   0  0  0  0  0  0  0  0  0  0  0  0
   -3.5472   -4.3730    4.2963 H   0  0  0  0  0  0  0  0  0  0  0  0
   -2.1913   -3.1900    3.0997 C   0  0  0  0  0  0  0  0  0  0  0  0
   -2.8876   -2.3720    2.9809 H   0  0  0  0  0  0  0  0  0  0  0  0
   -0.9192   -3.1070    2.4931 C   0  0  0  0  0  0  0  0  0  0  0  0
   -0.3723   -0.9573   -1.1818 C   0  0  0  0  0  0  0  0  0  0  0  0
   -0.0788   -0.1085   -2.0227 O   0  0  0  0  0  0  0  0  0  0  0  0
    0.1373   -2.1963   -1.2006 N   0  0  0  0  0  0  0  0  0  0  0  0
   -0.1963   -2.8499   -0.5064 H   0  0  0  0  0  0  0  0  0  0  0  0
    1.0872   -2.6791   -2.1991 C   0  0  0  0  0  0  0  0  0  0  0  0
    1.9302   -1.9891   -2.2690 H   0  0  0  0  0  0  0  0  0  0  0  0
    1.4525   -3.6688   -1.9222 H   0  0  0  0  0  0  0  0  0  0  0  0
    0.5979   -2.7337   -3.1730 H   0  0  0  0  0  0  0  0  0  0  0  0
  5  6  2  0  0  0  0
  5  7  1  0  0  0  0
  2  3  1  0  0  0  0
  2  4  1  0  0  0  0
  2  5  1  0  0  0  0
  1  2  1  0  0  0  0
 29 30  2  0  0  0  0
 29 31  1  0  0  0  0
 26 27  1  0  0  0  0
 26 28  2  0  0  0  0
 24 25  1  0  0  0  0
 24 26  1  0  0  0  0
 22 23  1  0  0  0  0
 22 24  2  0  0  0  0
 20 21  1  0  0  0  0
 20 22  1  0  0  0  0
 19 20  2  0  0  0  0
 19 28  1  0  0  0  0
 17 18  1  0  0  0  0
 17 19  1  0  0  0  0
 15 16  1  0  0  0  0
 15 17  1  0  0  0  0
 14 15  2  0  0  0  0
 14 28  1  0  0  0  0
 11 12  1  0  0  0  0
 11 13  1  0  0  0  0
 11 14  1  0  0  0  0
  9 10  1  0  0  0  0
  9 11  1  0  0  0  0
  9 29  1  0  0  0  0
  7  8  1  0  0  0  0
  7  9  1  0  0  0  0
 33 34  1  0  0  0  0
 33 35  1  0  0  0  0
 33 36  1  0  0  0  0
 31 32  1  0  0  0  0
 31 33  1  0  0  0  0
M  END
$$$$
default_name
  -OEChem-12212115393D

 36 37  0     1  0  0  0  0  0999 V2000
   -4.0843   -4.0736    1.2944 H   0  0  0  0  0  0  0  0  0  0  0  0
   -4.0342   -3.2816    0.5484 C   0  0  0  0  0  0  0  0  0  0  0  0
   -4.8842   -2.6126    0.6694 H   0  0  0  0  0  0  0  0  0  0  0  0
   -4.0433   -3.7186   -0.4486 H   0  0  0  0  0  0  0  0  0  0  0  0
   -2.7532   -2.5046    0.7444 C   0  0  0  0  0  0  0  0  0  0  0  0
   -1.9803   -2.8096    1.6434 O   0  0  0  0  0  0  0  0  0  0  0  0
   -2.5332   -1.4966   -0.0966 N   0  0  0  0  0  0  0  0  0  0  0  0
   -3.2312   -1.2816   -0.7936 H   0  0  0  0  0  0  0  0  0  0  0  0
   -1.3593   -0.6196   -0.0536 C   0  0  1  0  0  0  0  0  0  0  0  0
   -1.6868    0.4101   -0.2017 H   0  0  0  0  0  0  0  0  0  0  0  0
   -0.6968   -0.7177    1.3296 C   0  0  0  0  0  0  0  0  0  0  0  0
    0.1605   -0.0428    1.3576 H   0  0  0  0  0  0  0  0  0  0  0  0
   -1.4105   -0.3763    2.0814 H   0  0  0  0  0  0  0  0  0  0  0  0
   -0.2217   -2.0865    1.7127 C   0  0  0  0  0  0  0  0  0  0  0  0
    0.9932   -2.6060    1.4268 C   0  0  0  0  0  0  0  0  0  0  0  0
    1.7666   -2.0941    0.8648 H   0  0  0  0  0  0  0  0  0  0  0  0
    1.0987   -3.8691    1.9755 N   0  0  0  0  0  0  0  0  0  0  0  0
    1.9201   -4.4489    1.8847 H   0  0  0  0  0  0  0  0  0  0  0  0
   -0.0443   -4.2219    2.6608 C   0  0  0  0  0  0  0  0  0  0  0  0
   -0.4082   -5.3593    3.3959 C   0  0  0  0  0  0  0  0  0  0  0  0
    0.2787   -6.1863    3.5006 H   0  0  0  0  0  0  0  0  0  0  0  0
   -1.6795   -5.4087    3.9928 C   0  0  0  0  0  0  0  0  0  0  0  0
   -1.9779   -6.2783    4.5626 H   0  0  0  0  0  0  0  0  0  0  0  0
   -2.5669   -4.3273    3.8424 C   0  0  0  0  0  0  0  0  0  0  0  0
   -3.5472   -4.3730    4.2963 H   0  0  0  0  0  0  0  0  0  0  0  0
   -2.1913   -3.1900    3.0997 C   0  0  0  0  0  0  0  0  0  0  0  0
   -2.8876   -2.3720    2.9809 H   0  0  0  0  0  0  0  0  0  0  0  0
   -0.9192   -3.1070    2.4931 C   0  0  0  0  0  0  0  0  0  0  0  0
   -0.3723   -0.9573   -1.1818 C   0  0  0  0  0  0  0  0  0  0  0  0
    0.1339   -0.0580   -1.8517 O   0  0  0  0  0  0  0  0  0  0  0  0
   -0.1011   -2.2524   -1.3923 N   0  0  0  0  0  0  0  0  0  0  0  0
   -0.5997   -2.9314   -0.8349 H   0  0  0  0  0  0  0  0  0  0  0  0
    0.8132   -2.7441   -2.4192 C   0  0  0  0  0  0  0  0  0  0  0  0
    1.7723   -2.2295   -2.3352 H   0  0  0  0  0  0  0  0  0  0  0  0
    0.9677   -3.8174   -2.3018 H   0  0  0  0  0  0  0  0  0  0  0  0
    0.3947   -2.5451   -3.4072 H   0  0  0  0  0  0  0  0  0  0  0  0
  5  6  2  0  0  0  0
  5  7  1  0  0  0  0
  2  3  1  0  0  0  0
  2  4  1  0  0  0  0
  2  5  1  0  0  0  0
  1  2  1  0  0  0  0
 29 30  2  0  0  0  0
 29 31  1  0  0  0  0
 26 27  1  0  0  0  0
 26 28  2  0  0  0  0
 24 25  1  0  0  0  0
 24 26  1  0  0  0  0
 22 23  1  0  0  0  0
 22 24  2  0  0  0  0
 20 21  1  0  0  0  0
 20 22  1  0  0  0  0
 19 20  2  0  0  0  0
 19 28  1  0  0  0  0
 17 18  1  0  0  0  0
 17 19  1  0  0  0  0
 15 16  1  0  0  0  0
 15 17  1  0  0  0  0
 14 15  2  0  0  0  0
 14 28  1  0  0  0  0
 11 12  1  0  0  0  0
 11 13  1  0  0  0  0
 11 14  1  0  0  0  0
  9 10  1  0  0  0  0
  9 11  1  0  0  0  0
  9 29  1  0  0  0  0
  7  8  1  0  0  0  0
  7  9  1  0  0  0  0
 33 34  1  0  0  0  0
 33 35  1  0  0  0  0
 33 36  1  0  0  0  0
 31 32  1  0  0  0  0
 31 33  1  0  0  0  0
M  END
$$$$
default_name
  -OEChem-12212115393D

 36 37  0     1  0  0  0  0  0999 V2000
   -4.0843   -4.0736    1.2944 H   0  0  0  0  0  0  0  0  0  0  0  0
   -4.0342   -3.2816    0.5484 C   0  0  0  0  0  0  0  0  0  0  0  0
   -4.8842   -2.6126    0.6694 H   0  0  0  0  0  0  0  0  0  0  0  0
   -4.0433   -3.7186   -0.4486 H   0  0  0  0  0  0  0  0  0  0  0  0
   -2.7532   -2.5046    0.7444 C   0  0  0  0  0  0  0  0  0  0  0  0
   -1.9803   -2.8096    1.6434 O   0  0  0  0  0  0  0  0  0  0  0  0
   -2.5332   -1.4966   -0.0966 N   0  0  0  0  0  0  0  0  0  0  0  0
   -3.2312   -1.2816   -0.7936 H   0  0  0  0  0  0  0  0  0  0  0  0
   -1.3593   -0.6196   -0.0536 C   0  0  1  0  0  0  0  0  0  0  0  0
   -1.6868    0.4101   -0.2017 H   0  0  0  0  0  0  0  0  0  0  0  0
   -0.6968   -0.7177    1.3296 C   0  0  0  0  0  0  0  0  0  0  0  0
    0.1605   -0.0428    1.3576 H   0  0  0  0  0  0  0  0  0  0  0  0
   -1.4105   -0.3763    2.0814 H   0  0  0  0  0  0  0  0  0  0  0  0
   -0.2217   -2.0865    1.7127 C   0  0  0  0  0  0  0  0  0  0  0  0
    0.9932   -2.6060    1.4268 C   0  0  0  0  0  0  0  0  0  0  0  0
    1.7666   -2.0941    0.8648 H   0  0  0  0  0  0  0  0  0  0  0  0
    1.0987   -3.8691    1.9755 N   0  0  0  0  0  0  0  0  0  0  0  0
    1.9201   -4.4489    1.8847 H   0  0  0  0  0  0  0  0  0  0  0  0
   -0.0443   -4.2219    2.6608 C   0  0  0  0  0  0  0  0  0  0  0  0
   -0.4082   -5.3593    3.3959 C   0  0  0  0  0  0  0  0  0  0  0  0
    0.2787   -6.1863    3.5006 H   0  0  0  0  0  0  0  0  0  0  0  0
   -1.6795   -5.4087    3.9928 C   0  0  0  0  0  0  0  0  0  0  0  0
   -1.9779   -6.2783    4.5626 H   0  0  0  0  0  0  0  0  0  0  0  0
   -2.5669   -4.3273    3.8424 C   0  0  0  0  0  0  0  0  0  0  0  0
   -3.5472   -4.3730    4.2963 H   0  0  0  0  0  0  0  0  0  0  0  0
   -2.1913   -3.1900    3.0997 C   0  0  0  0  0  0  0  0  0  0  0  0
   -2.8876   -2.3720    2.9809 H   0  0  0  0  0  0  0  0  0  0  0  0
   -0.9192   -3.1070    2.4931 C   0  0  0  0  0  0  0  0  0  0  0  0
   -0.3723   -0.9573   -1.1818 C   0  0  0  0  0  0  0  0  0  0  0  0
    0.3392   -0.0782   -1.6661 O   0  0  0  0  0  0  0  0  0  0  0  0
   -0.3310   -2.2294   -1.6003 N   0  0  0  0  0  0  0  0  0  0  0  0
   -0.9861   -2.8788   -1.1886 H   0  0  0  0  0  0  0  0  0  0  0  0
    0.5488   -2.7182   -2.6583 C   0  0  0  0  0  0  0  0  0  0  0  0
    1.5779   -2.4207   -2.4480 H   0  0  0  0  0  0  0  0  0  0  0  0
    0.4929   -3.8058   -2.7208 H   0  0  0  0  0  0  0  0  0  0  0  0
    0.2476   -2.2853   -3.6136 H   0  0  0  0  0  0  0  0  0  0  0  0
  5  6  2  0  0  0  0
  5  7  1  0  0  0  0
  2  3  1  0  0  0  0
  2  4  1  0  0  0  0
  2  5  1  0  0  0  0
  1  2  1  0  0  0  0
 29 30  2  0  0  0  0
 29 31  1  0  0  0  0
 26 27  1  0  0  0  0
 26 28  2  0  0  0  0
 24 25  1  0  0  0  0
 24 26  1  0  0  0  0
 22 23  1  0  0  0  0
 22 24  2  0  0  0  0
 20 21  1  0  0  0  0
 20 22  1  0  0  0  0
 19 20  2  0  0  0  0
 19 28  1  0  0  0  0
 17 18  1  0  0  0  0
 17 19  1  0  0  0  0
 15 16  1  0  0  0  0
 15 17  1  0  0  0  0
 14 15  2  0  0  0  0
 14 28  1  0  0  0  0
 11 12  1  0  0  0  0
 11 13  1  0  0  0  0
 11 14  1  0  0  0  0
  9 10  1  0  0  0  0
  9 11  1  0  0  0  0
  9 29  1  0  0  0  0
  7  8  1  0  0  0  0
  7  9  1  0  0  0  0
 33 34  1  0  0  0  0
 33 35  1  0  0  0  0
 33 36  1  0  0  0  0
 31 32  1  0  0  0  0
 31 33  1  0  0  0  0
M  END
$$$$
default_name
  -OEChem-12212115393D

 36 37  0     1  0  0  0  0  0999 V2000
   -4.0843   -4.0736    1.2944 H   0  0  0  0  0  0  0  0  0  0  0  0
   -4.0342   -3.2816    0.5484 C   0  0  0  0  0  0  0  0  0  0  0  0
   -4.8842   -2.6126    0.6694 H   0  0  0  0  0  0  0  0  0  0  0  0
   -4.0433   -3.7186   -0.4486 H   0  0  0  0  0  0  0  0  0  0  0  0
   -2.7532   -2.5046    0.7444 C   0  0  0  0  0  0  0  0  0  0  0  0
   -1.9803   -2.8096    1.6434 O   0  0  0  0  0  0  0  0  0  0  0  0
   -2.5332   -1.4966   -0.0966 N   0  0  0  0  0  0  0  0  0  0  0  0
   -3.2312   -1.2816   -0.7936 H   0  0  0  0  0  0  0  0  0  0  0  0
   -1.3593   -0.6196   -0.0536 C   0  0  1  0  0  0  0  0  0  0  0  0
   -1.6868    0.4101   -0.2017 H   0  0  0  0  0  0  0  0  0  0  0  0
   -0.6968   -0.7177    1.3296 C   0  0  0  0  0  0  0  0  0  0  0  0
    0.1605   -0.0428    1.3576 H   0  0  0  0  0  0  0  0  0  0  0  0
   -1.4105   -0.3763    2.0814 H   0  0  0  0  0  0  0  0  0  0  0  0
   -0.2217   -2.0865    1.7127 C   0  0  0  0  0  0  0  0  0  0  0  0
    0.9932   -2.6060    1.4268 C   0  0  0  0  0  0  0  0  0  0  0  0
    1.7666   -2.0941    0.8648 H   0  0  0  0  0  0  0  0  0  0  0  0
    1.0987   -3.8691    1.9755 N   0  0  0  0  0  0  0  0  0  0  0  0
    1.9201   -4.4489    1.8847 H   0  0  0  0  0  0  0  0  0  0  0  0
   -0.0443   -4.2219    2.6608 C   0  0  0  0  0  0  0  0  0  0  0  0
   -0.4082   -5.3593    3.3959 C   0  0  0  0  0  0  0  0  0  0  0  0
    0.2787   -6.1863    3.5006 H   0  0  0  0  0  0  0  0  0  0  0  0
   -1.6795   -5.4087    3.9928 C   0  0  0  0  0  0  0  0  0  0  0  0
   -1.9779   -6.2783    4.5626 H   0  0  0  0  0  0  0  0  0  0  0  0
   -2.5669   -4.3273    3.8424 C   0  0  0  0  0  0  0  0  0  0  0  0
   -3.5472   -4.3730    4.2963 H   0  0  0  0  0  0  0  0  0  0  0  0
   -2.1913   -3.1900    3.0997 C   0  0  0  0  0  0  0  0  0  0  0  0
   -2.8876   -2.3720    2.9809 H   0  0  0  0  0  0  0  0  0  0  0  0
   -0.9192   -3.1070    2.4931 C   0  0  0  0  0  0  0  0  0  0  0  0
   -0.3723   -0.9573   -1.1818 C   0  0  0  0  0  0  0  0  0  0  0  0
    0.5231   -0.1674   -1.4784 O   0  0  0  0  0  0  0  0  0  0  0  0
   -0.5370   -2.1290   -1.8106 N   0  0  0  0  0  0  0  0  0  0  0  0
   -1.3292   -2.6958   -1.5436 H   0  0  0  0  0  0  0  0  0  0  0  0
    0.3119   -2.6033   -2.8999 C   0  0  0  0  0  0  0  0  0  0  0  0
    1.3602   -2.5497   -2.5999 H   0  0  0  0  0  0  0  0  0  0  0  0
    0.0602   -3.6346   -3.1505 H   0  0  0  0  0  0  0  0  0  0  0  0
    0.1666   -1.9721   -3.7782 H   0  0  0  0  0  0  0  0  0  0  0  0
  5  6  2  0  0  0  0
  5  7  1  0  0  0  0
  2  3  1  0  0  0  0
  2  4  1  0  0  0  0
  2  5  1  0  0  0  0
  1  2  1  0  0  0  0
 29 30  2  0  0  0  0
 29 31  1  0  0  0  0
 26 27  1  0  0  0  0
 26 28  2  0  0  0  0
 24 25  1  0  0  0  0
 24 26  1  0  0  0  0
 22 23  1  0  0  0  0
 22 24  2  0  0  0  0
 20 21  1  0  0  0  0
 20 22  1  0  0  0  0
 19 20  2  0  0  0  0
 19 28  1  0  0  0  0
 17 18  1  0  0  0  0
 17 19  1  0  0  0  0
 15 16  1  0  0  0  0
 15 17  1  0  0  0  0
 14 15  2  0  0  0  0
 14 28  1  0  0  0  0
 11 12  1  0  0  0  0
 11 13  1  0  0  0  0
 11 14  1  0  0  0  0
  9 10  1  0  0  0  0
  9 11  1  0  0  0  0
  9 29  1  0  0  0  0
  7  8  1  0  0  0  0
  7  9  1  0  0  0  0
 33 34  1  0  0  0  0
 33 35  1  0  0  0  0
 33 36  1  0  0  0  0
 31 32  1  0  0  0  0
 31 33  1  0  0  0  0
M  END
$$$$
default_name
  -OEChem-12212115393D

 36 37  0     1  0  0  0  0  0999 V2000
   -4.0843   -4.0736    1.2944 H   0  0  0  0  0  0  0  0  0  0  0  0
   -4.0342   -3.2816    0.5484 C   0  0  0  0  0  0  0  0  0  0  0  0
   -4.8842   -2.6126    0.6694 H   0  0  0  0  0  0  0  0  0  0  0  0
   -4.0433   -3.7186   -0.4486 H   0  0  0  0  0  0  0  0  0  0  0  0
   -2.7532   -2.5046    0.7444 C   0  0  0  0  0  0  0  0  0  0  0  0
   -1.9803   -2.8096    1.6434 O   0  0  0  0  0  0  0  0  0  0  0  0
   -2.5332   -1.4966   -0.0966 N   0  0  0  0  0  0  0  0  0  0  0  0
   -3.2312   -1.2816   -0.7936 H   0  0  0  0  0  0  0  0  0  0  0  0
   -1.3593   -0.6196   -0.0536 C   0  0  1  0  0  0  0  0  0  0  0  0
   -1.6868    0.4101   -0.2017 H   0  0  0  0  0  0  0  0  0  0  0  0
   -0.6968   -0.7177    1.3296 C   0  0  0  0  0  0  0  0  0  0  0  0
    0.1605   -0.0428    1.3576 H   0  0  0  0  0  0  0  0  0  0  0  0
   -1.4105   -0.3763    2.0814 H   0  0  0  0  0  0  0  0  0  0  0  0
   -0.2217   -2.0865    1.7127 C   0  0  0  0  0  0  0  0  0  0  0  0
    0.9932   -2.6060    1.4268 C   0  0  0  0  0  0  0  0  0  0  0  0
    1.7666   -2.0941    0.8648 H   0  0  0  0  0  0  0  0  0  0  0  0
    1.0987   -3.8691    1.9755 N   0  0  0  0  0  0  0  0  0  0  0  0
    1.9201   -4.4489    1.8847 H   0  0  0  0  0  0  0  0  0  0  0  0
   -0.0443   -4.2219    2.6608 C   0  0  0  0  0  0  0  0  0  0  0  0
   -0.4082   -5.3593    3.3959 C   0  0  0  0  0  0  0  0  0  0  0  0
    0.2787   -6.1863    3.5006 H   0  0  0  0  0  0  0  0  0  0  0  0
   -1.6795   -5.4087    3.9928 C   0  0  0  0  0  0  0  0  0  0  0  0
   -1.9779   -6.2783    4.5626 H   0  0  0  0  0  0  0  0  0  0  0  0
   -2.5669   -4.3273    3.8424 C   0  0  0  0  0  0  0  0  0  0  0  0
   -3.5472   -4.3730    4.2963 H   0  0  0  0  0  0  0  0  0  0  0  0
   -2.1913   -3.1900    3.0997 C   0  0  0  0  0  0  0  0  0  0  0  0
   -2.8876   -2.3720    2.9809 H   0  0  0  0  0  0  0  0  0  0  0  0
   -0.9192   -3.1070    2.4931 C   0  0  0  0  0  0  0  0  0  0  0  0
   -0.3723   -0.9573   -1.1818 C   0  0  0  0  0  0  0  0  0  0  0  0
    0.6731   -0.3199   -1.3016 O   0  0  0  0  0  0  0  0  0  0  0  0
   -0.7048   -1.9578   -2.0086 N   0  0  0  0  0  0  0  0  0  0  0  0
   -1.6057   -2.3949   -1.8755 H   0  0  0  0  0  0  0  0  0  0  0  0
    0.1187   -2.4070   -3.1277 C   0  0  0  0  0  0  0  0  0  0  0  0
    1.1340   -2.6077   -2.7804 H   0  0  0  0  0  0  0  0  0  0  0  0
   -0.3007   -3.3156   -3.5617 H   0  0  0  0  0  0  0  0  0  0  0  0
    0.1572   -1.6269   -3.8897 H   0  0  0  0  0  0  0  0  0  0  0  0
  5  6  2  0  0  0  0
  5  7  1  0  0  0  0
  2  3  1  0  0  0  0
  2  4  1  0  0  0  0
  2  5  1  0  0  0  0
  1  2  1  0  0  0  0
 29 30  2  0  0  0  0
 29 31  1  0  0  0  0
 26 27  1  0  0  0  0
 26 28  2  0  0  0  0
 24 25  1  0  0  0  0
 24 26  1  0  0  0  0
 22 23  1  0  0  0  0
 22 24  2  0  0  0  0
 20 21  1  0  0  0  0
 20 22  1  0  0  0  0
 19 20  2  0  0  0  0
 19 28  1  0  0  0  0
 17 18  1  0  0  0  0
 17 19  1  0  0  0  0
 15 16  1  0  0  0  0
 15 17  1  0  0  0  0
 14 15  2  0  0  0  0
 14 28  1  0  0  0  0
 11 12  1  0  0  0  0
 11 13  1  0  0  0  0
 11 14  1  0  0  0  0
  9 10  1  0  0  0  0
  9 11  1  0  0  0  0
  9 29  1  0  0  0  0
  7  8  1  0  0  0  0
  7  9  1  0  0  0  0
 33 34  1  0  0  0  0
 33 35  1  0  0  0  0
 33 36  1  0  0  0  0
 31 32  1  0  0  0  0
 31 33  1  0  0  0  0
M  END
$$$$
default_name
  -OEChem-12212115393D

 36 37  0     1  0  0  0  0  0999 V2000
   -4.0843   -4.0736    1.2944 H   0  0  0  0  0  0  0  0  0  0  0  0
   -4.0342   -3.2816    0.5484 C   0  0  0  0  0  0  0  0  0  0  0  0
   -4.8842   -2.6126    0.6694 H   0  0  0  0  0  0  0  0  0  0  0  0
   -4.0433   -3.7186   -0.4486 H   0  0  0  0  0  0  0  0  0  0  0  0
   -2.7532   -2.5046    0.7444 C   0  0  0  0  0  0  0  0  0  0  0  0
   -1.9803   -2.8096    1.6434 O   0  0  0  0  0  0  0  0  0  0  0  0
   -2.5332   -1.4966   -0.0966 N   0  0  0  0  0  0  0  0  0  0  0  0
   -3.2312   -1.2816   -0.7936 H   0  0  0  0  0  0  0  0  0  0  0  0
   -1.3593   -0.6196   -0.0536 C   0  0  1  0  0  0  0  0  0  0  0  0
   -1.6868    0.4101   -0.2017 H   0  0  0  0  0  0  0  0  0  0  0  0
   -0.6968   -0.7177    1.3296 C   0  0  0  0  0  0  0  0  0  0  0  0
    0.1605   -0.0428    1.3576 H   0  0  0  0  0  0  0  0  0  0  0  0
   -1.4105   -0.3763    2.0814 H   0  0  0  0  0  0  0  0  0  0  0  0
   -0.2217   -2.0865    1.7127 C   0  0  0  0  0  0  0  0  0  0  0  0
    0.9932   -2.6060    1.4268 C   0  0  0  0  0  0  0  0  0  0  0  0
    1.7666   -2.0941    0.8648 H   0  0  0  0  0  0  0  0  0  0  0  0
    1.0987   -3.8691    1.9755 N   0  0  0  0  0  0  0  0  0  0  0  0
    1.9201   -4.4489    1.8847 H   0  0  0  0  0  0  0  0  0  0  0  0
   -0.0443   -4.2219    2.6608 C   0  0  0  0  0  0  0  0  0  0  0  0
   -0.4082   -5.3593    3.3959 C   0  0  0  0  0  0  0  0  0  0  0  0
    0.2787   -6.1863    3.5006 H   0  0  0  0  0  0  0  0  0  0  0  0
   -1.6795   -5.4087    3.9928 C   0  0  0  0  0  0  0  0  0  0  0  0
   -1.9779   -6.2783    4.5626 H   0  0  0  0  0  0  0  0  0  0  0  0
   -2.5669   -4.3273    3.8424 C   0  0  0  0  0  0  0  0  0  0  0  0
   -3.5472   -4.3730    4.2963 H   0  0  0  0  0  0  0  0  0  0  0  0
   -2.1913   -3.1900    3.0997 C   0  0  0  0  0  0  0  0  0  0  0  0
   -2.8876   -2.3720    2.9809 H   0  0  0  0  0  0  0  0  0  0  0  0
   -0.9192   -3.1070    2.4931 C   0  0  0  0  0  0  0  0  0  0  0  0
   -0.3723   -0.9573   -1.1818 C   0  0  0  0  0  0  0  0  0  0  0  0
    0.7790   -0.5250   -1.1476 O   0  0  0  0  0  0  0  0  0  0  0  0
   -0.8232   -1.7277   -2.1810 N   0  0  0  0  0  0  0  0  0  0  0  0
   -1.7967   -1.9964   -2.1618 H   0  0  0  0  0  0  0  0  0  0  0  0
   -0.0177   -2.1429   -3.3261 C   0  0  0  0  0  0  0  0  0  0  0  0
    0.9148   -2.5907   -2.9772 H   0  0  0  0  0  0  0  0  0  0  0  0
   -0.5654   -2.8705   -3.9264 H   0  0  0  0  0  0  0  0  0  0  0  0
    0.2202   -1.2730   -3.9406 H   0  0  0  0  0  0  0  0  0  0  0  0
  5  6  2  0  0  0  0
  5  7  1  0  0  0  0
  2  3  1  0  0  0  0
  2  4  1  0  0  0  0
  2  5  1  0  0  0  0
  1  2  1  0  0  0  0
 29 30  2  0  0  0  0
 29 31  1  0  0  0  0
 26 27  1  0  0  0  0
 26 28  2  0  0  0  0
 24 25  1  0  0  0  0
 24 26  1  0  0  0  0
 22 23  1  0  0  0  0
 22 24  2  0  0  0  0
 20 21  1  0  0  0  0
 20 22  1  0  0  0  0
 19 20  2  0  0  0  0
 19 28  1  0  0  0  0
 17 18  1  0  0  0  0
 17 19  1  0  0  0  0
 15 16  1  0  0  0  0
 15 17  1  0  0  0  0
 14 15  2  0  0  0  0
 14 28  1  0  0  0  0
 11 12  1  0  0  0  0
 11 13  1  0  0  0  0
 11 14  1  0  0  0  0
  9 10  1  0  0  0  0
  9 11  1  0  0  0  0
  9 29  1  0  0  0  0
  7  8  1  0  0  0  0
  7  9  1  0  0  0  0
 33 34  1  0  0  0  0
 33 35  1  0  0  0  0
 33 36  1  0  0  0  0
 31 32  1  0  0  0  0
 31 33  1  0  0  0  0
M  END
$$$$
default_name
  -OEChem-12212115393D

 36 37  0     1  0  0  0  0  0999 V2000
   -4.0843   -4.0736    1.2944 H   0  0  0  0  0  0  0  0  0  0  0  0
   -4.0342   -3.2816    0.5484 C   0  0  0  0  0  0  0  0  0  0  0  0
   -4.8842   -2.6126    0.6694 H   0  0  0  0  0  0  0  0  0  0  0  0
   -4.0433   -3.7186   -0.4486 H   0  0  0  0  0  0  0  0  0  0  0  0
   -2.7532   -2.5046    0.7444 C   0  0  0  0  0  0  0  0  0  0  0  0
   -1.9803   -2.8096    1.6434 O   0  0  0  0  0  0  0  0  0  0  0  0
   -2.5332   -1.4966   -0.0966 N   0  0  0  0  0  0  0  0  0  0  0  0
   -3.2312   -1.2816   -0.7936 H   0  0  0  0  0  0  0  0  0  0  0  0
   -1.3593   -0.6196   -0.0536 C   0  0  1  0  0  0  0  0  0  0  0  0
   -1.6868    0.4101   -0.2017 H   0  0  0  0  0  0  0  0  0  0  0  0
   -0.6968   -0.7177    1.3296 C   0  0  0  0  0  0  0  0  0  0  0  0
    0.1605   -0.0428    1.3576 H   0  0  0  0  0  0  0  0  0  0  0  0
   -1.4105   -0.3763    2.0814 H   0  0  0  0  0  0  0  0  0  0  0  0
   -0.2217   -2.0865    1.7127 C   0  0  0  0  0  0  0  0  0  0  0  0
    0.9932   -2.6060    1.4268 C   0  0  0  0  0  0  0  0  0  0  0  0
    1.7666   -2.0941    0.8648 H   0  0  0  0  0  0  0  0  0  0  0  0
    1.0987   -3.8691    1.9755 N   0  0  0  0  0  0  0  0  0  0  0  0
    1.9201   -4.4489    1.8847 H   0  0  0  0  0  0  0  0  0  0  0  0
   -0.0443   -4.2219    2.6608 C   0  0  0  0  0  0  0  0  0  0  0  0
   -0.4082   -5.3593    3.3959 C   0  0  0  0  0  0  0  0  0  0  0  0
    0.2787   -6.1863    3.5006 H   0  0  0  0  0  0  0  0  0  0  0  0
   -1.6795   -5.4087    3.9928 C   0  0  0  0  0  0  0  0  0  0  0  0
   -1.9779   -6.2783    4.5626 H   0  0  0  0  0  0  0  0  0  0  0  0
   -2.5669   -4.3273    3.8424 C   0  0  0  0  0  0  0  0  0  0  0  0
   -3.5472   -4.3730    4.2963 H   0  0  0  0  0  0  0  0  0  0  0  0
   -2.1913   -3.1900    3.0997 C   0  0  0  0  0  0  0  0  0  0  0  0
   -2.8876   -2.3720    2.9809 H   0  0  0  0  0  0  0  0  0  0  0  0
   -0.9192   -3.1070    2.4931 C   0  0  0  0  0  0  0  0  0  0  0  0
   -0.3723   -0.9573   -1.1818 C   0  0  0  0  0  0  0  0  0  0  0  0
    0.8336   -0.7688   -1.0269 O   0  0  0  0  0  0  0  0  0  0  0  0
   -0.8839   -1.4542   -2.3160 N   0  0  0  0  0  0  0  0  0  0  0  0
   -1.8891   -1.5276   -2.3830 H   0  0  0  0  0  0  0  0  0  0  0  0
   -0.0880   -1.8289   -3.4816 C   0  0  0  0  0  0  0  0  0  0  0  0
    0.7174   -2.4999   -3.1770 H   0  0  0  0  0  0  0  0  0  0  0  0
   -0.7157   -2.3296   -4.2198 H   0  0  0  0  0  0  0  0  0  0  0  0
    0.3511   -0.9348   -3.9273 H   0  0  0  0  0  0  0  0  0  0  0  0
  5  6  2  0  0  0  0
  5  7  1  0  0  0  0
  2  3  1  0  0  0  0
  2  4  1  0  0  0  0
  2  5  1  0  0  0  0
  1  2  1  0  0  0  0
 29 30  2  0  0  0  0
 29 31  1  0  0  0  0
 26 27  1  0  0  0  0
 26 28  2  0  0  0  0
 24 25  1  0  0  0  0
 24 26  1  0  0  0  0
 22 23  1  0  0  0  0
 22 24  2  0  0  0  0
 20 21  1  0  0  0  0
 20 22  1  0  0  0  0
 19 20  2  0  0  0  0
 19 28  1  0  0  0  0
 17 18  1  0  0  0  0
 17 19  1  0  0  0  0
 15 16  1  0  0  0  0
 15 17  1  0  0  0  0
 14 15  2  0  0  0  0
 14 28  1  0  0  0  0
 11 12  1  0  0  0  0
 11 13  1  0  0  0  0
 11 14  1  0  0  0  0
  9 10  1  0  0  0  0
  9 11  1  0  0  0  0
  9 29  1  0  0  0  0
  7  8  1  0  0  0  0
  7  9  1  0  0  0  0
 33 34  1  0  0  0  0
 33 35  1  0  0  0  0
 33 36  1  0  0  0  0
 31 32  1  0  0  0  0
 31 33  1  0  0  0  0
M  END
$$$$
default_name
  -OEChem-12212115393D

 36 37  0     1  0  0  0  0  0999 V2000
   -4.0843   -4.0736    1.2944 H   0  0  0  0  0  0  0  0  0  0  0  0
   -4.0342   -3.2816    0.5484 C   0  0  0  0  0  0  0  0  0  0  0  0
   -4.8842   -2.6126    0.6694 H   0  0  0  0  0  0  0  0  0  0  0  0
   -4.0433   -3.7186   -0.4486 H   0  0  0  0  0  0  0  0  0  0  0  0
   -2.7532   -2.5046    0.7444 C   0  0  0  0  0  0  0  0  0  0  0  0
   -1.9803   -2.8096    1.6434 O   0  0  0  0  0  0  0  0  0  0  0  0
   -2.5332   -1.4966   -0.0966 N   0  0  0  0  0  0  0  0  0  0  0  0
   -3.2312   -1.2816   -0.7936 H   0  0  0  0  0  0  0  0  0  0  0  0
   -1.3593   -0.6196   -0.0536 C   0  0  1  0  0  0  0  0  0  0  0  0
   -1.6868    0.4101   -0.2017 H   0  0  0  0  0  0  0  0  0  0  0  0
   -0.6968   -0.7177    1.3296 C   0  0  0  0  0  0  0  0  0  0  0  0
    0.1605   -0.0428    1.3576 H   0  0  0  0  0  0  0  0  0  0  0  0
   -1.4105   -0.3763    2.0814 H   0  0  0  0  0  0  0  0  0  0  0  0
   -0.2217   -2.0865    1.7127 C   0  0  0  0  0  0  0  0  0  0  0  0
    0.9932   -2.6060    1.4268 C   0  0  0  0  0  0  0  0  0  0  0  0
    1.7666   -2.0941    0.8648 H   0  0  0  0  0  0  0  0  0  0  0  0
    1.0987   -3.8691    1.9755 N   0  0  0  0  0  0  0  0  0  0  0  0
    1.9201   -4.4489    1.8847 H   0  0  0  0  0  0  0  0  0  0  0  0
   -0.0443   -4.2219    2.6608 C   0  0  0  0  0  0  0  0  0  0  0  0
   -0.4082   -5.3593    3.3959 C   0  0  0  0  0  0  0  0  0  0  0  0
    0.2787   -6.1863    3.5006 H   0  0  0  0  0  0  0  0  0  0  0  0
   -1.6795   -5.4087    3.9928 C   0  0  0  0  0  0  0  0  0  0  0  0
   -1.9779   -6.2783    4.5626 H   0  0  0  0  0  0  0  0  0  0  0  0
   -2.5669   -4.3273    3.8424 C   0  0  0  0  0  0  0  0  0  0  0  0
   -3.5472   -4.3730    4.2963 H   0  0  0  0  0  0  0  0  0  0  0  0
   -2.1913   -3.1900    3.0997 C   0  0  0  0  0  0  0  0  0  0  0  0
   -2.8876   -2.3720    2.9809 H   0  0  0  0  0  0  0  0  0  0  0  0
   -0.9192   -3.1070    2.4931 C   0  0  0  0  0  0  0  0  0  0  0  0
   -0.3723   -0.9573   -1.1818 C   0  0  0  0  0  0  0  0  0  0  0  0
    0.8330   -1.0348   -0.9477 O   0  0  0  0  0  0  0  0  0  0  0  0
   -0.8830   -1.1561   -2.4044 N   0  0  0  0  0  0  0  0  0  0  0  0
   -1.8768   -1.0205   -2.5240 H   0  0  0  0  0  0  0  0  0  0  0  0
   -0.0873   -1.4863   -3.5835 C   0  0  0  0  0  0  0  0  0  0  0  0
    0.5554   -2.3415   -3.3662 H   0  0  0  0  0  0  0  0  0  0  0  0
   -0.7414   -1.7299   -4.4218 H   0  0  0  0  0  0  0  0  0  0  0  0
    0.5411   -0.6351   -3.8508 H   0  0  0  0  0  0  0  0  0  0  0  0
  5  6  2  0  0  0  0
  5  7  1  0  0  0  0
  2  3  1  0  0  0  0
  2  4  1  0  0  0  0
  2  5  1  0  0  0  0
  1  2  1  0  0  0  0
 29 30  2  0  0  0  0
 29 31  1  0  0  0  0
 26 27  1  0  0  0  0
 26 28  2  0  0  0  0
 24 25  1  0  0  0  0
 24 26  1  0  0  0  0
 22 23  1  0  0  0  0
 22 24  2  0  0  0  0
 20 21  1  0  0  0  0
 20 22  1  0  0  0  0
 19 20  2  0  0  0  0
 19 28  1  0  0  0  0
 17 18  1  0  0  0  0
 17 19  1  0  0  0  0
 15 16  1  0  0  0  0
 15 17  1  0  0  0  0
 14 15  2  0  0  0  0
 14 28  1  0  0  0  0
 11 12  1  0  0  0  0
 11 13  1  0  0  0  0
 11 14  1  0  0  0  0
  9 10  1  0  0  0  0
  9 11  1  0  0  0  0
  9 29  1  0  0  0  0
  7  8  1  0  0  0  0
  7  9  1  0  0  0  0
 33 34  1  0  0  0  0
 33 35  1  0  0  0  0
 33 36  1  0  0  0  0
 31 32  1  0  0  0  0
 31 33  1  0  0  0  0
M  END
$$$$
default_name
  -OEChem-12212115393D

 36 37  0     1  0  0  0  0  0999 V2000
   -4.0843   -4.0736    1.2944 H   0  0  0  0  0  0  0  0  0  0  0  0
   -4.0342   -3.2816    0.5484 C   0  0  0  0  0  0  0  0  0  0  0  0
   -4.8842   -2.6126    0.6694 H   0  0  0  0  0  0  0  0  0  0  0  0
   -4.0433   -3.7186   -0.4486 H   0  0  0  0  0  0  0  0  0  0  0  0
   -2.7532   -2.5046    0.7444 C   0  0  0  0  0  0  0  0  0  0  0  0
   -1.9803   -2.8096    1.6434 O   0  0  0  0  0  0  0  0  0  0  0  0
   -2.5332   -1.4966   -0.0966 N   0  0  0  0  0  0  0  0  0  0  0  0
   -3.2312   -1.2816   -0.7936 H   0  0  0  0  0  0  0  0  0  0  0  0
   -1.3593   -0.6196   -0.0536 C   0  0  1  0  0  0  0  0  0  0  0  0
   -1.6868    0.4101   -0.2017 H   0  0  0  0  0  0  0  0  0  0  0  0
   -0.6968   -0.7177    1.3296 C   0  0  0  0  0  0  0  0  0  0  0  0
    0.1605   -0.0428    1.3576 H   0  0  0  0  0  0  0  0  0  0  0  0
   -1.4105   -0.3763    2.0814 H   0  0  0  0  0  0  0  0  0  0  0  0
   -0.2217   -2.0865    1.7127 C   0  0  0  0  0  0  0  0  0  0  0  0
    0.9932   -2.6060    1.4268 C   0  0  0  0  0  0  0  0  0  0  0  0
    1.7666   -2.0941    0.8648 H   0  0  0  0  0  0  0  0  0  0  0  0
    1.0987   -3.8691    1.9755 N   0  0  0  0  0  0  0  0  0  0  0  0
    1.9201   -4.4489    1.8847 H   0  0  0  0  0  0  0  0  0  0  0  0
   -0.0443   -4.2219    2.6608 C   0  0  0  0  0  0  0  0  0  0  0  0
   -0.4082   -5.3593    3.3959 C   0  0  0  0  0  0  0  0  0  0  0  0
    0.2787   -6.1863    3.5006 H   0  0  0  0  0  0  0  0  0  0  0  0
   -1.6795   -5.4087    3.9928 C   0  0  0  0  0  0  0  0  0  0  0  0
   -1.9779   -6.2783    4.5626 H   0  0  0  0  0  0  0  0  0  0  0  0
   -2.5669   -4.3273    3.8424 C   0  0  0  0  0  0  0  0  0  0  0  0
   -3.5472   -4.3730    4.2963 H   0  0  0  0  0  0  0  0  0  0  0  0
   -2.1913   -3.1900    3.0997 C   0  0  0  0  0  0  0  0  0  0  0  0
   -2.8876   -2.3720    2.9809 H   0  0  0  0  0  0  0  0  0  0  0  0
   -0.9192   -3.1070    2.4931 C   0  0  0  0  0  0  0  0  0  0  0  0
   -0.3723   -0.9573   -1.1818 C   0  0  0  0  0  0  0  0  0  0  0  0
    0.7775   -1.3048   -0.9155 O   0  0  0  0  0  0  0  0  0  0  0  0
   -0.8204   -0.8536   -2.4402 N   0  0  0  0  0  0  0  0  0  0  0  0
   -1.7604   -0.5096   -2.5752 H   0  0  0  0  0  0  0  0  0  0  0  0
   -0.0158   -1.1386   -3.6250 C   0  0  0  0  0  0  0  0  0  0  0  0
    0.4398   -2.1263   -3.5317 H   0  0  0  0  0  0  0  0  0  0  0  0
   -0.6407   -1.1121   -4.5187 H   0  0  0  0  0  0  0  0  0  0  0  0
    0.7772   -0.3945   -3.7163 H   0  0  0  0  0  0  0  0  0  0  0  0
  5  6  2  0  0  0  0
  5  7  1  0  0  0  0
  2  3  1  0  0  0  0
  2  4  1  0  0  0  0
  2  5  1  0  0  0  0
  1  2  1  0  0  0  0
 29 30  2  0  0  0  0
 29 31  1  0  0  0  0
 26 27  1  0  0  0  0
 26 28  2  0  0  0  0
 24 25  1  0  0  0  0
 24 26  1  0  0  0  0
 22 23  1  0  0  0  0
 22 24  2  0  0  0  0
 20 21  1  0  0  0  0
 20 22  1  0  0  0  0
 19 20  2  0  0  0  0
 19 28  1  0  0  0  0
 17 18  1  0  0  0  0
 17 19  1  0  0  0  0
 15 16  1  0  0  0  0
 15 17  1  0  0  0  0
 14 15  2  0  0  0  0
 14 28  1  0  0  0  0
 11 12  1  0  0  0  0
 11 13  1  0  0  0  0
 11 14  1  0  0  0  0
  9 10  1  0  0  0  0
  9 11  1  0  0  0  0
  9 29  1  0  0  0  0
  7  8  1  0  0  0  0
  7  9  1  0  0  0  0
 33 34  1  0  0  0  0
 33 35  1  0  0  0  0
 33 36  1  0  0  0  0
 31 32  1  0  0  0  0
 31 33  1  0  0  0  0
M  END
$$$$
default_name
  -OEChem-12212115393D

 36 37  0     1  0  0  0  0  0999 V2000
   -4.0843   -4.0736    1.2944 H   0  0  0  0  0  0  0  0  0  0  0  0
   -4.0342   -3.2816    0.5484 C   0  0  0  0  0  0  0  0  0  0  0  0
   -4.8842   -2.6126    0.6694 H   0  0  0  0  0  0  0  0  0  0  0  0
   -4.0433   -3.7186   -0.4486 H   0  0  0  0  0  0  0  0  0  0  0  0
   -2.7532   -2.5046    0.7444 C   0  0  0  0  0  0  0  0  0  0  0  0
   -1.9803   -2.8096    1.6434 O   0  0  0  0  0  0  0  0  0  0  0  0
   -2.5332   -1.4966   -0.0966 N   0  0  0  0  0  0  0  0  0  0  0  0
   -3.2312   -1.2816   -0.7936 H   0  0  0  0  0  0  0  0  0  0  0  0
   -1.3593   -0.6196   -0.0536 C   0  0  1  0  0  0  0  0  0  0  0  0
   -1.6868    0.4101   -0.2017 H   0  0  0  0  0  0  0  0  0  0  0  0
   -0.6968   -0.7177    1.3296 C   0  0  0  0  0  0  0  0  0  0  0  0
    0.1605   -0.0428    1.3576 H   0  0  0  0  0  0  0  0  0  0  0  0
   -1.4105   -0.3763    2.0814 H   0  0  0  0  0  0  0  0  0  0  0  0
   -0.2217   -2.0865    1.7127 C   0  0  0  0  0  0  0  0  0  0  0  0
    0.9932   -2.6060    1.4268 C   0  0  0  0  0  0  0  0  0  0  0  0
    1.7666   -2.0941    0.8648 H   0  0  0  0  0  0  0  0  0  0  0  0
    1.0987   -3.8691    1.9755 N   0  0  0  0  0  0  0  0  0  0  0  0
    1.9201   -4.4489    1.8847 H   0  0  0  0  0  0  0  0  0  0  0  0
   -0.0443   -4.2219    2.6608 C   0  0  0  0  0  0  0  0  0  0  0  0
   -0.4082   -5.3593    3.3959 C   0  0  0  0  0  0  0  0  0  0  0  0
    0.2787   -6.1863    3.5006 H   0  0  0  0  0  0  0  0  0  0  0  0
   -1.6795   -5.4087    3.9928 C   0  0  0  0  0  0  0  0  0  0  0  0
   -1.9779   -6.2783    4.5626 H   0  0  0  0  0  0  0  0  0  0  0  0
   -2.5669   -4.3273    3.8424 C   0  0  0  0  0  0  0  0  0  0  0  0
   -3.5472   -4.3730    4.2963 H   0  0  0  0  0  0  0  0  0  0  0  0
   -2.1913   -3.1900    3.0997 C   0  0  0  0  0  0  0  0  0  0  0  0
   -2.8876   -2.3720    2.9809 H   0  0  0  0  0  0  0  0  0  0  0  0
   -0.9192   -3.1070    2.4931 C   0  0  0  0  0  0  0  0  0  0  0  0
   -0.3723   -0.9573   -1.1818 C   0  0  0  0  0  0  0  0  0  0  0  0
    0.6707   -1.5604   -0.9324 O   0  0  0  0  0  0  0  0  0  0  0  0
   -0.7004   -0.5674   -2.4209 N   0  0  0  0  0  0  0  0  0  0  0  0
   -1.5481   -0.0296   -2.5331 H   0  0  0  0  0  0  0  0  0  0  0  0
    0.1217   -0.8095   -3.6033 C   0  0  0  0  0  0  0  0  0  0  0  0
    0.3785   -1.8689   -3.6624 H   0  0  0  0  0  0  0  0  0  0  0  0
   -0.4206   -0.5184   -4.5038 H   0  0  0  0  0  0  0  0  0  0  0  0
    1.0433   -0.2294   -3.5329 H   0  0  0  0  0  0  0  0  0  0  0  0
  5  6  2  0  0  0  0
  5  7  1  0  0  0  0
  2  3  1  0  0  0  0
  2  4  1  0  0  0  0
  2  5  1  0  0  0  0
  1  2  1  0  0  0  0
 29 30  2  0  0  0  0
 29 31  1  0  0  0  0
 26 27  1  0  0  0  0
 26 28  2  0  0  0  0
 24 25  1  0  0  0  0
 24 26  1  0  0  0  0
 22 23  1  0  0  0  0
 22 24  2  0  0  0  0
 20 21  1  0  0  0  0
 20 22  1  0  0  0  0
 19 20  2  0  0  0  0
 19 28  1  0  0  0  0
 17 18  1  0  0  0  0
 17 19  1  0  0  0  0
 15 16  1  0  0  0  0
 15 17  1  0  0  0  0
 14 15  2  0  0  0  0
 14 28  1  0  0  0  0
 11 12  1  0  0  0  0
 11 13  1  0  0  0  0
 11 14  1  0  0  0  0
  9 10  1  0  0  0  0
  9 11  1  0  0  0  0
  9 29  1  0  0  0  0
  7  8  1  0  0  0  0
  7  9  1  0  0  0  0
 33 34  1  0  0  0  0
 33 35  1  0  0  0  0
 33 36  1  0  0  0  0
 31 32  1  0  0  0  0
 31 33  1  0  0  0  0
M  END
$$$$
default_name
  -OEChem-12212115393D

 36 37  0     1  0  0  0  0  0999 V2000
   -4.0843   -4.0736    1.2944 H   0  0  0  0  0  0  0  0  0  0  0  0
   -4.0342   -3.2816    0.5484 C   0  0  0  0  0  0  0  0  0  0  0  0
   -4.8842   -2.6126    0.6694 H   0  0  0  0  0  0  0  0  0  0  0  0
   -4.0433   -3.7186   -0.4486 H   0  0  0  0  0  0  0  0  0  0  0  0
   -2.7532   -2.5046    0.7444 C   0  0  0  0  0  0  0  0  0  0  0  0
   -1.9803   -2.8096    1.6434 O   0  0  0  0  0  0  0  0  0  0  0  0
   -2.5332   -1.4966   -0.0966 N   0  0  0  0  0  0  0  0  0  0  0  0
   -3.2312   -1.2816   -0.7936 H   0  0  0  0  0  0  0  0  0  0  0  0
   -1.3593   -0.6196   -0.0536 C   0  0  1  0  0  0  0  0  0  0  0  0
   -1.6868    0.4101   -0.2017 H   0  0  0  0  0  0  0  0  0  0  0  0
   -0.6968   -0.7177    1.3296 C   0  0  0  0  0  0  0  0  0  0  0  0
    0.1605   -0.0428    1.3576 H   0  0  0  0  0  0  0  0  0  0  0  0
   -1.4105   -0.3763    2.0814 H   0  0  0  0  0  0  0  0  0  0  0  0
   -0.2217   -2.0865    1.7127 C   0  0  0  0  0  0  0  0  0  0  0  0
    0.9932   -2.6060    1.4268 C   0  0  0  0  0  0  0  0  0  0  0  0
    1.7666   -2.0941    0.8648 H   0  0  0  0  0  0  0  0  0  0  0  0
    1.0987   -3.8691    1.9755 N   0  0  0  0  0  0  0  0  0  0  0  0
    1.9201   -4.4489    1.8847 H   0  0  0  0  0  0  0  0  0  0  0  0
   -0.0443   -4.2219    2.6608 C   0  0  0  0  0  0  0  0  0  0  0  0
   -0.4082   -5.3593    3.3959 C   0  0  0  0  0  0  0  0  0  0  0  0
    0.2787   -6.1863    3.5006 H   0  0  0  0  0  0  0  0  0  0  0  0
   -1.6795   -5.4087    3.9928 C   0  0  0  0  0  0  0  0  0  0  0  0
   -1.9779   -6.2783    4.5626 H   0  0  0  0  0  0  0  0  0  0  0  0
   -2.5669   -4.3273    3.8424 C   0  0  0  0  0  0  0  0  0  0  0  0
   -3.5472   -4.3730    4.2963 H   0  0  0  0  0  0  0  0  0  0  0  0
   -2.1913   -3.1900    3.0997 C   0  0  0  0  0  0  0  0  0  0  0  0
   -2.8876   -2.3720    2.9809 H   0  0  0  0  0  0  0  0  0  0  0  0
   -0.9192   -3.1070    2.4931 C   0  0  0  0  0  0  0  0  0  0  0  0
   -0.3723   -0.9573   -1.1818 C   0  0  0  0  0  0  0  0  0  0  0  0
    0.5199   -1.7841   -0.9974 O   0  0  0  0  0  0  0  0  0  0  0  0
   -0.5312   -0.3169   -2.3479 N   0  0  0  0  0  0  0  0  0  0  0  0
   -1.2541    0.3866   -2.4005 H   0  0  0  0  0  0  0  0  0  0  0  0
    0.3158   -0.5213   -3.5197 C   0  0  0  0  0  0  0  0  0  0  0  0
    0.3756   -1.5868   -3.7494 H   0  0  0  0  0  0  0  0  0  0  0  0
   -0.0960    0.0107   -4.3782 H   0  0  0  0  0  0  0  0  0  0  0  0
    1.3213   -0.1509   -3.3132 H   0  0  0  0  0  0  0  0  0  0  0  0
  5  6  2  0  0  0  0
  5  7  1  0  0  0  0
  2  3  1  0  0  0  0
  2  4  1  0  0  0  0
  2  5  1  0  0  0  0
  1  2  1  0  0  0  0
 29 30  2  0  0  0  0
 29 31  1  0  0  0  0
 26 27  1  0  0  0  0
 26 28  2  0  0  0  0
 24 25  1  0  0  0  0
 24 26  1  0  0  0  0
 22 23  1  0  0  0  0
 22 24  2  0  0  0  0
 20 21  1  0  0  0  0
 20 22  1  0  0  0  0
 19 20  2  0  0  0  0
 19 28  1  0  0  0  0
 17 18  1  0  0  0  0
 17 19  1  0  0  0  0
 15 16  1  0  0  0  0
 15 17  1  0  0  0  0
 14 15  2  0  0  0  0
 14 28  1  0  0  0  0
 11 12  1  0  0  0  0
 11 13  1  0  0  0  0
 11 14  1  0  0  0  0
  9 10  1  0  0  0  0
  9 11  1  0  0  0  0
  9 29  1  0  0  0  0
  7  8  1  0  0  0  0
  7  9  1  0  0  0  0
 33 34  1  0  0  0  0
 33 35  1  0  0  0  0
 33 36  1  0  0  0  0
 31 32  1  0  0  0  0
 31 33  1  0  0  0  0
M  END
$$$$
default_name
  -OEChem-12212115393D

 36 37  0     1  0  0  0  0  0999 V2000
   -4.0843   -4.0736    1.2944 H   0  0  0  0  0  0  0  0  0  0  0  0
   -4.0342   -3.2816    0.5484 C   0  0  0  0  0  0  0  0  0  0  0  0
   -4.8842   -2.6126    0.6694 H   0  0  0  0  0  0  0  0  0  0  0  0
   -4.0433   -3.7186   -0.4486 H   0  0  0  0  0  0  0  0  0  0  0  0
   -2.7532   -2.5046    0.7444 C   0  0  0  0  0  0  0  0  0  0  0  0
   -1.9803   -2.8096    1.6434 O   0  0  0  0  0  0  0  0  0  0  0  0
   -2.5332   -1.4966   -0.0966 N   0  0  0  0  0  0  0  0  0  0  0  0
   -3.2312   -1.2816   -0.7936 H   0  0  0  0  0  0  0  0  0  0  0  0
   -1.3593   -0.6196   -0.0536 C   0  0  1  0  0  0  0  0  0  0  0  0
   -1.6868    0.4101   -0.2017 H   0  0  0  0  0  0  0  0  0  0  0  0
   -0.6968   -0.7177    1.3296 C   0  0  0  0  0  0  0  0  0  0  0  0
    0.1605   -0.0428    1.3576 H   0  0  0  0  0  0  0  0  0  0  0  0
   -1.4105   -0.3763    2.0814 H   0  0  0  0  0  0  0  0  0  0  0  0
   -0.2217   -2.0865    1.7127 C   0  0  0  0  0  0  0  0  0  0  0  0
    0.9932   -2.6060    1.4268 C   0  0  0  0  0  0  0  0  0  0  0  0
    1.7666   -2.0941    0.8648 H   0  0  0  0  0  0  0  0  0  0  0  0
    1.0987   -3.8691    1.9755 N   0  0  0  0  0  0  0  0  0  0  0  0
    1.9201   -4.4489    1.8847 H   0  0  0  0  0  0  0  0  0  0  0  0
   -0.0443   -4.2219    2.6608 C   0  0  0  0  0  0  0  0  0  0  0  0
   -0.4082   -5.3593    3.3959 C   0  0  0  0  0  0  0  0  0  0  0  0
    0.2787   -6.1863    3.5006 H   0  0  0  0  0  0  0  0  0  0  0  0
   -1.6795   -5.4087    3.9928 C   0  0  0  0  0  0  0  0  0  0  0  0
   -1.9779   -6.2783    4.5626 H   0  0  0  0  0  0  0  0  0  0  0  0
   -2.5669   -4.3273    3.8424 C   0  0  0  0  0  0  0  0  0  0  0  0
   -3.5472   -4.3730    4.2963 H   0  0  0  0  0  0  0  0  0  0  0  0
   -2.1913   -3.1900    3.0997 C   0  0  0  0  0  0  0  0  0  0  0  0
   -2.8876   -2.3720    2.9809 H   0  0  0  0  0  0  0  0  0  0  0  0
   -0.9192   -3.1070    2.4931 C   0  0  0  0  0  0  0  0  0  0  0  0
   -0.3723   -0.9573   -1.1818 C   0  0  0  0  0  0  0  0  0  0  0  0
    0.3354   -1.9608   -1.1058 O   0  0  0  0  0  0  0  0  0  0  0  0
   -0.3243   -0.1193   -2.2261 N   0  0  0  0  0  0  0  0  0  0  0  0
   -0.8986    0.7107   -2.1865 H   0  0  0  0  0  0  0  0  0  0  0  0
    0.5534   -0.2937   -3.3800 C   0  0  0  0  0  0  0  0  0  0  0  0
    0.4313   -1.2994   -3.7867 H   0  0  0  0  0  0  0  0  0  0  0  0
    0.3110    0.4393   -4.1505 H   0  0  0  0  0  0  0  0  0  0  0  0
    1.5923   -0.1644   -3.0721 H   0  0  0  0  0  0  0  0  0  0  0  0
  5  6  2  0  0  0  0
  5  7  1  0  0  0  0
  2  3  1  0  0  0  0
  2  4  1  0  0  0  0
  2  5  1  0  0  0  0
  1  2  1  0  0  0  0
 29 30  2  0  0  0  0
 29 31  1  0  0  0  0
 26 27  1  0  0  0  0
 26 28  2  0  0  0  0
 24 25  1  0  0  0  0
 24 26  1  0  0  0  0
 22 23  1  0  0  0  0
 22 24  2  0  0  0  0
 20 21  1  0  0  0  0
 20 22  1  0  0  0  0
 19 20  2  0  0  0  0
 19 28  1  0  0  0  0
 17 18  1  0  0  0  0
 17 19  1  0  0  0  0
 15 16  1  0  0  0  0
 15 17  1  0  0  0  0
 14 15  2  0  0  0  0
 14 28  1  0  0  0  0
 11 12  1  0  0  0  0
 11 13  1  0  0  0  0
 11 14  1  0  0  0  0
  9 10  1  0  0  0  0
  9 11  1  0  0  0  0
  9 29  1  0  0  0  0
  7  8  1  0  0  0  0
  7  9  1  0  0  0  0
 33 34  1  0  0  0  0
 33 35  1  0  0  0  0
 33 36  1  0  0  0  0
 31 32  1  0  0  0  0
 31 33  1  0  0  0  0
M  END
$$$$
default_name
  -OEChem-12212115393D

 36 37  0     1  0  0  0  0  0999 V2000
   -4.0843   -4.0736    1.2944 H   0  0  0  0  0  0  0  0  0  0  0  0
   -4.0342   -3.2816    0.5484 C   0  0  0  0  0  0  0  0  0  0  0  0
   -4.8842   -2.6126    0.6694 H   0  0  0  0  0  0  0  0  0  0  0  0
   -4.0433   -3.7186   -0.4486 H   0  0  0  0  0  0  0  0  0  0  0  0
   -2.7532   -2.5046    0.7444 C   0  0  0  0  0  0  0  0  0  0  0  0
   -1.9803   -2.8096    1.6434 O   0  0  0  0  0  0  0  0  0  0  0  0
   -2.5332   -1.4966   -0.0966 N   0  0  0  0  0  0  0  0  0  0  0  0
   -3.2312   -1.2816   -0.7936 H   0  0  0  0  0  0  0  0  0  0  0  0
   -1.3593   -0.6196   -0.0536 C   0  0  1  0  0  0  0  0  0  0  0  0
   -1.6868    0.4101   -0.2017 H   0  0  0  0  0  0  0  0  0  0  0  0
   -0.6968   -0.7177    1.3296 C   0  0  0  0  0  0  0  0  0  0  0  0
    0.1605   -0.0428    1.3576 H   0  0  0  0  0  0  0  0  0  0  0  0
   -1.4105   -0.3763    2.0814 H   0  0  0  0  0  0  0  0  0  0  0  0
   -0.2217   -2.0865    1.7127 C   0  0  0  0  0  0  0  0  0  0  0  0
    0.9932   -2.6060    1.4268 C   0  0  0  0  0  0  0  0  0  0  0  0
    1.7666   -2.0941    0.8648 H   0  0  0  0  0  0  0  0  0  0  0  0
    1.0987   -3.8691    1.9755 N   0  0  0  0  0  0  0  0  0  0  0  0
    1.9201   -4.4489    1.8847 H   0  0  0  0  0  0  0  0  0  0  0  0
   -0.0443   -4.2219    2.6608 C   0  0  0  0  0  0  0  0  0  0  0  0
   -0.4082   -5.3593    3.3959 C   0  0  0  0  0  0  0  0  0  0  0  0
    0.2787   -6.1863    3.5006 H   0  0  0  0  0  0  0  0  0  0  0  0
   -1.6795   -5.4087    3.9928 C   0  0  0  0  0  0  0  0  0  0  0  0
   -1.9779   -6.2783    4.5626 H   0  0  0  0  0  0  0  0  0  0  0  0
   -2.5669   -4.3273    3.8424 C   0  0  0  0  0  0  0  0  0  0  0  0
   -3.5472   -4.3730    4.2963 H   0  0  0  0  0  0  0  0  0  0  0  0
   -2.1913   -3.1900    3.0997 C   0  0  0  0  0  0  0  0  0  0  0  0
   -2.8876   -2.3720    2.9809 H   0  0  0  0  0  0  0  0  0  0  0  0
   -0.9192   -3.1070    2.4931 C   0  0  0  0  0  0  0  0  0  0  0  0
   -0.3723   -0.9573   -1.1818 C   0  0  0  0  0  0  0  0  0  0  0  0
    0.1299   -2.0784   -1.2505 O   0  0  0  0  0  0  0  0  0  0  0  0
   -0.0939    0.0121   -2.0638 N   0  0  0  0  0  0  0  0  0  0  0  0
   -0.5058    0.9207   -1.9058 H   0  0  0  0  0  0  0  0  0  0  0  0
    0.8181   -0.1423   -3.1937 C   0  0  0  0  0  0  0  0  0  0  0  0
    0.5419   -1.0262   -3.7717 H   0  0  0  0  0  0  0  0  0  0  0  0
    0.7726    0.7381   -3.8361 H   0  0  0  0  0  0  0  0  0  0  0  0
    1.8377   -0.2691   -2.8261 H   0  0  0  0  0  0  0  0  0  0  0  0
  5  6  2  0  0  0  0
  5  7  1  0  0  0  0
  2  3  1  0  0  0  0
  2  4  1  0  0  0  0
  2  5  1  0  0  0  0
  1  2  1  0  0  0  0
 29 30  2  0  0  0  0
 29 31  1  0  0  0  0
 26 27  1  0  0  0  0
 26 28  2  0  0  0  0
 24 25  1  0  0  0  0
 24 26  1  0  0  0  0
 22 23  1  0  0  0  0
 22 24  2  0  0  0  0
 20 21  1  0  0  0  0
 20 22  1  0  0  0  0
 19 20  2  0  0  0  0
 19 28  1  0  0  0  0
 17 18  1  0  0  0  0
 17 19  1  0  0  0  0
 15 16  1  0  0  0  0
 15 17  1  0  0  0  0
 14 15  2  0  0  0  0
 14 28  1  0  0  0  0
 11 12  1  0  0  0  0
 11 13  1  0  0  0  0
 11 14  1  0  0  0  0
  9 10  1  0  0  0  0
  9 11  1  0  0  0  0
  9 29  1  0  0  0  0
  7  8  1  0  0  0  0
  7  9  1  0  0  0  0
 33 34  1  0  0  0  0
 33 35  1  0  0  0  0
 33 36  1  0  0  0  0
 31 32  1  0  0  0  0
 31 33  1  0  0  0  0
M  END
$$$$
default_name
  -OEChem-12212115393D

 36 37  0     1  0  0  0  0  0999 V2000
   -4.0843   -4.0736    1.2944 H   0  0  0  0  0  0  0  0  0  0  0  0
   -4.0342   -3.2816    0.5484 C   0  0  0  0  0  0  0  0  0  0  0  0
   -4.8842   -2.6126    0.6694 H   0  0  0  0  0  0  0  0  0  0  0  0
   -4.0433   -3.7186   -0.4486 H   0  0  0  0  0  0  0  0  0  0  0  0
   -2.7532   -2.5046    0.7444 C   0  0  0  0  0  0  0  0  0  0  0  0
   -1.9803   -2.8096    1.6434 O   0  0  0  0  0  0  0  0  0  0  0  0
   -2.5332   -1.4966   -0.0966 N   0  0  0  0  0  0  0  0  0  0  0  0
   -3.2312   -1.2816   -0.7936 H   0  0  0  0  0  0  0  0  0  0  0  0
   -1.3593   -0.6196   -0.0536 C   0  0  1  0  0  0  0  0  0  0  0  0
   -1.6868    0.4101   -0.2017 H   0  0  0  0  0  0  0  0  0  0  0  0
   -0.6968   -0.7177    1.3296 C   0  0  0  0  0  0  0  0  0  0  0  0
    0.1605   -0.0428    1.3576 H   0  0  0  0  0  0  0  0  0  0  0  0
   -1.4105   -0.3763    2.0814 H   0  0  0  0  0  0  0  0  0  0  0  0
   -0.2217   -2.0865    1.7127 C   0  0  0  0  0  0  0  0  0  0  0  0
    0.9932   -2.6060    1.4268 C   0  0  0  0  0  0  0  0  0  0  0  0
    1.7666   -2.0941    0.8648 H   0  0  0  0  0  0  0  0  0  0  0  0
    1.0987   -3.8691    1.9755 N   0  0  0  0  0  0  0  0  0  0  0  0
    1.9201   -4.4489    1.8847 H   0  0  0  0  0  0  0  0  0  0  0  0
   -0.0443   -4.2219    2.6608 C   0  0  0  0  0  0  0  0  0  0  0  0
   -0.4082   -5.3593    3.3959 C   0  0  0  0  0  0  0  0  0  0  0  0
    0.2787   -6.1863    3.5006 H   0  0  0  0  0  0  0  0  0  0  0  0
   -1.6795   -5.4087    3.9928 C   0  0  0  0  0  0  0  0  0  0  0  0
   -1.9779   -6.2783    4.5626 H   0  0  0  0  0  0  0  0  0  0  0  0
   -2.5669   -4.3273    3.8424 C   0  0  0  0  0  0  0  0  0  0  0  0
   -3.5472   -4.3730    4.2963 H   0  0  0  0  0  0  0  0  0  0  0  0
   -2.1913   -3.1900    3.0997 C   0  0  0  0  0  0  0  0  0  0  0  0
   -2.8876   -2.3720    2.9809 H   0  0  0  0  0  0  0  0  0  0  0  0
   -0.9192   -3.1070    2.4931 C   0  0  0  0  0  0  0  0  0  0  0  0
   -0.3723   -0.9573   -1.1818 C   0  0  0  0  0  0  0  0  0  0  0  0
   -0.0828   -2.1288   -1.4214 O   0  0  0  0  0  0  0  0  0  0  0  0
    0.1444    0.0682   -1.8721 N   0  0  0  0  0  0  0  0  0  0  0  0
   -0.1025    1.0022   -1.5773 H   0  0  0  0  0  0  0  0  0  0  0  0
    1.0921   -0.0772   -2.9736 C   0  0  0  0  0  0  0  0  0  0  0  0
    0.6998   -0.7858   -3.7056 H   0  0  0  0  0  0  0  0  0  0  0  0
    1.2573    0.8867   -3.4565 H   0  0  0  0  0  0  0  0  0  0  0  0
    2.0409   -0.4577   -2.5918 H   0  0  0  0  0  0  0  0  0  0  0  0
  5  6  2  0  0  0  0
  5  7  1  0  0  0  0
  2  3  1  0  0  0  0
  2  4  1  0  0  0  0
  2  5  1  0  0  0  0
  1  2  1  0  0  0  0
 29 30  2  0  0  0  0
 29 31  1  0  0  0  0
 26 27  1  0  0  0  0
 26 28  2  0  0  0  0
 24 25  1  0  0  0  0
 24 26  1  0  0  0  0
 22 23  1  0  0  0  0
 22 24  2  0  0  0  0
 20 21  1  0  0  0  0
 20 22  1  0  0  0  0
 19 20  2  0  0  0  0
 19 28  1  0  0  0  0
 17 18  1  0  0  0  0
 17 19  1  0  0  0  0
 15 16  1  0  0  0  0
 15 17  1  0  0  0  0
 14 15  2  0  0  0  0
 14 28  1  0  0  0  0
 11 12  1  0  0  0  0
 11 13  1  0  0  0  0
 11 14  1  0  0  0  0
  9 10  1  0  0  0  0
  9 11  1  0  0  0  0
  9 29  1  0  0  0  0
  7  8  1  0  0  0  0
  7  9  1  0  0  0  0
 33 34  1  0  0  0  0
 33 35  1  0  0  0  0
 33 36  1  0  0  0  0
 31 32  1  0  0  0  0
 31 33  1  0  0  0  0
M  END
$$$$
default_name
  -OEChem-12212115393D

 36 37  0     1  0  0  0  0  0999 V2000
   -4.0843   -4.0736    1.2944 H   0  0  0  0  0  0  0  0  0  0  0  0
   -4.0342   -3.2816    0.5484 C   0  0  0  0  0  0  0  0  0  0  0  0
   -4.8842   -2.6126    0.6694 H   0  0  0  0  0  0  0  0  0  0  0  0
   -4.0433   -3.7186   -0.4486 H   0  0  0  0  0  0  0  0  0  0  0  0
   -2.7532   -2.5046    0.7444 C   0  0  0  0  0  0  0  0  0  0  0  0
   -1.9803   -2.8096    1.6434 O   0  0  0  0  0  0  0  0  0  0  0  0
   -2.5332   -1.4966   -0.0966 N   0  0  0  0  0  0  0  0  0  0  0  0
   -3.2312   -1.2816   -0.7936 H   0  0  0  0  0  0  0  0  0  0  0  0
   -1.3593   -0.6196   -0.0536 C   0  0  1  0  0  0  0  0  0  0  0  0
   -1.6868    0.4101   -0.2017 H   0  0  0  0  0  0  0  0  0  0  0  0
   -0.6968   -0.7177    1.3296 C   0  0  0  0  0  0  0  0  0  0  0  0
    0.1605   -0.0428    1.3576 H   0  0  0  0  0  0  0  0  0  0  0  0
   -1.4105   -0.3763    2.0814 H   0  0  0  0  0  0  0  0  0  0  0  0
   -0.2217   -2.0865    1.7127 C   0  0  0  0  0  0  0  0  0  0  0  0
    0.9932   -2.6060    1.4268 C   0  0  0  0  0  0  0  0  0  0  0  0
    1.7666   -2.0941    0.8648 H   0  0  0  0  0  0  0  0  0  0  0  0
    1.0987   -3.8691    1.9755 N   0  0  0  0  0  0  0  0  0  0  0  0
    1.9201   -4.4489    1.8847 H   0  0  0  0  0  0  0  0  0  0  0  0
   -0.0443   -4.2219    2.6608 C   0  0  0  0  0  0  0  0  0  0  0  0
   -0.4082   -5.3593    3.3959 C   0  0  0  0  0  0  0  0  0  0  0  0
    0.2787   -6.1863    3.5006 H   0  0  0  0  0  0  0  0  0  0  0  0
   -1.6795   -5.4087    3.9928 C   0  0  0  0  0  0  0  0  0  0  0  0
   -1.9779   -6.2783    4.5626 H   0  0  0  0  0  0  0  0  0  0  0  0
   -2.5669   -4.3273    3.8424 C   0  0  0  0  0  0  0  0  0  0  0  0
   -3.5472   -4.3730    4.2963 H   0  0  0  0  0  0  0  0  0  0  0  0
   -2.1913   -3.1900    3.0997 C   0  0  0  0  0  0  0  0  0  0  0  0
   -2.8876   -2.3720    2.9809 H   0  0  0  0  0  0  0  0  0  0  0  0
   -0.9192   -3.1070    2.4931 C   0  0  0  0  0  0  0  0  0  0  0  0
   -0.3723   -0.9573   -1.1818 C   0  0  0  0  0  0  0  0  0  0  0  0
   -0.2881   -2.1087   -1.6071 O   0  0  0  0  0  0  0  0  0  0  0  0
    0.3744    0.0452   -1.6640 N   0  0  0  0  0  0  0  0  0  0  0  0
    0.2839    0.9496   -1.2236 H   0  0  0  0  0  0  0  0  0  0  0  0
    1.3565   -0.1031   -2.7345 C   0  0  0  0  0  0  0  0  0  0  0  0
    0.8942   -0.5945   -3.5927 H   0  0  0  0  0  0  0  0  0  0  0  0
    1.7322    0.8750   -3.0376 H   0  0  0  0  0  0  0  0  0  0  0  0
    2.1881   -0.7175   -2.3854 H   0  0  0  0  0  0  0  0  0  0  0  0
  5  6  2  0  0  0  0
  5  7  1  0  0  0  0
  2  3  1  0  0  0  0
  2  4  1  0  0  0  0
  2  5  1  0  0  0  0
  1  2  1  0  0  0  0
 29 30  2  0  0  0  0
 29 31  1  0  0  0  0
 26 27  1  0  0  0  0
 26 28  2  0  0  0  0
 24 25  1  0  0  0  0
 24 26  1  0  0  0  0
 22 23  1  0  0  0  0
 22 24  2  0  0  0  0
 20 21  1  0  0  0  0
 20 22  1  0  0  0  0
 19 20  2  0  0  0  0
 19 28  1  0  0  0  0
 17 18  1  0  0  0  0
 17 19  1  0  0  0  0
 15 16  1  0  0  0  0
 15 17  1  0  0  0  0
 14 15  2  0  0  0  0
 14 28  1  0  0  0  0
 11 12  1  0  0  0  0
 11 13  1  0  0  0  0
 11 14  1  0  0  0  0
  9 10  1  0  0  0  0
  9 11  1  0  0  0  0
  9 29  1  0  0  0  0
  7  8  1  0  0  0  0
  7  9  1  0  0  0  0
 33 34  1  0  0  0  0
 33 35  1  0  0  0  0
 33 36  1  0  0  0  0
 31 32  1  0  0  0  0
 31 33  1  0  0  0  0
M  END
$$$$
default_name
  -OEChem-12212115393D

 36 37  0     1  0  0  0  0  0999 V2000
   -4.0843   -4.0736    1.2944 H   0  0  0  0  0  0  0  0  0  0  0  0
   -4.0342   -3.2816    0.5484 C   0  0  0  0  0  0  0  0  0  0  0  0
   -4.8842   -2.6126    0.6694 H   0  0  0  0  0  0  0  0  0  0  0  0
   -4.0433   -3.7186   -0.4486 H   0  0  0  0  0  0  0  0  0  0  0  0
   -2.7532   -2.5046    0.7444 C   0  0  0  0  0  0  0  0  0  0  0  0
   -1.9803   -2.8096    1.6434 O   0  0  0  0  0  0  0  0  0  0  0  0
   -2.5332   -1.4966   -0.0966 N   0  0  0  0  0  0  0  0  0  0  0  0
   -3.2312   -1.2816   -0.7936 H   0  0  0  0  0  0  0  0  0  0  0  0
   -1.3593   -0.6196   -0.0536 C   0  0  1  0  0  0  0  0  0  0  0  0
   -1.6868    0.4101   -0.2017 H   0  0  0  0  0  0  0  0  0  0  0  0
   -0.6968   -0.7177    1.3296 C   0  0  0  0  0  0  0  0  0  0  0  0
    0.1605   -0.0428    1.3576 H   0  0  0  0  0  0  0  0  0  0  0  0
   -1.4105   -0.3763    2.0814 H   0  0  0  0  0  0  0  0  0  0  0  0
   -0.2217   -2.0865    1.7127 C   0  0  0  0  0  0  0  0  0  0  0  0
    0.9932   -2.6060    1.4268 C   0  0  0  0  0  0  0  0  0  0  0  0
    1.7666   -2.0941    0.8648 H   0  0  0  0  0  0  0  0  0  0  0  0
    1.0987   -3.8691    1.9755 N   0  0  0  0  0  0  0  0  0  0  0  0
    1.9201   -4.4489    1.8847 H   0  0  0  0  0  0  0  0  0  0  0  0
   -0.0443   -4.2219    2.6608 C   0  0  0  0  0  0  0  0  0  0  0  0
   -0.4082   -5.3593    3.3959 C   0  0  0  0  0  0  0  0  0  0  0  0
    0.2787   -6.1863    3.5006 H   0  0  0  0  0  0  0  0  0  0  0  0
   -1.6795   -5.4087    3.9928 C   0  0  0  0  0  0  0  0  0  0  0  0
   -1.9779   -6.2783    4.5626 H   0  0  0  0  0  0  0  0  0  0  0  0
   -2.5669   -4.3273    3.8424 C   0  0  0  0  0  0  0  0  0  0  0  0
   -3.5472   -4.3730    4.2963 H   0  0  0  0  0  0  0  0  0  0  0  0
   -2.1913   -3.1900    3.0997 C   0  0  0  0  0  0  0  0  0  0  0  0
   -2.8876   -2.3720    2.9809 H   0  0  0  0  0  0  0  0  0  0  0  0
   -0.9192   -3.1070    2.4931 C   0  0  0  0  0  0  0  0  0  0  0  0
   -0.3723   -0.9573   -1.1818 C   0  0  0  0  0  0  0  0  0  0  0  0
   -0.4721   -2.0194   -1.7947 O   0  0  0  0  0  0  0  0  0  0  0  0
    0.5803   -0.0553   -1.4538 N   0  0  0  0  0  0  0  0  0  0  0  0
    0.6271    0.7667   -0.8686 H   0  0  0  0  0  0  0  0  0  0  0  0
    1.5934   -0.2180   -2.4929 C   0  0  0  0  0  0  0  0  0  0  0  0
    1.1119   -0.4655   -3.4409 H   0  0  0  0  0  0  0  0  0  0  0  0
    2.1649    0.7038   -2.6079 H   0  0  0  0  0  0  0  0  0  0  0  0
    2.2690   -1.0307   -2.2208 H   0  0  0  0  0  0  0  0  0  0  0  0
  5  6  2  0  0  0  0
  5  7  1  0  0  0  0
  2  3  1  0  0  0  0
  2  4  1  0  0  0  0
  2  5  1  0  0  0  0
  1  2  1  0  0  0  0
 29 30  2  0  0  0  0
 29 31  1  0  0  0  0
 26 27  1  0  0  0  0
 26 28  2  0  0  0  0
 24 25  1  0  0  0  0
 24 26  1  0  0  0  0
 22 23  1  0  0  0  0
 22 24  2  0  0  0  0
 20 21  1  0  0  0  0
 20 22  1  0  0  0  0
 19 20  2  0  0  0  0
 19 28  1  0  0  0  0
 17 18  1  0  0  0  0
 17 19  1  0  0  0  0
 15 16  1  0  0  0  0
 15 17  1  0  0  0  0
 14 15  2  0  0  0  0
 14 28  1  0  0  0  0
 11 12  1  0  0  0  0
 11 13  1  0  0  0  0
 11 14  1  0  0  0  0
  9 10  1  0  0  0  0
  9 11  1  0  0  0  0
  9 29  1  0  0  0  0
  7  8  1  0  0  0  0
  7  9  1  0  0  0  0
 33 34  1  0  0  0  0
 33 35  1  0  0  0  0
 33 36  1  0  0  0  0
 31 32  1  0  0  0  0
 31 33  1  0  0  0  0
M  END
$$$$
default_name
  -OEChem-12212115393D

 36 37  0     1  0  0  0  0  0999 V2000
   -4.0843   -4.0736    1.2944 H   0  0  0  0  0  0  0  0  0  0  0  0
   -4.0342   -3.2816    0.5484 C   0  0  0  0  0  0  0  0  0  0  0  0
   -4.8842   -2.6126    0.6694 H   0  0  0  0  0  0  0  0  0  0  0  0
   -4.0433   -3.7186   -0.4486 H   0  0  0  0  0  0  0  0  0  0  0  0
   -2.7532   -2.5046    0.7444 C   0  0  0  0  0  0  0  0  0  0  0  0
   -1.9803   -2.8096    1.6434 O   0  0  0  0  0  0  0  0  0  0  0  0
   -2.5332   -1.4966   -0.0966 N   0  0  0  0  0  0  0  0  0  0  0  0
   -3.2312   -1.2816   -0.7936 H   0  0  0  0  0  0  0  0  0  0  0  0
   -1.3593   -0.6196   -0.0536 C   0  0  1  0  0  0  0  0  0  0  0  0
   -1.6969    0.4103    0.0678 H   0  0  0  0  0  0  0  0  0  0  0  0
   -0.4905   -0.9856    1.1601 C   0  0  0  0  0  0  0  0  0  0  0  0
    0.3666   -0.3107    1.1954 H   0  0  0  0  0  0  0  0  0  0  0  0
   -1.0754   -0.8241    2.0672 H   0  0  0  0  0  0  0  0  0  0  0  0
    0.0264   -2.3922    1.1724 C   0  0  0  0  0  0  0  0  0  0  0  0
    1.1775   -2.8122    0.6012 C   0  0  0  0  0  0  0  0  0  0  0  0
    1.8585   -2.1769    0.0456 H   0  0  0  0  0  0  0  0  0  0  0  0
    1.3561   -4.1585    0.8524 N   0  0  0  0  0  0  0  0  0  0  0  0
    2.1483   -4.6873    0.5177 H   0  0  0  0  0  0  0  0  0  0  0  0
    0.3306   -4.6726    1.6171 C   0  0  0  0  0  0  0  0  0  0  0  0
    0.0757   -5.9457    2.1468 C   0  0  0  0  0  0  0  0  0  0  0  0
    0.7632   -6.7598    1.9702 H   0  0  0  0  0  0  0  0  0  0  0  0
   -1.0877   -6.1478    2.9089 C   0  0  0  0  0  0  0  0  0  0  0  0
   -1.3014   -7.1232    3.3245 H   0  0  0  0  0  0  0  0  0  0  0  0
   -1.9782   -5.0803    3.1251 C   0  0  0  0  0  0  0  0  0  0  0  0
   -2.8762   -5.2422    3.7051 H   0  0  0  0  0  0  0  0  0  0  0  0
   -1.7128   -3.8053    2.5862 C   0  0  0  0  0  0  0  0  0  0  0  0
   -2.4119   -2.9973    2.7487 H   0  0  0  0  0  0  0  0  0  0  0  0
   -0.5500   -3.5684    1.8216 C   0  0  0  0  0  0  0  0  0  0  0  0
   -0.5629   -0.6932   -1.3656 C   0  0  0  0  0  0  0  0  0  0  0  0
   -0.9405   -1.4257   -2.2791 O   0  0  0  0  0  0  0  0  0  0  0  0
    0.5388    0.0638   -1.4577 N   0  0  0  0  0  0  0  0  0  0  0  0
    0.8102    0.5959   -0.6432 H   0  0  0  0  0  0  0  0  0  0  0  0
    1.4058    0.1135   -2.6317 C   0  0  0  0  0  0  0  0  0  0  0  0
    0.8079    0.3150   -3.5226 H   0  0  0  0  0  0  0  0  0  0  0  0
    2.1536    0.8987   -2.5133 H   0  0  0  0  0  0  0  0  0  0  0  0
    1.9074   -0.8475   -2.7568 H   0  0  0  0  0  0  0  0  0  0  0  0
  5  6  2  0  0  0  0
  5  7  1  0  0  0  0
  2  3  1  0  0  0  0
  2  4  1  0  0  0  0
  2  5  1  0  0  0  0
  1  2  1  0  0  0  0
 29 30  2  0  0  0  0
 29 31  1  0  0  0  0
 26 27  1  0  0  0  0
 26 28  2  0  0  0  0
 24 25  1  0  0  0  0
 24 26  1  0  0  0  0
 22 23  1  0  0  0  0
 22 24  2  0  0  0  0
 20 21  1  0  0  0  0
 20 22  1  0  0  0  0
 19 20  2  0  0  0  0
 19 28  1  0  0  0  0
 17 18  1  0  0  0  0
 17 19  1  0  0  0  0
 15 16  1  0  0  0  0
 15 17  1  0  0  0  0
 14 15  2  0  0  0  0
 14 28  1  0  0  0  0
 11 12  1  0  0  0  0
 11 13  1  0  0  0  0
 11 14  1  0  0  0  0
  9 10  1  0  0  0  0
  9 11  1  0  0  0  0
  9 29  1  0  0  0  0
  7  8  1  0  0  0  0
  7  9  1  0  0  0  0
 33 34  1  0  0  0  0
 33 35  1  0  0  0  0
 33 36  1  0  0  0  0
 31 32  1  0  0  0  0
 31 33  1  0  0  0  0
M  END
$$$$
default_name
  -OEChem-12212115393D

 36 37  0     1  0  0  0  0  0999 V2000
   -4.0843   -4.0736    1.2944 H   0  0  0  0  0  0  0  0  0  0  0  0
   -4.0342   -3.2816    0.5484 C   0  0  0  0  0  0  0  0  0  0  0  0
   -4.8842   -2.6126    0.6694 H   0  0  0  0  0  0  0  0  0  0  0  0
   -4.0433   -3.7186   -0.4486 H   0  0  0  0  0  0  0  0  0  0  0  0
   -2.7532   -2.5046    0.7444 C   0  0  0  0  0  0  0  0  0  0  0  0
   -1.9803   -2.8096    1.6434 O   0  0  0  0  0  0  0  0  0  0  0  0
   -2.5332   -1.4966   -0.0966 N   0  0  0  0  0  0  0  0  0  0  0  0
   -3.2312   -1.2816   -0.7936 H   0  0  0  0  0  0  0  0  0  0  0  0
   -1.3593   -0.6196   -0.0536 C   0  0  1  0  0  0  0  0  0  0  0  0
   -1.6969    0.4103    0.0678 H   0  0  0  0  0  0  0  0  0  0  0  0
   -0.4905   -0.9856    1.1601 C   0  0  0  0  0  0  0  0  0  0  0  0
    0.3666   -0.3107    1.1954 H   0  0  0  0  0  0  0  0  0  0  0  0
   -1.0754   -0.8241    2.0672 H   0  0  0  0  0  0  0  0  0  0  0  0
    0.0264   -2.3922    1.1724 C   0  0  0  0  0  0  0  0  0  0  0  0
    1.1775   -2.8122    0.6012 C   0  0  0  0  0  0  0  0  0  0  0  0
    1.8585   -2.1769    0.0456 H   0  0  0  0  0  0  0  0  0  0  0  0
    1.3561   -4.1585    0.8524 N   0  0  0  0  0  0  0  0  0  0  0  0
    2.1483   -4.6873    0.5177 H   0  0  0  0  0  0  0  0  0  0  0  0
    0.3306   -4.6726    1.6171 C   0  0  0  0  0  0  0  0  0  0  0  0
    0.0757   -5.9457    2.1468 C   0  0  0  0  0  0  0  0  0  0  0  0
    0.7632   -6.7598    1.9702 H   0  0  0  0  0  0  0  0  0  0  0  0
   -1.0877   -6.1478    2.9089 C   0  0  0  0  0  0  0  0  0  0  0  0
   -1.3014   -7.1232    3.3245 H   0  0  0  0  0  0  0  0  0  0  0  0
   -1.9782   -5.0803    3.1251 C   0  0  0  0  0  0  0  0  0  0  0  0
   -2.8762   -5.2422    3.7051 H   0  0  0  0  0  0  0  0  0  0  0  0
   -1.7128   -3.8053    2.5862 C   0  0  0  0  0  0  0  0  0  0  0  0
   -2.4119   -2.9973    2.7487 H   0  0  0  0  0  0  0  0  0  0  0  0
   -0.5500   -3.5684    1.8216 C   0  0  0  0  0  0  0  0  0  0  0  0
   -0.5629   -0.6932   -1.3656 C   0  0  0  0  0  0  0  0  0  0  0  0
   -1.0673   -1.1958   -2.3689 O   0  0  0  0  0  0  0  0  0  0  0  0
    0.6805   -0.1941   -1.3572 N   0  0  0  0  0  0  0  0  0  0  0  0
    1.0399    0.1515   -0.4788 H   0  0  0  0  0  0  0  0  0  0  0  0
    1.5691   -0.1826   -2.5160 C   0  0  0  0  0  0  0  0  0  0  0  0
    1.0550    0.2630   -3.3697 H   0  0  0  0  0  0  0  0  0  0  0  0
    2.4679    0.3943   -2.2943 H   0  0  0  0  0  0  0  0  0  0  0  0
    1.8501   -1.2056   -2.7715 H   0  0  0  0  0  0  0  0  0  0  0  0
  5  6  2  0  0  0  0
  5  7  1  0  0  0  0
  2  3  1  0  0  0  0
  2  4  1  0  0  0  0
  2  5  1  0  0  0  0
  1  2  1  0  0  0  0
 29 30  2  0  0  0  0
 29 31  1  0  0  0  0
 26 27  1  0  0  0  0
 26 28  2  0  0  0  0
 24 25  1  0  0  0  0
 24 26  1  0  0  0  0
 22 23  1  0  0  0  0
 22 24  2  0  0  0  0
 20 21  1  0  0  0  0
 20 22  1  0  0  0  0
 19 20  2  0  0  0  0
 19 28  1  0  0  0  0
 17 18  1  0  0  0  0
 17 19  1  0  0  0  0
 15 16  1  0  0  0  0
 15 17  1  0  0  0  0
 14 15  2  0  0  0  0
 14 28  1  0  0  0  0
 11 12  1  0  0  0  0
 11 13  1  0  0  0  0
 11 14  1  0  0  0  0
  9 10  1  0  0  0  0
  9 11  1  0  0  0  0
  9 29  1  0  0  0  0
  7  8  1  0  0  0  0
  7  9  1  0  0  0  0
 33 34  1  0  0  0  0
 33 35  1  0  0  0  0
 33 36  1  0  0  0  0
 31 32  1  0  0  0  0
 31 33  1  0  0  0  0
M  END
$$$$
default_name
  -OEChem-12212115393D

 36 37  0     1  0  0  0  0  0999 V2000
   -4.0843   -4.0736    1.2944 H   0  0  0  0  0  0  0  0  0  0  0  0
   -4.0342   -3.2816    0.5484 C   0  0  0  0  0  0  0  0  0  0  0  0
   -4.8842   -2.6126    0.6694 H   0  0  0  0  0  0  0  0  0  0  0  0
   -4.0433   -3.7186   -0.4486 H   0  0  0  0  0  0  0  0  0  0  0  0
   -2.7532   -2.5046    0.7444 C   0  0  0  0  0  0  0  0  0  0  0  0
   -1.9803   -2.8096    1.6434 O   0  0  0  0  0  0  0  0  0  0  0  0
   -2.5332   -1.4966   -0.0966 N   0  0  0  0  0  0  0  0  0  0  0  0
   -3.2312   -1.2816   -0.7936 H   0  0  0  0  0  0  0  0  0  0  0  0
   -1.3593   -0.6196   -0.0536 C   0  0  1  0  0  0  0  0  0  0  0  0
   -1.6969    0.4103    0.0678 H   0  0  0  0  0  0  0  0  0  0  0  0
   -0.4905   -0.9856    1.1601 C   0  0  0  0  0  0  0  0  0  0  0  0
    0.3666   -0.3107    1.1954 H   0  0  0  0  0  0  0  0  0  0  0  0
   -1.0754   -0.8241    2.0672 H   0  0  0  0  0  0  0  0  0  0  0  0
    0.0264   -2.3922    1.1724 C   0  0  0  0  0  0  0  0  0  0  0  0
    1.1775   -2.8122    0.6012 C   0  0  0  0  0  0  0  0  0  0  0  0
    1.8585   -2.1769    0.0456 H   0  0  0  0  0  0  0  0  0  0  0  0
    1.3561   -4.1585    0.8524 N   0  0  0  0  0  0  0  0  0  0  0  0
    2.1483   -4.6873    0.5177 H   0  0  0  0  0  0  0  0  0  0  0  0
    0.3306   -4.6726    1.6171 C   0  0  0  0  0  0  0  0  0  0  0  0
    0.0757   -5.9457    2.1468 C   0  0  0  0  0  0  0  0  0  0  0  0
    0.7632   -6.7598    1.9702 H   0  0  0  0  0  0  0  0  0  0  0  0
   -1.0877   -6.1478    2.9089 C   0  0  0  0  0  0  0  0  0  0  0  0
   -1.3014   -7.1232    3.3245 H   0  0  0  0  0  0  0  0  0  0  0  0
   -1.9782   -5.0803    3.1251 C   0  0  0  0  0  0  0  0  0  0  0  0
   -2.8762   -5.2422    3.7051 H   0  0  0  0  0  0  0  0  0  0  0  0
   -1.7128   -3.8053    2.5862 C   0  0  0  0  0  0  0  0  0  0  0  0
   -2.4119   -2.9973    2.7487 H   0  0  0  0  0  0  0  0  0  0  0  0
   -0.5500   -3.5684    1.8216 C   0  0  0  0  0  0  0  0  0  0  0  0
   -0.5629   -0.6932   -1.3656 C   0  0  0  0  0  0  0  0  0  0  0  0
   -1.1378   -0.9336   -2.4264 O   0  0  0  0  0  0  0  0  0  0  0  0
    0.7591   -0.4880   -1.2930 N   0  0  0  0  0  0  0  0  0  0  0  0
    1.1616   -0.3505   -0.3768 H   0  0  0  0  0  0  0  0  0  0  0  0
    1.6599   -0.5202   -2.4419 C   0  0  0  0  0  0  0  0  0  0  0  0
    1.2802    0.1376   -3.2260 H   0  0  0  0  0  0  0  0  0  0  0  0
    2.6572   -0.1918   -2.1465 H   0  0  0  0  0  0  0  0  0  0  0  0
    1.7157   -1.5369   -2.8345 H   0  0  0  0  0  0  0  0  0  0  0  0
  5  6  2  0  0  0  0
  5  7  1  0  0  0  0
  2  3  1  0  0  0  0
  2  4  1  0  0  0  0
  2  5  1  0  0  0  0
  1  2  1  0  0  0  0
 29 30  2  0  0  0  0
 29 31  1  0  0  0  0
 26 27  1  0  0  0  0
 26 28  2  0  0  0  0
 24 25  1  0  0  0  0
 24 26  1  0  0  0  0
 22 23  1  0  0  0  0
 22 24  2  0  0  0  0
 20 21  1  0  0  0  0
 20 22  1  0  0  0  0
 19 20  2  0  0  0  0
 19 28  1  0  0  0  0
 17 18  1  0  0  0  0
 17 19  1  0  0  0  0
 15 16  1  0  0  0  0
 15 17  1  0  0  0  0
 14 15  2  0  0  0  0
 14 28  1  0  0  0  0
 11 12  1  0  0  0  0
 11 13  1  0  0  0  0
 11 14  1  0  0  0  0
  9 10  1  0  0  0  0
  9 11  1  0  0  0  0
  9 29  1  0  0  0  0
  7  8  1  0  0  0  0
  7  9  1  0  0  0  0
 33 34  1  0  0  0  0
 33 35  1  0  0  0  0
 33 36  1  0  0  0  0
 31 32  1  0  0  0  0
 31 33  1  0  0  0  0
M  END
$$$$
default_name
  -OEChem-12212115393D

 36 37  0     1  0  0  0  0  0999 V2000
   -4.0843   -4.0736    1.2944 H   0  0  0  0  0  0  0  0  0  0  0  0
   -4.0342   -3.2816    0.5484 C   0  0  0  0  0  0  0  0  0  0  0  0
   -4.8842   -2.6126    0.6694 H   0  0  0  0  0  0  0  0  0  0  0  0
   -4.0433   -3.7186   -0.4486 H   0  0  0  0  0  0  0  0  0  0  0  0
   -2.7532   -2.5046    0.7444 C   0  0  0  0  0  0  0  0  0  0  0  0
   -1.9803   -2.8096    1.6434 O   0  0  0  0  0  0  0  0  0  0  0  0
   -2.5332   -1.4966   -0.0966 N   0  0  0  0  0  0  0  0  0  0  0  0
   -3.2312   -1.2816   -0.7936 H   0  0  0  0  0  0  0  0  0  0  0  0
   -1.3593   -0.6196   -0.0536 C   0  0  1  0  0  0  0  0  0  0  0  0
   -1.6969    0.4103    0.0678 H   0  0  0  0  0  0  0  0  0  0  0  0
   -0.4905   -0.9856    1.1601 C   0  0  0  0  0  0  0  0  0  0  0  0
    0.3666   -0.3107    1.1954 H   0  0  0  0  0  0  0  0  0  0  0  0
   -1.0754   -0.8241    2.0672 H   0  0  0  0  0  0  0  0  0  0  0  0
    0.0264   -2.3922    1.1724 C   0  0  0  0  0  0  0  0  0  0  0  0
    1.1775   -2.8122    0.6012 C   0  0  0  0  0  0  0  0  0  0  0  0
    1.8585   -2.1769    0.0456 H   0  0  0  0  0  0  0  0  0  0  0  0
    1.3561   -4.1585    0.8524 N   0  0  0  0  0  0  0  0  0  0  0  0
    2.1483   -4.6873    0.5177 H   0  0  0  0  0  0  0  0  0  0  0  0
    0.3306   -4.6726    1.6171 C   0  0  0  0  0  0  0  0  0  0  0  0
    0.0757   -5.9457    2.1468 C   0  0  0  0  0  0  0  0  0  0  0  0
    0.7632   -6.7598    1.9702 H   0  0  0  0  0  0  0  0  0  0  0  0
   -1.0877   -6.1478    2.9089 C   0  0  0  0  0  0  0  0  0  0  0  0
   -1.3014   -7.1232    3.3245 H   0  0  0  0  0  0  0  0  0  0  0  0
   -1.9782   -5.0803    3.1251 C   0  0  0  0  0  0  0  0  0  0  0  0
   -2.8762   -5.2422    3.7051 H   0  0  0  0  0  0  0  0  0  0  0  0
   -1.7128   -3.8053    2.5862 C   0  0  0  0  0  0  0  0  0  0  0  0
   -2.4119   -2.9973    2.7487 H   0  0  0  0  0  0  0  0  0  0  0  0
   -0.5500   -3.5684    1.8216 C   0  0  0  0  0  0  0  0  0  0  0  0
   -0.5629   -0.6932   -1.3656 C   0  0  0  0  0  0  0  0  0  0  0  0
   -1.1473   -0.6571   -2.4477 O   0  0  0  0  0  0  0  0  0  0  0  0
    0.7694   -0.7979   -1.2694 N   0  0  0  0  0  0  0  0  0  0  0  0
    1.1669   -0.8759   -0.3442 H   0  0  0  0  0  0  0  0  0  0  0  0
    1.6722   -0.8764   -2.4145 C   0  0  0  0  0  0  0  0  0  0  0  0
    1.4683   -0.0526   -3.1012 H   0  0  0  0  0  0  0  0  0  0  0  0
    2.7088   -0.8195   -2.0800 H   0  0  0  0  0  0  0  0  0  0  0  0
    1.5135   -1.8187   -2.9414 H   0  0  0  0  0  0  0  0  0  0  0  0
  5  6  2  0  0  0  0
  5  7  1  0  0  0  0
  2  3  1  0  0  0  0
  2  4  1  0  0  0  0
  2  5  1  0  0  0  0
  1  2  1  0  0  0  0
 29 30  2  0  0  0  0
 29 31  1  0  0  0  0
 26 27  1  0  0  0  0
 26 28  2  0  0  0  0
 24 25  1  0  0  0  0
 24 26  1  0  0  0  0
 22 23  1  0  0  0  0
 22 24  2  0  0  0  0
 20 21  1  0  0  0  0
 20 22  1  0  0  0  0
 19 20  2  0  0  0  0
 19 28  1  0  0  0  0
 17 18  1  0  0  0  0
 17 19  1  0  0  0  0
 15 16  1  0  0  0  0
 15 17  1  0  0  0  0
 14 15  2  0  0  0  0
 14 28  1  0  0  0  0
 11 12  1  0  0  0  0
 11 13  1  0  0  0  0
 11 14  1  0  0  0  0
  9 10  1  0  0  0  0
  9 11  1  0  0  0  0
  9 29  1  0  0  0  0
  7  8  1  0  0  0  0
  7  9  1  0  0  0  0
 33 34  1  0  0  0  0
 33 35  1  0  0  0  0
 33 36  1  0  0  0  0
 31 32  1  0  0  0  0
 31 33  1  0  0  0  0
M  END
$$$$
default_name
  -OEChem-12212115393D

 36 37  0     1  0  0  0  0  0999 V2000
   -4.0843   -4.0736    1.2944 H   0  0  0  0  0  0  0  0  0  0  0  0
   -4.0342   -3.2816    0.5484 C   0  0  0  0  0  0  0  0  0  0  0  0
   -4.8842   -2.6126    0.6694 H   0  0  0  0  0  0  0  0  0  0  0  0
   -4.0433   -3.7186   -0.4486 H   0  0  0  0  0  0  0  0  0  0  0  0
   -2.7532   -2.5046    0.7444 C   0  0  0  0  0  0  0  0  0  0  0  0
   -1.9803   -2.8096    1.6434 O   0  0  0  0  0  0  0  0  0  0  0  0
   -2.5332   -1.4966   -0.0966 N   0  0  0  0  0  0  0  0  0  0  0  0
   -3.2312   -1.2816   -0.7936 H   0  0  0  0  0  0  0  0  0  0  0  0
   -1.3593   -0.6196   -0.0536 C   0  0  1  0  0  0  0  0  0  0  0  0
   -1.6969    0.4103    0.0678 H   0  0  0  0  0  0  0  0  0  0  0  0
   -0.4905   -0.9856    1.1601 C   0  0  0  0  0  0  0  0  0  0  0  0
    0.3666   -0.3107    1.1954 H   0  0  0  0  0  0  0  0  0  0  0  0
   -1.0754   -0.8241    2.0672 H   0  0  0  0  0  0  0  0  0  0  0  0
    0.0264   -2.3922    1.1724 C   0  0  0  0  0  0  0  0  0  0  0  0
    1.1775   -2.8122    0.6012 C   0  0  0  0  0  0  0  0  0  0  0  0
    1.8585   -2.1769    0.0456 H   0  0  0  0  0  0  0  0  0  0  0  0
    1.3561   -4.1585    0.8524 N   0  0  0  0  0  0  0  0  0  0  0  0
    2.1483   -4.6873    0.5177 H   0  0  0  0  0  0  0  0  0  0  0  0
    0.3306   -4.6726    1.6171 C   0  0  0  0  0  0  0  0  0  0  0  0
    0.0757   -5.9457    2.1468 C   0  0  0  0  0  0  0  0  0  0  0  0
    0.7632   -6.7598    1.9702 H   0  0  0  0  0  0  0  0  0  0  0  0
   -1.0877   -6.1478    2.9089 C   0  0  0  0  0  0  0  0  0  0  0  0
   -1.3014   -7.1232    3.3245 H   0  0  0  0  0  0  0  0  0  0  0  0
   -1.9782   -5.0803    3.1251 C   0  0  0  0  0  0  0  0  0  0  0  0
   -2.8762   -5.2422    3.7051 H   0  0  0  0  0  0  0  0  0  0  0  0
   -1.7128   -3.8053    2.5862 C   0  0  0  0  0  0  0  0  0  0  0  0
   -2.4119   -2.9973    2.7487 H   0  0  0  0  0  0  0  0  0  0  0  0
   -0.5500   -3.5684    1.8216 C   0  0  0  0  0  0  0  0  0  0  0  0
   -0.5629   -0.6932   -1.3656 C   0  0  0  0  0  0  0  0  0  0  0  0
   -1.0950   -0.3851   -2.4312 O   0  0  0  0  0  0  0  0  0  0  0  0
    0.7105   -1.1027   -1.2881 N   0  0  0  0  0  0  0  0  0  0  0  0
    1.0555   -1.3891   -0.3830 H   0  0  0  0  0  0  0  0  0  0  0  0
    1.6050   -1.2267   -2.4356 C   0  0  0  0  0  0  0  0  0  0  0  0
    1.6063   -0.2946   -3.0038 H   0  0  0  0  0  0  0  0  0  0  0  0
    2.6191   -1.4462   -2.0993 H   0  0  0  0  0  0  0  0  0  0  0  0
    1.2573   -2.0319   -3.0850 H   0  0  0  0  0  0  0  0  0  0  0  0
  5  6  2  0  0  0  0
  5  7  1  0  0  0  0
  2  3  1  0  0  0  0
  2  4  1  0  0  0  0
  2  5  1  0  0  0  0
  1  2  1  0  0  0  0
 29 30  2  0  0  0  0
 29 31  1  0  0  0  0
 26 27  1  0  0  0  0
 26 28  2  0  0  0  0
 24 25  1  0  0  0  0
 24 26  1  0  0  0  0
 22 23  1  0  0  0  0
 22 24  2  0  0  0  0
 20 21  1  0  0  0  0
 20 22  1  0  0  0  0
 19 20  2  0  0  0  0
 19 28  1  0  0  0  0
 17 18  1  0  0  0  0
 17 19  1  0  0  0  0
 15 16  1  0  0  0  0
 15 17  1  0  0  0  0
 14 15  2  0  0  0  0
 14 28  1  0  0  0  0
 11 12  1  0  0  0  0
 11 13  1  0  0  0  0
 11 14  1  0  0  0  0
  9 10  1  0  0  0  0
  9 11  1  0  0  0  0
  9 29  1  0  0  0  0
  7  8  1  0  0  0  0
  7  9  1  0  0  0  0
 33 34  1  0  0  0  0
 33 35  1  0  0  0  0
 33 36  1  0  0  0  0
 31 32  1  0  0  0  0
 31 33  1  0  0  0  0
M  END
$$$$
default_name
  -OEChem-12212115393D

 36 37  0     1  0  0  0  0  0999 V2000
   -4.0843   -4.0736    1.2944 H   0  0  0  0  0  0  0  0  0  0  0  0
   -4.0342   -3.2816    0.5484 C   0  0  0  0  0  0  0  0  0  0  0  0
   -4.8842   -2.6126    0.6694 H   0  0  0  0  0  0  0  0  0  0  0  0
   -4.0433   -3.7186   -0.4486 H   0  0  0  0  0  0  0  0  0  0  0  0
   -2.7532   -2.5046    0.7444 C   0  0  0  0  0  0  0  0  0  0  0  0
   -1.9803   -2.8096    1.6434 O   0  0  0  0  0  0  0  0  0  0  0  0
   -2.5332   -1.4966   -0.0966 N   0  0  0  0  0  0  0  0  0  0  0  0
   -3.2312   -1.2816   -0.7936 H   0  0  0  0  0  0  0  0  0  0  0  0
   -1.3593   -0.6196   -0.0536 C   0  0  1  0  0  0  0  0  0  0  0  0
   -1.6969    0.4103    0.0678 H   0  0  0  0  0  0  0  0  0  0  0  0
   -0.4905   -0.9856    1.1601 C   0  0  0  0  0  0  0  0  0  0  0  0
    0.3666   -0.3107    1.1954 H   0  0  0  0  0  0  0  0  0  0  0  0
   -1.0754   -0.8241    2.0672 H   0  0  0  0  0  0  0  0  0  0  0  0
    0.0264   -2.3922    1.1724 C   0  0  0  0  0  0  0  0  0  0  0  0
    1.1775   -2.8122    0.6012 C   0  0  0  0  0  0  0  0  0  0  0  0
    1.8585   -2.1769    0.0456 H   0  0  0  0  0  0  0  0  0  0  0  0
    1.3561   -4.1585    0.8524 N   0  0  0  0  0  0  0  0  0  0  0  0
    2.1483   -4.6873    0.5177 H   0  0  0  0  0  0  0  0  0  0  0  0
    0.3306   -4.6726    1.6171 C   0  0  0  0  0  0  0  0  0  0  0  0
    0.0757   -5.9457    2.1468 C   0  0  0  0  0  0  0  0  0  0  0  0
    0.7632   -6.7598    1.9702 H   0  0  0  0  0  0  0  0  0  0  0  0
   -1.0877   -6.1478    2.9089 C   0  0  0  0  0  0  0  0  0  0  0  0
   -1.3014   -7.1232    3.3245 H   0  0  0  0  0  0  0  0  0  0  0  0
   -1.9782   -5.0803    3.1251 C   0  0  0  0  0  0  0  0  0  0  0  0
   -2.8762   -5.2422    3.7051 H   0  0  0  0  0  0  0  0  0  0  0  0
   -1.7128   -3.8053    2.5862 C   0  0  0  0  0  0  0  0  0  0  0  0
   -2.4119   -2.9973    2.7487 H   0  0  0  0  0  0  0  0  0  0  0  0
   -0.5500   -3.5684    1.8216 C   0  0  0  0  0  0  0  0  0  0  0  0
   -0.5629   -0.6932   -1.3656 C   0  0  0  0  0  0  0  0  0  0  0  0
   -0.9847   -0.1360   -2.3782 O   0  0  0  0  0  0  0  0  0  0  0  0
    0.5864   -1.3815   -1.3478 N   0  0  0  0  0  0  0  0  0  0  0  0
    0.8350   -1.8549   -0.4908 H   0  0  0  0  0  0  0  0  0  0  0  0
    1.4629   -1.5475   -2.5039 C   0  0  0  0  0  0  0  0  0  0  0  0
    1.6850   -0.5719   -2.9405 H   0  0  0  0  0  0  0  0  0  0  0  0
    2.3942   -2.0291   -2.2032 H   0  0  0  0  0  0  0  0  0  0  0  0
    0.9644   -2.1619   -3.2555 H   0  0  0  0  0  0  0  0  0  0  0  0
  5  6  2  0  0  0  0
  5  7  1  0  0  0  0
  2  3  1  0  0  0  0
  2  4  1  0  0  0  0
  2  5  1  0  0  0  0
  1  2  1  0  0  0  0
 29 30  2  0  0  0  0
 29 31  1  0  0  0  0
 26 27  1  0  0  0  0
 26 28  2  0  0  0  0
 24 25  1  0  0  0  0
 24 26  1  0  0  0  0
 22 23  1  0  0  0  0
 22 24  2  0  0  0  0
 20 21  1  0  0  0  0
 20 22  1  0  0  0  0
 19 20  2  0  0  0  0
 19 28  1  0  0  0  0
 17 18  1  0  0  0  0
 17 19  1  0  0  0  0
 15 16  1  0  0  0  0
 15 17  1  0  0  0  0
 14 15  2  0  0  0  0
 14 28  1  0  0  0  0
 11 12  1  0  0  0  0
 11 13  1  0  0  0  0
 11 14  1  0  0  0  0
  9 10  1  0  0  0  0
  9 11  1  0  0  0  0
  9 29  1  0  0  0  0
  7  8  1  0  0  0  0
  7  9  1  0  0  0  0
 33 34  1  0  0  0  0
 33 35  1  0  0  0  0
 33 36  1  0  0  0  0
 31 32  1  0  0  0  0
 31 33  1  0  0  0  0
M  END
$$$$
default_name
  -OEChem-12212115393D

 36 37  0     1  0  0  0  0  0999 V2000
   -4.0843   -4.0736    1.2944 H   0  0  0  0  0  0  0  0  0  0  0  0
   -4.0342   -3.2816    0.5484 C   0  0  0  0  0  0  0  0  0  0  0  0
   -4.8842   -2.6126    0.6694 H   0  0  0  0  0  0  0  0  0  0  0  0
   -4.0433   -3.7186   -0.4486 H   0  0  0  0  0  0  0  0  0  0  0  0
   -2.7532   -2.5046    0.7444 C   0  0  0  0  0  0  0  0  0  0  0  0
   -1.9803   -2.8096    1.6434 O   0  0  0  0  0  0  0  0  0  0  0  0
   -2.5332   -1.4966   -0.0966 N   0  0  0  0  0  0  0  0  0  0  0  0
   -3.2312   -1.2816   -0.7936 H   0  0  0  0  0  0  0  0  0  0  0  0
   -1.3593   -0.6196   -0.0536 C   0  0  1  0  0  0  0  0  0  0  0  0
   -1.6969    0.4103    0.0678 H   0  0  0  0  0  0  0  0  0  0  0  0
   -0.4905   -0.9856    1.1601 C   0  0  0  0  0  0  0  0  0  0  0  0
    0.3666   -0.3107    1.1954 H   0  0  0  0  0  0  0  0  0  0  0  0
   -1.0754   -0.8241    2.0672 H   0  0  0  0  0  0  0  0  0  0  0  0
    0.0264   -2.3922    1.1724 C   0  0  0  0  0  0  0  0  0  0  0  0
    1.1775   -2.8122    0.6012 C   0  0  0  0  0  0  0  0  0  0  0  0
    1.8585   -2.1769    0.0456 H   0  0  0  0  0  0  0  0  0  0  0  0
    1.3561   -4.1585    0.8524 N   0  0  0  0  0  0  0  0  0  0  0  0
    2.1483   -4.6873    0.5177 H   0  0  0  0  0  0  0  0  0  0  0  0
    0.3306   -4.6726    1.6171 C   0  0  0  0  0  0  0  0  0  0  0  0
    0.0757   -5.9457    2.1468 C   0  0  0  0  0  0  0  0  0  0  0  0
    0.7632   -6.7598    1.9702 H   0  0  0  0  0  0  0  0  0  0  0  0
   -1.0877   -6.1478    2.9089 C   0  0  0  0  0  0  0  0  0  0  0  0
   -1.3014   -7.1232    3.3245 H   0  0  0  0  0  0  0  0  0  0  0  0
   -1.9782   -5.0803    3.1251 C   0  0  0  0  0  0  0  0  0  0  0  0
   -2.8762   -5.2422    3.7051 H   0  0  0  0  0  0  0  0  0  0  0  0
   -1.7128   -3.8053    2.5862 C   0  0  0  0  0  0  0  0  0  0  0  0
   -2.4119   -2.9973    2.7487 H   0  0  0  0  0  0  0  0  0  0  0  0
   -0.5500   -3.5684    1.8216 C   0  0  0  0  0  0  0  0  0  0  0  0
   -0.5629   -0.6932   -1.3656 C   0  0  0  0  0  0  0  0  0  0  0  0
   -0.8237    0.0730   -2.2922 O   0  0  0  0  0  0  0  0  0  0  0  0
    0.4058   -1.6155   -1.4443 N   0  0  0  0  0  0  0  0  0  0  0  0
    0.5203   -2.2416   -0.6600 H   0  0  0  0  0  0  0  0  0  0  0  0
    1.2556   -1.8167   -2.6147 C   0  0  0  0  0  0  0  0  0  0  0  0
    1.6990   -0.8656   -2.9156 H   0  0  0  0  0  0  0  0  0  0  0  0
    2.0494   -2.5285   -2.3845 H   0  0  0  0  0  0  0  0  0  0  0  0
    0.6549   -2.1999   -3.4412 H   0  0  0  0  0  0  0  0  0  0  0  0
  5  6  2  0  0  0  0
  5  7  1  0  0  0  0
  2  3  1  0  0  0  0
  2  4  1  0  0  0  0
  2  5  1  0  0  0  0
  1  2  1  0  0  0  0
 29 30  2  0  0  0  0
 29 31  1  0  0  0  0
 26 27  1  0  0  0  0
 26 28  2  0  0  0  0
 24 25  1  0  0  0  0
 24 26  1  0  0  0  0
 22 23  1  0  0  0  0
 22 24  2  0  0  0  0
 20 21  1  0  0  0  0
 20 22  1  0  0  0  0
 19 20  2  0  0  0  0
 19 28  1  0  0  0  0
 17 18  1  0  0  0  0
 17 19  1  0  0  0  0
 15 16  1  0  0  0  0
 15 17  1  0  0  0  0
 14 15  2  0  0  0  0
 14 28  1  0  0  0  0
 11 12  1  0  0  0  0
 11 13  1  0  0  0  0
 11 14  1  0  0  0  0
  9 10  1  0  0  0  0
  9 11  1  0  0  0  0
  9 29  1  0  0  0  0
  7  8  1  0  0  0  0
  7  9  1  0  0  0  0
 33 34  1  0  0  0  0
 33 35  1  0  0  0  0
 33 36  1  0  0  0  0
 31 32  1  0  0  0  0
 31 33  1  0  0  0  0
M  END
$$$$
default_name
  -OEChem-12212115393D

 36 37  0     1  0  0  0  0  0999 V2000
   -4.0843   -4.0736    1.2944 H   0  0  0  0  0  0  0  0  0  0  0  0
   -4.0342   -3.2816    0.5484 C   0  0  0  0  0  0  0  0  0  0  0  0
   -4.8842   -2.6126    0.6694 H   0  0  0  0  0  0  0  0  0  0  0  0
   -4.0433   -3.7186   -0.4486 H   0  0  0  0  0  0  0  0  0  0  0  0
   -2.7532   -2.5046    0.7444 C   0  0  0  0  0  0  0  0  0  0  0  0
   -1.9803   -2.8096    1.6434 O   0  0  0  0  0  0  0  0  0  0  0  0
   -2.5332   -1.4966   -0.0966 N   0  0  0  0  0  0  0  0  0  0  0  0
   -3.2312   -1.2816   -0.7936 H   0  0  0  0  0  0  0  0  0  0  0  0
   -1.3593   -0.6196   -0.0536 C   0  0  1  0  0  0  0  0  0  0  0  0
   -1.6969    0.4103    0.0678 H   0  0  0  0  0  0  0  0  0  0  0  0
   -0.4905   -0.9856    1.1601 C   0  0  0  0  0  0  0  0  0  0  0  0
    0.3666   -0.3107    1.1954 H   0  0  0  0  0  0  0  0  0  0  0  0
   -1.0754   -0.8241    2.0672 H   0  0  0  0  0  0  0  0  0  0  0  0
    0.0264   -2.3922    1.1724 C   0  0  0  0  0  0  0  0  0  0  0  0
    1.1775   -2.8122    0.6012 C   0  0  0  0  0  0  0  0  0  0  0  0
    1.8585   -2.1769    0.0456 H   0  0  0  0  0  0  0  0  0  0  0  0
    1.3561   -4.1585    0.8524 N   0  0  0  0  0  0  0  0  0  0  0  0
    2.1483   -4.6873    0.5177 H   0  0  0  0  0  0  0  0  0  0  0  0
    0.3306   -4.6726    1.6171 C   0  0  0  0  0  0  0  0  0  0  0  0
    0.0757   -5.9457    2.1468 C   0  0  0  0  0  0  0  0  0  0  0  0
    0.7632   -6.7598    1.9702 H   0  0  0  0  0  0  0  0  0  0  0  0
   -1.0877   -6.1478    2.9089 C   0  0  0  0  0  0  0  0  0  0  0  0
   -1.3014   -7.1232    3.3245 H   0  0  0  0  0  0  0  0  0  0  0  0
   -1.9782   -5.0803    3.1251 C   0  0  0  0  0  0  0  0  0  0  0  0
   -2.8762   -5.2422    3.7051 H   0  0  0  0  0  0  0  0  0  0  0  0
   -1.7128   -3.8053    2.5862 C   0  0  0  0  0  0  0  0  0  0  0  0
   -2.4119   -2.9973    2.7487 H   0  0  0  0  0  0  0  0  0  0  0  0
   -0.5500   -3.5684    1.8216 C   0  0  0  0  0  0  0  0  0  0  0  0
   -0.5629   -0.6932   -1.3656 C   0  0  0  0  0  0  0  0  0  0  0  0
   -0.6231    0.2278   -2.1791 O   0  0  0  0  0  0  0  0  0  0  0  0
    0.1807   -1.7886   -1.5712 N   0  0  0  0  0  0  0  0  0  0  0  0
    0.1331   -2.5230   -0.8793 H   0  0  0  0  0  0  0  0  0  0  0  0
    0.9972   -2.0161   -2.7603 C   0  0  0  0  0  0  0  0  0  0  0  0
    1.6472   -1.1558   -2.9307 H   0  0  0  0  0  0  0  0  0  0  0  0
    1.6082   -2.9104   -2.6309 H   0  0  0  0  0  0  0  0  0  0  0  0
    0.3499   -2.1433   -3.6296 H   0  0  0  0  0  0  0  0  0  0  0  0
  5  6  2  0  0  0  0
  5  7  1  0  0  0  0
  2  3  1  0  0  0  0
  2  4  1  0  0  0  0
  2  5  1  0  0  0  0
  1  2  1  0  0  0  0
 29 30  2  0  0  0  0
 29 31  1  0  0  0  0
 26 27  1  0  0  0  0
 26 28  2  0  0  0  0
 24 25  1  0  0  0  0
 24 26  1  0  0  0  0
 22 23  1  0  0  0  0
 22 24  2  0  0  0  0
 20 21  1  0  0  0  0
 20 22  1  0  0  0  0
 19 20  2  0  0  0  0
 19 28  1  0  0  0  0
 17 18  1  0  0  0  0
 17 19  1  0  0  0  0
 15 16  1  0  0  0  0
 15 17  1  0  0  0  0
 14 15  2  0  0  0  0
 14 28  1  0  0  0  0
 11 12  1  0  0  0  0
 11 13  1  0  0  0  0
 11 14  1  0  0  0  0
  9 10  1  0  0  0  0
  9 11  1  0  0  0  0
  9 29  1  0  0  0  0
  7  8  1  0  0  0  0
  7  9  1  0  0  0  0
 33 34  1  0  0  0  0
 33 35  1  0  0  0  0
 33 36  1  0  0  0  0
 31 32  1  0  0  0  0
 31 33  1  0  0  0  0
M  END
$$$$
default_name
  -OEChem-12212115393D

 36 37  0     1  0  0  0  0  0999 V2000
   -4.0843   -4.0736    1.2944 H   0  0  0  0  0  0  0  0  0  0  0  0
   -4.0342   -3.2816    0.5484 C   0  0  0  0  0  0  0  0  0  0  0  0
   -4.8842   -2.6126    0.6694 H   0  0  0  0  0  0  0  0  0  0  0  0
   -4.0433   -3.7186   -0.4486 H   0  0  0  0  0  0  0  0  0  0  0  0
   -2.7532   -2.5046    0.7444 C   0  0  0  0  0  0  0  0  0  0  0  0
   -1.9803   -2.8096    1.6434 O   0  0  0  0  0  0  0  0  0  0  0  0
   -2.5332   -1.4966   -0.0966 N   0  0  0  0  0  0  0  0  0  0  0  0
   -3.2312   -1.2816   -0.7936 H   0  0  0  0  0  0  0  0  0  0  0  0
   -1.3593   -0.6196   -0.0536 C   0  0  1  0  0  0  0  0  0  0  0  0
   -1.6969    0.4103    0.0678 H   0  0  0  0  0  0  0  0  0  0  0  0
   -0.4905   -0.9856    1.1601 C   0  0  0  0  0  0  0  0  0  0  0  0
    0.3666   -0.3107    1.1954 H   0  0  0  0  0  0  0  0  0  0  0  0
   -1.0754   -0.8241    2.0672 H   0  0  0  0  0  0  0  0  0  0  0  0
    0.0264   -2.3922    1.1724 C   0  0  0  0  0  0  0  0  0  0  0  0
    1.1775   -2.8122    0.6012 C   0  0  0  0  0  0  0  0  0  0  0  0
    1.8585   -2.1769    0.0456 H   0  0  0  0  0  0  0  0  0  0  0  0
    1.3561   -4.1585    0.8524 N   0  0  0  0  0  0  0  0  0  0  0  0
    2.1483   -4.6873    0.5177 H   0  0  0  0  0  0  0  0  0  0  0  0
    0.3306   -4.6726    1.6171 C   0  0  0  0  0  0  0  0  0  0  0  0
    0.0757   -5.9457    2.1468 C   0  0  0  0  0  0  0  0  0  0  0  0
    0.7632   -6.7598    1.9702 H   0  0  0  0  0  0  0  0  0  0  0  0
   -1.0877   -6.1478    2.9089 C   0  0  0  0  0  0  0  0  0  0  0  0
   -1.3014   -7.1232    3.3245 H   0  0  0  0  0  0  0  0  0  0  0  0
   -1.9782   -5.0803    3.1251 C   0  0  0  0  0  0  0  0  0  0  0  0
   -2.8762   -5.2422    3.7051 H   0  0  0  0  0  0  0  0  0  0  0  0
   -1.7128   -3.8053    2.5862 C   0  0  0  0  0  0  0  0  0  0  0  0
   -2.4119   -2.9973    2.7487 H   0  0  0  0  0  0  0  0  0  0  0  0
   -0.5500   -3.5684    1.8216 C   0  0  0  0  0  0  0  0  0  0  0  0
   -0.5629   -0.6932   -1.3656 C   0  0  0  0  0  0  0  0  0  0  0  0
   -0.3965    0.3179   -2.0466 O   0  0  0  0  0  0  0  0  0  0  0  0
   -0.0733   -1.8890   -1.7198 N   0  0  0  0  0  0  0  0  0  0  0  0
   -0.3005   -2.6797   -1.1337 H   0  0  0  0  0  0  0  0  0  0  0  0
    0.7054   -2.1321   -2.9309 C   0  0  0  0  0  0  0  0  0  0  0  0
    1.5333   -1.4226   -2.9849 H   0  0  0  0  0  0  0  0  0  0  0  0
    1.1007   -3.1487   -2.9255 H   0  0  0  0  0  0  0  0  0  0  0  0
    0.0700   -1.9960   -3.8077 H   0  0  0  0  0  0  0  0  0  0  0  0
  5  6  2  0  0  0  0
  5  7  1  0  0  0  0
  2  3  1  0  0  0  0
  2  4  1  0  0  0  0
  2  5  1  0  0  0  0
  1  2  1  0  0  0  0
 29 30  2  0  0  0  0
 29 31  1  0  0  0  0
 26 27  1  0  0  0  0
 26 28  2  0  0  0  0
 24 25  1  0  0  0  0
 24 26  1  0  0  0  0
 22 23  1  0  0  0  0
 22 24  2  0  0  0  0
 20 21  1  0  0  0  0
 20 22  1  0  0  0  0
 19 20  2  0  0  0  0
 19 28  1  0  0  0  0
 17 18  1  0  0  0  0
 17 19  1  0  0  0  0
 15 16  1  0  0  0  0
 15 17  1  0  0  0  0
 14 15  2  0  0  0  0
 14 28  1  0  0  0  0
 11 12  1  0  0  0  0
 11 13  1  0  0  0  0
 11 14  1  0  0  0  0
  9 10  1  0  0  0  0
  9 11  1  0  0  0  0
  9 29  1  0  0  0  0
  7  8  1  0  0  0  0
  7  9  1  0  0  0  0
 33 34  1  0  0  0  0
 33 35  1  0  0  0  0
 33 36  1  0  0  0  0
 31 32  1  0  0  0  0
 31 33  1  0  0  0  0
M  END
$$$$
default_name
  -OEChem-12212115393D

 36 37  0     1  0  0  0  0  0999 V2000
   -4.0843   -4.0736    1.2944 H   0  0  0  0  0  0  0  0  0  0  0  0
   -4.0342   -3.2816    0.5484 C   0  0  0  0  0  0  0  0  0  0  0  0
   -4.8842   -2.6126    0.6694 H   0  0  0  0  0  0  0  0  0  0  0  0
   -4.0433   -3.7186   -0.4486 H   0  0  0  0  0  0  0  0  0  0  0  0
   -2.7532   -2.5046    0.7444 C   0  0  0  0  0  0  0  0  0  0  0  0
   -1.9803   -2.8096    1.6434 O   0  0  0  0  0  0  0  0  0  0  0  0
   -2.5332   -1.4966   -0.0966 N   0  0  0  0  0  0  0  0  0  0  0  0
   -3.2312   -1.2816   -0.7936 H   0  0  0  0  0  0  0  0  0  0  0  0
   -1.3593   -0.6196   -0.0536 C   0  0  1  0  0  0  0  0  0  0  0  0
   -1.6969    0.4103    0.0678 H   0  0  0  0  0  0  0  0  0  0  0  0
   -0.4905   -0.9856    1.1601 C   0  0  0  0  0  0  0  0  0  0  0  0
    0.3666   -0.3107    1.1954 H   0  0  0  0  0  0  0  0  0  0  0  0
   -1.0754   -0.8241    2.0672 H   0  0  0  0  0  0  0  0  0  0  0  0
    0.0264   -2.3922    1.1724 C   0  0  0  0  0  0  0  0  0  0  0  0
    1.1775   -2.8122    0.6012 C   0  0  0  0  0  0  0  0  0  0  0  0
    1.8585   -2.1769    0.0456 H   0  0  0  0  0  0  0  0  0  0  0  0
    1.3561   -4.1585    0.8524 N   0  0  0  0  0  0  0  0  0  0  0  0
    2.1483   -4.6873    0.5177 H   0  0  0  0  0  0  0  0  0  0  0  0
    0.3306   -4.6726    1.6171 C   0  0  0  0  0  0  0  0  0  0  0  0
    0.0757   -5.9457    2.1468 C   0  0  0  0  0  0  0  0  0  0  0  0
    0.7632   -6.7598    1.9702 H   0  0  0  0  0  0  0  0  0  0  0  0
   -1.0877   -6.1478    2.9089 C   0  0  0  0  0  0  0  0  0  0  0  0
   -1.3014   -7.1232    3.3245 H   0  0  0  0  0  0  0  0  0  0  0  0
   -1.9782   -5.0803    3.1251 C   0  0  0  0  0  0  0  0  0  0  0  0
   -2.8762   -5.2422    3.7051 H   0  0  0  0  0  0  0  0  0  0  0  0
   -1.7128   -3.8053    2.5862 C   0  0  0  0  0  0  0  0  0  0  0  0
   -2.4119   -2.9973    2.7487 H   0  0  0  0  0  0  0  0  0  0  0  0
   -0.5500   -3.5684    1.8216 C   0  0  0  0  0  0  0  0  0  0  0  0
   -0.5629   -0.6932   -1.3656 C   0  0  0  0  0  0  0  0  0  0  0  0
   -0.1593    0.3370   -1.9037 O   0  0  0  0  0  0  0  0  0  0  0  0
   -0.3391   -1.9100   -1.8799 N   0  0  0  0  0  0  0  0  0  0  0  0
   -0.7507   -2.7012   -1.4058 H   0  0  0  0  0  0  0  0  0  0  0  0
    0.4000   -2.1568   -3.1149 C   0  0  0  0  0  0  0  0  0  0  0  0
    1.3649   -1.6479   -3.0745 H   0  0  0  0  0  0  0  0  0  0  0  0
    0.5615   -3.2272   -3.2484 H   0  0  0  0  0  0  0  0  0  0  0  0
   -0.1655   -1.7679   -3.9634 H   0  0  0  0  0  0  0  0  0  0  0  0
  5  6  2  0  0  0  0
  5  7  1  0  0  0  0
  2  3  1  0  0  0  0
  2  4  1  0  0  0  0
  2  5  1  0  0  0  0
  1  2  1  0  0  0  0
 29 30  2  0  0  0  0
 29 31  1  0  0  0  0
 26 27  1  0  0  0  0
 26 28  2  0  0  0  0
 24 25  1  0  0  0  0
 24 26  1  0  0  0  0
 22 23  1  0  0  0  0
 22 24  2  0  0  0  0
 20 21  1  0  0  0  0
 20 22  1  0  0  0  0
 19 20  2  0  0  0  0
 19 28  1  0  0  0  0
 17 18  1  0  0  0  0
 17 19  1  0  0  0  0
 15 16  1  0  0  0  0
 15 17  1  0  0  0  0
 14 15  2  0  0  0  0
 14 28  1  0  0  0  0
 11 12  1  0  0  0  0
 11 13  1  0  0  0  0
 11 14  1  0  0  0  0
  9 10  1  0  0  0  0
  9 11  1  0  0  0  0
  9 29  1  0  0  0  0
  7  8  1  0  0  0  0
  7  9  1  0  0  0  0
 33 34  1  0  0  0  0
 33 35  1  0  0  0  0
 33 36  1  0  0  0  0
 31 32  1  0  0  0  0
 31 33  1  0  0  0  0
M  END
$$$$
default_name
  -OEChem-12212115393D

 36 37  0     1  0  0  0  0  0999 V2000
   -4.0843   -4.0736    1.2944 H   0  0  0  0  0  0  0  0  0  0  0  0
   -4.0342   -3.2816    0.5484 C   0  0  0  0  0  0  0  0  0  0  0  0
   -4.8842   -2.6126    0.6694 H   0  0  0  0  0  0  0  0  0  0  0  0
   -4.0433   -3.7186   -0.4486 H   0  0  0  0  0  0  0  0  0  0  0  0
   -2.7532   -2.5046    0.7444 C   0  0  0  0  0  0  0  0  0  0  0  0
   -1.9803   -2.8096    1.6434 O   0  0  0  0  0  0  0  0  0  0  0  0
   -2.5332   -1.4966   -0.0966 N   0  0  0  0  0  0  0  0  0  0  0  0
   -3.2312   -1.2816   -0.7936 H   0  0  0  0  0  0  0  0  0  0  0  0
   -1.3593   -0.6196   -0.0536 C   0  0  1  0  0  0  0  0  0  0  0  0
   -1.6969    0.4103    0.0678 H   0  0  0  0  0  0  0  0  0  0  0  0
   -0.4905   -0.9856    1.1601 C   0  0  0  0  0  0  0  0  0  0  0  0
    0.3666   -0.3107    1.1954 H   0  0  0  0  0  0  0  0  0  0  0  0
   -1.0754   -0.8241    2.0672 H   0  0  0  0  0  0  0  0  0  0  0  0
    0.0264   -2.3922    1.1724 C   0  0  0  0  0  0  0  0  0  0  0  0
    1.1775   -2.8122    0.6012 C   0  0  0  0  0  0  0  0  0  0  0  0
    1.8585   -2.1769    0.0456 H   0  0  0  0  0  0  0  0  0  0  0  0
    1.3561   -4.1585    0.8524 N   0  0  0  0  0  0  0  0  0  0  0  0
    2.1483   -4.6873    0.5177 H   0  0  0  0  0  0  0  0  0  0  0  0
    0.3306   -4.6726    1.6171 C   0  0  0  0  0  0  0  0  0  0  0  0
    0.0757   -5.9457    2.1468 C   0  0  0  0  0  0  0  0  0  0  0  0
    0.7632   -6.7598    1.9702 H   0  0  0  0  0  0  0  0  0  0  0  0
   -1.0877   -6.1478    2.9089 C   0  0  0  0  0  0  0  0  0  0  0  0
   -1.3014   -7.1232    3.3245 H   0  0  0  0  0  0  0  0  0  0  0  0
   -1.9782   -5.0803    3.1251 C   0  0  0  0  0  0  0  0  0  0  0  0
   -2.8762   -5.2422    3.7051 H   0  0  0  0  0  0  0  0  0  0  0  0
   -1.7128   -3.8053    2.5862 C   0  0  0  0  0  0  0  0  0  0  0  0
   -2.4119   -2.9973    2.7487 H   0  0  0  0  0  0  0  0  0  0  0  0
   -0.5500   -3.5684    1.8216 C   0  0  0  0  0  0  0  0  0  0  0  0
   -0.5629   -0.6932   -1.3656 C   0  0  0  0  0  0  0  0  0  0  0  0
    0.0722    0.2839   -1.7602 O   0  0  0  0  0  0  0  0  0  0  0  0
   -0.5984   -1.8500   -2.0407 N   0  0  0  0  0  0  0  0  0  0  0  0
   -1.1870   -2.5859   -1.6771 H   0  0  0  0  0  0  0  0  0  0  0  0
    0.1018   -2.0884   -3.2997 C   0  0  0  0  0  0  0  0  0  0  0  0
    1.1536   -1.8162   -3.1933 H   0  0  0  0  0  0  0  0  0  0  0  0
    0.0273   -3.1406   -3.5775 H   0  0  0  0  0  0  0  0  0  0  0  0
   -0.3407   -1.4747   -4.0862 H   0  0  0  0  0  0  0  0  0  0  0  0
  5  6  2  0  0  0  0
  5  7  1  0  0  0  0
  2  3  1  0  0  0  0
  2  4  1  0  0  0  0
  2  5  1  0  0  0  0
  1  2  1  0  0  0  0
 29 30  2  0  0  0  0
 29 31  1  0  0  0  0
 26 27  1  0  0  0  0
 26 28  2  0  0  0  0
 24 25  1  0  0  0  0
 24 26  1  0  0  0  0
 22 23  1  0  0  0  0
 22 24  2  0  0  0  0
 20 21  1  0  0  0  0
 20 22  1  0  0  0  0
 19 20  2  0  0  0  0
 19 28  1  0  0  0  0
 17 18  1  0  0  0  0
 17 19  1  0  0  0  0
 15 16  1  0  0  0  0
 15 17  1  0  0  0  0
 14 15  2  0  0  0  0
 14 28  1  0  0  0  0
 11 12  1  0  0  0  0
 11 13  1  0  0  0  0
 11 14  1  0  0  0  0
  9 10  1  0  0  0  0
  9 11  1  0  0  0  0
  9 29  1  0  0  0  0
  7  8  1  0  0  0  0
  7  9  1  0  0  0  0
 33 34  1  0  0  0  0
 33 35  1  0  0  0  0
 33 36  1  0  0  0  0
 31 32  1  0  0  0  0
 31 33  1  0  0  0  0
M  END
$$$$
default_name
  -OEChem-12212115393D

 36 37  0     1  0  0  0  0  0999 V2000
   -4.0843   -4.0736    1.2944 H   0  0  0  0  0  0  0  0  0  0  0  0
   -4.0342   -3.2816    0.5484 C   0  0  0  0  0  0  0  0  0  0  0  0
   -4.8842   -2.6126    0.6694 H   0  0  0  0  0  0  0  0  0  0  0  0
   -4.0433   -3.7186   -0.4486 H   0  0  0  0  0  0  0  0  0  0  0  0
   -2.7532   -2.5046    0.7444 C   0  0  0  0  0  0  0  0  0  0  0  0
   -1.9803   -2.8096    1.6434 O   0  0  0  0  0  0  0  0  0  0  0  0
   -2.5332   -1.4966   -0.0966 N   0  0  0  0  0  0  0  0  0  0  0  0
   -3.2312   -1.2816   -0.7936 H   0  0  0  0  0  0  0  0  0  0  0  0
   -1.3593   -0.6196   -0.0536 C   0  0  1  0  0  0  0  0  0  0  0  0
   -1.6969    0.4103    0.0678 H   0  0  0  0  0  0  0  0  0  0  0  0
   -0.4905   -0.9856    1.1601 C   0  0  0  0  0  0  0  0  0  0  0  0
    0.3666   -0.3107    1.1954 H   0  0  0  0  0  0  0  0  0  0  0  0
   -1.0754   -0.8241    2.0672 H   0  0  0  0  0  0  0  0  0  0  0  0
    0.0264   -2.3922    1.1724 C   0  0  0  0  0  0  0  0  0  0  0  0
    1.1775   -2.8122    0.6012 C   0  0  0  0  0  0  0  0  0  0  0  0
    1.8585   -2.1769    0.0456 H   0  0  0  0  0  0  0  0  0  0  0  0
    1.3561   -4.1585    0.8524 N   0  0  0  0  0  0  0  0  0  0  0  0
    2.1483   -4.6873    0.5177 H   0  0  0  0  0  0  0  0  0  0  0  0
    0.3306   -4.6726    1.6171 C   0  0  0  0  0  0  0  0  0  0  0  0
    0.0757   -5.9457    2.1468 C   0  0  0  0  0  0  0  0  0  0  0  0
    0.7632   -6.7598    1.9702 H   0  0  0  0  0  0  0  0  0  0  0  0
   -1.0877   -6.1478    2.9089 C   0  0  0  0  0  0  0  0  0  0  0  0
   -1.3014   -7.1232    3.3245 H   0  0  0  0  0  0  0  0  0  0  0  0
   -1.9782   -5.0803    3.1251 C   0  0  0  0  0  0  0  0  0  0  0  0
   -2.8762   -5.2422    3.7051 H   0  0  0  0  0  0  0  0  0  0  0  0
   -1.7128   -3.8053    2.5862 C   0  0  0  0  0  0  0  0  0  0  0  0
   -2.4119   -2.9973    2.7487 H   0  0  0  0  0  0  0  0  0  0  0  0
   -0.5500   -3.5684    1.8216 C   0  0  0  0  0  0  0  0  0  0  0  0
   -0.5629   -0.6932   -1.3656 C   0  0  0  0  0  0  0  0  0  0  0  0
    0.2823    0.1621   -1.6259 O   0  0  0  0  0  0  0  0  0  0  0  0
   -0.8336   -1.7132   -2.1911 N   0  0  0  0  0  0  0  0  0  0  0  0
   -1.5796   -2.3418   -1.9290 H   0  0  0  0  0  0  0  0  0  0  0  0
   -0.1688   -1.9317   -3.4728 C   0  0  0  0  0  0  0  0  0  0  0  0
    0.9138   -1.9162   -3.3332 H   0  0  0  0  0  0  0  0  0  0  0  0
   -0.4654   -2.8947   -3.8904 H   0  0  0  0  0  0  0  0  0  0  0  0
   -0.4435   -1.1363   -4.1676 H   0  0  0  0  0  0  0  0  0  0  0  0
  5  6  2  0  0  0  0
  5  7  1  0  0  0  0
  2  3  1  0  0  0  0
  2  4  1  0  0  0  0
  2  5  1  0  0  0  0
  1  2  1  0  0  0  0
 29 30  2  0  0  0  0
 29 31  1  0  0  0  0
 26 27  1  0  0  0  0
 26 28  2  0  0  0  0
 24 25  1  0  0  0  0
 24 26  1  0  0  0  0
 22 23  1  0  0  0  0
 22 24  2  0  0  0  0
 20 21  1  0  0  0  0
 20 22  1  0  0  0  0
 19 20  2  0  0  0  0
 19 28  1  0  0  0  0
 17 18  1  0  0  0  0
 17 19  1  0  0  0  0
 15 16  1  0  0  0  0
 15 17  1  0  0  0  0
 14 15  2  0  0  0  0
 14 28  1  0  0  0  0
 11 12  1  0  0  0  0
 11 13  1  0  0  0  0
 11 14  1  0  0  0  0
  9 10  1  0  0  0  0
  9 11  1  0  0  0  0
  9 29  1  0  0  0  0
  7  8  1  0  0  0  0
  7  9  1  0  0  0  0
 33 34  1  0  0  0  0
 33 35  1  0  0  0  0
 33 36  1  0  0  0  0
 31 32  1  0  0  0  0
 31 33  1  0  0  0  0
M  END
$$$$
default_name
  -OEChem-12212115393D

 36 37  0     1  0  0  0  0  0999 V2000
   -4.0843   -4.0736    1.2944 H   0  0  0  0  0  0  0  0  0  0  0  0
   -4.0342   -3.2816    0.5484 C   0  0  0  0  0  0  0  0  0  0  0  0
   -4.8842   -2.6126    0.6694 H   0  0  0  0  0  0  0  0  0  0  0  0
   -4.0433   -3.7186   -0.4486 H   0  0  0  0  0  0  0  0  0  0  0  0
   -2.7532   -2.5046    0.7444 C   0  0  0  0  0  0  0  0  0  0  0  0
   -1.9803   -2.8096    1.6434 O   0  0  0  0  0  0  0  0  0  0  0  0
   -2.5332   -1.4966   -0.0966 N   0  0  0  0  0  0  0  0  0  0  0  0
   -3.2312   -1.2816   -0.7936 H   0  0  0  0  0  0  0  0  0  0  0  0
   -1.3593   -0.6196   -0.0536 C   0  0  1  0  0  0  0  0  0  0  0  0
   -1.6969    0.4103    0.0678 H   0  0  0  0  0  0  0  0  0  0  0  0
   -0.4905   -0.9856    1.1601 C   0  0  0  0  0  0  0  0  0  0  0  0
    0.3666   -0.3107    1.1954 H   0  0  0  0  0  0  0  0  0  0  0  0
   -1.0754   -0.8241    2.0672 H   0  0  0  0  0  0  0  0  0  0  0  0
    0.0264   -2.3922    1.1724 C   0  0  0  0  0  0  0  0  0  0  0  0
    1.1775   -2.8122    0.6012 C   0  0  0  0  0  0  0  0  0  0  0  0
    1.8585   -2.1769    0.0456 H   0  0  0  0  0  0  0  0  0  0  0  0
    1.3561   -4.1585    0.8524 N   0  0  0  0  0  0  0  0  0  0  0  0
    2.1483   -4.6873    0.5177 H   0  0  0  0  0  0  0  0  0  0  0  0
    0.3306   -4.6726    1.6171 C   0  0  0  0  0  0  0  0  0  0  0  0
    0.0757   -5.9457    2.1468 C   0  0  0  0  0  0  0  0  0  0  0  0
    0.7632   -6.7598    1.9702 H   0  0  0  0  0  0  0  0  0  0  0  0
   -1.0877   -6.1478    2.9089 C   0  0  0  0  0  0  0  0  0  0  0  0
   -1.3014   -7.1232    3.3245 H   0  0  0  0  0  0  0  0  0  0  0  0
   -1.9782   -5.0803    3.1251 C   0  0  0  0  0  0  0  0  0  0  0  0
   -2.8762   -5.2422    3.7051 H   0  0  0  0  0  0  0  0  0  0  0  0
   -1.7128   -3.8053    2.5862 C   0  0  0  0  0  0  0  0  0  0  0  0
   -2.4119   -2.9973    2.7487 H   0  0  0  0  0  0  0  0  0  0  0  0
   -0.5500   -3.5684    1.8216 C   0  0  0  0  0  0  0  0  0  0  0  0
   -0.5629   -0.6932   -1.3656 C   0  0  0  0  0  0  0  0  0  0  0  0
    0.4567   -0.0199   -1.5098 O   0  0  0  0  0  0  0  0  0  0  0  0
   -1.0288   -1.5088   -2.3210 N   0  0  0  0  0  0  0  0  0  0  0  0
   -1.9017   -1.9854   -2.1445 H   0  0  0  0  0  0  0  0  0  0  0  0
   -0.3934   -1.6973   -3.6222 C   0  0  0  0  0  0  0  0  0  0  0  0
    0.6618   -1.9410   -3.4848 H   0  0  0  0  0  0  0  0  0  0  0  0
   -0.8832   -2.5063   -4.1657 H   0  0  0  0  0  0  0  0  0  0  0  0
   -0.4671   -0.7758   -4.2021 H   0  0  0  0  0  0  0  0  0  0  0  0
  5  6  2  0  0  0  0
  5  7  1  0  0  0  0
  2  3  1  0  0  0  0
  2  4  1  0  0  0  0
  2  5  1  0  0  0  0
  1  2  1  0  0  0  0
 29 30  2  0  0  0  0
 29 31  1  0  0  0  0
 26 27  1  0  0  0  0
 26 28  2  0  0  0  0
 24 25  1  0  0  0  0
 24 26  1  0  0  0  0
 22 23  1  0  0  0  0
 22 24  2  0  0  0  0
 20 21  1  0  0  0  0
 20 22  1  0  0  0  0
 19 20  2  0  0  0  0
 19 28  1  0  0  0  0
 17 18  1  0  0  0  0
 17 19  1  0  0  0  0
 15 16  1  0  0  0  0
 15 17  1  0  0  0  0
 14 15  2  0  0  0  0
 14 28  1  0  0  0  0
 11 12  1  0  0  0  0
 11 13  1  0  0  0  0
 11 14  1  0  0  0  0
  9 10  1  0  0  0  0
  9 11  1  0  0  0  0
  9 29  1  0  0  0  0
  7  8  1  0  0  0  0
  7  9  1  0  0  0  0
 33 34  1  0  0  0  0
 33 35  1  0  0  0  0
 33 36  1  0  0  0  0
 31 32  1  0  0  0  0
 31 33  1  0  0  0  0
M  END
$$$$
default_name
  -OEChem-12212115393D

 36 37  0     1  0  0  0  0  0999 V2000
   -4.0843   -4.0736    1.2944 H   0  0  0  0  0  0  0  0  0  0  0  0
   -4.0342   -3.2816    0.5484 C   0  0  0  0  0  0  0  0  0  0  0  0
   -4.8842   -2.6126    0.6694 H   0  0  0  0  0  0  0  0  0  0  0  0
   -4.0433   -3.7186   -0.4486 H   0  0  0  0  0  0  0  0  0  0  0  0
   -2.7532   -2.5046    0.7444 C   0  0  0  0  0  0  0  0  0  0  0  0
   -1.9803   -2.8096    1.6434 O   0  0  0  0  0  0  0  0  0  0  0  0
   -2.5332   -1.4966   -0.0966 N   0  0  0  0  0  0  0  0  0  0  0  0
   -3.2312   -1.2816   -0.7936 H   0  0  0  0  0  0  0  0  0  0  0  0
   -1.3593   -0.6196   -0.0536 C   0  0  1  0  0  0  0  0  0  0  0  0
   -1.6969    0.4103    0.0678 H   0  0  0  0  0  0  0  0  0  0  0  0
   -0.4905   -0.9856    1.1601 C   0  0  0  0  0  0  0  0  0  0  0  0
    0.3666   -0.3107    1.1954 H   0  0  0  0  0  0  0  0  0  0  0  0
   -1.0754   -0.8241    2.0672 H   0  0  0  0  0  0  0  0  0  0  0  0
    0.0264   -2.3922    1.1724 C   0  0  0  0  0  0  0  0  0  0  0  0
    1.1775   -2.8122    0.6012 C   0  0  0  0  0  0  0  0  0  0  0  0
    1.8585   -2.1769    0.0456 H   0  0  0  0  0  0  0  0  0  0  0  0
    1.3561   -4.1585    0.8524 N   0  0  0  0  0  0  0  0  0  0  0  0
    2.1483   -4.6873    0.5177 H   0  0  0  0  0  0  0  0  0  0  0  0
    0.3306   -4.6726    1.6171 C   0  0  0  0  0  0  0  0  0  0  0  0
    0.0757   -5.9457    2.1468 C   0  0  0  0  0  0  0  0  0  0  0  0
    0.7632   -6.7598    1.9702 H   0  0  0  0  0  0  0  0  0  0  0  0
   -1.0877   -6.1478    2.9089 C   0  0  0  0  0  0  0  0  0  0  0  0
   -1.3014   -7.1232    3.3245 H   0  0  0  0  0  0  0  0  0  0  0  0
   -1.9782   -5.0803    3.1251 C   0  0  0  0  0  0  0  0  0  0  0  0
   -2.8762   -5.2422    3.7051 H   0  0  0  0  0  0  0  0  0  0  0  0
   -1.7128   -3.8053    2.5862 C   0  0  0  0  0  0  0  0  0  0  0  0
   -2.4119   -2.9973    2.7487 H   0  0  0  0  0  0  0  0  0  0  0  0
   -0.5500   -3.5684    1.8216 C   0  0  0  0  0  0  0  0  0  0  0  0
   -0.5629   -0.6932   -1.3656 C   0  0  0  0  0  0  0  0  0  0  0  0
    0.5835   -0.2498   -1.4200 O   0  0  0  0  0  0  0  0  0  0  0  0
   -1.1705   -1.2509   -2.4215 N   0  0  0  0  0  0  0  0  0  0  0  0
   -2.1314   -1.5410   -2.3089 H   0  0  0  0  0  0  0  0  0  0  0  0
   -0.5567   -1.4012   -3.7379 C   0  0  0  0  0  0  0  0  0  0  0  0
    0.4147   -1.8890   -3.6377 H   0  0  0  0  0  0  0  0  0  0  0  0
   -1.1975   -2.0019   -4.3847 H   0  0  0  0  0  0  0  0  0  0  0  0
   -0.4098   -0.4177   -4.1874 H   0  0  0  0  0  0  0  0  0  0  0  0
  5  6  2  0  0  0  0
  5  7  1  0  0  0  0
  2  3  1  0  0  0  0
  2  4  1  0  0  0  0
  2  5  1  0  0  0  0
  1  2  1  0  0  0  0
 29 30  2  0  0  0  0
 29 31  1  0  0  0  0
 26 27  1  0  0  0  0
 26 28  2  0  0  0  0
 24 25  1  0  0  0  0
 24 26  1  0  0  0  0
 22 23  1  0  0  0  0
 22 24  2  0  0  0  0
 20 21  1  0  0  0  0
 20 22  1  0  0  0  0
 19 20  2  0  0  0  0
 19 28  1  0  0  0  0
 17 18  1  0  0  0  0
 17 19  1  0  0  0  0
 15 16  1  0  0  0  0
 15 17  1  0  0  0  0
 14 15  2  0  0  0  0
 14 28  1  0  0  0  0
 11 12  1  0  0  0  0
 11 13  1  0  0  0  0
 11 14  1  0  0  0  0
  9 10  1  0  0  0  0
  9 11  1  0  0  0  0
  9 29  1  0  0  0  0
  7  8  1  0  0  0  0
  7  9  1  0  0  0  0
 33 34  1  0  0  0  0
 33 35  1  0  0  0  0
 33 36  1  0  0  0  0
 31 32  1  0  0  0  0
 31 33  1  0  0  0  0
M  END
$$$$
default_name
  -OEChem-12212115393D

 36 37  0     1  0  0  0  0  0999 V2000
   -4.0843   -4.0736    1.2944 H   0  0  0  0  0  0  0  0  0  0  0  0
   -4.0342   -3.2816    0.5484 C   0  0  0  0  0  0  0  0  0  0  0  0
   -4.8842   -2.6126    0.6694 H   0  0  0  0  0  0  0  0  0  0  0  0
   -4.0433   -3.7186   -0.4486 H   0  0  0  0  0  0  0  0  0  0  0  0
   -2.7532   -2.5046    0.7444 C   0  0  0  0  0  0  0  0  0  0  0  0
   -1.9803   -2.8096    1.6434 O   0  0  0  0  0  0  0  0  0  0  0  0
   -2.5332   -1.4966   -0.0966 N   0  0  0  0  0  0  0  0  0  0  0  0
   -3.2312   -1.2816   -0.7936 H   0  0  0  0  0  0  0  0  0  0  0  0
   -1.3593   -0.6196   -0.0536 C   0  0  1  0  0  0  0  0  0  0  0  0
   -1.6969    0.4103    0.0678 H   0  0  0  0  0  0  0  0  0  0  0  0
   -0.4905   -0.9856    1.1601 C   0  0  0  0  0  0  0  0  0  0  0  0
    0.3666   -0.3107    1.1954 H   0  0  0  0  0  0  0  0  0  0  0  0
   -1.0754   -0.8241    2.0672 H   0  0  0  0  0  0  0  0  0  0  0  0
    0.0264   -2.3922    1.1724 C   0  0  0  0  0  0  0  0  0  0  0  0
    1.1775   -2.8122    0.6012 C   0  0  0  0  0  0  0  0  0  0  0  0
    1.8585   -2.1769    0.0456 H   0  0  0  0  0  0  0  0  0  0  0  0
    1.3561   -4.1585    0.8524 N   0  0  0  0  0  0  0  0  0  0  0  0
    2.1483   -4.6873    0.5177 H   0  0  0  0  0  0  0  0  0  0  0  0
    0.3306   -4.6726    1.6171 C   0  0  0  0  0  0  0  0  0  0  0  0
    0.0757   -5.9457    2.1468 C   0  0  0  0  0  0  0  0  0  0  0  0
    0.7632   -6.7598    1.9702 H   0  0  0  0  0  0  0  0  0  0  0  0
   -1.0877   -6.1478    2.9089 C   0  0  0  0  0  0  0  0  0  0  0  0
   -1.3014   -7.1232    3.3245 H   0  0  0  0  0  0  0  0  0  0  0  0
   -1.9782   -5.0803    3.1251 C   0  0  0  0  0  0  0  0  0  0  0  0
   -2.8762   -5.2422    3.7051 H   0  0  0  0  0  0  0  0  0  0  0  0
   -1.7128   -3.8053    2.5862 C   0  0  0  0  0  0  0  0  0  0  0  0
   -2.4119   -2.9973    2.7487 H   0  0  0  0  0  0  0  0  0  0  0  0
   -0.5500   -3.5684    1.8216 C   0  0  0  0  0  0  0  0  0  0  0  0
   -0.5629   -0.6932   -1.3656 C   0  0  0  0  0  0  0  0  0  0  0  0
    0.6540   -0.5120   -1.3625 O   0  0  0  0  0  0  0  0  0  0  0  0
   -1.2491   -0.9570   -2.4857 N   0  0  0  0  0  0  0  0  0  0  0  0
   -2.2531   -1.0390   -2.4109 H   0  0  0  0  0  0  0  0  0  0  0  0
   -0.6476   -1.0636   -3.8120 C   0  0  0  0  0  0  0  0  0  0  0  0
    0.1895   -1.7636   -3.7814 H   0  0  0  0  0  0  0  0  0  0  0  0
   -1.3868   -1.4158   -4.5325 H   0  0  0  0  0  0  0  0  0  0  0  0
   -0.2754   -0.0864   -4.1244 H   0  0  0  0  0  0  0  0  0  0  0  0
  5  6  2  0  0  0  0
  5  7  1  0  0  0  0
  2  3  1  0  0  0  0
  2  4  1  0  0  0  0
  2  5  1  0  0  0  0
  1  2  1  0  0  0  0
 29 30  2  0  0  0  0
 29 31  1  0  0  0  0
 26 27  1  0  0  0  0
 26 28  2  0  0  0  0
 24 25  1  0  0  0  0
 24 26  1  0  0  0  0
 22 23  1  0  0  0  0
 22 24  2  0  0  0  0
 20 21  1  0  0  0  0
 20 22  1  0  0  0  0
 19 20  2  0  0  0  0
 19 28  1  0  0  0  0
 17 18  1  0  0  0  0
 17 19  1  0  0  0  0
 15 16  1  0  0  0  0
 15 17  1  0  0  0  0
 14 15  2  0  0  0  0
 14 28  1  0  0  0  0
 11 12  1  0  0  0  0
 11 13  1  0  0  0  0
 11 14  1  0  0  0  0
  9 10  1  0  0  0  0
  9 11  1  0  0  0  0
  9 29  1  0  0  0  0
  7  8  1  0  0  0  0
  7  9  1  0  0  0  0
 33 34  1  0  0  0  0
 33 35  1  0  0  0  0
 33 36  1  0  0  0  0
 31 32  1  0  0  0  0
 31 33  1  0  0  0  0
M  END
$$$$
default_name
  -OEChem-12212115393D

 36 37  0     1  0  0  0  0  0999 V2000
   -4.0843   -4.0736    1.2944 H   0  0  0  0  0  0  0  0  0  0  0  0
   -4.0342   -3.2816    0.5484 C   0  0  0  0  0  0  0  0  0  0  0  0
   -4.8842   -2.6126    0.6694 H   0  0  0  0  0  0  0  0  0  0  0  0
   -4.0433   -3.7186   -0.4486 H   0  0  0  0  0  0  0  0  0  0  0  0
   -2.7532   -2.5046    0.7444 C   0  0  0  0  0  0  0  0  0  0  0  0
   -1.9803   -2.8096    1.6434 O   0  0  0  0  0  0  0  0  0  0  0  0
   -2.5332   -1.4966   -0.0966 N   0  0  0  0  0  0  0  0  0  0  0  0
   -3.2312   -1.2816   -0.7936 H   0  0  0  0  0  0  0  0  0  0  0  0
   -1.3593   -0.6196   -0.0536 C   0  0  1  0  0  0  0  0  0  0  0  0
   -1.6969    0.4103    0.0678 H   0  0  0  0  0  0  0  0  0  0  0  0
   -0.4905   -0.9856    1.1601 C   0  0  0  0  0  0  0  0  0  0  0  0
    0.3666   -0.3107    1.1954 H   0  0  0  0  0  0  0  0  0  0  0  0
   -1.0754   -0.8241    2.0672 H   0  0  0  0  0  0  0  0  0  0  0  0
    0.0264   -2.3922    1.1724 C   0  0  0  0  0  0  0  0  0  0  0  0
    1.1775   -2.8122    0.6012 C   0  0  0  0  0  0  0  0  0  0  0  0
    1.8585   -2.1769    0.0456 H   0  0  0  0  0  0  0  0  0  0  0  0
    1.3561   -4.1585    0.8524 N   0  0  0  0  0  0  0  0  0  0  0  0
    2.1483   -4.6873    0.5177 H   0  0  0  0  0  0  0  0  0  0  0  0
    0.3306   -4.6726    1.6171 C   0  0  0  0  0  0  0  0  0  0  0  0
    0.0757   -5.9457    2.1468 C   0  0  0  0  0  0  0  0  0  0  0  0
    0.7632   -6.7598    1.9702 H   0  0  0  0  0  0  0  0  0  0  0  0
   -1.0877   -6.1478    2.9089 C   0  0  0  0  0  0  0  0  0  0  0  0
   -1.3014   -7.1232    3.3245 H   0  0  0  0  0  0  0  0  0  0  0  0
   -1.9782   -5.0803    3.1251 C   0  0  0  0  0  0  0  0  0  0  0  0
   -2.8762   -5.2422    3.7051 H   0  0  0  0  0  0  0  0  0  0  0  0
   -1.7128   -3.8053    2.5862 C   0  0  0  0  0  0  0  0  0  0  0  0
   -2.4119   -2.9973    2.7487 H   0  0  0  0  0  0  0  0  0  0  0  0
   -0.5500   -3.5684    1.8216 C   0  0  0  0  0  0  0  0  0  0  0  0
   -0.5629   -0.6932   -1.3656 C   0  0  0  0  0  0  0  0  0  0  0  0
    0.6635   -0.7885   -1.3412 O   0  0  0  0  0  0  0  0  0  0  0  0
   -1.2594   -0.6471   -2.5093 N   0  0  0  0  0  0  0  0  0  0  0  0
   -2.2584   -0.5136   -2.4435 H   0  0  0  0  0  0  0  0  0  0  0  0
   -0.6598   -0.7074   -3.8394 C   0  0  0  0  0  0  0  0  0  0  0  0
    0.0015   -1.5734   -3.9062 H   0  0  0  0  0  0  0  0  0  0  0  0
   -1.4384   -0.7881   -4.5990 H   0  0  0  0  0  0  0  0  0  0  0  0
   -0.0732    0.1954   -4.0175 H   0  0  0  0  0  0  0  0  0  0  0  0
  5  6  2  0  0  0  0
  5  7  1  0  0  0  0
  2  3  1  0  0  0  0
  2  4  1  0  0  0  0
  2  5  1  0  0  0  0
  1  2  1  0  0  0  0
 29 30  2  0  0  0  0
 29 31  1  0  0  0  0
 26 27  1  0  0  0  0
 26 28  2  0  0  0  0
 24 25  1  0  0  0  0
 24 26  1  0  0  0  0
 22 23  1  0  0  0  0
 22 24  2  0  0  0  0
 20 21  1  0  0  0  0
 20 22  1  0  0  0  0
 19 20  2  0  0  0  0
 19 28  1  0  0  0  0
 17 18  1  0  0  0  0
 17 19  1  0  0  0  0
 15 16  1  0  0  0  0
 15 17  1  0  0  0  0
 14 15  2  0  0  0  0
 14 28  1  0  0  0  0
 11 12  1  0  0  0  0
 11 13  1  0  0  0  0
 11 14  1  0  0  0  0
  9 10  1  0  0  0  0
  9 11  1  0  0  0  0
  9 29  1  0  0  0  0
  7  8  1  0  0  0  0
  7  9  1  0  0  0  0
 33 34  1  0  0  0  0
 33 35  1  0  0  0  0
 33 36  1  0  0  0  0
 31 32  1  0  0  0  0
 31 33  1  0  0  0  0
M  END
$$$$
default_name
  -OEChem-12212115393D

 36 37  0     1  0  0  0  0  0999 V2000
   -4.0843   -4.0736    1.2944 H   0  0  0  0  0  0  0  0  0  0  0  0
   -4.0342   -3.2816    0.5484 C   0  0  0  0  0  0  0  0  0  0  0  0
   -4.8842   -2.6126    0.6694 H   0  0  0  0  0  0  0  0  0  0  0  0
   -4.0433   -3.7186   -0.4486 H   0  0  0  0  0  0  0  0  0  0  0  0
   -2.7532   -2.5046    0.7444 C   0  0  0  0  0  0  0  0  0  0  0  0
   -1.9803   -2.8096    1.6434 O   0  0  0  0  0  0  0  0  0  0  0  0
   -2.5332   -1.4966   -0.0966 N   0  0  0  0  0  0  0  0  0  0  0  0
   -3.2312   -1.2816   -0.7936 H   0  0  0  0  0  0  0  0  0  0  0  0
   -1.3593   -0.6196   -0.0536 C   0  0  1  0  0  0  0  0  0  0  0  0
   -1.6969    0.4103    0.0678 H   0  0  0  0  0  0  0  0  0  0  0  0
   -0.4905   -0.9856    1.1601 C   0  0  0  0  0  0  0  0  0  0  0  0
    0.3666   -0.3107    1.1954 H   0  0  0  0  0  0  0  0  0  0  0  0
   -1.0754   -0.8241    2.0672 H   0  0  0  0  0  0  0  0  0  0  0  0
    0.0264   -2.3922    1.1724 C   0  0  0  0  0  0  0  0  0  0  0  0
    1.1775   -2.8122    0.6012 C   0  0  0  0  0  0  0  0  0  0  0  0
    1.8585   -2.1769    0.0456 H   0  0  0  0  0  0  0  0  0  0  0  0
    1.3561   -4.1585    0.8524 N   0  0  0  0  0  0  0  0  0  0  0  0
    2.1483   -4.6873    0.5177 H   0  0  0  0  0  0  0  0  0  0  0  0
    0.3306   -4.6726    1.6171 C   0  0  0  0  0  0  0  0  0  0  0  0
    0.0757   -5.9457    2.1468 C   0  0  0  0  0  0  0  0  0  0  0  0
    0.7632   -6.7598    1.9702 H   0  0  0  0  0  0  0  0  0  0  0  0
   -1.0877   -6.1478    2.9089 C   0  0  0  0  0  0  0  0  0  0  0  0
   -1.3014   -7.1232    3.3245 H   0  0  0  0  0  0  0  0  0  0  0  0
   -1.9782   -5.0803    3.1251 C   0  0  0  0  0  0  0  0  0  0  0  0
   -2.8762   -5.2422    3.7051 H   0  0  0  0  0  0  0  0  0  0  0  0
   -1.7128   -3.8053    2.5862 C   0  0  0  0  0  0  0  0  0  0  0  0
   -2.4119   -2.9973    2.7487 H   0  0  0  0  0  0  0  0  0  0  0  0
   -0.5500   -3.5684    1.8216 C   0  0  0  0  0  0  0  0  0  0  0  0
   -0.5629   -0.6932   -1.3656 C   0  0  0  0  0  0  0  0  0  0  0  0
    0.6112   -1.0606   -1.3577 O   0  0  0  0  0  0  0  0  0  0  0  0
   -1.2004   -0.3424   -2.4906 N   0  0  0  0  0  0  0  0  0  0  0  0
   -2.1470   -0.0004   -2.4047 H   0  0  0  0  0  0  0  0  0  0  0  0
   -0.5926   -0.3571   -3.8182 C   0  0  0  0  0  0  0  0  0  0  0  0
   -0.1366   -1.3315   -4.0036 H   0  0  0  0  0  0  0  0  0  0  0  0
   -1.3487   -0.1614   -4.5797 H   0  0  0  0  0  0  0  0  0  0  0  0
    0.1830    0.4086   -3.8739 H   0  0  0  0  0  0  0  0  0  0  0  0
  5  6  2  0  0  0  0
  5  7  1  0  0  0  0
  2  3  1  0  0  0  0
  2  4  1  0  0  0  0
  2  5  1  0  0  0  0
  1  2  1  0  0  0  0
 29 30  2  0  0  0  0
 29 31  1  0  0  0  0
 26 27  1  0  0  0  0
 26 28  2  0  0  0  0
 24 25  1  0  0  0  0
 24 26  1  0  0  0  0
 22 23  1  0  0  0  0
 22 24  2  0  0  0  0
 20 21  1  0  0  0  0
 20 22  1  0  0  0  0
 19 20  2  0  0  0  0
 19 28  1  0  0  0  0
 17 18  1  0  0  0  0
 17 19  1  0  0  0  0
 15 16  1  0  0  0  0
 15 17  1  0  0  0  0
 14 15  2  0  0  0  0
 14 28  1  0  0  0  0
 11 12  1  0  0  0  0
 11 13  1  0  0  0  0
 11 14  1  0  0  0  0
  9 10  1  0  0  0  0
  9 11  1  0  0  0  0
  9 29  1  0  0  0  0
  7  8  1  0  0  0  0
  7  9  1  0  0  0  0
 33 34  1  0  0  0  0
 33 35  1  0  0  0  0
 33 36  1  0  0  0  0
 31 32  1  0  0  0  0
 31 33  1  0  0  0  0
M  END
$$$$
default_name
  -OEChem-12212115393D

 36 37  0     1  0  0  0  0  0999 V2000
   -4.0843   -4.0736    1.2944 H   0  0  0  0  0  0  0  0  0  0  0  0
   -4.0342   -3.2816    0.5484 C   0  0  0  0  0  0  0  0  0  0  0  0
   -4.8842   -2.6126    0.6694 H   0  0  0  0  0  0  0  0  0  0  0  0
   -4.0433   -3.7186   -0.4486 H   0  0  0  0  0  0  0  0  0  0  0  0
   -2.7532   -2.5046    0.7444 C   0  0  0  0  0  0  0  0  0  0  0  0
   -1.9803   -2.8096    1.6434 O   0  0  0  0  0  0  0  0  0  0  0  0
   -2.5332   -1.4966   -0.0966 N   0  0  0  0  0  0  0  0  0  0  0  0
   -3.2312   -1.2816   -0.7936 H   0  0  0  0  0  0  0  0  0  0  0  0
   -1.3593   -0.6196   -0.0536 C   0  0  1  0  0  0  0  0  0  0  0  0
   -1.6969    0.4103    0.0678 H   0  0  0  0  0  0  0  0  0  0  0  0
   -0.4905   -0.9856    1.1601 C   0  0  0  0  0  0  0  0  0  0  0  0
    0.3666   -0.3107    1.1954 H   0  0  0  0  0  0  0  0  0  0  0  0
   -1.0754   -0.8241    2.0672 H   0  0  0  0  0  0  0  0  0  0  0  0
    0.0264   -2.3922    1.1724 C   0  0  0  0  0  0  0  0  0  0  0  0
    1.1775   -2.8122    0.6012 C   0  0  0  0  0  0  0  0  0  0  0  0
    1.8585   -2.1769    0.0456 H   0  0  0  0  0  0  0  0  0  0  0  0
    1.3561   -4.1585    0.8524 N   0  0  0  0  0  0  0  0  0  0  0  0
    2.1483   -4.6873    0.5177 H   0  0  0  0  0  0  0  0  0  0  0  0
    0.3306   -4.6726    1.6171 C   0  0  0  0  0  0  0  0  0  0  0  0
    0.0757   -5.9457    2.1468 C   0  0  0  0  0  0  0  0  0  0  0  0
    0.7632   -6.7598    1.9702 H   0  0  0  0  0  0  0  0  0  0  0  0
   -1.0877   -6.1478    2.9089 C   0  0  0  0  0  0  0  0  0  0  0  0
   -1.3014   -7.1232    3.3245 H   0  0  0  0  0  0  0  0  0  0  0  0
   -1.9782   -5.0803    3.1251 C   0  0  0  0  0  0  0  0  0  0  0  0
   -2.8762   -5.2422    3.7051 H   0  0  0  0  0  0  0  0  0  0  0  0
   -1.7128   -3.8053    2.5862 C   0  0  0  0  0  0  0  0  0  0  0  0
   -2.4119   -2.9973    2.7487 H   0  0  0  0  0  0  0  0  0  0  0  0
   -0.5500   -3.5684    1.8216 C   0  0  0  0  0  0  0  0  0  0  0  0
   -0.5629   -0.6932   -1.3656 C   0  0  0  0  0  0  0  0  0  0  0  0
    0.5009   -1.3096   -1.4107 O   0  0  0  0  0  0  0  0  0  0  0  0
   -1.0764   -0.0635   -2.4310 N   0  0  0  0  0  0  0  0  0  0  0  0
   -1.9265    0.4654   -2.2969 H   0  0  0  0  0  0  0  0  0  0  0  0
   -0.4505   -0.0363   -3.7500 C   0  0  0  0  0  0  0  0  0  0  0  0
   -0.2153   -1.0541   -4.0669 H   0  0  0  0  0  0  0  0  0  0  0  0
   -1.1238    0.4215   -4.4758 H   0  0  0  0  0  0  0  0  0  0  0  0
    0.4759    0.5386   -3.7034 H   0  0  0  0  0  0  0  0  0  0  0  0
  5  6  2  0  0  0  0
  5  7  1  0  0  0  0
  2  3  1  0  0  0  0
  2  4  1  0  0  0  0
  2  5  1  0  0  0  0
  1  2  1  0  0  0  0
 29 30  2  0  0  0  0
 29 31  1  0  0  0  0
 26 27  1  0  0  0  0
 26 28  2  0  0  0  0
 24 25  1  0  0  0  0
 24 26  1  0  0  0  0
 22 23  1  0  0  0  0
 22 24  2  0  0  0  0
 20 21  1  0  0  0  0
 20 22  1  0  0  0  0
 19 20  2  0  0  0  0
 19 28  1  0  0  0  0
 17 18  1  0  0  0  0
 17 19  1  0  0  0  0
 15 16  1  0  0  0  0
 15 17  1  0  0  0  0
 14 15  2  0  0  0  0
 14 28  1  0  0  0  0
 11 12  1  0  0  0  0
 11 13  1  0  0  0  0
 11 14  1  0  0  0  0
  9 10  1  0  0  0  0
  9 11  1  0  0  0  0
  9 29  1  0  0  0  0
  7  8  1  0  0  0  0
  7  9  1  0  0  0  0
 33 34  1  0  0  0  0
 33 35  1  0  0  0  0
 33 36  1  0  0  0  0
 31 32  1  0  0  0  0
 31 33  1  0  0  0  0
M  END
$$$$
default_name
  -OEChem-12212115393D

 36 37  0     1  0  0  0  0  0999 V2000
   -4.0843   -4.0736    1.2944 H   0  0  0  0  0  0  0  0  0  0  0  0
   -4.0342   -3.2816    0.5484 C   0  0  0  0  0  0  0  0  0  0  0  0
   -4.8842   -2.6126    0.6694 H   0  0  0  0  0  0  0  0  0  0  0  0
   -4.0433   -3.7186   -0.4486 H   0  0  0  0  0  0  0  0  0  0  0  0
   -2.7532   -2.5046    0.7444 C   0  0  0  0  0  0  0  0  0  0  0  0
   -1.9803   -2.8096    1.6434 O   0  0  0  0  0  0  0  0  0  0  0  0
   -2.5332   -1.4966   -0.0966 N   0  0  0  0  0  0  0  0  0  0  0  0
   -3.2312   -1.2816   -0.7936 H   0  0  0  0  0  0  0  0  0  0  0  0
   -1.3593   -0.6196   -0.0536 C   0  0  1  0  0  0  0  0  0  0  0  0
   -1.6969    0.4103    0.0678 H   0  0  0  0  0  0  0  0  0  0  0  0
   -0.4905   -0.9856    1.1601 C   0  0  0  0  0  0  0  0  0  0  0  0
    0.3666   -0.3107    1.1954 H   0  0  0  0  0  0  0  0  0  0  0  0
   -1.0754   -0.8241    2.0672 H   0  0  0  0  0  0  0  0  0  0  0  0
    0.0264   -2.3922    1.1724 C   0  0  0  0  0  0  0  0  0  0  0  0
    1.1775   -2.8122    0.6012 C   0  0  0  0  0  0  0  0  0  0  0  0
    1.8585   -2.1769    0.0456 H   0  0  0  0  0  0  0  0  0  0  0  0
    1.3561   -4.1585    0.8524 N   0  0  0  0  0  0  0  0  0  0  0  0
    2.1483   -4.6873    0.5177 H   0  0  0  0  0  0  0  0  0  0  0  0
    0.3306   -4.6726    1.6171 C   0  0  0  0  0  0  0  0  0  0  0  0
    0.0757   -5.9457    2.1468 C   0  0  0  0  0  0  0  0  0  0  0  0
    0.7632   -6.7598    1.9702 H   0  0  0  0  0  0  0  0  0  0  0  0
   -1.0877   -6.1478    2.9089 C   0  0  0  0  0  0  0  0  0  0  0  0
   -1.3014   -7.1232    3.3245 H   0  0  0  0  0  0  0  0  0  0  0  0
   -1.9782   -5.0803    3.1251 C   0  0  0  0  0  0  0  0  0  0  0  0
   -2.8762   -5.2422    3.7051 H   0  0  0  0  0  0  0  0  0  0  0  0
   -1.7128   -3.8053    2.5862 C   0  0  0  0  0  0  0  0  0  0  0  0
   -2.4119   -2.9973    2.7487 H   0  0  0  0  0  0  0  0  0  0  0  0
   -0.5500   -3.5684    1.8216 C   0  0  0  0  0  0  0  0  0  0  0  0
   -0.5629   -0.6932   -1.3656 C   0  0  0  0  0  0  0  0  0  0  0  0
    0.3399   -1.5187   -1.4967 O   0  0  0  0  0  0  0  0  0  0  0  0
   -0.8958    0.1704   -2.3344 N   0  0  0  0  0  0  0  0  0  0  0  0
   -1.6119    0.8521   -2.1276 H   0  0  0  0  0  0  0  0  0  0  0  0
   -0.2432    0.2329   -3.6392 C   0  0  0  0  0  0  0  0  0  0  0  0
   -0.2292   -0.7604   -4.0918 H   0  0  0  0  0  0  0  0  0  0  0  0
   -0.7790    0.9209   -4.2945 H   0  0  0  0  0  0  0  0  0  0  0  0
    0.7854    0.5766   -3.5177 H   0  0  0  0  0  0  0  0  0  0  0  0
  5  6  2  0  0  0  0
  5  7  1  0  0  0  0
  2  3  1  0  0  0  0
  2  4  1  0  0  0  0
  2  5  1  0  0  0  0
  1  2  1  0  0  0  0
 29 30  2  0  0  0  0
 29 31  1  0  0  0  0
 26 27  1  0  0  0  0
 26 28  2  0  0  0  0
 24 25  1  0  0  0  0
 24 26  1  0  0  0  0
 22 23  1  0  0  0  0
 22 24  2  0  0  0  0
 20 21  1  0  0  0  0
 20 22  1  0  0  0  0
 19 20  2  0  0  0  0
 19 28  1  0  0  0  0
 17 18  1  0  0  0  0
 17 19  1  0  0  0  0
 15 16  1  0  0  0  0
 15 17  1  0  0  0  0
 14 15  2  0  0  0  0
 14 28  1  0  0  0  0
 11 12  1  0  0  0  0
 11 13  1  0  0  0  0
 11 14  1  0  0  0  0
  9 10  1  0  0  0  0
  9 11  1  0  0  0  0
  9 29  1  0  0  0  0
  7  8  1  0  0  0  0
  7  9  1  0  0  0  0
 33 34  1  0  0  0  0
 33 35  1  0  0  0  0
 33 36  1  0  0  0  0
 31 32  1  0  0  0  0
 31 33  1  0  0  0  0
M  END
$$$$
default_name
  -OEChem-12212115393D

 36 37  0     1  0  0  0  0  0999 V2000
   -4.0843   -4.0736    1.2944 H   0  0  0  0  0  0  0  0  0  0  0  0
   -4.0342   -3.2816    0.5484 C   0  0  0  0  0  0  0  0  0  0  0  0
   -4.8842   -2.6126    0.6694 H   0  0  0  0  0  0  0  0  0  0  0  0
   -4.0433   -3.7186   -0.4486 H   0  0  0  0  0  0  0  0  0  0  0  0
   -2.7532   -2.5046    0.7444 C   0  0  0  0  0  0  0  0  0  0  0  0
   -1.9803   -2.8096    1.6434 O   0  0  0  0  0  0  0  0  0  0  0  0
   -2.5332   -1.4966   -0.0966 N   0  0  0  0  0  0  0  0  0  0  0  0
   -3.2312   -1.2816   -0.7936 H   0  0  0  0  0  0  0  0  0  0  0  0
   -1.3593   -0.6196   -0.0536 C   0  0  1  0  0  0  0  0  0  0  0  0
   -1.6969    0.4103    0.0678 H   0  0  0  0  0  0  0  0  0  0  0  0
   -0.4905   -0.9856    1.1601 C   0  0  0  0  0  0  0  0  0  0  0  0
    0.3666   -0.3107    1.1954 H   0  0  0  0  0  0  0  0  0  0  0  0
   -1.0754   -0.8241    2.0672 H   0  0  0  0  0  0  0  0  0  0  0  0
    0.0264   -2.3922    1.1724 C   0  0  0  0  0  0  0  0  0  0  0  0
    1.1775   -2.8122    0.6012 C   0  0  0  0  0  0  0  0  0  0  0  0
    1.8585   -2.1769    0.0456 H   0  0  0  0  0  0  0  0  0  0  0  0
    1.3561   -4.1585    0.8524 N   0  0  0  0  0  0  0  0  0  0  0  0
    2.1483   -4.6873    0.5177 H   0  0  0  0  0  0  0  0  0  0  0  0
    0.3306   -4.6726    1.6171 C   0  0  0  0  0  0  0  0  0  0  0  0
    0.0757   -5.9457    2.1468 C   0  0  0  0  0  0  0  0  0  0  0  0
    0.7632   -6.7598    1.9702 H   0  0  0  0  0  0  0  0  0  0  0  0
   -1.0877   -6.1478    2.9089 C   0  0  0  0  0  0  0  0  0  0  0  0
   -1.3014   -7.1232    3.3245 H   0  0  0  0  0  0  0  0  0  0  0  0
   -1.9782   -5.0803    3.1251 C   0  0  0  0  0  0  0  0  0  0  0  0
   -2.8762   -5.2422    3.7051 H   0  0  0  0  0  0  0  0  0  0  0  0
   -1.7128   -3.8053    2.5862 C   0  0  0  0  0  0  0  0  0  0  0  0
   -2.4119   -2.9973    2.7487 H   0  0  0  0  0  0  0  0  0  0  0  0
   -0.5500   -3.5684    1.8216 C   0  0  0  0  0  0  0  0  0  0  0  0
   -0.5629   -0.6932   -1.3656 C   0  0  0  0  0  0  0  0  0  0  0  0
    0.1393   -1.6735   -1.6098 O   0  0  0  0  0  0  0  0  0  0  0  0
   -0.6707    0.3435   -2.2075 N   0  0  0  0  0  0  0  0  0  0  0  0
   -1.2246    1.1334   -1.9083 H   0  0  0  0  0  0  0  0  0  0  0  0
    0.0152    0.4323   -3.4936 C   0  0  0  0  0  0  0  0  0  0  0  0
   -0.1775   -0.4702   -4.0767 H   0  0  0  0  0  0  0  0  0  0  0  0
   -0.3378    1.3028   -4.0482 H   0  0  0  0  0  0  0  0  0  0  0  0
    1.0904    0.5200   -3.3293 H   0  0  0  0  0  0  0  0  0  0  0  0
  5  6  2  0  0  0  0
  5  7  1  0  0  0  0
  2  3  1  0  0  0  0
  2  4  1  0  0  0  0
  2  5  1  0  0  0  0
  1  2  1  0  0  0  0
 29 30  2  0  0  0  0
 29 31  1  0  0  0  0
 26 27  1  0  0  0  0
 26 28  2  0  0  0  0
 24 25  1  0  0  0  0
 24 26  1  0  0  0  0
 22 23  1  0  0  0  0
 22 24  2  0  0  0  0
 20 21  1  0  0  0  0
 20 22  1  0  0  0  0
 19 20  2  0  0  0  0
 19 28  1  0  0  0  0
 17 18  1  0  0  0  0
 17 19  1  0  0  0  0
 15 16  1  0  0  0  0
 15 17  1  0  0  0  0
 14 15  2  0  0  0  0
 14 28  1  0  0  0  0
 11 12  1  0  0  0  0
 11 13  1  0  0  0  0
 11 14  1  0  0  0  0
  9 10  1  0  0  0  0
  9 11  1  0  0  0  0
  9 29  1  0  0  0  0
  7  8  1  0  0  0  0
  7  9  1  0  0  0  0
 33 34  1  0  0  0  0
 33 35  1  0  0  0  0
 33 36  1  0  0  0  0
 31 32  1  0  0  0  0
 31 33  1  0  0  0  0
M  END
$$$$
default_name
  -OEChem-12212115393D

 36 37  0     1  0  0  0  0  0999 V2000
   -4.0843   -4.0736    1.2944 H   0  0  0  0  0  0  0  0  0  0  0  0
   -4.0342   -3.2816    0.5484 C   0  0  0  0  0  0  0  0  0  0  0  0
   -4.8842   -2.6126    0.6694 H   0  0  0  0  0  0  0  0  0  0  0  0
   -4.0433   -3.7186   -0.4486 H   0  0  0  0  0  0  0  0  0  0  0  0
   -2.7532   -2.5046    0.7444 C   0  0  0  0  0  0  0  0  0  0  0  0
   -1.9803   -2.8096    1.6434 O   0  0  0  0  0  0  0  0  0  0  0  0
   -2.5332   -1.4966   -0.0966 N   0  0  0  0  0  0  0  0  0  0  0  0
   -3.2312   -1.2816   -0.7936 H   0  0  0  0  0  0  0  0  0  0  0  0
   -1.3593   -0.6196   -0.0536 C   0  0  1  0  0  0  0  0  0  0  0  0
   -1.6969    0.4103    0.0678 H   0  0  0  0  0  0  0  0  0  0  0  0
   -0.4905   -0.9856    1.1601 C   0  0  0  0  0  0  0  0  0  0  0  0
    0.3666   -0.3107    1.1954 H   0  0  0  0  0  0  0  0  0  0  0  0
   -1.0754   -0.8241    2.0672 H   0  0  0  0  0  0  0  0  0  0  0  0
    0.0264   -2.3922    1.1724 C   0  0  0  0  0  0  0  0  0  0  0  0
    1.1775   -2.8122    0.6012 C   0  0  0  0  0  0  0  0  0  0  0  0
    1.8585   -2.1769    0.0456 H   0  0  0  0  0  0  0  0  0  0  0  0
    1.3561   -4.1585    0.8524 N   0  0  0  0  0  0  0  0  0  0  0  0
    2.1483   -4.6873    0.5177 H   0  0  0  0  0  0  0  0  0  0  0  0
    0.3306   -4.6726    1.6171 C   0  0  0  0  0  0  0  0  0  0  0  0
    0.0757   -5.9457    2.1468 C   0  0  0  0  0  0  0  0  0  0  0  0
    0.7632   -6.7598    1.9702 H   0  0  0  0  0  0  0  0  0  0  0  0
   -1.0877   -6.1478    2.9089 C   0  0  0  0  0  0  0  0  0  0  0  0
   -1.3014   -7.1232    3.3245 H   0  0  0  0  0  0  0  0  0  0  0  0
   -1.9782   -5.0803    3.1251 C   0  0  0  0  0  0  0  0  0  0  0  0
   -2.8762   -5.2422    3.7051 H   0  0  0  0  0  0  0  0  0  0  0  0
   -1.7128   -3.8053    2.5862 C   0  0  0  0  0  0  0  0  0  0  0  0
   -2.4119   -2.9973    2.7487 H   0  0  0  0  0  0  0  0  0  0  0  0
   -0.5500   -3.5684    1.8216 C   0  0  0  0  0  0  0  0  0  0  0  0
   -0.5629   -0.6932   -1.3656 C   0  0  0  0  0  0  0  0  0  0  0  0
   -0.0873   -1.7635   -1.7423 O   0  0  0  0  0  0  0  0  0  0  0  0
   -0.4167    0.4439   -2.0590 N   0  0  0  0  0  0  0  0  0  0  0  0
   -0.7911    1.2902   -1.6540 H   0  0  0  0  0  0  0  0  0  0  0  0
    0.3070    0.5483   -3.3230 C   0  0  0  0  0  0  0  0  0  0  0  0
   -0.0635   -0.2034   -4.0225 H   0  0  0  0  0  0  0  0  0  0  0  0
    0.1697    1.5411   -3.7535 H   0  0  0  0  0  0  0  0  0  0  0  0
    1.3703    0.3727   -3.1512 H   0  0  0  0  0  0  0  0  0  0  0  0
  5  6  2  0  0  0  0
  5  7  1  0  0  0  0
  2  3  1  0  0  0  0
  2  4  1  0  0  0  0
  2  5  1  0  0  0  0
  1  2  1  0  0  0  0
 29 30  2  0  0  0  0
 29 31  1  0  0  0  0
 26 27  1  0  0  0  0
 26 28  2  0  0  0  0
 24 25  1  0  0  0  0
 24 26  1  0  0  0  0
 22 23  1  0  0  0  0
 22 24  2  0  0  0  0
 20 21  1  0  0  0  0
 20 22  1  0  0  0  0
 19 20  2  0  0  0  0
 19 28  1  0  0  0  0
 17 18  1  0  0  0  0
 17 19  1  0  0  0  0
 15 16  1  0  0  0  0
 15 17  1  0  0  0  0
 14 15  2  0  0  0  0
 14 28  1  0  0  0  0
 11 12  1  0  0  0  0
 11 13  1  0  0  0  0
 11 14  1  0  0  0  0
  9 10  1  0  0  0  0
  9 11  1  0  0  0  0
  9 29  1  0  0  0  0
  7  8  1  0  0  0  0
  7  9  1  0  0  0  0
 33 34  1  0  0  0  0
 33 35  1  0  0  0  0
 33 36  1  0  0  0  0
 31 32  1  0  0  0  0
 31 33  1  0  0  0  0
M  END
$$$$
default_name
  -OEChem-12212115393D

 36 37  0     1  0  0  0  0  0999 V2000
   -4.0843   -4.0736    1.2944 H   0  0  0  0  0  0  0  0  0  0  0  0
   -4.0342   -3.2816    0.5484 C   0  0  0  0  0  0  0  0  0  0  0  0
   -4.8842   -2.6126    0.6694 H   0  0  0  0  0  0  0  0  0  0  0  0
   -4.0433   -3.7186   -0.4486 H   0  0  0  0  0  0  0  0  0  0  0  0
   -2.7532   -2.5046    0.7444 C   0  0  0  0  0  0  0  0  0  0  0  0
   -1.9803   -2.8096    1.6434 O   0  0  0  0  0  0  0  0  0  0  0  0
   -2.5332   -1.4966   -0.0966 N   0  0  0  0  0  0  0  0  0  0  0  0
   -3.2312   -1.2816   -0.7936 H   0  0  0  0  0  0  0  0  0  0  0  0
   -1.3593   -0.6196   -0.0536 C   0  0  1  0  0  0  0  0  0  0  0  0
   -1.6969    0.4103    0.0678 H   0  0  0  0  0  0  0  0  0  0  0  0
   -0.4905   -0.9856    1.1601 C   0  0  0  0  0  0  0  0  0  0  0  0
    0.3666   -0.3107    1.1954 H   0  0  0  0  0  0  0  0  0  0  0  0
   -1.0754   -0.8241    2.0672 H   0  0  0  0  0  0  0  0  0  0  0  0
    0.0264   -2.3922    1.1724 C   0  0  0  0  0  0  0  0  0  0  0  0
    1.1775   -2.8122    0.6012 C   0  0  0  0  0  0  0  0  0  0  0  0
    1.8585   -2.1769    0.0456 H   0  0  0  0  0  0  0  0  0  0  0  0
    1.3561   -4.1585    0.8524 N   0  0  0  0  0  0  0  0  0  0  0  0
    2.1483   -4.6873    0.5177 H   0  0  0  0  0  0  0  0  0  0  0  0
    0.3306   -4.6726    1.6171 C   0  0  0  0  0  0  0  0  0  0  0  0
    0.0757   -5.9457    2.1468 C   0  0  0  0  0  0  0  0  0  0  0  0
    0.7632   -6.7598    1.9702 H   0  0  0  0  0  0  0  0  0  0  0  0
   -1.0877   -6.1478    2.9089 C   0  0  0  0  0  0  0  0  0  0  0  0
   -1.3014   -7.1232    3.3245 H   0  0  0  0  0  0  0  0  0  0  0  0
   -1.9782   -5.0803    3.1251 C   0  0  0  0  0  0  0  0  0  0  0  0
   -2.8762   -5.2422    3.7051 H   0  0  0  0  0  0  0  0  0  0  0  0
   -1.7128   -3.8053    2.5862 C   0  0  0  0  0  0  0  0  0  0  0  0
   -2.4119   -2.9973    2.7487 H   0  0  0  0  0  0  0  0  0  0  0  0
   -0.5500   -3.5684    1.8216 C   0  0  0  0  0  0  0  0  0  0  0  0
   -0.5629   -0.6932   -1.3656 C   0  0  0  0  0  0  0  0  0  0  0  0
   -0.3245   -1.7826   -1.8852 O   0  0  0  0  0  0  0  0  0  0  0  0
   -0.1509    0.4649   -1.8988 N   0  0  0  0  0  0  0  0  0  0  0  0
   -0.3408    1.3117   -1.3819 H   0  0  0  0  0  0  0  0  0  0  0  0
    0.6124    0.5730   -3.1390 C   0  0  0  0  0  0  0  0  0  0  0  0
    0.1048    0.0218   -3.9329 H   0  0  0  0  0  0  0  0  0  0  0  0
    0.7089    1.6196   -3.4306 H   0  0  0  0  0  0  0  0  0  0  0  0
    1.6058    0.1446   -2.9955 H   0  0  0  0  0  0  0  0  0  0  0  0
  5  6  2  0  0  0  0
  5  7  1  0  0  0  0
  2  3  1  0  0  0  0
  2  4  1  0  0  0  0
  2  5  1  0  0  0  0
  1  2  1  0  0  0  0
 29 30  2  0  0  0  0
 29 31  1  0  0  0  0
 26 27  1  0  0  0  0
 26 28  2  0  0  0  0
 24 25  1  0  0  0  0
 24 26  1  0  0  0  0
 22 23  1  0  0  0  0
 22 24  2  0  0  0  0
 20 21  1  0  0  0  0
 20 22  1  0  0  0  0
 19 20  2  0  0  0  0
 19 28  1  0  0  0  0
 17 18  1  0  0  0  0
 17 19  1  0  0  0  0
 15 16  1  0  0  0  0
 15 17  1  0  0  0  0
 14 15  2  0  0  0  0
 14 28  1  0  0  0  0
 11 12  1  0  0  0  0
 11 13  1  0  0  0  0
 11 14  1  0  0  0  0
  9 10  1  0  0  0  0
  9 11  1  0  0  0  0
  9 29  1  0  0  0  0
  7  8  1  0  0  0  0
  7  9  1  0  0  0  0
 33 34  1  0  0  0  0
 33 35  1  0  0  0  0
 33 36  1  0  0  0  0
 31 32  1  0  0  0  0
 31 33  1  0  0  0  0
M  END
$$$$
default_name
  -OEChem-12212115393D

 36 37  0     1  0  0  0  0  0999 V2000
   -4.0843   -4.0736    1.2944 H   0  0  0  0  0  0  0  0  0  0  0  0
   -4.0342   -3.2816    0.5484 C   0  0  0  0  0  0  0  0  0  0  0  0
   -4.8842   -2.6126    0.6694 H   0  0  0  0  0  0  0  0  0  0  0  0
   -4.0433   -3.7186   -0.4486 H   0  0  0  0  0  0  0  0  0  0  0  0
   -2.7532   -2.5046    0.7444 C   0  0  0  0  0  0  0  0  0  0  0  0
   -1.9803   -2.8096    1.6434 O   0  0  0  0  0  0  0  0  0  0  0  0
   -2.5332   -1.4966   -0.0966 N   0  0  0  0  0  0  0  0  0  0  0  0
   -3.2312   -1.2816   -0.7936 H   0  0  0  0  0  0  0  0  0  0  0  0
   -1.3593   -0.6196   -0.0536 C   0  0  1  0  0  0  0  0  0  0  0  0
   -1.6969    0.4103    0.0678 H   0  0  0  0  0  0  0  0  0  0  0  0
   -0.4905   -0.9856    1.1601 C   0  0  0  0  0  0  0  0  0  0  0  0
    0.3666   -0.3107    1.1954 H   0  0  0  0  0  0  0  0  0  0  0  0
   -1.0754   -0.8241    2.0672 H   0  0  0  0  0  0  0  0  0  0  0  0
    0.0264   -2.3922    1.1724 C   0  0  0  0  0  0  0  0  0  0  0  0
    1.1775   -2.8122    0.6012 C   0  0  0  0  0  0  0  0  0  0  0  0
    1.8585   -2.1769    0.0456 H   0  0  0  0  0  0  0  0  0  0  0  0
    1.3561   -4.1585    0.8524 N   0  0  0  0  0  0  0  0  0  0  0  0
    2.1483   -4.6873    0.5177 H   0  0  0  0  0  0  0  0  0  0  0  0
    0.3306   -4.6726    1.6171 C   0  0  0  0  0  0  0  0  0  0  0  0
    0.0757   -5.9457    2.1468 C   0  0  0  0  0  0  0  0  0  0  0  0
    0.7632   -6.7598    1.9702 H   0  0  0  0  0  0  0  0  0  0  0  0
   -1.0877   -6.1478    2.9089 C   0  0  0  0  0  0  0  0  0  0  0  0
   -1.3014   -7.1232    3.3245 H   0  0  0  0  0  0  0  0  0  0  0  0
   -1.9782   -5.0803    3.1251 C   0  0  0  0  0  0  0  0  0  0  0  0
   -2.8762   -5.2422    3.7051 H   0  0  0  0  0  0  0  0  0  0  0  0
   -1.7128   -3.8053    2.5862 C   0  0  0  0  0  0  0  0  0  0  0  0
   -2.4119   -2.9973    2.7487 H   0  0  0  0  0  0  0  0  0  0  0  0
   -0.5500   -3.5684    1.8216 C   0  0  0  0  0  0  0  0  0  0  0  0
   -0.5629   -0.6932   -1.3656 C   0  0  0  0  0  0  0  0  0  0  0  0
   -0.5560   -1.7295   -2.0287 O   0  0  0  0  0  0  0  0  0  0  0  0
    0.1084    0.4049   -1.7381 N   0  0  0  0  0  0  0  0  0  0  0  0
    0.0955    1.1964   -1.1106 H   0  0  0  0  0  0  0  0  0  0  0  0
    0.9106    0.5046   -2.9542 C   0  0  0  0  0  0  0  0  0  0  0  0
    0.3161    0.1902   -3.8141 H   0  0  0  0  0  0  0  0  0  0  0  0
    1.2431    1.5329   -3.1015 H   0  0  0  0  0  0  0  0  0  0  0  0
    1.7809   -0.1486   -2.8727 H   0  0  0  0  0  0  0  0  0  0  0  0
  5  6  2  0  0  0  0
  5  7  1  0  0  0  0
  2  3  1  0  0  0  0
  2  4  1  0  0  0  0
  2  5  1  0  0  0  0
  1  2  1  0  0  0  0
 29 30  2  0  0  0  0
 29 31  1  0  0  0  0
 26 27  1  0  0  0  0
 26 28  2  0  0  0  0
 24 25  1  0  0  0  0
 24 26  1  0  0  0  0
 22 23  1  0  0  0  0
 22 24  2  0  0  0  0
 20 21  1  0  0  0  0
 20 22  1  0  0  0  0
 19 20  2  0  0  0  0
 19 28  1  0  0  0  0
 17 18  1  0  0  0  0
 17 19  1  0  0  0  0
 15 16  1  0  0  0  0
 15 17  1  0  0  0  0
 14 15  2  0  0  0  0
 14 28  1  0  0  0  0
 11 12  1  0  0  0  0
 11 13  1  0  0  0  0
 11 14  1  0  0  0  0
  9 10  1  0  0  0  0
  9 11  1  0  0  0  0
  9 29  1  0  0  0  0
  7  8  1  0  0  0  0
  7  9  1  0  0  0  0
 33 34  1  0  0  0  0
 33 35  1  0  0  0  0
 33 36  1  0  0  0  0
 31 32  1  0  0  0  0
 31 33  1  0  0  0  0
M  END
$$$$
default_name
  -OEChem-12212115393D

 36 37  0     1  0  0  0  0  0999 V2000
   -4.0843   -4.0736    1.2944 H   0  0  0  0  0  0  0  0  0  0  0  0
   -4.0342   -3.2816    0.5484 C   0  0  0  0  0  0  0  0  0  0  0  0
   -4.8842   -2.6126    0.6694 H   0  0  0  0  0  0  0  0  0  0  0  0
   -4.0433   -3.7186   -0.4486 H   0  0  0  0  0  0  0  0  0  0  0  0
   -2.7532   -2.5046    0.7444 C   0  0  0  0  0  0  0  0  0  0  0  0
   -1.9803   -2.8096    1.6434 O   0  0  0  0  0  0  0  0  0  0  0  0
   -2.5332   -1.4966   -0.0966 N   0  0  0  0  0  0  0  0  0  0  0  0
   -3.2312   -1.2816   -0.7936 H   0  0  0  0  0  0  0  0  0  0  0  0
   -1.3593   -0.6196   -0.0536 C   0  0  1  0  0  0  0  0  0  0  0  0
   -1.6969    0.4103    0.0678 H   0  0  0  0  0  0  0  0  0  0  0  0
   -0.4905   -0.9856    1.1601 C   0  0  0  0  0  0  0  0  0  0  0  0
    0.3666   -0.3107    1.1954 H   0  0  0  0  0  0  0  0  0  0  0  0
   -1.0754   -0.8241    2.0672 H   0  0  0  0  0  0  0  0  0  0  0  0
    0.0264   -2.3922    1.1724 C   0  0  0  0  0  0  0  0  0  0  0  0
    1.1775   -2.8122    0.6012 C   0  0  0  0  0  0  0  0  0  0  0  0
    1.8585   -2.1769    0.0456 H   0  0  0  0  0  0  0  0  0  0  0  0
    1.3561   -4.1585    0.8524 N   0  0  0  0  0  0  0  0  0  0  0  0
    2.1483   -4.6873    0.5177 H   0  0  0  0  0  0  0  0  0  0  0  0
    0.3306   -4.6726    1.6171 C   0  0  0  0  0  0  0  0  0  0  0  0
    0.0757   -5.9457    2.1468 C   0  0  0  0  0  0  0  0  0  0  0  0
    0.7632   -6.7598    1.9702 H   0  0  0  0  0  0  0  0  0  0  0  0
   -1.0877   -6.1478    2.9089 C   0  0  0  0  0  0  0  0  0  0  0  0
   -1.3014   -7.1232    3.3245 H   0  0  0  0  0  0  0  0  0  0  0  0
   -1.9782   -5.0803    3.1251 C   0  0  0  0  0  0  0  0  0  0  0  0
   -2.8762   -5.2422    3.7051 H   0  0  0  0  0  0  0  0  0  0  0  0
   -1.7128   -3.8053    2.5862 C   0  0  0  0  0  0  0  0  0  0  0  0
   -2.4119   -2.9973    2.7487 H   0  0  0  0  0  0  0  0  0  0  0  0
   -0.5500   -3.5684    1.8216 C   0  0  0  0  0  0  0  0  0  0  0  0
   -0.5629   -0.6932   -1.3656 C   0  0  0  0  0  0  0  0  0  0  0  0
   -0.7661   -1.6078   -2.1630 O   0  0  0  0  0  0  0  0  0  0  0  0
    0.3436    0.2681   -1.5876 N   0  0  0  0  0  0  0  0  0  0  0  0
    0.4881    0.9523   -0.8587 H   0  0  0  0  0  0  0  0  0  0  0  0
    1.1812    0.3479   -2.7811 C   0  0  0  0  0  0  0  0  0  0  0  0
    0.5559    0.2902   -3.6741 H   0  0  0  0  0  0  0  0  0  0  0  0
    1.7358    1.2870   -2.7886 H   0  0  0  0  0  0  0  0  0  0  0  0
    1.8838   -0.4870   -2.7913 H   0  0  0  0  0  0  0  0  0  0  0  0
  5  6  2  0  0  0  0
  5  7  1  0  0  0  0
  2  3  1  0  0  0  0
  2  4  1  0  0  0  0
  2  5  1  0  0  0  0
  1  2  1  0  0  0  0
 29 30  2  0  0  0  0
 29 31  1  0  0  0  0
 26 27  1  0  0  0  0
 26 28  2  0  0  0  0
 24 25  1  0  0  0  0
 24 26  1  0  0  0  0
 22 23  1  0  0  0  0
 22 24  2  0  0  0  0
 20 21  1  0  0  0  0
 20 22  1  0  0  0  0
 19 20  2  0  0  0  0
 19 28  1  0  0  0  0
 17 18  1  0  0  0  0
 17 19  1  0  0  0  0
 15 16  1  0  0  0  0
 15 17  1  0  0  0  0
 14 15  2  0  0  0  0
 14 28  1  0  0  0  0
 11 12  1  0  0  0  0
 11 13  1  0  0  0  0
 11 14  1  0  0  0  0
  9 10  1  0  0  0  0
  9 11  1  0  0  0  0
  9 29  1  0  0  0  0
  7  8  1  0  0  0  0
  7  9  1  0  0  0  0
 33 34  1  0  0  0  0
 33 35  1  0  0  0  0
 33 36  1  0  0  0  0
 31 32  1  0  0  0  0
 31 33  1  0  0  0  0
M  END
$$$$
default_name
  -OEChem-12212115393D

 36 37  0     1  0  0  0  0  0999 V2000
   -4.0843   -4.0736    1.2944 H   0  0  0  0  0  0  0  0  0  0  0  0
   -4.0342   -3.2816    0.5484 C   0  0  0  0  0  0  0  0  0  0  0  0
   -4.8842   -2.6126    0.6694 H   0  0  0  0  0  0  0  0  0  0  0  0
   -4.0433   -3.7186   -0.4486 H   0  0  0  0  0  0  0  0  0  0  0  0
   -2.7532   -2.5046    0.7444 C   0  0  0  0  0  0  0  0  0  0  0  0
   -1.9803   -2.8096    1.6434 O   0  0  0  0  0  0  0  0  0  0  0  0
   -2.5332   -1.4966   -0.0966 N   0  0  0  0  0  0  0  0  0  0  0  0
   -3.2312   -1.2816   -0.7936 H   0  0  0  0  0  0  0  0  0  0  0  0
   -1.3593   -0.6196   -0.0536 C   0  0  1  0  0  0  0  0  0  0  0  0
   -1.6649    0.3546    0.3297 H   0  0  0  0  0  0  0  0  0  0  0  0
   -0.3154   -1.2076    0.9089 C   0  0  0  0  0  0  0  0  0  0  0  0
    0.5426   -0.5343    0.9512 H   0  0  0  0  0  0  0  0  0  0  0  0
   -0.7506   -1.2511    1.9088 H   0  0  0  0  0  0  0  0  0  0  0  0
    0.1848   -2.5737    0.5488 C   0  0  0  0  0  0  0  0  0  0  0  0
    1.2292   -2.8389   -0.2676 C   0  0  0  0  0  0  0  0  0  0  0  0
    1.8210   -2.0864   -0.7771 H   0  0  0  0  0  0  0  0  0  0  0  0
    1.4330   -4.2034   -0.3323 N   0  0  0  0  0  0  0  0  0  0  0  0
    2.1588   -4.6325   -0.8876 H   0  0  0  0  0  0  0  0  0  0  0  0
    0.5346   -4.8888    0.4575 C   0  0  0  0  0  0  0  0  0  0  0  0
    0.3541   -6.2496    0.7438 C   0  0  0  0  0  0  0  0  0  0  0  0
    0.9986   -6.9929    0.2981 H   0  0  0  0  0  0  0  0  0  0  0  0
   -0.6782   -6.6326    1.6171 C   0  0  0  0  0  0  0  0  0  0  0  0
   -0.8331   -7.6777    1.8487 H   0  0  0  0  0  0  0  0  0  0  0  0
   -1.5149   -5.6544    2.1850 C   0  0  0  0  0  0  0  0  0  0  0  0
   -2.3131   -5.9541    2.8499 H   0  0  0  0  0  0  0  0  0  0  0  0
   -1.3255   -4.2896    1.8887 C   0  0  0  0  0  0  0  0  0  0  0  0
   -1.9837   -3.5496    2.3212 H   0  0  0  0  0  0  0  0  0  0  0  0
   -0.2938   -3.8721    1.0202 C   0  0  0  0  0  0  0  0  0  0  0  0
   -0.7775   -0.4014   -1.4589 C   0  0  0  0  0  0  0  0  0  0  0  0
   -1.2990   -0.9382   -2.4354 O   0  0  0  0  0  0  0  0  0  0  0  0
    0.3030    0.3844   -1.5602 N   0  0  0  0  0  0  0  0  0  0  0  0
    0.7025    0.7430   -0.7046 H   0  0  0  0  0  0  0  0  0  0  0  0
    0.9772    0.6964   -2.8174 C   0  0  0  0  0  0  0  0  0  0  0  0
    0.2497    1.0633   -3.5440 H   0  0  0  0  0  0  0  0  0  0  0  0
    1.7411    1.4578   -2.6550 H   0  0  0  0  0  0  0  0  0  0  0  0
    1.4448   -0.2058   -3.2153 H   0  0  0  0  0  0  0  0  0  0  0  0
  5  6  2  0  0  0  0
  5  7  1  0  0  0  0
  2  3  1  0  0  0  0
  2  4  1  0  0  0  0
  2  5  1  0  0  0  0
  1  2  1  0  0  0  0
 29 30  2  0  0  0  0
 29 31  1  0  0  0  0
 26 27  1  0  0  0  0
 26 28  2  0  0  0  0
 24 25  1  0  0  0  0
 24 26  1  0  0  0  0
 22 23  1  0  0  0  0
 22 24  2  0  0  0  0
 20 21  1  0  0  0  0
 20 22  1  0  0  0  0
 19 20  2  0  0  0  0
 19 28  1  0  0  0  0
 17 18  1  0  0  0  0
 17 19  1  0  0  0  0
 15 16  1  0  0  0  0
 15 17  1  0  0  0  0
 14 15  2  0  0  0  0
 14 28  1  0  0  0  0
 11 12  1  0  0  0  0
 11 13  1  0  0  0  0
 11 14  1  0  0  0  0
  9 10  1  0  0  0  0
  9 11  1  0  0  0  0
  9 29  1  0  0  0  0
  7  8  1  0  0  0  0
  7  9  1  0  0  0  0
 33 34  1  0  0  0  0
 33 35  1  0  0  0  0
 33 36  1  0  0  0  0
 31 32  1  0  0  0  0
 31 33  1  0  0  0  0
M  END
$$$$
default_name
  -OEChem-12212115393D

 36 37  0     1  0  0  0  0  0999 V2000
   -4.0843   -4.0736    1.2944 H   0  0  0  0  0  0  0  0  0  0  0  0
   -4.0342   -3.2816    0.5484 C   0  0  0  0  0  0  0  0  0  0  0  0
   -4.8842   -2.6126    0.6694 H   0  0  0  0  0  0  0  0  0  0  0  0
   -4.0433   -3.7186   -0.4486 H   0  0  0  0  0  0  0  0  0  0  0  0
   -2.7532   -2.5046    0.7444 C   0  0  0  0  0  0  0  0  0  0  0  0
   -1.9803   -2.8096    1.6434 O   0  0  0  0  0  0  0  0  0  0  0  0
   -2.5332   -1.4966   -0.0966 N   0  0  0  0  0  0  0  0  0  0  0  0
   -3.2312   -1.2816   -0.7936 H   0  0  0  0  0  0  0  0  0  0  0  0
   -1.3593   -0.6196   -0.0536 C   0  0  1  0  0  0  0  0  0  0  0  0
   -1.6649    0.3546    0.3297 H   0  0  0  0  0  0  0  0  0  0  0  0
   -0.3154   -1.2076    0.9089 C   0  0  0  0  0  0  0  0  0  0  0  0
    0.5426   -0.5343    0.9512 H   0  0  0  0  0  0  0  0  0  0  0  0
   -0.7506   -1.2511    1.9088 H   0  0  0  0  0  0  0  0  0  0  0  0
    0.1848   -2.5737    0.5488 C   0  0  0  0  0  0  0  0  0  0  0  0
    1.2292   -2.8389   -0.2676 C   0  0  0  0  0  0  0  0  0  0  0  0
    1.8210   -2.0864   -0.7771 H   0  0  0  0  0  0  0  0  0  0  0  0
    1.4330   -4.2034   -0.3323 N   0  0  0  0  0  0  0  0  0  0  0  0
    2.1588   -4.6325   -0.8876 H   0  0  0  0  0  0  0  0  0  0  0  0
    0.5346   -4.8888    0.4575 C   0  0  0  0  0  0  0  0  0  0  0  0
    0.3541   -6.2496    0.7438 C   0  0  0  0  0  0  0  0  0  0  0  0
    0.9986   -6.9929    0.2981 H   0  0  0  0  0  0  0  0  0  0  0  0
   -0.6782   -6.6326    1.6171 C   0  0  0  0  0  0  0  0  0  0  0  0
   -0.8331   -7.6777    1.8487 H   0  0  0  0  0  0  0  0  0  0  0  0
   -1.5149   -5.6544    2.1850 C   0  0  0  0  0  0  0  0  0  0  0  0
   -2.3131   -5.9541    2.8499 H   0  0  0  0  0  0  0  0  0  0  0  0
   -1.3255   -4.2896    1.8887 C   0  0  0  0  0  0  0  0  0  0  0  0
   -1.9837   -3.5496    2.3212 H   0  0  0  0  0  0  0  0  0  0  0  0
   -0.2938   -3.8721    1.0202 C   0  0  0  0  0  0  0  0  0  0  0  0
   -0.7775   -0.4014   -1.4589 C   0  0  0  0  0  0  0  0  0  0  0  0
   -1.4362   -0.6977   -2.4548 O   0  0  0  0  0  0  0  0  0  0  0  0
    0.4564    0.1148   -1.5386 N   0  0  0  0  0  0  0  0  0  0  0  0
    0.9511    0.2799   -0.6736 H   0  0  0  0  0  0  0  0  0  0  0  0
    1.1539    0.3867   -2.7923 C   0  0  0  0  0  0  0  0  0  0  0  0
    0.5171    0.9867   -3.4452 H   0  0  0  0  0  0  0  0  0  0  0  0
    2.0812    0.9267   -2.5967 H   0  0  0  0  0  0  0  0  0  0  0  0
    1.3827   -0.5544   -3.2951 H   0  0  0  0  0  0  0  0  0  0  0  0
  5  6  2  0  0  0  0
  5  7  1  0  0  0  0
  2  3  1  0  0  0  0
  2  4  1  0  0  0  0
  2  5  1  0  0  0  0
  1  2  1  0  0  0  0
 29 30  2  0  0  0  0
 29 31  1  0  0  0  0
 26 27  1  0  0  0  0
 26 28  2  0  0  0  0
 24 25  1  0  0  0  0
 24 26  1  0  0  0  0
 22 23  1  0  0  0  0
 22 24  2  0  0  0  0
 20 21  1  0  0  0  0
 20 22  1  0  0  0  0
 19 20  2  0  0  0  0
 19 28  1  0  0  0  0
 17 18  1  0  0  0  0
 17 19  1  0  0  0  0
 15 16  1  0  0  0  0
 15 17  1  0  0  0  0
 14 15  2  0  0  0  0
 14 28  1  0  0  0  0
 11 12  1  0  0  0  0
 11 13  1  0  0  0  0
 11 14  1  0  0  0  0
  9 10  1  0  0  0  0
  9 11  1  0  0  0  0
  9 29  1  0  0  0  0
  7  8  1  0  0  0  0
  7  9  1  0  0  0  0
 33 34  1  0  0  0  0
 33 35  1  0  0  0  0
 33 36  1  0  0  0  0
 31 32  1  0  0  0  0
 31 33  1  0  0  0  0
M  END
$$$$
default_name
  -OEChem-12212115393D

 36 37  0     1  0  0  0  0  0999 V2000
   -4.0843   -4.0736    1.2944 H   0  0  0  0  0  0  0  0  0  0  0  0
   -4.0342   -3.2816    0.5484 C   0  0  0  0  0  0  0  0  0  0  0  0
   -4.8842   -2.6126    0.6694 H   0  0  0  0  0  0  0  0  0  0  0  0
   -4.0433   -3.7186   -0.4486 H   0  0  0  0  0  0  0  0  0  0  0  0
   -2.7532   -2.5046    0.7444 C   0  0  0  0  0  0  0  0  0  0  0  0
   -1.9803   -2.8096    1.6434 O   0  0  0  0  0  0  0  0  0  0  0  0
   -2.5332   -1.4966   -0.0966 N   0  0  0  0  0  0  0  0  0  0  0  0
   -3.2312   -1.2816   -0.7936 H   0  0  0  0  0  0  0  0  0  0  0  0
   -1.3593   -0.6196   -0.0536 C   0  0  1  0  0  0  0  0  0  0  0  0
   -1.6649    0.3546    0.3297 H   0  0  0  0  0  0  0  0  0  0  0  0
   -0.3154   -1.2076    0.9089 C   0  0  0  0  0  0  0  0  0  0  0  0
    0.5426   -0.5343    0.9512 H   0  0  0  0  0  0  0  0  0  0  0  0
   -0.7506   -1.2511    1.9088 H   0  0  0  0  0  0  0  0  0  0  0  0
    0.1848   -2.5737    0.5488 C   0  0  0  0  0  0  0  0  0  0  0  0
    1.2292   -2.8389   -0.2676 C   0  0  0  0  0  0  0  0  0  0  0  0
    1.8210   -2.0864   -0.7771 H   0  0  0  0  0  0  0  0  0  0  0  0
    1.4330   -4.2034   -0.3323 N   0  0  0  0  0  0  0  0  0  0  0  0
    2.1588   -4.6325   -0.8876 H   0  0  0  0  0  0  0  0  0  0  0  0
    0.5346   -4.8888    0.4575 C   0  0  0  0  0  0  0  0  0  0  0  0
    0.3541   -6.2496    0.7438 C   0  0  0  0  0  0  0  0  0  0  0  0
    0.9986   -6.9929    0.2981 H   0  0  0  0  0  0  0  0  0  0  0  0
   -0.6782   -6.6326    1.6171 C   0  0  0  0  0  0  0  0  0  0  0  0
   -0.8331   -7.6777    1.8487 H   0  0  0  0  0  0  0  0  0  0  0  0
   -1.5149   -5.6544    2.1850 C   0  0  0  0  0  0  0  0  0  0  0  0
   -2.3131   -5.9541    2.8499 H   0  0  0  0  0  0  0  0  0  0  0  0
   -1.3255   -4.2896    1.8887 C   0  0  0  0  0  0  0  0  0  0  0  0
   -1.9837   -3.5496    2.3212 H   0  0  0  0  0  0  0  0  0  0  0  0
   -0.2938   -3.8721    1.0202 C   0  0  0  0  0  0  0  0  0  0  0  0
   -0.7775   -0.4014   -1.4589 C   0  0  0  0  0  0  0  0  0  0  0  0
   -1.5125   -0.4311   -2.4450 O   0  0  0  0  0  0  0  0  0  0  0  0
    0.5415   -0.1841   -1.5498 N   0  0  0  0  0  0  0  0  0  0  0  0
    1.0828   -0.2293   -0.6982 H   0  0  0  0  0  0  0  0  0  0  0  0
    1.2522    0.0434   -2.8049 C   0  0  0  0  0  0  0  0  0  0  0  0
    0.7608    0.8397   -3.3671 H   0  0  0  0  0  0  0  0  0  0  0  0
    2.2862    0.3274   -2.6049 H   0  0  0  0  0  0  0  0  0  0  0  0
    1.2373   -0.8686   -3.4041 H   0  0  0  0  0  0  0  0  0  0  0  0
  5  6  2  0  0  0  0
  5  7  1  0  0  0  0
  2  3  1  0  0  0  0
  2  4  1  0  0  0  0
  2  5  1  0  0  0  0
  1  2  1  0  0  0  0
 29 30  2  0  0  0  0
 29 31  1  0  0  0  0
 26 27  1  0  0  0  0
 26 28  2  0  0  0  0
 24 25  1  0  0  0  0
 24 26  1  0  0  0  0
 22 23  1  0  0  0  0
 22 24  2  0  0  0  0
 20 21  1  0  0  0  0
 20 22  1  0  0  0  0
 19 20  2  0  0  0  0
 19 28  1  0  0  0  0
 17 18  1  0  0  0  0
 17 19  1  0  0  0  0
 15 16  1  0  0  0  0
 15 17  1  0  0  0  0
 14 15  2  0  0  0  0
 14 28  1  0  0  0  0
 11 12  1  0  0  0  0
 11 13  1  0  0  0  0
 11 14  1  0  0  0  0
  9 10  1  0  0  0  0
  9 11  1  0  0  0  0
  9 29  1  0  0  0  0
  7  8  1  0  0  0  0
  7  9  1  0  0  0  0
 33 34  1  0  0  0  0
 33 35  1  0  0  0  0
 33 36  1  0  0  0  0
 31 32  1  0  0  0  0
 31 33  1  0  0  0  0
M  END
$$$$
default_name
  -OEChem-12212115393D

 36 37  0     1  0  0  0  0  0999 V2000
   -4.0843   -4.0736    1.2944 H   0  0  0  0  0  0  0  0  0  0  0  0
   -4.0342   -3.2816    0.5484 C   0  0  0  0  0  0  0  0  0  0  0  0
   -4.8842   -2.6126    0.6694 H   0  0  0  0  0  0  0  0  0  0  0  0
   -4.0433   -3.7186   -0.4486 H   0  0  0  0  0  0  0  0  0  0  0  0
   -2.7532   -2.5046    0.7444 C   0  0  0  0  0  0  0  0  0  0  0  0
   -1.9803   -2.8096    1.6434 O   0  0  0  0  0  0  0  0  0  0  0  0
   -2.5332   -1.4966   -0.0966 N   0  0  0  0  0  0  0  0  0  0  0  0
   -3.2312   -1.2816   -0.7936 H   0  0  0  0  0  0  0  0  0  0  0  0
   -1.3593   -0.6196   -0.0536 C   0  0  1  0  0  0  0  0  0  0  0  0
   -1.6649    0.3546    0.3297 H   0  0  0  0  0  0  0  0  0  0  0  0
   -0.3154   -1.2076    0.9089 C   0  0  0  0  0  0  0  0  0  0  0  0
    0.5426   -0.5343    0.9512 H   0  0  0  0  0  0  0  0  0  0  0  0
   -0.7506   -1.2511    1.9088 H   0  0  0  0  0  0  0  0  0  0  0  0
    0.1848   -2.5737    0.5488 C   0  0  0  0  0  0  0  0  0  0  0  0
    1.2292   -2.8389   -0.2676 C   0  0  0  0  0  0  0  0  0  0  0  0
    1.8210   -2.0864   -0.7771 H   0  0  0  0  0  0  0  0  0  0  0  0
    1.4330   -4.2034   -0.3323 N   0  0  0  0  0  0  0  0  0  0  0  0
    2.1588   -4.6325   -0.8876 H   0  0  0  0  0  0  0  0  0  0  0  0
    0.5346   -4.8888    0.4575 C   0  0  0  0  0  0  0  0  0  0  0  0
    0.3541   -6.2496    0.7438 C   0  0  0  0  0  0  0  0  0  0  0  0
    0.9986   -6.9929    0.2981 H   0  0  0  0  0  0  0  0  0  0  0  0
   -0.6782   -6.6326    1.6171 C   0  0  0  0  0  0  0  0  0  0  0  0
   -0.8331   -7.6777    1.8487 H   0  0  0  0  0  0  0  0  0  0  0  0
   -1.5149   -5.6544    2.1850 C   0  0  0  0  0  0  0  0  0  0  0  0
   -2.3131   -5.9541    2.8499 H   0  0  0  0  0  0  0  0  0  0  0  0
   -1.3255   -4.2896    1.8887 C   0  0  0  0  0  0  0  0  0  0  0  0
   -1.9837   -3.5496    2.3212 H   0  0  0  0  0  0  0  0  0  0  0  0
   -0.2938   -3.8721    1.0202 C   0  0  0  0  0  0  0  0  0  0  0  0
   -0.7775   -0.4014   -1.4589 C   0  0  0  0  0  0  0  0  0  0  0  0
   -1.5228   -0.1565   -2.4066 O   0  0  0  0  0  0  0  0  0  0  0  0
    0.5526   -0.4919   -1.5930 N   0  0  0  0  0  0  0  0  0  0  0  0
    1.0885   -0.7499   -0.7766 H   0  0  0  0  0  0  0  0  0  0  0  0
    1.2655   -0.3103   -2.8544 C   0  0  0  0  0  0  0  0  0  0  0  0
    0.9644    0.6325   -3.3151 H   0  0  0  0  0  0  0  0  0  0  0  0
    2.3420   -0.2991   -2.6792 H   0  0  0  0  0  0  0  0  0  0  0  0
    1.0185   -1.1269   -3.5349 H   0  0  0  0  0  0  0  0  0  0  0  0
  5  6  2  0  0  0  0
  5  7  1  0  0  0  0
  2  3  1  0  0  0  0
  2  4  1  0  0  0  0
  2  5  1  0  0  0  0
  1  2  1  0  0  0  0
 29 30  2  0  0  0  0
 29 31  1  0  0  0  0
 26 27  1  0  0  0  0
 26 28  2  0  0  0  0
 24 25  1  0  0  0  0
 24 26  1  0  0  0  0
 22 23  1  0  0  0  0
 22 24  2  0  0  0  0
 20 21  1  0  0  0  0
 20 22  1  0  0  0  0
 19 20  2  0  0  0  0
 19 28  1  0  0  0  0
 17 18  1  0  0  0  0
 17 19  1  0  0  0  0
 15 16  1  0  0  0  0
 15 17  1  0  0  0  0
 14 15  2  0  0  0  0
 14 28  1  0  0  0  0
 11 12  1  0  0  0  0
 11 13  1  0  0  0  0
 11 14  1  0  0  0  0
  9 10  1  0  0  0  0
  9 11  1  0  0  0  0
  9 29  1  0  0  0  0
  7  8  1  0  0  0  0
  7  9  1  0  0  0  0
 33 34  1  0  0  0  0
 33 35  1  0  0  0  0
 33 36  1  0  0  0  0
 31 32  1  0  0  0  0
 31 33  1  0  0  0  0
M  END
$$$$
default_name
  -OEChem-12212115393D

 36 37  0     1  0  0  0  0  0999 V2000
   -4.0843   -4.0736    1.2944 H   0  0  0  0  0  0  0  0  0  0  0  0
   -4.0342   -3.2816    0.5484 C   0  0  0  0  0  0  0  0  0  0  0  0
   -4.8842   -2.6126    0.6694 H   0  0  0  0  0  0  0  0  0  0  0  0
   -4.0433   -3.7186   -0.4486 H   0  0  0  0  0  0  0  0  0  0  0  0
   -2.7532   -2.5046    0.7444 C   0  0  0  0  0  0  0  0  0  0  0  0
   -1.9803   -2.8096    1.6434 O   0  0  0  0  0  0  0  0  0  0  0  0
   -2.5332   -1.4966   -0.0966 N   0  0  0  0  0  0  0  0  0  0  0  0
   -3.2312   -1.2816   -0.7936 H   0  0  0  0  0  0  0  0  0  0  0  0
   -1.3593   -0.6196   -0.0536 C   0  0  1  0  0  0  0  0  0  0  0  0
   -1.6649    0.3546    0.3297 H   0  0  0  0  0  0  0  0  0  0  0  0
   -0.3154   -1.2076    0.9089 C   0  0  0  0  0  0  0  0  0  0  0  0
    0.5426   -0.5343    0.9512 H   0  0  0  0  0  0  0  0  0  0  0  0
   -0.7506   -1.2511    1.9088 H   0  0  0  0  0  0  0  0  0  0  0  0
    0.1848   -2.5737    0.5488 C   0  0  0  0  0  0  0  0  0  0  0  0
    1.2292   -2.8389   -0.2676 C   0  0  0  0  0  0  0  0  0  0  0  0
    1.8210   -2.0864   -0.7771 H   0  0  0  0  0  0  0  0  0  0  0  0
    1.4330   -4.2034   -0.3323 N   0  0  0  0  0  0  0  0  0  0  0  0
    2.1588   -4.6325   -0.8876 H   0  0  0  0  0  0  0  0  0  0  0  0
    0.5346   -4.8888    0.4575 C   0  0  0  0  0  0  0  0  0  0  0  0
    0.3541   -6.2496    0.7438 C   0  0  0  0  0  0  0  0  0  0  0  0
    0.9986   -6.9929    0.2981 H   0  0  0  0  0  0  0  0  0  0  0  0
   -0.6782   -6.6326    1.6171 C   0  0  0  0  0  0  0  0  0  0  0  0
   -0.8331   -7.6777    1.8487 H   0  0  0  0  0  0  0  0  0  0  0  0
   -1.5149   -5.6544    2.1850 C   0  0  0  0  0  0  0  0  0  0  0  0
   -2.3131   -5.9541    2.8499 H   0  0  0  0  0  0  0  0  0  0  0  0
   -1.3255   -4.2896    1.8887 C   0  0  0  0  0  0  0  0  0  0  0  0
   -1.9837   -3.5496    2.3212 H   0  0  0  0  0  0  0  0  0  0  0  0
   -0.2938   -3.8721    1.0202 C   0  0  0  0  0  0  0  0  0  0  0  0
   -0.7775   -0.4014   -1.4589 C   0  0  0  0  0  0  0  0  0  0  0  0
   -1.4663    0.1075   -2.3422 O   0  0  0  0  0  0  0  0  0  0  0  0
    0.4888   -0.7875   -1.6653 N   0  0  0  0  0  0  0  0  0  0  0  0
    0.9680   -1.2464   -0.9037 H   0  0  0  0  0  0  0  0  0  0  0  0
    1.1927   -0.6503   -2.9373 C   0  0  0  0  0  0  0  0  0  0  0  0
    1.1138    0.3789   -3.2926 H   0  0  0  0  0  0  0  0  0  0  0  0
    2.2449   -0.9102   -2.8143 H   0  0  0  0  0  0  0  0  0  0  0  0
    0.7412   -1.3119   -3.6784 H   0  0  0  0  0  0  0  0  0  0  0  0
  5  6  2  0  0  0  0
  5  7  1  0  0  0  0
  2  3  1  0  0  0  0
  2  4  1  0  0  0  0
  2  5  1  0  0  0  0
  1  2  1  0  0  0  0
 29 30  2  0  0  0  0
 29 31  1  0  0  0  0
 26 27  1  0  0  0  0
 26 28  2  0  0  0  0
 24 25  1  0  0  0  0
 24 26  1  0  0  0  0
 22 23  1  0  0  0  0
 22 24  2  0  0  0  0
 20 21  1  0  0  0  0
 20 22  1  0  0  0  0
 19 20  2  0  0  0  0
 19 28  1  0  0  0  0
 17 18  1  0  0  0  0
 17 19  1  0  0  0  0
 15 16  1  0  0  0  0
 15 17  1  0  0  0  0
 14 15  2  0  0  0  0
 14 28  1  0  0  0  0
 11 12  1  0  0  0  0
 11 13  1  0  0  0  0
 11 14  1  0  0  0  0
  9 10  1  0  0  0  0
  9 11  1  0  0  0  0
  9 29  1  0  0  0  0
  7  8  1  0  0  0  0
  7  9  1  0  0  0  0
 33 34  1  0  0  0  0
 33 35  1  0  0  0  0
 33 36  1  0  0  0  0
 31 32  1  0  0  0  0
 31 33  1  0  0  0  0
M  END
$$$$
default_name
  -OEChem-12212115393D

 36 37  0     1  0  0  0  0  0999 V2000
   -4.0843   -4.0736    1.2944 H   0  0  0  0  0  0  0  0  0  0  0  0
   -4.0342   -3.2816    0.5484 C   0  0  0  0  0  0  0  0  0  0  0  0
   -4.8842   -2.6126    0.6694 H   0  0  0  0  0  0  0  0  0  0  0  0
   -4.0433   -3.7186   -0.4486 H   0  0  0  0  0  0  0  0  0  0  0  0
   -2.7532   -2.5046    0.7444 C   0  0  0  0  0  0  0  0  0  0  0  0
   -1.9803   -2.8096    1.6434 O   0  0  0  0  0  0  0  0  0  0  0  0
   -2.5332   -1.4966   -0.0966 N   0  0  0  0  0  0  0  0  0  0  0  0
   -3.2312   -1.2816   -0.7936 H   0  0  0  0  0  0  0  0  0  0  0  0
   -1.3593   -0.6196   -0.0536 C   0  0  1  0  0  0  0  0  0  0  0  0
   -1.6649    0.3546    0.3297 H   0  0  0  0  0  0  0  0  0  0  0  0
   -0.3154   -1.2076    0.9089 C   0  0  0  0  0  0  0  0  0  0  0  0
    0.5426   -0.5343    0.9512 H   0  0  0  0  0  0  0  0  0  0  0  0
   -0.7506   -1.2511    1.9088 H   0  0  0  0  0  0  0  0  0  0  0  0
    0.1848   -2.5737    0.5488 C   0  0  0  0  0  0  0  0  0  0  0  0
    1.2292   -2.8389   -0.2676 C   0  0  0  0  0  0  0  0  0  0  0  0
    1.8210   -2.0864   -0.7771 H   0  0  0  0  0  0  0  0  0  0  0  0
    1.4330   -4.2034   -0.3323 N   0  0  0  0  0  0  0  0  0  0  0  0
    2.1588   -4.6325   -0.8876 H   0  0  0  0  0  0  0  0  0  0  0  0
    0.5346   -4.8888    0.4575 C   0  0  0  0  0  0  0  0  0  0  0  0
    0.3541   -6.2496    0.7438 C   0  0  0  0  0  0  0  0  0  0  0  0
    0.9986   -6.9929    0.2981 H   0  0  0  0  0  0  0  0  0  0  0  0
   -0.6782   -6.6326    1.6171 C   0  0  0  0  0  0  0  0  0  0  0  0
   -0.8331   -7.6777    1.8487 H   0  0  0  0  0  0  0  0  0  0  0  0
   -1.5149   -5.6544    2.1850 C   0  0  0  0  0  0  0  0  0  0  0  0
   -2.3131   -5.9541    2.8499 H   0  0  0  0  0  0  0  0  0  0  0  0
   -1.3255   -4.2896    1.8887 C   0  0  0  0  0  0  0  0  0  0  0  0
   -1.9837   -3.5496    2.3212 H   0  0  0  0  0  0  0  0  0  0  0  0
   -0.2938   -3.8721    1.0202 C   0  0  0  0  0  0  0  0  0  0  0  0
   -0.7775   -0.4014   -1.4589 C   0  0  0  0  0  0  0  0  0  0  0  0
   -1.3468    0.3428   -2.2562 O   0  0  0  0  0  0  0  0  0  0  0  0
    0.3546   -1.0509   -1.7618 N   0  0  0  0  0  0  0  0  0  0  0  0
    0.7293   -1.6850   -1.0706 H   0  0  0  0  0  0  0  0  0  0  0  0
    1.0389   -0.9533   -3.0480 C   0  0  0  0  0  0  0  0  0  0  0  0
    1.1989    0.0965   -3.3012 H   0  0  0  0  0  0  0  0  0  0  0  0
    2.0014   -1.4643   -3.0011 H   0  0  0  0  0  0  0  0  0  0  0  0
    0.4242   -1.4109   -3.8250 H   0  0  0  0  0  0  0  0  0  0  0  0
  5  6  2  0  0  0  0
  5  7  1  0  0  0  0
  2  3  1  0  0  0  0
  2  4  1  0  0  0  0
  2  5  1  0  0  0  0
  1  2  1  0  0  0  0
 29 30  2  0  0  0  0
 29 31  1  0  0  0  0
 26 27  1  0  0  0  0
 26 28  2  0  0  0  0
 24 25  1  0  0  0  0
 24 26  1  0  0  0  0
 22 23  1  0  0  0  0
 22 24  2  0  0  0  0
 20 21  1  0  0  0  0
 20 22  1  0  0  0  0
 19 20  2  0  0  0  0
 19 28  1  0  0  0  0
 17 18  1  0  0  0  0
 17 19  1  0  0  0  0
 15 16  1  0  0  0  0
 15 17  1  0  0  0  0
 14 15  2  0  0  0  0
 14 28  1  0  0  0  0
 11 12  1  0  0  0  0
 11 13  1  0  0  0  0
 11 14  1  0  0  0  0
  9 10  1  0  0  0  0
  9 11  1  0  0  0  0
  9 29  1  0  0  0  0
  7  8  1  0  0  0  0
  7  9  1  0  0  0  0
 33 34  1  0  0  0  0
 33 35  1  0  0  0  0
 33 36  1  0  0  0  0
 31 32  1  0  0  0  0
 31 33  1  0  0  0  0
M  END
$$$$
default_name
  -OEChem-12212115393D

 36 37  0     1  0  0  0  0  0999 V2000
   -4.0843   -4.0736    1.2944 H   0  0  0  0  0  0  0  0  0  0  0  0
   -4.0342   -3.2816    0.5484 C   0  0  0  0  0  0  0  0  0  0  0  0
   -4.8842   -2.6126    0.6694 H   0  0  0  0  0  0  0  0  0  0  0  0
   -4.0433   -3.7186   -0.4486 H   0  0  0  0  0  0  0  0  0  0  0  0
   -2.7532   -2.5046    0.7444 C   0  0  0  0  0  0  0  0  0  0  0  0
   -1.9803   -2.8096    1.6434 O   0  0  0  0  0  0  0  0  0  0  0  0
   -2.5332   -1.4966   -0.0966 N   0  0  0  0  0  0  0  0  0  0  0  0
   -3.2312   -1.2816   -0.7936 H   0  0  0  0  0  0  0  0  0  0  0  0
   -1.3593   -0.6196   -0.0536 C   0  0  1  0  0  0  0  0  0  0  0  0
   -1.6649    0.3546    0.3297 H   0  0  0  0  0  0  0  0  0  0  0  0
   -0.3154   -1.2076    0.9089 C   0  0  0  0  0  0  0  0  0  0  0  0
    0.5426   -0.5343    0.9512 H   0  0  0  0  0  0  0  0  0  0  0  0
   -0.7506   -1.2511    1.9088 H   0  0  0  0  0  0  0  0  0  0  0  0
    0.1848   -2.5737    0.5488 C   0  0  0  0  0  0  0  0  0  0  0  0
    1.2292   -2.8389   -0.2676 C   0  0  0  0  0  0  0  0  0  0  0  0
    1.8210   -2.0864   -0.7771 H   0  0  0  0  0  0  0  0  0  0  0  0
    1.4330   -4.2034   -0.3323 N   0  0  0  0  0  0  0  0  0  0  0  0
    2.1588   -4.6325   -0.8876 H   0  0  0  0  0  0  0  0  0  0  0  0
    0.5346   -4.8888    0.4575 C   0  0  0  0  0  0  0  0  0  0  0  0
    0.3541   -6.2496    0.7438 C   0  0  0  0  0  0  0  0  0  0  0  0
    0.9986   -6.9929    0.2981 H   0  0  0  0  0  0  0  0  0  0  0  0
   -0.6782   -6.6326    1.6171 C   0  0  0  0  0  0  0  0  0  0  0  0
   -0.8331   -7.6777    1.8487 H   0  0  0  0  0  0  0  0  0  0  0  0
   -1.5149   -5.6544    2.1850 C   0  0  0  0  0  0  0  0  0  0  0  0
   -2.3131   -5.9541    2.8499 H   0  0  0  0  0  0  0  0  0  0  0  0
   -1.3255   -4.2896    1.8887 C   0  0  0  0  0  0  0  0  0  0  0  0
   -1.9837   -3.5496    2.3212 H   0  0  0  0  0  0  0  0  0  0  0  0
   -0.2938   -3.8721    1.0202 C   0  0  0  0  0  0  0  0  0  0  0  0
   -0.7775   -0.4014   -1.4589 C   0  0  0  0  0  0  0  0  0  0  0  0
   -1.1726    0.5333   -2.1545 O   0  0  0  0  0  0  0  0  0  0  0  0
    0.1591   -1.2641   -1.8758 N   0  0  0  0  0  0  0  0  0  0  0  0
    0.3888   -2.0359   -1.2661 H   0  0  0  0  0  0  0  0  0  0  0  0
    0.8146   -1.1987   -3.1790 C   0  0  0  0  0  0  0  0  0  0  0  0
    1.2140   -0.1957   -3.3403 H   0  0  0  0  0  0  0  0  0  0  0  0
    1.6283   -1.9235   -3.2269 H   0  0  0  0  0  0  0  0  0  0  0  0
    0.0893   -1.4171   -3.9646 H   0  0  0  0  0  0  0  0  0  0  0  0
  5  6  2  0  0  0  0
  5  7  1  0  0  0  0
  2  3  1  0  0  0  0
  2  4  1  0  0  0  0
  2  5  1  0  0  0  0
  1  2  1  0  0  0  0
 29 30  2  0  0  0  0
 29 31  1  0  0  0  0
 26 27  1  0  0  0  0
 26 28  2  0  0  0  0
 24 25  1  0  0  0  0
 24 26  1  0  0  0  0
 22 23  1  0  0  0  0
 22 24  2  0  0  0  0
 20 21  1  0  0  0  0
 20 22  1  0  0  0  0
 19 20  2  0  0  0  0
 19 28  1  0  0  0  0
 17 18  1  0  0  0  0
 17 19  1  0  0  0  0
 15 16  1  0  0  0  0
 15 17  1  0  0  0  0
 14 15  2  0  0  0  0
 14 28  1  0  0  0  0
 11 12  1  0  0  0  0
 11 13  1  0  0  0  0
 11 14  1  0  0  0  0
  9 10  1  0  0  0  0
  9 11  1  0  0  0  0
  9 29  1  0  0  0  0
  7  8  1  0  0  0  0
  7  9  1  0  0  0  0
 33 34  1  0  0  0  0
 33 35  1  0  0  0  0
 33 36  1  0  0  0  0
 31 32  1  0  0  0  0
 31 33  1  0  0  0  0
M  END
$$$$
default_name
  -OEChem-12212115393D

 36 37  0     1  0  0  0  0  0999 V2000
   -4.0843   -4.0736    1.2944 H   0  0  0  0  0  0  0  0  0  0  0  0
   -4.0342   -3.2816    0.5484 C   0  0  0  0  0  0  0  0  0  0  0  0
   -4.8842   -2.6126    0.6694 H   0  0  0  0  0  0  0  0  0  0  0  0
   -4.0433   -3.7186   -0.4486 H   0  0  0  0  0  0  0  0  0  0  0  0
   -2.7532   -2.5046    0.7444 C   0  0  0  0  0  0  0  0  0  0  0  0
   -1.9803   -2.8096    1.6434 O   0  0  0  0  0  0  0  0  0  0  0  0
   -2.5332   -1.4966   -0.0966 N   0  0  0  0  0  0  0  0  0  0  0  0
   -3.2312   -1.2816   -0.7936 H   0  0  0  0  0  0  0  0  0  0  0  0
   -1.3593   -0.6196   -0.0536 C   0  0  1  0  0  0  0  0  0  0  0  0
   -1.6649    0.3546    0.3297 H   0  0  0  0  0  0  0  0  0  0  0  0
   -0.3154   -1.2076    0.9089 C   0  0  0  0  0  0  0  0  0  0  0  0
    0.5426   -0.5343    0.9512 H   0  0  0  0  0  0  0  0  0  0  0  0
   -0.7506   -1.2511    1.9088 H   0  0  0  0  0  0  0  0  0  0  0  0
    0.1848   -2.5737    0.5488 C   0  0  0  0  0  0  0  0  0  0  0  0
    1.2292   -2.8389   -0.2676 C   0  0  0  0  0  0  0  0  0  0  0  0
    1.8210   -2.0864   -0.7771 H   0  0  0  0  0  0  0  0  0  0  0  0
    1.4330   -4.2034   -0.3323 N   0  0  0  0  0  0  0  0  0  0  0  0
    2.1588   -4.6325   -0.8876 H   0  0  0  0  0  0  0  0  0  0  0  0
    0.5346   -4.8888    0.4575 C   0  0  0  0  0  0  0  0  0  0  0  0
    0.3541   -6.2496    0.7438 C   0  0  0  0  0  0  0  0  0  0  0  0
    0.9986   -6.9929    0.2981 H   0  0  0  0  0  0  0  0  0  0  0  0
   -0.6782   -6.6326    1.6171 C   0  0  0  0  0  0  0  0  0  0  0  0
   -0.8331   -7.6777    1.8487 H   0  0  0  0  0  0  0  0  0  0  0  0
   -1.5149   -5.6544    2.1850 C   0  0  0  0  0  0  0  0  0  0  0  0
   -2.3131   -5.9541    2.8499 H   0  0  0  0  0  0  0  0  0  0  0  0
   -1.3255   -4.2896    1.8887 C   0  0  0  0  0  0  0  0  0  0  0  0
   -1.9837   -3.5496    2.3212 H   0  0  0  0  0  0  0  0  0  0  0  0
   -0.2938   -3.8721    1.0202 C   0  0  0  0  0  0  0  0  0  0  0  0
   -0.7775   -0.4014   -1.4589 C   0  0  0  0  0  0  0  0  0  0  0  0
   -0.9555    0.6662   -2.0440 O   0  0  0  0  0  0  0  0  0  0  0  0
   -0.0845   -1.4125   -1.9997 N   0  0  0  0  0  0  0  0  0  0  0  0
   -0.0303   -2.2750   -1.4767 H   0  0  0  0  0  0  0  0  0  0  0  0
    0.5350   -1.3699   -3.3214 C   0  0  0  0  0  0  0  0  0  0  0  0
    1.1580   -0.4776   -3.4073 H   0  0  0  0  0  0  0  0  0  0  0  0
    1.1508   -2.2567   -3.4763 H   0  0  0  0  0  0  0  0  0  0  0  0
   -0.2409   -1.3301   -4.0878 H   0  0  0  0  0  0  0  0  0  0  0  0
  5  6  2  0  0  0  0
  5  7  1  0  0  0  0
  2  3  1  0  0  0  0
  2  4  1  0  0  0  0
  2  5  1  0  0  0  0
  1  2  1  0  0  0  0
 29 30  2  0  0  0  0
 29 31  1  0  0  0  0
 26 27  1  0  0  0  0
 26 28  2  0  0  0  0
 24 25  1  0  0  0  0
 24 26  1  0  0  0  0
 22 23  1  0  0  0  0
 22 24  2  0  0  0  0
 20 21  1  0  0  0  0
 20 22  1  0  0  0  0
 19 20  2  0  0  0  0
 19 28  1  0  0  0  0
 17 18  1  0  0  0  0
 17 19  1  0  0  0  0
 15 16  1  0  0  0  0
 15 17  1  0  0  0  0
 14 15  2  0  0  0  0
 14 28  1  0  0  0  0
 11 12  1  0  0  0  0
 11 13  1  0  0  0  0
 11 14  1  0  0  0  0
  9 10  1  0  0  0  0
  9 11  1  0  0  0  0
  9 29  1  0  0  0  0
  7  8  1  0  0  0  0
  7  9  1  0  0  0  0
 33 34  1  0  0  0  0
 33 35  1  0  0  0  0
 33 36  1  0  0  0  0
 31 32  1  0  0  0  0
 31 33  1  0  0  0  0
M  END
$$$$
default_name
  -OEChem-12212115393D

 36 37  0     1  0  0  0  0  0999 V2000
   -4.0843   -4.0736    1.2944 H   0  0  0  0  0  0  0  0  0  0  0  0
   -4.0342   -3.2816    0.5484 C   0  0  0  0  0  0  0  0  0  0  0  0
   -4.8842   -2.6126    0.6694 H   0  0  0  0  0  0  0  0  0  0  0  0
   -4.0433   -3.7186   -0.4486 H   0  0  0  0  0  0  0  0  0  0  0  0
   -2.7532   -2.5046    0.7444 C   0  0  0  0  0  0  0  0  0  0  0  0
   -1.9803   -2.8096    1.6434 O   0  0  0  0  0  0  0  0  0  0  0  0
   -2.5332   -1.4966   -0.0966 N   0  0  0  0  0  0  0  0  0  0  0  0
   -3.2312   -1.2816   -0.7936 H   0  0  0  0  0  0  0  0  0  0  0  0
   -1.3593   -0.6196   -0.0536 C   0  0  1  0  0  0  0  0  0  0  0  0
   -1.6649    0.3546    0.3297 H   0  0  0  0  0  0  0  0  0  0  0  0
   -0.3154   -1.2076    0.9089 C   0  0  0  0  0  0  0  0  0  0  0  0
    0.5426   -0.5343    0.9512 H   0  0  0  0  0  0  0  0  0  0  0  0
   -0.7506   -1.2511    1.9088 H   0  0  0  0  0  0  0  0  0  0  0  0
    0.1848   -2.5737    0.5488 C   0  0  0  0  0  0  0  0  0  0  0  0
    1.2292   -2.8389   -0.2676 C   0  0  0  0  0  0  0  0  0  0  0  0
    1.8210   -2.0864   -0.7771 H   0  0  0  0  0  0  0  0  0  0  0  0
    1.4330   -4.2034   -0.3323 N   0  0  0  0  0  0  0  0  0  0  0  0
    2.1588   -4.6325   -0.8876 H   0  0  0  0  0  0  0  0  0  0  0  0
    0.5346   -4.8888    0.4575 C   0  0  0  0  0  0  0  0  0  0  0  0
    0.3541   -6.2496    0.7438 C   0  0  0  0  0  0  0  0  0  0  0  0
    0.9986   -6.9929    0.2981 H   0  0  0  0  0  0  0  0  0  0  0  0
   -0.6782   -6.6326    1.6171 C   0  0  0  0  0  0  0  0  0  0  0  0
   -0.8331   -7.6777    1.8487 H   0  0  0  0  0  0  0  0  0  0  0  0
   -1.5149   -5.6544    2.1850 C   0  0  0  0  0  0  0  0  0  0  0  0
   -2.3131   -5.9541    2.8499 H   0  0  0  0  0  0  0  0  0  0  0  0
   -1.3255   -4.2896    1.8887 C   0  0  0  0  0  0  0  0  0  0  0  0
   -1.9837   -3.5496    2.3212 H   0  0  0  0  0  0  0  0  0  0  0  0
   -0.2938   -3.8721    1.0202 C   0  0  0  0  0  0  0  0  0  0  0  0
   -0.7775   -0.4014   -1.4589 C   0  0  0  0  0  0  0  0  0  0  0  0
   -0.7102    0.7323   -1.9322 O   0  0  0  0  0  0  0  0  0  0  0  0
   -0.3594   -1.4861   -2.1250 N   0  0  0  0  0  0  0  0  0  0  0  0
   -0.4995   -2.3861   -1.6882 H   0  0  0  0  0  0  0  0  0  0  0  0
    0.2191   -1.4550   -3.4654 C   0  0  0  0  0  0  0  0  0  0  0  0
    1.0347   -0.7301   -3.4976 H   0  0  0  0  0  0  0  0  0  0  0  0
    0.6016   -2.4410   -3.7324 H   0  0  0  0  0  0  0  0  0  0  0  0
   -0.5437   -1.1559   -4.1861 H   0  0  0  0  0  0  0  0  0  0  0  0
  5  6  2  0  0  0  0
  5  7  1  0  0  0  0
  2  3  1  0  0  0  0
  2  4  1  0  0  0  0
  2  5  1  0  0  0  0
  1  2  1  0  0  0  0
 29 30  2  0  0  0  0
 29 31  1  0  0  0  0
 26 27  1  0  0  0  0
 26 28  2  0  0  0  0
 24 25  1  0  0  0  0
 24 26  1  0  0  0  0
 22 23  1  0  0  0  0
 22 24  2  0  0  0  0
 20 21  1  0  0  0  0
 20 22  1  0  0  0  0
 19 20  2  0  0  0  0
 19 28  1  0  0  0  0
 17 18  1  0  0  0  0
 17 19  1  0  0  0  0
 15 16  1  0  0  0  0
 15 17  1  0  0  0  0
 14 15  2  0  0  0  0
 14 28  1  0  0  0  0
 11 12  1  0  0  0  0
 11 13  1  0  0  0  0
 11 14  1  0  0  0  0
  9 10  1  0  0  0  0
  9 11  1  0  0  0  0
  9 29  1  0  0  0  0
  7  8  1  0  0  0  0
  7  9  1  0  0  0  0
 33 34  1  0  0  0  0
 33 35  1  0  0  0  0
 33 36  1  0  0  0  0
 31 32  1  0  0  0  0
 31 33  1  0  0  0  0
M  END
$$$$
default_name
  -OEChem-12212115393D

 36 37  0     1  0  0  0  0  0999 V2000
   -4.0843   -4.0736    1.2944 H   0  0  0  0  0  0  0  0  0  0  0  0
   -4.0342   -3.2816    0.5484 C   0  0  0  0  0  0  0  0  0  0  0  0
   -4.8842   -2.6126    0.6694 H   0  0  0  0  0  0  0  0  0  0  0  0
   -4.0433   -3.7186   -0.4486 H   0  0  0  0  0  0  0  0  0  0  0  0
   -2.7532   -2.5046    0.7444 C   0  0  0  0  0  0  0  0  0  0  0  0
   -1.9803   -2.8096    1.6434 O   0  0  0  0  0  0  0  0  0  0  0  0
   -2.5332   -1.4966   -0.0966 N   0  0  0  0  0  0  0  0  0  0  0  0
   -3.2312   -1.2816   -0.7936 H   0  0  0  0  0  0  0  0  0  0  0  0
   -1.3593   -0.6196   -0.0536 C   0  0  1  0  0  0  0  0  0  0  0  0
   -1.6649    0.3546    0.3297 H   0  0  0  0  0  0  0  0  0  0  0  0
   -0.3154   -1.2076    0.9089 C   0  0  0  0  0  0  0  0  0  0  0  0
    0.5426   -0.5343    0.9512 H   0  0  0  0  0  0  0  0  0  0  0  0
   -0.7506   -1.2511    1.9088 H   0  0  0  0  0  0  0  0  0  0  0  0
    0.1848   -2.5737    0.5488 C   0  0  0  0  0  0  0  0  0  0  0  0
    1.2292   -2.8389   -0.2676 C   0  0  0  0  0  0  0  0  0  0  0  0
    1.8210   -2.0864   -0.7771 H   0  0  0  0  0  0  0  0  0  0  0  0
    1.4330   -4.2034   -0.3323 N   0  0  0  0  0  0  0  0  0  0  0  0
    2.1588   -4.6325   -0.8876 H   0  0  0  0  0  0  0  0  0  0  0  0
    0.5346   -4.8888    0.4575 C   0  0  0  0  0  0  0  0  0  0  0  0
    0.3541   -6.2496    0.7438 C   0  0  0  0  0  0  0  0  0  0  0  0
    0.9986   -6.9929    0.2981 H   0  0  0  0  0  0  0  0  0  0  0  0
   -0.6782   -6.6326    1.6171 C   0  0  0  0  0  0  0  0  0  0  0  0
   -0.8331   -7.6777    1.8487 H   0  0  0  0  0  0  0  0  0  0  0  0
   -1.5149   -5.6544    2.1850 C   0  0  0  0  0  0  0  0  0  0  0  0
   -2.3131   -5.9541    2.8499 H   0  0  0  0  0  0  0  0  0  0  0  0
   -1.3255   -4.2896    1.8887 C   0  0  0  0  0  0  0  0  0  0  0  0
   -1.9837   -3.5496    2.3212 H   0  0  0  0  0  0  0  0  0  0  0  0
   -0.2938   -3.8721    1.0202 C   0  0  0  0  0  0  0  0  0  0  0  0
   -0.7775   -0.4014   -1.4589 C   0  0  0  0  0  0  0  0  0  0  0  0
   -0.4536    0.7271   -1.8267 O   0  0  0  0  0  0  0  0  0  0  0  0
   -0.6470   -1.4799   -2.2431 N   0  0  0  0  0  0  0  0  0  0  0  0
   -0.9868   -2.3616   -1.8861 H   0  0  0  0  0  0  0  0  0  0  0  0
   -0.1114   -1.4484   -3.6012 C   0  0  0  0  0  0  0  0  0  0  0  0
    0.8525   -0.9359   -3.6050 H   0  0  0  0  0  0  0  0  0  0  0  0
    0.0180   -2.4640   -3.9775 H   0  0  0  0  0  0  0  0  0  0  0  0
   -0.7986   -0.9063   -4.2529 H   0  0  0  0  0  0  0  0  0  0  0  0
  5  6  2  0  0  0  0
  5  7  1  0  0  0  0
  2  3  1  0  0  0  0
  2  4  1  0  0  0  0
  2  5  1  0  0  0  0
  1  2  1  0  0  0  0
 29 30  2  0  0  0  0
 29 31  1  0  0  0  0
 26 27  1  0  0  0  0
 26 28  2  0  0  0  0
 24 25  1  0  0  0  0
 24 26  1  0  0  0  0
 22 23  1  0  0  0  0
 22 24  2  0  0  0  0
 20 21  1  0  0  0  0
 20 22  1  0  0  0  0
 19 20  2  0  0  0  0
 19 28  1  0  0  0  0
 17 18  1  0  0  0  0
 17 19  1  0  0  0  0
 15 16  1  0  0  0  0
 15 17  1  0  0  0  0
 14 15  2  0  0  0  0
 14 28  1  0  0  0  0
 11 12  1  0  0  0  0
 11 13  1  0  0  0  0
 11 14  1  0  0  0  0
  9 10  1  0  0  0  0
  9 11  1  0  0  0  0
  9 29  1  0  0  0  0
  7  8  1  0  0  0  0
  7  9  1  0  0  0  0
 33 34  1  0  0  0  0
 33 35  1  0  0  0  0
 33 36  1  0  0  0  0
 31 32  1  0  0  0  0
 31 33  1  0  0  0  0
M  END
$$$$
default_name
  -OEChem-12212115393D

 36 37  0     1  0  0  0  0  0999 V2000
   -4.0843   -4.0736    1.2944 H   0  0  0  0  0  0  0  0  0  0  0  0
   -4.0342   -3.2816    0.5484 C   0  0  0  0  0  0  0  0  0  0  0  0
   -4.8842   -2.6126    0.6694 H   0  0  0  0  0  0  0  0  0  0  0  0
   -4.0433   -3.7186   -0.4486 H   0  0  0  0  0  0  0  0  0  0  0  0
   -2.7532   -2.5046    0.7444 C   0  0  0  0  0  0  0  0  0  0  0  0
   -1.9803   -2.8096    1.6434 O   0  0  0  0  0  0  0  0  0  0  0  0
   -2.5332   -1.4966   -0.0966 N   0  0  0  0  0  0  0  0  0  0  0  0
   -3.2312   -1.2816   -0.7936 H   0  0  0  0  0  0  0  0  0  0  0  0
   -1.3593   -0.6196   -0.0536 C   0  0  1  0  0  0  0  0  0  0  0  0
   -1.6649    0.3546    0.3297 H   0  0  0  0  0  0  0  0  0  0  0  0
   -0.3154   -1.2076    0.9089 C   0  0  0  0  0  0  0  0  0  0  0  0
    0.5426   -0.5343    0.9512 H   0  0  0  0  0  0  0  0  0  0  0  0
   -0.7506   -1.2511    1.9088 H   0  0  0  0  0  0  0  0  0  0  0  0
    0.1848   -2.5737    0.5488 C   0  0  0  0  0  0  0  0  0  0  0  0
    1.2292   -2.8389   -0.2676 C   0  0  0  0  0  0  0  0  0  0  0  0
    1.8210   -2.0864   -0.7771 H   0  0  0  0  0  0  0  0  0  0  0  0
    1.4330   -4.2034   -0.3323 N   0  0  0  0  0  0  0  0  0  0  0  0
    2.1588   -4.6325   -0.8876 H   0  0  0  0  0  0  0  0  0  0  0  0
    0.5346   -4.8888    0.4575 C   0  0  0  0  0  0  0  0  0  0  0  0
    0.3541   -6.2496    0.7438 C   0  0  0  0  0  0  0  0  0  0  0  0
    0.9986   -6.9929    0.2981 H   0  0  0  0  0  0  0  0  0  0  0  0
   -0.6782   -6.6326    1.6171 C   0  0  0  0  0  0  0  0  0  0  0  0
   -0.8331   -7.6777    1.8487 H   0  0  0  0  0  0  0  0  0  0  0  0
   -1.5149   -5.6544    2.1850 C   0  0  0  0  0  0  0  0  0  0  0  0
   -2.3131   -5.9541    2.8499 H   0  0  0  0  0  0  0  0  0  0  0  0
   -1.3255   -4.2896    1.8887 C   0  0  0  0  0  0  0  0  0  0  0  0
   -1.9837   -3.5496    2.3212 H   0  0  0  0  0  0  0  0  0  0  0  0
   -0.2938   -3.8721    1.0202 C   0  0  0  0  0  0  0  0  0  0  0  0
   -0.7775   -0.4014   -1.4589 C   0  0  0  0  0  0  0  0  0  0  0  0
   -0.2030    0.6510   -1.7348 O   0  0  0  0  0  0  0  0  0  0  0  0
   -0.9277   -1.3942   -2.3459 N   0  0  0  0  0  0  0  0  0  0  0  0
   -1.4589   -2.2033   -2.0570 H   0  0  0  0  0  0  0  0  0  0  0  0
   -0.4341   -1.3505   -3.7196 C   0  0  0  0  0  0  0  0  0  0  0  0
    0.6238   -1.0811   -3.7222 H   0  0  0  0  0  0  0  0  0  0  0  0
   -0.5601   -2.3240   -4.1951 H   0  0  0  0  0  0  0  0  0  0  0  0
   -0.9882   -0.5983   -4.2835 H   0  0  0  0  0  0  0  0  0  0  0  0
  5  6  2  0  0  0  0
  5  7  1  0  0  0  0
  2  3  1  0  0  0  0
  2  4  1  0  0  0  0
  2  5  1  0  0  0  0
  1  2  1  0  0  0  0
 29 30  2  0  0  0  0
 29 31  1  0  0  0  0
 26 27  1  0  0  0  0
 26 28  2  0  0  0  0
 24 25  1  0  0  0  0
 24 26  1  0  0  0  0
 22 23  1  0  0  0  0
 22 24  2  0  0  0  0
 20 21  1  0  0  0  0
 20 22  1  0  0  0  0
 19 20  2  0  0  0  0
 19 28  1  0  0  0  0
 17 18  1  0  0  0  0
 17 19  1  0  0  0  0
 15 16  1  0  0  0  0
 15 17  1  0  0  0  0
 14 15  2  0  0  0  0
 14 28  1  0  0  0  0
 11 12  1  0  0  0  0
 11 13  1  0  0  0  0
 11 14  1  0  0  0  0
  9 10  1  0  0  0  0
  9 11  1  0  0  0  0
  9 29  1  0  0  0  0
  7  8  1  0  0  0  0
  7  9  1  0  0  0  0
 33 34  1  0  0  0  0
 33 35  1  0  0  0  0
 33 36  1  0  0  0  0
 31 32  1  0  0  0  0
 31 33  1  0  0  0  0
M  END
$$$$
default_name
  -OEChem-12212115393D

 36 37  0     1  0  0  0  0  0999 V2000
   -4.0843   -4.0736    1.2944 H   0  0  0  0  0  0  0  0  0  0  0  0
   -4.0342   -3.2816    0.5484 C   0  0  0  0  0  0  0  0  0  0  0  0
   -4.8842   -2.6126    0.6694 H   0  0  0  0  0  0  0  0  0  0  0  0
   -4.0433   -3.7186   -0.4486 H   0  0  0  0  0  0  0  0  0  0  0  0
   -2.7532   -2.5046    0.7444 C   0  0  0  0  0  0  0  0  0  0  0  0
   -1.9803   -2.8096    1.6434 O   0  0  0  0  0  0  0  0  0  0  0  0
   -2.5332   -1.4966   -0.0966 N   0  0  0  0  0  0  0  0  0  0  0  0
   -3.2312   -1.2816   -0.7936 H   0  0  0  0  0  0  0  0  0  0  0  0
   -1.3593   -0.6196   -0.0536 C   0  0  1  0  0  0  0  0  0  0  0  0
   -1.6649    0.3546    0.3297 H   0  0  0  0  0  0  0  0  0  0  0  0
   -0.3154   -1.2076    0.9089 C   0  0  0  0  0  0  0  0  0  0  0  0
    0.5426   -0.5343    0.9512 H   0  0  0  0  0  0  0  0  0  0  0  0
   -0.7506   -1.2511    1.9088 H   0  0  0  0  0  0  0  0  0  0  0  0
    0.1848   -2.5737    0.5488 C   0  0  0  0  0  0  0  0  0  0  0  0
    1.2292   -2.8389   -0.2676 C   0  0  0  0  0  0  0  0  0  0  0  0
    1.8210   -2.0864   -0.7771 H   0  0  0  0  0  0  0  0  0  0  0  0
    1.4330   -4.2034   -0.3323 N   0  0  0  0  0  0  0  0  0  0  0  0
    2.1588   -4.6325   -0.8876 H   0  0  0  0  0  0  0  0  0  0  0  0
    0.5346   -4.8888    0.4575 C   0  0  0  0  0  0  0  0  0  0  0  0
    0.3541   -6.2496    0.7438 C   0  0  0  0  0  0  0  0  0  0  0  0
    0.9986   -6.9929    0.2981 H   0  0  0  0  0  0  0  0  0  0  0  0
   -0.6782   -6.6326    1.6171 C   0  0  0  0  0  0  0  0  0  0  0  0
   -0.8331   -7.6777    1.8487 H   0  0  0  0  0  0  0  0  0  0  0  0
   -1.5149   -5.6544    2.1850 C   0  0  0  0  0  0  0  0  0  0  0  0
   -2.3131   -5.9541    2.8499 H   0  0  0  0  0  0  0  0  0  0  0  0
   -1.3255   -4.2896    1.8887 C   0  0  0  0  0  0  0  0  0  0  0  0
   -1.9837   -3.5496    2.3212 H   0  0  0  0  0  0  0  0  0  0  0  0
   -0.2938   -3.8721    1.0202 C   0  0  0  0  0  0  0  0  0  0  0  0
   -0.7775   -0.4014   -1.4589 C   0  0  0  0  0  0  0  0  0  0  0  0
    0.0244    0.5092   -1.6627 O   0  0  0  0  0  0  0  0  0  0  0  0
   -1.1823   -1.2349   -2.4266 N   0  0  0  0  0  0  0  0  0  0  0  0
   -1.8838   -1.9218   -2.1892 H   0  0  0  0  0  0  0  0  0  0  0  0
   -0.7269   -1.1679   -3.8124 C   0  0  0  0  0  0  0  0  0  0  0  0
    0.3643   -1.1557   -3.8412 H   0  0  0  0  0  0  0  0  0  0  0  0
   -1.0933   -2.0306   -4.3703 H   0  0  0  0  0  0  0  0  0  0  0  0
   -1.0995   -0.2529   -4.2760 H   0  0  0  0  0  0  0  0  0  0  0  0
  5  6  2  0  0  0  0
  5  7  1  0  0  0  0
  2  3  1  0  0  0  0
  2  4  1  0  0  0  0
  2  5  1  0  0  0  0
  1  2  1  0  0  0  0
 29 30  2  0  0  0  0
 29 31  1  0  0  0  0
 26 27  1  0  0  0  0
 26 28  2  0  0  0  0
 24 25  1  0  0  0  0
 24 26  1  0  0  0  0
 22 23  1  0  0  0  0
 22 24  2  0  0  0  0
 20 21  1  0  0  0  0
 20 22  1  0  0  0  0
 19 20  2  0  0  0  0
 19 28  1  0  0  0  0
 17 18  1  0  0  0  0
 17 19  1  0  0  0  0
 15 16  1  0  0  0  0
 15 17  1  0  0  0  0
 14 15  2  0  0  0  0
 14 28  1  0  0  0  0
 11 12  1  0  0  0  0
 11 13  1  0  0  0  0
 11 14  1  0  0  0  0
  9 10  1  0  0  0  0
  9 11  1  0  0  0  0
  9 29  1  0  0  0  0
  7  8  1  0  0  0  0
  7  9  1  0  0  0  0
 33 34  1  0  0  0  0
 33 35  1  0  0  0  0
 33 36  1  0  0  0  0
 31 32  1  0  0  0  0
 31 33  1  0  0  0  0
M  END
$$$$
default_name
  -OEChem-12212115393D

 36 37  0     1  0  0  0  0  0999 V2000
   -4.0843   -4.0736    1.2944 H   0  0  0  0  0  0  0  0  0  0  0  0
   -4.0342   -3.2816    0.5484 C   0  0  0  0  0  0  0  0  0  0  0  0
   -4.8842   -2.6126    0.6694 H   0  0  0  0  0  0  0  0  0  0  0  0
   -4.0433   -3.7186   -0.4486 H   0  0  0  0  0  0  0  0  0  0  0  0
   -2.7532   -2.5046    0.7444 C   0  0  0  0  0  0  0  0  0  0  0  0
   -1.9803   -2.8096    1.6434 O   0  0  0  0  0  0  0  0  0  0  0  0
   -2.5332   -1.4966   -0.0966 N   0  0  0  0  0  0  0  0  0  0  0  0
   -3.2312   -1.2816   -0.7936 H   0  0  0  0  0  0  0  0  0  0  0  0
   -1.3593   -0.6196   -0.0536 C   0  0  1  0  0  0  0  0  0  0  0  0
   -1.6649    0.3546    0.3297 H   0  0  0  0  0  0  0  0  0  0  0  0
   -0.3154   -1.2076    0.9089 C   0  0  0  0  0  0  0  0  0  0  0  0
    0.5426   -0.5343    0.9512 H   0  0  0  0  0  0  0  0  0  0  0  0
   -0.7506   -1.2511    1.9088 H   0  0  0  0  0  0  0  0  0  0  0  0
    0.1848   -2.5737    0.5488 C   0  0  0  0  0  0  0  0  0  0  0  0
    1.2292   -2.8389   -0.2676 C   0  0  0  0  0  0  0  0  0  0  0  0
    1.8210   -2.0864   -0.7771 H   0  0  0  0  0  0  0  0  0  0  0  0
    1.4330   -4.2034   -0.3323 N   0  0  0  0  0  0  0  0  0  0  0  0
    2.1588   -4.6325   -0.8876 H   0  0  0  0  0  0  0  0  0  0  0  0
    0.5346   -4.8888    0.4575 C   0  0  0  0  0  0  0  0  0  0  0  0
    0.3541   -6.2496    0.7438 C   0  0  0  0  0  0  0  0  0  0  0  0
    0.9986   -6.9929    0.2981 H   0  0  0  0  0  0  0  0  0  0  0  0
   -0.6782   -6.6326    1.6171 C   0  0  0  0  0  0  0  0  0  0  0  0
   -0.8331   -7.6777    1.8487 H   0  0  0  0  0  0  0  0  0  0  0  0
   -1.5149   -5.6544    2.1850 C   0  0  0  0  0  0  0  0  0  0  0  0
   -2.3131   -5.9541    2.8499 H   0  0  0  0  0  0  0  0  0  0  0  0
   -1.3255   -4.2896    1.8887 C   0  0  0  0  0  0  0  0  0  0  0  0
   -1.9837   -3.5496    2.3212 H   0  0  0  0  0  0  0  0  0  0  0  0
   -0.2938   -3.8721    1.0202 C   0  0  0  0  0  0  0  0  0  0  0  0
   -0.7775   -0.4014   -1.4589 C   0  0  0  0  0  0  0  0  0  0  0  0
    0.2131    0.3114   -1.6153 O   0  0  0  0  0  0  0  0  0  0  0  0
   -1.3934   -1.0129   -2.4796 N   0  0  0  0  0  0  0  0  0  0  0  0
   -2.2324   -1.5364   -2.2737 H   0  0  0  0  0  0  0  0  0  0  0  0
   -0.9700   -0.9131   -3.8735 C   0  0  0  0  0  0  0  0  0  0  0  0
    0.0915   -1.1547   -3.9540 H   0  0  0  0  0  0  0  0  0  0  0  0
   -1.5454   -1.6038   -4.4912 H   0  0  0  0  0  0  0  0  0  0  0  0
   -1.1250    0.1063   -4.2307 H   0  0  0  0  0  0  0  0  0  0  0  0
  5  6  2  0  0  0  0
  5  7  1  0  0  0  0
  2  3  1  0  0  0  0
  2  4  1  0  0  0  0
  2  5  1  0  0  0  0
  1  2  1  0  0  0  0
 29 30  2  0  0  0  0
 29 31  1  0  0  0  0
 26 27  1  0  0  0  0
 26 28  2  0  0  0  0
 24 25  1  0  0  0  0
 24 26  1  0  0  0  0
 22 23  1  0  0  0  0
 22 24  2  0  0  0  0
 20 21  1  0  0  0  0
 20 22  1  0  0  0  0
 19 20  2  0  0  0  0
 19 28  1  0  0  0  0
 17 18  1  0  0  0  0
 17 19  1  0  0  0  0
 15 16  1  0  0  0  0
 15 17  1  0  0  0  0
 14 15  2  0  0  0  0
 14 28  1  0  0  0  0
 11 12  1  0  0  0  0
 11 13  1  0  0  0  0
 11 14  1  0  0  0  0
  9 10  1  0  0  0  0
  9 11  1  0  0  0  0
  9 29  1  0  0  0  0
  7  8  1  0  0  0  0
  7  9  1  0  0  0  0
 33 34  1  0  0  0  0
 33 35  1  0  0  0  0
 33 36  1  0  0  0  0
 31 32  1  0  0  0  0
 31 33  1  0  0  0  0
M  END
$$$$
default_name
  -OEChem-12212115393D

 36 37  0     1  0  0  0  0  0999 V2000
   -4.0843   -4.0736    1.2944 H   0  0  0  0  0  0  0  0  0  0  0  0
   -4.0342   -3.2816    0.5484 C   0  0  0  0  0  0  0  0  0  0  0  0
   -4.8842   -2.6126    0.6694 H   0  0  0  0  0  0  0  0  0  0  0  0
   -4.0433   -3.7186   -0.4486 H   0  0  0  0  0  0  0  0  0  0  0  0
   -2.7532   -2.5046    0.7444 C   0  0  0  0  0  0  0  0  0  0  0  0
   -1.9803   -2.8096    1.6434 O   0  0  0  0  0  0  0  0  0  0  0  0
   -2.5332   -1.4966   -0.0966 N   0  0  0  0  0  0  0  0  0  0  0  0
   -3.2312   -1.2816   -0.7936 H   0  0  0  0  0  0  0  0  0  0  0  0
   -1.3593   -0.6196   -0.0536 C   0  0  1  0  0  0  0  0  0  0  0  0
   -1.6649    0.3546    0.3297 H   0  0  0  0  0  0  0  0  0  0  0  0
   -0.3154   -1.2076    0.9089 C   0  0  0  0  0  0  0  0  0  0  0  0
    0.5426   -0.5343    0.9512 H   0  0  0  0  0  0  0  0  0  0  0  0
   -0.7506   -1.2511    1.9088 H   0  0  0  0  0  0  0  0  0  0  0  0
    0.1848   -2.5737    0.5488 C   0  0  0  0  0  0  0  0  0  0  0  0
    1.2292   -2.8389   -0.2676 C   0  0  0  0  0  0  0  0  0  0  0  0
    1.8210   -2.0864   -0.7771 H   0  0  0  0  0  0  0  0  0  0  0  0
    1.4330   -4.2034   -0.3323 N   0  0  0  0  0  0  0  0  0  0  0  0
    2.1588   -4.6325   -0.8876 H   0  0  0  0  0  0  0  0  0  0  0  0
    0.5346   -4.8888    0.4575 C   0  0  0  0  0  0  0  0  0  0  0  0
    0.3541   -6.2496    0.7438 C   0  0  0  0  0  0  0  0  0  0  0  0
    0.9986   -6.9929    0.2981 H   0  0  0  0  0  0  0  0  0  0  0  0
   -0.6782   -6.6326    1.6171 C   0  0  0  0  0  0  0  0  0  0  0  0
   -0.8331   -7.6777    1.8487 H   0  0  0  0  0  0  0  0  0  0  0  0
   -1.5149   -5.6544    2.1850 C   0  0  0  0  0  0  0  0  0  0  0  0
   -2.3131   -5.9541    2.8499 H   0  0  0  0  0  0  0  0  0  0  0  0
   -1.3255   -4.2896    1.8887 C   0  0  0  0  0  0  0  0  0  0  0  0
   -1.9837   -3.5496    2.3212 H   0  0  0  0  0  0  0  0  0  0  0  0
   -0.2938   -3.8721    1.0202 C   0  0  0  0  0  0  0  0  0  0  0  0
   -0.7775   -0.4014   -1.4589 C   0  0  0  0  0  0  0  0  0  0  0  0
    0.3503    0.0709   -1.5958 O   0  0  0  0  0  0  0  0  0  0  0  0
   -1.5468   -0.7433   -2.5012 N   0  0  0  0  0  0  0  0  0  0  0  0
   -2.4810   -1.0733   -2.3047 H   0  0  0  0  0  0  0  0  0  0  0  0
   -1.1467   -0.6035   -3.8986 C   0  0  0  0  0  0  0  0  0  0  0  0
   -0.1758   -1.0781   -4.0528 H   0  0  0  0  0  0  0  0  0  0  0  0
   -1.8856   -1.0727   -4.5495 H   0  0  0  0  0  0  0  0  0  0  0  0
   -1.0629    0.4549   -4.1509 H   0  0  0  0  0  0  0  0  0  0  0  0
  5  6  2  0  0  0  0
  5  7  1  0  0  0  0
  2  3  1  0  0  0  0
  2  4  1  0  0  0  0
  2  5  1  0  0  0  0
  1  2  1  0  0  0  0
 29 30  2  0  0  0  0
 29 31  1  0  0  0  0
 26 27  1  0  0  0  0
 26 28  2  0  0  0  0
 24 25  1  0  0  0  0
 24 26  1  0  0  0  0
 22 23  1  0  0  0  0
 22 24  2  0  0  0  0
 20 21  1  0  0  0  0
 20 22  1  0  0  0  0
 19 20  2  0  0  0  0
 19 28  1  0  0  0  0
 17 18  1  0  0  0  0
 17 19  1  0  0  0  0
 15 16  1  0  0  0  0
 15 17  1  0  0  0  0
 14 15  2  0  0  0  0
 14 28  1  0  0  0  0
 11 12  1  0  0  0  0
 11 13  1  0  0  0  0
 11 14  1  0  0  0  0
  9 10  1  0  0  0  0
  9 11  1  0  0  0  0
  9 29  1  0  0  0  0
  7  8  1  0  0  0  0
  7  9  1  0  0  0  0
 33 34  1  0  0  0  0
 33 35  1  0  0  0  0
 33 36  1  0  0  0  0
 31 32  1  0  0  0  0
 31 33  1  0  0  0  0
M  END
$$$$
default_name
  -OEChem-12212115393D

 36 37  0     1  0  0  0  0  0999 V2000
   -4.0843   -4.0736    1.2944 H   0  0  0  0  0  0  0  0  0  0  0  0
   -4.0342   -3.2816    0.5484 C   0  0  0  0  0  0  0  0  0  0  0  0
   -4.8842   -2.6126    0.6694 H   0  0  0  0  0  0  0  0  0  0  0  0
   -4.0433   -3.7186   -0.4486 H   0  0  0  0  0  0  0  0  0  0  0  0
   -2.7532   -2.5046    0.7444 C   0  0  0  0  0  0  0  0  0  0  0  0
   -1.9803   -2.8096    1.6434 O   0  0  0  0  0  0  0  0  0  0  0  0
   -2.5332   -1.4966   -0.0966 N   0  0  0  0  0  0  0  0  0  0  0  0
   -3.2312   -1.2816   -0.7936 H   0  0  0  0  0  0  0  0  0  0  0  0
   -1.3593   -0.6196   -0.0536 C   0  0  1  0  0  0  0  0  0  0  0  0
   -1.6649    0.3546    0.3297 H   0  0  0  0  0  0  0  0  0  0  0  0
   -0.3154   -1.2076    0.9089 C   0  0  0  0  0  0  0  0  0  0  0  0
    0.5426   -0.5343    0.9512 H   0  0  0  0  0  0  0  0  0  0  0  0
   -0.7506   -1.2511    1.9088 H   0  0  0  0  0  0  0  0  0  0  0  0
    0.1848   -2.5737    0.5488 C   0  0  0  0  0  0  0  0  0  0  0  0
    1.2292   -2.8389   -0.2676 C   0  0  0  0  0  0  0  0  0  0  0  0
    1.8210   -2.0864   -0.7771 H   0  0  0  0  0  0  0  0  0  0  0  0
    1.4330   -4.2034   -0.3323 N   0  0  0  0  0  0  0  0  0  0  0  0
    2.1588   -4.6325   -0.8876 H   0  0  0  0  0  0  0  0  0  0  0  0
    0.5346   -4.8888    0.4575 C   0  0  0  0  0  0  0  0  0  0  0  0
    0.3541   -6.2496    0.7438 C   0  0  0  0  0  0  0  0  0  0  0  0
    0.9986   -6.9929    0.2981 H   0  0  0  0  0  0  0  0  0  0  0  0
   -0.6782   -6.6326    1.6171 C   0  0  0  0  0  0  0  0  0  0  0  0
   -0.8331   -7.6777    1.8487 H   0  0  0  0  0  0  0  0  0  0  0  0
   -1.5149   -5.6544    2.1850 C   0  0  0  0  0  0  0  0  0  0  0  0
   -2.3131   -5.9541    2.8499 H   0  0  0  0  0  0  0  0  0  0  0  0
   -1.3255   -4.2896    1.8887 C   0  0  0  0  0  0  0  0  0  0  0  0
   -1.9837   -3.5496    2.3212 H   0  0  0  0  0  0  0  0  0  0  0  0
   -0.2938   -3.8721    1.0202 C   0  0  0  0  0  0  0  0  0  0  0  0
   -0.7775   -0.4014   -1.4589 C   0  0  0  0  0  0  0  0  0  0  0  0
    0.4266   -0.1957   -1.6057 O   0  0  0  0  0  0  0  0  0  0  0  0
   -1.6319   -0.4444   -2.4900 N   0  0  0  0  0  0  0  0  0  0  0  0
   -2.6127   -0.5641   -2.2801 H   0  0  0  0  0  0  0  0  0  0  0  0
   -1.2451   -0.2601   -3.8860 C   0  0  0  0  0  0  0  0  0  0  0  0
   -0.4196   -0.9311   -4.1308 H   0  0  0  0  0  0  0  0  0  0  0  0
   -2.0905   -0.4734   -4.5413 H   0  0  0  0  0  0  0  0  0  0  0  0
   -0.9175    0.7691   -4.0419 H   0  0  0  0  0  0  0  0  0  0  0  0
  5  6  2  0  0  0  0
  5  7  1  0  0  0  0
  2  3  1  0  0  0  0
  2  4  1  0  0  0  0
  2  5  1  0  0  0  0
  1  2  1  0  0  0  0
 29 30  2  0  0  0  0
 29 31  1  0  0  0  0
 26 27  1  0  0  0  0
 26 28  2  0  0  0  0
 24 25  1  0  0  0  0
 24 26  1  0  0  0  0
 22 23  1  0  0  0  0
 22 24  2  0  0  0  0
 20 21  1  0  0  0  0
 20 22  1  0  0  0  0
 19 20  2  0  0  0  0
 19 28  1  0  0  0  0
 17 18  1  0  0  0  0
 17 19  1  0  0  0  0
 15 16  1  0  0  0  0
 15 17  1  0  0  0  0
 14 15  2  0  0  0  0
 14 28  1  0  0  0  0
 11 12  1  0  0  0  0
 11 13  1  0  0  0  0
 11 14  1  0  0  0  0
  9 10  1  0  0  0  0
  9 11  1  0  0  0  0
  9 29  1  0  0  0  0
  7  8  1  0  0  0  0
  7  9  1  0  0  0  0
 33 34  1  0  0  0  0
 33 35  1  0  0  0  0
 33 36  1  0  0  0  0
 31 32  1  0  0  0  0
 31 33  1  0  0  0  0
M  END
$$$$
default_name
  -OEChem-12212115393D

 36 37  0     1  0  0  0  0  0999 V2000
   -4.0843   -4.0736    1.2944 H   0  0  0  0  0  0  0  0  0  0  0  0
   -4.0342   -3.2816    0.5484 C   0  0  0  0  0  0  0  0  0  0  0  0
   -4.8842   -2.6126    0.6694 H   0  0  0  0  0  0  0  0  0  0  0  0
   -4.0433   -3.7186   -0.4486 H   0  0  0  0  0  0  0  0  0  0  0  0
   -2.7532   -2.5046    0.7444 C   0  0  0  0  0  0  0  0  0  0  0  0
   -1.9803   -2.8096    1.6434 O   0  0  0  0  0  0  0  0  0  0  0  0
   -2.5332   -1.4966   -0.0966 N   0  0  0  0  0  0  0  0  0  0  0  0
   -3.2312   -1.2816   -0.7936 H   0  0  0  0  0  0  0  0  0  0  0  0
   -1.3593   -0.6196   -0.0536 C   0  0  1  0  0  0  0  0  0  0  0  0
   -1.6649    0.3546    0.3297 H   0  0  0  0  0  0  0  0  0  0  0  0
   -0.3154   -1.2076    0.9089 C   0  0  0  0  0  0  0  0  0  0  0  0
    0.5426   -0.5343    0.9512 H   0  0  0  0  0  0  0  0  0  0  0  0
   -0.7506   -1.2511    1.9088 H   0  0  0  0  0  0  0  0  0  0  0  0
    0.1848   -2.5737    0.5488 C   0  0  0  0  0  0  0  0  0  0  0  0
    1.2292   -2.8389   -0.2676 C   0  0  0  0  0  0  0  0  0  0  0  0
    1.8210   -2.0864   -0.7771 H   0  0  0  0  0  0  0  0  0  0  0  0
    1.4330   -4.2034   -0.3323 N   0  0  0  0  0  0  0  0  0  0  0  0
    2.1588   -4.6325   -0.8876 H   0  0  0  0  0  0  0  0  0  0  0  0
    0.5346   -4.8888    0.4575 C   0  0  0  0  0  0  0  0  0  0  0  0
    0.3541   -6.2496    0.7438 C   0  0  0  0  0  0  0  0  0  0  0  0
    0.9986   -6.9929    0.2981 H   0  0  0  0  0  0  0  0  0  0  0  0
   -0.6782   -6.6326    1.6171 C   0  0  0  0  0  0  0  0  0  0  0  0
   -0.8331   -7.6777    1.8487 H   0  0  0  0  0  0  0  0  0  0  0  0
   -1.5149   -5.6544    2.1850 C   0  0  0  0  0  0  0  0  0  0  0  0
   -2.3131   -5.9541    2.8499 H   0  0  0  0  0  0  0  0  0  0  0  0
   -1.3255   -4.2896    1.8887 C   0  0  0  0  0  0  0  0  0  0  0  0
   -1.9837   -3.5496    2.3212 H   0  0  0  0  0  0  0  0  0  0  0  0
   -0.2938   -3.8721    1.0202 C   0  0  0  0  0  0  0  0  0  0  0  0
   -0.7775   -0.4014   -1.4589 C   0  0  0  0  0  0  0  0  0  0  0  0
    0.4369   -0.4703   -1.6441 O   0  0  0  0  0  0  0  0  0  0  0  0
   -1.6430   -0.1366   -2.4468 N   0  0  0  0  0  0  0  0  0  0  0  0
   -2.6184   -0.0435   -2.2016 H   0  0  0  0  0  0  0  0  0  0  0  0
   -1.2583    0.0936   -3.8365 C   0  0  0  0  0  0  0  0  0  0  0  0
   -0.6231   -0.7238   -4.1829 H   0  0  0  0  0  0  0  0  0  0  0  0
   -2.1463    0.1531   -4.4671 H   0  0  0  0  0  0  0  0  0  0  0  0
   -0.6987    1.0275   -3.9112 H   0  0  0  0  0  0  0  0  0  0  0  0
  5  6  2  0  0  0  0
  5  7  1  0  0  0  0
  2  3  1  0  0  0  0
  2  4  1  0  0  0  0
  2  5  1  0  0  0  0
  1  2  1  0  0  0  0
 29 30  2  0  0  0  0
 29 31  1  0  0  0  0
 26 27  1  0  0  0  0
 26 28  2  0  0  0  0
 24 25  1  0  0  0  0
 24 26  1  0  0  0  0
 22 23  1  0  0  0  0
 22 24  2  0  0  0  0
 20 21  1  0  0  0  0
 20 22  1  0  0  0  0
 19 20  2  0  0  0  0
 19 28  1  0  0  0  0
 17 18  1  0  0  0  0
 17 19  1  0  0  0  0
 15 16  1  0  0  0  0
 15 17  1  0  0  0  0
 14 15  2  0  0  0  0
 14 28  1  0  0  0  0
 11 12  1  0  0  0  0
 11 13  1  0  0  0  0
 11 14  1  0  0  0  0
  9 10  1  0  0  0  0
  9 11  1  0  0  0  0
  9 29  1  0  0  0  0
  7  8  1  0  0  0  0
  7  9  1  0  0  0  0
 33 34  1  0  0  0  0
 33 35  1  0  0  0  0
 33 36  1  0  0  0  0
 31 32  1  0  0  0  0
 31 33  1  0  0  0  0
M  END
$$$$
default_name
  -OEChem-12212115393D

 36 37  0     1  0  0  0  0  0999 V2000
   -4.0843   -4.0736    1.2944 H   0  0  0  0  0  0  0  0  0  0  0  0
   -4.0342   -3.2816    0.5484 C   0  0  0  0  0  0  0  0  0  0  0  0
   -4.8842   -2.6126    0.6694 H   0  0  0  0  0  0  0  0  0  0  0  0
   -4.0433   -3.7186   -0.4486 H   0  0  0  0  0  0  0  0  0  0  0  0
   -2.7532   -2.5046    0.7444 C   0  0  0  0  0  0  0  0  0  0  0  0
   -1.9803   -2.8096    1.6434 O   0  0  0  0  0  0  0  0  0  0  0  0
   -2.5332   -1.4966   -0.0966 N   0  0  0  0  0  0  0  0  0  0  0  0
   -3.2312   -1.2816   -0.7936 H   0  0  0  0  0  0  0  0  0  0  0  0
   -1.3593   -0.6196   -0.0536 C   0  0  1  0  0  0  0  0  0  0  0  0
   -1.6649    0.3546    0.3297 H   0  0  0  0  0  0  0  0  0  0  0  0
   -0.3154   -1.2076    0.9089 C   0  0  0  0  0  0  0  0  0  0  0  0
    0.5426   -0.5343    0.9512 H   0  0  0  0  0  0  0  0  0  0  0  0
   -0.7506   -1.2511    1.9088 H   0  0  0  0  0  0  0  0  0  0  0  0
    0.1848   -2.5737    0.5488 C   0  0  0  0  0  0  0  0  0  0  0  0
    1.2292   -2.8389   -0.2676 C   0  0  0  0  0  0  0  0  0  0  0  0
    1.8210   -2.0864   -0.7771 H   0  0  0  0  0  0  0  0  0  0  0  0
    1.4330   -4.2034   -0.3323 N   0  0  0  0  0  0  0  0  0  0  0  0
    2.1588   -4.6325   -0.8876 H   0  0  0  0  0  0  0  0  0  0  0  0
    0.5346   -4.8888    0.4575 C   0  0  0  0  0  0  0  0  0  0  0  0
    0.3541   -6.2496    0.7438 C   0  0  0  0  0  0  0  0  0  0  0  0
    0.9986   -6.9929    0.2981 H   0  0  0  0  0  0  0  0  0  0  0  0
   -0.6782   -6.6326    1.6171 C   0  0  0  0  0  0  0  0  0  0  0  0
   -0.8331   -7.6777    1.8487 H   0  0  0  0  0  0  0  0  0  0  0  0
   -1.5149   -5.6544    2.1850 C   0  0  0  0  0  0  0  0  0  0  0  0
   -2.3131   -5.9541    2.8499 H   0  0  0  0  0  0  0  0  0  0  0  0
   -1.3255   -4.2896    1.8887 C   0  0  0  0  0  0  0  0  0  0  0  0
   -1.9837   -3.5496    2.3212 H   0  0  0  0  0  0  0  0  0  0  0  0
   -0.2938   -3.8721    1.0202 C   0  0  0  0  0  0  0  0  0  0  0  0
   -0.7775   -0.4014   -1.4589 C   0  0  0  0  0  0  0  0  0  0  0  0
    0.3804   -0.7343   -1.7085 O   0  0  0  0  0  0  0  0  0  0  0  0
   -1.5792    0.1590   -2.3745 N   0  0  0  0  0  0  0  0  0  0  0  0
   -2.4979    0.4531   -2.0746 H   0  0  0  0  0  0  0  0  0  0  0  0
   -1.1856    0.4335   -3.7536 C   0  0  0  0  0  0  0  0  0  0  0  0
   -0.7725   -0.4703   -4.2054 H   0  0  0  0  0  0  0  0  0  0  0  0
   -2.0492    0.7642   -4.3320 H   0  0  0  0  0  0  0  0  0  0  0  0
   -0.4214    1.2125   -3.7676 H   0  0  0  0  0  0  0  0  0  0  0  0
  5  6  2  0  0  0  0
  5  7  1  0  0  0  0
  2  3  1  0  0  0  0
  2  4  1  0  0  0  0
  2  5  1  0  0  0  0
  1  2  1  0  0  0  0
 29 30  2  0  0  0  0
 29 31  1  0  0  0  0
 26 27  1  0  0  0  0
 26 28  2  0  0  0  0
 24 25  1  0  0  0  0
 24 26  1  0  0  0  0
 22 23  1  0  0  0  0
 22 24  2  0  0  0  0
 20 21  1  0  0  0  0
 20 22  1  0  0  0  0
 19 20  2  0  0  0  0
 19 28  1  0  0  0  0
 17 18  1  0  0  0  0
 17 19  1  0  0  0  0
 15 16  1  0  0  0  0
 15 17  1  0  0  0  0
 14 15  2  0  0  0  0
 14 28  1  0  0  0  0
 11 12  1  0  0  0  0
 11 13  1  0  0  0  0
 11 14  1  0  0  0  0
  9 10  1  0  0  0  0
  9 11  1  0  0  0  0
  9 29  1  0  0  0  0
  7  8  1  0  0  0  0
  7  9  1  0  0  0  0
 33 34  1  0  0  0  0
 33 35  1  0  0  0  0
 33 36  1  0  0  0  0
 31 32  1  0  0  0  0
 31 33  1  0  0  0  0
M  END
$$$$
default_name
  -OEChem-12212115393D

 36 37  0     1  0  0  0  0  0999 V2000
   -4.0843   -4.0736    1.2944 H   0  0  0  0  0  0  0  0  0  0  0  0
   -4.0342   -3.2816    0.5484 C   0  0  0  0  0  0  0  0  0  0  0  0
   -4.8842   -2.6126    0.6694 H   0  0  0  0  0  0  0  0  0  0  0  0
   -4.0433   -3.7186   -0.4486 H   0  0  0  0  0  0  0  0  0  0  0  0
   -2.7532   -2.5046    0.7444 C   0  0  0  0  0  0  0  0  0  0  0  0
   -1.9803   -2.8096    1.6434 O   0  0  0  0  0  0  0  0  0  0  0  0
   -2.5332   -1.4966   -0.0966 N   0  0  0  0  0  0  0  0  0  0  0  0
   -3.2312   -1.2816   -0.7936 H   0  0  0  0  0  0  0  0  0  0  0  0
   -1.3593   -0.6196   -0.0536 C   0  0  1  0  0  0  0  0  0  0  0  0
   -1.6649    0.3546    0.3297 H   0  0  0  0  0  0  0  0  0  0  0  0
   -0.3154   -1.2076    0.9089 C   0  0  0  0  0  0  0  0  0  0  0  0
    0.5426   -0.5343    0.9512 H   0  0  0  0  0  0  0  0  0  0  0  0
   -0.7506   -1.2511    1.9088 H   0  0  0  0  0  0  0  0  0  0  0  0
    0.1848   -2.5737    0.5488 C   0  0  0  0  0  0  0  0  0  0  0  0
    1.2292   -2.8389   -0.2676 C   0  0  0  0  0  0  0  0  0  0  0  0
    1.8210   -2.0864   -0.7771 H   0  0  0  0  0  0  0  0  0  0  0  0
    1.4330   -4.2034   -0.3323 N   0  0  0  0  0  0  0  0  0  0  0  0
    2.1588   -4.6325   -0.8876 H   0  0  0  0  0  0  0  0  0  0  0  0
    0.5346   -4.8888    0.4575 C   0  0  0  0  0  0  0  0  0  0  0  0
    0.3541   -6.2496    0.7438 C   0  0  0  0  0  0  0  0  0  0  0  0
    0.9986   -6.9929    0.2981 H   0  0  0  0  0  0  0  0  0  0  0  0
   -0.6782   -6.6326    1.6171 C   0  0  0  0  0  0  0  0  0  0  0  0
   -0.8331   -7.6777    1.8487 H   0  0  0  0  0  0  0  0  0  0  0  0
   -1.5149   -5.6544    2.1850 C   0  0  0  0  0  0  0  0  0  0  0  0
   -2.3131   -5.9541    2.8499 H   0  0  0  0  0  0  0  0  0  0  0  0
   -1.3255   -4.2896    1.8887 C   0  0  0  0  0  0  0  0  0  0  0  0
   -1.9837   -3.5496    2.3212 H   0  0  0  0  0  0  0  0  0  0  0  0
   -0.2938   -3.8721    1.0202 C   0  0  0  0  0  0  0  0  0  0  0  0
   -0.7775   -0.4014   -1.4589 C   0  0  0  0  0  0  0  0  0  0  0  0
    0.2609   -0.9696   -1.7945 O   0  0  0  0  0  0  0  0  0  0  0  0
   -1.4450    0.4224   -2.2780 N   0  0  0  0  0  0  0  0  0  0  0  0
   -2.2592    0.8917   -1.9077 H   0  0  0  0  0  0  0  0  0  0  0  0
   -1.0318    0.7366   -3.6429 C   0  0  0  0  0  0  0  0  0  0  0  0
   -0.8577   -0.1879   -4.1968 H   0  0  0  0  0  0  0  0  0  0  0  0
   -1.8058    1.3183   -4.1451 H   0  0  0  0  0  0  0  0  0  0  0  0
   -0.1045    1.3114   -3.6211 H   0  0  0  0  0  0  0  0  0  0  0  0
  5  6  2  0  0  0  0
  5  7  1  0  0  0  0
  2  3  1  0  0  0  0
  2  4  1  0  0  0  0
  2  5  1  0  0  0  0
  1  2  1  0  0  0  0
 29 30  2  0  0  0  0
 29 31  1  0  0  0  0
 26 27  1  0  0  0  0
 26 28  2  0  0  0  0
 24 25  1  0  0  0  0
 24 26  1  0  0  0  0
 22 23  1  0  0  0  0
 22 24  2  0  0  0  0
 20 21  1  0  0  0  0
 20 22  1  0  0  0  0
 19 20  2  0  0  0  0
 19 28  1  0  0  0  0
 17 18  1  0  0  0  0
 17 19  1  0  0  0  0
 15 16  1  0  0  0  0
 15 17  1  0  0  0  0
 14 15  2  0  0  0  0
 14 28  1  0  0  0  0
 11 12  1  0  0  0  0
 11 13  1  0  0  0  0
 11 14  1  0  0  0  0
  9 10  1  0  0  0  0
  9 11  1  0  0  0  0
  9 29  1  0  0  0  0
  7  8  1  0  0  0  0
  7  9  1  0  0  0  0
 33 34  1  0  0  0  0
 33 35  1  0  0  0  0
 33 36  1  0  0  0  0
 31 32  1  0  0  0  0
 31 33  1  0  0  0  0
M  END
$$$$
default_name
  -OEChem-12212115393D

 36 37  0     1  0  0  0  0  0999 V2000
   -4.0843   -4.0736    1.2944 H   0  0  0  0  0  0  0  0  0  0  0  0
   -4.0342   -3.2816    0.5484 C   0  0  0  0  0  0  0  0  0  0  0  0
   -4.8842   -2.6126    0.6694 H   0  0  0  0  0  0  0  0  0  0  0  0
   -4.0433   -3.7186   -0.4486 H   0  0  0  0  0  0  0  0  0  0  0  0
   -2.7532   -2.5046    0.7444 C   0  0  0  0  0  0  0  0  0  0  0  0
   -1.9803   -2.8096    1.6434 O   0  0  0  0  0  0  0  0  0  0  0  0
   -2.5332   -1.4966   -0.0966 N   0  0  0  0  0  0  0  0  0  0  0  0
   -3.2312   -1.2816   -0.7936 H   0  0  0  0  0  0  0  0  0  0  0  0
   -1.3593   -0.6196   -0.0536 C   0  0  1  0  0  0  0  0  0  0  0  0
   -1.6649    0.3546    0.3297 H   0  0  0  0  0  0  0  0  0  0  0  0
   -0.3154   -1.2076    0.9089 C   0  0  0  0  0  0  0  0  0  0  0  0
    0.5426   -0.5343    0.9512 H   0  0  0  0  0  0  0  0  0  0  0  0
   -0.7506   -1.2511    1.9088 H   0  0  0  0  0  0  0  0  0  0  0  0
    0.1848   -2.5737    0.5488 C   0  0  0  0  0  0  0  0  0  0  0  0
    1.2292   -2.8389   -0.2676 C   0  0  0  0  0  0  0  0  0  0  0  0
    1.8210   -2.0864   -0.7771 H   0  0  0  0  0  0  0  0  0  0  0  0
    1.4330   -4.2034   -0.3323 N   0  0  0  0  0  0  0  0  0  0  0  0
    2.1588   -4.6325   -0.8876 H   0  0  0  0  0  0  0  0  0  0  0  0
    0.5346   -4.8888    0.4575 C   0  0  0  0  0  0  0  0  0  0  0  0
    0.3541   -6.2496    0.7438 C   0  0  0  0  0  0  0  0  0  0  0  0
    0.9986   -6.9929    0.2981 H   0  0  0  0  0  0  0  0  0  0  0  0
   -0.6782   -6.6326    1.6171 C   0  0  0  0  0  0  0  0  0  0  0  0
   -0.8331   -7.6777    1.8487 H   0  0  0  0  0  0  0  0  0  0  0  0
   -1.5149   -5.6544    2.1850 C   0  0  0  0  0  0  0  0  0  0  0  0
   -2.3131   -5.9541    2.8499 H   0  0  0  0  0  0  0  0  0  0  0  0
   -1.3255   -4.2896    1.8887 C   0  0  0  0  0  0  0  0  0  0  0  0
   -1.9837   -3.5496    2.3212 H   0  0  0  0  0  0  0  0  0  0  0  0
   -0.2938   -3.8721    1.0202 C   0  0  0  0  0  0  0  0  0  0  0  0
   -0.7775   -0.4014   -1.4589 C   0  0  0  0  0  0  0  0  0  0  0  0
    0.0867   -1.1601   -1.8962 O   0  0  0  0  0  0  0  0  0  0  0  0
   -1.2495    0.6356   -2.1639 N   0  0  0  0  0  0  0  0  0  0  0  0
   -1.9187    1.2425   -1.7122 H   0  0  0  0  0  0  0  0  0  0  0  0
   -0.8074    0.9820   -3.5119 C   0  0  0  0  0  0  0  0  0  0  0  0
   -0.8727    0.1043   -4.1577 H   0  0  0  0  0  0  0  0  0  0  0  0
   -1.4326    1.7775   -3.9193 H   0  0  0  0  0  0  0  0  0  0  0  0
    0.2305    1.3176   -3.4814 H   0  0  0  0  0  0  0  0  0  0  0  0
  5  6  2  0  0  0  0
  5  7  1  0  0  0  0
  2  3  1  0  0  0  0
  2  4  1  0  0  0  0
  2  5  1  0  0  0  0
  1  2  1  0  0  0  0
 29 30  2  0  0  0  0
 29 31  1  0  0  0  0
 26 27  1  0  0  0  0
 26 28  2  0  0  0  0
 24 25  1  0  0  0  0
 24 26  1  0  0  0  0
 22 23  1  0  0  0  0
 22 24  2  0  0  0  0
 20 21  1  0  0  0  0
 20 22  1  0  0  0  0
 19 20  2  0  0  0  0
 19 28  1  0  0  0  0
 17 18  1  0  0  0  0
 17 19  1  0  0  0  0
 15 16  1  0  0  0  0
 15 17  1  0  0  0  0
 14 15  2  0  0  0  0
 14 28  1  0  0  0  0
 11 12  1  0  0  0  0
 11 13  1  0  0  0  0
 11 14  1  0  0  0  0
  9 10  1  0  0  0  0
  9 11  1  0  0  0  0
  9 29  1  0  0  0  0
  7  8  1  0  0  0  0
  7  9  1  0  0  0  0
 33 34  1  0  0  0  0
 33 35  1  0  0  0  0
 33 36  1  0  0  0  0
 31 32  1  0  0  0  0
 31 33  1  0  0  0  0
M  END
$$$$
default_name
  -OEChem-12212115393D

 36 37  0     1  0  0  0  0  0999 V2000
   -4.0843   -4.0736    1.2944 H   0  0  0  0  0  0  0  0  0  0  0  0
   -4.0342   -3.2816    0.5484 C   0  0  0  0  0  0  0  0  0  0  0  0
   -4.8842   -2.6126    0.6694 H   0  0  0  0  0  0  0  0  0  0  0  0
   -4.0433   -3.7186   -0.4486 H   0  0  0  0  0  0  0  0  0  0  0  0
   -2.7532   -2.5046    0.7444 C   0  0  0  0  0  0  0  0  0  0  0  0
   -1.9803   -2.8096    1.6434 O   0  0  0  0  0  0  0  0  0  0  0  0
   -2.5332   -1.4966   -0.0966 N   0  0  0  0  0  0  0  0  0  0  0  0
   -3.2312   -1.2816   -0.7936 H   0  0  0  0  0  0  0  0  0  0  0  0
   -1.3593   -0.6196   -0.0536 C   0  0  1  0  0  0  0  0  0  0  0  0
   -1.6649    0.3546    0.3297 H   0  0  0  0  0  0  0  0  0  0  0  0
   -0.3154   -1.2076    0.9089 C   0  0  0  0  0  0  0  0  0  0  0  0
    0.5426   -0.5343    0.9512 H   0  0  0  0  0  0  0  0  0  0  0  0
   -0.7506   -1.2511    1.9088 H   0  0  0  0  0  0  0  0  0  0  0  0
    0.1848   -2.5737    0.5488 C   0  0  0  0  0  0  0  0  0  0  0  0
    1.2292   -2.8389   -0.2676 C   0  0  0  0  0  0  0  0  0  0  0  0
    1.8210   -2.0864   -0.7771 H   0  0  0  0  0  0  0  0  0  0  0  0
    1.4330   -4.2034   -0.3323 N   0  0  0  0  0  0  0  0  0  0  0  0
    2.1588   -4.6325   -0.8876 H   0  0  0  0  0  0  0  0  0  0  0  0
    0.5346   -4.8888    0.4575 C   0  0  0  0  0  0  0  0  0  0  0  0
    0.3541   -6.2496    0.7438 C   0  0  0  0  0  0  0  0  0  0  0  0
    0.9986   -6.9929    0.2981 H   0  0  0  0  0  0  0  0  0  0  0  0
   -0.6782   -6.6326    1.6171 C   0  0  0  0  0  0  0  0  0  0  0  0
   -0.8331   -7.6777    1.8487 H   0  0  0  0  0  0  0  0  0  0  0  0
   -1.5149   -5.6544    2.1850 C   0  0  0  0  0  0  0  0  0  0  0  0
   -2.3131   -5.9541    2.8499 H   0  0  0  0  0  0  0  0  0  0  0  0
   -1.3255   -4.2896    1.8887 C   0  0  0  0  0  0  0  0  0  0  0  0
   -1.9837   -3.5496    2.3212 H   0  0  0  0  0  0  0  0  0  0  0  0
   -0.2938   -3.8721    1.0202 C   0  0  0  0  0  0  0  0  0  0  0  0
   -0.7775   -0.4014   -1.4589 C   0  0  0  0  0  0  0  0  0  0  0  0
   -0.1304   -1.2930   -2.0067 O   0  0  0  0  0  0  0  0  0  0  0  0
   -1.0059    0.7840   -2.0400 N   0  0  0  0  0  0  0  0  0  0  0  0
   -1.4996    1.4816   -1.5015 H   0  0  0  0  0  0  0  0  0  0  0  0
   -0.5278    1.1531   -3.3695 C   0  0  0  0  0  0  0  0  0  0  0  0
   -0.8167    0.3862   -4.0907 H   0  0  0  0  0  0  0  0  0  0  0  0
   -0.9551    2.1107   -3.6699 H   0  0  0  0  0  0  0  0  0  0  0  0
    0.5606    1.2307   -3.3582 H   0  0  0  0  0  0  0  0  0  0  0  0
  5  6  2  0  0  0  0
  5  7  1  0  0  0  0
  2  3  1  0  0  0  0
  2  4  1  0  0  0  0
  2  5  1  0  0  0  0
  1  2  1  0  0  0  0
 29 30  2  0  0  0  0
 29 31  1  0  0  0  0
 26 27  1  0  0  0  0
 26 28  2  0  0  0  0
 24 25  1  0  0  0  0
 24 26  1  0  0  0  0
 22 23  1  0  0  0  0
 22 24  2  0  0  0  0
 20 21  1  0  0  0  0
 20 22  1  0  0  0  0
 19 20  2  0  0  0  0
 19 28  1  0  0  0  0
 17 18  1  0  0  0  0
 17 19  1  0  0  0  0
 15 16  1  0  0  0  0
 15 17  1  0  0  0  0
 14 15  2  0  0  0  0
 14 28  1  0  0  0  0
 11 12  1  0  0  0  0
 11 13  1  0  0  0  0
 11 14  1  0  0  0  0
  9 10  1  0  0  0  0
  9 11  1  0  0  0  0
  9 29  1  0  0  0  0
  7  8  1  0  0  0  0
  7  9  1  0  0  0  0
 33 34  1  0  0  0  0
 33 35  1  0  0  0  0
 33 36  1  0  0  0  0
 31 32  1  0  0  0  0
 31 33  1  0  0  0  0
M  END
$$$$
default_name
  -OEChem-12212115393D

 36 37  0     1  0  0  0  0  0999 V2000
   -4.0843   -4.0736    1.2944 H   0  0  0  0  0  0  0  0  0  0  0  0
   -4.0342   -3.2816    0.5484 C   0  0  0  0  0  0  0  0  0  0  0  0
   -4.8842   -2.6126    0.6694 H   0  0  0  0  0  0  0  0  0  0  0  0
   -4.0433   -3.7186   -0.4486 H   0  0  0  0  0  0  0  0  0  0  0  0
   -2.7532   -2.5046    0.7444 C   0  0  0  0  0  0  0  0  0  0  0  0
   -1.9803   -2.8096    1.6434 O   0  0  0  0  0  0  0  0  0  0  0  0
   -2.5332   -1.4966   -0.0966 N   0  0  0  0  0  0  0  0  0  0  0  0
   -3.2312   -1.2816   -0.7936 H   0  0  0  0  0  0  0  0  0  0  0  0
   -1.3593   -0.6196   -0.0536 C   0  0  1  0  0  0  0  0  0  0  0  0
   -1.6649    0.3546    0.3297 H   0  0  0  0  0  0  0  0  0  0  0  0
   -0.3154   -1.2076    0.9089 C   0  0  0  0  0  0  0  0  0  0  0  0
    0.5426   -0.5343    0.9512 H   0  0  0  0  0  0  0  0  0  0  0  0
   -0.7506   -1.2511    1.9088 H   0  0  0  0  0  0  0  0  0  0  0  0
    0.1848   -2.5737    0.5488 C   0  0  0  0  0  0  0  0  0  0  0  0
    1.2292   -2.8389   -0.2676 C   0  0  0  0  0  0  0  0  0  0  0  0
    1.8210   -2.0864   -0.7771 H   0  0  0  0  0  0  0  0  0  0  0  0
    1.4330   -4.2034   -0.3323 N   0  0  0  0  0  0  0  0  0  0  0  0
    2.1588   -4.6325   -0.8876 H   0  0  0  0  0  0  0  0  0  0  0  0
    0.5346   -4.8888    0.4575 C   0  0  0  0  0  0  0  0  0  0  0  0
    0.3541   -6.2496    0.7438 C   0  0  0  0  0  0  0  0  0  0  0  0
    0.9986   -6.9929    0.2981 H   0  0  0  0  0  0  0  0  0  0  0  0
   -0.6782   -6.6326    1.6171 C   0  0  0  0  0  0  0  0  0  0  0  0
   -0.8331   -7.6777    1.8487 H   0  0  0  0  0  0  0  0  0  0  0  0
   -1.5149   -5.6544    2.1850 C   0  0  0  0  0  0  0  0  0  0  0  0
   -2.3131   -5.9541    2.8499 H   0  0  0  0  0  0  0  0  0  0  0  0
   -1.3255   -4.2896    1.8887 C   0  0  0  0  0  0  0  0  0  0  0  0
   -1.9837   -3.5496    2.3212 H   0  0  0  0  0  0  0  0  0  0  0  0
   -0.2938   -3.8721    1.0202 C   0  0  0  0  0  0  0  0  0  0  0  0
   -0.7775   -0.4014   -1.4589 C   0  0  0  0  0  0  0  0  0  0  0  0
   -0.3757   -1.3591   -2.1185 O   0  0  0  0  0  0  0  0  0  0  0  0
   -0.7310    0.8576   -1.9148 N   0  0  0  0  0  0  0  0  0  0  0  0
   -1.0304    1.5927   -1.2900 H   0  0  0  0  0  0  0  0  0  0  0  0
   -0.2120    1.2383   -3.2255 C   0  0  0  0  0  0  0  0  0  0  0  0
   -0.6934    0.6387   -4.0004 H   0  0  0  0  0  0  0  0  0  0  0  0
   -0.4059    2.2950   -3.4139 H   0  0  0  0  0  0  0  0  0  0  0  0
    0.8635    1.0564   -3.2599 H   0  0  0  0  0  0  0  0  0  0  0  0
  5  6  2  0  0  0  0
  5  7  1  0  0  0  0
  2  3  1  0  0  0  0
  2  4  1  0  0  0  0
  2  5  1  0  0  0  0
  1  2  1  0  0  0  0
 29 30  2  0  0  0  0
 29 31  1  0  0  0  0
 26 27  1  0  0  0  0
 26 28  2  0  0  0  0
 24 25  1  0  0  0  0
 24 26  1  0  0  0  0
 22 23  1  0  0  0  0
 22 24  2  0  0  0  0
 20 21  1  0  0  0  0
 20 22  1  0  0  0  0
 19 20  2  0  0  0  0
 19 28  1  0  0  0  0
 17 18  1  0  0  0  0
 17 19  1  0  0  0  0
 15 16  1  0  0  0  0
 15 17  1  0  0  0  0
 14 15  2  0  0  0  0
 14 28  1  0  0  0  0
 11 12  1  0  0  0  0
 11 13  1  0  0  0  0
 11 14  1  0  0  0  0
  9 10  1  0  0  0  0
  9 11  1  0  0  0  0
  9 29  1  0  0  0  0
  7  8  1  0  0  0  0
  7  9  1  0  0  0  0
 33 34  1  0  0  0  0
 33 35  1  0  0  0  0
 33 36  1  0  0  0  0
 31 32  1  0  0  0  0
 31 33  1  0  0  0  0
M  END
$$$$
default_name
  -OEChem-12212115393D

 36 37  0     1  0  0  0  0  0999 V2000
   -4.0843   -4.0736    1.2944 H   0  0  0  0  0  0  0  0  0  0  0  0
   -4.0342   -3.2816    0.5484 C   0  0  0  0  0  0  0  0  0  0  0  0
   -4.8842   -2.6126    0.6694 H   0  0  0  0  0  0  0  0  0  0  0  0
   -4.0433   -3.7186   -0.4486 H   0  0  0  0  0  0  0  0  0  0  0  0
   -2.7532   -2.5046    0.7444 C   0  0  0  0  0  0  0  0  0  0  0  0
   -1.9803   -2.8096    1.6434 O   0  0  0  0  0  0  0  0  0  0  0  0
   -2.5332   -1.4966   -0.0966 N   0  0  0  0  0  0  0  0  0  0  0  0
   -3.2312   -1.2816   -0.7936 H   0  0  0  0  0  0  0  0  0  0  0  0
   -1.3593   -0.6196   -0.0536 C   0  0  1  0  0  0  0  0  0  0  0  0
   -1.6649    0.3546    0.3297 H   0  0  0  0  0  0  0  0  0  0  0  0
   -0.3154   -1.2076    0.9089 C   0  0  0  0  0  0  0  0  0  0  0  0
    0.5426   -0.5343    0.9512 H   0  0  0  0  0  0  0  0  0  0  0  0
   -0.7506   -1.2511    1.9088 H   0  0  0  0  0  0  0  0  0  0  0  0
    0.1848   -2.5737    0.5488 C   0  0  0  0  0  0  0  0  0  0  0  0
    1.2292   -2.8389   -0.2676 C   0  0  0  0  0  0  0  0  0  0  0  0
    1.8210   -2.0864   -0.7771 H   0  0  0  0  0  0  0  0  0  0  0  0
    1.4330   -4.2034   -0.3323 N   0  0  0  0  0  0  0  0  0  0  0  0
    2.1588   -4.6325   -0.8876 H   0  0  0  0  0  0  0  0  0  0  0  0
    0.5346   -4.8888    0.4575 C   0  0  0  0  0  0  0  0  0  0  0  0
    0.3541   -6.2496    0.7438 C   0  0  0  0  0  0  0  0  0  0  0  0
    0.9986   -6.9929    0.2981 H   0  0  0  0  0  0  0  0  0  0  0  0
   -0.6782   -6.6326    1.6171 C   0  0  0  0  0  0  0  0  0  0  0  0
   -0.8331   -7.6777    1.8487 H   0  0  0  0  0  0  0  0  0  0  0  0
   -1.5149   -5.6544    2.1850 C   0  0  0  0  0  0  0  0  0  0  0  0
   -2.3131   -5.9541    2.8499 H   0  0  0  0  0  0  0  0  0  0  0  0
   -1.3255   -4.2896    1.8887 C   0  0  0  0  0  0  0  0  0  0  0  0
   -1.9837   -3.5496    2.3212 H   0  0  0  0  0  0  0  0  0  0  0  0
   -0.2938   -3.8721    1.0202 C   0  0  0  0  0  0  0  0  0  0  0  0
   -0.7775   -0.4014   -1.4589 C   0  0  0  0  0  0  0  0  0  0  0  0
   -0.6323   -1.3539   -2.2239 O   0  0  0  0  0  0  0  0  0  0  0  0
   -0.4434    0.8514   -1.7967 N   0  0  0  0  0  0  0  0  0  0  0  0
   -0.5431    1.5683   -1.0921 H   0  0  0  0  0  0  0  0  0  0  0  0
    0.1185    1.2317   -3.0897 C   0  0  0  0  0  0  0  0  0  0  0  0
   -0.5112    0.8445   -3.8930 H   0  0  0  0  0  0  0  0  0  0  0  0
    0.1776    2.3179   -3.1687 H   0  0  0  0  0  0  0  0  0  0  0  0
    1.1184    0.8068   -3.1932 H   0  0  0  0  0  0  0  0  0  0  0  0
  5  6  2  0  0  0  0
  5  7  1  0  0  0  0
  2  3  1  0  0  0  0
  2  4  1  0  0  0  0
  2  5  1  0  0  0  0
  1  2  1  0  0  0  0
 29 30  2  0  0  0  0
 29 31  1  0  0  0  0
 26 27  1  0  0  0  0
 26 28  2  0  0  0  0
 24 25  1  0  0  0  0
 24 26  1  0  0  0  0
 22 23  1  0  0  0  0
 22 24  2  0  0  0  0
 20 21  1  0  0  0  0
 20 22  1  0  0  0  0
 19 20  2  0  0  0  0
 19 28  1  0  0  0  0
 17 18  1  0  0  0  0
 17 19  1  0  0  0  0
 15 16  1  0  0  0  0
 15 17  1  0  0  0  0
 14 15  2  0  0  0  0
 14 28  1  0  0  0  0
 11 12  1  0  0  0  0
 11 13  1  0  0  0  0
 11 14  1  0  0  0  0
  9 10  1  0  0  0  0
  9 11  1  0  0  0  0
  9 29  1  0  0  0  0
  7  8  1  0  0  0  0
  7  9  1  0  0  0  0
 33 34  1  0  0  0  0
 33 35  1  0  0  0  0
 33 36  1  0  0  0  0
 31 32  1  0  0  0  0
 31 33  1  0  0  0  0
M  END
$$$$
default_name
  -OEChem-12212115393D

 36 37  0     1  0  0  0  0  0999 V2000
   -4.0843   -4.0736    1.2944 H   0  0  0  0  0  0  0  0  0  0  0  0
   -4.0342   -3.2816    0.5484 C   0  0  0  0  0  0  0  0  0  0  0  0
   -4.8842   -2.6126    0.6694 H   0  0  0  0  0  0  0  0  0  0  0  0
   -4.0433   -3.7186   -0.4486 H   0  0  0  0  0  0  0  0  0  0  0  0
   -2.7532   -2.5046    0.7444 C   0  0  0  0  0  0  0  0  0  0  0  0
   -1.9803   -2.8096    1.6434 O   0  0  0  0  0  0  0  0  0  0  0  0
   -2.5332   -1.4966   -0.0966 N   0  0  0  0  0  0  0  0  0  0  0  0
   -3.2312   -1.2816   -0.7936 H   0  0  0  0  0  0  0  0  0  0  0  0
   -1.3593   -0.6196   -0.0536 C   0  0  1  0  0  0  0  0  0  0  0  0
   -1.6649    0.3546    0.3297 H   0  0  0  0  0  0  0  0  0  0  0  0
   -0.3154   -1.2076    0.9089 C   0  0  0  0  0  0  0  0  0  0  0  0
    0.5426   -0.5343    0.9512 H   0  0  0  0  0  0  0  0  0  0  0  0
   -0.7506   -1.2511    1.9088 H   0  0  0  0  0  0  0  0  0  0  0  0
    0.1848   -2.5737    0.5488 C   0  0  0  0  0  0  0  0  0  0  0  0
    1.2292   -2.8389   -0.2676 C   0  0  0  0  0  0  0  0  0  0  0  0
    1.8210   -2.0864   -0.7771 H   0  0  0  0  0  0  0  0  0  0  0  0
    1.4330   -4.2034   -0.3323 N   0  0  0  0  0  0  0  0  0  0  0  0
    2.1588   -4.6325   -0.8876 H   0  0  0  0  0  0  0  0  0  0  0  0
    0.5346   -4.8888    0.4575 C   0  0  0  0  0  0  0  0  0  0  0  0
    0.3541   -6.2496    0.7438 C   0  0  0  0  0  0  0  0  0  0  0  0
    0.9986   -6.9929    0.2981 H   0  0  0  0  0  0  0  0  0  0  0  0
   -0.6782   -6.6326    1.6171 C   0  0  0  0  0  0  0  0  0  0  0  0
   -0.8331   -7.6777    1.8487 H   0  0  0  0  0  0  0  0  0  0  0  0
   -1.5149   -5.6544    2.1850 C   0  0  0  0  0  0  0  0  0  0  0  0
   -2.3131   -5.9541    2.8499 H   0  0  0  0  0  0  0  0  0  0  0  0
   -1.3255   -4.2896    1.8887 C   0  0  0  0  0  0  0  0  0  0  0  0
   -1.9837   -3.5496    2.3212 H   0  0  0  0  0  0  0  0  0  0  0  0
   -0.2938   -3.8721    1.0202 C   0  0  0  0  0  0  0  0  0  0  0  0
   -0.7775   -0.4014   -1.4589 C   0  0  0  0  0  0  0  0  0  0  0  0
   -0.8829   -1.2778   -2.3159 O   0  0  0  0  0  0  0  0  0  0  0  0
   -0.1628    0.7657   -1.6938 N   0  0  0  0  0  0  0  0  0  0  0  0
   -0.0710    1.4099   -0.9212 H   0  0  0  0  0  0  0  0  0  0  0  0
    0.4412    1.1337   -2.9714 C   0  0  0  0  0  0  0  0  0  0  0  0
   -0.2826    0.9897   -3.7758 H   0  0  0  0  0  0  0  0  0  0  0  0
    0.7557    2.1780   -2.9511 H   0  0  0  0  0  0  0  0  0  0  0  0
    1.3079    0.4988   -3.1625 H   0  0  0  0  0  0  0  0  0  0  0  0
  5  6  2  0  0  0  0
  5  7  1  0  0  0  0
  2  3  1  0  0  0  0
  2  4  1  0  0  0  0
  2  5  1  0  0  0  0
  1  2  1  0  0  0  0
 29 30  2  0  0  0  0
 29 31  1  0  0  0  0
 26 27  1  0  0  0  0
 26 28  2  0  0  0  0
 24 25  1  0  0  0  0
 24 26  1  0  0  0  0
 22 23  1  0  0  0  0
 22 24  2  0  0  0  0
 20 21  1  0  0  0  0
 20 22  1  0  0  0  0
 19 20  2  0  0  0  0
 19 28  1  0  0  0  0
 17 18  1  0  0  0  0
 17 19  1  0  0  0  0
 15 16  1  0  0  0  0
 15 17  1  0  0  0  0
 14 15  2  0  0  0  0
 14 28  1  0  0  0  0
 11 12  1  0  0  0  0
 11 13  1  0  0  0  0
 11 14  1  0  0  0  0
  9 10  1  0  0  0  0
  9 11  1  0  0  0  0
  9 29  1  0  0  0  0
  7  8  1  0  0  0  0
  7  9  1  0  0  0  0
 33 34  1  0  0  0  0
 33 35  1  0  0  0  0
 33 36  1  0  0  0  0
 31 32  1  0  0  0  0
 31 33  1  0  0  0  0
M  END
$$$$
default_name
  -OEChem-12212115393D

 36 37  0     1  0  0  0  0  0999 V2000
   -4.0843   -4.0736    1.2944 H   0  0  0  0  0  0  0  0  0  0  0  0
   -4.0342   -3.2816    0.5484 C   0  0  0  0  0  0  0  0  0  0  0  0
   -4.8842   -2.6126    0.6694 H   0  0  0  0  0  0  0  0  0  0  0  0
   -4.0433   -3.7186   -0.4486 H   0  0  0  0  0  0  0  0  0  0  0  0
   -2.7532   -2.5046    0.7444 C   0  0  0  0  0  0  0  0  0  0  0  0
   -1.9803   -2.8096    1.6434 O   0  0  0  0  0  0  0  0  0  0  0  0
   -2.5332   -1.4966   -0.0966 N   0  0  0  0  0  0  0  0  0  0  0  0
   -3.2312   -1.2816   -0.7936 H   0  0  0  0  0  0  0  0  0  0  0  0
   -1.3593   -0.6196   -0.0536 C   0  0  1  0  0  0  0  0  0  0  0  0
   -1.6649    0.3546    0.3297 H   0  0  0  0  0  0  0  0  0  0  0  0
   -0.3154   -1.2076    0.9089 C   0  0  0  0  0  0  0  0  0  0  0  0
    0.5426   -0.5343    0.9512 H   0  0  0  0  0  0  0  0  0  0  0  0
   -0.7506   -1.2511    1.9088 H   0  0  0  0  0  0  0  0  0  0  0  0
    0.1848   -2.5737    0.5488 C   0  0  0  0  0  0  0  0  0  0  0  0
    1.2292   -2.8389   -0.2676 C   0  0  0  0  0  0  0  0  0  0  0  0
    1.8210   -2.0864   -0.7771 H   0  0  0  0  0  0  0  0  0  0  0  0
    1.4330   -4.2034   -0.3323 N   0  0  0  0  0  0  0  0  0  0  0  0
    2.1588   -4.6325   -0.8876 H   0  0  0  0  0  0  0  0  0  0  0  0
    0.5346   -4.8888    0.4575 C   0  0  0  0  0  0  0  0  0  0  0  0
    0.3541   -6.2496    0.7438 C   0  0  0  0  0  0  0  0  0  0  0  0
    0.9986   -6.9929    0.2981 H   0  0  0  0  0  0  0  0  0  0  0  0
   -0.6782   -6.6326    1.6171 C   0  0  0  0  0  0  0  0  0  0  0  0
   -0.8331   -7.6777    1.8487 H   0  0  0  0  0  0  0  0  0  0  0  0
   -1.5149   -5.6544    2.1850 C   0  0  0  0  0  0  0  0  0  0  0  0
   -2.3131   -5.9541    2.8499 H   0  0  0  0  0  0  0  0  0  0  0  0
   -1.3255   -4.2896    1.8887 C   0  0  0  0  0  0  0  0  0  0  0  0
   -1.9837   -3.5496    2.3212 H   0  0  0  0  0  0  0  0  0  0  0  0
   -0.2938   -3.8721    1.0202 C   0  0  0  0  0  0  0  0  0  0  0  0
   -0.7775   -0.4014   -1.4589 C   0  0  0  0  0  0  0  0  0  0  0  0
   -1.1103   -1.1360   -2.3880 O   0  0  0  0  0  0  0  0  0  0  0  0
    0.0918    0.6064   -1.6131 N   0  0  0  0  0  0  0  0  0  0  0  0
    0.3539    1.1284   -0.7891 H   0  0  0  0  0  0  0  0  0  0  0  0
    0.7341    0.9511   -2.8785 C   0  0  0  0  0  0  0  0  0  0  0  0
   -0.0230    1.0643   -3.6567 H   0  0  0  0  0  0  0  0  0  0  0  0
    1.2890    1.8846   -2.7759 H   0  0  0  0  0  0  0  0  0  0  0  0
    1.4193    0.1534   -3.1701 H   0  0  0  0  0  0  0  0  0  0  0  0
  5  6  2  0  0  0  0
  5  7  1  0  0  0  0
  2  3  1  0  0  0  0
  2  4  1  0  0  0  0
  2  5  1  0  0  0  0
  1  2  1  0  0  0  0
 29 30  2  0  0  0  0
 29 31  1  0  0  0  0
 26 27  1  0  0  0  0
 26 28  2  0  0  0  0
 24 25  1  0  0  0  0
 24 26  1  0  0  0  0
 22 23  1  0  0  0  0
 22 24  2  0  0  0  0
 20 21  1  0  0  0  0
 20 22  1  0  0  0  0
 19 20  2  0  0  0  0
 19 28  1  0  0  0  0
 17 18  1  0  0  0  0
 17 19  1  0  0  0  0
 15 16  1  0  0  0  0
 15 17  1  0  0  0  0
 14 15  2  0  0  0  0
 14 28  1  0  0  0  0
 11 12  1  0  0  0  0
 11 13  1  0  0  0  0
 11 14  1  0  0  0  0
  9 10  1  0  0  0  0
  9 11  1  0  0  0  0
  9 29  1  0  0  0  0
  7  8  1  0  0  0  0
  7  9  1  0  0  0  0
 33 34  1  0  0  0  0
 33 35  1  0  0  0  0
 33 36  1  0  0  0  0
 31 32  1  0  0  0  0
 31 33  1  0  0  0  0
M  END
$$$$
default_name
  -OEChem-12212115393D

 36 37  0     1  0  0  0  0  0999 V2000
   -4.0843   -4.0736    1.2944 H   0  0  0  0  0  0  0  0  0  0  0  0
   -4.0342   -3.2816    0.5484 C   0  0  0  0  0  0  0  0  0  0  0  0
   -4.8842   -2.6126    0.6694 H   0  0  0  0  0  0  0  0  0  0  0  0
   -4.0433   -3.7186   -0.4486 H   0  0  0  0  0  0  0  0  0  0  0  0
   -2.7532   -2.5046    0.7444 C   0  0  0  0  0  0  0  0  0  0  0  0
   -1.9803   -2.8096    1.6434 O   0  0  0  0  0  0  0  0  0  0  0  0
   -2.5332   -1.4966   -0.0966 N   0  0  0  0  0  0  0  0  0  0  0  0
   -3.2312   -1.2816   -0.7936 H   0  0  0  0  0  0  0  0  0  0  0  0
   -1.3593   -0.6196   -0.0536 C   0  0  1  0  0  0  0  0  0  0  0  0
   -1.5930    0.2468    0.5663 H   0  0  0  0  0  0  0  0  0  0  0  0
   -0.1835   -1.3687    0.5932 C   0  0  0  0  0  0  0  0  0  0  0  0
    0.6765   -0.6984    0.6418 H   0  0  0  0  0  0  0  0  0  0  0  0
   -0.4582   -1.6283    1.6170 H   0  0  0  0  0  0  0  0  0  0  0  0
    0.2426   -2.6185   -0.1157 C   0  0  0  0  0  0  0  0  0  0  0  0
    1.1449   -2.6842   -1.1203 C   0  0  0  0  0  0  0  0  0  0  0  0
    1.6567   -1.8287   -1.5472 H   0  0  0  0  0  0  0  0  0  0  0  0
    1.3242   -4.0006   -1.4978 N   0  0  0  0  0  0  0  0  0  0  0  0
    1.9510   -4.2882   -2.2352 H   0  0  0  0  0  0  0  0  0  0  0  0
    0.5537   -4.8557   -0.7390 C   0  0  0  0  0  0  0  0  0  0  0  0
    0.4081   -6.2502   -0.7175 C   0  0  0  0  0  0  0  0  0  0  0  0
    0.9689   -6.8698   -1.4018 H   0  0  0  0  0  0  0  0  0  0  0  0
   -0.4790   -6.8300    0.2055 C   0  0  0  0  0  0  0  0  0  0  0  0
   -0.6051   -7.9038    0.2359 H   0  0  0  0  0  0  0  0  0  0  0  0
   -1.2085   -6.0106    1.0863 C   0  0  0  0  0  0  0  0  0  0  0  0
   -1.8962   -6.4603    1.7891 H   0  0  0  0  0  0  0  0  0  0  0  0
   -1.0557   -4.6099    1.0545 C   0  0  0  0  0  0  0  0  0  0  0  0
   -1.6321   -3.9912    1.7276 H   0  0  0  0  0  0  0  0  0  0  0  0
   -0.1681   -3.9974    0.1435 C   0  0  0  0  0  0  0  0  0  0  0  0
   -1.0014   -0.1018   -1.4553 C   0  0  0  0  0  0  0  0  0  0  0  0
   -1.6732   -0.4375   -2.4298 O   0  0  0  0  0  0  0  0  0  0  0  0
    0.0570    0.7135   -1.5562 N   0  0  0  0  0  0  0  0  0  0  0  0
    0.5879    0.8970   -0.7168 H   0  0  0  0  0  0  0  0  0  0  0  0
    0.5300    1.2946   -2.8096 C   0  0  0  0  0  0  0  0  0  0  0  0
   -0.2984    1.7863   -3.3232 H   0  0  0  0  0  0  0  0  0  0  0  0
    1.3165    2.0241   -2.6122 H   0  0  0  0  0  0  0  0  0  0  0  0
    0.9221    0.5056   -3.4535 H   0  0  0  0  0  0  0  0  0  0  0  0
  5  6  2  0  0  0  0
  5  7  1  0  0  0  0
  2  3  1  0  0  0  0
  2  4  1  0  0  0  0
  2  5  1  0  0  0  0
  1  2  1  0  0  0  0
 29 30  2  0  0  0  0
 29 31  1  0  0  0  0
 26 27  1  0  0  0  0
 26 28  2  0  0  0  0
 24 25  1  0  0  0  0
 24 26  1  0  0  0  0
 22 23  1  0  0  0  0
 22 24  2  0  0  0  0
 20 21  1  0  0  0  0
 20 22  1  0  0  0  0
 19 20  2  0  0  0  0
 19 28  1  0  0  0  0
 17 18  1  0  0  0  0
 17 19  1  0  0  0  0
 15 16  1  0  0  0  0
 15 17  1  0  0  0  0
 14 15  2  0  0  0  0
 14 28  1  0  0  0  0
 11 12  1  0  0  0  0
 11 13  1  0  0  0  0
 11 14  1  0  0  0  0
  9 10  1  0  0  0  0
  9 11  1  0  0  0  0
  9 29  1  0  0  0  0
  7  8  1  0  0  0  0
  7  9  1  0  0  0  0
 33 34  1  0  0  0  0
 33 35  1  0  0  0  0
 33 36  1  0  0  0  0
 31 32  1  0  0  0  0
 31 33  1  0  0  0  0
M  END
$$$$
default_name
  -OEChem-12212115393D

 36 37  0     1  0  0  0  0  0999 V2000
   -4.0843   -4.0736    1.2944 H   0  0  0  0  0  0  0  0  0  0  0  0
   -4.0342   -3.2816    0.5484 C   0  0  0  0  0  0  0  0  0  0  0  0
   -4.8842   -2.6126    0.6694 H   0  0  0  0  0  0  0  0  0  0  0  0
   -4.0433   -3.7186   -0.4486 H   0  0  0  0  0  0  0  0  0  0  0  0
   -2.7532   -2.5046    0.7444 C   0  0  0  0  0  0  0  0  0  0  0  0
   -1.9803   -2.8096    1.6434 O   0  0  0  0  0  0  0  0  0  0  0  0
   -2.5332   -1.4966   -0.0966 N   0  0  0  0  0  0  0  0  0  0  0  0
   -3.2312   -1.2816   -0.7936 H   0  0  0  0  0  0  0  0  0  0  0  0
   -1.3593   -0.6196   -0.0536 C   0  0  1  0  0  0  0  0  0  0  0  0
   -1.5930    0.2468    0.5663 H   0  0  0  0  0  0  0  0  0  0  0  0
   -0.1835   -1.3687    0.5932 C   0  0  0  0  0  0  0  0  0  0  0  0
    0.6765   -0.6984    0.6418 H   0  0  0  0  0  0  0  0  0  0  0  0
   -0.4582   -1.6283    1.6170 H   0  0  0  0  0  0  0  0  0  0  0  0
    0.2426   -2.6185   -0.1157 C   0  0  0  0  0  0  0  0  0  0  0  0
    1.1449   -2.6842   -1.1203 C   0  0  0  0  0  0  0  0  0  0  0  0
    1.6567   -1.8287   -1.5472 H   0  0  0  0  0  0  0  0  0  0  0  0
    1.3242   -4.0006   -1.4978 N   0  0  0  0  0  0  0  0  0  0  0  0
    1.9510   -4.2882   -2.2352 H   0  0  0  0  0  0  0  0  0  0  0  0
    0.5537   -4.8557   -0.7390 C   0  0  0  0  0  0  0  0  0  0  0  0
    0.4081   -6.2502   -0.7175 C   0  0  0  0  0  0  0  0  0  0  0  0
    0.9689   -6.8698   -1.4018 H   0  0  0  0  0  0  0  0  0  0  0  0
   -0.4790   -6.8300    0.2055 C   0  0  0  0  0  0  0  0  0  0  0  0
   -0.6051   -7.9038    0.2359 H   0  0  0  0  0  0  0  0  0  0  0  0
   -1.2085   -6.0106    1.0863 C   0  0  0  0  0  0  0  0  0  0  0  0
   -1.8962   -6.4603    1.7891 H   0  0  0  0  0  0  0  0  0  0  0  0
   -1.0557   -4.6099    1.0545 C   0  0  0  0  0  0  0  0  0  0  0  0
   -1.6321   -3.9912    1.7276 H   0  0  0  0  0  0  0  0  0  0  0  0
   -0.1681   -3.9974    0.1435 C   0  0  0  0  0  0  0  0  0  0  0  0
   -1.0014   -0.1018   -1.4553 C   0  0  0  0  0  0  0  0  0  0  0  0
   -1.8096   -0.2016   -2.3775 O   0  0  0  0  0  0  0  0  0  0  0  0
    0.2095    0.4490   -1.6150 N   0  0  0  0  0  0  0  0  0  0  0  0
    0.8343    0.4436   -0.8214 H   0  0  0  0  0  0  0  0  0  0  0  0
    0.7057    0.9908   -2.8770 C   0  0  0  0  0  0  0  0  0  0  0  0
   -0.0196    1.6974   -3.2848 H   0  0  0  0  0  0  0  0  0  0  0  0
    1.6569    1.5007   -2.7187 H   0  0  0  0  0  0  0  0  0  0  0  0
    0.8453    0.1797   -3.5936 H   0  0  0  0  0  0  0  0  0  0  0  0
  5  6  2  0  0  0  0
  5  7  1  0  0  0  0
  2  3  1  0  0  0  0
  2  4  1  0  0  0  0
  2  5  1  0  0  0  0
  1  2  1  0  0  0  0
 29 30  2  0  0  0  0
 29 31  1  0  0  0  0
 26 27  1  0  0  0  0
 26 28  2  0  0  0  0
 24 25  1  0  0  0  0
 24 26  1  0  0  0  0
 22 23  1  0  0  0  0
 22 24  2  0  0  0  0
 20 21  1  0  0  0  0
 20 22  1  0  0  0  0
 19 20  2  0  0  0  0
 19 28  1  0  0  0  0
 17 18  1  0  0  0  0
 17 19  1  0  0  0  0
 15 16  1  0  0  0  0
 15 17  1  0  0  0  0
 14 15  2  0  0  0  0
 14 28  1  0  0  0  0
 11 12  1  0  0  0  0
 11 13  1  0  0  0  0
 11 14  1  0  0  0  0
  9 10  1  0  0  0  0
  9 11  1  0  0  0  0
  9 29  1  0  0  0  0
  7  8  1  0  0  0  0
  7  9  1  0  0  0  0
 33 34  1  0  0  0  0
 33 35  1  0  0  0  0
 33 36  1  0  0  0  0
 31 32  1  0  0  0  0
 31 33  1  0  0  0  0
M  END
$$$$
default_name
  -OEChem-12212115393D

 36 37  0     1  0  0  0  0  0999 V2000
   -4.0843   -4.0736    1.2944 H   0  0  0  0  0  0  0  0  0  0  0  0
   -4.0342   -3.2816    0.5484 C   0  0  0  0  0  0  0  0  0  0  0  0
   -4.8842   -2.6126    0.6694 H   0  0  0  0  0  0  0  0  0  0  0  0
   -4.0433   -3.7186   -0.4486 H   0  0  0  0  0  0  0  0  0  0  0  0
   -2.7532   -2.5046    0.7444 C   0  0  0  0  0  0  0  0  0  0  0  0
   -1.9803   -2.8096    1.6434 O   0  0  0  0  0  0  0  0  0  0  0  0
   -2.5332   -1.4966   -0.0966 N   0  0  0  0  0  0  0  0  0  0  0  0
   -3.2312   -1.2816   -0.7936 H   0  0  0  0  0  0  0  0  0  0  0  0
   -1.3593   -0.6196   -0.0536 C   0  0  1  0  0  0  0  0  0  0  0  0
   -1.5930    0.2468    0.5663 H   0  0  0  0  0  0  0  0  0  0  0  0
   -0.1835   -1.3687    0.5932 C   0  0  0  0  0  0  0  0  0  0  0  0
    0.6765   -0.6984    0.6418 H   0  0  0  0  0  0  0  0  0  0  0  0
   -0.4582   -1.6283    1.6170 H   0  0  0  0  0  0  0  0  0  0  0  0
    0.2426   -2.6185   -0.1157 C   0  0  0  0  0  0  0  0  0  0  0  0
    1.1449   -2.6842   -1.1203 C   0  0  0  0  0  0  0  0  0  0  0  0
    1.6567   -1.8287   -1.5472 H   0  0  0  0  0  0  0  0  0  0  0  0
    1.3242   -4.0006   -1.4978 N   0  0  0  0  0  0  0  0  0  0  0  0
    1.9510   -4.2882   -2.2352 H   0  0  0  0  0  0  0  0  0  0  0  0
    0.5537   -4.8557   -0.7390 C   0  0  0  0  0  0  0  0  0  0  0  0
    0.4081   -6.2502   -0.7175 C   0  0  0  0  0  0  0  0  0  0  0  0
    0.9689   -6.8698   -1.4018 H   0  0  0  0  0  0  0  0  0  0  0  0
   -0.4790   -6.8300    0.2055 C   0  0  0  0  0  0  0  0  0  0  0  0
   -0.6051   -7.9038    0.2359 H   0  0  0  0  0  0  0  0  0  0  0  0
   -1.2085   -6.0106    1.0863 C   0  0  0  0  0  0  0  0  0  0  0  0
   -1.8962   -6.4603    1.7891 H   0  0  0  0  0  0  0  0  0  0  0  0
   -1.0557   -4.6099    1.0545 C   0  0  0  0  0  0  0  0  0  0  0  0
   -1.6321   -3.9912    1.7276 H   0  0  0  0  0  0  0  0  0  0  0  0
   -0.1681   -3.9974    0.1435 C   0  0  0  0  0  0  0  0  0  0  0  0
   -1.0014   -0.1018   -1.4553 C   0  0  0  0  0  0  0  0  0  0  0  0
   -1.8812    0.0553   -2.3008 O   0  0  0  0  0  0  0  0  0  0  0  0
    0.2892    0.1610   -1.7011 N   0  0  0  0  0  0  0  0  0  0  0  0
    0.9561   -0.0462   -0.9712 H   0  0  0  0  0  0  0  0  0  0  0  0
    0.7979    0.6599   -2.9757 C   0  0  0  0  0  0  0  0  0  0  0  0
    0.2320    1.5433   -3.2775 H   0  0  0  0  0  0  0  0  0  0  0  0
    1.8528    0.9212   -2.8827 H   0  0  0  0  0  0  0  0  0  0  0  0
    0.6820   -0.1086   -3.7418 H   0  0  0  0  0  0  0  0  0  0  0  0
  5  6  2  0  0  0  0
  5  7  1  0  0  0  0
  2  3  1  0  0  0  0
  2  4  1  0  0  0  0
  2  5  1  0  0  0  0
  1  2  1  0  0  0  0
 29 30  2  0  0  0  0
 29 31  1  0  0  0  0
 26 27  1  0  0  0  0
 26 28  2  0  0  0  0
 24 25  1  0  0  0  0
 24 26  1  0  0  0  0
 22 23  1  0  0  0  0
 22 24  2  0  0  0  0
 20 21  1  0  0  0  0
 20 22  1  0  0  0  0
 19 20  2  0  0  0  0
 19 28  1  0  0  0  0
 17 18  1  0  0  0  0
 17 19  1  0  0  0  0
 15 16  1  0  0  0  0
 15 17  1  0  0  0  0
 14 15  2  0  0  0  0
 14 28  1  0  0  0  0
 11 12  1  0  0  0  0
 11 13  1  0  0  0  0
 11 14  1  0  0  0  0
  9 10  1  0  0  0  0
  9 11  1  0  0  0  0
  9 29  1  0  0  0  0
  7  8  1  0  0  0  0
  7  9  1  0  0  0  0
 33 34  1  0  0  0  0
 33 35  1  0  0  0  0
 33 36  1  0  0  0  0
 31 32  1  0  0  0  0
 31 33  1  0  0  0  0
M  END
$$$$
default_name
  -OEChem-12212115393D

 36 37  0     1  0  0  0  0  0999 V2000
   -4.0843   -4.0736    1.2944 H   0  0  0  0  0  0  0  0  0  0  0  0
   -4.0342   -3.2816    0.5484 C   0  0  0  0  0  0  0  0  0  0  0  0
   -4.8842   -2.6126    0.6694 H   0  0  0  0  0  0  0  0  0  0  0  0
   -4.0433   -3.7186   -0.4486 H   0  0  0  0  0  0  0  0  0  0  0  0
   -2.7532   -2.5046    0.7444 C   0  0  0  0  0  0  0  0  0  0  0  0
   -1.9803   -2.8096    1.6434 O   0  0  0  0  0  0  0  0  0  0  0  0
   -2.5332   -1.4966   -0.0966 N   0  0  0  0  0  0  0  0  0  0  0  0
   -3.2312   -1.2816   -0.7936 H   0  0  0  0  0  0  0  0  0  0  0  0
   -1.3593   -0.6196   -0.0536 C   0  0  1  0  0  0  0  0  0  0  0  0
   -1.5930    0.2468    0.5663 H   0  0  0  0  0  0  0  0  0  0  0  0
   -0.1835   -1.3687    0.5932 C   0  0  0  0  0  0  0  0  0  0  0  0
    0.6765   -0.6984    0.6418 H   0  0  0  0  0  0  0  0  0  0  0  0
   -0.4582   -1.6283    1.6170 H   0  0  0  0  0  0  0  0  0  0  0  0
    0.2426   -2.6185   -0.1157 C   0  0  0  0  0  0  0  0  0  0  0  0
    1.1449   -2.6842   -1.1203 C   0  0  0  0  0  0  0  0  0  0  0  0
    1.6567   -1.8287   -1.5472 H   0  0  0  0  0  0  0  0  0  0  0  0
    1.3242   -4.0006   -1.4978 N   0  0  0  0  0  0  0  0  0  0  0  0
    1.9510   -4.2882   -2.2352 H   0  0  0  0  0  0  0  0  0  0  0  0
    0.5537   -4.8557   -0.7390 C   0  0  0  0  0  0  0  0  0  0  0  0
    0.4081   -6.2502   -0.7175 C   0  0  0  0  0  0  0  0  0  0  0  0
    0.9689   -6.8698   -1.4018 H   0  0  0  0  0  0  0  0  0  0  0  0
   -0.4790   -6.8300    0.2055 C   0  0  0  0  0  0  0  0  0  0  0  0
   -0.6051   -7.9038    0.2359 H   0  0  0  0  0  0  0  0  0  0  0  0
   -1.2085   -6.0106    1.0863 C   0  0  0  0  0  0  0  0  0  0  0  0
   -1.8962   -6.4603    1.7891 H   0  0  0  0  0  0  0  0  0  0  0  0
   -1.0557   -4.6099    1.0545 C   0  0  0  0  0  0  0  0  0  0  0  0
   -1.6321   -3.9912    1.7276 H   0  0  0  0  0  0  0  0  0  0  0  0
   -0.1681   -3.9974    0.1435 C   0  0  0  0  0  0  0  0  0  0  0  0
   -1.0014   -0.1018   -1.4553 C   0  0  0  0  0  0  0  0  0  0  0  0
   -1.8829    0.3158   -2.2050 O   0  0  0  0  0  0  0  0  0  0  0  0
    0.2907   -0.1308   -1.8085 N   0  0  0  0  0  0  0  0  0  0  0  0
    0.9450   -0.5391   -1.1561 H   0  0  0  0  0  0  0  0  0  0  0  0
    0.8002    0.3245   -3.0990 C   0  0  0  0  0  0  0  0  0  0  0  0
    0.4393    1.3346   -3.3017 H   0  0  0  0  0  0  0  0  0  0  0  0
    1.8909    0.3250   -3.0932 H   0  0  0  0  0  0  0  0  0  0  0  0
    0.4432   -0.3395   -3.8880 H   0  0  0  0  0  0  0  0  0  0  0  0
  5  6  2  0  0  0  0
  5  7  1  0  0  0  0
  2  3  1  0  0  0  0
  2  4  1  0  0  0  0
  2  5  1  0  0  0  0
  1  2  1  0  0  0  0
 29 30  2  0  0  0  0
 29 31  1  0  0  0  0
 26 27  1  0  0  0  0
 26 28  2  0  0  0  0
 24 25  1  0  0  0  0
 24 26  1  0  0  0  0
 22 23  1  0  0  0  0
 22 24  2  0  0  0  0
 20 21  1  0  0  0  0
 20 22  1  0  0  0  0
 19 20  2  0  0  0  0
 19 28  1  0  0  0  0
 17 18  1  0  0  0  0
 17 19  1  0  0  0  0
 15 16  1  0  0  0  0
 15 17  1  0  0  0  0
 14 15  2  0  0  0  0
 14 28  1  0  0  0  0
 11 12  1  0  0  0  0
 11 13  1  0  0  0  0
 11 14  1  0  0  0  0
  9 10  1  0  0  0  0
  9 11  1  0  0  0  0
  9 29  1  0  0  0  0
  7  8  1  0  0  0  0
  7  9  1  0  0  0  0
 33 34  1  0  0  0  0
 33 35  1  0  0  0  0
 33 36  1  0  0  0  0
 31 32  1  0  0  0  0
 31 33  1  0  0  0  0
M  END
$$$$
default_name
  -OEChem-12212115393D

 36 37  0     1  0  0  0  0  0999 V2000
   -4.0843   -4.0736    1.2944 H   0  0  0  0  0  0  0  0  0  0  0  0
   -4.0342   -3.2816    0.5484 C   0  0  0  0  0  0  0  0  0  0  0  0
   -4.8842   -2.6126    0.6694 H   0  0  0  0  0  0  0  0  0  0  0  0
   -4.0433   -3.7186   -0.4486 H   0  0  0  0  0  0  0  0  0  0  0  0
   -2.7532   -2.5046    0.7444 C   0  0  0  0  0  0  0  0  0  0  0  0
   -1.9803   -2.8096    1.6434 O   0  0  0  0  0  0  0  0  0  0  0  0
   -2.5332   -1.4966   -0.0966 N   0  0  0  0  0  0  0  0  0  0  0  0
   -3.2312   -1.2816   -0.7936 H   0  0  0  0  0  0  0  0  0  0  0  0
   -1.3593   -0.6196   -0.0536 C   0  0  1  0  0  0  0  0  0  0  0  0
   -1.5930    0.2468    0.5663 H   0  0  0  0  0  0  0  0  0  0  0  0
   -0.1835   -1.3687    0.5932 C   0  0  0  0  0  0  0  0  0  0  0  0
    0.6765   -0.6984    0.6418 H   0  0  0  0  0  0  0  0  0  0  0  0
   -0.4582   -1.6283    1.6170 H   0  0  0  0  0  0  0  0  0  0  0  0
    0.2426   -2.6185   -0.1157 C   0  0  0  0  0  0  0  0  0  0  0  0
    1.1449   -2.6842   -1.1203 C   0  0  0  0  0  0  0  0  0  0  0  0
    1.6567   -1.8287   -1.5472 H   0  0  0  0  0  0  0  0  0  0  0  0
    1.3242   -4.0006   -1.4978 N   0  0  0  0  0  0  0  0  0  0  0  0
    1.9510   -4.2882   -2.2352 H   0  0  0  0  0  0  0  0  0  0  0  0
    0.5537   -4.8557   -0.7390 C   0  0  0  0  0  0  0  0  0  0  0  0
    0.4081   -6.2502   -0.7175 C   0  0  0  0  0  0  0  0  0  0  0  0
    0.9689   -6.8698   -1.4018 H   0  0  0  0  0  0  0  0  0  0  0  0
   -0.4790   -6.8300    0.2055 C   0  0  0  0  0  0  0  0  0  0  0  0
   -0.6051   -7.9038    0.2359 H   0  0  0  0  0  0  0  0  0  0  0  0
   -1.2085   -6.0106    1.0863 C   0  0  0  0  0  0  0  0  0  0  0  0
   -1.8962   -6.4603    1.7891 H   0  0  0  0  0  0  0  0  0  0  0  0
   -1.0557   -4.6099    1.0545 C   0  0  0  0  0  0  0  0  0  0  0  0
   -1.6321   -3.9912    1.7276 H   0  0  0  0  0  0  0  0  0  0  0  0
   -0.1681   -3.9974    0.1435 C   0  0  0  0  0  0  0  0  0  0  0  0
   -1.0014   -0.1018   -1.4553 C   0  0  0  0  0  0  0  0  0  0  0  0
   -1.8148    0.5620   -2.0967 O   0  0  0  0  0  0  0  0  0  0  0  0
    0.2139   -0.4066   -1.9300 N   0  0  0  0  0  0  0  0  0  0  0  0
    0.8018   -1.0014   -1.3635 H   0  0  0  0  0  0  0  0  0  0  0  0
    0.7125    0.0074   -3.2386 C   0  0  0  0  0  0  0  0  0  0  0  0
    0.5882    1.0856   -3.3556 H   0  0  0  0  0  0  0  0  0  0  0  0
    1.7686   -0.2471   -3.3358 H   0  0  0  0  0  0  0  0  0  0  0  0
    0.1453   -0.4974   -4.0224 H   0  0  0  0  0  0  0  0  0  0  0  0
  5  6  2  0  0  0  0
  5  7  1  0  0  0  0
  2  3  1  0  0  0  0
  2  4  1  0  0  0  0
  2  5  1  0  0  0  0
  1  2  1  0  0  0  0
 29 30  2  0  0  0  0
 29 31  1  0  0  0  0
 26 27  1  0  0  0  0
 26 28  2  0  0  0  0
 24 25  1  0  0  0  0
 24 26  1  0  0  0  0
 22 23  1  0  0  0  0
 22 24  2  0  0  0  0
 20 21  1  0  0  0  0
 20 22  1  0  0  0  0
 19 20  2  0  0  0  0
 19 28  1  0  0  0  0
 17 18  1  0  0  0  0
 17 19  1  0  0  0  0
 15 16  1  0  0  0  0
 15 17  1  0  0  0  0
 14 15  2  0  0  0  0
 14 28  1  0  0  0  0
 11 12  1  0  0  0  0
 11 13  1  0  0  0  0
 11 14  1  0  0  0  0
  9 10  1  0  0  0  0
  9 11  1  0  0  0  0
  9 29  1  0  0  0  0
  7  8  1  0  0  0  0
  7  9  1  0  0  0  0
 33 34  1  0  0  0  0
 33 35  1  0  0  0  0
 33 36  1  0  0  0  0
 31 32  1  0  0  0  0
 31 33  1  0  0  0  0
M  END
$$$$
default_name
  -OEChem-12212115393D

 36 37  0     1  0  0  0  0  0999 V2000
   -4.0843   -4.0736    1.2944 H   0  0  0  0  0  0  0  0  0  0  0  0
   -4.0342   -3.2816    0.5484 C   0  0  0  0  0  0  0  0  0  0  0  0
   -4.8842   -2.6126    0.6694 H   0  0  0  0  0  0  0  0  0  0  0  0
   -4.0433   -3.7186   -0.4486 H   0  0  0  0  0  0  0  0  0  0  0  0
   -2.7532   -2.5046    0.7444 C   0  0  0  0  0  0  0  0  0  0  0  0
   -1.9803   -2.8096    1.6434 O   0  0  0  0  0  0  0  0  0  0  0  0
   -2.5332   -1.4966   -0.0966 N   0  0  0  0  0  0  0  0  0  0  0  0
   -3.2312   -1.2816   -0.7936 H   0  0  0  0  0  0  0  0  0  0  0  0
   -1.3593   -0.6196   -0.0536 C   0  0  1  0  0  0  0  0  0  0  0  0
   -1.5930    0.2468    0.5663 H   0  0  0  0  0  0  0  0  0  0  0  0
   -0.1835   -1.3687    0.5932 C   0  0  0  0  0  0  0  0  0  0  0  0
    0.6765   -0.6984    0.6418 H   0  0  0  0  0  0  0  0  0  0  0  0
   -0.4582   -1.6283    1.6170 H   0  0  0  0  0  0  0  0  0  0  0  0
    0.2426   -2.6185   -0.1157 C   0  0  0  0  0  0  0  0  0  0  0  0
    1.1449   -2.6842   -1.1203 C   0  0  0  0  0  0  0  0  0  0  0  0
    1.6567   -1.8287   -1.5472 H   0  0  0  0  0  0  0  0  0  0  0  0
    1.3242   -4.0006   -1.4978 N   0  0  0  0  0  0  0  0  0  0  0  0
    1.9510   -4.2882   -2.2352 H   0  0  0  0  0  0  0  0  0  0  0  0
    0.5537   -4.8557   -0.7390 C   0  0  0  0  0  0  0  0  0  0  0  0
    0.4081   -6.2502   -0.7175 C   0  0  0  0  0  0  0  0  0  0  0  0
    0.9689   -6.8698   -1.4018 H   0  0  0  0  0  0  0  0  0  0  0  0
   -0.4790   -6.8300    0.2055 C   0  0  0  0  0  0  0  0  0  0  0  0
   -0.6051   -7.9038    0.2359 H   0  0  0  0  0  0  0  0  0  0  0  0
   -1.2085   -6.0106    1.0863 C   0  0  0  0  0  0  0  0  0  0  0  0
   -1.8962   -6.4603    1.7891 H   0  0  0  0  0  0  0  0  0  0  0  0
   -1.0557   -4.6099    1.0545 C   0  0  0  0  0  0  0  0  0  0  0  0
   -1.6321   -3.9912    1.7276 H   0  0  0  0  0  0  0  0  0  0  0  0
   -0.1681   -3.9974    0.1435 C   0  0  0  0  0  0  0  0  0  0  0  0
   -1.0014   -0.1018   -1.4553 C   0  0  0  0  0  0  0  0  0  0  0  0
   -1.6814    0.7772   -1.9831 O   0  0  0  0  0  0  0  0  0  0  0  0
    0.0640   -0.6475   -2.0572 N   0  0  0  0  0  0  0  0  0  0  0  0
    0.5362   -1.4016   -1.5791 H   0  0  0  0  0  0  0  0  0  0  0  0
    0.5407   -0.2698   -3.3848 C   0  0  0  0  0  0  0  0  0  0  0  0
    0.6685    0.8132   -3.4358 H   0  0  0  0  0  0  0  0  0  0  0  0
    1.4943   -0.7563   -3.5940 H   0  0  0  0  0  0  0  0  0  0  0  0
   -0.1914   -0.5715   -4.1358 H   0  0  0  0  0  0  0  0  0  0  0  0
  5  6  2  0  0  0  0
  5  7  1  0  0  0  0
  2  3  1  0  0  0  0
  2  4  1  0  0  0  0
  2  5  1  0  0  0  0
  1  2  1  0  0  0  0
 29 30  2  0  0  0  0
 29 31  1  0  0  0  0
 26 27  1  0  0  0  0
 26 28  2  0  0  0  0
 24 25  1  0  0  0  0
 24 26  1  0  0  0  0
 22 23  1  0  0  0  0
 22 24  2  0  0  0  0
 20 21  1  0  0  0  0
 20 22  1  0  0  0  0
 19 20  2  0  0  0  0
 19 28  1  0  0  0  0
 17 18  1  0  0  0  0
 17 19  1  0  0  0  0
 15 16  1  0  0  0  0
 15 17  1  0  0  0  0
 14 15  2  0  0  0  0
 14 28  1  0  0  0  0
 11 12  1  0  0  0  0
 11 13  1  0  0  0  0
 11 14  1  0  0  0  0
  9 10  1  0  0  0  0
  9 11  1  0  0  0  0
  9 29  1  0  0  0  0
  7  8  1  0  0  0  0
  7  9  1  0  0  0  0
 33 34  1  0  0  0  0
 33 35  1  0  0  0  0
 33 36  1  0  0  0  0
 31 32  1  0  0  0  0
 31 33  1  0  0  0  0
M  END
$$$$
default_name
  -OEChem-12212115393D

 36 37  0     1  0  0  0  0  0999 V2000
   -4.0843   -4.0736    1.2944 H   0  0  0  0  0  0  0  0  0  0  0  0
   -4.0342   -3.2816    0.5484 C   0  0  0  0  0  0  0  0  0  0  0  0
   -4.8842   -2.6126    0.6694 H   0  0  0  0  0  0  0  0  0  0  0  0
   -4.0433   -3.7186   -0.4486 H   0  0  0  0  0  0  0  0  0  0  0  0
   -2.7532   -2.5046    0.7444 C   0  0  0  0  0  0  0  0  0  0  0  0
   -1.9803   -2.8096    1.6434 O   0  0  0  0  0  0  0  0  0  0  0  0
   -2.5332   -1.4966   -0.0966 N   0  0  0  0  0  0  0  0  0  0  0  0
   -3.2312   -1.2816   -0.7936 H   0  0  0  0  0  0  0  0  0  0  0  0
   -1.3593   -0.6196   -0.0536 C   0  0  1  0  0  0  0  0  0  0  0  0
   -1.5930    0.2468    0.5663 H   0  0  0  0  0  0  0  0  0  0  0  0
   -0.1835   -1.3687    0.5932 C   0  0  0  0  0  0  0  0  0  0  0  0
    0.6765   -0.6984    0.6418 H   0  0  0  0  0  0  0  0  0  0  0  0
   -0.4582   -1.6283    1.6170 H   0  0  0  0  0  0  0  0  0  0  0  0
    0.2426   -2.6185   -0.1157 C   0  0  0  0  0  0  0  0  0  0  0  0
    1.1449   -2.6842   -1.1203 C   0  0  0  0  0  0  0  0  0  0  0  0
    1.6567   -1.8287   -1.5472 H   0  0  0  0  0  0  0  0  0  0  0  0
    1.3242   -4.0006   -1.4978 N   0  0  0  0  0  0  0  0  0  0  0  0
    1.9510   -4.2882   -2.2352 H   0  0  0  0  0  0  0  0  0  0  0  0
    0.5537   -4.8557   -0.7390 C   0  0  0  0  0  0  0  0  0  0  0  0
    0.4081   -6.2502   -0.7175 C   0  0  0  0  0  0  0  0  0  0  0  0
    0.9689   -6.8698   -1.4018 H   0  0  0  0  0  0  0  0  0  0  0  0
   -0.4790   -6.8300    0.2055 C   0  0  0  0  0  0  0  0  0  0  0  0
   -0.6051   -7.9038    0.2359 H   0  0  0  0  0  0  0  0  0  0  0  0
   -1.2085   -6.0106    1.0863 C   0  0  0  0  0  0  0  0  0  0  0  0
   -1.8962   -6.4603    1.7891 H   0  0  0  0  0  0  0  0  0  0  0  0
   -1.0557   -4.6099    1.0545 C   0  0  0  0  0  0  0  0  0  0  0  0
   -1.6321   -3.9912    1.7276 H   0  0  0  0  0  0  0  0  0  0  0  0
   -0.1681   -3.9974    0.1435 C   0  0  0  0  0  0  0  0  0  0  0  0
   -1.0014   -0.1018   -1.4553 C   0  0  0  0  0  0  0  0  0  0  0  0
   -1.4918    0.9467   -1.8721 O   0  0  0  0  0  0  0  0  0  0  0  0
   -0.1487   -0.8371   -2.1816 N   0  0  0  0  0  0  0  0  0  0  0  0
    0.1664   -1.7125   -1.7884 H   0  0  0  0  0  0  0  0  0  0  0  0
    0.2965   -0.4882   -3.5278 C   0  0  0  0  0  0  0  0  0  0  0  0
    0.6748    0.5359   -3.5366 H   0  0  0  0  0  0  0  0  0  0  0  0
    1.0865   -1.1678   -3.8501 H   0  0  0  0  0  0  0  0  0  0  0  0
   -0.5441   -0.5567   -4.2203 H   0  0  0  0  0  0  0  0  0  0  0  0
  5  6  2  0  0  0  0
  5  7  1  0  0  0  0
  2  3  1  0  0  0  0
  2  4  1  0  0  0  0
  2  5  1  0  0  0  0
  1  2  1  0  0  0  0
 29 30  2  0  0  0  0
 29 31  1  0  0  0  0
 26 27  1  0  0  0  0
 26 28  2  0  0  0  0
 24 25  1  0  0  0  0
 24 26  1  0  0  0  0
 22 23  1  0  0  0  0
 22 24  2  0  0  0  0
 20 21  1  0  0  0  0
 20 22  1  0  0  0  0
 19 20  2  0  0  0  0
 19 28  1  0  0  0  0
 17 18  1  0  0  0  0
 17 19  1  0  0  0  0
 15 16  1  0  0  0  0
 15 17  1  0  0  0  0
 14 15  2  0  0  0  0
 14 28  1  0  0  0  0
 11 12  1  0  0  0  0
 11 13  1  0  0  0  0
 11 14  1  0  0  0  0
  9 10  1  0  0  0  0
  9 11  1  0  0  0  0
  9 29  1  0  0  0  0
  7  8  1  0  0  0  0
  7  9  1  0  0  0  0
 33 34  1  0  0  0  0
 33 35  1  0  0  0  0
 33 36  1  0  0  0  0
 31 32  1  0  0  0  0
 31 33  1  0  0  0  0
M  END
$$$$
default_name
  -OEChem-12212115393D

 36 37  0     1  0  0  0  0  0999 V2000
   -4.0843   -4.0736    1.2944 H   0  0  0  0  0  0  0  0  0  0  0  0
   -4.0342   -3.2816    0.5484 C   0  0  0  0  0  0  0  0  0  0  0  0
   -4.8842   -2.6126    0.6694 H   0  0  0  0  0  0  0  0  0  0  0  0
   -4.0433   -3.7186   -0.4486 H   0  0  0  0  0  0  0  0  0  0  0  0
   -2.7532   -2.5046    0.7444 C   0  0  0  0  0  0  0  0  0  0  0  0
   -1.9803   -2.8096    1.6434 O   0  0  0  0  0  0  0  0  0  0  0  0
   -2.5332   -1.4966   -0.0966 N   0  0  0  0  0  0  0  0  0  0  0  0
   -3.2312   -1.2816   -0.7936 H   0  0  0  0  0  0  0  0  0  0  0  0
   -1.3593   -0.6196   -0.0536 C   0  0  1  0  0  0  0  0  0  0  0  0
   -1.5930    0.2468    0.5663 H   0  0  0  0  0  0  0  0  0  0  0  0
   -0.1835   -1.3687    0.5932 C   0  0  0  0  0  0  0  0  0  0  0  0
    0.6765   -0.6984    0.6418 H   0  0  0  0  0  0  0  0  0  0  0  0
   -0.4582   -1.6283    1.6170 H   0  0  0  0  0  0  0  0  0  0  0  0
    0.2426   -2.6185   -0.1157 C   0  0  0  0  0  0  0  0  0  0  0  0
    1.1449   -2.6842   -1.1203 C   0  0  0  0  0  0  0  0  0  0  0  0
    1.6567   -1.8287   -1.5472 H   0  0  0  0  0  0  0  0  0  0  0  0
    1.3242   -4.0006   -1.4978 N   0  0  0  0  0  0  0  0  0  0  0  0
    1.9510   -4.2882   -2.2352 H   0  0  0  0  0  0  0  0  0  0  0  0
    0.5537   -4.8557   -0.7390 C   0  0  0  0  0  0  0  0  0  0  0  0
    0.4081   -6.2502   -0.7175 C   0  0  0  0  0  0  0  0  0  0  0  0
    0.9689   -6.8698   -1.4018 H   0  0  0  0  0  0  0  0  0  0  0  0
   -0.4790   -6.8300    0.2055 C   0  0  0  0  0  0  0  0  0  0  0  0
   -0.6051   -7.9038    0.2359 H   0  0  0  0  0  0  0  0  0  0  0  0
   -1.2085   -6.0106    1.0863 C   0  0  0  0  0  0  0  0  0  0  0  0
   -1.8962   -6.4603    1.7891 H   0  0  0  0  0  0  0  0  0  0  0  0
   -1.0557   -4.6099    1.0545 C   0  0  0  0  0  0  0  0  0  0  0  0
   -1.6321   -3.9912    1.7276 H   0  0  0  0  0  0  0  0  0  0  0  0
   -0.1681   -3.9974    0.1435 C   0  0  0  0  0  0  0  0  0  0  0  0
   -1.0014   -0.1018   -1.4553 C   0  0  0  0  0  0  0  0  0  0  0  0
   -1.2589    1.0590   -1.7711 O   0  0  0  0  0  0  0  0  0  0  0  0
   -0.4099   -0.9625   -2.2946 N   0  0  0  0  0  0  0  0  0  0  0  0
   -0.2825   -1.9129   -1.9770 H   0  0  0  0  0  0  0  0  0  0  0  0
   -0.0033   -0.6328   -3.6578 C   0  0  0  0  0  0  0  0  0  0  0  0
    0.6065    0.2726   -3.6513 H   0  0  0  0  0  0  0  0  0  0  0  0
    0.5732   -1.4535   -4.0867 H   0  0  0  0  0  0  0  0  0  0  0  0
   -0.8886   -0.4541   -4.2704 H   0  0  0  0  0  0  0  0  0  0  0  0
  5  6  2  0  0  0  0
  5  7  1  0  0  0  0
  2  3  1  0  0  0  0
  2  4  1  0  0  0  0
  2  5  1  0  0  0  0
  1  2  1  0  0  0  0
 29 30  2  0  0  0  0
 29 31  1  0  0  0  0
 26 27  1  0  0  0  0
 26 28  2  0  0  0  0
 24 25  1  0  0  0  0
 24 26  1  0  0  0  0
 22 23  1  0  0  0  0
 22 24  2  0  0  0  0
 20 21  1  0  0  0  0
 20 22  1  0  0  0  0
 19 20  2  0  0  0  0
 19 28  1  0  0  0  0
 17 18  1  0  0  0  0
 17 19  1  0  0  0  0
 15 16  1  0  0  0  0
 15 17  1  0  0  0  0
 14 15  2  0  0  0  0
 14 28  1  0  0  0  0
 11 12  1  0  0  0  0
 11 13  1  0  0  0  0
 11 14  1  0  0  0  0
  9 10  1  0  0  0  0
  9 11  1  0  0  0  0
  9 29  1  0  0  0  0
  7  8  1  0  0  0  0
  7  9  1  0  0  0  0
 33 34  1  0  0  0  0
 33 35  1  0  0  0  0
 33 36  1  0  0  0  0
 31 32  1  0  0  0  0
 31 33  1  0  0  0  0
M  END
$$$$
default_name
  -OEChem-12212115393D

 36 37  0     1  0  0  0  0  0999 V2000
   -4.0843   -4.0736    1.2944 H   0  0  0  0  0  0  0  0  0  0  0  0
   -4.0342   -3.2816    0.5484 C   0  0  0  0  0  0  0  0  0  0  0  0
   -4.8842   -2.6126    0.6694 H   0  0  0  0  0  0  0  0  0  0  0  0
   -4.0433   -3.7186   -0.4486 H   0  0  0  0  0  0  0  0  0  0  0  0
   -2.7532   -2.5046    0.7444 C   0  0  0  0  0  0  0  0  0  0  0  0
   -1.9803   -2.8096    1.6434 O   0  0  0  0  0  0  0  0  0  0  0  0
   -2.5332   -1.4966   -0.0966 N   0  0  0  0  0  0  0  0  0  0  0  0
   -3.2312   -1.2816   -0.7936 H   0  0  0  0  0  0  0  0  0  0  0  0
   -1.3593   -0.6196   -0.0536 C   0  0  1  0  0  0  0  0  0  0  0  0
   -1.5930    0.2468    0.5663 H   0  0  0  0  0  0  0  0  0  0  0  0
   -0.1835   -1.3687    0.5932 C   0  0  0  0  0  0  0  0  0  0  0  0
    0.6765   -0.6984    0.6418 H   0  0  0  0  0  0  0  0  0  0  0  0
   -0.4582   -1.6283    1.6170 H   0  0  0  0  0  0  0  0  0  0  0  0
    0.2426   -2.6185   -0.1157 C   0  0  0  0  0  0  0  0  0  0  0  0
    1.1449   -2.6842   -1.1203 C   0  0  0  0  0  0  0  0  0  0  0  0
    1.6567   -1.8287   -1.5472 H   0  0  0  0  0  0  0  0  0  0  0  0
    1.3242   -4.0006   -1.4978 N   0  0  0  0  0  0  0  0  0  0  0  0
    1.9510   -4.2882   -2.2352 H   0  0  0  0  0  0  0  0  0  0  0  0
    0.5537   -4.8557   -0.7390 C   0  0  0  0  0  0  0  0  0  0  0  0
    0.4081   -6.2502   -0.7175 C   0  0  0  0  0  0  0  0  0  0  0  0
    0.9689   -6.8698   -1.4018 H   0  0  0  0  0  0  0  0  0  0  0  0
   -0.4790   -6.8300    0.2055 C   0  0  0  0  0  0  0  0  0  0  0  0
   -0.6051   -7.9038    0.2359 H   0  0  0  0  0  0  0  0  0  0  0  0
   -1.2085   -6.0106    1.0863 C   0  0  0  0  0  0  0  0  0  0  0  0
   -1.8962   -6.4603    1.7891 H   0  0  0  0  0  0  0  0  0  0  0  0
   -1.0557   -4.6099    1.0545 C   0  0  0  0  0  0  0  0  0  0  0  0
   -1.6321   -3.9912    1.7276 H   0  0  0  0  0  0  0  0  0  0  0  0
   -0.1681   -3.9974    0.1435 C   0  0  0  0  0  0  0  0  0  0  0  0
   -1.0014   -0.1018   -1.4553 C   0  0  0  0  0  0  0  0  0  0  0  0
   -0.9987    1.1064   -1.6872 O   0  0  0  0  0  0  0  0  0  0  0  0
   -0.7016   -1.0152   -2.3886 N   0  0  0  0  0  0  0  0  0  0  0  0
   -0.7798   -1.9891   -2.1322 H   0  0  0  0  0  0  0  0  0  0  0  0
   -0.3384   -0.6939   -3.7660 C   0  0  0  0  0  0  0  0  0  0  0  0
    0.4685    0.0413   -3.7720 H   0  0  0  0  0  0  0  0  0  0  0  0
   -0.0108   -1.5940   -4.2877 H   0  0  0  0  0  0  0  0  0  0  0  0
   -1.2015   -0.2706   -4.2825 H   0  0  0  0  0  0  0  0  0  0  0  0
  5  6  2  0  0  0  0
  5  7  1  0  0  0  0
  2  3  1  0  0  0  0
  2  4  1  0  0  0  0
  2  5  1  0  0  0  0
  1  2  1  0  0  0  0
 29 30  2  0  0  0  0
 29 31  1  0  0  0  0
 26 27  1  0  0  0  0
 26 28  2  0  0  0  0
 24 25  1  0  0  0  0
 24 26  1  0  0  0  0
 22 23  1  0  0  0  0
 22 24  2  0  0  0  0
 20 21  1  0  0  0  0
 20 22  1  0  0  0  0
 19 20  2  0  0  0  0
 19 28  1  0  0  0  0
 17 18  1  0  0  0  0
 17 19  1  0  0  0  0
 15 16  1  0  0  0  0
 15 17  1  0  0  0  0
 14 15  2  0  0  0  0
 14 28  1  0  0  0  0
 11 12  1  0  0  0  0
 11 13  1  0  0  0  0
 11 14  1  0  0  0  0
  9 10  1  0  0  0  0
  9 11  1  0  0  0  0
  9 29  1  0  0  0  0
  7  8  1  0  0  0  0
  7  9  1  0  0  0  0
 33 34  1  0  0  0  0
 33 35  1  0  0  0  0
 33 36  1  0  0  0  0
 31 32  1  0  0  0  0
 31 33  1  0  0  0  0
M  END
$$$$
default_name
  -OEChem-12212115393D

 36 37  0     1  0  0  0  0  0999 V2000
   -4.0843   -4.0736    1.2944 H   0  0  0  0  0  0  0  0  0  0  0  0
   -4.0342   -3.2816    0.5484 C   0  0  0  0  0  0  0  0  0  0  0  0
   -4.8842   -2.6126    0.6694 H   0  0  0  0  0  0  0  0  0  0  0  0
   -4.0433   -3.7186   -0.4486 H   0  0  0  0  0  0  0  0  0  0  0  0
   -2.7532   -2.5046    0.7444 C   0  0  0  0  0  0  0  0  0  0  0  0
   -1.9803   -2.8096    1.6434 O   0  0  0  0  0  0  0  0  0  0  0  0
   -2.5332   -1.4966   -0.0966 N   0  0  0  0  0  0  0  0  0  0  0  0
   -3.2312   -1.2816   -0.7936 H   0  0  0  0  0  0  0  0  0  0  0  0
   -1.3593   -0.6196   -0.0536 C   0  0  1  0  0  0  0  0  0  0  0  0
   -1.5930    0.2468    0.5663 H   0  0  0  0  0  0  0  0  0  0  0  0
   -0.1835   -1.3687    0.5932 C   0  0  0  0  0  0  0  0  0  0  0  0
    0.6765   -0.6984    0.6418 H   0  0  0  0  0  0  0  0  0  0  0  0
   -0.4582   -1.6283    1.6170 H   0  0  0  0  0  0  0  0  0  0  0  0
    0.2426   -2.6185   -0.1157 C   0  0  0  0  0  0  0  0  0  0  0  0
    1.1449   -2.6842   -1.1203 C   0  0  0  0  0  0  0  0  0  0  0  0
    1.6567   -1.8287   -1.5472 H   0  0  0  0  0  0  0  0  0  0  0  0
    1.3242   -4.0006   -1.4978 N   0  0  0  0  0  0  0  0  0  0  0  0
    1.9510   -4.2882   -2.2352 H   0  0  0  0  0  0  0  0  0  0  0  0
    0.5537   -4.8557   -0.7390 C   0  0  0  0  0  0  0  0  0  0  0  0
    0.4081   -6.2502   -0.7175 C   0  0  0  0  0  0  0  0  0  0  0  0
    0.9689   -6.8698   -1.4018 H   0  0  0  0  0  0  0  0  0  0  0  0
   -0.4790   -6.8300    0.2055 C   0  0  0  0  0  0  0  0  0  0  0  0
   -0.6051   -7.9038    0.2359 H   0  0  0  0  0  0  0  0  0  0  0  0
   -1.2085   -6.0106    1.0863 C   0  0  0  0  0  0  0  0  0  0  0  0
   -1.8962   -6.4603    1.7891 H   0  0  0  0  0  0  0  0  0  0  0  0
   -1.0557   -4.6099    1.0545 C   0  0  0  0  0  0  0  0  0  0  0  0
   -1.6321   -3.9912    1.7276 H   0  0  0  0  0  0  0  0  0  0  0  0
   -0.1681   -3.9974    0.1435 C   0  0  0  0  0  0  0  0  0  0  0  0
   -1.0014   -0.1018   -1.4553 C   0  0  0  0  0  0  0  0  0  0  0  0
   -0.7288    1.0857   -1.6259 O   0  0  0  0  0  0  0  0  0  0  0  0
   -1.0040   -0.9916   -2.4570 N   0  0  0  0  0  0  0  0  0  0  0  0
   -1.2917   -1.9359   -2.2432 H   0  0  0  0  0  0  0  0  0  0  0  0
   -0.6860   -0.6673   -3.8449 C   0  0  0  0  0  0  0  0  0  0  0  0
    0.2700   -0.1422   -3.8905 H   0  0  0  0  0  0  0  0  0  0  0  0
   -0.6256   -1.5797   -4.4394 H   0  0  0  0  0  0  0  0  0  0  0  0
   -1.4615   -0.0187   -4.2558 H   0  0  0  0  0  0  0  0  0  0  0  0
  5  6  2  0  0  0  0
  5  7  1  0  0  0  0
  2  3  1  0  0  0  0
  2  4  1  0  0  0  0
  2  5  1  0  0  0  0
  1  2  1  0  0  0  0
 29 30  2  0  0  0  0
 29 31  1  0  0  0  0
 26 27  1  0  0  0  0
 26 28  2  0  0  0  0
 24 25  1  0  0  0  0
 24 26  1  0  0  0  0
 22 23  1  0  0  0  0
 22 24  2  0  0  0  0
 20 21  1  0  0  0  0
 20 22  1  0  0  0  0
 19 20  2  0  0  0  0
 19 28  1  0  0  0  0
 17 18  1  0  0  0  0
 17 19  1  0  0  0  0
 15 16  1  0  0  0  0
 15 17  1  0  0  0  0
 14 15  2  0  0  0  0
 14 28  1  0  0  0  0
 11 12  1  0  0  0  0
 11 13  1  0  0  0  0
 11 14  1  0  0  0  0
  9 10  1  0  0  0  0
  9 11  1  0  0  0  0
  9 29  1  0  0  0  0
  7  8  1  0  0  0  0
  7  9  1  0  0  0  0
 33 34  1  0  0  0  0
 33 35  1  0  0  0  0
 33 36  1  0  0  0  0
 31 32  1  0  0  0  0
 31 33  1  0  0  0  0
M  END
$$$$
default_name
  -OEChem-12212115393D

 36 37  0     1  0  0  0  0  0999 V2000
   -4.0843   -4.0736    1.2944 H   0  0  0  0  0  0  0  0  0  0  0  0
   -4.0342   -3.2816    0.5484 C   0  0  0  0  0  0  0  0  0  0  0  0
   -4.8842   -2.6126    0.6694 H   0  0  0  0  0  0  0  0  0  0  0  0
   -4.0433   -3.7186   -0.4486 H   0  0  0  0  0  0  0  0  0  0  0  0
   -2.7532   -2.5046    0.7444 C   0  0  0  0  0  0  0  0  0  0  0  0
   -1.9803   -2.8096    1.6434 O   0  0  0  0  0  0  0  0  0  0  0  0
   -2.5332   -1.4966   -0.0966 N   0  0  0  0  0  0  0  0  0  0  0  0
   -3.2312   -1.2816   -0.7936 H   0  0  0  0  0  0  0  0  0  0  0  0
   -1.3593   -0.6196   -0.0536 C   0  0  1  0  0  0  0  0  0  0  0  0
   -1.5930    0.2468    0.5663 H   0  0  0  0  0  0  0  0  0  0  0  0
   -0.1835   -1.3687    0.5932 C   0  0  0  0  0  0  0  0  0  0  0  0
    0.6765   -0.6984    0.6418 H   0  0  0  0  0  0  0  0  0  0  0  0
   -0.4582   -1.6283    1.6170 H   0  0  0  0  0  0  0  0  0  0  0  0
    0.2426   -2.6185   -0.1157 C   0  0  0  0  0  0  0  0  0  0  0  0
    1.1449   -2.6842   -1.1203 C   0  0  0  0  0  0  0  0  0  0  0  0
    1.6567   -1.8287   -1.5472 H   0  0  0  0  0  0  0  0  0  0  0  0
    1.3242   -4.0006   -1.4978 N   0  0  0  0  0  0  0  0  0  0  0  0
    1.9510   -4.2882   -2.2352 H   0  0  0  0  0  0  0  0  0  0  0  0
    0.5537   -4.8557   -0.7390 C   0  0  0  0  0  0  0  0  0  0  0  0
    0.4081   -6.2502   -0.7175 C   0  0  0  0  0  0  0  0  0  0  0  0
    0.9689   -6.8698   -1.4018 H   0  0  0  0  0  0  0  0  0  0  0  0
   -0.4790   -6.8300    0.2055 C   0  0  0  0  0  0  0  0  0  0  0  0
   -0.6051   -7.9038    0.2359 H   0  0  0  0  0  0  0  0  0  0  0  0
   -1.2085   -6.0106    1.0863 C   0  0  0  0  0  0  0  0  0  0  0  0
   -1.8962   -6.4603    1.7891 H   0  0  0  0  0  0  0  0  0  0  0  0
   -1.0557   -4.6099    1.0545 C   0  0  0  0  0  0  0  0  0  0  0  0
   -1.6321   -3.9912    1.7276 H   0  0  0  0  0  0  0  0  0  0  0  0
   -0.1681   -3.9974    0.1435 C   0  0  0  0  0  0  0  0  0  0  0  0
   -1.0014   -0.1018   -1.4553 C   0  0  0  0  0  0  0  0  0  0  0  0
   -0.4677    0.9983   -1.5916 O   0  0  0  0  0  0  0  0  0  0  0  0
   -1.2965   -0.8932   -2.4954 N   0  0  0  0  0  0  0  0  0  0  0  0
   -1.7833   -1.7570   -2.3026 H   0  0  0  0  0  0  0  0  0  0  0  0
   -1.0223   -0.5547   -3.8892 C   0  0  0  0  0  0  0  0  0  0  0  0
    0.0246   -0.2654   -3.9986 H   0  0  0  0  0  0  0  0  0  0  0  0
   -1.2293   -1.4117   -4.5315 H   0  0  0  0  0  0  0  0  0  0  0  0
   -1.6508    0.2843   -4.1922 H   0  0  0  0  0  0  0  0  0  0  0  0
  5  6  2  0  0  0  0
  5  7  1  0  0  0  0
  2  3  1  0  0  0  0
  2  4  1  0  0  0  0
  2  5  1  0  0  0  0
  1  2  1  0  0  0  0
 29 30  2  0  0  0  0
 29 31  1  0  0  0  0
 26 27  1  0  0  0  0
 26 28  2  0  0  0  0
 24 25  1  0  0  0  0
 24 26  1  0  0  0  0
 22 23  1  0  0  0  0
 22 24  2  0  0  0  0
 20 21  1  0  0  0  0
 20 22  1  0  0  0  0
 19 20  2  0  0  0  0
 19 28  1  0  0  0  0
 17 18  1  0  0  0  0
 17 19  1  0  0  0  0
 15 16  1  0  0  0  0
 15 17  1  0  0  0  0
 14 15  2  0  0  0  0
 14 28  1  0  0  0  0
 11 12  1  0  0  0  0
 11 13  1  0  0  0  0
 11 14  1  0  0  0  0
  9 10  1  0  0  0  0
  9 11  1  0  0  0  0
  9 29  1  0  0  0  0
  7  8  1  0  0  0  0
  7  9  1  0  0  0  0
 33 34  1  0  0  0  0
 33 35  1  0  0  0  0
 33 36  1  0  0  0  0
 31 32  1  0  0  0  0
 31 33  1  0  0  0  0
M  END
$$$$
default_name
  -OEChem-12212115393D

 36 37  0     1  0  0  0  0  0999 V2000
   -4.0843   -4.0736    1.2944 H   0  0  0  0  0  0  0  0  0  0  0  0
   -4.0342   -3.2816    0.5484 C   0  0  0  0  0  0  0  0  0  0  0  0
   -4.8842   -2.6126    0.6694 H   0  0  0  0  0  0  0  0  0  0  0  0
   -4.0433   -3.7186   -0.4486 H   0  0  0  0  0  0  0  0  0  0  0  0
   -2.7532   -2.5046    0.7444 C   0  0  0  0  0  0  0  0  0  0  0  0
   -1.9803   -2.8096    1.6434 O   0  0  0  0  0  0  0  0  0  0  0  0
   -2.5332   -1.4966   -0.0966 N   0  0  0  0  0  0  0  0  0  0  0  0
   -3.2312   -1.2816   -0.7936 H   0  0  0  0  0  0  0  0  0  0  0  0
   -1.3593   -0.6196   -0.0536 C   0  0  1  0  0  0  0  0  0  0  0  0
   -1.5930    0.2468    0.5663 H   0  0  0  0  0  0  0  0  0  0  0  0
   -0.1835   -1.3687    0.5932 C   0  0  0  0  0  0  0  0  0  0  0  0
    0.6765   -0.6984    0.6418 H   0  0  0  0  0  0  0  0  0  0  0  0
   -0.4582   -1.6283    1.6170 H   0  0  0  0  0  0  0  0  0  0  0  0
    0.2426   -2.6185   -0.1157 C   0  0  0  0  0  0  0  0  0  0  0  0
    1.1449   -2.6842   -1.1203 C   0  0  0  0  0  0  0  0  0  0  0  0
    1.6567   -1.8287   -1.5472 H   0  0  0  0  0  0  0  0  0  0  0  0
    1.3242   -4.0006   -1.4978 N   0  0  0  0  0  0  0  0  0  0  0  0
    1.9510   -4.2882   -2.2352 H   0  0  0  0  0  0  0  0  0  0  0  0
    0.5537   -4.8557   -0.7390 C   0  0  0  0  0  0  0  0  0  0  0  0
    0.4081   -6.2502   -0.7175 C   0  0  0  0  0  0  0  0  0  0  0  0
    0.9689   -6.8698   -1.4018 H   0  0  0  0  0  0  0  0  0  0  0  0
   -0.4790   -6.8300    0.2055 C   0  0  0  0  0  0  0  0  0  0  0  0
   -0.6051   -7.9038    0.2359 H   0  0  0  0  0  0  0  0  0  0  0  0
   -1.2085   -6.0106    1.0863 C   0  0  0  0  0  0  0  0  0  0  0  0
   -1.8962   -6.4603    1.7891 H   0  0  0  0  0  0  0  0  0  0  0  0
   -1.0557   -4.6099    1.0545 C   0  0  0  0  0  0  0  0  0  0  0  0
   -1.6321   -3.9912    1.7276 H   0  0  0  0  0  0  0  0  0  0  0  0
   -0.1681   -3.9974    0.1435 C   0  0  0  0  0  0  0  0  0  0  0  0
   -1.0014   -0.1018   -1.4553 C   0  0  0  0  0  0  0  0  0  0  0  0
   -0.2331    0.8502   -1.5864 O   0  0  0  0  0  0  0  0  0  0  0  0
   -1.5591   -0.7268   -2.5010 N   0  0  0  0  0  0  0  0  0  0  0  0
   -2.2211   -1.4645   -2.3064 H   0  0  0  0  0  0  0  0  0  0  0  0
   -1.3244   -0.3639   -3.8958 C   0  0  0  0  0  0  0  0  0  0  0  0
   -0.2509   -0.3200   -4.0892 H   0  0  0  0  0  0  0  0  0  0  0  0
   -1.7807   -1.1012   -4.5576 H   0  0  0  0  0  0  0  0  0  0  0  0
   -1.7566    0.6179   -4.0960 H   0  0  0  0  0  0  0  0  0  0  0  0
  5  6  2  0  0  0  0
  5  7  1  0  0  0  0
  2  3  1  0  0  0  0
  2  4  1  0  0  0  0
  2  5  1  0  0  0  0
  1  2  1  0  0  0  0
 29 30  2  0  0  0  0
 29 31  1  0  0  0  0
 26 27  1  0  0  0  0
 26 28  2  0  0  0  0
 24 25  1  0  0  0  0
 24 26  1  0  0  0  0
 22 23  1  0  0  0  0
 22 24  2  0  0  0  0
 20 21  1  0  0  0  0
 20 22  1  0  0  0  0
 19 20  2  0  0  0  0
 19 28  1  0  0  0  0
 17 18  1  0  0  0  0
 17 19  1  0  0  0  0
 15 16  1  0  0  0  0
 15 17  1  0  0  0  0
 14 15  2  0  0  0  0
 14 28  1  0  0  0  0
 11 12  1  0  0  0  0
 11 13  1  0  0  0  0
 11 14  1  0  0  0  0
  9 10  1  0  0  0  0
  9 11  1  0  0  0  0
  9 29  1  0  0  0  0
  7  8  1  0  0  0  0
  7  9  1  0  0  0  0
 33 34  1  0  0  0  0
 33 35  1  0  0  0  0
 33 36  1  0  0  0  0
 31 32  1  0  0  0  0
 31 33  1  0  0  0  0
M  END
$$$$
default_name
  -OEChem-12212115393D

 36 37  0     1  0  0  0  0  0999 V2000
   -4.0843   -4.0736    1.2944 H   0  0  0  0  0  0  0  0  0  0  0  0
   -4.0342   -3.2816    0.5484 C   0  0  0  0  0  0  0  0  0  0  0  0
   -4.8842   -2.6126    0.6694 H   0  0  0  0  0  0  0  0  0  0  0  0
   -4.0433   -3.7186   -0.4486 H   0  0  0  0  0  0  0  0  0  0  0  0
   -2.7532   -2.5046    0.7444 C   0  0  0  0  0  0  0  0  0  0  0  0
   -1.9803   -2.8096    1.6434 O   0  0  0  0  0  0  0  0  0  0  0  0
   -2.5332   -1.4966   -0.0966 N   0  0  0  0  0  0  0  0  0  0  0  0
   -3.2312   -1.2816   -0.7936 H   0  0  0  0  0  0  0  0  0  0  0  0
   -1.3593   -0.6196   -0.0536 C   0  0  1  0  0  0  0  0  0  0  0  0
   -1.5930    0.2468    0.5663 H   0  0  0  0  0  0  0  0  0  0  0  0
   -0.1835   -1.3687    0.5932 C   0  0  0  0  0  0  0  0  0  0  0  0
    0.6765   -0.6984    0.6418 H   0  0  0  0  0  0  0  0  0  0  0  0
   -0.4582   -1.6283    1.6170 H   0  0  0  0  0  0  0  0  0  0  0  0
    0.2426   -2.6185   -0.1157 C   0  0  0  0  0  0  0  0  0  0  0  0
    1.1449   -2.6842   -1.1203 C   0  0  0  0  0  0  0  0  0  0  0  0
    1.6567   -1.8287   -1.5472 H   0  0  0  0  0  0  0  0  0  0  0  0
    1.3242   -4.0006   -1.4978 N   0  0  0  0  0  0  0  0  0  0  0  0
    1.9510   -4.2882   -2.2352 H   0  0  0  0  0  0  0  0  0  0  0  0
    0.5537   -4.8557   -0.7390 C   0  0  0  0  0  0  0  0  0  0  0  0
    0.4081   -6.2502   -0.7175 C   0  0  0  0  0  0  0  0  0  0  0  0
    0.9689   -6.8698   -1.4018 H   0  0  0  0  0  0  0  0  0  0  0  0
   -0.4790   -6.8300    0.2055 C   0  0  0  0  0  0  0  0  0  0  0  0
   -0.6051   -7.9038    0.2359 H   0  0  0  0  0  0  0  0  0  0  0  0
   -1.2085   -6.0106    1.0863 C   0  0  0  0  0  0  0  0  0  0  0  0
   -1.8962   -6.4603    1.7891 H   0  0  0  0  0  0  0  0  0  0  0  0
   -1.0557   -4.6099    1.0545 C   0  0  0  0  0  0  0  0  0  0  0  0
   -1.6321   -3.9912    1.7276 H   0  0  0  0  0  0  0  0  0  0  0  0
   -0.1681   -3.9974    0.1435 C   0  0  0  0  0  0  0  0  0  0  0  0
   -1.0014   -0.1018   -1.4553 C   0  0  0  0  0  0  0  0  0  0  0  0
   -0.0410    0.6513   -1.6108 O   0  0  0  0  0  0  0  0  0  0  0  0
   -1.7740   -0.5038   -2.4734 N   0  0  0  0  0  0  0  0  0  0  0  0
   -2.5753   -1.0784   -2.2541 H   0  0  0  0  0  0  0  0  0  0  0  0
   -1.5718   -0.1079   -3.8644 C   0  0  0  0  0  0  0  0  0  0  0  0
   -0.5379   -0.3022   -4.1559 H   0  0  0  0  0  0  0  0  0  0  0  0
   -2.2424   -0.6696   -4.5160 H   0  0  0  0  0  0  0  0  0  0  0  0
   -1.7716    0.9593   -3.9737 H   0  0  0  0  0  0  0  0  0  0  0  0
  5  6  2  0  0  0  0
  5  7  1  0  0  0  0
  2  3  1  0  0  0  0
  2  4  1  0  0  0  0
  2  5  1  0  0  0  0
  1  2  1  0  0  0  0
 29 30  2  0  0  0  0
 29 31  1  0  0  0  0
 26 27  1  0  0  0  0
 26 28  2  0  0  0  0
 24 25  1  0  0  0  0
 24 26  1  0  0  0  0
 22 23  1  0  0  0  0
 22 24  2  0  0  0  0
 20 21  1  0  0  0  0
 20 22  1  0  0  0  0
 19 20  2  0  0  0  0
 19 28  1  0  0  0  0
 17 18  1  0  0  0  0
 17 19  1  0  0  0  0
 15 16  1  0  0  0  0
 15 17  1  0  0  0  0
 14 15  2  0  0  0  0
 14 28  1  0  0  0  0
 11 12  1  0  0  0  0
 11 13  1  0  0  0  0
 11 14  1  0  0  0  0
  9 10  1  0  0  0  0
  9 11  1  0  0  0  0
  9 29  1  0  0  0  0
  7  8  1  0  0  0  0
  7  9  1  0  0  0  0
 33 34  1  0  0  0  0
 33 35  1  0  0  0  0
 33 36  1  0  0  0  0
 31 32  1  0  0  0  0
 31 33  1  0  0  0  0
M  END
$$$$
default_name
  -OEChem-12212115393D

 36 37  0     1  0  0  0  0  0999 V2000
   -4.0843   -4.0736    1.2944 H   0  0  0  0  0  0  0  0  0  0  0  0
   -4.0342   -3.2816    0.5484 C   0  0  0  0  0  0  0  0  0  0  0  0
   -4.8842   -2.6126    0.6694 H   0  0  0  0  0  0  0  0  0  0  0  0
   -4.0433   -3.7186   -0.4486 H   0  0  0  0  0  0  0  0  0  0  0  0
   -2.7532   -2.5046    0.7444 C   0  0  0  0  0  0  0  0  0  0  0  0
   -1.9803   -2.8096    1.6434 O   0  0  0  0  0  0  0  0  0  0  0  0
   -2.5332   -1.4966   -0.0966 N   0  0  0  0  0  0  0  0  0  0  0  0
   -3.2312   -1.2816   -0.7936 H   0  0  0  0  0  0  0  0  0  0  0  0
   -1.3593   -0.6196   -0.0536 C   0  0  1  0  0  0  0  0  0  0  0  0
   -1.5930    0.2468    0.5663 H   0  0  0  0  0  0  0  0  0  0  0  0
   -0.1835   -1.3687    0.5932 C   0  0  0  0  0  0  0  0  0  0  0  0
    0.6765   -0.6984    0.6418 H   0  0  0  0  0  0  0  0  0  0  0  0
   -0.4582   -1.6283    1.6170 H   0  0  0  0  0  0  0  0  0  0  0  0
    0.2426   -2.6185   -0.1157 C   0  0  0  0  0  0  0  0  0  0  0  0
    1.1449   -2.6842   -1.1203 C   0  0  0  0  0  0  0  0  0  0  0  0
    1.6567   -1.8287   -1.5472 H   0  0  0  0  0  0  0  0  0  0  0  0
    1.3242   -4.0006   -1.4978 N   0  0  0  0  0  0  0  0  0  0  0  0
    1.9510   -4.2882   -2.2352 H   0  0  0  0  0  0  0  0  0  0  0  0
    0.5537   -4.8557   -0.7390 C   0  0  0  0  0  0  0  0  0  0  0  0
    0.4081   -6.2502   -0.7175 C   0  0  0  0  0  0  0  0  0  0  0  0
    0.9689   -6.8698   -1.4018 H   0  0  0  0  0  0  0  0  0  0  0  0
   -0.4790   -6.8300    0.2055 C   0  0  0  0  0  0  0  0  0  0  0  0
   -0.6051   -7.9038    0.2359 H   0  0  0  0  0  0  0  0  0  0  0  0
   -1.2085   -6.0106    1.0863 C   0  0  0  0  0  0  0  0  0  0  0  0
   -1.8962   -6.4603    1.7891 H   0  0  0  0  0  0  0  0  0  0  0  0
   -1.0557   -4.6099    1.0545 C   0  0  0  0  0  0  0  0  0  0  0  0
   -1.6321   -3.9912    1.7276 H   0  0  0  0  0  0  0  0  0  0  0  0
   -0.1681   -3.9974    0.1435 C   0  0  0  0  0  0  0  0  0  0  0  0
   -1.0014   -0.1018   -1.4553 C   0  0  0  0  0  0  0  0  0  0  0  0
    0.0954    0.4154   -1.6631 O   0  0  0  0  0  0  0  0  0  0  0  0
   -1.9265   -0.2392   -2.4147 N   0  0  0  0  0  0  0  0  0  0  0  0
   -2.8216   -0.6250   -2.1495 H   0  0  0  0  0  0  0  0  0  0  0  0
   -1.7476    0.1959   -3.7971 C   0  0  0  0  0  0  0  0  0  0  0  0
   -0.8167   -0.2133   -4.1942 H   0  0  0  0  0  0  0  0  0  0  0  0
   -2.5828   -0.1462   -4.4096 H   0  0  0  0  0  0  0  0  0  0  0  0
   -1.6948    1.2852   -3.8337 H   0  0  0  0  0  0  0  0  0  0  0  0
  5  6  2  0  0  0  0
  5  7  1  0  0  0  0
  2  3  1  0  0  0  0
  2  4  1  0  0  0  0
  2  5  1  0  0  0  0
  1  2  1  0  0  0  0
 29 30  2  0  0  0  0
 29 31  1  0  0  0  0
 26 27  1  0  0  0  0
 26 28  2  0  0  0  0
 24 25  1  0  0  0  0
 24 26  1  0  0  0  0
 22 23  1  0  0  0  0
 22 24  2  0  0  0  0
 20 21  1  0  0  0  0
 20 22  1  0  0  0  0
 19 20  2  0  0  0  0
 19 28  1  0  0  0  0
 17 18  1  0  0  0  0
 17 19  1  0  0  0  0
 15 16  1  0  0  0  0
 15 17  1  0  0  0  0
 14 15  2  0  0  0  0
 14 28  1  0  0  0  0
 11 12  1  0  0  0  0
 11 13  1  0  0  0  0
 11 14  1  0  0  0  0
  9 10  1  0  0  0  0
  9 11  1  0  0  0  0
  9 29  1  0  0  0  0
  7  8  1  0  0  0  0
  7  9  1  0  0  0  0
 33 34  1  0  0  0  0
 33 35  1  0  0  0  0
 33 36  1  0  0  0  0
 31 32  1  0  0  0  0
 31 33  1  0  0  0  0
M  END
$$$$
default_name
  -OEChem-12212115393D

 36 37  0     1  0  0  0  0  0999 V2000
   -4.0843   -4.0736    1.2944 H   0  0  0  0  0  0  0  0  0  0  0  0
   -4.0342   -3.2816    0.5484 C   0  0  0  0  0  0  0  0  0  0  0  0
   -4.8842   -2.6126    0.6694 H   0  0  0  0  0  0  0  0  0  0  0  0
   -4.0433   -3.7186   -0.4486 H   0  0  0  0  0  0  0  0  0  0  0  0
   -2.7532   -2.5046    0.7444 C   0  0  0  0  0  0  0  0  0  0  0  0
   -1.9803   -2.8096    1.6434 O   0  0  0  0  0  0  0  0  0  0  0  0
   -2.5332   -1.4966   -0.0966 N   0  0  0  0  0  0  0  0  0  0  0  0
   -3.2312   -1.2816   -0.7936 H   0  0  0  0  0  0  0  0  0  0  0  0
   -1.3593   -0.6196   -0.0536 C   0  0  1  0  0  0  0  0  0  0  0  0
   -1.5930    0.2468    0.5663 H   0  0  0  0  0  0  0  0  0  0  0  0
   -0.1835   -1.3687    0.5932 C   0  0  0  0  0  0  0  0  0  0  0  0
    0.6765   -0.6984    0.6418 H   0  0  0  0  0  0  0  0  0  0  0  0
   -0.4582   -1.6283    1.6170 H   0  0  0  0  0  0  0  0  0  0  0  0
    0.2426   -2.6185   -0.1157 C   0  0  0  0  0  0  0  0  0  0  0  0
    1.1449   -2.6842   -1.1203 C   0  0  0  0  0  0  0  0  0  0  0  0
    1.6567   -1.8287   -1.5472 H   0  0  0  0  0  0  0  0  0  0  0  0
    1.3242   -4.0006   -1.4978 N   0  0  0  0  0  0  0  0  0  0  0  0
    1.9510   -4.2882   -2.2352 H   0  0  0  0  0  0  0  0  0  0  0  0
    0.5537   -4.8557   -0.7390 C   0  0  0  0  0  0  0  0  0  0  0  0
    0.4081   -6.2502   -0.7175 C   0  0  0  0  0  0  0  0  0  0  0  0
    0.9689   -6.8698   -1.4018 H   0  0  0  0  0  0  0  0  0  0  0  0
   -0.4790   -6.8300    0.2055 C   0  0  0  0  0  0  0  0  0  0  0  0
   -0.6051   -7.9038    0.2359 H   0  0  0  0  0  0  0  0  0  0  0  0
   -1.2085   -6.0106    1.0863 C   0  0  0  0  0  0  0  0  0  0  0  0
   -1.8962   -6.4603    1.7891 H   0  0  0  0  0  0  0  0  0  0  0  0
   -1.0557   -4.6099    1.0545 C   0  0  0  0  0  0  0  0  0  0  0  0
   -1.6321   -3.9912    1.7276 H   0  0  0  0  0  0  0  0  0  0  0  0
   -0.1681   -3.9974    0.1435 C   0  0  0  0  0  0  0  0  0  0  0  0
   -1.0014   -0.1018   -1.4553 C   0  0  0  0  0  0  0  0  0  0  0  0
    0.1670    0.1585   -1.7398 O   0  0  0  0  0  0  0  0  0  0  0  0
   -2.0062    0.0488   -2.3286 N   0  0  0  0  0  0  0  0  0  0  0  0
   -2.9434   -0.1351   -1.9997 H   0  0  0  0  0  0  0  0  0  0  0  0
   -1.8397    0.5268   -3.6983 C   0  0  0  0  0  0  0  0  0  0  0  0
   -1.0683   -0.0592   -4.2015 H   0  0  0  0  0  0  0  0  0  0  0  0
   -2.7787    0.4333   -4.2455 H   0  0  0  0  0  0  0  0  0  0  0  0
   -1.5315    1.5735   -3.6855 H   0  0  0  0  0  0  0  0  0  0  0  0
  5  6  2  0  0  0  0
  5  7  1  0  0  0  0
  2  3  1  0  0  0  0
  2  4  1  0  0  0  0
  2  5  1  0  0  0  0
  1  2  1  0  0  0  0
 29 30  2  0  0  0  0
 29 31  1  0  0  0  0
 26 27  1  0  0  0  0
 26 28  2  0  0  0  0
 24 25  1  0  0  0  0
 24 26  1  0  0  0  0
 22 23  1  0  0  0  0
 22 24  2  0  0  0  0
 20 21  1  0  0  0  0
 20 22  1  0  0  0  0
 19 20  2  0  0  0  0
 19 28  1  0  0  0  0
 17 18  1  0  0  0  0
 17 19  1  0  0  0  0
 15 16  1  0  0  0  0
 15 17  1  0  0  0  0
 14 15  2  0  0  0  0
 14 28  1  0  0  0  0
 11 12  1  0  0  0  0
 11 13  1  0  0  0  0
 11 14  1  0  0  0  0
  9 10  1  0  0  0  0
  9 11  1  0  0  0  0
  9 29  1  0  0  0  0
  7  8  1  0  0  0  0
  7  9  1  0  0  0  0
 33 34  1  0  0  0  0
 33 35  1  0  0  0  0
 33 36  1  0  0  0  0
 31 32  1  0  0  0  0
 31 33  1  0  0  0  0
M  END
$$$$
default_name
  -OEChem-12212115393D

 36 37  0     1  0  0  0  0  0999 V2000
   -4.0843   -4.0736    1.2944 H   0  0  0  0  0  0  0  0  0  0  0  0
   -4.0342   -3.2816    0.5484 C   0  0  0  0  0  0  0  0  0  0  0  0
   -4.8842   -2.6126    0.6694 H   0  0  0  0  0  0  0  0  0  0  0  0
   -4.0433   -3.7186   -0.4486 H   0  0  0  0  0  0  0  0  0  0  0  0
   -2.7532   -2.5046    0.7444 C   0  0  0  0  0  0  0  0  0  0  0  0
   -1.9803   -2.8096    1.6434 O   0  0  0  0  0  0  0  0  0  0  0  0
   -2.5332   -1.4966   -0.0966 N   0  0  0  0  0  0  0  0  0  0  0  0
   -3.2312   -1.2816   -0.7936 H   0  0  0  0  0  0  0  0  0  0  0  0
   -1.3593   -0.6196   -0.0536 C   0  0  1  0  0  0  0  0  0  0  0  0
   -1.5930    0.2468    0.5663 H   0  0  0  0  0  0  0  0  0  0  0  0
   -0.1835   -1.3687    0.5932 C   0  0  0  0  0  0  0  0  0  0  0  0
    0.6765   -0.6984    0.6418 H   0  0  0  0  0  0  0  0  0  0  0  0
   -0.4582   -1.6283    1.6170 H   0  0  0  0  0  0  0  0  0  0  0  0
    0.2426   -2.6185   -0.1157 C   0  0  0  0  0  0  0  0  0  0  0  0
    1.1449   -2.6842   -1.1203 C   0  0  0  0  0  0  0  0  0  0  0  0
    1.6567   -1.8287   -1.5472 H   0  0  0  0  0  0  0  0  0  0  0  0
    1.3242   -4.0006   -1.4978 N   0  0  0  0  0  0  0  0  0  0  0  0
    1.9510   -4.2882   -2.2352 H   0  0  0  0  0  0  0  0  0  0  0  0
    0.5537   -4.8557   -0.7390 C   0  0  0  0  0  0  0  0  0  0  0  0
    0.4081   -6.2502   -0.7175 C   0  0  0  0  0  0  0  0  0  0  0  0
    0.9689   -6.8698   -1.4018 H   0  0  0  0  0  0  0  0  0  0  0  0
   -0.4790   -6.8300    0.2055 C   0  0  0  0  0  0  0  0  0  0  0  0
   -0.6051   -7.9038    0.2359 H   0  0  0  0  0  0  0  0  0  0  0  0
   -1.2085   -6.0106    1.0863 C   0  0  0  0  0  0  0  0  0  0  0  0
   -1.8962   -6.4603    1.7891 H   0  0  0  0  0  0  0  0  0  0  0  0
   -1.0557   -4.6099    1.0545 C   0  0  0  0  0  0  0  0  0  0  0  0
   -1.6321   -3.9912    1.7276 H   0  0  0  0  0  0  0  0  0  0  0  0
   -0.1681   -3.9974    0.1435 C   0  0  0  0  0  0  0  0  0  0  0  0
   -1.0014   -0.1018   -1.4553 C   0  0  0  0  0  0  0  0  0  0  0  0
    0.1687   -0.1020   -1.8355 O   0  0  0  0  0  0  0  0  0  0  0  0
   -2.0078    0.3406   -2.2212 N   0  0  0  0  0  0  0  0  0  0  0  0
   -2.9323    0.3577   -1.8148 H   0  0  0  0  0  0  0  0  0  0  0  0
   -1.8420    0.8622   -3.5750 C   0  0  0  0  0  0  0  0  0  0  0  0
   -1.2756    0.1494   -4.1774 H   0  0  0  0  0  0  0  0  0  0  0  0
   -2.8168    1.0295   -4.0350 H   0  0  0  0  0  0  0  0  0  0  0  0
   -1.2928    1.8045   -3.5392 H   0  0  0  0  0  0  0  0  0  0  0  0
  5  6  2  0  0  0  0
  5  7  1  0  0  0  0
  2  3  1  0  0  0  0
  2  4  1  0  0  0  0
  2  5  1  0  0  0  0
  1  2  1  0  0  0  0
 29 30  2  0  0  0  0
 29 31  1  0  0  0  0
 26 27  1  0  0  0  0
 26 28  2  0  0  0  0
 24 25  1  0  0  0  0
 24 26  1  0  0  0  0
 22 23  1  0  0  0  0
 22 24  2  0  0  0  0
 20 21  1  0  0  0  0
 20 22  1  0  0  0  0
 19 20  2  0  0  0  0
 19 28  1  0  0  0  0
 17 18  1  0  0  0  0
 17 19  1  0  0  0  0
 15 16  1  0  0  0  0
 15 17  1  0  0  0  0
 14 15  2  0  0  0  0
 14 28  1  0  0  0  0
 11 12  1  0  0  0  0
 11 13  1  0  0  0  0
 11 14  1  0  0  0  0
  9 10  1  0  0  0  0
  9 11  1  0  0  0  0
  9 29  1  0  0  0  0
  7  8  1  0  0  0  0
  7  9  1  0  0  0  0
 33 34  1  0  0  0  0
 33 35  1  0  0  0  0
 33 36  1  0  0  0  0
 31 32  1  0  0  0  0
 31 33  1  0  0  0  0
M  END
$$$$
default_name
  -OEChem-12212115393D

 36 37  0     1  0  0  0  0  0999 V2000
   -4.0843   -4.0736    1.2944 H   0  0  0  0  0  0  0  0  0  0  0  0
   -4.0342   -3.2816    0.5484 C   0  0  0  0  0  0  0  0  0  0  0  0
   -4.8842   -2.6126    0.6694 H   0  0  0  0  0  0  0  0  0  0  0  0
   -4.0433   -3.7186   -0.4486 H   0  0  0  0  0  0  0  0  0  0  0  0
   -2.7532   -2.5046    0.7444 C   0  0  0  0  0  0  0  0  0  0  0  0
   -1.9803   -2.8096    1.6434 O   0  0  0  0  0  0  0  0  0  0  0  0
   -2.5332   -1.4966   -0.0966 N   0  0  0  0  0  0  0  0  0  0  0  0
   -3.2312   -1.2816   -0.7936 H   0  0  0  0  0  0  0  0  0  0  0  0
   -1.3593   -0.6196   -0.0536 C   0  0  1  0  0  0  0  0  0  0  0  0
   -1.5930    0.2468    0.5663 H   0  0  0  0  0  0  0  0  0  0  0  0
   -0.1835   -1.3687    0.5932 C   0  0  0  0  0  0  0  0  0  0  0  0
    0.6765   -0.6984    0.6418 H   0  0  0  0  0  0  0  0  0  0  0  0
   -0.4582   -1.6283    1.6170 H   0  0  0  0  0  0  0  0  0  0  0  0
    0.2426   -2.6185   -0.1157 C   0  0  0  0  0  0  0  0  0  0  0  0
    1.1449   -2.6842   -1.1203 C   0  0  0  0  0  0  0  0  0  0  0  0
    1.6567   -1.8287   -1.5472 H   0  0  0  0  0  0  0  0  0  0  0  0
    1.3242   -4.0006   -1.4978 N   0  0  0  0  0  0  0  0  0  0  0  0
    1.9510   -4.2882   -2.2352 H   0  0  0  0  0  0  0  0  0  0  0  0
    0.5537   -4.8557   -0.7390 C   0  0  0  0  0  0  0  0  0  0  0  0
    0.4081   -6.2502   -0.7175 C   0  0  0  0  0  0  0  0  0  0  0  0
    0.9689   -6.8698   -1.4018 H   0  0  0  0  0  0  0  0  0  0  0  0
   -0.4790   -6.8300    0.2055 C   0  0  0  0  0  0  0  0  0  0  0  0
   -0.6051   -7.9038    0.2359 H   0  0  0  0  0  0  0  0  0  0  0  0
   -1.2085   -6.0106    1.0863 C   0  0  0  0  0  0  0  0  0  0  0  0
   -1.8962   -6.4603    1.7891 H   0  0  0  0  0  0  0  0  0  0  0  0
   -1.0557   -4.6099    1.0545 C   0  0  0  0  0  0  0  0  0  0  0  0
   -1.6321   -3.9912    1.7276 H   0  0  0  0  0  0  0  0  0  0  0  0
   -0.1681   -3.9974    0.1435 C   0  0  0  0  0  0  0  0  0  0  0  0
   -1.0014   -0.1018   -1.4553 C   0  0  0  0  0  0  0  0  0  0  0  0
    0.1005   -0.3482   -1.9439 O   0  0  0  0  0  0  0  0  0  0  0  0
   -1.9309    0.6163   -2.0997 N   0  0  0  0  0  0  0  0  0  0  0  0
   -2.7891    0.8200   -1.6074 H   0  0  0  0  0  0  0  0  0  0  0  0
   -1.7543    1.1793   -3.4355 C   0  0  0  0  0  0  0  0  0  0  0  0
   -1.4245    0.3985   -4.1234 H   0  0  0  0  0  0  0  0  0  0  0  0
   -2.6945    1.6016   -3.7924 H   0  0  0  0  0  0  0  0  0  0  0  0
   -0.9949    1.9624   -3.4048 H   0  0  0  0  0  0  0  0  0  0  0  0
  5  6  2  0  0  0  0
  5  7  1  0  0  0  0
  2  3  1  0  0  0  0
  2  4  1  0  0  0  0
  2  5  1  0  0  0  0
  1  2  1  0  0  0  0
 29 30  2  0  0  0  0
 29 31  1  0  0  0  0
 26 27  1  0  0  0  0
 26 28  2  0  0  0  0
 24 25  1  0  0  0  0
 24 26  1  0  0  0  0
 22 23  1  0  0  0  0
 22 24  2  0  0  0  0
 20 21  1  0  0  0  0
 20 22  1  0  0  0  0
 19 20  2  0  0  0  0
 19 28  1  0  0  0  0
 17 18  1  0  0  0  0
 17 19  1  0  0  0  0
 15 16  1  0  0  0  0
 15 17  1  0  0  0  0
 14 15  2  0  0  0  0
 14 28  1  0  0  0  0
 11 12  1  0  0  0  0
 11 13  1  0  0  0  0
 11 14  1  0  0  0  0
  9 10  1  0  0  0  0
  9 11  1  0  0  0  0
  9 29  1  0  0  0  0
  7  8  1  0  0  0  0
  7  9  1  0  0  0  0
 33 34  1  0  0  0  0
 33 35  1  0  0  0  0
 33 36  1  0  0  0  0
 31 32  1  0  0  0  0
 31 33  1  0  0  0  0
M  END
$$$$
default_name
  -OEChem-12212115393D

 36 37  0     1  0  0  0  0  0999 V2000
   -4.0843   -4.0736    1.2944 H   0  0  0  0  0  0  0  0  0  0  0  0
   -4.0342   -3.2816    0.5484 C   0  0  0  0  0  0  0  0  0  0  0  0
   -4.8842   -2.6126    0.6694 H   0  0  0  0  0  0  0  0  0  0  0  0
   -4.0433   -3.7186   -0.4486 H   0  0  0  0  0  0  0  0  0  0  0  0
   -2.7532   -2.5046    0.7444 C   0  0  0  0  0  0  0  0  0  0  0  0
   -1.9803   -2.8096    1.6434 O   0  0  0  0  0  0  0  0  0  0  0  0
   -2.5332   -1.4966   -0.0966 N   0  0  0  0  0  0  0  0  0  0  0  0
   -3.2312   -1.2816   -0.7936 H   0  0  0  0  0  0  0  0  0  0  0  0
   -1.3593   -0.6196   -0.0536 C   0  0  1  0  0  0  0  0  0  0  0  0
   -1.5930    0.2468    0.5663 H   0  0  0  0  0  0  0  0  0  0  0  0
   -0.1835   -1.3687    0.5932 C   0  0  0  0  0  0  0  0  0  0  0  0
    0.6765   -0.6984    0.6418 H   0  0  0  0  0  0  0  0  0  0  0  0
   -0.4582   -1.6283    1.6170 H   0  0  0  0  0  0  0  0  0  0  0  0
    0.2426   -2.6185   -0.1157 C   0  0  0  0  0  0  0  0  0  0  0  0
    1.1449   -2.6842   -1.1203 C   0  0  0  0  0  0  0  0  0  0  0  0
    1.6567   -1.8287   -1.5472 H   0  0  0  0  0  0  0  0  0  0  0  0
    1.3242   -4.0006   -1.4978 N   0  0  0  0  0  0  0  0  0  0  0  0
    1.9510   -4.2882   -2.2352 H   0  0  0  0  0  0  0  0  0  0  0  0
    0.5537   -4.8557   -0.7390 C   0  0  0  0  0  0  0  0  0  0  0  0
    0.4081   -6.2502   -0.7175 C   0  0  0  0  0  0  0  0  0  0  0  0
    0.9689   -6.8698   -1.4018 H   0  0  0  0  0  0  0  0  0  0  0  0
   -0.4790   -6.8300    0.2055 C   0  0  0  0  0  0  0  0  0  0  0  0
   -0.6051   -7.9038    0.2359 H   0  0  0  0  0  0  0  0  0  0  0  0
   -1.2085   -6.0106    1.0863 C   0  0  0  0  0  0  0  0  0  0  0  0
   -1.8962   -6.4603    1.7891 H   0  0  0  0  0  0  0  0  0  0  0  0
   -1.0557   -4.6099    1.0545 C   0  0  0  0  0  0  0  0  0  0  0  0
   -1.6321   -3.9912    1.7276 H   0  0  0  0  0  0  0  0  0  0  0  0
   -0.1681   -3.9974    0.1435 C   0  0  0  0  0  0  0  0  0  0  0  0
   -1.0014   -0.1018   -1.4553 C   0  0  0  0  0  0  0  0  0  0  0  0
   -0.0329   -0.5634   -2.0575 O   0  0  0  0  0  0  0  0  0  0  0  0
   -1.7810    0.8572   -1.9725 N   0  0  0  0  0  0  0  0  0  0  0  0
   -2.5236    1.2202   -1.3918 H   0  0  0  0  0  0  0  0  0  0  0  0
   -1.5825    1.4565   -3.2892 C   0  0  0  0  0  0  0  0  0  0  0  0
   -1.5048    0.6709   -4.0432 H   0  0  0  0  0  0  0  0  0  0  0  0
   -2.4202    2.1108   -3.5342 H   0  0  0  0  0  0  0  0  0  0  0  0
   -0.6581    2.0365   -3.2915 H   0  0  0  0  0  0  0  0  0  0  0  0
  5  6  2  0  0  0  0
  5  7  1  0  0  0  0
  2  3  1  0  0  0  0
  2  4  1  0  0  0  0
  2  5  1  0  0  0  0
  1  2  1  0  0  0  0
 29 30  2  0  0  0  0
 29 31  1  0  0  0  0
 26 27  1  0  0  0  0
 26 28  2  0  0  0  0
 24 25  1  0  0  0  0
 24 26  1  0  0  0  0
 22 23  1  0  0  0  0
 22 24  2  0  0  0  0
 20 21  1  0  0  0  0
 20 22  1  0  0  0  0
 19 20  2  0  0  0  0
 19 28  1  0  0  0  0
 17 18  1  0  0  0  0
 17 19  1  0  0  0  0
 15 16  1  0  0  0  0
 15 17  1  0  0  0  0
 14 15  2  0  0  0  0
 14 28  1  0  0  0  0
 11 12  1  0  0  0  0
 11 13  1  0  0  0  0
 11 14  1  0  0  0  0
  9 10  1  0  0  0  0
  9 11  1  0  0  0  0
  9 29  1  0  0  0  0
  7  8  1  0  0  0  0
  7  9  1  0  0  0  0
 33 34  1  0  0  0  0
 33 35  1  0  0  0  0
 33 36  1  0  0  0  0
 31 32  1  0  0  0  0
 31 33  1  0  0  0  0
M  END
$$$$
default_name
  -OEChem-12212115393D

 36 37  0     1  0  0  0  0  0999 V2000
   -4.0843   -4.0736    1.2944 H   0  0  0  0  0  0  0  0  0  0  0  0
   -4.0342   -3.2816    0.5484 C   0  0  0  0  0  0  0  0  0  0  0  0
   -4.8842   -2.6126    0.6694 H   0  0  0  0  0  0  0  0  0  0  0  0
   -4.0433   -3.7186   -0.4486 H   0  0  0  0  0  0  0  0  0  0  0  0
   -2.7532   -2.5046    0.7444 C   0  0  0  0  0  0  0  0  0  0  0  0
   -1.9803   -2.8096    1.6434 O   0  0  0  0  0  0  0  0  0  0  0  0
   -2.5332   -1.4966   -0.0966 N   0  0  0  0  0  0  0  0  0  0  0  0
   -3.2312   -1.2816   -0.7936 H   0  0  0  0  0  0  0  0  0  0  0  0
   -1.3593   -0.6196   -0.0536 C   0  0  1  0  0  0  0  0  0  0  0  0
   -1.5930    0.2468    0.5663 H   0  0  0  0  0  0  0  0  0  0  0  0
   -0.1835   -1.3687    0.5932 C   0  0  0  0  0  0  0  0  0  0  0  0
    0.6765   -0.6984    0.6418 H   0  0  0  0  0  0  0  0  0  0  0  0
   -0.4582   -1.6283    1.6170 H   0  0  0  0  0  0  0  0  0  0  0  0
    0.2426   -2.6185   -0.1157 C   0  0  0  0  0  0  0  0  0  0  0  0
    1.1449   -2.6842   -1.1203 C   0  0  0  0  0  0  0  0  0  0  0  0
    1.6567   -1.8287   -1.5472 H   0  0  0  0  0  0  0  0  0  0  0  0
    1.3242   -4.0006   -1.4978 N   0  0  0  0  0  0  0  0  0  0  0  0
    1.9510   -4.2882   -2.2352 H   0  0  0  0  0  0  0  0  0  0  0  0
    0.5537   -4.8557   -0.7390 C   0  0  0  0  0  0  0  0  0  0  0  0
    0.4081   -6.2502   -0.7175 C   0  0  0  0  0  0  0  0  0  0  0  0
    0.9689   -6.8698   -1.4018 H   0  0  0  0  0  0  0  0  0  0  0  0
   -0.4790   -6.8300    0.2055 C   0  0  0  0  0  0  0  0  0  0  0  0
   -0.6051   -7.9038    0.2359 H   0  0  0  0  0  0  0  0  0  0  0  0
   -1.2085   -6.0106    1.0863 C   0  0  0  0  0  0  0  0  0  0  0  0
   -1.8962   -6.4603    1.7891 H   0  0  0  0  0  0  0  0  0  0  0  0
   -1.0557   -4.6099    1.0545 C   0  0  0  0  0  0  0  0  0  0  0  0
   -1.6321   -3.9912    1.7276 H   0  0  0  0  0  0  0  0  0  0  0  0
   -0.1681   -3.9974    0.1435 C   0  0  0  0  0  0  0  0  0  0  0  0
   -1.0014   -0.1018   -1.4553 C   0  0  0  0  0  0  0  0  0  0  0  0
   -0.2225   -0.7329   -2.1685 O   0  0  0  0  0  0  0  0  0  0  0  0
   -1.5683    1.0469   -1.8481 N   0  0  0  0  0  0  0  0  0  0  0  0
   -2.1537    1.5311   -1.1825 H   0  0  0  0  0  0  0  0  0  0  0  0
   -1.3384    1.6748   -3.1462 C   0  0  0  0  0  0  0  0  0  0  0  0
   -1.5111    0.9482   -3.9424 H   0  0  0  0  0  0  0  0  0  0  0  0
   -2.0124    2.5222   -3.2781 H   0  0  0  0  0  0  0  0  0  0  0  0
   -0.3055    2.0217   -3.2069 H   0  0  0  0  0  0  0  0  0  0  0  0
  5  6  2  0  0  0  0
  5  7  1  0  0  0  0
  2  3  1  0  0  0  0
  2  4  1  0  0  0  0
  2  5  1  0  0  0  0
  1  2  1  0  0  0  0
 29 30  2  0  0  0  0
 29 31  1  0  0  0  0
 26 27  1  0  0  0  0
 26 28  2  0  0  0  0
 24 25  1  0  0  0  0
 24 26  1  0  0  0  0
 22 23  1  0  0  0  0
 22 24  2  0  0  0  0
 20 21  1  0  0  0  0
 20 22  1  0  0  0  0
 19 20  2  0  0  0  0
 19 28  1  0  0  0  0
 17 18  1  0  0  0  0
 17 19  1  0  0  0  0
 15 16  1  0  0  0  0
 15 17  1  0  0  0  0
 14 15  2  0  0  0  0
 14 28  1  0  0  0  0
 11 12  1  0  0  0  0
 11 13  1  0  0  0  0
 11 14  1  0  0  0  0
  9 10  1  0  0  0  0
  9 11  1  0  0  0  0
  9 29  1  0  0  0  0
  7  8  1  0  0  0  0
  7  9  1  0  0  0  0
 33 34  1  0  0  0  0
 33 35  1  0  0  0  0
 33 36  1  0  0  0  0
 31 32  1  0  0  0  0
 31 33  1  0  0  0  0
M  END
$$$$
default_name
  -OEChem-12212115393D

 36 37  0     1  0  0  0  0  0999 V2000
   -4.0843   -4.0736    1.2944 H   0  0  0  0  0  0  0  0  0  0  0  0
   -4.0342   -3.2816    0.5484 C   0  0  0  0  0  0  0  0  0  0  0  0
   -4.8842   -2.6126    0.6694 H   0  0  0  0  0  0  0  0  0  0  0  0
   -4.0433   -3.7186   -0.4486 H   0  0  0  0  0  0  0  0  0  0  0  0
   -2.7532   -2.5046    0.7444 C   0  0  0  0  0  0  0  0  0  0  0  0
   -1.9803   -2.8096    1.6434 O   0  0  0  0  0  0  0  0  0  0  0  0
   -2.5332   -1.4966   -0.0966 N   0  0  0  0  0  0  0  0  0  0  0  0
   -3.2312   -1.2816   -0.7936 H   0  0  0  0  0  0  0  0  0  0  0  0
   -1.3593   -0.6196   -0.0536 C   0  0  1  0  0  0  0  0  0  0  0  0
   -1.5930    0.2468    0.5663 H   0  0  0  0  0  0  0  0  0  0  0  0
   -0.1835   -1.3687    0.5932 C   0  0  0  0  0  0  0  0  0  0  0  0
    0.6765   -0.6984    0.6418 H   0  0  0  0  0  0  0  0  0  0  0  0
   -0.4582   -1.6283    1.6170 H   0  0  0  0  0  0  0  0  0  0  0  0
    0.2426   -2.6185   -0.1157 C   0  0  0  0  0  0  0  0  0  0  0  0
    1.1449   -2.6842   -1.1203 C   0  0  0  0  0  0  0  0  0  0  0  0
    1.6567   -1.8287   -1.5472 H   0  0  0  0  0  0  0  0  0  0  0  0
    1.3242   -4.0006   -1.4978 N   0  0  0  0  0  0  0  0  0  0  0  0
    1.9510   -4.2882   -2.2352 H   0  0  0  0  0  0  0  0  0  0  0  0
    0.5537   -4.8557   -0.7390 C   0  0  0  0  0  0  0  0  0  0  0  0
    0.4081   -6.2502   -0.7175 C   0  0  0  0  0  0  0  0  0  0  0  0
    0.9689   -6.8698   -1.4018 H   0  0  0  0  0  0  0  0  0  0  0  0
   -0.4790   -6.8300    0.2055 C   0  0  0  0  0  0  0  0  0  0  0  0
   -0.6051   -7.9038    0.2359 H   0  0  0  0  0  0  0  0  0  0  0  0
   -1.2085   -6.0106    1.0863 C   0  0  0  0  0  0  0  0  0  0  0  0
   -1.8962   -6.4603    1.7891 H   0  0  0  0  0  0  0  0  0  0  0  0
   -1.0557   -4.6099    1.0545 C   0  0  0  0  0  0  0  0  0  0  0  0
   -1.6321   -3.9912    1.7276 H   0  0  0  0  0  0  0  0  0  0  0  0
   -0.1681   -3.9974    0.1435 C   0  0  0  0  0  0  0  0  0  0  0  0
   -1.0014   -0.1018   -1.4553 C   0  0  0  0  0  0  0  0  0  0  0  0
   -0.4553   -0.8452   -2.2694 O   0  0  0  0  0  0  0  0  0  0  0  0
   -1.3071    1.1723   -1.7351 N   0  0  0  0  0  0  0  0  0  0  0  0
   -1.7049    1.7315   -0.9939 H   0  0  0  0  0  0  0  0  0  0  0  0
   -1.0385    1.8195   -3.0162 C   0  0  0  0  0  0  0  0  0  0  0  0
   -1.4429    1.2115   -3.8277 H   0  0  0  0  0  0  0  0  0  0  0  0
   -1.4990    2.8079   -3.0415 H   0  0  0  0  0  0  0  0  0  0  0  0
    0.0390    1.9190   -3.1569 H   0  0  0  0  0  0  0  0  0  0  0  0
  5  6  2  0  0  0  0
  5  7  1  0  0  0  0
  2  3  1  0  0  0  0
  2  4  1  0  0  0  0
  2  5  1  0  0  0  0
  1  2  1  0  0  0  0
 29 30  2  0  0  0  0
 29 31  1  0  0  0  0
 26 27  1  0  0  0  0
 26 28  2  0  0  0  0
 24 25  1  0  0  0  0
 24 26  1  0  0  0  0
 22 23  1  0  0  0  0
 22 24  2  0  0  0  0
 20 21  1  0  0  0  0
 20 22  1  0  0  0  0
 19 20  2  0  0  0  0
 19 28  1  0  0  0  0
 17 18  1  0  0  0  0
 17 19  1  0  0  0  0
 15 16  1  0  0  0  0
 15 17  1  0  0  0  0
 14 15  2  0  0  0  0
 14 28  1  0  0  0  0
 11 12  1  0  0  0  0
 11 13  1  0  0  0  0
 11 14  1  0  0  0  0
  9 10  1  0  0  0  0
  9 11  1  0  0  0  0
  9 29  1  0  0  0  0
  7  8  1  0  0  0  0
  7  9  1  0  0  0  0
 33 34  1  0  0  0  0
 33 35  1  0  0  0  0
 33 36  1  0  0  0  0
 31 32  1  0  0  0  0
 31 33  1  0  0  0  0
M  END
$$$$
default_name
  -OEChem-12212115393D

 36 37  0     1  0  0  0  0  0999 V2000
   -4.0843   -4.0736    1.2944 H   0  0  0  0  0  0  0  0  0  0  0  0
   -4.0342   -3.2816    0.5484 C   0  0  0  0  0  0  0  0  0  0  0  0
   -4.8842   -2.6126    0.6694 H   0  0  0  0  0  0  0  0  0  0  0  0
   -4.0433   -3.7186   -0.4486 H   0  0  0  0  0  0  0  0  0  0  0  0
   -2.7532   -2.5046    0.7444 C   0  0  0  0  0  0  0  0  0  0  0  0
   -1.9803   -2.8096    1.6434 O   0  0  0  0  0  0  0  0  0  0  0  0
   -2.5332   -1.4966   -0.0966 N   0  0  0  0  0  0  0  0  0  0  0  0
   -3.2312   -1.2816   -0.7936 H   0  0  0  0  0  0  0  0  0  0  0  0
   -1.3593   -0.6196   -0.0536 C   0  0  1  0  0  0  0  0  0  0  0  0
   -1.5930    0.2468    0.5663 H   0  0  0  0  0  0  0  0  0  0  0  0
   -0.1835   -1.3687    0.5932 C   0  0  0  0  0  0  0  0  0  0  0  0
    0.6765   -0.6984    0.6418 H   0  0  0  0  0  0  0  0  0  0  0  0
   -0.4582   -1.6283    1.6170 H   0  0  0  0  0  0  0  0  0  0  0  0
    0.2426   -2.6185   -0.1157 C   0  0  0  0  0  0  0  0  0  0  0  0
    1.1449   -2.6842   -1.1203 C   0  0  0  0  0  0  0  0  0  0  0  0
    1.6567   -1.8287   -1.5472 H   0  0  0  0  0  0  0  0  0  0  0  0
    1.3242   -4.0006   -1.4978 N   0  0  0  0  0  0  0  0  0  0  0  0
    1.9510   -4.2882   -2.2352 H   0  0  0  0  0  0  0  0  0  0  0  0
    0.5537   -4.8557   -0.7390 C   0  0  0  0  0  0  0  0  0  0  0  0
    0.4081   -6.2502   -0.7175 C   0  0  0  0  0  0  0  0  0  0  0  0
    0.9689   -6.8698   -1.4018 H   0  0  0  0  0  0  0  0  0  0  0  0
   -0.4790   -6.8300    0.2055 C   0  0  0  0  0  0  0  0  0  0  0  0
   -0.6051   -7.9038    0.2359 H   0  0  0  0  0  0  0  0  0  0  0  0
   -1.2085   -6.0106    1.0863 C   0  0  0  0  0  0  0  0  0  0  0  0
   -1.8962   -6.4603    1.7891 H   0  0  0  0  0  0  0  0  0  0  0  0
   -1.0557   -4.6099    1.0545 C   0  0  0  0  0  0  0  0  0  0  0  0
   -1.6321   -3.9912    1.7276 H   0  0  0  0  0  0  0  0  0  0  0  0
   -0.1681   -3.9974    0.1435 C   0  0  0  0  0  0  0  0  0  0  0  0
   -1.0014   -0.1018   -1.4553 C   0  0  0  0  0  0  0  0  0  0  0  0
   -0.7155   -0.8926   -2.3534 O   0  0  0  0  0  0  0  0  0  0  0  0
   -1.0154    1.2250   -1.6411 N   0  0  0  0  0  0  0  0  0  0  0  0
   -1.2075    1.8077   -0.8387 H   0  0  0  0  0  0  0  0  0  0  0  0
   -0.7034    1.8806   -2.9081 C   0  0  0  0  0  0  0  0  0  0  0  0
   -1.3048    1.4427   -3.7070 H   0  0  0  0  0  0  0  0  0  0  0  0
   -0.9151    2.9485   -2.8405 H   0  0  0  0  0  0  0  0  0  0  0  0
    0.3520    1.7355   -3.1448 H   0  0  0  0  0  0  0  0  0  0  0  0
  5  6  2  0  0  0  0
  5  7  1  0  0  0  0
  2  3  1  0  0  0  0
  2  4  1  0  0  0  0
  2  5  1  0  0  0  0
  1  2  1  0  0  0  0
 29 30  2  0  0  0  0
 29 31  1  0  0  0  0
 26 27  1  0  0  0  0
 26 28  2  0  0  0  0
 24 25  1  0  0  0  0
 24 26  1  0  0  0  0
 22 23  1  0  0  0  0
 22 24  2  0  0  0  0
 20 21  1  0  0  0  0
 20 22  1  0  0  0  0
 19 20  2  0  0  0  0
 19 28  1  0  0  0  0
 17 18  1  0  0  0  0
 17 19  1  0  0  0  0
 15 16  1  0  0  0  0
 15 17  1  0  0  0  0
 14 15  2  0  0  0  0
 14 28  1  0  0  0  0
 11 12  1  0  0  0  0
 11 13  1  0  0  0  0
 11 14  1  0  0  0  0
  9 10  1  0  0  0  0
  9 11  1  0  0  0  0
  9 29  1  0  0  0  0
  7  8  1  0  0  0  0
  7  9  1  0  0  0  0
 33 34  1  0  0  0  0
 33 35  1  0  0  0  0
 33 36  1  0  0  0  0
 31 32  1  0  0  0  0
 31 33  1  0  0  0  0
M  END
$$$$
default_name
  -OEChem-12212115393D

 36 37  0     1  0  0  0  0  0999 V2000
   -4.0843   -4.0736    1.2944 H   0  0  0  0  0  0  0  0  0  0  0  0
   -4.0342   -3.2816    0.5484 C   0  0  0  0  0  0  0  0  0  0  0  0
   -4.8842   -2.6126    0.6694 H   0  0  0  0  0  0  0  0  0  0  0  0
   -4.0433   -3.7186   -0.4486 H   0  0  0  0  0  0  0  0  0  0  0  0
   -2.7532   -2.5046    0.7444 C   0  0  0  0  0  0  0  0  0  0  0  0
   -1.9803   -2.8096    1.6434 O   0  0  0  0  0  0  0  0  0  0  0  0
   -2.5332   -1.4966   -0.0966 N   0  0  0  0  0  0  0  0  0  0  0  0
   -3.2312   -1.2816   -0.7936 H   0  0  0  0  0  0  0  0  0  0  0  0
   -1.3593   -0.6196   -0.0536 C   0  0  1  0  0  0  0  0  0  0  0  0
   -1.5930    0.2468    0.5663 H   0  0  0  0  0  0  0  0  0  0  0  0
   -0.1835   -1.3687    0.5932 C   0  0  0  0  0  0  0  0  0  0  0  0
    0.6765   -0.6984    0.6418 H   0  0  0  0  0  0  0  0  0  0  0  0
   -0.4582   -1.6283    1.6170 H   0  0  0  0  0  0  0  0  0  0  0  0
    0.2426   -2.6185   -0.1157 C   0  0  0  0  0  0  0  0  0  0  0  0
    1.1449   -2.6842   -1.1203 C   0  0  0  0  0  0  0  0  0  0  0  0
    1.6567   -1.8287   -1.5472 H   0  0  0  0  0  0  0  0  0  0  0  0
    1.3242   -4.0006   -1.4978 N   0  0  0  0  0  0  0  0  0  0  0  0
    1.9510   -4.2882   -2.2352 H   0  0  0  0  0  0  0  0  0  0  0  0
    0.5537   -4.8557   -0.7390 C   0  0  0  0  0  0  0  0  0  0  0  0
    0.4081   -6.2502   -0.7175 C   0  0  0  0  0  0  0  0  0  0  0  0
    0.9689   -6.8698   -1.4018 H   0  0  0  0  0  0  0  0  0  0  0  0
   -0.4790   -6.8300    0.2055 C   0  0  0  0  0  0  0  0  0  0  0  0
   -0.6051   -7.9038    0.2359 H   0  0  0  0  0  0  0  0  0  0  0  0
   -1.2085   -6.0106    1.0863 C   0  0  0  0  0  0  0  0  0  0  0  0
   -1.8962   -6.4603    1.7891 H   0  0  0  0  0  0  0  0  0  0  0  0
   -1.0557   -4.6099    1.0545 C   0  0  0  0  0  0  0  0  0  0  0  0
   -1.6321   -3.9912    1.7276 H   0  0  0  0  0  0  0  0  0  0  0  0
   -0.1681   -3.9974    0.1435 C   0  0  0  0  0  0  0  0  0  0  0  0
   -1.0014   -0.1018   -1.4553 C   0  0  0  0  0  0  0  0  0  0  0  0
   -0.9854   -0.8719   -2.4146 O   0  0  0  0  0  0  0  0  0  0  0  0
   -0.7130    1.2013   -1.5726 N   0  0  0  0  0  0  0  0  0  0  0  0
   -0.6956    1.7545   -0.7277 H   0  0  0  0  0  0  0  0  0  0  0  0
   -0.3559    1.8540   -2.8292 C   0  0  0  0  0  0  0  0  0  0  0  0
   -1.1063    1.6262   -3.5886 H   0  0  0  0  0  0  0  0  0  0  0  0
   -0.3003    2.9342   -2.6888 H   0  0  0  0  0  0  0  0  0  0  0  0
    0.6119    1.4837   -3.1714 H   0  0  0  0  0  0  0  0  0  0  0  0
  5  6  2  0  0  0  0
  5  7  1  0  0  0  0
  2  3  1  0  0  0  0
  2  4  1  0  0  0  0
  2  5  1  0  0  0  0
  1  2  1  0  0  0  0
 29 30  2  0  0  0  0
 29 31  1  0  0  0  0
 26 27  1  0  0  0  0
 26 28  2  0  0  0  0
 24 25  1  0  0  0  0
 24 26  1  0  0  0  0
 22 23  1  0  0  0  0
 22 24  2  0  0  0  0
 20 21  1  0  0  0  0
 20 22  1  0  0  0  0
 19 20  2  0  0  0  0
 19 28  1  0  0  0  0
 17 18  1  0  0  0  0
 17 19  1  0  0  0  0
 15 16  1  0  0  0  0
 15 17  1  0  0  0  0
 14 15  2  0  0  0  0
 14 28  1  0  0  0  0
 11 12  1  0  0  0  0
 11 13  1  0  0  0  0
 11 14  1  0  0  0  0
  9 10  1  0  0  0  0
  9 11  1  0  0  0  0
  9 29  1  0  0  0  0
  7  8  1  0  0  0  0
  7  9  1  0  0  0  0
 33 34  1  0  0  0  0
 33 35  1  0  0  0  0
 33 36  1  0  0  0  0
 31 32  1  0  0  0  0
 31 33  1  0  0  0  0
M  END
$$$$
default_name
  -OEChem-12212115393D

 36 37  0     1  0  0  0  0  0999 V2000
   -4.0843   -4.0736    1.2944 H   0  0  0  0  0  0  0  0  0  0  0  0
   -4.0342   -3.2816    0.5484 C   0  0  0  0  0  0  0  0  0  0  0  0
   -4.8842   -2.6126    0.6694 H   0  0  0  0  0  0  0  0  0  0  0  0
   -4.0433   -3.7186   -0.4486 H   0  0  0  0  0  0  0  0  0  0  0  0
   -2.7532   -2.5046    0.7444 C   0  0  0  0  0  0  0  0  0  0  0  0
   -1.9803   -2.8096    1.6434 O   0  0  0  0  0  0  0  0  0  0  0  0
   -2.5332   -1.4966   -0.0966 N   0  0  0  0  0  0  0  0  0  0  0  0
   -3.2312   -1.2816   -0.7936 H   0  0  0  0  0  0  0  0  0  0  0  0
   -1.3593   -0.6196   -0.0536 C   0  0  1  0  0  0  0  0  0  0  0  0
   -1.5930    0.2468    0.5663 H   0  0  0  0  0  0  0  0  0  0  0  0
   -0.1835   -1.3687    0.5932 C   0  0  0  0  0  0  0  0  0  0  0  0
    0.6765   -0.6984    0.6418 H   0  0  0  0  0  0  0  0  0  0  0  0
   -0.4582   -1.6283    1.6170 H   0  0  0  0  0  0  0  0  0  0  0  0
    0.2426   -2.6185   -0.1157 C   0  0  0  0  0  0  0  0  0  0  0  0
    1.1449   -2.6842   -1.1203 C   0  0  0  0  0  0  0  0  0  0  0  0
    1.6567   -1.8287   -1.5472 H   0  0  0  0  0  0  0  0  0  0  0  0
    1.3242   -4.0006   -1.4978 N   0  0  0  0  0  0  0  0  0  0  0  0
    1.9510   -4.2882   -2.2352 H   0  0  0  0  0  0  0  0  0  0  0  0
    0.5537   -4.8557   -0.7390 C   0  0  0  0  0  0  0  0  0  0  0  0
    0.4081   -6.2502   -0.7175 C   0  0  0  0  0  0  0  0  0  0  0  0
    0.9689   -6.8698   -1.4018 H   0  0  0  0  0  0  0  0  0  0  0  0
   -0.4790   -6.8300    0.2055 C   0  0  0  0  0  0  0  0  0  0  0  0
   -0.6051   -7.9038    0.2359 H   0  0  0  0  0  0  0  0  0  0  0  0
   -1.2085   -6.0106    1.0863 C   0  0  0  0  0  0  0  0  0  0  0  0
   -1.8962   -6.4603    1.7891 H   0  0  0  0  0  0  0  0  0  0  0  0
   -1.0557   -4.6099    1.0545 C   0  0  0  0  0  0  0  0  0  0  0  0
   -1.6321   -3.9912    1.7276 H   0  0  0  0  0  0  0  0  0  0  0  0
   -0.1681   -3.9974    0.1435 C   0  0  0  0  0  0  0  0  0  0  0  0
   -1.0014   -0.1018   -1.4553 C   0  0  0  0  0  0  0  0  0  0  0  0
   -1.2465   -0.7845   -2.4490 O   0  0  0  0  0  0  0  0  0  0  0  0
   -0.4205    1.1030   -1.5343 N   0  0  0  0  0  0  0  0  0  0  0  0
   -0.2040    1.5756   -0.6683 H   0  0  0  0  0  0  0  0  0  0  0  0
   -0.0196    1.7414   -2.7849 C   0  0  0  0  0  0  0  0  0  0  0  0
   -0.8609    1.7495   -3.4804 H   0  0  0  0  0  0  0  0  0  0  0  0
    0.3034    2.7661   -2.5968 H   0  0  0  0  0  0  0  0  0  0  0  0
    0.8013    1.1806   -3.2350 H   0  0  0  0  0  0  0  0  0  0  0  0
  5  6  2  0  0  0  0
  5  7  1  0  0  0  0
  2  3  1  0  0  0  0
  2  4  1  0  0  0  0
  2  5  1  0  0  0  0
  1  2  1  0  0  0  0
 29 30  2  0  0  0  0
 29 31  1  0  0  0  0
 26 27  1  0  0  0  0
 26 28  2  0  0  0  0
 24 25  1  0  0  0  0
 24 26  1  0  0  0  0
 22 23  1  0  0  0  0
 22 24  2  0  0  0  0
 20 21  1  0  0  0  0
 20 22  1  0  0  0  0
 19 20  2  0  0  0  0
 19 28  1  0  0  0  0
 17 18  1  0  0  0  0
 17 19  1  0  0  0  0
 15 16  1  0  0  0  0
 15 17  1  0  0  0  0
 14 15  2  0  0  0  0
 14 28  1  0  0  0  0
 11 12  1  0  0  0  0
 11 13  1  0  0  0  0
 11 14  1  0  0  0  0
  9 10  1  0  0  0  0
  9 11  1  0  0  0  0
  9 29  1  0  0  0  0
  7  8  1  0  0  0  0
  7  9  1  0  0  0  0
 33 34  1  0  0  0  0
 33 35  1  0  0  0  0
 33 36  1  0  0  0  0
 31 32  1  0  0  0  0
 31 33  1  0  0  0  0
M  END
$$$$
default_name
  -OEChem-12212115393D

 36 37  0     1  0  0  0  0  0999 V2000
   -4.0843   -4.0736    1.2944 H   0  0  0  0  0  0  0  0  0  0  0  0
   -4.0342   -3.2816    0.5484 C   0  0  0  0  0  0  0  0  0  0  0  0
   -4.8842   -2.6126    0.6694 H   0  0  0  0  0  0  0  0  0  0  0  0
   -4.0433   -3.7186   -0.4486 H   0  0  0  0  0  0  0  0  0  0  0  0
   -2.7532   -2.5046    0.7444 C   0  0  0  0  0  0  0  0  0  0  0  0
   -1.9803   -2.8096    1.6434 O   0  0  0  0  0  0  0  0  0  0  0  0
   -2.5332   -1.4966   -0.0966 N   0  0  0  0  0  0  0  0  0  0  0  0
   -3.2312   -1.2816   -0.7936 H   0  0  0  0  0  0  0  0  0  0  0  0
   -1.3593   -0.6196   -0.0536 C   0  0  1  0  0  0  0  0  0  0  0  0
   -1.5930    0.2468    0.5663 H   0  0  0  0  0  0  0  0  0  0  0  0
   -0.1835   -1.3687    0.5932 C   0  0  0  0  0  0  0  0  0  0  0  0
    0.6765   -0.6984    0.6418 H   0  0  0  0  0  0  0  0  0  0  0  0
   -0.4582   -1.6283    1.6170 H   0  0  0  0  0  0  0  0  0  0  0  0
    0.2426   -2.6185   -0.1157 C   0  0  0  0  0  0  0  0  0  0  0  0
    1.1449   -2.6842   -1.1203 C   0  0  0  0  0  0  0  0  0  0  0  0
    1.6567   -1.8287   -1.5472 H   0  0  0  0  0  0  0  0  0  0  0  0
    1.3242   -4.0006   -1.4978 N   0  0  0  0  0  0  0  0  0  0  0  0
    1.9510   -4.2882   -2.2352 H   0  0  0  0  0  0  0  0  0  0  0  0
    0.5537   -4.8557   -0.7390 C   0  0  0  0  0  0  0  0  0  0  0  0
    0.4081   -6.2502   -0.7175 C   0  0  0  0  0  0  0  0  0  0  0  0
    0.9689   -6.8698   -1.4018 H   0  0  0  0  0  0  0  0  0  0  0  0
   -0.4790   -6.8300    0.2055 C   0  0  0  0  0  0  0  0  0  0  0  0
   -0.6051   -7.9038    0.2359 H   0  0  0  0  0  0  0  0  0  0  0  0
   -1.2085   -6.0106    1.0863 C   0  0  0  0  0  0  0  0  0  0  0  0
   -1.8962   -6.4603    1.7891 H   0  0  0  0  0  0  0  0  0  0  0  0
   -1.0557   -4.6099    1.0545 C   0  0  0  0  0  0  0  0  0  0  0  0
   -1.6321   -3.9912    1.7276 H   0  0  0  0  0  0  0  0  0  0  0  0
   -0.1681   -3.9974    0.1435 C   0  0  0  0  0  0  0  0  0  0  0  0
   -1.0014   -0.1018   -1.4553 C   0  0  0  0  0  0  0  0  0  0  0  0
   -1.4811   -0.6363   -2.4542 O   0  0  0  0  0  0  0  0  0  0  0  0
   -0.1579    0.9366   -1.5287 N   0  0  0  0  0  0  0  0  0  0  0  0
    0.2338    1.2831   -0.6645 H   0  0  0  0  0  0  0  0  0  0  0  0
    0.2826    1.5506   -2.7782 C   0  0  0  0  0  0  0  0  0  0  0  0
   -0.5854    1.8041   -3.3899 H   0  0  0  0  0  0  0  0  0  0  0  0
    0.8548    2.4557   -2.5706 H   0  0  0  0  0  0  0  0  0  0  0  0
    0.9070    0.8470   -3.3313 H   0  0  0  0  0  0  0  0  0  0  0  0
  5  6  2  0  0  0  0
  5  7  1  0  0  0  0
  2  3  1  0  0  0  0
  2  4  1  0  0  0  0
  2  5  1  0  0  0  0
  1  2  1  0  0  0  0
 29 30  2  0  0  0  0
 29 31  1  0  0  0  0
 26 27  1  0  0  0  0
 26 28  2  0  0  0  0
 24 25  1  0  0  0  0
 24 26  1  0  0  0  0
 22 23  1  0  0  0  0
 22 24  2  0  0  0  0
 20 21  1  0  0  0  0
 20 22  1  0  0  0  0
 19 20  2  0  0  0  0
 19 28  1  0  0  0  0
 17 18  1  0  0  0  0
 17 19  1  0  0  0  0
 15 16  1  0  0  0  0
 15 17  1  0  0  0  0
 14 15  2  0  0  0  0
 14 28  1  0  0  0  0
 11 12  1  0  0  0  0
 11 13  1  0  0  0  0
 11 14  1  0  0  0  0
  9 10  1  0  0  0  0
  9 11  1  0  0  0  0
  9 29  1  0  0  0  0
  7  8  1  0  0  0  0
  7  9  1  0  0  0  0
 33 34  1  0  0  0  0
 33 35  1  0  0  0  0
 33 36  1  0  0  0  0
 31 32  1  0  0  0  0
 31 33  1  0  0  0  0
M  END
$$$$
default_name
  -OEChem-12212115393D

 36 37  0     1  0  0  0  0  0999 V2000
   -4.0843   -4.0736    1.2944 H   0  0  0  0  0  0  0  0  0  0  0  0
   -4.0342   -3.2816    0.5484 C   0  0  0  0  0  0  0  0  0  0  0  0
   -4.8842   -2.6126    0.6694 H   0  0  0  0  0  0  0  0  0  0  0  0
   -4.0433   -3.7186   -0.4486 H   0  0  0  0  0  0  0  0  0  0  0  0
   -2.7532   -2.5046    0.7444 C   0  0  0  0  0  0  0  0  0  0  0  0
   -1.9803   -2.8096    1.6434 O   0  0  0  0  0  0  0  0  0  0  0  0
   -2.5332   -1.4966   -0.0966 N   0  0  0  0  0  0  0  0  0  0  0  0
   -3.2312   -1.2816   -0.7936 H   0  0  0  0  0  0  0  0  0  0  0  0
   -1.3593   -0.6196   -0.0536 C   0  0  1  0  0  0  0  0  0  0  0  0
   -1.4861    0.0941    0.7613 H   0  0  0  0  0  0  0  0  0  0  0  0
   -0.1038   -1.4579    0.2343 C   0  0  0  0  0  0  0  0  0  0  0  0
    0.7591   -0.7917    0.2882 H   0  0  0  0  0  0  0  0  0  0  0  0
   -0.2180   -1.9299    1.2116 H   0  0  0  0  0  0  0  0  0  0  0  0
    0.1960   -2.5236   -0.7758 C   0  0  0  0  0  0  0  0  0  0  0  0
    0.9303   -2.3587   -1.8989 C   0  0  0  0  0  0  0  0  0  0  0  0
    1.3768   -1.4214   -2.2122 H   0  0  0  0  0  0  0  0  0  0  0  0
    1.0371   -3.5640   -2.5648 N   0  0  0  0  0  0  0  0  0  0  0  0
    1.5390   -3.6779   -3.4333 H   0  0  0  0  0  0  0  0  0  0  0  0
    0.3866   -4.5756   -1.8908 C   0  0  0  0  0  0  0  0  0  0  0  0
    0.2340   -5.9476   -2.1375 C   0  0  0  0  0  0  0  0  0  0  0  0
    0.6760   -6.3987   -3.0137 H   0  0  0  0  0  0  0  0  0  0  0  0
   -0.5037   -6.7266   -1.2298 C   0  0  0  0  0  0  0  0  0  0  0  0
   -0.6329   -7.7862   -1.4043 H   0  0  0  0  0  0  0  0  0  0  0  0
   -1.0800   -6.1246   -0.0963 C   0  0  0  0  0  0  0  0  0  0  0  0
   -1.6538   -6.7262    0.5951 H   0  0  0  0  0  0  0  0  0  0  0  0
   -0.9218   -4.7444    0.1406 C   0  0  0  0  0  0  0  0  0  0  0  0
   -1.3810   -4.2921    1.0081 H   0  0  0  0  0  0  0  0  0  0  0  0
   -0.1815   -3.9357   -0.7488 C   0  0  0  0  0  0  0  0  0  0  0  0
   -1.2194    0.1851   -1.3551 C   0  0  0  0  0  0  0  0  0  0  0  0
   -2.0376    0.0421   -2.2627 O   0  0  0  0  0  0  0  0  0  0  0  0
   -0.1825    1.0288   -1.4461 N   0  0  0  0  0  0  0  0  0  0  0  0
    0.4742    1.0474   -0.6788 H   0  0  0  0  0  0  0  0  0  0  0  0
    0.0947    1.8675   -2.6089 C   0  0  0  0  0  0  0  0  0  0  0  0
   -0.7992    2.4347   -2.8752 H   0  0  0  0  0  0  0  0  0  0  0  0
    0.9087    2.5590   -2.3877 H   0  0  0  0  0  0  0  0  0  0  0  0
    0.3749    1.2382   -3.4553 H   0  0  0  0  0  0  0  0  0  0  0  0
  5  6  2  0  0  0  0
  5  7  1  0  0  0  0
  2  3  1  0  0  0  0
  2  4  1  0  0  0  0
  2  5  1  0  0  0  0
  1  2  1  0  0  0  0
 29 30  2  0  0  0  0
 29 31  1  0  0  0  0
 26 27  1  0  0  0  0
 26 28  2  0  0  0  0
 24 25  1  0  0  0  0
 24 26  1  0  0  0  0
 22 23  1  0  0  0  0
 22 24  2  0  0  0  0
 20 21  1  0  0  0  0
 20 22  1  0  0  0  0
 19 20  2  0  0  0  0
 19 28  1  0  0  0  0
 17 18  1  0  0  0  0
 17 19  1  0  0  0  0
 15 16  1  0  0  0  0
 15 17  1  0  0  0  0
 14 15  2  0  0  0  0
 14 28  1  0  0  0  0
 11 12  1  0  0  0  0
 11 13  1  0  0  0  0
 11 14  1  0  0  0  0
  9 10  1  0  0  0  0
  9 11  1  0  0  0  0
  9 29  1  0  0  0  0
  7  8  1  0  0  0  0
  7  9  1  0  0  0  0
 33 34  1  0  0  0  0
 33 35  1  0  0  0  0
 33 36  1  0  0  0  0
 31 32  1  0  0  0  0
 31 33  1  0  0  0  0
M  END
$$$$
default_name
  -OEChem-12212115393D

 36 37  0     1  0  0  0  0  0999 V2000
   -4.0843   -4.0736    1.2944 H   0  0  0  0  0  0  0  0  0  0  0  0
   -4.0342   -3.2816    0.5484 C   0  0  0  0  0  0  0  0  0  0  0  0
   -4.8842   -2.6126    0.6694 H   0  0  0  0  0  0  0  0  0  0  0  0
   -4.0433   -3.7186   -0.4486 H   0  0  0  0  0  0  0  0  0  0  0  0
   -2.7532   -2.5046    0.7444 C   0  0  0  0  0  0  0  0  0  0  0  0
   -1.9803   -2.8096    1.6434 O   0  0  0  0  0  0  0  0  0  0  0  0
   -2.5332   -1.4966   -0.0966 N   0  0  0  0  0  0  0  0  0  0  0  0
   -3.2312   -1.2816   -0.7936 H   0  0  0  0  0  0  0  0  0  0  0  0
   -1.3593   -0.6196   -0.0536 C   0  0  1  0  0  0  0  0  0  0  0  0
   -1.4861    0.0941    0.7613 H   0  0  0  0  0  0  0  0  0  0  0  0
   -0.1038   -1.4579    0.2343 C   0  0  0  0  0  0  0  0  0  0  0  0
    0.7591   -0.7917    0.2882 H   0  0  0  0  0  0  0  0  0  0  0  0
   -0.2180   -1.9299    1.2116 H   0  0  0  0  0  0  0  0  0  0  0  0
    0.1960   -2.5236   -0.7758 C   0  0  0  0  0  0  0  0  0  0  0  0
    0.9303   -2.3587   -1.8989 C   0  0  0  0  0  0  0  0  0  0  0  0
    1.3768   -1.4214   -2.2122 H   0  0  0  0  0  0  0  0  0  0  0  0
    1.0371   -3.5640   -2.5648 N   0  0  0  0  0  0  0  0  0  0  0  0
    1.5390   -3.6779   -3.4333 H   0  0  0  0  0  0  0  0  0  0  0  0
    0.3866   -4.5756   -1.8908 C   0  0  0  0  0  0  0  0  0  0  0  0
    0.2340   -5.9476   -2.1375 C   0  0  0  0  0  0  0  0  0  0  0  0
    0.6760   -6.3987   -3.0137 H   0  0  0  0  0  0  0  0  0  0  0  0
   -0.5037   -6.7266   -1.2298 C   0  0  0  0  0  0  0  0  0  0  0  0
   -0.6329   -7.7862   -1.4043 H   0  0  0  0  0  0  0  0  0  0  0  0
   -1.0800   -6.1246   -0.0963 C   0  0  0  0  0  0  0  0  0  0  0  0
   -1.6538   -6.7262    0.5951 H   0  0  0  0  0  0  0  0  0  0  0  0
   -0.9218   -4.7444    0.1406 C   0  0  0  0  0  0  0  0  0  0  0  0
   -1.3810   -4.2921    1.0081 H   0  0  0  0  0  0  0  0  0  0  0  0
   -0.1815   -3.9357   -0.7488 C   0  0  0  0  0  0  0  0  0  0  0  0
   -1.2194    0.1851   -1.3551 C   0  0  0  0  0  0  0  0  0  0  0  0
   -2.1621    0.2587   -2.1421 O   0  0  0  0  0  0  0  0  0  0  0  0
   -0.0433    0.7858   -1.5814 N   0  0  0  0  0  0  0  0  0  0  0  0
    0.6973    0.6315   -0.9121 H   0  0  0  0  0  0  0  0  0  0  0  0
    0.2552    1.5885   -2.7642 C   0  0  0  0  0  0  0  0  0  0  0  0
   -0.5187    2.3465   -2.8996 H   0  0  0  0  0  0  0  0  0  0  0  0
    1.2238    2.0772   -2.6518 H   0  0  0  0  0  0  0  0  0  0  0  0
    0.2744    0.9465   -3.6465 H   0  0  0  0  0  0  0  0  0  0  0  0
  5  6  2  0  0  0  0
  5  7  1  0  0  0  0
  2  3  1  0  0  0  0
  2  4  1  0  0  0  0
  2  5  1  0  0  0  0
  1  2  1  0  0  0  0
 29 30  2  0  0  0  0
 29 31  1  0  0  0  0
 26 27  1  0  0  0  0
 26 28  2  0  0  0  0
 24 25  1  0  0  0  0
 24 26  1  0  0  0  0
 22 23  1  0  0  0  0
 22 24  2  0  0  0  0
 20 21  1  0  0  0  0
 20 22  1  0  0  0  0
 19 20  2  0  0  0  0
 19 28  1  0  0  0  0
 17 18  1  0  0  0  0
 17 19  1  0  0  0  0
 15 16  1  0  0  0  0
 15 17  1  0  0  0  0
 14 15  2  0  0  0  0
 14 28  1  0  0  0  0
 11 12  1  0  0  0  0
 11 13  1  0  0  0  0
 11 14  1  0  0  0  0
  9 10  1  0  0  0  0
  9 11  1  0  0  0  0
  9 29  1  0  0  0  0
  7  8  1  0  0  0  0
  7  9  1  0  0  0  0
 33 34  1  0  0  0  0
 33 35  1  0  0  0  0
 33 36  1  0  0  0  0
 31 32  1  0  0  0  0
 31 33  1  0  0  0  0
M  END
$$$$
default_name
  -OEChem-12212115393D

 36 37  0     1  0  0  0  0  0999 V2000
   -4.0843   -4.0736    1.2944 H   0  0  0  0  0  0  0  0  0  0  0  0
   -4.0342   -3.2816    0.5484 C   0  0  0  0  0  0  0  0  0  0  0  0
   -4.8842   -2.6126    0.6694 H   0  0  0  0  0  0  0  0  0  0  0  0
   -4.0433   -3.7186   -0.4486 H   0  0  0  0  0  0  0  0  0  0  0  0
   -2.7532   -2.5046    0.7444 C   0  0  0  0  0  0  0  0  0  0  0  0
   -1.9803   -2.8096    1.6434 O   0  0  0  0  0  0  0  0  0  0  0  0
   -2.5332   -1.4966   -0.0966 N   0  0  0  0  0  0  0  0  0  0  0  0
   -3.2312   -1.2816   -0.7936 H   0  0  0  0  0  0  0  0  0  0  0  0
   -1.3593   -0.6196   -0.0536 C   0  0  1  0  0  0  0  0  0  0  0  0
   -1.4861    0.0941    0.7613 H   0  0  0  0  0  0  0  0  0  0  0  0
   -0.1038   -1.4579    0.2343 C   0  0  0  0  0  0  0  0  0  0  0  0
    0.7591   -0.7917    0.2882 H   0  0  0  0  0  0  0  0  0  0  0  0
   -0.2180   -1.9299    1.2116 H   0  0  0  0  0  0  0  0  0  0  0  0
    0.1960   -2.5236   -0.7758 C   0  0  0  0  0  0  0  0  0  0  0  0
    0.9303   -2.3587   -1.8989 C   0  0  0  0  0  0  0  0  0  0  0  0
    1.3768   -1.4214   -2.2122 H   0  0  0  0  0  0  0  0  0  0  0  0
    1.0371   -3.5640   -2.5648 N   0  0  0  0  0  0  0  0  0  0  0  0
    1.5390   -3.6779   -3.4333 H   0  0  0  0  0  0  0  0  0  0  0  0
    0.3866   -4.5756   -1.8908 C   0  0  0  0  0  0  0  0  0  0  0  0
    0.2340   -5.9476   -2.1375 C   0  0  0  0  0  0  0  0  0  0  0  0
    0.6760   -6.3987   -3.0137 H   0  0  0  0  0  0  0  0  0  0  0  0
   -0.5037   -6.7266   -1.2298 C   0  0  0  0  0  0  0  0  0  0  0  0
   -0.6329   -7.7862   -1.4043 H   0  0  0  0  0  0  0  0  0  0  0  0
   -1.0800   -6.1246   -0.0963 C   0  0  0  0  0  0  0  0  0  0  0  0
   -1.6538   -6.7262    0.5951 H   0  0  0  0  0  0  0  0  0  0  0  0
   -0.9218   -4.7444    0.1406 C   0  0  0  0  0  0  0  0  0  0  0  0
   -1.3810   -4.2921    1.0081 H   0  0  0  0  0  0  0  0  0  0  0  0
   -0.1815   -3.9357   -0.7488 C   0  0  0  0  0  0  0  0  0  0  0  0
   -1.2194    0.1851   -1.3551 C   0  0  0  0  0  0  0  0  0  0  0  0
   -2.2186    0.4925   -2.0036 O   0  0  0  0  0  0  0  0  0  0  0  0
    0.0195    0.5238   -1.7366 N   0  0  0  0  0  0  0  0  0  0  0  0
    0.7900    0.1862   -1.1774 H   0  0  0  0  0  0  0  0  0  0  0  0
    0.3279    1.2874   -2.9425 C   0  0  0  0  0  0  0  0  0  0  0  0
   -0.2703    2.2003   -2.9633 H   0  0  0  0  0  0  0  0  0  0  0  0
    1.3867    1.5489   -2.9609 H   0  0  0  0  0  0  0  0  0  0  0  0
    0.0875    0.6913   -3.8244 H   0  0  0  0  0  0  0  0  0  0  0  0
  5  6  2  0  0  0  0
  5  7  1  0  0  0  0
  2  3  1  0  0  0  0
  2  4  1  0  0  0  0
  2  5  1  0  0  0  0
  1  2  1  0  0  0  0
 29 30  2  0  0  0  0
 29 31  1  0  0  0  0
 26 27  1  0  0  0  0
 26 28  2  0  0  0  0
 24 25  1  0  0  0  0
 24 26  1  0  0  0  0
 22 23  1  0  0  0  0
 22 24  2  0  0  0  0
 20 21  1  0  0  0  0
 20 22  1  0  0  0  0
 19 20  2  0  0  0  0
 19 28  1  0  0  0  0
 17 18  1  0  0  0  0
 17 19  1  0  0  0  0
 15 16  1  0  0  0  0
 15 17  1  0  0  0  0
 14 15  2  0  0  0  0
 14 28  1  0  0  0  0
 11 12  1  0  0  0  0
 11 13  1  0  0  0  0
 11 14  1  0  0  0  0
  9 10  1  0  0  0  0
  9 11  1  0  0  0  0
  9 29  1  0  0  0  0
  7  8  1  0  0  0  0
  7  9  1  0  0  0  0
 33 34  1  0  0  0  0
 33 35  1  0  0  0  0
 33 36  1  0  0  0  0
 31 32  1  0  0  0  0
 31 33  1  0  0  0  0
M  END
$$$$
default_name
  -OEChem-12212115393D

 36 37  0     1  0  0  0  0  0999 V2000
   -4.0843   -4.0736    1.2944 H   0  0  0  0  0  0  0  0  0  0  0  0
   -4.0342   -3.2816    0.5484 C   0  0  0  0  0  0  0  0  0  0  0  0
   -4.8842   -2.6126    0.6694 H   0  0  0  0  0  0  0  0  0  0  0  0
   -4.0433   -3.7186   -0.4486 H   0  0  0  0  0  0  0  0  0  0  0  0
   -2.7532   -2.5046    0.7444 C   0  0  0  0  0  0  0  0  0  0  0  0
   -1.9803   -2.8096    1.6434 O   0  0  0  0  0  0  0  0  0  0  0  0
   -2.5332   -1.4966   -0.0966 N   0  0  0  0  0  0  0  0  0  0  0  0
   -3.2312   -1.2816   -0.7936 H   0  0  0  0  0  0  0  0  0  0  0  0
   -1.3593   -0.6196   -0.0536 C   0  0  1  0  0  0  0  0  0  0  0  0
   -1.4861    0.0941    0.7613 H   0  0  0  0  0  0  0  0  0  0  0  0
   -0.1038   -1.4579    0.2343 C   0  0  0  0  0  0  0  0  0  0  0  0
    0.7591   -0.7917    0.2882 H   0  0  0  0  0  0  0  0  0  0  0  0
   -0.2180   -1.9299    1.2116 H   0  0  0  0  0  0  0  0  0  0  0  0
    0.1960   -2.5236   -0.7758 C   0  0  0  0  0  0  0  0  0  0  0  0
    0.9303   -2.3587   -1.8989 C   0  0  0  0  0  0  0  0  0  0  0  0
    1.3768   -1.4214   -2.2122 H   0  0  0  0  0  0  0  0  0  0  0  0
    1.0371   -3.5640   -2.5648 N   0  0  0  0  0  0  0  0  0  0  0  0
    1.5390   -3.6779   -3.4333 H   0  0  0  0  0  0  0  0  0  0  0  0
    0.3866   -4.5756   -1.8908 C   0  0  0  0  0  0  0  0  0  0  0  0
    0.2340   -5.9476   -2.1375 C   0  0  0  0  0  0  0  0  0  0  0  0
    0.6760   -6.3987   -3.0137 H   0  0  0  0  0  0  0  0  0  0  0  0
   -0.5037   -6.7266   -1.2298 C   0  0  0  0  0  0  0  0  0  0  0  0
   -0.6329   -7.7862   -1.4043 H   0  0  0  0  0  0  0  0  0  0  0  0
   -1.0800   -6.1246   -0.0963 C   0  0  0  0  0  0  0  0  0  0  0  0
   -1.6538   -6.7262    0.5951 H   0  0  0  0  0  0  0  0  0  0  0  0
   -0.9218   -4.7444    0.1406 C   0  0  0  0  0  0  0  0  0  0  0  0
   -1.3810   -4.2921    1.0081 H   0  0  0  0  0  0  0  0  0  0  0  0
   -0.1815   -3.9357   -0.7488 C   0  0  0  0  0  0  0  0  0  0  0  0
   -1.2194    0.1851   -1.3551 C   0  0  0  0  0  0  0  0  0  0  0  0
   -2.2032    0.7274   -1.8567 O   0  0  0  0  0  0  0  0  0  0  0  0
    0.0017    0.2606   -1.9013 N   0  0  0  0  0  0  0  0  0  0  0  0
    0.7459   -0.2579   -1.4568 H   0  0  0  0  0  0  0  0  0  0  0  0
    0.3081    0.9849   -3.1317 C   0  0  0  0  0  0  0  0  0  0  0  0
   -0.0711    2.0062   -3.0619 H   0  0  0  0  0  0  0  0  0  0  0  0
    1.3864    1.0102   -3.2940 H   0  0  0  0  0  0  0  0  0  0  0  0
   -0.1731    0.4899   -3.9769 H   0  0  0  0  0  0  0  0  0  0  0  0
  5  6  2  0  0  0  0
  5  7  1  0  0  0  0
  2  3  1  0  0  0  0
  2  4  1  0  0  0  0
  2  5  1  0  0  0  0
  1  2  1  0  0  0  0
 29 30  2  0  0  0  0
 29 31  1  0  0  0  0
 26 27  1  0  0  0  0
 26 28  2  0  0  0  0
 24 25  1  0  0  0  0
 24 26  1  0  0  0  0
 22 23  1  0  0  0  0
 22 24  2  0  0  0  0
 20 21  1  0  0  0  0
 20 22  1  0  0  0  0
 19 20  2  0  0  0  0
 19 28  1  0  0  0  0
 17 18  1  0  0  0  0
 17 19  1  0  0  0  0
 15 16  1  0  0  0  0
 15 17  1  0  0  0  0
 14 15  2  0  0  0  0
 14 28  1  0  0  0  0
 11 12  1  0  0  0  0
 11 13  1  0  0  0  0
 11 14  1  0  0  0  0
  9 10  1  0  0  0  0
  9 11  1  0  0  0  0
  9 29  1  0  0  0  0
  7  8  1  0  0  0  0
  7  9  1  0  0  0  0
 33 34  1  0  0  0  0
 33 35  1  0  0  0  0
 33 36  1  0  0  0  0
 31 32  1  0  0  0  0
 31 33  1  0  0  0  0
M  END
$$$$
default_name
  -OEChem-12212115393D

 36 37  0     1  0  0  0  0  0999 V2000
   -4.0843   -4.0736    1.2944 H   0  0  0  0  0  0  0  0  0  0  0  0
   -4.0342   -3.2816    0.5484 C   0  0  0  0  0  0  0  0  0  0  0  0
   -4.8842   -2.6126    0.6694 H   0  0  0  0  0  0  0  0  0  0  0  0
   -4.0433   -3.7186   -0.4486 H   0  0  0  0  0  0  0  0  0  0  0  0
   -2.7532   -2.5046    0.7444 C   0  0  0  0  0  0  0  0  0  0  0  0
   -1.9803   -2.8096    1.6434 O   0  0  0  0  0  0  0  0  0  0  0  0
   -2.5332   -1.4966   -0.0966 N   0  0  0  0  0  0  0  0  0  0  0  0
   -3.2312   -1.2816   -0.7936 H   0  0  0  0  0  0  0  0  0  0  0  0
   -1.3593   -0.6196   -0.0536 C   0  0  1  0  0  0  0  0  0  0  0  0
   -1.4861    0.0941    0.7613 H   0  0  0  0  0  0  0  0  0  0  0  0
   -0.1038   -1.4579    0.2343 C   0  0  0  0  0  0  0  0  0  0  0  0
    0.7591   -0.7917    0.2882 H   0  0  0  0  0  0  0  0  0  0  0  0
   -0.2180   -1.9299    1.2116 H   0  0  0  0  0  0  0  0  0  0  0  0
    0.1960   -2.5236   -0.7758 C   0  0  0  0  0  0  0  0  0  0  0  0
    0.9303   -2.3587   -1.8989 C   0  0  0  0  0  0  0  0  0  0  0  0
    1.3768   -1.4214   -2.2122 H   0  0  0  0  0  0  0  0  0  0  0  0
    1.0371   -3.5640   -2.5648 N   0  0  0  0  0  0  0  0  0  0  0  0
    1.5390   -3.6779   -3.4333 H   0  0  0  0  0  0  0  0  0  0  0  0
    0.3866   -4.5756   -1.8908 C   0  0  0  0  0  0  0  0  0  0  0  0
    0.2340   -5.9476   -2.1375 C   0  0  0  0  0  0  0  0  0  0  0  0
    0.6760   -6.3987   -3.0137 H   0  0  0  0  0  0  0  0  0  0  0  0
   -0.5037   -6.7266   -1.2298 C   0  0  0  0  0  0  0  0  0  0  0  0
   -0.6329   -7.7862   -1.4043 H   0  0  0  0  0  0  0  0  0  0  0  0
   -1.0800   -6.1246   -0.0963 C   0  0  0  0  0  0  0  0  0  0  0  0
   -1.6538   -6.7262    0.5951 H   0  0  0  0  0  0  0  0  0  0  0  0
   -0.9218   -4.7444    0.1406 C   0  0  0  0  0  0  0  0  0  0  0  0
   -1.3810   -4.2921    1.0081 H   0  0  0  0  0  0  0  0  0  0  0  0
   -0.1815   -3.9357   -0.7488 C   0  0  0  0  0  0  0  0  0  0  0  0
   -1.2194    0.1851   -1.3551 C   0  0  0  0  0  0  0  0  0  0  0  0
   -2.1168    0.9475   -1.7113 O   0  0  0  0  0  0  0  0  0  0  0  0
   -0.0955    0.0142   -2.0641 N   0  0  0  0  0  0  0  0  0  0  0  0
    0.5682   -0.6706   -1.7311 H   0  0  0  0  0  0  0  0  0  0  0  0
    0.1969    0.7014   -3.3189 C   0  0  0  0  0  0  0  0  0  0  0  0
    0.0654    1.7773   -3.1887 H   0  0  0  0  0  0  0  0  0  0  0  0
    1.2229    0.4978   -3.6284 H   0  0  0  0  0  0  0  0  0  0  0  0
   -0.4896    0.3561   -4.0937 H   0  0  0  0  0  0  0  0  0  0  0  0
  5  6  2  0  0  0  0
  5  7  1  0  0  0  0
  2  3  1  0  0  0  0
  2  4  1  0  0  0  0
  2  5  1  0  0  0  0
  1  2  1  0  0  0  0
 29 30  2  0  0  0  0
 29 31  1  0  0  0  0
 26 27  1  0  0  0  0
 26 28  2  0  0  0  0
 24 25  1  0  0  0  0
 24 26  1  0  0  0  0
 22 23  1  0  0  0  0
 22 24  2  0  0  0  0
 20 21  1  0  0  0  0
 20 22  1  0  0  0  0
 19 20  2  0  0  0  0
 19 28  1  0  0  0  0
 17 18  1  0  0  0  0
 17 19  1  0  0  0  0
 15 16  1  0  0  0  0
 15 17  1  0  0  0  0
 14 15  2  0  0  0  0
 14 28  1  0  0  0  0
 11 12  1  0  0  0  0
 11 13  1  0  0  0  0
 11 14  1  0  0  0  0
  9 10  1  0  0  0  0
  9 11  1  0  0  0  0
  9 29  1  0  0  0  0
  7  8  1  0  0  0  0
  7  9  1  0  0  0  0
 33 34  1  0  0  0  0
 33 35  1  0  0  0  0
 33 36  1  0  0  0  0
 31 32  1  0  0  0  0
 31 33  1  0  0  0  0
M  END
$$$$
default_name
  -OEChem-12212115393D

 36 37  0     1  0  0  0  0  0999 V2000
   -4.0843   -4.0736    1.2944 H   0  0  0  0  0  0  0  0  0  0  0  0
   -4.0342   -3.2816    0.5484 C   0  0  0  0  0  0  0  0  0  0  0  0
   -4.8842   -2.6126    0.6694 H   0  0  0  0  0  0  0  0  0  0  0  0
   -4.0433   -3.7186   -0.4486 H   0  0  0  0  0  0  0  0  0  0  0  0
   -2.7532   -2.5046    0.7444 C   0  0  0  0  0  0  0  0  0  0  0  0
   -1.9803   -2.8096    1.6434 O   0  0  0  0  0  0  0  0  0  0  0  0
   -2.5332   -1.4966   -0.0966 N   0  0  0  0  0  0  0  0  0  0  0  0
   -3.2312   -1.2816   -0.7936 H   0  0  0  0  0  0  0  0  0  0  0  0
   -1.3593   -0.6196   -0.0536 C   0  0  1  0  0  0  0  0  0  0  0  0
   -1.4861    0.0941    0.7613 H   0  0  0  0  0  0  0  0  0  0  0  0
   -0.1038   -1.4579    0.2343 C   0  0  0  0  0  0  0  0  0  0  0  0
    0.7591   -0.7917    0.2882 H   0  0  0  0  0  0  0  0  0  0  0  0
   -0.2180   -1.9299    1.2116 H   0  0  0  0  0  0  0  0  0  0  0  0
    0.1960   -2.5236   -0.7758 C   0  0  0  0  0  0  0  0  0  0  0  0
    0.9303   -2.3587   -1.8989 C   0  0  0  0  0  0  0  0  0  0  0  0
    1.3768   -1.4214   -2.2122 H   0  0  0  0  0  0  0  0  0  0  0  0
    1.0371   -3.5640   -2.5648 N   0  0  0  0  0  0  0  0  0  0  0  0
    1.5390   -3.6779   -3.4333 H   0  0  0  0  0  0  0  0  0  0  0  0
    0.3866   -4.5756   -1.8908 C   0  0  0  0  0  0  0  0  0  0  0  0
    0.2340   -5.9476   -2.1375 C   0  0  0  0  0  0  0  0  0  0  0  0
    0.6760   -6.3987   -3.0137 H   0  0  0  0  0  0  0  0  0  0  0  0
   -0.5037   -6.7266   -1.2298 C   0  0  0  0  0  0  0  0  0  0  0  0
   -0.6329   -7.7862   -1.4043 H   0  0  0  0  0  0  0  0  0  0  0  0
   -1.0800   -6.1246   -0.0963 C   0  0  0  0  0  0  0  0  0  0  0  0
   -1.6538   -6.7262    0.5951 H   0  0  0  0  0  0  0  0  0  0  0  0
   -0.9218   -4.7444    0.1406 C   0  0  0  0  0  0  0  0  0  0  0  0
   -1.3810   -4.2921    1.0081 H   0  0  0  0  0  0  0  0  0  0  0  0
   -0.1815   -3.9357   -0.7488 C   0  0  0  0  0  0  0  0  0  0  0  0
   -1.2194    0.1851   -1.3551 C   0  0  0  0  0  0  0  0  0  0  0  0
   -1.9655    1.1377   -1.5775 O   0  0  0  0  0  0  0  0  0  0  0  0
   -0.2654   -0.1987   -2.2140 N   0  0  0  0  0  0  0  0  0  0  0  0
    0.2688   -1.0239   -1.9817 H   0  0  0  0  0  0  0  0  0  0  0  0
    0.0021    0.4564   -3.4914 C   0  0  0  0  0  0  0  0  0  0  0  0
    0.1299    1.5293   -3.3352 H   0  0  0  0  0  0  0  0  0  0  0  0
    0.9072    0.0466   -3.9414 H   0  0  0  0  0  0  0  0  0  0  0  0
   -0.8406    0.2990   -4.1667 H   0  0  0  0  0  0  0  0  0  0  0  0
  5  6  2  0  0  0  0
  5  7  1  0  0  0  0
  2  3  1  0  0  0  0
  2  4  1  0  0  0  0
  2  5  1  0  0  0  0
  1  2  1  0  0  0  0
 29 30  2  0  0  0  0
 29 31  1  0  0  0  0
 26 27  1  0  0  0  0
 26 28  2  0  0  0  0
 24 25  1  0  0  0  0
 24 26  1  0  0  0  0
 22 23  1  0  0  0  0
 22 24  2  0  0  0  0
 20 21  1  0  0  0  0
 20 22  1  0  0  0  0
 19 20  2  0  0  0  0
 19 28  1  0  0  0  0
 17 18  1  0  0  0  0
 17 19  1  0  0  0  0
 15 16  1  0  0  0  0
 15 17  1  0  0  0  0
 14 15  2  0  0  0  0
 14 28  1  0  0  0  0
 11 12  1  0  0  0  0
 11 13  1  0  0  0  0
 11 14  1  0  0  0  0
  9 10  1  0  0  0  0
  9 11  1  0  0  0  0
  9 29  1  0  0  0  0
  7  8  1  0  0  0  0
  7  9  1  0  0  0  0
 33 34  1  0  0  0  0
 33 35  1  0  0  0  0
 33 36  1  0  0  0  0
 31 32  1  0  0  0  0
 31 33  1  0  0  0  0
M  END
$$$$
default_name
  -OEChem-12212115393D

 36 37  0     1  0  0  0  0  0999 V2000
   -4.0843   -4.0736    1.2944 H   0  0  0  0  0  0  0  0  0  0  0  0
   -4.0342   -3.2816    0.5484 C   0  0  0  0  0  0  0  0  0  0  0  0
   -4.8842   -2.6126    0.6694 H   0  0  0  0  0  0  0  0  0  0  0  0
   -4.0433   -3.7186   -0.4486 H   0  0  0  0  0  0  0  0  0  0  0  0
   -2.7532   -2.5046    0.7444 C   0  0  0  0  0  0  0  0  0  0  0  0
   -1.9803   -2.8096    1.6434 O   0  0  0  0  0  0  0  0  0  0  0  0
   -2.5332   -1.4966   -0.0966 N   0  0  0  0  0  0  0  0  0  0  0  0
   -3.2312   -1.2816   -0.7936 H   0  0  0  0  0  0  0  0  0  0  0  0
   -1.3593   -0.6196   -0.0536 C   0  0  1  0  0  0  0  0  0  0  0  0
   -1.4861    0.0941    0.7613 H   0  0  0  0  0  0  0  0  0  0  0  0
   -0.1038   -1.4579    0.2343 C   0  0  0  0  0  0  0  0  0  0  0  0
    0.7591   -0.7917    0.2882 H   0  0  0  0  0  0  0  0  0  0  0  0
   -0.2180   -1.9299    1.2116 H   0  0  0  0  0  0  0  0  0  0  0  0
    0.1960   -2.5236   -0.7758 C   0  0  0  0  0  0  0  0  0  0  0  0
    0.9303   -2.3587   -1.8989 C   0  0  0  0  0  0  0  0  0  0  0  0
    1.3768   -1.4214   -2.2122 H   0  0  0  0  0  0  0  0  0  0  0  0
    1.0371   -3.5640   -2.5648 N   0  0  0  0  0  0  0  0  0  0  0  0
    1.5390   -3.6779   -3.4333 H   0  0  0  0  0  0  0  0  0  0  0  0
    0.3866   -4.5756   -1.8908 C   0  0  0  0  0  0  0  0  0  0  0  0
    0.2340   -5.9476   -2.1375 C   0  0  0  0  0  0  0  0  0  0  0  0
    0.6760   -6.3987   -3.0137 H   0  0  0  0  0  0  0  0  0  0  0  0
   -0.5037   -6.7266   -1.2298 C   0  0  0  0  0  0  0  0  0  0  0  0
   -0.6329   -7.7862   -1.4043 H   0  0  0  0  0  0  0  0  0  0  0  0
   -1.0800   -6.1246   -0.0963 C   0  0  0  0  0  0  0  0  0  0  0  0
   -1.6538   -6.7262    0.5951 H   0  0  0  0  0  0  0  0  0  0  0  0
   -0.9218   -4.7444    0.1406 C   0  0  0  0  0  0  0  0  0  0  0  0
   -1.3810   -4.2921    1.0081 H   0  0  0  0  0  0  0  0  0  0  0  0
   -0.1815   -3.9357   -0.7488 C   0  0  0  0  0  0  0  0  0  0  0  0
   -1.2194    0.1851   -1.3551 C   0  0  0  0  0  0  0  0  0  0  0  0
   -1.7595    1.2851   -1.4642 O   0  0  0  0  0  0  0  0  0  0  0  0
   -0.4966   -0.3636   -2.3408 N   0  0  0  0  0  0  0  0  0  0  0  0
   -0.1318   -1.2936   -2.1915 H   0  0  0  0  0  0  0  0  0  0  0  0
   -0.2632    0.2666   -3.6373 C   0  0  0  0  0  0  0  0  0  0  0  0
    0.1179    1.2790   -3.4912 H   0  0  0  0  0  0  0  0  0  0  0  0
    0.4610   -0.3127   -4.2115 H   0  0  0  0  0  0  0  0  0  0  0  0
   -1.2019    0.3225   -4.1910 H   0  0  0  0  0  0  0  0  0  0  0  0
  5  6  2  0  0  0  0
  5  7  1  0  0  0  0
  2  3  1  0  0  0  0
  2  4  1  0  0  0  0
  2  5  1  0  0  0  0
  1  2  1  0  0  0  0
 29 30  2  0  0  0  0
 29 31  1  0  0  0  0
 26 27  1  0  0  0  0
 26 28  2  0  0  0  0
 24 25  1  0  0  0  0
 24 26  1  0  0  0  0
 22 23  1  0  0  0  0
 22 24  2  0  0  0  0
 20 21  1  0  0  0  0
 20 22  1  0  0  0  0
 19 20  2  0  0  0  0
 19 28  1  0  0  0  0
 17 18  1  0  0  0  0
 17 19  1  0  0  0  0
 15 16  1  0  0  0  0
 15 17  1  0  0  0  0
 14 15  2  0  0  0  0
 14 28  1  0  0  0  0
 11 12  1  0  0  0  0
 11 13  1  0  0  0  0
 11 14  1  0  0  0  0
  9 10  1  0  0  0  0
  9 11  1  0  0  0  0
  9 29  1  0  0  0  0
  7  8  1  0  0  0  0
  7  9  1  0  0  0  0
 33 34  1  0  0  0  0
 33 35  1  0  0  0  0
 33 36  1  0  0  0  0
 31 32  1  0  0  0  0
 31 33  1  0  0  0  0
M  END
$$$$
default_name
  -OEChem-12212115393D

 36 37  0     1  0  0  0  0  0999 V2000
   -4.0843   -4.0736    1.2944 H   0  0  0  0  0  0  0  0  0  0  0  0
   -4.0342   -3.2816    0.5484 C   0  0  0  0  0  0  0  0  0  0  0  0
   -4.8842   -2.6126    0.6694 H   0  0  0  0  0  0  0  0  0  0  0  0
   -4.0433   -3.7186   -0.4486 H   0  0  0  0  0  0  0  0  0  0  0  0
   -2.7532   -2.5046    0.7444 C   0  0  0  0  0  0  0  0  0  0  0  0
   -1.9803   -2.8096    1.6434 O   0  0  0  0  0  0  0  0  0  0  0  0
   -2.5332   -1.4966   -0.0966 N   0  0  0  0  0  0  0  0  0  0  0  0
   -3.2312   -1.2816   -0.7936 H   0  0  0  0  0  0  0  0  0  0  0  0
   -1.3593   -0.6196   -0.0536 C   0  0  1  0  0  0  0  0  0  0  0  0
   -1.4861    0.0941    0.7613 H   0  0  0  0  0  0  0  0  0  0  0  0
   -0.1038   -1.4579    0.2343 C   0  0  0  0  0  0  0  0  0  0  0  0
    0.7591   -0.7917    0.2882 H   0  0  0  0  0  0  0  0  0  0  0  0
   -0.2180   -1.9299    1.2116 H   0  0  0  0  0  0  0  0  0  0  0  0
    0.1960   -2.5236   -0.7758 C   0  0  0  0  0  0  0  0  0  0  0  0
    0.9303   -2.3587   -1.8989 C   0  0  0  0  0  0  0  0  0  0  0  0
    1.3768   -1.4214   -2.2122 H   0  0  0  0  0  0  0  0  0  0  0  0
    1.0371   -3.5640   -2.5648 N   0  0  0  0  0  0  0  0  0  0  0  0
    1.5390   -3.6779   -3.4333 H   0  0  0  0  0  0  0  0  0  0  0  0
    0.3866   -4.5756   -1.8908 C   0  0  0  0  0  0  0  0  0  0  0  0
    0.2340   -5.9476   -2.1375 C   0  0  0  0  0  0  0  0  0  0  0  0
    0.6760   -6.3987   -3.0137 H   0  0  0  0  0  0  0  0  0  0  0  0
   -0.5037   -6.7266   -1.2298 C   0  0  0  0  0  0  0  0  0  0  0  0
   -0.6329   -7.7862   -1.4043 H   0  0  0  0  0  0  0  0  0  0  0  0
   -1.0800   -6.1246   -0.0963 C   0  0  0  0  0  0  0  0  0  0  0  0
   -1.6538   -6.7262    0.5951 H   0  0  0  0  0  0  0  0  0  0  0  0
   -0.9218   -4.7444    0.1406 C   0  0  0  0  0  0  0  0  0  0  0  0
   -1.3810   -4.2921    1.0081 H   0  0  0  0  0  0  0  0  0  0  0  0
   -0.1815   -3.9357   -0.7488 C   0  0  0  0  0  0  0  0  0  0  0  0
   -1.2194    0.1851   -1.3551 C   0  0  0  0  0  0  0  0  0  0  0  0
   -1.5128    1.3797   -1.3792 O   0  0  0  0  0  0  0  0  0  0  0  0
   -0.7732   -0.4692   -2.4358 N   0  0  0  0  0  0  0  0  0  0  0  0
   -0.6063   -1.4613   -2.3462 H   0  0  0  0  0  0  0  0  0  0  0  0
   -0.5809    0.1448   -3.7467 C   0  0  0  0  0  0  0  0  0  0  0  0
    0.0304    1.0436   -3.6462 H   0  0  0  0  0  0  0  0  0  0  0  0
   -0.0854   -0.5555   -4.4204 H   0  0  0  0  0  0  0  0  0  0  0  0
   -1.5491    0.4250   -4.1649 H   0  0  0  0  0  0  0  0  0  0  0  0
  5  6  2  0  0  0  0
  5  7  1  0  0  0  0
  2  3  1  0  0  0  0
  2  4  1  0  0  0  0
  2  5  1  0  0  0  0
  1  2  1  0  0  0  0
 29 30  2  0  0  0  0
 29 31  1  0  0  0  0
 26 27  1  0  0  0  0
 26 28  2  0  0  0  0
 24 25  1  0  0  0  0
 24 26  1  0  0  0  0
 22 23  1  0  0  0  0
 22 24  2  0  0  0  0
 20 21  1  0  0  0  0
 20 22  1  0  0  0  0
 19 20  2  0  0  0  0
 19 28  1  0  0  0  0
 17 18  1  0  0  0  0
 17 19  1  0  0  0  0
 15 16  1  0  0  0  0
 15 17  1  0  0  0  0
 14 15  2  0  0  0  0
 14 28  1  0  0  0  0
 11 12  1  0  0  0  0
 11 13  1  0  0  0  0
 11 14  1  0  0  0  0
  9 10  1  0  0  0  0
  9 11  1  0  0  0  0
  9 29  1  0  0  0  0
  7  8  1  0  0  0  0
  7  9  1  0  0  0  0
 33 34  1  0  0  0  0
 33 35  1  0  0  0  0
 33 36  1  0  0  0  0
 31 32  1  0  0  0  0
 31 33  1  0  0  0  0
M  END
$$$$
default_name
  -OEChem-12212115393D

 36 37  0     1  0  0  0  0  0999 V2000
   -4.0843   -4.0736    1.2944 H   0  0  0  0  0  0  0  0  0  0  0  0
   -4.0342   -3.2816    0.5484 C   0  0  0  0  0  0  0  0  0  0  0  0
   -4.8842   -2.6126    0.6694 H   0  0  0  0  0  0  0  0  0  0  0  0
   -4.0433   -3.7186   -0.4486 H   0  0  0  0  0  0  0  0  0  0  0  0
   -2.7532   -2.5046    0.7444 C   0  0  0  0  0  0  0  0  0  0  0  0
   -1.9803   -2.8096    1.6434 O   0  0  0  0  0  0  0  0  0  0  0  0
   -2.5332   -1.4966   -0.0966 N   0  0  0  0  0  0  0  0  0  0  0  0
   -3.2312   -1.2816   -0.7936 H   0  0  0  0  0  0  0  0  0  0  0  0
   -1.3593   -0.6196   -0.0536 C   0  0  1  0  0  0  0  0  0  0  0  0
   -1.4861    0.0941    0.7613 H   0  0  0  0  0  0  0  0  0  0  0  0
   -0.1038   -1.4579    0.2343 C   0  0  0  0  0  0  0  0  0  0  0  0
    0.7591   -0.7917    0.2882 H   0  0  0  0  0  0  0  0  0  0  0  0
   -0.2180   -1.9299    1.2116 H   0  0  0  0  0  0  0  0  0  0  0  0
    0.1960   -2.5236   -0.7758 C   0  0  0  0  0  0  0  0  0  0  0  0
    0.9303   -2.3587   -1.8989 C   0  0  0  0  0  0  0  0  0  0  0  0
    1.3768   -1.4214   -2.2122 H   0  0  0  0  0  0  0  0  0  0  0  0
    1.0371   -3.5640   -2.5648 N   0  0  0  0  0  0  0  0  0  0  0  0
    1.5390   -3.6779   -3.4333 H   0  0  0  0  0  0  0  0  0  0  0  0
    0.3866   -4.5756   -1.8908 C   0  0  0  0  0  0  0  0  0  0  0  0
    0.2340   -5.9476   -2.1375 C   0  0  0  0  0  0  0  0  0  0  0  0
    0.6760   -6.3987   -3.0137 H   0  0  0  0  0  0  0  0  0  0  0  0
   -0.5037   -6.7266   -1.2298 C   0  0  0  0  0  0  0  0  0  0  0  0
   -0.6329   -7.7862   -1.4043 H   0  0  0  0  0  0  0  0  0  0  0  0
   -1.0800   -6.1246   -0.0963 C   0  0  0  0  0  0  0  0  0  0  0  0
   -1.6538   -6.7262    0.5951 H   0  0  0  0  0  0  0  0  0  0  0  0
   -0.9218   -4.7444    0.1406 C   0  0  0  0  0  0  0  0  0  0  0  0
   -1.3810   -4.2921    1.0081 H   0  0  0  0  0  0  0  0  0  0  0  0
   -0.1815   -3.9357   -0.7488 C   0  0  0  0  0  0  0  0  0  0  0  0
   -1.2194    0.1851   -1.3551 C   0  0  0  0  0  0  0  0  0  0  0  0
   -1.2423    1.4149   -1.3283 O   0  0  0  0  0  0  0  0  0  0  0  0
   -1.0764   -0.5083   -2.4926 N   0  0  0  0  0  0  0  0  0  0  0  0
   -1.1223   -1.5157   -2.4353 H   0  0  0  0  0  0  0  0  0  0  0  0
   -0.9293    0.0994   -3.8123 C   0  0  0  0  0  0  0  0  0  0  0  0
   -0.1268    0.8390   -3.7895 H   0  0  0  0  0  0  0  0  0  0  0  0
   -0.6947   -0.6654   -4.5538 H   0  0  0  0  0  0  0  0  0  0  0  0
   -1.8585    0.5995   -4.0903 H   0  0  0  0  0  0  0  0  0  0  0  0
  5  6  2  0  0  0  0
  5  7  1  0  0  0  0
  2  3  1  0  0  0  0
  2  4  1  0  0  0  0
  2  5  1  0  0  0  0
  1  2  1  0  0  0  0
 29 30  2  0  0  0  0
 29 31  1  0  0  0  0
 26 27  1  0  0  0  0
 26 28  2  0  0  0  0
 24 25  1  0  0  0  0
 24 26  1  0  0  0  0
 22 23  1  0  0  0  0
 22 24  2  0  0  0  0
 20 21  1  0  0  0  0
 20 22  1  0  0  0  0
 19 20  2  0  0  0  0
 19 28  1  0  0  0  0
 17 18  1  0  0  0  0
 17 19  1  0  0  0  0
 15 16  1  0  0  0  0
 15 17  1  0  0  0  0
 14 15  2  0  0  0  0
 14 28  1  0  0  0  0
 11 12  1  0  0  0  0
 11 13  1  0  0  0  0
 11 14  1  0  0  0  0
  9 10  1  0  0  0  0
  9 11  1  0  0  0  0
  9 29  1  0  0  0  0
  7  8  1  0  0  0  0
  7  9  1  0  0  0  0
 33 34  1  0  0  0  0
 33 35  1  0  0  0  0
 33 36  1  0  0  0  0
 31 32  1  0  0  0  0
 31 33  1  0  0  0  0
M  END
$$$$
default_name
  -OEChem-12212115393D

 36 37  0     1  0  0  0  0  0999 V2000
   -4.0843   -4.0736    1.2944 H   0  0  0  0  0  0  0  0  0  0  0  0
   -4.0342   -3.2816    0.5484 C   0  0  0  0  0  0  0  0  0  0  0  0
   -4.8842   -2.6126    0.6694 H   0  0  0  0  0  0  0  0  0  0  0  0
   -4.0433   -3.7186   -0.4486 H   0  0  0  0  0  0  0  0  0  0  0  0
   -2.7532   -2.5046    0.7444 C   0  0  0  0  0  0  0  0  0  0  0  0
   -1.9803   -2.8096    1.6434 O   0  0  0  0  0  0  0  0  0  0  0  0
   -2.5332   -1.4966   -0.0966 N   0  0  0  0  0  0  0  0  0  0  0  0
   -3.2312   -1.2816   -0.7936 H   0  0  0  0  0  0  0  0  0  0  0  0
   -1.3593   -0.6196   -0.0536 C   0  0  1  0  0  0  0  0  0  0  0  0
   -1.4861    0.0941    0.7613 H   0  0  0  0  0  0  0  0  0  0  0  0
   -0.1038   -1.4579    0.2343 C   0  0  0  0  0  0  0  0  0  0  0  0
    0.7591   -0.7917    0.2882 H   0  0  0  0  0  0  0  0  0  0  0  0
   -0.2180   -1.9299    1.2116 H   0  0  0  0  0  0  0  0  0  0  0  0
    0.1960   -2.5236   -0.7758 C   0  0  0  0  0  0  0  0  0  0  0  0
    0.9303   -2.3587   -1.8989 C   0  0  0  0  0  0  0  0  0  0  0  0
    1.3768   -1.4214   -2.2122 H   0  0  0  0  0  0  0  0  0  0  0  0
    1.0371   -3.5640   -2.5648 N   0  0  0  0  0  0  0  0  0  0  0  0
    1.5390   -3.6779   -3.4333 H   0  0  0  0  0  0  0  0  0  0  0  0
    0.3866   -4.5756   -1.8908 C   0  0  0  0  0  0  0  0  0  0  0  0
    0.2340   -5.9476   -2.1375 C   0  0  0  0  0  0  0  0  0  0  0  0
    0.6760   -6.3987   -3.0137 H   0  0  0  0  0  0  0  0  0  0  0  0
   -0.5037   -6.7266   -1.2298 C   0  0  0  0  0  0  0  0  0  0  0  0
   -0.6329   -7.7862   -1.4043 H   0  0  0  0  0  0  0  0  0  0  0  0
   -1.0800   -6.1246   -0.0963 C   0  0  0  0  0  0  0  0  0  0  0  0
   -1.6538   -6.7262    0.5951 H   0  0  0  0  0  0  0  0  0  0  0  0
   -0.9218   -4.7444    0.1406 C   0  0  0  0  0  0  0  0  0  0  0  0
   -1.3810   -4.2921    1.0081 H   0  0  0  0  0  0  0  0  0  0  0  0
   -0.1815   -3.9357   -0.7488 C   0  0  0  0  0  0  0  0  0  0  0  0
   -1.2194    0.1851   -1.3551 C   0  0  0  0  0  0  0  0  0  0  0  0
   -0.9663    1.3884   -1.3150 O   0  0  0  0  0  0  0  0  0  0  0  0
   -1.3856   -0.4782   -2.5072 N   0  0  0  0  0  0  0  0  0  0  0  0
   -1.6448   -1.4530   -2.4527 H   0  0  0  0  0  0  0  0  0  0  0  0
   -1.2847    0.1334   -3.8294 C   0  0  0  0  0  0  0  0  0  0  0  0
   -0.3429    0.6793   -3.9115 H   0  0  0  0  0  0  0  0  0  0  0  0
   -1.3255   -0.6348   -4.6027 H   0  0  0  0  0  0  0  0  0  0  0  0
   -2.1090    0.8341   -3.9721 H   0  0  0  0  0  0  0  0  0  0  0  0
  5  6  2  0  0  0  0
  5  7  1  0  0  0  0
  2  3  1  0  0  0  0
  2  4  1  0  0  0  0
  2  5  1  0  0  0  0
  1  2  1  0  0  0  0
 29 30  2  0  0  0  0
 29 31  1  0  0  0  0
 26 27  1  0  0  0  0
 26 28  2  0  0  0  0
 24 25  1  0  0  0  0
 24 26  1  0  0  0  0
 22 23  1  0  0  0  0
 22 24  2  0  0  0  0
 20 21  1  0  0  0  0
 20 22  1  0  0  0  0
 19 20  2  0  0  0  0
 19 28  1  0  0  0  0
 17 18  1  0  0  0  0
 17 19  1  0  0  0  0
 15 16  1  0  0  0  0
 15 17  1  0  0  0  0
 14 15  2  0  0  0  0
 14 28  1  0  0  0  0
 11 12  1  0  0  0  0
 11 13  1  0  0  0  0
 11 14  1  0  0  0  0
  9 10  1  0  0  0  0
  9 11  1  0  0  0  0
  9 29  1  0  0  0  0
  7  8  1  0  0  0  0
  7  9  1  0  0  0  0
 33 34  1  0  0  0  0
 33 35  1  0  0  0  0
 33 36  1  0  0  0  0
 31 32  1  0  0  0  0
 31 33  1  0  0  0  0
M  END
$$$$
default_name
  -OEChem-12212115393D

 36 37  0     1  0  0  0  0  0999 V2000
   -4.0843   -4.0736    1.2944 H   0  0  0  0  0  0  0  0  0  0  0  0
   -4.0342   -3.2816    0.5484 C   0  0  0  0  0  0  0  0  0  0  0  0
   -4.8842   -2.6126    0.6694 H   0  0  0  0  0  0  0  0  0  0  0  0
   -4.0433   -3.7186   -0.4486 H   0  0  0  0  0  0  0  0  0  0  0  0
   -2.7532   -2.5046    0.7444 C   0  0  0  0  0  0  0  0  0  0  0  0
   -1.9803   -2.8096    1.6434 O   0  0  0  0  0  0  0  0  0  0  0  0
   -2.5332   -1.4966   -0.0966 N   0  0  0  0  0  0  0  0  0  0  0  0
   -3.2312   -1.2816   -0.7936 H   0  0  0  0  0  0  0  0  0  0  0  0
   -1.3593   -0.6196   -0.0536 C   0  0  1  0  0  0  0  0  0  0  0  0
   -1.4861    0.0941    0.7613 H   0  0  0  0  0  0  0  0  0  0  0  0
   -0.1038   -1.4579    0.2343 C   0  0  0  0  0  0  0  0  0  0  0  0
    0.7591   -0.7917    0.2882 H   0  0  0  0  0  0  0  0  0  0  0  0
   -0.2180   -1.9299    1.2116 H   0  0  0  0  0  0  0  0  0  0  0  0
    0.1960   -2.5236   -0.7758 C   0  0  0  0  0  0  0  0  0  0  0  0
    0.9303   -2.3587   -1.8989 C   0  0  0  0  0  0  0  0  0  0  0  0
    1.3768   -1.4214   -2.2122 H   0  0  0  0  0  0  0  0  0  0  0  0
    1.0371   -3.5640   -2.5648 N   0  0  0  0  0  0  0  0  0  0  0  0
    1.5390   -3.6779   -3.4333 H   0  0  0  0  0  0  0  0  0  0  0  0
    0.3866   -4.5756   -1.8908 C   0  0  0  0  0  0  0  0  0  0  0  0
    0.2340   -5.9476   -2.1375 C   0  0  0  0  0  0  0  0  0  0  0  0
    0.6760   -6.3987   -3.0137 H   0  0  0  0  0  0  0  0  0  0  0  0
   -0.5037   -6.7266   -1.2298 C   0  0  0  0  0  0  0  0  0  0  0  0
   -0.6329   -7.7862   -1.4043 H   0  0  0  0  0  0  0  0  0  0  0  0
   -1.0800   -6.1246   -0.0963 C   0  0  0  0  0  0  0  0  0  0  0  0
   -1.6538   -6.7262    0.5951 H   0  0  0  0  0  0  0  0  0  0  0  0
   -0.9218   -4.7444    0.1406 C   0  0  0  0  0  0  0  0  0  0  0  0
   -1.3810   -4.2921    1.0081 H   0  0  0  0  0  0  0  0  0  0  0  0
   -0.1815   -3.9357   -0.7488 C   0  0  0  0  0  0  0  0  0  0  0  0
   -1.2194    0.1851   -1.3551 C   0  0  0  0  0  0  0  0  0  0  0  0
   -0.7038    1.3021   -1.3402 O   0  0  0  0  0  0  0  0  0  0  0  0
   -1.6796   -0.3811   -2.4788 N   0  0  0  0  0  0  0  0  0  0  0  0
   -2.1381   -1.2774   -2.3972 H   0  0  0  0  0  0  0  0  0  0  0  0
   -1.6228    0.2446   -3.7970 C   0  0  0  0  0  0  0  0  0  0  0  0
   -0.6032    0.5752   -4.0039 H   0  0  0  0  0  0  0  0  0  0  0  0
   -1.9346   -0.4658   -4.5637 H   0  0  0  0  0  0  0  0  0  0  0  0
   -2.2834    1.1129   -3.8185 H   0  0  0  0  0  0  0  0  0  0  0  0
  5  6  2  0  0  0  0
  5  7  1  0  0  0  0
  2  3  1  0  0  0  0
  2  4  1  0  0  0  0
  2  5  1  0  0  0  0
  1  2  1  0  0  0  0
 29 30  2  0  0  0  0
 29 31  1  0  0  0  0
 26 27  1  0  0  0  0
 26 28  2  0  0  0  0
 24 25  1  0  0  0  0
 24 26  1  0  0  0  0
 22 23  1  0  0  0  0
 22 24  2  0  0  0  0
 20 21  1  0  0  0  0
 20 22  1  0  0  0  0
 19 20  2  0  0  0  0
 19 28  1  0  0  0  0
 17 18  1  0  0  0  0
 17 19  1  0  0  0  0
 15 16  1  0  0  0  0
 15 17  1  0  0  0  0
 14 15  2  0  0  0  0
 14 28  1  0  0  0  0
 11 12  1  0  0  0  0
 11 13  1  0  0  0  0
 11 14  1  0  0  0  0
  9 10  1  0  0  0  0
  9 11  1  0  0  0  0
  9 29  1  0  0  0  0
  7  8  1  0  0  0  0
  7  9  1  0  0  0  0
 33 34  1  0  0  0  0
 33 35  1  0  0  0  0
 33 36  1  0  0  0  0
 31 32  1  0  0  0  0
 31 33  1  0  0  0  0
M  END
$$$$
default_name
  -OEChem-12212115393D

 36 37  0     1  0  0  0  0  0999 V2000
   -4.0843   -4.0736    1.2944 H   0  0  0  0  0  0  0  0  0  0  0  0
   -4.0342   -3.2816    0.5484 C   0  0  0  0  0  0  0  0  0  0  0  0
   -4.8842   -2.6126    0.6694 H   0  0  0  0  0  0  0  0  0  0  0  0
   -4.0433   -3.7186   -0.4486 H   0  0  0  0  0  0  0  0  0  0  0  0
   -2.7532   -2.5046    0.7444 C   0  0  0  0  0  0  0  0  0  0  0  0
   -1.9803   -2.8096    1.6434 O   0  0  0  0  0  0  0  0  0  0  0  0
   -2.5332   -1.4966   -0.0966 N   0  0  0  0  0  0  0  0  0  0  0  0
   -3.2312   -1.2816   -0.7936 H   0  0  0  0  0  0  0  0  0  0  0  0
   -1.3593   -0.6196   -0.0536 C   0  0  1  0  0  0  0  0  0  0  0  0
   -1.4861    0.0941    0.7613 H   0  0  0  0  0  0  0  0  0  0  0  0
   -0.1038   -1.4579    0.2343 C   0  0  0  0  0  0  0  0  0  0  0  0
    0.7591   -0.7917    0.2882 H   0  0  0  0  0  0  0  0  0  0  0  0
   -0.2180   -1.9299    1.2116 H   0  0  0  0  0  0  0  0  0  0  0  0
    0.1960   -2.5236   -0.7758 C   0  0  0  0  0  0  0  0  0  0  0  0
    0.9303   -2.3587   -1.8989 C   0  0  0  0  0  0  0  0  0  0  0  0
    1.3768   -1.4214   -2.2122 H   0  0  0  0  0  0  0  0  0  0  0  0
    1.0371   -3.5640   -2.5648 N   0  0  0  0  0  0  0  0  0  0  0  0
    1.5390   -3.6779   -3.4333 H   0  0  0  0  0  0  0  0  0  0  0  0
    0.3866   -4.5756   -1.8908 C   0  0  0  0  0  0  0  0  0  0  0  0
    0.2340   -5.9476   -2.1375 C   0  0  0  0  0  0  0  0  0  0  0  0
    0.6760   -6.3987   -3.0137 H   0  0  0  0  0  0  0  0  0  0  0  0
   -0.5037   -6.7266   -1.2298 C   0  0  0  0  0  0  0  0  0  0  0  0
   -0.6329   -7.7862   -1.4043 H   0  0  0  0  0  0  0  0  0  0  0  0
   -1.0800   -6.1246   -0.0963 C   0  0  0  0  0  0  0  0  0  0  0  0
   -1.6538   -6.7262    0.5951 H   0  0  0  0  0  0  0  0  0  0  0  0
   -0.9218   -4.7444    0.1406 C   0  0  0  0  0  0  0  0  0  0  0  0
   -1.3810   -4.2921    1.0081 H   0  0  0  0  0  0  0  0  0  0  0  0
   -0.1815   -3.9357   -0.7488 C   0  0  0  0  0  0  0  0  0  0  0  0
   -1.2194    0.1851   -1.3551 C   0  0  0  0  0  0  0  0  0  0  0  0
   -0.4726    1.1617   -1.4022 O   0  0  0  0  0  0  0  0  0  0  0  0
   -1.9385   -0.2235   -2.4092 N   0  0  0  0  0  0  0  0  0  0  0  0
   -2.5686   -1.0010   -2.2725 H   0  0  0  0  0  0  0  0  0  0  0  0
   -1.9206    0.4253   -3.7172 C   0  0  0  0  0  0  0  0  0  0  0  0
   -0.8899    0.5339   -4.0602 H   0  0  0  0  0  0  0  0  0  0  0  0
   -2.4807   -0.1700   -4.4394 H   0  0  0  0  0  0  0  0  0  0  0  0
   -2.3700    1.4167   -3.6399 H   0  0  0  0  0  0  0  0  0  0  0  0
  5  6  2  0  0  0  0
  5  7  1  0  0  0  0
  2  3  1  0  0  0  0
  2  4  1  0  0  0  0
  2  5  1  0  0  0  0
  1  2  1  0  0  0  0
 29 30  2  0  0  0  0
 29 31  1  0  0  0  0
 26 27  1  0  0  0  0
 26 28  2  0  0  0  0
 24 25  1  0  0  0  0
 24 26  1  0  0  0  0
 22 23  1  0  0  0  0
 22 24  2  0  0  0  0
 20 21  1  0  0  0  0
 20 22  1  0  0  0  0
 19 20  2  0  0  0  0
 19 28  1  0  0  0  0
 17 18  1  0  0  0  0
 17 19  1  0  0  0  0
 15 16  1  0  0  0  0
 15 17  1  0  0  0  0
 14 15  2  0  0  0  0
 14 28  1  0  0  0  0
 11 12  1  0  0  0  0
 11 13  1  0  0  0  0
 11 14  1  0  0  0  0
  9 10  1  0  0  0  0
  9 11  1  0  0  0  0
  9 29  1  0  0  0  0
  7  8  1  0  0  0  0
  7  9  1  0  0  0  0
 33 34  1  0  0  0  0
 33 35  1  0  0  0  0
 33 36  1  0  0  0  0
 31 32  1  0  0  0  0
 31 33  1  0  0  0  0
M  END
$$$$
default_name
  -OEChem-12212115393D

 36 37  0     1  0  0  0  0  0999 V2000
   -4.0843   -4.0736    1.2944 H   0  0  0  0  0  0  0  0  0  0  0  0
   -4.0342   -3.2816    0.5484 C   0  0  0  0  0  0  0  0  0  0  0  0
   -4.8842   -2.6126    0.6694 H   0  0  0  0  0  0  0  0  0  0  0  0
   -4.0433   -3.7186   -0.4486 H   0  0  0  0  0  0  0  0  0  0  0  0
   -2.7532   -2.5046    0.7444 C   0  0  0  0  0  0  0  0  0  0  0  0
   -1.9803   -2.8096    1.6434 O   0  0  0  0  0  0  0  0  0  0  0  0
   -2.5332   -1.4966   -0.0966 N   0  0  0  0  0  0  0  0  0  0  0  0
   -3.2312   -1.2816   -0.7936 H   0  0  0  0  0  0  0  0  0  0  0  0
   -1.3593   -0.6196   -0.0536 C   0  0  1  0  0  0  0  0  0  0  0  0
   -1.4861    0.0941    0.7613 H   0  0  0  0  0  0  0  0  0  0  0  0
   -0.1038   -1.4579    0.2343 C   0  0  0  0  0  0  0  0  0  0  0  0
    0.7591   -0.7917    0.2882 H   0  0  0  0  0  0  0  0  0  0  0  0
   -0.2180   -1.9299    1.2116 H   0  0  0  0  0  0  0  0  0  0  0  0
    0.1960   -2.5236   -0.7758 C   0  0  0  0  0  0  0  0  0  0  0  0
    0.9303   -2.3587   -1.8989 C   0  0  0  0  0  0  0  0  0  0  0  0
    1.3768   -1.4214   -2.2122 H   0  0  0  0  0  0  0  0  0  0  0  0
    1.0371   -3.5640   -2.5648 N   0  0  0  0  0  0  0  0  0  0  0  0
    1.5390   -3.6779   -3.4333 H   0  0  0  0  0  0  0  0  0  0  0  0
    0.3866   -4.5756   -1.8908 C   0  0  0  0  0  0  0  0  0  0  0  0
    0.2340   -5.9476   -2.1375 C   0  0  0  0  0  0  0  0  0  0  0  0
    0.6760   -6.3987   -3.0137 H   0  0  0  0  0  0  0  0  0  0  0  0
   -0.5037   -6.7266   -1.2298 C   0  0  0  0  0  0  0  0  0  0  0  0
   -0.6329   -7.7862   -1.4043 H   0  0  0  0  0  0  0  0  0  0  0  0
   -1.0800   -6.1246   -0.0963 C   0  0  0  0  0  0  0  0  0  0  0  0
   -1.6538   -6.7262    0.5951 H   0  0  0  0  0  0  0  0  0  0  0  0
   -0.9218   -4.7444    0.1406 C   0  0  0  0  0  0  0  0  0  0  0  0
   -1.3810   -4.2921    1.0081 H   0  0  0  0  0  0  0  0  0  0  0  0
   -0.1815   -3.9357   -0.7488 C   0  0  0  0  0  0  0  0  0  0  0  0
   -1.2194    0.1851   -1.3551 C   0  0  0  0  0  0  0  0  0  0  0  0
   -0.2884    0.9769   -1.4966 O   0  0  0  0  0  0  0  0  0  0  0  0
   -2.1445   -0.0161   -2.3031 N   0  0  0  0  0  0  0  0  0  0  0  0
   -2.9069   -0.6426   -2.0873 H   0  0  0  0  0  0  0  0  0  0  0  0
   -2.1578    0.6633   -3.5956 C   0  0  0  0  0  0  0  0  0  0  0  0
   -1.1836    0.5583   -4.0767 H   0  0  0  0  0  0  0  0  0  0  0  0
   -2.9265    0.2326   -4.2384 H   0  0  0  0  0  0  0  0  0  0  0  0
   -2.3629    1.7250   -3.4485 H   0  0  0  0  0  0  0  0  0  0  0  0
  5  6  2  0  0  0  0
  5  7  1  0  0  0  0
  2  3  1  0  0  0  0
  2  4  1  0  0  0  0
  2  5  1  0  0  0  0
  1  2  1  0  0  0  0
 29 30  2  0  0  0  0
 29 31  1  0  0  0  0
 26 27  1  0  0  0  0
 26 28  2  0  0  0  0
 24 25  1  0  0  0  0
 24 26  1  0  0  0  0
 22 23  1  0  0  0  0
 22 24  2  0  0  0  0
 20 21  1  0  0  0  0
 20 22  1  0  0  0  0
 19 20  2  0  0  0  0
 19 28  1  0  0  0  0
 17 18  1  0  0  0  0
 17 19  1  0  0  0  0
 15 16  1  0  0  0  0
 15 17  1  0  0  0  0
 14 15  2  0  0  0  0
 14 28  1  0  0  0  0
 11 12  1  0  0  0  0
 11 13  1  0  0  0  0
 11 14  1  0  0  0  0
  9 10  1  0  0  0  0
  9 11  1  0  0  0  0
  9 29  1  0  0  0  0
  7  8  1  0  0  0  0
  7  9  1  0  0  0  0
 33 34  1  0  0  0  0
 33 35  1  0  0  0  0
 33 36  1  0  0  0  0
 31 32  1  0  0  0  0
 31 33  1  0  0  0  0
M  END
$$$$
default_name
  -OEChem-12212115393D

 36 37  0     1  0  0  0  0  0999 V2000
   -4.0843   -4.0736    1.2944 H   0  0  0  0  0  0  0  0  0  0  0  0
   -4.0342   -3.2816    0.5484 C   0  0  0  0  0  0  0  0  0  0  0  0
   -4.8842   -2.6126    0.6694 H   0  0  0  0  0  0  0  0  0  0  0  0
   -4.0433   -3.7186   -0.4486 H   0  0  0  0  0  0  0  0  0  0  0  0
   -2.7532   -2.5046    0.7444 C   0  0  0  0  0  0  0  0  0  0  0  0
   -1.9803   -2.8096    1.6434 O   0  0  0  0  0  0  0  0  0  0  0  0
   -2.5332   -1.4966   -0.0966 N   0  0  0  0  0  0  0  0  0  0  0  0
   -3.2312   -1.2816   -0.7936 H   0  0  0  0  0  0  0  0  0  0  0  0
   -1.3593   -0.6196   -0.0536 C   0  0  1  0  0  0  0  0  0  0  0  0
   -1.4861    0.0941    0.7613 H   0  0  0  0  0  0  0  0  0  0  0  0
   -0.1038   -1.4579    0.2343 C   0  0  0  0  0  0  0  0  0  0  0  0
    0.7591   -0.7917    0.2882 H   0  0  0  0  0  0  0  0  0  0  0  0
   -0.2180   -1.9299    1.2116 H   0  0  0  0  0  0  0  0  0  0  0  0
    0.1960   -2.5236   -0.7758 C   0  0  0  0  0  0  0  0  0  0  0  0
    0.9303   -2.3587   -1.8989 C   0  0  0  0  0  0  0  0  0  0  0  0
    1.3768   -1.4214   -2.2122 H   0  0  0  0  0  0  0  0  0  0  0  0
    1.0371   -3.5640   -2.5648 N   0  0  0  0  0  0  0  0  0  0  0  0
    1.5390   -3.6779   -3.4333 H   0  0  0  0  0  0  0  0  0  0  0  0
    0.3866   -4.5756   -1.8908 C   0  0  0  0  0  0  0  0  0  0  0  0
    0.2340   -5.9476   -2.1375 C   0  0  0  0  0  0  0  0  0  0  0  0
    0.6760   -6.3987   -3.0137 H   0  0  0  0  0  0  0  0  0  0  0  0
   -0.5037   -6.7266   -1.2298 C   0  0  0  0  0  0  0  0  0  0  0  0
   -0.6329   -7.7862   -1.4043 H   0  0  0  0  0  0  0  0  0  0  0  0
   -1.0800   -6.1246   -0.0963 C   0  0  0  0  0  0  0  0  0  0  0  0
   -1.6538   -6.7262    0.5951 H   0  0  0  0  0  0  0  0  0  0  0  0
   -0.9218   -4.7444    0.1406 C   0  0  0  0  0  0  0  0  0  0  0  0
   -1.3810   -4.2921    1.0081 H   0  0  0  0  0  0  0  0  0  0  0  0
   -0.1815   -3.9357   -0.7488 C   0  0  0  0  0  0  0  0  0  0  0  0
   -1.2194    0.1851   -1.3551 C   0  0  0  0  0  0  0  0  0  0  0  0
   -0.1638    0.7602   -1.6172 O   0  0  0  0  0  0  0  0  0  0  0  0
   -2.2837    0.2268   -2.1678 N   0  0  0  0  0  0  0  0  0  0  0  0
   -3.1300   -0.2267   -1.8540 H   0  0  0  0  0  0  0  0  0  0  0  0
   -2.3183    0.9424   -3.4403 C   0  0  0  0  0  0  0  0  0  0  0  0
   -1.4641    0.6465   -4.0523 H   0  0  0  0  0  0  0  0  0  0  0  0
   -3.2416    0.7144   -3.9744 H   0  0  0  0  0  0  0  0  0  0  0  0
   -2.2624    2.0168   -3.2574 H   0  0  0  0  0  0  0  0  0  0  0  0
  5  6  2  0  0  0  0
  5  7  1  0  0  0  0
  2  3  1  0  0  0  0
  2  4  1  0  0  0  0
  2  5  1  0  0  0  0
  1  2  1  0  0  0  0
 29 30  2  0  0  0  0
 29 31  1  0  0  0  0
 26 27  1  0  0  0  0
 26 28  2  0  0  0  0
 24 25  1  0  0  0  0
 24 26  1  0  0  0  0
 22 23  1  0  0  0  0
 22 24  2  0  0  0  0
 20 21  1  0  0  0  0
 20 22  1  0  0  0  0
 19 20  2  0  0  0  0
 19 28  1  0  0  0  0
 17 18  1  0  0  0  0
 17 19  1  0  0  0  0
 15 16  1  0  0  0  0
 15 17  1  0  0  0  0
 14 15  2  0  0  0  0
 14 28  1  0  0  0  0
 11 12  1  0  0  0  0
 11 13  1  0  0  0  0
 11 14  1  0  0  0  0
  9 10  1  0  0  0  0
  9 11  1  0  0  0  0
  9 29  1  0  0  0  0
  7  8  1  0  0  0  0
  7  9  1  0  0  0  0
 33 34  1  0  0  0  0
 33 35  1  0  0  0  0
 33 36  1  0  0  0  0
 31 32  1  0  0  0  0
 31 33  1  0  0  0  0
M  END
$$$$
default_name
  -OEChem-12212115393D

 36 37  0     1  0  0  0  0  0999 V2000
   -4.0843   -4.0736    1.2944 H   0  0  0  0  0  0  0  0  0  0  0  0
   -4.0342   -3.2816    0.5484 C   0  0  0  0  0  0  0  0  0  0  0  0
   -4.8842   -2.6126    0.6694 H   0  0  0  0  0  0  0  0  0  0  0  0
   -4.0433   -3.7186   -0.4486 H   0  0  0  0  0  0  0  0  0  0  0  0
   -2.7532   -2.5046    0.7444 C   0  0  0  0  0  0  0  0  0  0  0  0
   -1.9803   -2.8096    1.6434 O   0  0  0  0  0  0  0  0  0  0  0  0
   -2.5332   -1.4966   -0.0966 N   0  0  0  0  0  0  0  0  0  0  0  0
   -3.2312   -1.2816   -0.7936 H   0  0  0  0  0  0  0  0  0  0  0  0
   -1.3593   -0.6196   -0.0536 C   0  0  1  0  0  0  0  0  0  0  0  0
   -1.4861    0.0941    0.7613 H   0  0  0  0  0  0  0  0  0  0  0  0
   -0.1038   -1.4579    0.2343 C   0  0  0  0  0  0  0  0  0  0  0  0
    0.7591   -0.7917    0.2882 H   0  0  0  0  0  0  0  0  0  0  0  0
   -0.2180   -1.9299    1.2116 H   0  0  0  0  0  0  0  0  0  0  0  0
    0.1960   -2.5236   -0.7758 C   0  0  0  0  0  0  0  0  0  0  0  0
    0.9303   -2.3587   -1.8989 C   0  0  0  0  0  0  0  0  0  0  0  0
    1.3768   -1.4214   -2.2122 H   0  0  0  0  0  0  0  0  0  0  0  0
    1.0371   -3.5640   -2.5648 N   0  0  0  0  0  0  0  0  0  0  0  0
    1.5390   -3.6779   -3.4333 H   0  0  0  0  0  0  0  0  0  0  0  0
    0.3866   -4.5756   -1.8908 C   0  0  0  0  0  0  0  0  0  0  0  0
    0.2340   -5.9476   -2.1375 C   0  0  0  0  0  0  0  0  0  0  0  0
    0.6760   -6.3987   -3.0137 H   0  0  0  0  0  0  0  0  0  0  0  0
   -0.5037   -6.7266   -1.2298 C   0  0  0  0  0  0  0  0  0  0  0  0
   -0.6329   -7.7862   -1.4043 H   0  0  0  0  0  0  0  0  0  0  0  0
   -1.0800   -6.1246   -0.0963 C   0  0  0  0  0  0  0  0  0  0  0  0
   -1.6538   -6.7262    0.5951 H   0  0  0  0  0  0  0  0  0  0  0  0
   -0.9218   -4.7444    0.1406 C   0  0  0  0  0  0  0  0  0  0  0  0
   -1.3810   -4.2921    1.0081 H   0  0  0  0  0  0  0  0  0  0  0  0
   -0.1815   -3.9357   -0.7488 C   0  0  0  0  0  0  0  0  0  0  0  0
   -1.2194    0.1851   -1.3551 C   0  0  0  0  0  0  0  0  0  0  0  0
   -0.1073    0.5264   -1.7557 O   0  0  0  0  0  0  0  0  0  0  0  0
   -2.3466    0.4888   -2.0126 N   0  0  0  0  0  0  0  0  0  0  0  0
   -3.2227    0.2186   -1.5887 H   0  0  0  0  0  0  0  0  0  0  0  0
   -2.3911    1.2434   -3.2620 C   0  0  0  0  0  0  0  0  0  0  0  0
   -1.7125    0.7927   -3.9886 H   0  0  0  0  0  0  0  0  0  0  0  0
   -3.4045    1.2426   -3.6653 H   0  0  0  0  0  0  0  0  0  0  0  0
   -2.0755    2.2720   -3.0794 H   0  0  0  0  0  0  0  0  0  0  0  0
  5  6  2  0  0  0  0
  5  7  1  0  0  0  0
  2  3  1  0  0  0  0
  2  4  1  0  0  0  0
  2  5  1  0  0  0  0
  1  2  1  0  0  0  0
 29 30  2  0  0  0  0
 29 31  1  0  0  0  0
 26 27  1  0  0  0  0
 26 28  2  0  0  0  0
 24 25  1  0  0  0  0
 24 26  1  0  0  0  0
 22 23  1  0  0  0  0
 22 24  2  0  0  0  0
 20 21  1  0  0  0  0
 20 22  1  0  0  0  0
 19 20  2  0  0  0  0
 19 28  1  0  0  0  0
 17 18  1  0  0  0  0
 17 19  1  0  0  0  0
 15 16  1  0  0  0  0
 15 17  1  0  0  0  0
 14 15  2  0  0  0  0
 14 28  1  0  0  0  0
 11 12  1  0  0  0  0
 11 13  1  0  0  0  0
 11 14  1  0  0  0  0
  9 10  1  0  0  0  0
  9 11  1  0  0  0  0
  9 29  1  0  0  0  0
  7  8  1  0  0  0  0
  7  9  1  0  0  0  0
 33 34  1  0  0  0  0
 33 35  1  0  0  0  0
 33 36  1  0  0  0  0
 31 32  1  0  0  0  0
 31 33  1  0  0  0  0
M  END
$$$$
default_name
  -OEChem-12212115393D

 36 37  0     1  0  0  0  0  0999 V2000
   -4.0843   -4.0736    1.2944 H   0  0  0  0  0  0  0  0  0  0  0  0
   -4.0342   -3.2816    0.5484 C   0  0  0  0  0  0  0  0  0  0  0  0
   -4.8842   -2.6126    0.6694 H   0  0  0  0  0  0  0  0  0  0  0  0
   -4.0433   -3.7186   -0.4486 H   0  0  0  0  0  0  0  0  0  0  0  0
   -2.7532   -2.5046    0.7444 C   0  0  0  0  0  0  0  0  0  0  0  0
   -1.9803   -2.8096    1.6434 O   0  0  0  0  0  0  0  0  0  0  0  0
   -2.5332   -1.4966   -0.0966 N   0  0  0  0  0  0  0  0  0  0  0  0
   -3.2312   -1.2816   -0.7936 H   0  0  0  0  0  0  0  0  0  0  0  0
   -1.3593   -0.6196   -0.0536 C   0  0  1  0  0  0  0  0  0  0  0  0
   -1.4861    0.0941    0.7613 H   0  0  0  0  0  0  0  0  0  0  0  0
   -0.1038   -1.4579    0.2343 C   0  0  0  0  0  0  0  0  0  0  0  0
    0.7591   -0.7917    0.2882 H   0  0  0  0  0  0  0  0  0  0  0  0
   -0.2180   -1.9299    1.2116 H   0  0  0  0  0  0  0  0  0  0  0  0
    0.1960   -2.5236   -0.7758 C   0  0  0  0  0  0  0  0  0  0  0  0
    0.9303   -2.3587   -1.8989 C   0  0  0  0  0  0  0  0  0  0  0  0
    1.3768   -1.4214   -2.2122 H   0  0  0  0  0  0  0  0  0  0  0  0
    1.0371   -3.5640   -2.5648 N   0  0  0  0  0  0  0  0  0  0  0  0
    1.5390   -3.6779   -3.4333 H   0  0  0  0  0  0  0  0  0  0  0  0
    0.3866   -4.5756   -1.8908 C   0  0  0  0  0  0  0  0  0  0  0  0
    0.2340   -5.9476   -2.1375 C   0  0  0  0  0  0  0  0  0  0  0  0
    0.6760   -6.3987   -3.0137 H   0  0  0  0  0  0  0  0  0  0  0  0
   -0.5037   -6.7266   -1.2298 C   0  0  0  0  0  0  0  0  0  0  0  0
   -0.6329   -7.7862   -1.4043 H   0  0  0  0  0  0  0  0  0  0  0  0
   -1.0800   -6.1246   -0.0963 C   0  0  0  0  0  0  0  0  0  0  0  0
   -1.6538   -6.7262    0.5951 H   0  0  0  0  0  0  0  0  0  0  0  0
   -0.9218   -4.7444    0.1406 C   0  0  0  0  0  0  0  0  0  0  0  0
   -1.3810   -4.2921    1.0081 H   0  0  0  0  0  0  0  0  0  0  0  0
   -0.1815   -3.9357   -0.7488 C   0  0  0  0  0  0  0  0  0  0  0  0
   -1.2194    0.1851   -1.3551 C   0  0  0  0  0  0  0  0  0  0  0  0
   -0.1228    0.2915   -1.9026 O   0  0  0  0  0  0  0  0  0  0  0  0
   -2.3288    0.7520   -1.8479 N   0  0  0  0  0  0  0  0  0  0  0  0
   -3.1786    0.6627   -1.3094 H   0  0  0  0  0  0  0  0  0  0  0  0
   -2.3712    1.5460   -3.0727 C   0  0  0  0  0  0  0  0  0  0  0  0
   -1.9117    0.9868   -3.8900 H   0  0  0  0  0  0  0  0  0  0  0  0
   -3.4042    1.7813   -3.3322 H   0  0  0  0  0  0  0  0  0  0  0  0
   -1.8149    2.4734   -2.9269 H   0  0  0  0  0  0  0  0  0  0  0  0
  5  6  2  0  0  0  0
  5  7  1  0  0  0  0
  2  3  1  0  0  0  0
  2  4  1  0  0  0  0
  2  5  1  0  0  0  0
  1  2  1  0  0  0  0
 29 30  2  0  0  0  0
 29 31  1  0  0  0  0
 26 27  1  0  0  0  0
 26 28  2  0  0  0  0
 24 25  1  0  0  0  0
 24 26  1  0  0  0  0
 22 23  1  0  0  0  0
 22 24  2  0  0  0  0
 20 21  1  0  0  0  0
 20 22  1  0  0  0  0
 19 20  2  0  0  0  0
 19 28  1  0  0  0  0
 17 18  1  0  0  0  0
 17 19  1  0  0  0  0
 15 16  1  0  0  0  0
 15 17  1  0  0  0  0
 14 15  2  0  0  0  0
 14 28  1  0  0  0  0
 11 12  1  0  0  0  0
 11 13  1  0  0  0  0
 11 14  1  0  0  0  0
  9 10  1  0  0  0  0
  9 11  1  0  0  0  0
  9 29  1  0  0  0  0
  7  8  1  0  0  0  0
  7  9  1  0  0  0  0
 33 34  1  0  0  0  0
 33 35  1  0  0  0  0
 33 36  1  0  0  0  0
 31 32  1  0  0  0  0
 31 33  1  0  0  0  0
M  END
$$$$
default_name
  -OEChem-12212115393D

 36 37  0     1  0  0  0  0  0999 V2000
   -4.0843   -4.0736    1.2944 H   0  0  0  0  0  0  0  0  0  0  0  0
   -4.0342   -3.2816    0.5484 C   0  0  0  0  0  0  0  0  0  0  0  0
   -4.8842   -2.6126    0.6694 H   0  0  0  0  0  0  0  0  0  0  0  0
   -4.0433   -3.7186   -0.4486 H   0  0  0  0  0  0  0  0  0  0  0  0
   -2.7532   -2.5046    0.7444 C   0  0  0  0  0  0  0  0  0  0  0  0
   -1.9803   -2.8096    1.6434 O   0  0  0  0  0  0  0  0  0  0  0  0
   -2.5332   -1.4966   -0.0966 N   0  0  0  0  0  0  0  0  0  0  0  0
   -3.2312   -1.2816   -0.7936 H   0  0  0  0  0  0  0  0  0  0  0  0
   -1.3593   -0.6196   -0.0536 C   0  0  1  0  0  0  0  0  0  0  0  0
   -1.4861    0.0941    0.7613 H   0  0  0  0  0  0  0  0  0  0  0  0
   -0.1038   -1.4579    0.2343 C   0  0  0  0  0  0  0  0  0  0  0  0
    0.7591   -0.7917    0.2882 H   0  0  0  0  0  0  0  0  0  0  0  0
   -0.2180   -1.9299    1.2116 H   0  0  0  0  0  0  0  0  0  0  0  0
    0.1960   -2.5236   -0.7758 C   0  0  0  0  0  0  0  0  0  0  0  0
    0.9303   -2.3587   -1.8989 C   0  0  0  0  0  0  0  0  0  0  0  0
    1.3768   -1.4214   -2.2122 H   0  0  0  0  0  0  0  0  0  0  0  0
    1.0371   -3.5640   -2.5648 N   0  0  0  0  0  0  0  0  0  0  0  0
    1.5390   -3.6779   -3.4333 H   0  0  0  0  0  0  0  0  0  0  0  0
    0.3866   -4.5756   -1.8908 C   0  0  0  0  0  0  0  0  0  0  0  0
    0.2340   -5.9476   -2.1375 C   0  0  0  0  0  0  0  0  0  0  0  0
    0.6760   -6.3987   -3.0137 H   0  0  0  0  0  0  0  0  0  0  0  0
   -0.5037   -6.7266   -1.2298 C   0  0  0  0  0  0  0  0  0  0  0  0
   -0.6329   -7.7862   -1.4043 H   0  0  0  0  0  0  0  0  0  0  0  0
   -1.0800   -6.1246   -0.0963 C   0  0  0  0  0  0  0  0  0  0  0  0
   -1.6538   -6.7262    0.5951 H   0  0  0  0  0  0  0  0  0  0  0  0
   -0.9218   -4.7444    0.1406 C   0  0  0  0  0  0  0  0  0  0  0  0
   -1.3810   -4.2921    1.0081 H   0  0  0  0  0  0  0  0  0  0  0  0
   -0.1815   -3.9357   -0.7488 C   0  0  0  0  0  0  0  0  0  0  0  0
   -1.2194    0.1851   -1.3551 C   0  0  0  0  0  0  0  0  0  0  0  0
   -0.2091    0.0714   -2.0480 O   0  0  0  0  0  0  0  0  0  0  0  0
   -2.2316    0.9985   -1.6851 N   0  0  0  0  0  0  0  0  0  0  0  0
   -3.0009    1.0754   -1.0350 H   0  0  0  0  0  0  0  0  0  0  0  0
   -2.2601    1.8294   -2.8856 C   0  0  0  0  0  0  0  0  0  0  0  0
   -2.0482    1.2157   -3.7632 H   0  0  0  0  0  0  0  0  0  0  0  0
   -3.2407    2.2937   -2.9977 H   0  0  0  0  0  0  0  0  0  0  0  0
   -1.4983    2.6072   -2.8102 H   0  0  0  0  0  0  0  0  0  0  0  0
  5  6  2  0  0  0  0
  5  7  1  0  0  0  0
  2  3  1  0  0  0  0
  2  4  1  0  0  0  0
  2  5  1  0  0  0  0
  1  2  1  0  0  0  0
 29 30  2  0  0  0  0
 29 31  1  0  0  0  0
 26 27  1  0  0  0  0
 26 28  2  0  0  0  0
 24 25  1  0  0  0  0
 24 26  1  0  0  0  0
 22 23  1  0  0  0  0
 22 24  2  0  0  0  0
 20 21  1  0  0  0  0
 20 22  1  0  0  0  0
 19 20  2  0  0  0  0
 19 28  1  0  0  0  0
 17 18  1  0  0  0  0
 17 19  1  0  0  0  0
 15 16  1  0  0  0  0
 15 17  1  0  0  0  0
 14 15  2  0  0  0  0
 14 28  1  0  0  0  0
 11 12  1  0  0  0  0
 11 13  1  0  0  0  0
 11 14  1  0  0  0  0
  9 10  1  0  0  0  0
  9 11  1  0  0  0  0
  9 29  1  0  0  0  0
  7  8  1  0  0  0  0
  7  9  1  0  0  0  0
 33 34  1  0  0  0  0
 33 35  1  0  0  0  0
 33 36  1  0  0  0  0
 31 32  1  0  0  0  0
 31 33  1  0  0  0  0
M  END
$$$$
default_name
  -OEChem-12212115393D

 36 37  0     1  0  0  0  0  0999 V2000
   -4.0843   -4.0736    1.2944 H   0  0  0  0  0  0  0  0  0  0  0  0
   -4.0342   -3.2816    0.5484 C   0  0  0  0  0  0  0  0  0  0  0  0
   -4.8842   -2.6126    0.6694 H   0  0  0  0  0  0  0  0  0  0  0  0
   -4.0433   -3.7186   -0.4486 H   0  0  0  0  0  0  0  0  0  0  0  0
   -2.7532   -2.5046    0.7444 C   0  0  0  0  0  0  0  0  0  0  0  0
   -1.9803   -2.8096    1.6434 O   0  0  0  0  0  0  0  0  0  0  0  0
   -2.5332   -1.4966   -0.0966 N   0  0  0  0  0  0  0  0  0  0  0  0
   -3.2312   -1.2816   -0.7936 H   0  0  0  0  0  0  0  0  0  0  0  0
   -1.3593   -0.6196   -0.0536 C   0  0  1  0  0  0  0  0  0  0  0  0
   -1.4861    0.0941    0.7613 H   0  0  0  0  0  0  0  0  0  0  0  0
   -0.1038   -1.4579    0.2343 C   0  0  0  0  0  0  0  0  0  0  0  0
    0.7591   -0.7917    0.2882 H   0  0  0  0  0  0  0  0  0  0  0  0
   -0.2180   -1.9299    1.2116 H   0  0  0  0  0  0  0  0  0  0  0  0
    0.1960   -2.5236   -0.7758 C   0  0  0  0  0  0  0  0  0  0  0  0
    0.9303   -2.3587   -1.8989 C   0  0  0  0  0  0  0  0  0  0  0  0
    1.3768   -1.4214   -2.2122 H   0  0  0  0  0  0  0  0  0  0  0  0
    1.0371   -3.5640   -2.5648 N   0  0  0  0  0  0  0  0  0  0  0  0
    1.5390   -3.6779   -3.4333 H   0  0  0  0  0  0  0  0  0  0  0  0
    0.3866   -4.5756   -1.8908 C   0  0  0  0  0  0  0  0  0  0  0  0
    0.2340   -5.9476   -2.1375 C   0  0  0  0  0  0  0  0  0  0  0  0
    0.6760   -6.3987   -3.0137 H   0  0  0  0  0  0  0  0  0  0  0  0
   -0.5037   -6.7266   -1.2298 C   0  0  0  0  0  0  0  0  0  0  0  0
   -0.6329   -7.7862   -1.4043 H   0  0  0  0  0  0  0  0  0  0  0  0
   -1.0800   -6.1246   -0.0963 C   0  0  0  0  0  0  0  0  0  0  0  0
   -1.6538   -6.7262    0.5951 H   0  0  0  0  0  0  0  0  0  0  0  0
   -0.9218   -4.7444    0.1406 C   0  0  0  0  0  0  0  0  0  0  0  0
   -1.3810   -4.2921    1.0081 H   0  0  0  0  0  0  0  0  0  0  0  0
   -0.1815   -3.9357   -0.7488 C   0  0  0  0  0  0  0  0  0  0  0  0
   -1.2194    0.1851   -1.3551 C   0  0  0  0  0  0  0  0  0  0  0  0
   -0.3605   -0.1188   -2.1819 O   0  0  0  0  0  0  0  0  0  0  0  0
   -2.0616    1.2114   -1.5352 N   0  0  0  0  0  0  0  0  0  0  0  0
   -2.7015    1.4287   -0.7844 H   0  0  0  0  0  0  0  0  0  0  0  0
   -2.0652    2.0744   -2.7131 C   0  0  0  0  0  0  0  0  0  0  0  0
   -2.1127    1.4637   -3.6167 H   0  0  0  0  0  0  0  0  0  0  0  0
   -2.9250    2.7450   -2.6848 H   0  0  0  0  0  0  0  0  0  0  0  0
   -1.1474    2.6643   -2.7371 H   0  0  0  0  0  0  0  0  0  0  0  0
  5  6  2  0  0  0  0
  5  7  1  0  0  0  0
  2  3  1  0  0  0  0
  2  4  1  0  0  0  0
  2  5  1  0  0  0  0
  1  2  1  0  0  0  0
 29 30  2  0  0  0  0
 29 31  1  0  0  0  0
 26 27  1  0  0  0  0
 26 28  2  0  0  0  0
 24 25  1  0  0  0  0
 24 26  1  0  0  0  0
 22 23  1  0  0  0  0
 22 24  2  0  0  0  0
 20 21  1  0  0  0  0
 20 22  1  0  0  0  0
 19 20  2  0  0  0  0
 19 28  1  0  0  0  0
 17 18  1  0  0  0  0
 17 19  1  0  0  0  0
 15 16  1  0  0  0  0
 15 17  1  0  0  0  0
 14 15  2  0  0  0  0
 14 28  1  0  0  0  0
 11 12  1  0  0  0  0
 11 13  1  0  0  0  0
 11 14  1  0  0  0  0
  9 10  1  0  0  0  0
  9 11  1  0  0  0  0
  9 29  1  0  0  0  0
  7  8  1  0  0  0  0
  7  9  1  0  0  0  0
 33 34  1  0  0  0  0
 33 35  1  0  0  0  0
 33 36  1  0  0  0  0
 31 32  1  0  0  0  0
 31 33  1  0  0  0  0
M  END
$$$$
default_name
  -OEChem-12212115393D

 36 37  0     1  0  0  0  0  0999 V2000
   -4.0843   -4.0736    1.2944 H   0  0  0  0  0  0  0  0  0  0  0  0
   -4.0342   -3.2816    0.5484 C   0  0  0  0  0  0  0  0  0  0  0  0
   -4.8842   -2.6126    0.6694 H   0  0  0  0  0  0  0  0  0  0  0  0
   -4.0433   -3.7186   -0.4486 H   0  0  0  0  0  0  0  0  0  0  0  0
   -2.7532   -2.5046    0.7444 C   0  0  0  0  0  0  0  0  0  0  0  0
   -1.9803   -2.8096    1.6434 O   0  0  0  0  0  0  0  0  0  0  0  0
   -2.5332   -1.4966   -0.0966 N   0  0  0  0  0  0  0  0  0  0  0  0
   -3.2312   -1.2816   -0.7936 H   0  0  0  0  0  0  0  0  0  0  0  0
   -1.3593   -0.6196   -0.0536 C   0  0  1  0  0  0  0  0  0  0  0  0
   -1.4861    0.0941    0.7613 H   0  0  0  0  0  0  0  0  0  0  0  0
   -0.1038   -1.4579    0.2343 C   0  0  0  0  0  0  0  0  0  0  0  0
    0.7591   -0.7917    0.2882 H   0  0  0  0  0  0  0  0  0  0  0  0
   -0.2180   -1.9299    1.2116 H   0  0  0  0  0  0  0  0  0  0  0  0
    0.1960   -2.5236   -0.7758 C   0  0  0  0  0  0  0  0  0  0  0  0
    0.9303   -2.3587   -1.8989 C   0  0  0  0  0  0  0  0  0  0  0  0
    1.3768   -1.4214   -2.2122 H   0  0  0  0  0  0  0  0  0  0  0  0
    1.0371   -3.5640   -2.5648 N   0  0  0  0  0  0  0  0  0  0  0  0
    1.5390   -3.6779   -3.4333 H   0  0  0  0  0  0  0  0  0  0  0  0
    0.3866   -4.5756   -1.8908 C   0  0  0  0  0  0  0  0  0  0  0  0
    0.2340   -5.9476   -2.1375 C   0  0  0  0  0  0  0  0  0  0  0  0
    0.6760   -6.3987   -3.0137 H   0  0  0  0  0  0  0  0  0  0  0  0
   -0.5037   -6.7266   -1.2298 C   0  0  0  0  0  0  0  0  0  0  0  0
   -0.6329   -7.7862   -1.4043 H   0  0  0  0  0  0  0  0  0  0  0  0
   -1.0800   -6.1246   -0.0963 C   0  0  0  0  0  0  0  0  0  0  0  0
   -1.6538   -6.7262    0.5951 H   0  0  0  0  0  0  0  0  0  0  0  0
   -0.9218   -4.7444    0.1406 C   0  0  0  0  0  0  0  0  0  0  0  0
   -1.3810   -4.2921    1.0081 H   0  0  0  0  0  0  0  0  0  0  0  0
   -0.1815   -3.9357   -0.7488 C   0  0  0  0  0  0  0  0  0  0  0  0
   -1.2194    0.1851   -1.3551 C   0  0  0  0  0  0  0  0  0  0  0  0
   -0.5665   -0.2662   -2.2952 O   0  0  0  0  0  0  0  0  0  0  0  0
   -1.8304    1.3763   -1.4084 N   0  0  0  0  0  0  0  0  0  0  0  0
   -2.3009    1.6984   -0.5746 H   0  0  0  0  0  0  0  0  0  0  0  0
   -1.7999    2.2643   -2.5672 C   0  0  0  0  0  0  0  0  0  0  0  0
   -2.1007    1.7140   -3.4607 H   0  0  0  0  0  0  0  0  0  0  0  0
   -2.4788    3.1043   -2.4147 H   0  0  0  0  0  0  0  0  0  0  0  0
   -0.7860    2.6408   -2.7128 H   0  0  0  0  0  0  0  0  0  0  0  0
  5  6  2  0  0  0  0
  5  7  1  0  0  0  0
  2  3  1  0  0  0  0
  2  4  1  0  0  0  0
  2  5  1  0  0  0  0
  1  2  1  0  0  0  0
 29 30  2  0  0  0  0
 29 31  1  0  0  0  0
 26 27  1  0  0  0  0
 26 28  2  0  0  0  0
 24 25  1  0  0  0  0
 24 26  1  0  0  0  0
 22 23  1  0  0  0  0
 22 24  2  0  0  0  0
 20 21  1  0  0  0  0
 20 22  1  0  0  0  0
 19 20  2  0  0  0  0
 19 28  1  0  0  0  0
 17 18  1  0  0  0  0
 17 19  1  0  0  0  0
 15 16  1  0  0  0  0
 15 17  1  0  0  0  0
 14 15  2  0  0  0  0
 14 28  1  0  0  0  0
 11 12  1  0  0  0  0
 11 13  1  0  0  0  0
 11 14  1  0  0  0  0
  9 10  1  0  0  0  0
  9 11  1  0  0  0  0
  9 29  1  0  0  0  0
  7  8  1  0  0  0  0
  7  9  1  0  0  0  0
 33 34  1  0  0  0  0
 33 35  1  0  0  0  0
 33 36  1  0  0  0  0
 31 32  1  0  0  0  0
 31 33  1  0  0  0  0
M  END
$$$$
default_name
  -OEChem-12212115393D

 36 37  0     1  0  0  0  0  0999 V2000
   -4.0843   -4.0736    1.2944 H   0  0  0  0  0  0  0  0  0  0  0  0
   -4.0342   -3.2816    0.5484 C   0  0  0  0  0  0  0  0  0  0  0  0
   -4.8842   -2.6126    0.6694 H   0  0  0  0  0  0  0  0  0  0  0  0
   -4.0433   -3.7186   -0.4486 H   0  0  0  0  0  0  0  0  0  0  0  0
   -2.7532   -2.5046    0.7444 C   0  0  0  0  0  0  0  0  0  0  0  0
   -1.9803   -2.8096    1.6434 O   0  0  0  0  0  0  0  0  0  0  0  0
   -2.5332   -1.4966   -0.0966 N   0  0  0  0  0  0  0  0  0  0  0  0
   -3.2312   -1.2816   -0.7936 H   0  0  0  0  0  0  0  0  0  0  0  0
   -1.3593   -0.6196   -0.0536 C   0  0  1  0  0  0  0  0  0  0  0  0
   -1.4861    0.0941    0.7613 H   0  0  0  0  0  0  0  0  0  0  0  0
   -0.1038   -1.4579    0.2343 C   0  0  0  0  0  0  0  0  0  0  0  0
    0.7591   -0.7917    0.2882 H   0  0  0  0  0  0  0  0  0  0  0  0
   -0.2180   -1.9299    1.2116 H   0  0  0  0  0  0  0  0  0  0  0  0
    0.1960   -2.5236   -0.7758 C   0  0  0  0  0  0  0  0  0  0  0  0
    0.9303   -2.3587   -1.8989 C   0  0  0  0  0  0  0  0  0  0  0  0
    1.3768   -1.4214   -2.2122 H   0  0  0  0  0  0  0  0  0  0  0  0
    1.0371   -3.5640   -2.5648 N   0  0  0  0  0  0  0  0  0  0  0  0
    1.5390   -3.6779   -3.4333 H   0  0  0  0  0  0  0  0  0  0  0  0
    0.3866   -4.5756   -1.8908 C   0  0  0  0  0  0  0  0  0  0  0  0
    0.2340   -5.9476   -2.1375 C   0  0  0  0  0  0  0  0  0  0  0  0
    0.6760   -6.3987   -3.0137 H   0  0  0  0  0  0  0  0  0  0  0  0
   -0.5037   -6.7266   -1.2298 C   0  0  0  0  0  0  0  0  0  0  0  0
   -0.6329   -7.7862   -1.4043 H   0  0  0  0  0  0  0  0  0  0  0  0
   -1.0800   -6.1246   -0.0963 C   0  0  0  0  0  0  0  0  0  0  0  0
   -1.6538   -6.7262    0.5951 H   0  0  0  0  0  0  0  0  0  0  0  0
   -0.9218   -4.7444    0.1406 C   0  0  0  0  0  0  0  0  0  0  0  0
   -1.3810   -4.2921    1.0081 H   0  0  0  0  0  0  0  0  0  0  0  0
   -0.1815   -3.9357   -0.7488 C   0  0  0  0  0  0  0  0  0  0  0  0
   -1.2194    0.1851   -1.3551 C   0  0  0  0  0  0  0  0  0  0  0  0
   -0.8132   -0.3607   -2.3801 O   0  0  0  0  0  0  0  0  0  0  0  0
   -1.5538    1.4818   -1.3134 N   0  0  0  0  0  0  0  0  0  0  0  0
   -1.8264    1.8661   -0.4199 H   0  0  0  0  0  0  0  0  0  0  0  0
   -1.4822    2.3861   -2.4578 C   0  0  0  0  0  0  0  0  0  0  0  0
   -2.0132    1.9494   -3.3057 H   0  0  0  0  0  0  0  0  0  0  0  0
   -1.9324    3.3471   -2.2058 H   0  0  0  0  0  0  0  0  0  0  0  0
   -0.4388    2.5383   -2.7389 H   0  0  0  0  0  0  0  0  0  0  0  0
  5  6  2  0  0  0  0
  5  7  1  0  0  0  0
  2  3  1  0  0  0  0
  2  4  1  0  0  0  0
  2  5  1  0  0  0  0
  1  2  1  0  0  0  0
 29 30  2  0  0  0  0
 29 31  1  0  0  0  0
 26 27  1  0  0  0  0
 26 28  2  0  0  0  0
 24 25  1  0  0  0  0
 24 26  1  0  0  0  0
 22 23  1  0  0  0  0
 22 24  2  0  0  0  0
 20 21  1  0  0  0  0
 20 22  1  0  0  0  0
 19 20  2  0  0  0  0
 19 28  1  0  0  0  0
 17 18  1  0  0  0  0
 17 19  1  0  0  0  0
 15 16  1  0  0  0  0
 15 17  1  0  0  0  0
 14 15  2  0  0  0  0
 14 28  1  0  0  0  0
 11 12  1  0  0  0  0
 11 13  1  0  0  0  0
 11 14  1  0  0  0  0
  9 10  1  0  0  0  0
  9 11  1  0  0  0  0
  9 29  1  0  0  0  0
  7  8  1  0  0  0  0
  7  9  1  0  0  0  0
 33 34  1  0  0  0  0
 33 35  1  0  0  0  0
 33 36  1  0  0  0  0
 31 32  1  0  0  0  0
 31 33  1  0  0  0  0
M  END
$$$$
default_name
  -OEChem-12212115393D

 36 37  0     1  0  0  0  0  0999 V2000
   -4.0843   -4.0736    1.2944 H   0  0  0  0  0  0  0  0  0  0  0  0
   -4.0342   -3.2816    0.5484 C   0  0  0  0  0  0  0  0  0  0  0  0
   -4.8842   -2.6126    0.6694 H   0  0  0  0  0  0  0  0  0  0  0  0
   -4.0433   -3.7186   -0.4486 H   0  0  0  0  0  0  0  0  0  0  0  0
   -2.7532   -2.5046    0.7444 C   0  0  0  0  0  0  0  0  0  0  0  0
   -1.9803   -2.8096    1.6434 O   0  0  0  0  0  0  0  0  0  0  0  0
   -2.5332   -1.4966   -0.0966 N   0  0  0  0  0  0  0  0  0  0  0  0
   -3.2312   -1.2816   -0.7936 H   0  0  0  0  0  0  0  0  0  0  0  0
   -1.3593   -0.6196   -0.0536 C   0  0  1  0  0  0  0  0  0  0  0  0
   -1.4861    0.0941    0.7613 H   0  0  0  0  0  0  0  0  0  0  0  0
   -0.1038   -1.4579    0.2343 C   0  0  0  0  0  0  0  0  0  0  0  0
    0.7591   -0.7917    0.2882 H   0  0  0  0  0  0  0  0  0  0  0  0
   -0.2180   -1.9299    1.2116 H   0  0  0  0  0  0  0  0  0  0  0  0
    0.1960   -2.5236   -0.7758 C   0  0  0  0  0  0  0  0  0  0  0  0
    0.9303   -2.3587   -1.8989 C   0  0  0  0  0  0  0  0  0  0  0  0
    1.3768   -1.4214   -2.2122 H   0  0  0  0  0  0  0  0  0  0  0  0
    1.0371   -3.5640   -2.5648 N   0  0  0  0  0  0  0  0  0  0  0  0
    1.5390   -3.6779   -3.4333 H   0  0  0  0  0  0  0  0  0  0  0  0
    0.3866   -4.5756   -1.8908 C   0  0  0  0  0  0  0  0  0  0  0  0
    0.2340   -5.9476   -2.1375 C   0  0  0  0  0  0  0  0  0  0  0  0
    0.6760   -6.3987   -3.0137 H   0  0  0  0  0  0  0  0  0  0  0  0
   -0.5037   -6.7266   -1.2298 C   0  0  0  0  0  0  0  0  0  0  0  0
   -0.6329   -7.7862   -1.4043 H   0  0  0  0  0  0  0  0  0  0  0  0
   -1.0800   -6.1246   -0.0963 C   0  0  0  0  0  0  0  0  0  0  0  0
   -1.6538   -6.7262    0.5951 H   0  0  0  0  0  0  0  0  0  0  0  0
   -0.9218   -4.7444    0.1406 C   0  0  0  0  0  0  0  0  0  0  0  0
   -1.3810   -4.2921    1.0081 H   0  0  0  0  0  0  0  0  0  0  0  0
   -0.1815   -3.9357   -0.7488 C   0  0  0  0  0  0  0  0  0  0  0  0
   -1.2194    0.1851   -1.3551 C   0  0  0  0  0  0  0  0  0  0  0  0
   -1.0837   -0.3960   -2.4310 O   0  0  0  0  0  0  0  0  0  0  0  0
   -1.2506    1.5209   -1.2566 N   0  0  0  0  0  0  0  0  0  0  0  0
   -1.3104    1.9205   -0.3308 H   0  0  0  0  0  0  0  0  0  0  0  0
   -1.1338    2.4315   -2.3922 C   0  0  0  0  0  0  0  0  0  0  0  0
   -1.8560    2.1539   -3.1624 H   0  0  0  0  0  0  0  0  0  0  0  0
   -1.3231    3.4570   -2.0724 H   0  0  0  0  0  0  0  0  0  0  0  0
   -0.1295    2.3638   -2.8135 H   0  0  0  0  0  0  0  0  0  0  0  0
  5  6  2  0  0  0  0
  5  7  1  0  0  0  0
  2  3  1  0  0  0  0
  2  4  1  0  0  0  0
  2  5  1  0  0  0  0
  1  2  1  0  0  0  0
 29 30  2  0  0  0  0
 29 31  1  0  0  0  0
 26 27  1  0  0  0  0
 26 28  2  0  0  0  0
 24 25  1  0  0  0  0
 24 26  1  0  0  0  0
 22 23  1  0  0  0  0
 22 24  2  0  0  0  0
 20 21  1  0  0  0  0
 20 22  1  0  0  0  0
 19 20  2  0  0  0  0
 19 28  1  0  0  0  0
 17 18  1  0  0  0  0
 17 19  1  0  0  0  0
 15 16  1  0  0  0  0
 15 17  1  0  0  0  0
 14 15  2  0  0  0  0
 14 28  1  0  0  0  0
 11 12  1  0  0  0  0
 11 13  1  0  0  0  0
 11 14  1  0  0  0  0
  9 10  1  0  0  0  0
  9 11  1  0  0  0  0
  9 29  1  0  0  0  0
  7  8  1  0  0  0  0
  7  9  1  0  0  0  0
 33 34  1  0  0  0  0
 33 35  1  0  0  0  0
 33 36  1  0  0  0  0
 31 32  1  0  0  0  0
 31 33  1  0  0  0  0
M  END
$$$$
default_name
  -OEChem-12212115393D

 36 37  0     1  0  0  0  0  0999 V2000
   -4.0843   -4.0736    1.2944 H   0  0  0  0  0  0  0  0  0  0  0  0
   -4.0342   -3.2816    0.5484 C   0  0  0  0  0  0  0  0  0  0  0  0
   -4.8842   -2.6126    0.6694 H   0  0  0  0  0  0  0  0  0  0  0  0
   -4.0433   -3.7186   -0.4486 H   0  0  0  0  0  0  0  0  0  0  0  0
   -2.7532   -2.5046    0.7444 C   0  0  0  0  0  0  0  0  0  0  0  0
   -1.9803   -2.8096    1.6434 O   0  0  0  0  0  0  0  0  0  0  0  0
   -2.5332   -1.4966   -0.0966 N   0  0  0  0  0  0  0  0  0  0  0  0
   -3.2312   -1.2816   -0.7936 H   0  0  0  0  0  0  0  0  0  0  0  0
   -1.3593   -0.6196   -0.0536 C   0  0  1  0  0  0  0  0  0  0  0  0
   -1.4861    0.0941    0.7613 H   0  0  0  0  0  0  0  0  0  0  0  0
   -0.1038   -1.4579    0.2343 C   0  0  0  0  0  0  0  0  0  0  0  0
    0.7591   -0.7917    0.2882 H   0  0  0  0  0  0  0  0  0  0  0  0
   -0.2180   -1.9299    1.2116 H   0  0  0  0  0  0  0  0  0  0  0  0
    0.1960   -2.5236   -0.7758 C   0  0  0  0  0  0  0  0  0  0  0  0
    0.9303   -2.3587   -1.8989 C   0  0  0  0  0  0  0  0  0  0  0  0
    1.3768   -1.4214   -2.2122 H   0  0  0  0  0  0  0  0  0  0  0  0
    1.0371   -3.5640   -2.5648 N   0  0  0  0  0  0  0  0  0  0  0  0
    1.5390   -3.6779   -3.4333 H   0  0  0  0  0  0  0  0  0  0  0  0
    0.3866   -4.5756   -1.8908 C   0  0  0  0  0  0  0  0  0  0  0  0
    0.2340   -5.9476   -2.1375 C   0  0  0  0  0  0  0  0  0  0  0  0
    0.6760   -6.3987   -3.0137 H   0  0  0  0  0  0  0  0  0  0  0  0
   -0.5037   -6.7266   -1.2298 C   0  0  0  0  0  0  0  0  0  0  0  0
   -0.6329   -7.7862   -1.4043 H   0  0  0  0  0  0  0  0  0  0  0  0
   -1.0800   -6.1246   -0.0963 C   0  0  0  0  0  0  0  0  0  0  0  0
   -1.6538   -6.7262    0.5951 H   0  0  0  0  0  0  0  0  0  0  0  0
   -0.9218   -4.7444    0.1406 C   0  0  0  0  0  0  0  0  0  0  0  0
   -1.3810   -4.2921    1.0081 H   0  0  0  0  0  0  0  0  0  0  0  0
   -0.1815   -3.9357   -0.7488 C   0  0  0  0  0  0  0  0  0  0  0  0
   -1.2194    0.1851   -1.3551 C   0  0  0  0  0  0  0  0  0  0  0  0
   -1.3596   -0.3695   -2.4443 O   0  0  0  0  0  0  0  0  0  0  0  0
   -0.9414    1.4909   -1.2420 N   0  0  0  0  0  0  0  0  0  0  0  0
   -0.7879    1.8578   -0.3135 H   0  0  0  0  0  0  0  0  0  0  0  0
   -0.7785    2.3974   -2.3751 C   0  0  0  0  0  0  0  0  0  0  0  0
   -1.6399    2.3137   -3.0404 H   0  0  0  0  0  0  0  0  0  0  0  0
   -0.6923    3.4264   -2.0235 H   0  0  0  0  0  0  0  0  0  0  0  0
    0.1210    2.1291   -2.9317 H   0  0  0  0  0  0  0  0  0  0  0  0
  5  6  2  0  0  0  0
  5  7  1  0  0  0  0
  2  3  1  0  0  0  0
  2  4  1  0  0  0  0
  2  5  1  0  0  0  0
  1  2  1  0  0  0  0
 29 30  2  0  0  0  0
 29 31  1  0  0  0  0
 26 27  1  0  0  0  0
 26 28  2  0  0  0  0
 24 25  1  0  0  0  0
 24 26  1  0  0  0  0
 22 23  1  0  0  0  0
 22 24  2  0  0  0  0
 20 21  1  0  0  0  0
 20 22  1  0  0  0  0
 19 20  2  0  0  0  0
 19 28  1  0  0  0  0
 17 18  1  0  0  0  0
 17 19  1  0  0  0  0
 15 16  1  0  0  0  0
 15 17  1  0  0  0  0
 14 15  2  0  0  0  0
 14 28  1  0  0  0  0
 11 12  1  0  0  0  0
 11 13  1  0  0  0  0
 11 14  1  0  0  0  0
  9 10  1  0  0  0  0
  9 11  1  0  0  0  0
  9 29  1  0  0  0  0
  7  8  1  0  0  0  0
  7  9  1  0  0  0  0
 33 34  1  0  0  0  0
 33 35  1  0  0  0  0
 33 36  1  0  0  0  0
 31 32  1  0  0  0  0
 31 33  1  0  0  0  0
M  END
$$$$
default_name
  -OEChem-12212115393D

 36 37  0     1  0  0  0  0  0999 V2000
   -4.0843   -4.0736    1.2944 H   0  0  0  0  0  0  0  0  0  0  0  0
   -4.0342   -3.2816    0.5484 C   0  0  0  0  0  0  0  0  0  0  0  0
   -4.8842   -2.6126    0.6694 H   0  0  0  0  0  0  0  0  0  0  0  0
   -4.0433   -3.7186   -0.4486 H   0  0  0  0  0  0  0  0  0  0  0  0
   -2.7532   -2.5046    0.7444 C   0  0  0  0  0  0  0  0  0  0  0  0
   -1.9803   -2.8096    1.6434 O   0  0  0  0  0  0  0  0  0  0  0  0
   -2.5332   -1.4966   -0.0966 N   0  0  0  0  0  0  0  0  0  0  0  0
   -3.2312   -1.2816   -0.7936 H   0  0  0  0  0  0  0  0  0  0  0  0
   -1.3593   -0.6196   -0.0536 C   0  0  1  0  0  0  0  0  0  0  0  0
   -1.4861    0.0941    0.7613 H   0  0  0  0  0  0  0  0  0  0  0  0
   -0.1038   -1.4579    0.2343 C   0  0  0  0  0  0  0  0  0  0  0  0
    0.7591   -0.7917    0.2882 H   0  0  0  0  0  0  0  0  0  0  0  0
   -0.2180   -1.9299    1.2116 H   0  0  0  0  0  0  0  0  0  0  0  0
    0.1960   -2.5236   -0.7758 C   0  0  0  0  0  0  0  0  0  0  0  0
    0.9303   -2.3587   -1.8989 C   0  0  0  0  0  0  0  0  0  0  0  0
    1.3768   -1.4214   -2.2122 H   0  0  0  0  0  0  0  0  0  0  0  0
    1.0371   -3.5640   -2.5648 N   0  0  0  0  0  0  0  0  0  0  0  0
    1.5390   -3.6779   -3.4333 H   0  0  0  0  0  0  0  0  0  0  0  0
    0.3866   -4.5756   -1.8908 C   0  0  0  0  0  0  0  0  0  0  0  0
    0.2340   -5.9476   -2.1375 C   0  0  0  0  0  0  0  0  0  0  0  0
    0.6760   -6.3987   -3.0137 H   0  0  0  0  0  0  0  0  0  0  0  0
   -0.5037   -6.7266   -1.2298 C   0  0  0  0  0  0  0  0  0  0  0  0
   -0.6329   -7.7862   -1.4043 H   0  0  0  0  0  0  0  0  0  0  0  0
   -1.0800   -6.1246   -0.0963 C   0  0  0  0  0  0  0  0  0  0  0  0
   -1.6538   -6.7262    0.5951 H   0  0  0  0  0  0  0  0  0  0  0  0
   -0.9218   -4.7444    0.1406 C   0  0  0  0  0  0  0  0  0  0  0  0
   -1.3810   -4.2921    1.0081 H   0  0  0  0  0  0  0  0  0  0  0  0
   -0.1815   -3.9357   -0.7488 C   0  0  0  0  0  0  0  0  0  0  0  0
   -1.2194    0.1851   -1.3551 C   0  0  0  0  0  0  0  0  0  0  0  0
   -1.6221   -0.2831   -2.4191 O   0  0  0  0  0  0  0  0  0  0  0  0
   -0.6474    1.3937   -1.2704 N   0  0  0  0  0  0  0  0  0  0  0  0
   -0.2946    1.6822   -0.3690 H   0  0  0  0  0  0  0  0  0  0  0  0
   -0.4404    2.2862   -2.4075 C   0  0  0  0  0  0  0  0  0  0  0  0
   -1.3797    2.4178   -2.9480 H   0  0  0  0  0  0  0  0  0  0  0  0
   -0.0832    3.2574   -2.0625 H   0  0  0  0  0  0  0  0  0  0  0  0
    0.2955    1.8504   -3.0853 H   0  0  0  0  0  0  0  0  0  0  0  0
  5  6  2  0  0  0  0
  5  7  1  0  0  0  0
  2  3  1  0  0  0  0
  2  4  1  0  0  0  0
  2  5  1  0  0  0  0
  1  2  1  0  0  0  0
 29 30  2  0  0  0  0
 29 31  1  0  0  0  0
 26 27  1  0  0  0  0
 26 28  2  0  0  0  0
 24 25  1  0  0  0  0
 24 26  1  0  0  0  0
 22 23  1  0  0  0  0
 22 24  2  0  0  0  0
 20 21  1  0  0  0  0
 20 22  1  0  0  0  0
 19 20  2  0  0  0  0
 19 28  1  0  0  0  0
 17 18  1  0  0  0  0
 17 19  1  0  0  0  0
 15 16  1  0  0  0  0
 15 17  1  0  0  0  0
 14 15  2  0  0  0  0
 14 28  1  0  0  0  0
 11 12  1  0  0  0  0
 11 13  1  0  0  0  0
 11 14  1  0  0  0  0
  9 10  1  0  0  0  0
  9 11  1  0  0  0  0
  9 29  1  0  0  0  0
  7  8  1  0  0  0  0
  7  9  1  0  0  0  0
 33 34  1  0  0  0  0
 33 35  1  0  0  0  0
 33 36  1  0  0  0  0
 31 32  1  0  0  0  0
 31 33  1  0  0  0  0
M  END
$$$$
default_name
  -OEChem-12212115393D

 36 37  0     1  0  0  0  0  0999 V2000
   -4.0843   -4.0736    1.2944 H   0  0  0  0  0  0  0  0  0  0  0  0
   -4.0342   -3.2816    0.5484 C   0  0  0  0  0  0  0  0  0  0  0  0
   -4.8842   -2.6126    0.6694 H   0  0  0  0  0  0  0  0  0  0  0  0
   -4.0433   -3.7186   -0.4486 H   0  0  0  0  0  0  0  0  0  0  0  0
   -2.7532   -2.5046    0.7444 C   0  0  0  0  0  0  0  0  0  0  0  0
   -1.9803   -2.8096    1.6434 O   0  0  0  0  0  0  0  0  0  0  0  0
   -2.5332   -1.4966   -0.0966 N   0  0  0  0  0  0  0  0  0  0  0  0
   -3.2312   -1.2816   -0.7936 H   0  0  0  0  0  0  0  0  0  0  0  0
   -1.3593   -0.6196   -0.0536 C   0  0  1  0  0  0  0  0  0  0  0  0
   -1.4861    0.0941    0.7613 H   0  0  0  0  0  0  0  0  0  0  0  0
   -0.1038   -1.4579    0.2343 C   0  0  0  0  0  0  0  0  0  0  0  0
    0.7591   -0.7917    0.2882 H   0  0  0  0  0  0  0  0  0  0  0  0
   -0.2180   -1.9299    1.2116 H   0  0  0  0  0  0  0  0  0  0  0  0
    0.1960   -2.5236   -0.7758 C   0  0  0  0  0  0  0  0  0  0  0  0
    0.9303   -2.3587   -1.8989 C   0  0  0  0  0  0  0  0  0  0  0  0
    1.3768   -1.4214   -2.2122 H   0  0  0  0  0  0  0  0  0  0  0  0
    1.0371   -3.5640   -2.5648 N   0  0  0  0  0  0  0  0  0  0  0  0
    1.5390   -3.6779   -3.4333 H   0  0  0  0  0  0  0  0  0  0  0  0
    0.3866   -4.5756   -1.8908 C   0  0  0  0  0  0  0  0  0  0  0  0
    0.2340   -5.9476   -2.1375 C   0  0  0  0  0  0  0  0  0  0  0  0
    0.6760   -6.3987   -3.0137 H   0  0  0  0  0  0  0  0  0  0  0  0
   -0.5037   -6.7266   -1.2298 C   0  0  0  0  0  0  0  0  0  0  0  0
   -0.6329   -7.7862   -1.4043 H   0  0  0  0  0  0  0  0  0  0  0  0
   -1.0800   -6.1246   -0.0963 C   0  0  0  0  0  0  0  0  0  0  0  0
   -1.6538   -6.7262    0.5951 H   0  0  0  0  0  0  0  0  0  0  0  0
   -0.9218   -4.7444    0.1406 C   0  0  0  0  0  0  0  0  0  0  0  0
   -1.3810   -4.2921    1.0081 H   0  0  0  0  0  0  0  0  0  0  0  0
   -0.1815   -3.9357   -0.7488 C   0  0  0  0  0  0  0  0  0  0  0  0
   -1.2194    0.1851   -1.3551 C   0  0  0  0  0  0  0  0  0  0  0  0
   -1.8534   -0.1428   -2.3572 O   0  0  0  0  0  0  0  0  0  0  0  0
   -0.3886    1.2361   -1.3401 N   0  0  0  0  0  0  0  0  0  0  0  0
    0.1358    1.4058   -0.4936 H   0  0  0  0  0  0  0  0  0  0  0  0
   -0.1426    2.1055   -2.4872 C   0  0  0  0  0  0  0  0  0  0  0  0
   -1.0929    2.4590   -2.8917 H   0  0  0  0  0  0  0  0  0  0  0  0
    0.4629    2.9616   -2.1867 H   0  0  0  0  0  0  0  0  0  0  0  0
    0.3821    1.5465   -3.2639 H   0  0  0  0  0  0  0  0  0  0  0  0
  5  6  2  0  0  0  0
  5  7  1  0  0  0  0
  2  3  1  0  0  0  0
  2  4  1  0  0  0  0
  2  5  1  0  0  0  0
  1  2  1  0  0  0  0
 29 30  2  0  0  0  0
 29 31  1  0  0  0  0
 26 27  1  0  0  0  0
 26 28  2  0  0  0  0
 24 25  1  0  0  0  0
 24 26  1  0  0  0  0
 22 23  1  0  0  0  0
 22 24  2  0  0  0  0
 20 21  1  0  0  0  0
 20 22  1  0  0  0  0
 19 20  2  0  0  0  0
 19 28  1  0  0  0  0
 17 18  1  0  0  0  0
 17 19  1  0  0  0  0
 15 16  1  0  0  0  0
 15 17  1  0  0  0  0
 14 15  2  0  0  0  0
 14 28  1  0  0  0  0
 11 12  1  0  0  0  0
 11 13  1  0  0  0  0
 11 14  1  0  0  0  0
  9 10  1  0  0  0  0
  9 11  1  0  0  0  0
  9 29  1  0  0  0  0
  7  8  1  0  0  0  0
  7  9  1  0  0  0  0
 33 34  1  0  0  0  0
 33 35  1  0  0  0  0
 33 36  1  0  0  0  0
 31 32  1  0  0  0  0
 31 33  1  0  0  0  0
M  END
$$$$
