
  -OEChem-01062216103D

 36 37  0     1  0  0  0  0  0999 V2000
   -3.8248   -2.6865    0.2024 H   0  0  0  0  0  0  0  0  0  0  0  0
   -3.6813   -1.8849   -0.5274 C   0  0  0  0  0  0  0  0  0  0  0  0
   -4.6096   -1.3151   -0.6140 H   0  0  0  0  0  0  0  0  0  0  0  0
   -3.4435   -2.3302   -1.4962 H   0  0  0  0  0  0  0  0  0  0  0  0
   -2.5552   -0.9709   -0.0831 C   0  0  0  0  0  0  0  0  0  0  0  0
   -2.1427   -1.0451    1.0595 O   0  0  0  0  0  0  0  0  0  0  0  0
   -2.1324    0.0345   -0.9245 N   0  0  0  0  0  0  0  0  0  0  0  0
   -2.6322    0.1142   -1.8100 H   0  0  0  0  0  0  0  0  0  0  0  0
   -0.8994    0.8435   -0.8373 C   0  0  1  0  0  0  0  0  0  0  0  0
   -0.8841    1.3896    0.1112 H   0  0  0  0  0  0  0  0  0  0  0  0
    0.4130    0.0219   -0.9971 C   0  0  0  0  0  0  0  0  0  0  0  0
    0.3471   -0.5314   -1.9398 H   0  0  0  0  0  0  0  0  0  0  0  0
    1.2692    0.6968   -1.0830 H   0  0  0  0  0  0  0  0  0  0  0  0
    0.7458   -0.9589    0.0950 C   0  0  0  0  0  0  0  0  0  0  0  0
    0.4922   -2.3099    0.1004 C   0  0  0  0  0  0  0  0  0  0  0  0
   -0.0169   -2.8601   -0.6864 H   0  0  0  0  0  0  0  0  0  0  0  0
    0.9954   -2.8309    1.2902 N   0  0  0  0  0  0  0  0  0  0  0  0
    0.8903   -3.7935    1.6003 H   0  0  0  0  0  0  0  0  0  0  0  0
    1.5613   -1.8239    2.0552 C   0  0  0  0  0  0  0  0  0  0  0  0
    2.1718   -1.8439    3.3095 C   0  0  0  0  0  0  0  0  0  0  0  0
    2.2645   -2.7758    3.8558 H   0  0  0  0  0  0  0  0  0  0  0  0
    2.6576   -0.6460    3.8522 C   0  0  0  0  0  0  0  0  0  0  0  0
    3.1320   -0.6465    4.8287 H   0  0  0  0  0  0  0  0  0  0  0  0
    2.5268    0.5542    3.1372 C   0  0  0  0  0  0  0  0  0  0  0  0
    2.8997    1.4806    3.5627 H   0  0  0  0  0  0  0  0  0  0  0  0
    1.9096    0.5621    1.8779 C   0  0  0  0  0  0  0  0  0  0  0  0
    1.8004    1.4890    1.3268 H   0  0  0  0  0  0  0  0  0  0  0  0
    1.4283   -0.6376    1.3428 C   0  0  0  0  0  0  0  0  0  0  0  0
   -0.8879    1.8505   -2.0163 C   0  0  0  0  0  0  0  0  0  0  0  0
   -1.7796    1.8210   -2.8602 O   0  0  0  0  0  0  0  0  0  0  0  0
    0.1528    2.7475   -2.1905 N   0  0  0  0  0  0  0  0  0  0  0  0
    0.8780    2.7714   -1.4793 H   0  0  0  0  0  0  0  0  0  0  0  0
    0.2229    3.6924   -3.2988 C   0  0  0  0  0  0  0  0  0  0  0  0
   -0.6391    4.3676   -3.2823 H   0  0  0  0  0  0  0  0  0  0  0  0
    1.1341    4.2938   -3.2260 H   0  0  0  0  0  0  0  0  0  0  0  0
    0.2361    3.1603   -4.2558 H   0  0  0  0  0  0  0  0  0  0  0  0
  1  2  1  0  0  0  0
  2  3  1  0  0  0  0
  2  4  1  0  0  0  0
  2  5  1  0  0  0  0
  5  6  2  0  0  0  0
  5  7  1  0  0  0  0
  7  8  1  0  0  0  0
  7  9  1  0  0  0  0
  9 10  1  0  0  0  0
  9 11  1  0  0  0  0
  9 29  1  0  0  0  0
 11 12  1  0  0  0  0
 11 13  1  0  0  0  0
 11 14  1  0  0  0  0
 14 15  2  0  0  0  0
 14 28  1  0  0  0  0
 15 16  1  0  0  0  0
 15 17  1  0  0  0  0
 17 18  1  0  0  0  0
 17 19  1  0  0  0  0
 19 20  1  0  0  0  0
 19 28  2  0  0  0  0
 20 21  1  0  0  0  0
 20 22  2  0  0  0  0
 22 23  1  0  0  0  0
 22 24  1  0  0  0  0
 24 25  1  0  0  0  0
 24 26  2  0  0  0  0
 26 27  1  0  0  0  0
 26 28  1  0  0  0  0
 29 30  2  0  0  0  0
 29 31  1  0  0  0  0
 31 32  1  0  0  0  0
 31 33  1  0  0  0  0
 33 34  1  0  0  0  0
 33 35  1  0  0  0  0
 33 36  1  0  0  0  0
M  END
$$$$

  -OEChem-01062216103D

 36 37  0     1  0  0  0  0  0999 V2000
   -3.8773   -2.6584    0.1515 H   0  0  0  0  0  0  0  0  0  0  0  0
   -3.7135   -1.8462   -0.5622 C   0  0  0  0  0  0  0  0  0  0  0  0
   -4.6215   -1.2415   -0.6243 H   0  0  0  0  0  0  0  0  0  0  0  0
   -3.5024   -2.2776   -1.5435 H   0  0  0  0  0  0  0  0  0  0  0  0
   -2.5497   -0.9834   -0.1130 C   0  0  0  0  0  0  0  0  0  0  0  0
   -2.1218   -1.1073    1.0191 O   0  0  0  0  0  0  0  0  0  0  0  0
   -2.1099    0.0297   -0.9366 N   0  0  0  0  0  0  0  0  0  0  0  0
   -2.6521    0.1782   -1.7878 H   0  0  0  0  0  0  0  0  0  0  0  0
   -0.8725    0.8335   -0.8439 C   0  0  1  0  0  0  0  0  0  0  0  0
   -0.8598    1.3797    0.1044 H   0  0  0  0  0  0  0  0  0  0  0  0
    0.4404    0.0049   -0.9873 C   0  0  0  0  0  0  0  0  0  0  0  0
    0.3839   -0.5500   -1.9294 H   0  0  0  0  0  0  0  0  0  0  0  0
    1.3011    0.6747   -1.0594 H   0  0  0  0  0  0  0  0  0  0  0  0
    0.7672   -0.9730    0.1096 C   0  0  0  0  0  0  0  0  0  0  0  0
    0.5136   -2.3241    0.1199 C   0  0  0  0  0  0  0  0  0  0  0  0
    0.0052   -2.8766   -0.6654 H   0  0  0  0  0  0  0  0  0  0  0  0
    1.0138   -2.8411    1.3129 N   0  0  0  0  0  0  0  0  0  0  0  0
    0.9032   -3.8012    1.6285 H   0  0  0  0  0  0  0  0  0  0  0  0
    1.5758   -1.8311    2.0761 C   0  0  0  0  0  0  0  0  0  0  0  0
    2.1803   -1.8467    3.3330 C   0  0  0  0  0  0  0  0  0  0  0  0
    2.2696   -2.7765    3.8831 H   0  0  0  0  0  0  0  0  0  0  0  0
    2.6652   -0.6474    3.8729 C   0  0  0  0  0  0  0  0  0  0  0  0
    3.1365   -0.6456    4.8512 H   0  0  0  0  0  0  0  0  0  0  0  0
    2.5369    0.5507    3.1533 C   0  0  0  0  0  0  0  0  0  0  0  0
    2.9089    1.4786    3.5769 H   0  0  0  0  0  0  0  0  0  0  0  0
    1.9236    0.5543    1.8920 C   0  0  0  0  0  0  0  0  0  0  0  0
    1.8150    1.4795    1.3377 H   0  0  0  0  0  0  0  0  0  0  0  0
    1.4453   -0.6475    1.3588 C   0  0  0  0  0  0  0  0  0  0  0  0
   -0.8745    1.8475   -2.0233 C   0  0  0  0  0  0  0  0  0  0  0  0
   -1.8855    1.9848   -2.7069 O   0  0  0  0  0  0  0  0  0  0  0  0
    0.2604    2.5422   -2.4103 N   0  0  0  0  0  0  0  0  0  0  0  0
    1.0940    2.4368   -1.8397 H   0  0  0  0  0  0  0  0  0  0  0  0
    0.2983    3.4586   -3.5444 C   0  0  0  0  0  0  0  0  0  0  0  0
   -0.4100    4.2808   -3.3969 H   0  0  0  0  0  0  0  0  0  0  0  0
    1.3013    3.8819   -3.6546 H   0  0  0  0  0  0  0  0  0  0  0  0
    0.0421    2.9342   -4.4711 H   0  0  0  0  0  0  0  0  0  0  0  0
  1  2  1  0  0  0  0
  2  3  1  0  0  0  0
  2  4  1  0  0  0  0
  2  5  1  0  0  0  0
  5  6  2  0  0  0  0
  5  7  1  0  0  0  0
  7  8  1  0  0  0  0
  7  9  1  0  0  0  0
  9 10  1  0  0  0  0
  9 11  1  0  0  0  0
  9 29  1  0  0  0  0
 11 12  1  0  0  0  0
 11 13  1  0  0  0  0
 11 14  1  0  0  0  0
 14 15  2  0  0  0  0
 14 28  1  0  0  0  0
 15 16  1  0  0  0  0
 15 17  1  0  0  0  0
 17 18  1  0  0  0  0
 17 19  1  0  0  0  0
 19 20  1  0  0  0  0
 19 28  2  0  0  0  0
 20 21  1  0  0  0  0
 20 22  2  0  0  0  0
 22 23  1  0  0  0  0
 22 24  1  0  0  0  0
 24 25  1  0  0  0  0
 24 26  2  0  0  0  0
 26 27  1  0  0  0  0
 26 28  1  0  0  0  0
 29 30  2  0  0  0  0
 29 31  1  0  0  0  0
 31 32  1  0  0  0  0
 31 33  1  0  0  0  0
 33 34  1  0  0  0  0
 33 35  1  0  0  0  0
 33 36  1  0  0  0  0
M  END
$$$$

  -OEChem-01062216103D

 36 37  0     1  0  0  0  0  0999 V2000
   -3.9549   -2.6124    0.1070 H   0  0  0  0  0  0  0  0  0  0  0  0
   -3.7591   -1.8009   -0.5992 C   0  0  0  0  0  0  0  0  0  0  0  0
   -4.6381   -1.1534   -0.6454 H   0  0  0  0  0  0  0  0  0  0  0  0
   -3.5786   -2.2307   -1.5872 H   0  0  0  0  0  0  0  0  0  0  0  0
   -2.5510   -0.9997   -0.1520 C   0  0  0  0  0  0  0  0  0  0  0  0
   -2.1049   -1.1774    0.9652 O   0  0  0  0  0  0  0  0  0  0  0  0
   -2.0914    0.0186   -0.9586 N   0  0  0  0  0  0  0  0  0  0  0  0
   -2.6708    0.2336   -1.7699 H   0  0  0  0  0  0  0  0  0  0  0  0
   -0.8471    0.8121   -0.8572 C   0  0  1  0  0  0  0  0  0  0  0  0
   -0.8408    1.3612    0.0897 H   0  0  0  0  0  0  0  0  0  0  0  0
    0.4697   -0.0148   -0.9779 C   0  0  0  0  0  0  0  0  0  0  0  0
    0.4305   -0.5726   -1.9193 H   0  0  0  0  0  0  0  0  0  0  0  0
    1.3273    0.6605   -1.0337 H   0  0  0  0  0  0  0  0  0  0  0  0
    0.7907   -0.9864    0.1256 C   0  0  0  0  0  0  0  0  0  0  0  0
    0.5433   -2.3386    0.1389 C   0  0  0  0  0  0  0  0  0  0  0  0
    0.0391   -2.8957   -0.6459 H   0  0  0  0  0  0  0  0  0  0  0  0
    1.0398   -2.8494    1.3360 N   0  0  0  0  0  0  0  0  0  0  0  0
    0.9255   -3.8075    1.6565 H   0  0  0  0  0  0  0  0  0  0  0  0
    1.5948   -1.8347    2.0980 C   0  0  0  0  0  0  0  0  0  0  0  0
    2.1943   -1.8442    3.3575 C   0  0  0  0  0  0  0  0  0  0  0  0
    2.2840   -2.7718    3.9115 H   0  0  0  0  0  0  0  0  0  0  0  0
    2.6740   -0.6416    3.8951 C   0  0  0  0  0  0  0  0  0  0  0  0
    3.1407   -0.6346    4.8755 H   0  0  0  0  0  0  0  0  0  0  0  0
    2.5465    0.5531    3.1702 C   0  0  0  0  0  0  0  0  0  0  0  0
    2.9145    1.4832    3.5921 H   0  0  0  0  0  0  0  0  0  0  0  0
    1.9378    0.5509    1.9066 C   0  0  0  0  0  0  0  0  0  0  0  0
    1.8300    1.4745    1.3489 H   0  0  0  0  0  0  0  0  0  0  0  0
    1.4636   -0.6540    1.3760 C   0  0  0  0  0  0  0  0  0  0  0  0
   -0.8582    1.8304   -2.0356 C   0  0  0  0  0  0  0  0  0  0  0  0
   -1.9307    2.1507   -2.5399 O   0  0  0  0  0  0  0  0  0  0  0  0
    0.2930    2.3089   -2.6427 N   0  0  0  0  0  0  0  0  0  0  0  0
    1.1853    2.0421   -2.2379 H   0  0  0  0  0  0  0  0  0  0  0  0
    0.2868    3.2101   -3.7897 C   0  0  0  0  0  0  0  0  0  0  0  0
   -0.2221    4.1468   -3.5388 H   0  0  0  0  0  0  0  0  0  0  0  0
    1.3122    3.4439   -4.0917 H   0  0  0  0  0  0  0  0  0  0  0  0
   -0.2254    2.7465   -4.6393 H   0  0  0  0  0  0  0  0  0  0  0  0
  1  2  1  0  0  0  0
  2  3  1  0  0  0  0
  2  4  1  0  0  0  0
  2  5  1  0  0  0  0
  5  6  2  0  0  0  0
  5  7  1  0  0  0  0
  7  8  1  0  0  0  0
  7  9  1  0  0  0  0
  9 10  1  0  0  0  0
  9 11  1  0  0  0  0
  9 29  1  0  0  0  0
 11 12  1  0  0  0  0
 11 13  1  0  0  0  0
 11 14  1  0  0  0  0
 14 15  2  0  0  0  0
 14 28  1  0  0  0  0
 15 16  1  0  0  0  0
 15 17  1  0  0  0  0
 17 18  1  0  0  0  0
 17 19  1  0  0  0  0
 19 20  1  0  0  0  0
 19 28  2  0  0  0  0
 20 21  1  0  0  0  0
 20 22  2  0  0  0  0
 22 23  1  0  0  0  0
 22 24  1  0  0  0  0
 24 25  1  0  0  0  0
 24 26  2  0  0  0  0
 26 27  1  0  0  0  0
 26 28  1  0  0  0  0
 29 30  2  0  0  0  0
 29 31  1  0  0  0  0
 31 32  1  0  0  0  0
 31 33  1  0  0  0  0
 33 34  1  0  0  0  0
 33 35  1  0  0  0  0
 33 36  1  0  0  0  0
M  END
$$$$

  -OEChem-01062216103D

 36 37  0     1  0  0  0  0  0999 V2000
   -4.0171   -2.5771    0.0755 H   0  0  0  0  0  0  0  0  0  0  0  0
   -3.7991   -1.7660   -0.6249 C   0  0  0  0  0  0  0  0  0  0  0  0
   -4.6537   -1.0858   -0.6537 H   0  0  0  0  0  0  0  0  0  0  0  0
   -3.6462   -2.1917   -1.6192 H   0  0  0  0  0  0  0  0  0  0  0  0
   -2.5565   -1.0151   -0.1846 C   0  0  0  0  0  0  0  0  0  0  0  0
   -2.0910   -1.2422    0.9151 O   0  0  0  0  0  0  0  0  0  0  0  0
   -2.0831    0.0073   -0.9788 N   0  0  0  0  0  0  0  0  0  0  0  0
   -2.6898    0.2730   -1.7534 H   0  0  0  0  0  0  0  0  0  0  0  0
   -0.8305    0.7875   -0.8728 C   0  0  1  0  0  0  0  0  0  0  0  0
   -0.8276    1.3360    0.0745 H   0  0  0  0  0  0  0  0  0  0  0  0
    0.4904   -0.0338   -0.9773 C   0  0  0  0  0  0  0  0  0  0  0  0
    0.4615   -0.5993   -1.9145 H   0  0  0  0  0  0  0  0  0  0  0  0
    1.3407    0.6520   -1.0308 H   0  0  0  0  0  0  0  0  0  0  0  0
    0.8094   -0.9989    0.1325 C   0  0  0  0  0  0  0  0  0  0  0  0
    0.5702   -2.3525    0.1514 C   0  0  0  0  0  0  0  0  0  0  0  0
    0.0712   -2.9168   -0.6316 H   0  0  0  0  0  0  0  0  0  0  0  0
    1.0634   -2.8544    1.3537 N   0  0  0  0  0  0  0  0  0  0  0  0
    0.9486   -3.8104    1.6801 H   0  0  0  0  0  0  0  0  0  0  0  0
    1.6110   -1.8331    2.1122 C   0  0  0  0  0  0  0  0  0  0  0  0
    2.2057   -1.8330    3.3741 C   0  0  0  0  0  0  0  0  0  0  0  0
    2.2967   -2.7569    3.9341 H   0  0  0  0  0  0  0  0  0  0  0  0
    2.6794   -0.6255    3.9061 C   0  0  0  0  0  0  0  0  0  0  0  0
    3.1436   -0.6110    4.8876 H   0  0  0  0  0  0  0  0  0  0  0  0
    2.5496    0.5645    3.1738 C   0  0  0  0  0  0  0  0  0  0  0  0
    2.9135    1.4985    3.5909 H   0  0  0  0  0  0  0  0  0  0  0  0
    1.9444    0.5528    1.9085 C   0  0  0  0  0  0  0  0  0  0  0  0
    1.8342    1.4727    1.3451 H   0  0  0  0  0  0  0  0  0  0  0  0
    1.4767   -0.6570    1.3834 C   0  0  0  0  0  0  0  0  0  0  0  0
   -0.8442    1.8123   -2.0438 C   0  0  0  0  0  0  0  0  0  0  0  0
   -1.9111    2.3249   -2.3649 O   0  0  0  0  0  0  0  0  0  0  0  0
    0.2496    2.0692   -2.8572 N   0  0  0  0  0  0  0  0  0  0  0  0
    1.1287    1.6179   -2.6225 H   0  0  0  0  0  0  0  0  0  0  0  0
    0.2071    2.9616   -4.0105 C   0  0  0  0  0  0  0  0  0  0  0  0
   -0.0692    3.9753   -3.7015 H   0  0  0  0  0  0  0  0  0  0  0  0
    1.1887    3.0031   -4.4924 H   0  0  0  0  0  0  0  0  0  0  0  0
   -0.5227    2.6053   -4.7451 H   0  0  0  0  0  0  0  0  0  0  0  0
  1  2  1  0  0  0  0
  2  3  1  0  0  0  0
  2  4  1  0  0  0  0
  2  5  1  0  0  0  0
  5  6  2  0  0  0  0
  5  7  1  0  0  0  0
  7  8  1  0  0  0  0
  7  9  1  0  0  0  0
  9 10  1  0  0  0  0
  9 11  1  0  0  0  0
  9 29  1  0  0  0  0
 11 12  1  0  0  0  0
 11 13  1  0  0  0  0
 11 14  1  0  0  0  0
 14 15  2  0  0  0  0
 14 28  1  0  0  0  0
 15 16  1  0  0  0  0
 15 17  1  0  0  0  0
 17 18  1  0  0  0  0
 17 19  1  0  0  0  0
 19 20  1  0  0  0  0
 19 28  2  0  0  0  0
 20 21  1  0  0  0  0
 20 22  2  0  0  0  0
 22 23  1  0  0  0  0
 22 24  1  0  0  0  0
 24 25  1  0  0  0  0
 24 26  2  0  0  0  0
 26 27  1  0  0  0  0
 26 28  1  0  0  0  0
 29 30  2  0  0  0  0
 29 31  1  0  0  0  0
 31 32  1  0  0  0  0
 31 33  1  0  0  0  0
 33 34  1  0  0  0  0
 33 35  1  0  0  0  0
 33 36  1  0  0  0  0
M  END
$$$$

  -OEChem-01062216103D

 36 37  0     1  0  0  0  0  0999 V2000
   -4.0947   -2.5298    0.0764 H   0  0  0  0  0  0  0  0  0  0  0  0
   -3.8479   -1.7378   -0.6362 C   0  0  0  0  0  0  0  0  0  0  0  0
   -4.6753   -1.0247   -0.6703 H   0  0  0  0  0  0  0  0  0  0  0  0
   -3.7176   -2.1828   -1.6254 H   0  0  0  0  0  0  0  0  0  0  0  0
   -2.5737   -1.0318   -0.2118 C   0  0  0  0  0  0  0  0  0  0  0  0
   -2.0905   -1.2955    0.8713 O   0  0  0  0  0  0  0  0  0  0  0  0
   -2.0913   -0.0090   -1.0001 N   0  0  0  0  0  0  0  0  0  0  0  0
   -2.7092    0.2794   -1.7563 H   0  0  0  0  0  0  0  0  0  0  0  0
   -0.8324    0.7601   -0.8900 C   0  0  1  0  0  0  0  0  0  0  0  0
   -0.8350    1.3080    0.0579 H   0  0  0  0  0  0  0  0  0  0  0  0
    0.4942   -0.0519   -0.9803 C   0  0  0  0  0  0  0  0  0  0  0  0
    0.4708   -0.6296   -1.9101 H   0  0  0  0  0  0  0  0  0  0  0  0
    1.3368    0.6439   -1.0437 H   0  0  0  0  0  0  0  0  0  0  0  0
    0.8166   -1.0101    0.1341 C   0  0  0  0  0  0  0  0  0  0  0  0
    0.5907   -2.3658    0.1594 C   0  0  0  0  0  0  0  0  0  0  0  0
    0.0960   -2.9379   -0.6205 H   0  0  0  0  0  0  0  0  0  0  0  0
    1.0933   -2.8577    1.3621 N   0  0  0  0  0  0  0  0  0  0  0  0
    0.9908   -3.8137    1.6924 H   0  0  0  0  0  0  0  0  0  0  0  0
    1.6333   -1.8281    2.1147 C   0  0  0  0  0  0  0  0  0  0  0  0
    2.2347   -1.8170    3.3731 C   0  0  0  0  0  0  0  0  0  0  0  0
    2.3422   -2.7385    3.9340 H   0  0  0  0  0  0  0  0  0  0  0  0
    2.6939   -0.6018    3.9003 C   0  0  0  0  0  0  0  0  0  0  0  0
    3.1630   -0.5788    4.8792 H   0  0  0  0  0  0  0  0  0  0  0  0
    2.5433    0.5849    3.1666 C   0  0  0  0  0  0  0  0  0  0  0  0
    2.8947    1.5252    3.5802 H   0  0  0  0  0  0  0  0  0  0  0  0
    1.9343    0.5615    1.9034 C   0  0  0  0  0  0  0  0  0  0  0  0
    1.8086    1.4782    1.3382 H   0  0  0  0  0  0  0  0  0  0  0  0
    1.4818   -0.6561    1.3828 C   0  0  0  0  0  0  0  0  0  0  0  0
   -0.8367    1.7892   -2.0528 C   0  0  0  0  0  0  0  0  0  0  0  0
   -1.8298    2.4893   -2.2084 O   0  0  0  0  0  0  0  0  0  0  0  0
    0.1339    1.8328   -3.0428 N   0  0  0  0  0  0  0  0  0  0  0  0
    0.9369    1.2190   -2.9421 H   0  0  0  0  0  0  0  0  0  0  0  0
    0.0773    2.7299   -4.1914 C   0  0  0  0  0  0  0  0  0  0  0  0
    0.0552    3.7738   -3.8615 H   0  0  0  0  0  0  0  0  0  0  0  0
    0.9571    2.5870   -4.8260 H   0  0  0  0  0  0  0  0  0  0  0  0
   -0.8167    2.5303   -4.7914 H   0  0  0  0  0  0  0  0  0  0  0  0
  1  2  1  0  0  0  0
  2  3  1  0  0  0  0
  2  4  1  0  0  0  0
  2  5  1  0  0  0  0
  5  6  2  0  0  0  0
  5  7  1  0  0  0  0
  7  8  1  0  0  0  0
  7  9  1  0  0  0  0
  9 10  1  0  0  0  0
  9 11  1  0  0  0  0
  9 29  1  0  0  0  0
 11 12  1  0  0  0  0
 11 13  1  0  0  0  0
 11 14  1  0  0  0  0
 14 15  2  0  0  0  0
 14 28  1  0  0  0  0
 15 16  1  0  0  0  0
 15 17  1  0  0  0  0
 17 18  1  0  0  0  0
 17 19  1  0  0  0  0
 19 20  1  0  0  0  0
 19 28  2  0  0  0  0
 20 21  1  0  0  0  0
 20 22  2  0  0  0  0
 22 23  1  0  0  0  0
 22 24  1  0  0  0  0
 24 25  1  0  0  0  0
 24 26  2  0  0  0  0
 26 27  1  0  0  0  0
 26 28  1  0  0  0  0
 29 30  2  0  0  0  0
 29 31  1  0  0  0  0
 31 32  1  0  0  0  0
 31 33  1  0  0  0  0
 33 34  1  0  0  0  0
 33 35  1  0  0  0  0
 33 36  1  0  0  0  0
M  END
$$$$

  -OEChem-01062216103D

 36 37  0     1  0  0  0  0  0999 V2000
   -4.0840   -2.5498    0.0879 H   0  0  0  0  0  0  0  0  0  0  0  0
   -3.8466   -1.7565   -0.6267 C   0  0  0  0  0  0  0  0  0  0  0  0
   -4.6826   -1.0538   -0.6622 H   0  0  0  0  0  0  0  0  0  0  0  0
   -3.7110   -2.2025   -1.6147 H   0  0  0  0  0  0  0  0  0  0  0  0
   -2.5809   -1.0335   -0.2049 C   0  0  0  0  0  0  0  0  0  0  0  0
   -2.0956   -1.2860    0.8797 O   0  0  0  0  0  0  0  0  0  0  0  0
   -2.1043   -0.0138   -1.0017 N   0  0  0  0  0  0  0  0  0  0  0  0
   -2.7204    0.2558   -1.7648 H   0  0  0  0  0  0  0  0  0  0  0  0
   -0.8405    0.7496   -0.9010 C   0  0  1  0  0  0  0  0  0  0  0  0
   -0.8376    1.2970    0.0476 H   0  0  0  0  0  0  0  0  0  0  0  0
    0.4840   -0.0649   -0.9948 C   0  0  0  0  0  0  0  0  0  0  0  0
    0.4513   -0.6550   -1.9157 H   0  0  0  0  0  0  0  0  0  0  0  0
    1.3256    0.6305   -1.0790 H   0  0  0  0  0  0  0  0  0  0  0  0
    0.8080   -1.0182    0.1237 C   0  0  0  0  0  0  0  0  0  0  0  0
    0.5798   -2.3735    0.1608 C   0  0  0  0  0  0  0  0  0  0  0  0
    0.0814   -2.9509   -0.6126 H   0  0  0  0  0  0  0  0  0  0  0  0
    1.0821   -2.8562    1.3675 N   0  0  0  0  0  0  0  0  0  0  0  0
    0.9770   -3.8087    1.7071 H   0  0  0  0  0  0  0  0  0  0  0  0
    1.6254   -1.8212    2.1104 C   0  0  0  0  0  0  0  0  0  0  0  0
    2.2283   -1.7996    3.3681 C   0  0  0  0  0  0  0  0  0  0  0  0
    2.3331   -2.7153    3.9388 H   0  0  0  0  0  0  0  0  0  0  0  0
    2.6932   -0.5810    3.8822 C   0  0  0  0  0  0  0  0  0  0  0  0
    3.1628   -0.5500    4.8608 H   0  0  0  0  0  0  0  0  0  0  0  0
    2.5475    0.5985    3.1357 C   0  0  0  0  0  0  0  0  0  0  0  0
    2.9044    1.5415    3.5383 H   0  0  0  0  0  0  0  0  0  0  0  0
    1.9358    0.5647    1.8741 C   0  0  0  0  0  0  0  0  0  0  0  0
    1.8137    1.4757    1.2987 H   0  0  0  0  0  0  0  0  0  0  0  0
    1.4769   -0.6559    1.3675 C   0  0  0  0  0  0  0  0  0  0  0  0
   -0.8334    1.7809   -2.0575 C   0  0  0  0  0  0  0  0  0  0  0  0
   -1.6794    2.6647   -2.0584 O   0  0  0  0  0  0  0  0  0  0  0  0
   -0.0547    1.6363   -3.1958 N   0  0  0  0  0  0  0  0  0  0  0  0
    0.6269    0.8834   -3.2065 H   0  0  0  0  0  0  0  0  0  0  0  0
   -0.1152    2.5450   -4.3352 C   0  0  0  0  0  0  0  0  0  0  0  0
    0.1418    3.5642   -4.0274 H   0  0  0  0  0  0  0  0  0  0  0  0
    0.5918    2.2292   -5.1085 H   0  0  0  0  0  0  0  0  0  0  0  0
   -1.1208    2.5502   -4.7691 H   0  0  0  0  0  0  0  0  0  0  0  0
  1  2  1  0  0  0  0
  2  3  1  0  0  0  0
  2  4  1  0  0  0  0
  2  5  1  0  0  0  0
  5  6  2  0  0  0  0
  5  7  1  0  0  0  0
  7  8  1  0  0  0  0
  7  9  1  0  0  0  0
  9 10  1  0  0  0  0
  9 11  1  0  0  0  0
  9 29  1  0  0  0  0
 11 12  1  0  0  0  0
 11 13  1  0  0  0  0
 11 14  1  0  0  0  0
 14 15  2  0  0  0  0
 14 28  1  0  0  0  0
 15 16  1  0  0  0  0
 15 17  1  0  0  0  0
 17 18  1  0  0  0  0
 17 19  1  0  0  0  0
 19 20  1  0  0  0  0
 19 28  2  0  0  0  0
 20 21  1  0  0  0  0
 20 22  2  0  0  0  0
 22 23  1  0  0  0  0
 22 24  1  0  0  0  0
 24 25  1  0  0  0  0
 24 26  2  0  0  0  0
 26 27  1  0  0  0  0
 26 28  1  0  0  0  0
 29 30  2  0  0  0  0
 29 31  1  0  0  0  0
 31 32  1  0  0  0  0
 31 33  1  0  0  0  0
 33 34  1  0  0  0  0
 33 35  1  0  0  0  0
 33 36  1  0  0  0  0
M  END
$$$$

  -OEChem-01062216103D

 36 37  0     1  0  0  0  0  0999 V2000
   -4.0594   -2.5755    0.1105 H   0  0  0  0  0  0  0  0  0  0  0  0
   -3.8356   -1.7843   -0.6107 C   0  0  0  0  0  0  0  0  0  0  0  0
   -4.6871   -1.1011   -0.6589 H   0  0  0  0  0  0  0  0  0  0  0  0
   -3.6830   -2.2374   -1.5930 H   0  0  0  0  0  0  0  0  0  0  0  0
   -2.5897   -1.0289   -0.1873 C   0  0  0  0  0  0  0  0  0  0  0  0
   -2.1083   -1.2546    0.9048 O   0  0  0  0  0  0  0  0  0  0  0  0
   -2.1233   -0.0140   -0.9958 N   0  0  0  0  0  0  0  0  0  0  0  0
   -2.7247    0.2152   -1.7825 H   0  0  0  0  0  0  0  0  0  0  0  0
   -0.8558    0.7446   -0.9052 C   0  0  1  0  0  0  0  0  0  0  0  0
   -0.8446    1.2903    0.0447 H   0  0  0  0  0  0  0  0  0  0  0  0
    0.4667   -0.0698   -1.0085 C   0  0  0  0  0  0  0  0  0  0  0  0
    0.4310   -0.6636   -1.9264 H   0  0  0  0  0  0  0  0  0  0  0  0
    1.3068    0.6265   -1.1023 H   0  0  0  0  0  0  0  0  0  0  0  0
    0.7921   -1.0206    0.1116 C   0  0  0  0  0  0  0  0  0  0  0  0
    0.5614   -2.3753    0.1569 C   0  0  0  0  0  0  0  0  0  0  0  0
    0.0603   -2.9571   -0.6114 H   0  0  0  0  0  0  0  0  0  0  0  0
    1.0672   -2.8518    1.3646 N   0  0  0  0  0  0  0  0  0  0  0  0
    0.9649   -3.8028    1.7091 H   0  0  0  0  0  0  0  0  0  0  0  0
    1.6151   -1.8138    2.0998 C   0  0  0  0  0  0  0  0  0  0  0  0
    2.2223   -1.7855    3.3554 C   0  0  0  0  0  0  0  0  0  0  0  0
    2.3253   -2.6979    3.9318 H   0  0  0  0  0  0  0  0  0  0  0  0
    2.6938   -0.5650    3.8591 C   0  0  0  0  0  0  0  0  0  0  0  0
    3.1691   -0.5291    4.8347 H   0  0  0  0  0  0  0  0  0  0  0  0
    2.5478    0.6102    3.1058 C   0  0  0  0  0  0  0  0  0  0  0  0
    2.9085    1.5551    3.5002 H   0  0  0  0  0  0  0  0  0  0  0  0
    1.9300    0.5700    1.8474 C   0  0  0  0  0  0  0  0  0  0  0  0
    1.8061    1.4776    1.2668 H   0  0  0  0  0  0  0  0  0  0  0  0
    1.4666   -0.6529    1.3505 C   0  0  0  0  0  0  0  0  0  0  0  0
   -0.8393    1.7752   -2.0580 C   0  0  0  0  0  0  0  0  0  0  0  0
   -1.4494    2.8264   -1.9261 O   0  0  0  0  0  0  0  0  0  0  0  0
   -0.3106    1.4818   -3.3053 N   0  0  0  0  0  0  0  0  0  0  0  0
    0.1724    0.5952   -3.4146 H   0  0  0  0  0  0  0  0  0  0  0  0
   -0.3572    2.4024   -4.4356 C   0  0  0  0  0  0  0  0  0  0  0  0
    0.1728    3.3306   -4.1973 H   0  0  0  0  0  0  0  0  0  0  0  0
    0.1167    1.9493   -5.3115 H   0  0  0  0  0  0  0  0  0  0  0  0
   -1.3939    2.6449   -4.6915 H   0  0  0  0  0  0  0  0  0  0  0  0
  1  2  1  0  0  0  0
  2  3  1  0  0  0  0
  2  4  1  0  0  0  0
  2  5  1  0  0  0  0
  5  6  2  0  0  0  0
  5  7  1  0  0  0  0
  7  8  1  0  0  0  0
  7  9  1  0  0  0  0
  9 10  1  0  0  0  0
  9 11  1  0  0  0  0
  9 29  1  0  0  0  0
 11 12  1  0  0  0  0
 11 13  1  0  0  0  0
 11 14  1  0  0  0  0
 14 15  2  0  0  0  0
 14 28  1  0  0  0  0
 15 16  1  0  0  0  0
 15 17  1  0  0  0  0
 17 18  1  0  0  0  0
 17 19  1  0  0  0  0
 19 20  1  0  0  0  0
 19 28  2  0  0  0  0
 20 21  1  0  0  0  0
 20 22  2  0  0  0  0
 22 23  1  0  0  0  0
 22 24  1  0  0  0  0
 24 25  1  0  0  0  0
 24 26  2  0  0  0  0
 26 27  1  0  0  0  0
 26 28  1  0  0  0  0
 29 30  2  0  0  0  0
 29 31  1  0  0  0  0
 31 32  1  0  0  0  0
 31 33  1  0  0  0  0
 33 34  1  0  0  0  0
 33 35  1  0  0  0  0
 33 36  1  0  0  0  0
M  END
$$$$

  -OEChem-01062216103D

 36 37  0     1  0  0  0  0  0999 V2000
   -4.0604   -2.5831    0.1664 H   0  0  0  0  0  0  0  0  0  0  0  0
   -3.8415   -1.8080   -0.5735 C   0  0  0  0  0  0  0  0  0  0  0  0
   -4.6996   -1.1349   -0.6414 H   0  0  0  0  0  0  0  0  0  0  0  0
   -3.6809   -2.2838   -1.5437 H   0  0  0  0  0  0  0  0  0  0  0  0
   -2.6051   -1.0301   -0.1635 C   0  0  0  0  0  0  0  0  0  0  0  0
   -2.1192   -1.2324    0.9311 O   0  0  0  0  0  0  0  0  0  0  0  0
   -2.1523   -0.0203   -0.9869 N   0  0  0  0  0  0  0  0  0  0  0  0
   -2.7418    0.1709   -1.7921 H   0  0  0  0  0  0  0  0  0  0  0  0
   -0.8878    0.7448   -0.9025 C   0  0  1  0  0  0  0  0  0  0  0  0
   -0.8739    1.2913    0.0469 H   0  0  0  0  0  0  0  0  0  0  0  0
    0.4387   -0.0586   -1.0197 C   0  0  0  0  0  0  0  0  0  0  0  0
    0.4043   -0.6449   -1.9423 H   0  0  0  0  0  0  0  0  0  0  0  0
    1.2724    0.6456   -1.1138 H   0  0  0  0  0  0  0  0  0  0  0  0
    0.7759   -1.0121    0.0954 C   0  0  0  0  0  0  0  0  0  0  0  0
    0.5538   -2.3684    0.1371 C   0  0  0  0  0  0  0  0  0  0  0  0
    0.0547   -2.9517   -0.6314 H   0  0  0  0  0  0  0  0  0  0  0  0
    1.0710   -2.8470    1.3394 N   0  0  0  0  0  0  0  0  0  0  0  0
    0.9836   -3.8019    1.6776 H   0  0  0  0  0  0  0  0  0  0  0  0
    1.6157   -1.8080    2.0763 C   0  0  0  0  0  0  0  0  0  0  0  0
    2.2314   -1.7797    3.3280 C   0  0  0  0  0  0  0  0  0  0  0  0
    2.3471   -2.6934    3.8997 H   0  0  0  0  0  0  0  0  0  0  0  0
    2.6946   -0.5570    3.8345 C   0  0  0  0  0  0  0  0  0  0  0  0
    3.1757   -0.5202    4.8071 H   0  0  0  0  0  0  0  0  0  0  0  0
    2.5331    0.6201    3.0876 C   0  0  0  0  0  0  0  0  0  0  0  0
    2.8880    1.5667    3.4837 H   0  0  0  0  0  0  0  0  0  0  0  0
    1.9082    0.5799    1.8326 C   0  0  0  0  0  0  0  0  0  0  0  0
    1.7734    1.4892    1.2563 H   0  0  0  0  0  0  0  0  0  0  0  0
    1.4532   -0.6450    1.3328 C   0  0  0  0  0  0  0  0  0  0  0  0
   -0.8661    1.7679   -2.0583 C   0  0  0  0  0  0  0  0  0  0  0  0
   -1.1738    2.9315   -1.8467 O   0  0  0  0  0  0  0  0  0  0  0  0
   -0.6198    1.3750   -3.3640 N   0  0  0  0  0  0  0  0  0  0  0  0
   -0.3435    0.4102   -3.5193 H   0  0  0  0  0  0  0  0  0  0  0  0
   -0.6152    2.3005   -4.4912 C   0  0  0  0  0  0  0  0  0  0  0  0
    0.1572    3.0651   -4.3564 H   0  0  0  0  0  0  0  0  0  0  0  0
   -0.4110    1.7626   -5.4219 H   0  0  0  0  0  0  0  0  0  0  0  0
   -1.5876    2.7954   -4.5858 H   0  0  0  0  0  0  0  0  0  0  0  0
  1  2  1  0  0  0  0
  2  3  1  0  0  0  0
  2  4  1  0  0  0  0
  2  5  1  0  0  0  0
  5  6  2  0  0  0  0
  5  7  1  0  0  0  0
  7  8  1  0  0  0  0
  7  9  1  0  0  0  0
  9 10  1  0  0  0  0
  9 11  1  0  0  0  0
  9 29  1  0  0  0  0
 11 12  1  0  0  0  0
 11 13  1  0  0  0  0
 11 14  1  0  0  0  0
 14 15  2  0  0  0  0
 14 28  1  0  0  0  0
 15 16  1  0  0  0  0
 15 17  1  0  0  0  0
 17 18  1  0  0  0  0
 17 19  1  0  0  0  0
 19 20  1  0  0  0  0
 19 28  2  0  0  0  0
 20 21  1  0  0  0  0
 20 22  2  0  0  0  0
 22 23  1  0  0  0  0
 22 24  1  0  0  0  0
 24 25  1  0  0  0  0
 24 26  2  0  0  0  0
 26 27  1  0  0  0  0
 26 28  1  0  0  0  0
 29 30  2  0  0  0  0
 29 31  1  0  0  0  0
 31 32  1  0  0  0  0
 31 33  1  0  0  0  0
 33 34  1  0  0  0  0
 33 35  1  0  0  0  0
 33 36  1  0  0  0  0
M  END
$$$$

  -OEChem-01062216103D

 36 37  0     1  0  0  0  0  0999 V2000
   -4.0201   -2.6099    0.2359 H   0  0  0  0  0  0  0  0  0  0  0  0
   -3.8273   -1.8365   -0.5133 C   0  0  0  0  0  0  0  0  0  0  0  0
   -4.7031   -1.1864   -0.5800 H   0  0  0  0  0  0  0  0  0  0  0  0
   -3.6624   -2.3176   -1.4799 H   0  0  0  0  0  0  0  0  0  0  0  0
   -2.6079   -1.0236   -0.1205 C   0  0  0  0  0  0  0  0  0  0  0  0
   -2.1181   -1.1922    0.9781 O   0  0  0  0  0  0  0  0  0  0  0  0
   -2.1754   -0.0195   -0.9624 N   0  0  0  0  0  0  0  0  0  0  0  0
   -2.7639    0.1431   -1.7742 H   0  0  0  0  0  0  0  0  0  0  0  0
   -0.9188    0.7611   -0.8873 C   0  0  1  0  0  0  0  0  0  0  0  0
   -0.8986    1.3087    0.0616 H   0  0  0  0  0  0  0  0  0  0  0  0
    0.4093   -0.0320   -1.0330 C   0  0  0  0  0  0  0  0  0  0  0  0
    0.3685   -0.6044   -1.9643 H   0  0  0  0  0  0  0  0  0  0  0  0
    1.2380    0.6780   -1.1276 H   0  0  0  0  0  0  0  0  0  0  0  0
    0.7621   -0.9939    0.0689 C   0  0  0  0  0  0  0  0  0  0  0  0
    0.5445   -2.3511    0.0984 C   0  0  0  0  0  0  0  0  0  0  0  0
    0.0449   -2.9282   -0.6742 H   0  0  0  0  0  0  0  0  0  0  0  0
    1.0669   -2.8386    1.2947 N   0  0  0  0  0  0  0  0  0  0  0  0
    0.9879   -3.7971    1.6236 H   0  0  0  0  0  0  0  0  0  0  0  0
    1.6069   -1.8037    2.0406 C   0  0  0  0  0  0  0  0  0  0  0  0
    2.2218   -1.7838    3.2925 C   0  0  0  0  0  0  0  0  0  0  0  0
    2.3424   -2.7024    3.8550 H   0  0  0  0  0  0  0  0  0  0  0  0
    2.6772   -0.5633    3.8113 C   0  0  0  0  0  0  0  0  0  0  0  0
    3.1566   -0.5334    4.7851 H   0  0  0  0  0  0  0  0  0  0  0  0
    2.5096    0.6201    3.0756 C   0  0  0  0  0  0  0  0  0  0  0  0
    2.8580    1.5650    3.4813 H   0  0  0  0  0  0  0  0  0  0  0  0
    1.8870    0.5883    1.8193 C   0  0  0  0  0  0  0  0  0  0  0  0
    1.7476    1.5017    1.2506 H   0  0  0  0  0  0  0  0  0  0  0  0
    1.4388   -0.6346    1.3084 C   0  0  0  0  0  0  0  0  0  0  0  0
   -0.8973    1.7733   -2.0500 C   0  0  0  0  0  0  0  0  0  0  0  0
   -0.8858    2.9739   -1.8235 O   0  0  0  0  0  0  0  0  0  0  0  0
   -0.9499    1.3379   -3.3642 N   0  0  0  0  0  0  0  0  0  0  0  0
   -0.8617    0.3394   -3.5271 H   0  0  0  0  0  0  0  0  0  0  0  0
   -0.8936    2.2450   -4.5047 C   0  0  0  0  0  0  0  0  0  0  0  0
    0.0433    2.8121   -4.4981 H   0  0  0  0  0  0  0  0  0  0  0  0
   -0.9505    1.6809   -5.4405 H   0  0  0  0  0  0  0  0  0  0  0  0
   -1.7317    2.9495   -4.4756 H   0  0  0  0  0  0  0  0  0  0  0  0
  1  2  1  0  0  0  0
  2  3  1  0  0  0  0
  2  4  1  0  0  0  0
  2  5  1  0  0  0  0
  5  6  2  0  0  0  0
  5  7  1  0  0  0  0
  7  8  1  0  0  0  0
  7  9  1  0  0  0  0
  9 10  1  0  0  0  0
  9 11  1  0  0  0  0
  9 29  1  0  0  0  0
 11 12  1  0  0  0  0
 11 13  1  0  0  0  0
 11 14  1  0  0  0  0
 14 15  2  0  0  0  0
 14 28  1  0  0  0  0
 15 16  1  0  0  0  0
 15 17  1  0  0  0  0
 17 18  1  0  0  0  0
 17 19  1  0  0  0  0
 19 20  1  0  0  0  0
 19 28  2  0  0  0  0
 20 21  1  0  0  0  0
 20 22  2  0  0  0  0
 22 23  1  0  0  0  0
 22 24  1  0  0  0  0
 24 25  1  0  0  0  0
 24 26  2  0  0  0  0
 26 27  1  0  0  0  0
 26 28  1  0  0  0  0
 29 30  2  0  0  0  0
 29 31  1  0  0  0  0
 31 32  1  0  0  0  0
 31 33  1  0  0  0  0
 33 34  1  0  0  0  0
 33 35  1  0  0  0  0
 33 36  1  0  0  0  0
M  END
$$$$

  -OEChem-01062216103D

 36 37  0     1  0  0  0  0  0999 V2000
   -3.9932   -2.6344    0.2839 H   0  0  0  0  0  0  0  0  0  0  0  0
   -3.8205   -1.8588   -0.4679 C   0  0  0  0  0  0  0  0  0  0  0  0
   -4.7060   -1.2213   -0.5250 H   0  0  0  0  0  0  0  0  0  0  0  0
   -3.6601   -2.3384   -1.4362 H   0  0  0  0  0  0  0  0  0  0  0  0
   -2.6084   -1.0285   -0.0890 C   0  0  0  0  0  0  0  0  0  0  0  0
   -2.1148   -1.1762    1.0109 O   0  0  0  0  0  0  0  0  0  0  0  0
   -2.1919   -0.0266   -0.9417 N   0  0  0  0  0  0  0  0  0  0  0  0
   -2.7960    0.1385   -1.7409 H   0  0  0  0  0  0  0  0  0  0  0  0
   -0.9445    0.7709   -0.8706 C   0  0  1  0  0  0  0  0  0  0  0  0
   -0.9215    1.3175    0.0786 H   0  0  0  0  0  0  0  0  0  0  0  0
    0.3845   -0.0148   -1.0379 C   0  0  0  0  0  0  0  0  0  0  0  0
    0.3351   -0.5752   -1.9764 H   0  0  0  0  0  0  0  0  0  0  0  0
    1.2108    0.6982   -1.1333 H   0  0  0  0  0  0  0  0  0  0  0  0
    0.7504   -0.9850    0.0524 C   0  0  0  0  0  0  0  0  0  0  0  0
    0.5386   -2.3433    0.0741 C   0  0  0  0  0  0  0  0  0  0  0  0
    0.0412   -2.9183   -0.7014 H   0  0  0  0  0  0  0  0  0  0  0  0
    1.0647   -2.8353    1.2670 N   0  0  0  0  0  0  0  0  0  0  0  0
    0.9904   -3.7961    1.5904 H   0  0  0  0  0  0  0  0  0  0  0  0
    1.6012   -1.8023    2.0183 C   0  0  0  0  0  0  0  0  0  0  0  0
    2.2156   -1.7852    3.2707 C   0  0  0  0  0  0  0  0  0  0  0  0
    2.3393   -2.7058    3.8296 H   0  0  0  0  0  0  0  0  0  0  0  0
    2.6661   -0.5649    3.7947 C   0  0  0  0  0  0  0  0  0  0  0  0
    3.1448   -0.5369    4.7687 H   0  0  0  0  0  0  0  0  0  0  0  0
    2.4942    0.6209    3.0638 C   0  0  0  0  0  0  0  0  0  0  0  0
    2.8394    1.5656    3.4726 H   0  0  0  0  0  0  0  0  0  0  0  0
    1.8717    0.5919    1.8074 C   0  0  0  0  0  0  0  0  0  0  0  0
    1.7291    1.5068    1.2414 H   0  0  0  0  0  0  0  0  0  0  0  0
    1.4281   -0.6304    1.2920 C   0  0  0  0  0  0  0  0  0  0  0  0
   -0.9183    1.7794   -2.0358 C   0  0  0  0  0  0  0  0  0  0  0  0
   -0.6224    2.9481   -1.8361 O   0  0  0  0  0  0  0  0  0  0  0  0
   -1.2625    1.3783   -3.3169 N   0  0  0  0  0  0  0  0  0  0  0  0
   -1.3372    0.3792   -3.4808 H   0  0  0  0  0  0  0  0  0  0  0  0
   -1.1881    2.2706   -4.4679 C   0  0  0  0  0  0  0  0  0  0  0  0
   -0.1634    2.6300   -4.6096 H   0  0  0  0  0  0  0  0  0  0  0  0
   -1.4998    1.7453   -5.3757 H   0  0  0  0  0  0  0  0  0  0  0  0
   -1.8471    3.1337   -4.3263 H   0  0  0  0  0  0  0  0  0  0  0  0
  1  2  1  0  0  0  0
  2  3  1  0  0  0  0
  2  4  1  0  0  0  0
  2  5  1  0  0  0  0
  5  6  2  0  0  0  0
  5  7  1  0  0  0  0
  7  8  1  0  0  0  0
  7  9  1  0  0  0  0
  9 10  1  0  0  0  0
  9 11  1  0  0  0  0
  9 29  1  0  0  0  0
 11 12  1  0  0  0  0
 11 13  1  0  0  0  0
 11 14  1  0  0  0  0
 14 15  2  0  0  0  0
 14 28  1  0  0  0  0
 15 16  1  0  0  0  0
 15 17  1  0  0  0  0
 17 18  1  0  0  0  0
 17 19  1  0  0  0  0
 19 20  1  0  0  0  0
 19 28  2  0  0  0  0
 20 21  1  0  0  0  0
 20 22  2  0  0  0  0
 22 23  1  0  0  0  0
 22 24  1  0  0  0  0
 24 25  1  0  0  0  0
 24 26  2  0  0  0  0
 26 27  1  0  0  0  0
 26 28  1  0  0  0  0
 29 30  2  0  0  0  0
 29 31  1  0  0  0  0
 31 32  1  0  0  0  0
 31 33  1  0  0  0  0
 33 34  1  0  0  0  0
 33 35  1  0  0  0  0
 33 36  1  0  0  0  0
M  END
$$$$

  -OEChem-01062216103D

 36 37  0     1  0  0  0  0  0999 V2000
   -4.0130   -2.6505    0.3061 H   0  0  0  0  0  0  0  0  0  0  0  0
   -3.8345   -1.8828   -0.4524 C   0  0  0  0  0  0  0  0  0  0  0  0
   -4.7181   -1.2434   -0.5191 H   0  0  0  0  0  0  0  0  0  0  0  0
   -3.6722   -2.3729   -1.4150 H   0  0  0  0  0  0  0  0  0  0  0  0
   -2.6200   -1.0530   -0.0785 C   0  0  0  0  0  0  0  0  0  0  0  0
   -2.1234   -1.1998    1.0200 O   0  0  0  0  0  0  0  0  0  0  0  0
   -2.2100   -0.0487   -0.9322 N   0  0  0  0  0  0  0  0  0  0  0  0
   -2.8395    0.1391   -1.7053 H   0  0  0  0  0  0  0  0  0  0  0  0
   -0.9723    0.7668   -0.8601 C   0  0  1  0  0  0  0  0  0  0  0  0
   -0.9549    1.3119    0.0901 H   0  0  0  0  0  0  0  0  0  0  0  0
    0.3613   -0.0128   -1.0293 C   0  0  0  0  0  0  0  0  0  0  0  0
    0.3119   -0.5697   -1.9702 H   0  0  0  0  0  0  0  0  0  0  0  0
    1.1862    0.7020   -1.1245 H   0  0  0  0  0  0  0  0  0  0  0  0
    0.7356   -0.9826    0.0591 C   0  0  0  0  0  0  0  0  0  0  0  0
    0.5320   -2.3420    0.0799 C   0  0  0  0  0  0  0  0  0  0  0  0
    0.0341   -2.9184   -0.6945 H   0  0  0  0  0  0  0  0  0  0  0  0
    1.0686   -2.8330    1.2687 N   0  0  0  0  0  0  0  0  0  0  0  0
    1.0052   -3.7957    1.5889 H   0  0  0  0  0  0  0  0  0  0  0  0
    1.6065   -1.7985    2.0172 C   0  0  0  0  0  0  0  0  0  0  0  0
    2.2344   -1.7805    3.2630 C   0  0  0  0  0  0  0  0  0  0  0  0
    2.3694   -2.7008    3.8198 H   0  0  0  0  0  0  0  0  0  0  0  0
    2.6845   -0.5591    3.7840 C   0  0  0  0  0  0  0  0  0  0  0  0
    3.1739   -0.5307    4.7528 H   0  0  0  0  0  0  0  0  0  0  0  0
    2.4991    0.6273    3.0569 C   0  0  0  0  0  0  0  0  0  0  0  0
    2.8448    1.5729    3.4631 H   0  0  0  0  0  0  0  0  0  0  0  0
    1.8629    0.5973    1.8074 C   0  0  0  0  0  0  0  0  0  0  0  0
    1.7102    1.5122    1.2441 H   0  0  0  0  0  0  0  0  0  0  0  0
    1.4204   -0.6264    1.2946 C   0  0  0  0  0  0  0  0  0  0  0  0
   -0.9348    1.7795   -2.0241 C   0  0  0  0  0  0  0  0  0  0  0  0
   -0.4027    2.8698   -1.8734 O   0  0  0  0  0  0  0  0  0  0  0  0
   -1.5401    1.4883   -3.2370 N   0  0  0  0  0  0  0  0  0  0  0  0
   -1.7755    0.5159   -3.4052 H   0  0  0  0  0  0  0  0  0  0  0  0
   -1.4694    2.3882   -4.3830 C   0  0  0  0  0  0  0  0  0  0  0  0
   -0.4303    2.5236   -4.7015 H   0  0  0  0  0  0  0  0  0  0  0  0
   -2.0395    1.9779   -5.2221 H   0  0  0  0  0  0  0  0  0  0  0  0
   -1.8896    3.3674   -4.1291 H   0  0  0  0  0  0  0  0  0  0  0  0
  1  2  1  0  0  0  0
  2  3  1  0  0  0  0
  2  4  1  0  0  0  0
  2  5  1  0  0  0  0
  5  6  2  0  0  0  0
  5  7  1  0  0  0  0
  7  8  1  0  0  0  0
  7  9  1  0  0  0  0
  9 10  1  0  0  0  0
  9 11  1  0  0  0  0
  9 29  1  0  0  0  0
 11 12  1  0  0  0  0
 11 13  1  0  0  0  0
 11 14  1  0  0  0  0
 14 15  2  0  0  0  0
 14 28  1  0  0  0  0
 15 16  1  0  0  0  0
 15 17  1  0  0  0  0
 17 18  1  0  0  0  0
 17 19  1  0  0  0  0
 19 20  1  0  0  0  0
 19 28  2  0  0  0  0
 20 21  1  0  0  0  0
 20 22  2  0  0  0  0
 22 23  1  0  0  0  0
 22 24  1  0  0  0  0
 24 25  1  0  0  0  0
 24 26  2  0  0  0  0
 26 27  1  0  0  0  0
 26 28  1  0  0  0  0
 29 30  2  0  0  0  0
 29 31  1  0  0  0  0
 31 32  1  0  0  0  0
 31 33  1  0  0  0  0
 33 34  1  0  0  0  0
 33 35  1  0  0  0  0
 33 36  1  0  0  0  0
M  END
$$$$

  -OEChem-01062216103D

 36 37  0     1  0  0  0  0  0999 V2000
   -3.8872   -2.7314    0.3553 H   0  0  0  0  0  0  0  0  0  0  0  0
   -3.7514   -1.9651   -0.4133 C   0  0  0  0  0  0  0  0  0  0  0  0
   -4.6771   -1.3917   -0.5050 H   0  0  0  0  0  0  0  0  0  0  0  0
   -3.5373   -2.4573   -1.3646 H   0  0  0  0  0  0  0  0  0  0  0  0
   -2.6065   -1.0452   -0.0331 C   0  0  0  0  0  0  0  0  0  0  0  0
   -2.1501   -1.1048    1.0913 O   0  0  0  0  0  0  0  0  0  0  0  0
   -2.2260   -0.0503   -0.9108 N   0  0  0  0  0  0  0  0  0  0  0  0
   -2.8078    0.0335   -1.7347 H   0  0  0  0  0  0  0  0  0  0  0  0
   -0.9906    0.7714   -0.8589 C   0  0  1  0  0  0  0  0  0  0  0  0
   -0.9602    1.3169    0.0905 H   0  0  0  0  0  0  0  0  0  0  0  0
    0.3287   -0.0350   -1.0347 C   0  0  0  0  0  0  0  0  0  0  0  0
    0.2579   -0.5997   -1.9697 H   0  0  0  0  0  0  0  0  0  0  0  0
    1.1689    0.6592   -1.1451 H   0  0  0  0  0  0  0  0  0  0  0  0
    0.6992   -0.9988    0.0605 C   0  0  0  0  0  0  0  0  0  0  0  0
    0.4738   -2.3544    0.1030 C   0  0  0  0  0  0  0  0  0  0  0  0
   -0.0375   -2.9345   -0.6598 H   0  0  0  0  0  0  0  0  0  0  0  0
    1.0128   -2.8363    1.2944 N   0  0  0  0  0  0  0  0  0  0  0  0
    0.9436   -3.7944    1.6266 H   0  0  0  0  0  0  0  0  0  0  0  0
    1.5721   -1.7993    2.0240 C   0  0  0  0  0  0  0  0  0  0  0  0
    2.2100   -1.7706    3.2647 C   0  0  0  0  0  0  0  0  0  0  0  0
    2.3374   -2.6840    3.8344 H   0  0  0  0  0  0  0  0  0  0  0  0
    2.6806   -0.5473    3.7638 C   0  0  0  0  0  0  0  0  0  0  0  0
    3.1780   -0.5108    4.7281 H   0  0  0  0  0  0  0  0  0  0  0  0
    2.5059    0.6304    3.0204 C   0  0  0  0  0  0  0  0  0  0  0  0
    2.8670    1.5774    3.4098 H   0  0  0  0  0  0  0  0  0  0  0  0
    1.8611    0.5900    1.7757 C   0  0  0  0  0  0  0  0  0  0  0  0
    1.7171    1.4981    1.1988 H   0  0  0  0  0  0  0  0  0  0  0  0
    1.3980   -0.6354    1.2853 C   0  0  0  0  0  0  0  0  0  0  0  0
   -0.9355    1.7902   -2.0230 C   0  0  0  0  0  0  0  0  0  0  0  0
   -0.1918    2.7586   -1.9483 O   0  0  0  0  0  0  0  0  0  0  0  0
   -1.7654    1.6844   -3.1299 N   0  0  0  0  0  0  0  0  0  0  0  0
   -2.2316    0.7985   -3.2788 H   0  0  0  0  0  0  0  0  0  0  0  0
   -1.7152    2.6281   -4.2416 C   0  0  0  0  0  0  0  0  0  0  0  0
   -0.7301    2.6065   -4.7198 H   0  0  0  0  0  0  0  0  0  0  0  0
   -2.4704    2.3715   -4.9909 H   0  0  0  0  0  0  0  0  0  0  0  0
   -1.9135    3.6461   -3.8892 H   0  0  0  0  0  0  0  0  0  0  0  0
  1  2  1  0  0  0  0
  2  3  1  0  0  0  0
  2  4  1  0  0  0  0
  2  5  1  0  0  0  0
  5  6  2  0  0  0  0
  5  7  1  0  0  0  0
  7  8  1  0  0  0  0
  7  9  1  0  0  0  0
  9 10  1  0  0  0  0
  9 11  1  0  0  0  0
  9 29  1  0  0  0  0
 11 12  1  0  0  0  0
 11 13  1  0  0  0  0
 11 14  1  0  0  0  0
 14 15  2  0  0  0  0
 14 28  1  0  0  0  0
 15 16  1  0  0  0  0
 15 17  1  0  0  0  0
 17 18  1  0  0  0  0
 17 19  1  0  0  0  0
 19 20  1  0  0  0  0
 19 28  2  0  0  0  0
 20 21  1  0  0  0  0
 20 22  2  0  0  0  0
 22 23  1  0  0  0  0
 22 24  1  0  0  0  0
 24 25  1  0  0  0  0
 24 26  2  0  0  0  0
 26 27  1  0  0  0  0
 26 28  1  0  0  0  0
 29 30  2  0  0  0  0
 29 31  1  0  0  0  0
 31 32  1  0  0  0  0
 31 33  1  0  0  0  0
 33 34  1  0  0  0  0
 33 35  1  0  0  0  0
 33 36  1  0  0  0  0
M  END
$$$$

  -OEChem-01062216103D

 36 37  0     1  0  0  0  0  0999 V2000
   -3.5017   -2.8066    0.4243 H   0  0  0  0  0  0  0  0  0  0  0  0
   -3.4309   -2.0861   -0.3956 C   0  0  0  0  0  0  0  0  0  0  0  0
   -4.4338   -1.7226   -0.6326 H   0  0  0  0  0  0  0  0  0  0  0  0
   -3.0151   -2.5915   -1.2704 H   0  0  0  0  0  0  0  0  0  0  0  0
   -2.5413   -0.9260    0.0092 C   0  0  0  0  0  0  0  0  0  0  0  0
   -2.2434   -0.7753    1.1788 O   0  0  0  0  0  0  0  0  0  0  0  0
   -2.2175    0.0421   -0.9183 N   0  0  0  0  0  0  0  0  0  0  0  0
   -2.5450   -0.1953   -1.8484 H   0  0  0  0  0  0  0  0  0  0  0  0
   -0.9540    0.8201   -0.8943 C   0  0  1  0  0  0  0  0  0  0  0  0
   -0.8879    1.3775    0.0463 H   0  0  0  0  0  0  0  0  0  0  0  0
    0.3216   -0.0589   -1.0666 C   0  0  0  0  0  0  0  0  0  0  0  0
    0.2154   -0.6364   -1.9902 H   0  0  0  0  0  0  0  0  0  0  0  0
    1.1999    0.5825   -1.1925 H   0  0  0  0  0  0  0  0  0  0  0  0
    0.6416   -1.0144    0.0537 C   0  0  0  0  0  0  0  0  0  0  0  0
    0.3392   -2.3539    0.1300 C   0  0  0  0  0  0  0  0  0  0  0  0
   -0.1902   -2.9273   -0.6256 H   0  0  0  0  0  0  0  0  0  0  0  0
    0.8362   -2.8323    1.3407 N   0  0  0  0  0  0  0  0  0  0  0  0
    0.7255   -3.7798    1.6924 H   0  0  0  0  0  0  0  0  0  0  0  0
    1.4490   -1.8098    2.0470 C   0  0  0  0  0  0  0  0  0  0  0  0
    2.0782   -1.7857    3.2920 C   0  0  0  0  0  0  0  0  0  0  0  0
    2.1447   -2.6894    3.8870 H   0  0  0  0  0  0  0  0  0  0  0  0
    2.6183   -0.5798    3.7617 C   0  0  0  0  0  0  0  0  0  0  0  0
    3.1095   -0.5460    4.7293 H   0  0  0  0  0  0  0  0  0  0  0  0
    2.5214    0.5847    2.9842 C   0  0  0  0  0  0  0  0  0  0  0  0
    2.9368    1.5185    3.3503 H   0  0  0  0  0  0  0  0  0  0  0  0
    1.8841    0.5489    1.7356 C   0  0  0  0  0  0  0  0  0  0  0  0
    1.8019    1.4467    1.1316 H   0  0  0  0  0  0  0  0  0  0  0  0
    1.3505   -0.6589    1.2750 C   0  0  0  0  0  0  0  0  0  0  0  0
   -0.9193    1.8300   -2.0712 C   0  0  0  0  0  0  0  0  0  0  0  0
    0.0612    2.5341   -2.2730 O   0  0  0  0  0  0  0  0  0  0  0  0
   -1.9779    1.9133   -2.9632 N   0  0  0  0  0  0  0  0  0  0  0  0
   -2.8622    1.5407   -2.6338 H   0  0  0  0  0  0  0  0  0  0  0  0
   -2.0122    2.8856   -4.0507 C   0  0  0  0  0  0  0  0  0  0  0  0
   -1.1496    2.7528   -4.7124 H   0  0  0  0  0  0  0  0  0  0  0  0
   -2.9225    2.7562   -4.6440 H   0  0  0  0  0  0  0  0  0  0  0  0
   -1.9972    3.9062   -3.6541 H   0  0  0  0  0  0  0  0  0  0  0  0
  1  2  1  0  0  0  0
  2  3  1  0  0  0  0
  2  4  1  0  0  0  0
  2  5  1  0  0  0  0
  5  6  2  0  0  0  0
  5  7  1  0  0  0  0
  7  8  1  0  0  0  0
  7  9  1  0  0  0  0
  9 10  1  0  0  0  0
  9 11  1  0  0  0  0
  9 29  1  0  0  0  0
 11 12  1  0  0  0  0
 11 13  1  0  0  0  0
 11 14  1  0  0  0  0
 14 15  2  0  0  0  0
 14 28  1  0  0  0  0
 15 16  1  0  0  0  0
 15 17  1  0  0  0  0
 17 18  1  0  0  0  0
 17 19  1  0  0  0  0
 19 20  1  0  0  0  0
 19 28  2  0  0  0  0
 20 21  1  0  0  0  0
 20 22  2  0  0  0  0
 22 23  1  0  0  0  0
 22 24  1  0  0  0  0
 24 25  1  0  0  0  0
 24 26  2  0  0  0  0
 26 27  1  0  0  0  0
 26 28  1  0  0  0  0
 29 30  2  0  0  0  0
 29 31  1  0  0  0  0
 31 32  1  0  0  0  0
 31 33  1  0  0  0  0
 33 34  1  0  0  0  0
 33 35  1  0  0  0  0
 33 36  1  0  0  0  0
M  END
$$$$

  -OEChem-01062216103D

 36 37  0     1  0  0  0  0  0999 V2000
   -3.4966   -2.8147    0.3659 H   0  0  0  0  0  0  0  0  0  0  0  0
   -3.4431   -2.0704   -0.4336 C   0  0  0  0  0  0  0  0  0  0  0  0
   -4.4493   -1.6943   -0.6337 H   0  0  0  0  0  0  0  0  0  0  0  0
   -3.0539   -2.5517   -1.3337 H   0  0  0  0  0  0  0  0  0  0  0  0
   -2.5362   -0.9278   -0.0172 C   0  0  0  0  0  0  0  0  0  0  0  0
   -2.2386   -0.7920    1.1544 O   0  0  0  0  0  0  0  0  0  0  0  0
   -2.2005    0.0478   -0.9320 N   0  0  0  0  0  0  0  0  0  0  0  0
   -2.5472   -0.1560   -1.8646 H   0  0  0  0  0  0  0  0  0  0  0  0
   -0.9315    0.8167   -0.9059 C   0  0  1  0  0  0  0  0  0  0  0  0
   -0.8652    1.3766    0.0329 H   0  0  0  0  0  0  0  0  0  0  0  0
    0.3442   -0.0661   -1.0644 C   0  0  0  0  0  0  0  0  0  0  0  0
    0.2442   -0.6467   -1.9867 H   0  0  0  0  0  0  0  0  0  0  0  0
    1.2251    0.5727   -1.1841 H   0  0  0  0  0  0  0  0  0  0  0  0
    0.6557   -1.0158    0.0640 C   0  0  0  0  0  0  0  0  0  0  0  0
    0.3489   -2.3543    0.1427 C   0  0  0  0  0  0  0  0  0  0  0  0
   -0.1784   -2.9284   -0.6139 H   0  0  0  0  0  0  0  0  0  0  0  0
    0.8392   -2.8316    1.3562 N   0  0  0  0  0  0  0  0  0  0  0  0
    0.7226   -3.7778    1.7092 H   0  0  0  0  0  0  0  0  0  0  0  0
    1.4534   -1.8099    2.0620 C   0  0  0  0  0  0  0  0  0  0  0  0
    2.0798   -1.7875    3.3083 C   0  0  0  0  0  0  0  0  0  0  0  0
    2.1426   -2.6912    3.9038 H   0  0  0  0  0  0  0  0  0  0  0  0
    2.6231   -0.5835    3.7791 C   0  0  0  0  0  0  0  0  0  0  0  0
    3.1133   -0.5519    4.7475 H   0  0  0  0  0  0  0  0  0  0  0  0
    2.5311    0.5813    3.0015 C   0  0  0  0  0  0  0  0  0  0  0  0
    2.9488    1.5134    3.3693 H   0  0  0  0  0  0  0  0  0  0  0  0
    1.8977    0.5468    1.7507 C   0  0  0  0  0  0  0  0  0  0  0  0
    1.8207    1.4445    1.1464 H   0  0  0  0  0  0  0  0  0  0  0  0
    1.3613   -0.6594    1.2881 C   0  0  0  0  0  0  0  0  0  0  0  0
   -0.9234    1.8279   -2.0851 C   0  0  0  0  0  0  0  0  0  0  0  0
    0.1055    2.3558   -2.4866 O   0  0  0  0  0  0  0  0  0  0  0  0
   -2.1038    2.1169   -2.7522 N   0  0  0  0  0  0  0  0  0  0  0  0
   -2.9577    1.8625   -2.2639 H   0  0  0  0  0  0  0  0  0  0  0  0
   -2.1889    3.1183   -3.8099 C   0  0  0  0  0  0  0  0  0  0  0  0
   -1.5062    2.8705   -4.6296 H   0  0  0  0  0  0  0  0  0  0  0  0
   -3.2060    3.1589   -4.2114 H   0  0  0  0  0  0  0  0  0  0  0  0
   -1.9285    4.1088   -3.4222 H   0  0  0  0  0  0  0  0  0  0  0  0
  1  2  1  0  0  0  0
  2  3  1  0  0  0  0
  2  4  1  0  0  0  0
  2  5  1  0  0  0  0
  5  6  2  0  0  0  0
  5  7  1  0  0  0  0
  7  8  1  0  0  0  0
  7  9  1  0  0  0  0
  9 10  1  0  0  0  0
  9 11  1  0  0  0  0
  9 29  1  0  0  0  0
 11 12  1  0  0  0  0
 11 13  1  0  0  0  0
 11 14  1  0  0  0  0
 14 15  2  0  0  0  0
 14 28  1  0  0  0  0
 15 16  1  0  0  0  0
 15 17  1  0  0  0  0
 17 18  1  0  0  0  0
 17 19  1  0  0  0  0
 19 20  1  0  0  0  0
 19 28  2  0  0  0  0
 20 21  1  0  0  0  0
 20 22  2  0  0  0  0
 22 23  1  0  0  0  0
 22 24  1  0  0  0  0
 24 25  1  0  0  0  0
 24 26  2  0  0  0  0
 26 27  1  0  0  0  0
 26 28  1  0  0  0  0
 29 30  2  0  0  0  0
 29 31  1  0  0  0  0
 31 32  1  0  0  0  0
 31 33  1  0  0  0  0
 33 34  1  0  0  0  0
 33 35  1  0  0  0  0
 33 36  1  0  0  0  0
M  END
$$$$

  -OEChem-01062216103D

 36 37  0     1  0  0  0  0  0999 V2000
   -3.5636   -2.7821    0.3357 H   0  0  0  0  0  0  0  0  0  0  0  0
   -3.4649   -2.0448   -0.4660 C   0  0  0  0  0  0  0  0  0  0  0  0
   -4.4524   -1.6358   -0.6926 H   0  0  0  0  0  0  0  0  0  0  0  0
   -3.0704   -2.5438   -1.3541 H   0  0  0  0  0  0  0  0  0  0  0  0
   -2.5289   -0.9315   -0.0355 C   0  0  0  0  0  0  0  0  0  0  0  0
   -2.2209   -0.8217    1.1361 O   0  0  0  0  0  0  0  0  0  0  0  0
   -2.1829    0.0542   -0.9348 N   0  0  0  0  0  0  0  0  0  0  0  0
   -2.5536   -0.1107   -1.8663 H   0  0  0  0  0  0  0  0  0  0  0  0
   -0.9112    0.8163   -0.9046 C   0  0  1  0  0  0  0  0  0  0  0  0
   -0.8446    1.3727    0.0361 H   0  0  0  0  0  0  0  0  0  0  0  0
    0.3659   -0.0646   -1.0619 C   0  0  0  0  0  0  0  0  0  0  0  0
    0.2708   -0.6425   -1.9864 H   0  0  0  0  0  0  0  0  0  0  0  0
    1.2444    0.5790   -1.1751 H   0  0  0  0  0  0  0  0  0  0  0  0
    0.6739   -1.0159    0.0658 C   0  0  0  0  0  0  0  0  0  0  0  0
    0.3673   -2.3544    0.1409 C   0  0  0  0  0  0  0  0  0  0  0  0
   -0.1580   -2.9265   -0.6186 H   0  0  0  0  0  0  0  0  0  0  0  0
    0.8510   -2.8332    1.3568 N   0  0  0  0  0  0  0  0  0  0  0  0
    0.7302   -3.7794    1.7083 H   0  0  0  0  0  0  0  0  0  0  0  0
    1.4606   -1.8120    2.0680 C   0  0  0  0  0  0  0  0  0  0  0  0
    2.0782   -1.7879    3.3191 C   0  0  0  0  0  0  0  0  0  0  0  0
    2.1362   -2.6907    3.9165 H   0  0  0  0  0  0  0  0  0  0  0  0
    2.6187   -0.5834    3.7918 C   0  0  0  0  0  0  0  0  0  0  0  0
    3.1004   -0.5503    4.7641 H   0  0  0  0  0  0  0  0  0  0  0  0
    2.5354    0.5797    3.0108 C   0  0  0  0  0  0  0  0  0  0  0  0
    2.9536    1.5116    3.3787 H   0  0  0  0  0  0  0  0  0  0  0  0
    1.9099    0.5440    1.7562 C   0  0  0  0  0  0  0  0  0  0  0  0
    1.8392    1.4400    1.1487 H   0  0  0  0  0  0  0  0  0  0  0  0
    1.3736   -0.6617    1.2933 C   0  0  0  0  0  0  0  0  0  0  0  0
   -0.9268    1.8321   -2.0794 C   0  0  0  0  0  0  0  0  0  0  0  0
    0.0814    2.1685   -2.6872 O   0  0  0  0  0  0  0  0  0  0  0  0
   -2.1415    2.3425   -2.5070 N   0  0  0  0  0  0  0  0  0  0  0  0
   -2.9350    2.1796   -1.8926 H   0  0  0  0  0  0  0  0  0  0  0  0
   -2.2624    3.3542   -3.5504 C   0  0  0  0  0  0  0  0  0  0  0  0
   -1.8203    2.9964   -4.4864 H   0  0  0  0  0  0  0  0  0  0  0  0
   -3.3167    3.5827   -3.7341 H   0  0  0  0  0  0  0  0  0  0  0  0
   -1.7539    4.2764   -3.2504 H   0  0  0  0  0  0  0  0  0  0  0  0
  1  2  1  0  0  0  0
  2  3  1  0  0  0  0
  2  4  1  0  0  0  0
  2  5  1  0  0  0  0
  5  6  2  0  0  0  0
  5  7  1  0  0  0  0
  7  8  1  0  0  0  0
  7  9  1  0  0  0  0
  9 10  1  0  0  0  0
  9 11  1  0  0  0  0
  9 29  1  0  0  0  0
 11 12  1  0  0  0  0
 11 13  1  0  0  0  0
 11 14  1  0  0  0  0
 14 15  2  0  0  0  0
 14 28  1  0  0  0  0
 15 16  1  0  0  0  0
 15 17  1  0  0  0  0
 17 18  1  0  0  0  0
 17 19  1  0  0  0  0
 19 20  1  0  0  0  0
 19 28  2  0  0  0  0
 20 21  1  0  0  0  0
 20 22  2  0  0  0  0
 22 23  1  0  0  0  0
 22 24  1  0  0  0  0
 24 25  1  0  0  0  0
 24 26  2  0  0  0  0
 26 27  1  0  0  0  0
 26 28  1  0  0  0  0
 29 30  2  0  0  0  0
 29 31  1  0  0  0  0
 31 32  1  0  0  0  0
 31 33  1  0  0  0  0
 33 34  1  0  0  0  0
 33 35  1  0  0  0  0
 33 36  1  0  0  0  0
M  END
$$$$

  -OEChem-01062216103D

 36 37  0     1  0  0  0  0  0999 V2000
   -3.5525   -2.8003    0.2858 H   0  0  0  0  0  0  0  0  0  0  0  0
   -3.4924   -2.0290   -0.4873 C   0  0  0  0  0  0  0  0  0  0  0  0
   -4.4898   -1.6127   -0.6489 H   0  0  0  0  0  0  0  0  0  0  0  0
   -3.1407   -2.4891   -1.4136 H   0  0  0  0  0  0  0  0  0  0  0  0
   -2.5374   -0.9335   -0.0524 C   0  0  0  0  0  0  0  0  0  0  0  0
   -2.2212   -0.8419    1.1187 O   0  0  0  0  0  0  0  0  0  0  0  0
   -2.1836    0.0592   -0.9409 N   0  0  0  0  0  0  0  0  0  0  0  0
   -2.5680   -0.0780   -1.8716 H   0  0  0  0  0  0  0  0  0  0  0  0
   -0.9118    0.8182   -0.9014 C   0  0  1  0  0  0  0  0  0  0  0  0
   -0.8504    1.3711    0.0419 H   0  0  0  0  0  0  0  0  0  0  0  0
    0.3709   -0.0555   -1.0496 C   0  0  0  0  0  0  0  0  0  0  0  0
    0.2834   -0.6363   -1.9736 H   0  0  0  0  0  0  0  0  0  0  0  0
    1.2439    0.5961   -1.1615 H   0  0  0  0  0  0  0  0  0  0  0  0
    0.6792   -1.0072    0.0776 C   0  0  0  0  0  0  0  0  0  0  0  0
    0.3796   -2.3476    0.1451 C   0  0  0  0  0  0  0  0  0  0  0  0
   -0.1435   -2.9175   -0.6178 H   0  0  0  0  0  0  0  0  0  0  0  0
    0.8665   -2.8309    1.3577 N   0  0  0  0  0  0  0  0  0  0  0  0
    0.7514   -3.7799    1.7039 H   0  0  0  0  0  0  0  0  0  0  0  0
    1.4735   -1.8113    2.0727 C   0  0  0  0  0  0  0  0  0  0  0  0
    2.0945   -1.7947    3.3219 C   0  0  0  0  0  0  0  0  0  0  0  0
    2.1570   -2.7019    3.9120 H   0  0  0  0  0  0  0  0  0  0  0  0
    2.6325   -0.5922    3.8019 C   0  0  0  0  0  0  0  0  0  0  0  0
    3.1179   -0.5652    4.7726 H   0  0  0  0  0  0  0  0  0  0  0  0
    2.5428    0.5765    3.0299 C   0  0  0  0  0  0  0  0  0  0  0  0
    2.9587    1.5068    3.4043 H   0  0  0  0  0  0  0  0  0  0  0  0
    1.9144    0.5478    1.7764 C   0  0  0  0  0  0  0  0  0  0  0  0
    1.8404    1.4482    1.1761 H   0  0  0  0  0  0  0  0  0  0  0  0
    1.3805   -0.6562    1.3057 C   0  0  0  0  0  0  0  0  0  0  0  0
   -0.9338    1.8378   -2.0707 C   0  0  0  0  0  0  0  0  0  0  0  0
   -0.0090    1.9779   -2.8612 O   0  0  0  0  0  0  0  0  0  0  0  0
   -2.0865    2.5743   -2.2829 N   0  0  0  0  0  0  0  0  0  0  0  0
   -2.8137    2.4963   -1.5762 H   0  0  0  0  0  0  0  0  0  0  0  0
   -2.2136    3.5945   -3.3176 C   0  0  0  0  0  0  0  0  0  0  0  0
   -2.0503    3.1594   -4.3092 H   0  0  0  0  0  0  0  0  0  0  0  0
   -3.2158    4.0331   -3.2949 H   0  0  0  0  0  0  0  0  0  0  0  0
   -1.4822    4.3940   -3.1595 H   0  0  0  0  0  0  0  0  0  0  0  0
  1  2  1  0  0  0  0
  2  3  1  0  0  0  0
  2  4  1  0  0  0  0
  2  5  1  0  0  0  0
  5  6  2  0  0  0  0
  5  7  1  0  0  0  0
  7  8  1  0  0  0  0
  7  9  1  0  0  0  0
  9 10  1  0  0  0  0
  9 11  1  0  0  0  0
  9 29  1  0  0  0  0
 11 12  1  0  0  0  0
 11 13  1  0  0  0  0
 11 14  1  0  0  0  0
 14 15  2  0  0  0  0
 14 28  1  0  0  0  0
 15 16  1  0  0  0  0
 15 17  1  0  0  0  0
 17 18  1  0  0  0  0
 17 19  1  0  0  0  0
 19 20  1  0  0  0  0
 19 28  2  0  0  0  0
 20 21  1  0  0  0  0
 20 22  2  0  0  0  0
 22 23  1  0  0  0  0
 22 24  1  0  0  0  0
 24 25  1  0  0  0  0
 24 26  2  0  0  0  0
 26 27  1  0  0  0  0
 26 28  1  0  0  0  0
 29 30  2  0  0  0  0
 29 31  1  0  0  0  0
 31 32  1  0  0  0  0
 31 33  1  0  0  0  0
 33 34  1  0  0  0  0
 33 35  1  0  0  0  0
 33 36  1  0  0  0  0
M  END
$$$$

  -OEChem-01062216103D

 36 37  0     1  0  0  0  0  0999 V2000
   -3.6317   -2.7418    0.3064 H   0  0  0  0  0  0  0  0  0  0  0  0
   -3.4935   -2.0112   -0.4957 C   0  0  0  0  0  0  0  0  0  0  0  0
   -4.4631   -1.5730   -0.7441 H   0  0  0  0  0  0  0  0  0  0  0  0
   -3.0968   -2.5253   -1.3743 H   0  0  0  0  0  0  0  0  0  0  0  0
   -2.5317   -0.9262   -0.0497 C   0  0  0  0  0  0  0  0  0  0  0  0
   -2.2070   -0.8516    1.1206 O   0  0  0  0  0  0  0  0  0  0  0  0
   -2.1758    0.0735   -0.9290 N   0  0  0  0  0  0  0  0  0  0  0  0
   -2.5695   -0.0481   -1.8581 H   0  0  0  0  0  0  0  0  0  0  0  0
   -0.9014    0.8247   -0.8900 C   0  0  1  0  0  0  0  0  0  0  0  0
   -0.8323    1.3685    0.0578 H   0  0  0  0  0  0  0  0  0  0  0  0
    0.3820   -0.0433   -1.0506 C   0  0  0  0  0  0  0  0  0  0  0  0
    0.2898   -0.6224   -1.9752 H   0  0  0  0  0  0  0  0  0  0  0  0
    1.2497    0.6142   -1.1697 H   0  0  0  0  0  0  0  0  0  0  0  0
    0.6935   -1.0009    0.0702 C   0  0  0  0  0  0  0  0  0  0  0  0
    0.3948   -2.3416    0.1289 C   0  0  0  0  0  0  0  0  0  0  0  0
   -0.1264   -2.9071   -0.6384 H   0  0  0  0  0  0  0  0  0  0  0  0
    0.8760   -2.8310    1.3414 N   0  0  0  0  0  0  0  0  0  0  0  0
    0.7567   -3.7813    1.6826 H   0  0  0  0  0  0  0  0  0  0  0  0
    1.4768   -1.8144    2.0660 C   0  0  0  0  0  0  0  0  0  0  0  0
    2.0879   -1.8033    3.3200 C   0  0  0  0  0  0  0  0  0  0  0  0
    2.1475   -2.7136    3.9057 H   0  0  0  0  0  0  0  0  0  0  0  0
    2.6205   -0.6024    3.8101 C   0  0  0  0  0  0  0  0  0  0  0  0
    3.0964   -0.5792    4.7858 H   0  0  0  0  0  0  0  0  0  0  0  0
    2.5370    0.5694    3.0421 C   0  0  0  0  0  0  0  0  0  0  0  0
    2.9490    1.4982    3.4243 H   0  0  0  0  0  0  0  0  0  0  0  0
    1.9185    0.5461    1.7836 C   0  0  0  0  0  0  0  0  0  0  0  0
    1.8486    1.4493    1.1870 H   0  0  0  0  0  0  0  0  0  0  0  0
    1.3880   -0.6558    1.3039 C   0  0  0  0  0  0  0  0  0  0  0  0
   -0.9286    1.8525   -2.0480 C   0  0  0  0  0  0  0  0  0  0  0  0
   -0.1743    1.7981   -3.0117 O   0  0  0  0  0  0  0  0  0  0  0  0
   -1.9326    2.8038   -2.0560 N   0  0  0  0  0  0  0  0  0  0  0  0
   -2.5522    2.8279   -1.2499 H   0  0  0  0  0  0  0  0  0  0  0  0
   -2.0901    3.8066   -3.1028 C   0  0  0  0  0  0  0  0  0  0  0  0
   -2.2582    3.3265   -4.0725 H   0  0  0  0  0  0  0  0  0  0  0  0
   -2.9477    4.4498   -2.8835 H   0  0  0  0  0  0  0  0  0  0  0  0
   -1.1951    4.4342   -3.1701 H   0  0  0  0  0  0  0  0  0  0  0  0
  1  2  1  0  0  0  0
  2  3  1  0  0  0  0
  2  4  1  0  0  0  0
  2  5  1  0  0  0  0
  5  6  2  0  0  0  0
  5  7  1  0  0  0  0
  7  8  1  0  0  0  0
  7  9  1  0  0  0  0
  9 10  1  0  0  0  0
  9 11  1  0  0  0  0
  9 29  1  0  0  0  0
 11 12  1  0  0  0  0
 11 13  1  0  0  0  0
 11 14  1  0  0  0  0
 14 15  2  0  0  0  0
 14 28  1  0  0  0  0
 15 16  1  0  0  0  0
 15 17  1  0  0  0  0
 17 18  1  0  0  0  0
 17 19  1  0  0  0  0
 19 20  1  0  0  0  0
 19 28  2  0  0  0  0
 20 21  1  0  0  0  0
 20 22  2  0  0  0  0
 22 23  1  0  0  0  0
 22 24  1  0  0  0  0
 24 25  1  0  0  0  0
 24 26  2  0  0  0  0
 26 27  1  0  0  0  0
 26 28  1  0  0  0  0
 29 30  2  0  0  0  0
 29 31  1  0  0  0  0
 31 32  1  0  0  0  0
 31 33  1  0  0  0  0
 33 34  1  0  0  0  0
 33 35  1  0  0  0  0
 33 36  1  0  0  0  0
M  END
$$$$

  -OEChem-01062216103D

 36 37  0     1  0  0  0  0  0999 V2000
   -3.6439   -2.7295    0.3017 H   0  0  0  0  0  0  0  0  0  0  0  0
   -3.5001   -1.9977   -0.4982 C   0  0  0  0  0  0  0  0  0  0  0  0
   -4.4663   -1.5521   -0.7462 H   0  0  0  0  0  0  0  0  0  0  0  0
   -3.1055   -2.5120   -1.3775 H   0  0  0  0  0  0  0  0  0  0  0  0
   -2.5321   -0.9197   -0.0487 C   0  0  0  0  0  0  0  0  0  0  0  0
   -2.2031   -0.8547    1.1212 O   0  0  0  0  0  0  0  0  0  0  0  0
   -2.1729    0.0829   -0.9231 N   0  0  0  0  0  0  0  0  0  0  0  0
   -2.5623   -0.0330   -1.8550 H   0  0  0  0  0  0  0  0  0  0  0  0
   -0.9005    0.8337   -0.8768 C   0  0  1  0  0  0  0  0  0  0  0  0
   -0.8335    1.3700    0.0752 H   0  0  0  0  0  0  0  0  0  0  0  0
    0.3862   -0.0264   -1.0423 C   0  0  0  0  0  0  0  0  0  0  0  0
    0.2953   -0.6051   -1.9672 H   0  0  0  0  0  0  0  0  0  0  0  0
    1.2493    0.6366   -1.1633 H   0  0  0  0  0  0  0  0  0  0  0  0
    0.6988   -0.9902    0.0726 C   0  0  0  0  0  0  0  0  0  0  0  0
    0.4042   -2.3322    0.1192 C   0  0  0  0  0  0  0  0  0  0  0  0
   -0.1141   -2.8918   -0.6544 H   0  0  0  0  0  0  0  0  0  0  0  0
    0.8853   -2.8306    1.3280 N   0  0  0  0  0  0  0  0  0  0  0  0
    0.7679   -3.7841    1.6607 H   0  0  0  0  0  0  0  0  0  0  0  0
    1.4822   -1.8184    2.0619 C   0  0  0  0  0  0  0  0  0  0  0  0
    2.0917   -1.8169    3.3169 C   0  0  0  0  0  0  0  0  0  0  0  0
    2.1518   -2.7317    3.8954 H   0  0  0  0  0  0  0  0  0  0  0  0
    2.6215   -0.6193    3.8180 C   0  0  0  0  0  0  0  0  0  0  0  0
    3.0972   -0.6032    4.7940 H   0  0  0  0  0  0  0  0  0  0  0  0
    2.5357    0.5592    3.0607 C   0  0  0  0  0  0  0  0  0  0  0  0
    2.9462    1.4851    3.4513 H   0  0  0  0  0  0  0  0  0  0  0  0
    1.9180    0.5458    1.8016 C   0  0  0  0  0  0  0  0  0  0  0  0
    1.8470    1.4542    1.2137 H   0  0  0  0  0  0  0  0  0  0  0  0
    1.3911   -0.6530    1.3099 C   0  0  0  0  0  0  0  0  0  0  0  0
   -0.9199    1.8647   -2.0285 C   0  0  0  0  0  0  0  0  0  0  0  0
   -0.3867    1.6515   -3.1107 O   0  0  0  0  0  0  0  0  0  0  0  0
   -1.7041    2.9953   -1.8916 N   0  0  0  0  0  0  0  0  0  0  0  0
   -2.2000    3.1132   -1.0117 H   0  0  0  0  0  0  0  0  0  0  0  0
   -1.8785    3.9913   -2.9419 C   0  0  0  0  0  0  0  0  0  0  0  0
   -2.3472    3.5416   -3.8234 H   0  0  0  0  0  0  0  0  0  0  0  0
   -2.5180    4.8054   -2.5876 H   0  0  0  0  0  0  0  0  0  0  0  0
   -0.9115    4.4143   -3.2337 H   0  0  0  0  0  0  0  0  0  0  0  0
  1  2  1  0  0  0  0
  2  3  1  0  0  0  0
  2  4  1  0  0  0  0
  2  5  1  0  0  0  0
  5  6  2  0  0  0  0
  5  7  1  0  0  0  0
  7  8  1  0  0  0  0
  7  9  1  0  0  0  0
  9 10  1  0  0  0  0
  9 11  1  0  0  0  0
  9 29  1  0  0  0  0
 11 12  1  0  0  0  0
 11 13  1  0  0  0  0
 11 14  1  0  0  0  0
 14 15  2  0  0  0  0
 14 28  1  0  0  0  0
 15 16  1  0  0  0  0
 15 17  1  0  0  0  0
 17 18  1  0  0  0  0
 17 19  1  0  0  0  0
 19 20  1  0  0  0  0
 19 28  2  0  0  0  0
 20 21  1  0  0  0  0
 20 22  2  0  0  0  0
 22 23  1  0  0  0  0
 22 24  1  0  0  0  0
 24 25  1  0  0  0  0
 24 26  2  0  0  0  0
 26 27  1  0  0  0  0
 26 28  1  0  0  0  0
 29 30  2  0  0  0  0
 29 31  1  0  0  0  0
 31 32  1  0  0  0  0
 31 33  1  0  0  0  0
 33 34  1  0  0  0  0
 33 35  1  0  0  0  0
 33 36  1  0  0  0  0
M  END
$$$$

  -OEChem-01062216103D

 36 37  0     1  0  0  0  0  0999 V2000
   -3.6544   -2.7156    0.3002 H   0  0  0  0  0  0  0  0  0  0  0  0
   -3.5089   -1.9809   -0.4967 C   0  0  0  0  0  0  0  0  0  0  0  0
   -4.4737   -1.5309   -0.7423 H   0  0  0  0  0  0  0  0  0  0  0  0
   -3.1171   -2.4928   -1.3788 H   0  0  0  0  0  0  0  0  0  0  0  0
   -2.5367   -0.9081   -0.0437 C   0  0  0  0  0  0  0  0  0  0  0  0
   -2.2030   -0.8505    1.1256 O   0  0  0  0  0  0  0  0  0  0  0  0
   -2.1695    0.0926   -0.9168 N   0  0  0  0  0  0  0  0  0  0  0  0
   -2.5509   -0.0205   -1.8530 H   0  0  0  0  0  0  0  0  0  0  0  0
   -0.8989    0.8430   -0.8605 C   0  0  1  0  0  0  0  0  0  0  0  0
   -0.8380    1.3739    0.0950 H   0  0  0  0  0  0  0  0  0  0  0  0
    0.3906   -0.0089   -1.0310 C   0  0  0  0  0  0  0  0  0  0  0  0
    0.3049   -0.5803   -1.9611 H   0  0  0  0  0  0  0  0  0  0  0  0
    1.2507    0.6589   -1.1443 H   0  0  0  0  0  0  0  0  0  0  0  0
    0.7028   -0.9815    0.0757 C   0  0  0  0  0  0  0  0  0  0  0  0
    0.4128   -2.3249    0.1085 C   0  0  0  0  0  0  0  0  0  0  0  0
   -0.1022   -2.8788   -0.6717 H   0  0  0  0  0  0  0  0  0  0  0  0
    0.8970   -2.8336    1.3119 N   0  0  0  0  0  0  0  0  0  0  0  0
    0.7859   -3.7918    1.6335 H   0  0  0  0  0  0  0  0  0  0  0  0
    1.4892   -1.8264    2.0569 C   0  0  0  0  0  0  0  0  0  0  0  0
    2.0993   -1.8336    3.3118 C   0  0  0  0  0  0  0  0  0  0  0  0
    2.1653   -2.7540    3.8808 H   0  0  0  0  0  0  0  0  0  0  0  0
    2.6221   -0.6377    3.8249 C   0  0  0  0  0  0  0  0  0  0  0  0
    3.0984   -0.6283    4.8006 H   0  0  0  0  0  0  0  0  0  0  0  0
    2.5283    0.5478    3.0798 C   0  0  0  0  0  0  0  0  0  0  0  0
    2.9330    1.4723    3.4795 H   0  0  0  0  0  0  0  0  0  0  0  0
    1.9105    0.5433    1.8211 C   0  0  0  0  0  0  0  0  0  0  0  0
    1.8329    1.4575    1.2431 H   0  0  0  0  0  0  0  0  0  0  0  0
    1.3917   -0.6538    1.3172 C   0  0  0  0  0  0  0  0  0  0  0  0
   -0.9023    1.8713   -2.0112 C   0  0  0  0  0  0  0  0  0  0  0  0
   -0.6308    1.5428   -3.1601 O   0  0  0  0  0  0  0  0  0  0  0  0
   -1.4148    3.1354   -1.7856 N   0  0  0  0  0  0  0  0  0  0  0  0
   -1.7409    3.3448   -0.8458 H   0  0  0  0  0  0  0  0  0  0  0  0
   -1.6057    4.1282   -2.8362 C   0  0  0  0  0  0  0  0  0  0  0  0
   -2.3200    3.7643   -3.5822 H   0  0  0  0  0  0  0  0  0  0  0  0
   -1.9939    5.0587   -2.4104 H   0  0  0  0  0  0  0  0  0  0  0  0
   -0.6555    4.3476   -3.3347 H   0  0  0  0  0  0  0  0  0  0  0  0
  1  2  1  0  0  0  0
  2  3  1  0  0  0  0
  2  4  1  0  0  0  0
  2  5  1  0  0  0  0
  5  6  2  0  0  0  0
  5  7  1  0  0  0  0
  7  8  1  0  0  0  0
  7  9  1  0  0  0  0
  9 10  1  0  0  0  0
  9 11  1  0  0  0  0
  9 29  1  0  0  0  0
 11 12  1  0  0  0  0
 11 13  1  0  0  0  0
 11 14  1  0  0  0  0
 14 15  2  0  0  0  0
 14 28  1  0  0  0  0
 15 16  1  0  0  0  0
 15 17  1  0  0  0  0
 17 18  1  0  0  0  0
 17 19  1  0  0  0  0
 19 20  1  0  0  0  0
 19 28  2  0  0  0  0
 20 21  1  0  0  0  0
 20 22  2  0  0  0  0
 22 23  1  0  0  0  0
 22 24  1  0  0  0  0
 24 25  1  0  0  0  0
 24 26  2  0  0  0  0
 26 27  1  0  0  0  0
 26 28  1  0  0  0  0
 29 30  2  0  0  0  0
 29 31  1  0  0  0  0
 31 32  1  0  0  0  0
 31 33  1  0  0  0  0
 33 34  1  0  0  0  0
 33 35  1  0  0  0  0
 33 36  1  0  0  0  0
M  END
$$$$

  -OEChem-01062216103D

 36 37  0     1  0  0  0  0  0999 V2000
   -3.6773   -2.7044    0.3038 H   0  0  0  0  0  0  0  0  0  0  0  0
   -3.5249   -1.9698   -0.4920 C   0  0  0  0  0  0  0  0  0  0  0  0
   -4.4852   -1.5086   -0.7350 H   0  0  0  0  0  0  0  0  0  0  0  0
   -3.1404   -2.4842   -1.3758 H   0  0  0  0  0  0  0  0  0  0  0  0
   -2.5400   -0.9083   -0.0397 C   0  0  0  0  0  0  0  0  0  0  0  0
   -2.1974   -0.8614    1.1277 O   0  0  0  0  0  0  0  0  0  0  0  0
   -2.1642    0.0895   -0.9123 N   0  0  0  0  0  0  0  0  0  0  0  0
   -2.5438   -0.0145   -1.8510 H   0  0  0  0  0  0  0  0  0  0  0  0
   -0.9001    0.8490   -0.8473 C   0  0  1  0  0  0  0  0  0  0  0  0
   -0.8485    1.3794    0.1088 H   0  0  0  0  0  0  0  0  0  0  0  0
    0.3955    0.0105   -1.0226 C   0  0  0  0  0  0  0  0  0  0  0  0
    0.3172   -0.5526   -1.9584 H   0  0  0  0  0  0  0  0  0  0  0  0
    1.2510    0.6857   -1.1271 H   0  0  0  0  0  0  0  0  0  0  0  0
    0.7094   -0.9673    0.0786 C   0  0  0  0  0  0  0  0  0  0  0  0
    0.4264   -2.3122    0.0971 C   0  0  0  0  0  0  0  0  0  0  0  0
   -0.0851   -2.8602   -0.6895 H   0  0  0  0  0  0  0  0  0  0  0  0
    0.9061   -2.8301    1.2981 N   0  0  0  0  0  0  0  0  0  0  0  0
    0.7919   -3.7904    1.6121 H   0  0  0  0  0  0  0  0  0  0  0  0
    1.4940   -1.8283    2.0534 C   0  0  0  0  0  0  0  0  0  0  0  0
    2.1012   -1.8472    3.3093 C   0  0  0  0  0  0  0  0  0  0  0  0
    2.1660   -2.7729    3.8699 H   0  0  0  0  0  0  0  0  0  0  0  0
    2.6230   -0.6562    3.8341 C   0  0  0  0  0  0  0  0  0  0  0  0
    3.0968   -0.6569    4.8111 H   0  0  0  0  0  0  0  0  0  0  0  0
    2.5313    0.5361    3.0993 C   0  0  0  0  0  0  0  0  0  0  0  0
    2.9362    1.4566    3.5084 H   0  0  0  0  0  0  0  0  0  0  0  0
    1.9149    0.5432    1.8395 C   0  0  0  0  0  0  0  0  0  0  0  0
    1.8383    1.4621    1.2691 H   0  0  0  0  0  0  0  0  0  0  0  0
    1.3965   -0.6491    1.3239 C   0  0  0  0  0  0  0  0  0  0  0  0
   -0.8959    1.8682   -2.0038 C   0  0  0  0  0  0  0  0  0  0  0  0
   -0.8725    1.4855   -3.1681 O   0  0  0  0  0  0  0  0  0  0  0  0
   -1.1178    3.2078   -1.7426 N   0  0  0  0  0  0  0  0  0  0  0  0
   -1.2477    3.4804   -0.7720 H   0  0  0  0  0  0  0  0  0  0  0  0
   -1.2857    4.2131   -2.7850 C   0  0  0  0  0  0  0  0  0  0  0  0
   -2.1710    3.9931   -3.3909 H   0  0  0  0  0  0  0  0  0  0  0  0
   -1.4099    5.2041   -2.3377 H   0  0  0  0  0  0  0  0  0  0  0  0
   -0.4076    4.2382   -3.4391 H   0  0  0  0  0  0  0  0  0  0  0  0
  1  2  1  0  0  0  0
  2  3  1  0  0  0  0
  2  4  1  0  0  0  0
  2  5  1  0  0  0  0
  5  6  2  0  0  0  0
  5  7  1  0  0  0  0
  7  8  1  0  0  0  0
  7  9  1  0  0  0  0
  9 10  1  0  0  0  0
  9 11  1  0  0  0  0
  9 29  1  0  0  0  0
 11 12  1  0  0  0  0
 11 13  1  0  0  0  0
 11 14  1  0  0  0  0
 14 15  2  0  0  0  0
 14 28  1  0  0  0  0
 15 16  1  0  0  0  0
 15 17  1  0  0  0  0
 17 18  1  0  0  0  0
 17 19  1  0  0  0  0
 19 20  1  0  0  0  0
 19 28  2  0  0  0  0
 20 21  1  0  0  0  0
 20 22  2  0  0  0  0
 22 23  1  0  0  0  0
 22 24  1  0  0  0  0
 24 25  1  0  0  0  0
 24 26  2  0  0  0  0
 26 27  1  0  0  0  0
 26 28  1  0  0  0  0
 29 30  2  0  0  0  0
 29 31  1  0  0  0  0
 31 32  1  0  0  0  0
 31 33  1  0  0  0  0
 33 34  1  0  0  0  0
 33 35  1  0  0  0  0
 33 36  1  0  0  0  0
M  END
$$$$

  -OEChem-01062216103D

 36 37  0     1  0  0  0  0  0999 V2000
   -3.6973   -2.7019    0.3021 H   0  0  0  0  0  0  0  0  0  0  0  0
   -3.5489   -1.9597   -0.4875 C   0  0  0  0  0  0  0  0  0  0  0  0
   -4.5079   -1.4866   -0.7120 H   0  0  0  0  0  0  0  0  0  0  0  0
   -3.1814   -2.4677   -1.3822 H   0  0  0  0  0  0  0  0  0  0  0  0
   -2.5485   -0.9118   -0.0372 C   0  0  0  0  0  0  0  0  0  0  0  0
   -2.1952   -0.8767    1.1275 O   0  0  0  0  0  0  0  0  0  0  0  0
   -2.1645    0.0826   -0.9098 N   0  0  0  0  0  0  0  0  0  0  0  0
   -2.5491   -0.0052   -1.8488 H   0  0  0  0  0  0  0  0  0  0  0  0
   -0.9077    0.8519   -0.8368 C   0  0  1  0  0  0  0  0  0  0  0  0
   -0.8670    1.3852    0.1183 H   0  0  0  0  0  0  0  0  0  0  0  0
    0.3923    0.0231   -1.0131 C   0  0  0  0  0  0  0  0  0  0  0  0
    0.3182   -0.5329   -1.9535 H   0  0  0  0  0  0  0  0  0  0  0  0
    1.2446    0.7032   -1.1106 H   0  0  0  0  0  0  0  0  0  0  0  0
    0.7106   -0.9594    0.0822 C   0  0  0  0  0  0  0  0  0  0  0  0
    0.4360   -2.3062    0.0907 C   0  0  0  0  0  0  0  0  0  0  0  0
   -0.0741   -2.8515   -0.6987 H   0  0  0  0  0  0  0  0  0  0  0  0
    0.9232   -2.8304    1.2860 N   0  0  0  0  0  0  0  0  0  0  0  0
    0.8154   -3.7937    1.5933 H   0  0  0  0  0  0  0  0  0  0  0  0
    1.5060   -1.8303    2.0477 C   0  0  0  0  0  0  0  0  0  0  0  0
    2.1169   -1.8548    3.3017 C   0  0  0  0  0  0  0  0  0  0  0  0
    2.1913   -2.7849    3.8535 H   0  0  0  0  0  0  0  0  0  0  0  0
    2.6295   -0.6641    3.8359 C   0  0  0  0  0  0  0  0  0  0  0  0
    3.1065   -0.6691    4.8112 H   0  0  0  0  0  0  0  0  0  0  0  0
    2.5243    0.5341    3.1130 C   0  0  0  0  0  0  0  0  0  0  0  0
    2.9206    1.4547    3.5302 H   0  0  0  0  0  0  0  0  0  0  0  0
    1.9054    0.5469    1.8545 C   0  0  0  0  0  0  0  0  0  0  0  0
    1.8189    1.4708    1.2938 H   0  0  0  0  0  0  0  0  0  0  0  0
    1.3970   -0.6456    1.3288 C   0  0  0  0  0  0  0  0  0  0  0  0
   -0.8943    1.8622   -2.0000 C   0  0  0  0  0  0  0  0  0  0  0  0
   -1.0897    1.4759   -3.1475 O   0  0  0  0  0  0  0  0  0  0  0  0
   -0.8161    3.2193   -1.7472 N   0  0  0  0  0  0  0  0  0  0  0  0
   -0.7528    3.5140   -0.7766 H   0  0  0  0  0  0  0  0  0  0  0  0
   -0.9231    4.2356   -2.7868 C   0  0  0  0  0  0  0  0  0  0  0  0
   -1.9041    4.1869   -3.2708 H   0  0  0  0  0  0  0  0  0  0  0  0
   -0.7997    5.2331   -2.3542 H   0  0  0  0  0  0  0  0  0  0  0  0
   -0.1472    4.0908   -3.5458 H   0  0  0  0  0  0  0  0  0  0  0  0
  1  2  1  0  0  0  0
  2  3  1  0  0  0  0
  2  4  1  0  0  0  0
  2  5  1  0  0  0  0
  5  6  2  0  0  0  0
  5  7  1  0  0  0  0
  7  8  1  0  0  0  0
  7  9  1  0  0  0  0
  9 10  1  0  0  0  0
  9 11  1  0  0  0  0
  9 29  1  0  0  0  0
 11 12  1  0  0  0  0
 11 13  1  0  0  0  0
 11 14  1  0  0  0  0
 14 15  2  0  0  0  0
 14 28  1  0  0  0  0
 15 16  1  0  0  0  0
 15 17  1  0  0  0  0
 17 18  1  0  0  0  0
 17 19  1  0  0  0  0
 19 20  1  0  0  0  0
 19 28  2  0  0  0  0
 20 21  1  0  0  0  0
 20 22  2  0  0  0  0
 22 23  1  0  0  0  0
 22 24  1  0  0  0  0
 24 25  1  0  0  0  0
 24 26  2  0  0  0  0
 26 27  1  0  0  0  0
 26 28  1  0  0  0  0
 29 30  2  0  0  0  0
 29 31  1  0  0  0  0
 31 32  1  0  0  0  0
 31 33  1  0  0  0  0
 33 34  1  0  0  0  0
 33 35  1  0  0  0  0
 33 36  1  0  0  0  0
M  END
$$$$

  -OEChem-01062216103D

 36 37  0     1  0  0  0  0  0999 V2000
   -3.7458   -2.6863    0.3003 H   0  0  0  0  0  0  0  0  0  0  0  0
   -3.5771   -1.9507   -0.4910 C   0  0  0  0  0  0  0  0  0  0  0  0
   -4.5245   -1.4583   -0.7230 H   0  0  0  0  0  0  0  0  0  0  0  0
   -3.2153   -2.4691   -1.3820 H   0  0  0  0  0  0  0  0  0  0  0  0
   -2.5571   -0.9233   -0.0380 C   0  0  0  0  0  0  0  0  0  0  0  0
   -2.1926   -0.9070    1.1238 O   0  0  0  0  0  0  0  0  0  0  0  0
   -2.1639    0.0709   -0.9065 N   0  0  0  0  0  0  0  0  0  0  0  0
   -2.5640    0.0096   -1.8417 H   0  0  0  0  0  0  0  0  0  0  0  0
   -0.9144    0.8517   -0.8298 C   0  0  1  0  0  0  0  0  0  0  0  0
   -0.8818    1.3882    0.1237 H   0  0  0  0  0  0  0  0  0  0  0  0
    0.3899    0.0315   -1.0087 C   0  0  0  0  0  0  0  0  0  0  0  0
    0.3174   -0.5208   -1.9517 H   0  0  0  0  0  0  0  0  0  0  0  0
    1.2392    0.7161   -1.1039 H   0  0  0  0  0  0  0  0  0  0  0  0
    0.7144   -0.9531    0.0828 C   0  0  0  0  0  0  0  0  0  0  0  0
    0.4480   -2.3016    0.0863 C   0  0  0  0  0  0  0  0  0  0  0  0
   -0.0610   -2.8468   -0.7040 H   0  0  0  0  0  0  0  0  0  0  0  0
    0.9396   -2.8274    1.2791 N   0  0  0  0  0  0  0  0  0  0  0  0
    0.8352   -3.7916    1.5843 H   0  0  0  0  0  0  0  0  0  0  0  0
    1.5161   -1.8267    2.0445 C   0  0  0  0  0  0  0  0  0  0  0  0
    2.1258   -1.8528    3.2989 C   0  0  0  0  0  0  0  0  0  0  0  0
    2.2031   -2.7840    3.8486 H   0  0  0  0  0  0  0  0  0  0  0  0
    2.6339   -0.6618    3.8367 C   0  0  0  0  0  0  0  0  0  0  0  0
    3.1103   -0.6677    4.8124 H   0  0  0  0  0  0  0  0  0  0  0  0
    2.5256    0.5377    3.1164 C   0  0  0  0  0  0  0  0  0  0  0  0
    2.9195    1.4582    3.5357 H   0  0  0  0  0  0  0  0  0  0  0  0
    1.9064    0.5521    1.8582 C   0  0  0  0  0  0  0  0  0  0  0  0
    1.8171    1.4768    1.2997 H   0  0  0  0  0  0  0  0  0  0  0  0
    1.4016   -0.6404    1.3294 C   0  0  0  0  0  0  0  0  0  0  0  0
   -0.8969    1.8567   -1.9982 C   0  0  0  0  0  0  0  0  0  0  0  0
   -1.2884    1.5091   -3.1078 O   0  0  0  0  0  0  0  0  0  0  0  0
   -0.5255    3.1724   -1.7901 N   0  0  0  0  0  0  0  0  0  0  0  0
   -0.2719    3.4474   -0.8452 H   0  0  0  0  0  0  0  0  0  0  0  0
   -0.5633    4.1886   -2.8347 C   0  0  0  0  0  0  0  0  0  0  0  0
   -1.5877    4.3303   -3.1945 H   0  0  0  0  0  0  0  0  0  0  0  0
   -0.1974    5.1440   -2.4467 H   0  0  0  0  0  0  0  0  0  0  0  0
    0.0694    3.8947   -3.6789 H   0  0  0  0  0  0  0  0  0  0  0  0
  1  2  1  0  0  0  0
  2  3  1  0  0  0  0
  2  4  1  0  0  0  0
  2  5  1  0  0  0  0
  5  6  2  0  0  0  0
  5  7  1  0  0  0  0
  7  8  1  0  0  0  0
  7  9  1  0  0  0  0
  9 10  1  0  0  0  0
  9 11  1  0  0  0  0
  9 29  1  0  0  0  0
 11 12  1  0  0  0  0
 11 13  1  0  0  0  0
 11 14  1  0  0  0  0
 14 15  2  0  0  0  0
 14 28  1  0  0  0  0
 15 16  1  0  0  0  0
 15 17  1  0  0  0  0
 17 18  1  0  0  0  0
 17 19  1  0  0  0  0
 19 20  1  0  0  0  0
 19 28  2  0  0  0  0
 20 21  1  0  0  0  0
 20 22  2  0  0  0  0
 22 23  1  0  0  0  0
 22 24  1  0  0  0  0
 24 25  1  0  0  0  0
 24 26  2  0  0  0  0
 26 27  1  0  0  0  0
 26 28  1  0  0  0  0
 29 30  2  0  0  0  0
 29 31  1  0  0  0  0
 31 32  1  0  0  0  0
 31 33  1  0  0  0  0
 33 34  1  0  0  0  0
 33 35  1  0  0  0  0
 33 36  1  0  0  0  0
M  END
$$$$

  -OEChem-01062216103D

 36 37  0     1  0  0  0  0  0999 V2000
   -3.7292   -2.7316    0.2520 H   0  0  0  0  0  0  0  0  0  0  0  0
   -3.6289   -1.9341   -0.4896 C   0  0  0  0  0  0  0  0  0  0  0  0
   -4.5908   -1.4262   -0.5948 H   0  0  0  0  0  0  0  0  0  0  0  0
   -3.3520   -2.3790   -1.4482 H   0  0  0  0  0  0  0  0  0  0  0  0
   -2.5675   -0.9438   -0.0490 C   0  0  0  0  0  0  0  0  0  0  0  0
   -2.1782   -0.9561    1.1044 O   0  0  0  0  0  0  0  0  0  0  0  0
   -2.1676    0.0521   -0.9127 N   0  0  0  0  0  0  0  0  0  0  0  0
   -2.5980    0.0307   -1.8367 H   0  0  0  0  0  0  0  0  0  0  0  0
   -0.9256    0.8455   -0.8330 C   0  0  1  0  0  0  0  0  0  0  0  0
   -0.9032    1.3844    0.1195 H   0  0  0  0  0  0  0  0  0  0  0  0
    0.3863    0.0353   -1.0075 C   0  0  0  0  0  0  0  0  0  0  0  0
    0.3195   -0.5168   -1.9509 H   0  0  0  0  0  0  0  0  0  0  0  0
    1.2313    0.7253   -1.1007 H   0  0  0  0  0  0  0  0  0  0  0  0
    0.7212   -0.9473    0.0825 C   0  0  0  0  0  0  0  0  0  0  0  0
    0.4682   -2.2984    0.0832 C   0  0  0  0  0  0  0  0  0  0  0  0
   -0.0385   -2.8459   -0.7068 H   0  0  0  0  0  0  0  0  0  0  0  0
    0.9724   -2.8235    1.2708 N   0  0  0  0  0  0  0  0  0  0  0  0
    0.8781   -3.7895    1.5736 H   0  0  0  0  0  0  0  0  0  0  0  0
    1.5387   -1.8192    2.0384 C   0  0  0  0  0  0  0  0  0  0  0  0
    2.1522   -1.8442    3.2909 C   0  0  0  0  0  0  0  0  0  0  0  0
    2.2458   -2.7780    3.8335 H   0  0  0  0  0  0  0  0  0  0  0  0
    2.6421   -0.6491    3.8359 C   0  0  0  0  0  0  0  0  0  0  0  0
    3.1206   -0.6548    4.8105 H   0  0  0  0  0  0  0  0  0  0  0  0
    2.5115    0.5538    3.1249 C   0  0  0  0  0  0  0  0  0  0  0  0
    2.8888    1.4780    3.5516 H   0  0  0  0  0  0  0  0  0  0  0  0
    1.8904    0.5666    1.8675 C   0  0  0  0  0  0  0  0  0  0  0  0
    1.7823    1.4942    1.3174 H   0  0  0  0  0  0  0  0  0  0  0  0
    1.4056   -0.6306    1.3302 C   0  0  0  0  0  0  0  0  0  0  0  0
   -0.9023    1.8500   -2.0042 C   0  0  0  0  0  0  0  0  0  0  0  0
   -1.4718    1.5799   -3.0574 O   0  0  0  0  0  0  0  0  0  0  0  0
   -0.2585    3.0672   -1.8739 N   0  0  0  0  0  0  0  0  0  0  0  0
    0.1751    3.2778   -0.9794 H   0  0  0  0  0  0  0  0  0  0  0  0
   -0.2079    4.0656   -2.9351 C   0  0  0  0  0  0  0  0  0  0  0  0
   -1.2178    4.3933   -3.2030 H   0  0  0  0  0  0  0  0  0  0  0  0
    0.3624    4.9391   -2.6049 H   0  0  0  0  0  0  0  0  0  0  0  0
    0.2773    3.6538   -3.8263 H   0  0  0  0  0  0  0  0  0  0  0  0
  1  2  1  0  0  0  0
  2  3  1  0  0  0  0
  2  4  1  0  0  0  0
  2  5  1  0  0  0  0
  5  6  2  0  0  0  0
  5  7  1  0  0  0  0
  7  8  1  0  0  0  0
  7  9  1  0  0  0  0
  9 10  1  0  0  0  0
  9 11  1  0  0  0  0
  9 29  1  0  0  0  0
 11 12  1  0  0  0  0
 11 13  1  0  0  0  0
 11 14  1  0  0  0  0
 14 15  2  0  0  0  0
 14 28  1  0  0  0  0
 15 16  1  0  0  0  0
 15 17  1  0  0  0  0
 17 18  1  0  0  0  0
 17 19  1  0  0  0  0
 19 20  1  0  0  0  0
 19 28  2  0  0  0  0
 20 21  1  0  0  0  0
 20 22  2  0  0  0  0
 22 23  1  0  0  0  0
 22 24  1  0  0  0  0
 24 25  1  0  0  0  0
 24 26  2  0  0  0  0
 26 27  1  0  0  0  0
 26 28  1  0  0  0  0
 29 30  2  0  0  0  0
 29 31  1  0  0  0  0
 31 32  1  0  0  0  0
 31 33  1  0  0  0  0
 33 34  1  0  0  0  0
 33 35  1  0  0  0  0
 33 36  1  0  0  0  0
M  END
$$$$

  -OEChem-01062216103D

 36 37  0     1  0  0  0  0  0999 V2000
   -3.7842   -2.7050    0.2406 H   0  0  0  0  0  0  0  0  0  0  0  0
   -3.6541   -1.9155   -0.5047 C   0  0  0  0  0  0  0  0  0  0  0  0
   -4.5979   -1.3765   -0.6176 H   0  0  0  0  0  0  0  0  0  0  0  0
   -3.3870   -2.3743   -1.4595 H   0  0  0  0  0  0  0  0  0  0  0  0
   -2.5637   -0.9583   -0.0630 C   0  0  0  0  0  0  0  0  0  0  0  0
   -2.1637   -0.9964    1.0861 O   0  0  0  0  0  0  0  0  0  0  0  0
   -2.1548    0.0415   -0.9175 N   0  0  0  0  0  0  0  0  0  0  0  0
   -2.6156    0.0630   -1.8268 H   0  0  0  0  0  0  0  0  0  0  0  0
   -0.9200    0.8464   -0.8343 C   0  0  1  0  0  0  0  0  0  0  0  0
   -0.9030    1.3895    0.1158 H   0  0  0  0  0  0  0  0  0  0  0  0
    0.3936    0.0340   -1.0039 C   0  0  0  0  0  0  0  0  0  0  0  0
    0.3266   -0.5187   -1.9470 H   0  0  0  0  0  0  0  0  0  0  0  0
    1.2423    0.7187   -1.0959 H   0  0  0  0  0  0  0  0  0  0  0  0
    0.7300   -0.9477    0.0864 C   0  0  0  0  0  0  0  0  0  0  0  0
    0.4788   -2.2992    0.0877 C   0  0  0  0  0  0  0  0  0  0  0  0
   -0.0277   -2.8480   -0.7017 H   0  0  0  0  0  0  0  0  0  0  0  0
    0.9821   -2.8232    1.2763 N   0  0  0  0  0  0  0  0  0  0  0  0
    0.8796   -3.7871    1.5834 H   0  0  0  0  0  0  0  0  0  0  0  0
    1.5487   -1.8182    2.0428 C   0  0  0  0  0  0  0  0  0  0  0  0
    2.1634   -1.8424    3.2947 C   0  0  0  0  0  0  0  0  0  0  0  0
    2.2587   -2.7758    3.8379 H   0  0  0  0  0  0  0  0  0  0  0  0
    2.6523   -0.6466    3.8393 C   0  0  0  0  0  0  0  0  0  0  0  0
    3.1312   -0.6510    4.8138 H   0  0  0  0  0  0  0  0  0  0  0  0
    2.5197    0.5559    3.1284 C   0  0  0  0  0  0  0  0  0  0  0  0
    2.8956    1.4805    3.5555 H   0  0  0  0  0  0  0  0  0  0  0  0
    1.8983    0.5676    1.8711 C   0  0  0  0  0  0  0  0  0  0  0  0
    1.7894    1.4955    1.3219 H   0  0  0  0  0  0  0  0  0  0  0  0
    1.4145   -0.6301    1.3339 C   0  0  0  0  0  0  0  0  0  0  0  0
   -0.8997    1.8508   -2.0091 C   0  0  0  0  0  0  0  0  0  0  0  0
   -1.6378    1.6856   -2.9762 O   0  0  0  0  0  0  0  0  0  0  0  0
   -0.0278    2.9255   -2.0060 N   0  0  0  0  0  0  0  0  0  0  0  0
    0.5569    3.0556   -1.1853 H   0  0  0  0  0  0  0  0  0  0  0  0
    0.0528    3.8968   -3.0904 C   0  0  0  0  0  0  0  0  0  0  0  0
   -0.9053    4.4118   -3.2162 H   0  0  0  0  0  0  0  0  0  0  0  0
    0.8213    4.6447   -2.8720 H   0  0  0  0  0  0  0  0  0  0  0  0
    0.3126    3.4000   -4.0311 H   0  0  0  0  0  0  0  0  0  0  0  0
  1  2  1  0  0  0  0
  2  3  1  0  0  0  0
  2  4  1  0  0  0  0
  2  5  1  0  0  0  0
  5  6  2  0  0  0  0
  5  7  1  0  0  0  0
  7  8  1  0  0  0  0
  7  9  1  0  0  0  0
  9 10  1  0  0  0  0
  9 11  1  0  0  0  0
  9 29  1  0  0  0  0
 11 12  1  0  0  0  0
 11 13  1  0  0  0  0
 11 14  1  0  0  0  0
 14 15  2  0  0  0  0
 14 28  1  0  0  0  0
 15 16  1  0  0  0  0
 15 17  1  0  0  0  0
 17 18  1  0  0  0  0
 17 19  1  0  0  0  0
 19 20  1  0  0  0  0
 19 28  2  0  0  0  0
 20 21  1  0  0  0  0
 20 22  2  0  0  0  0
 22 23  1  0  0  0  0
 22 24  1  0  0  0  0
 24 25  1  0  0  0  0
 24 26  2  0  0  0  0
 26 27  1  0  0  0  0
 26 28  1  0  0  0  0
 29 30  2  0  0  0  0
 29 31  1  0  0  0  0
 31 32  1  0  0  0  0
 31 33  1  0  0  0  0
 33 34  1  0  0  0  0
 33 35  1  0  0  0  0
 33 36  1  0  0  0  0
M  END
$$$$

  -OEChem-01062216103D

 36 37  0     1  0  0  0  0  0999 V2000
   -3.7230   -2.7093    0.3200 H   0  0  0  0  0  0  0  0  0  0  0  0
   -3.6253   -1.9039   -0.4134 C   0  0  0  0  0  0  0  0  0  0  0  0
   -4.5300   -1.2914   -0.3882 H   0  0  0  0  0  0  0  0  0  0  0  0
   -3.5174   -2.3440   -1.4075 H   0  0  0  0  0  0  0  0  0  0  0  0
   -2.4144   -1.0491   -0.0914 C   0  0  0  0  0  0  0  0  0  0  0  0
   -1.8357   -1.2027    0.9692 O   0  0  0  0  0  0  0  0  0  0  0  0
   -2.0574   -0.0325   -0.9507 N   0  0  0  0  0  0  0  0  0  0  0  0
   -2.6789    0.1487   -1.7381 H   0  0  0  0  0  0  0  0  0  0  0  0
   -0.8428    0.8013   -0.8806 C   0  0  1  0  0  0  0  0  0  0  0  0
   -0.6743    1.1270    0.1512 H   0  0  0  0  0  0  0  0  0  0  0  0
    0.4096    0.0553   -1.4117 C   0  0  0  0  0  0  0  0  0  0  0  0
    0.1909   -0.3012   -2.4237 H   0  0  0  0  0  0  0  0  0  0  0  0
    1.2545    0.7451   -1.4901 H   0  0  0  0  0  0  0  0  0  0  0  0
    0.8651   -1.1144   -0.5822 C   0  0  0  0  0  0  0  0  0  0  0  0
    0.5744   -2.4403   -0.7974 C   0  0  0  0  0  0  0  0  0  0  0  0
   -0.0522   -2.8277   -1.5965 H   0  0  0  0  0  0  0  0  0  0  0  0
    1.2211   -3.1806    0.1898 N   0  0  0  0  0  0  0  0  0  0  0  0
    1.1426   -4.1864    0.3169 H   0  0  0  0  0  0  0  0  0  0  0  0
    1.9171   -2.3398    1.0434 C   0  0  0  0  0  0  0  0  0  0  0  0
    2.6957   -2.5994    2.1715 C   0  0  0  0  0  0  0  0  0  0  0  0
    2.8350   -3.6180    2.5158 H   0  0  0  0  0  0  0  0  0  0  0  0
    3.2910   -1.5279    2.8526 C   0  0  0  0  0  0  0  0  0  0  0  0
    3.8978   -1.7158    3.7333 H   0  0  0  0  0  0  0  0  0  0  0  0
    3.0995   -0.2132    2.4004 C   0  0  0  0  0  0  0  0  0  0  0  0
    3.5579    0.6144    2.9326 H   0  0  0  0  0  0  0  0  0  0  0  0
    2.3118    0.0355    1.2673 C   0  0  0  0  0  0  0  0  0  0  0  0
    2.1546    1.0500    0.9198 H   0  0  0  0  0  0  0  0  0  0  0  0
    1.7233   -1.0392    0.5928 C   0  0  0  0  0  0  0  0  0  0  0  0
   -1.0187    2.0471   -1.7823 C   0  0  0  0  0  0  0  0  0  0  0  0
   -2.0277    2.1740   -2.4700 O   0  0  0  0  0  0  0  0  0  0  0  0
   -0.0185    2.9979   -1.8937 N   0  0  0  0  0  0  0  0  0  0  0  0
    0.8093    2.8804   -1.3168 H   0  0  0  0  0  0  0  0  0  0  0  0
   -0.1165    4.1708   -2.7539 C   0  0  0  0  0  0  0  0  0  0  0  0
   -0.9783    4.7840   -2.4703 H   0  0  0  0  0  0  0  0  0  0  0  0
    0.7867    4.7820   -2.6637 H   0  0  0  0  0  0  0  0  0  0  0  0
   -0.2267    3.8698   -3.8009 H   0  0  0  0  0  0  0  0  0  0  0  0
  1  2  1  0  0  0  0
  2  3  1  0  0  0  0
  2  4  1  0  0  0  0
  2  5  1  0  0  0  0
  5  6  2  0  0  0  0
  5  7  1  0  0  0  0
  7  8  1  0  0  0  0
  7  9  1  0  0  0  0
  9 10  1  0  0  0  0
  9 11  1  0  0  0  0
  9 29  1  0  0  0  0
 11 12  1  0  0  0  0
 11 13  1  0  0  0  0
 11 14  1  0  0  0  0
 14 15  2  0  0  0  0
 14 28  1  0  0  0  0
 15 16  1  0  0  0  0
 15 17  1  0  0  0  0
 17 18  1  0  0  0  0
 17 19  1  0  0  0  0
 19 20  1  0  0  0  0
 19 28  2  0  0  0  0
 20 21  1  0  0  0  0
 20 22  2  0  0  0  0
 22 23  1  0  0  0  0
 22 24  1  0  0  0  0
 24 25  1  0  0  0  0
 24 26  2  0  0  0  0
 26 27  1  0  0  0  0
 26 28  1  0  0  0  0
 29 30  2  0  0  0  0
 29 31  1  0  0  0  0
 31 32  1  0  0  0  0
 31 33  1  0  0  0  0
 33 34  1  0  0  0  0
 33 35  1  0  0  0  0
 33 36  1  0  0  0  0
M  END
$$$$

  -OEChem-01062216103D

 36 37  0     1  0  0  0  0  0999 V2000
   -3.7680   -2.6706    0.3046 H   0  0  0  0  0  0  0  0  0  0  0  0
   -3.6486   -1.8685   -0.4290 C   0  0  0  0  0  0  0  0  0  0  0  0
   -4.5312   -1.2253   -0.3960 H   0  0  0  0  0  0  0  0  0  0  0  0
   -3.5655   -2.3116   -1.4241 H   0  0  0  0  0  0  0  0  0  0  0  0
   -2.4060   -1.0562   -0.1166 C   0  0  0  0  0  0  0  0  0  0  0  0
   -1.8143   -1.2462    0.9305 O   0  0  0  0  0  0  0  0  0  0  0  0
   -2.0391   -0.0340   -0.9654 N   0  0  0  0  0  0  0  0  0  0  0  0
   -2.6982    0.2071   -1.7045 H   0  0  0  0  0  0  0  0  0  0  0  0
   -0.8229    0.7989   -0.8891 C   0  0  1  0  0  0  0  0  0  0  0  0
   -0.6581    1.1277    0.1423 H   0  0  0  0  0  0  0  0  0  0  0  0
    0.4320    0.0425   -1.4071 C   0  0  0  0  0  0  0  0  0  0  0  0
    0.2198   -0.3158   -2.4198 H   0  0  0  0  0  0  0  0  0  0  0  0
    1.2842    0.7232   -1.4776 H   0  0  0  0  0  0  0  0  0  0  0  0
    0.8821   -1.1261   -0.5729 C   0  0  0  0  0  0  0  0  0  0  0  0
    0.5902   -2.4521   -0.7863 C   0  0  0  0  0  0  0  0  0  0  0  0
   -0.0360   -2.8402   -1.5852 H   0  0  0  0  0  0  0  0  0  0  0  0
    1.2346   -3.1915    0.2030 N   0  0  0  0  0  0  0  0  0  0  0  0
    1.1512   -4.1962    0.3343 H   0  0  0  0  0  0  0  0  0  0  0  0
    1.9305   -2.3505    1.0563 C   0  0  0  0  0  0  0  0  0  0  0  0
    2.7068   -2.6105    2.1859 C   0  0  0  0  0  0  0  0  0  0  0  0
    2.8442   -3.6289    2.5309 H   0  0  0  0  0  0  0  0  0  0  0  0
    3.3015   -1.5398    2.8679 C   0  0  0  0  0  0  0  0  0  0  0  0
    3.9060   -1.7277    3.7500 H   0  0  0  0  0  0  0  0  0  0  0  0
    3.1113   -0.2252    2.4157 C   0  0  0  0  0  0  0  0  0  0  0  0
    3.5687    0.6018    2.9498 H   0  0  0  0  0  0  0  0  0  0  0  0
    2.3255    0.0242    1.2812 C   0  0  0  0  0  0  0  0  0  0  0  0
    2.1683    1.0396    0.9358 H   0  0  0  0  0  0  0  0  0  0  0  0
    1.7383   -1.0502    0.6044 C   0  0  0  0  0  0  0  0  0  0  0  0
   -1.0108    2.0481   -1.7908 C   0  0  0  0  0  0  0  0  0  0  0  0
   -2.1116    2.2900   -2.2773 O   0  0  0  0  0  0  0  0  0  0  0  0
    0.0531    2.8537   -2.1627 N   0  0  0  0  0  0  0  0  0  0  0  0
    0.9630    2.6470   -1.7612 H   0  0  0  0  0  0  0  0  0  0  0  0
   -0.0758    3.9966   -3.0591 C   0  0  0  0  0  0  0  0  0  0  0  0
   -0.7654    4.7369   -2.6401 H   0  0  0  0  0  0  0  0  0  0  0  0
    0.8979    4.4744   -3.2045 H   0  0  0  0  0  0  0  0  0  0  0  0
   -0.4523    3.6770   -4.0365 H   0  0  0  0  0  0  0  0  0  0  0  0
  1  2  1  0  0  0  0
  2  3  1  0  0  0  0
  2  4  1  0  0  0  0
  2  5  1  0  0  0  0
  5  6  2  0  0  0  0
  5  7  1  0  0  0  0
  7  8  1  0  0  0  0
  7  9  1  0  0  0  0
  9 10  1  0  0  0  0
  9 11  1  0  0  0  0
  9 29  1  0  0  0  0
 11 12  1  0  0  0  0
 11 13  1  0  0  0  0
 11 14  1  0  0  0  0
 14 15  2  0  0  0  0
 14 28  1  0  0  0  0
 15 16  1  0  0  0  0
 15 17  1  0  0  0  0
 17 18  1  0  0  0  0
 17 19  1  0  0  0  0
 19 20  1  0  0  0  0
 19 28  2  0  0  0  0
 20 21  1  0  0  0  0
 20 22  2  0  0  0  0
 22 23  1  0  0  0  0
 22 24  1  0  0  0  0
 24 25  1  0  0  0  0
 24 26  2  0  0  0  0
 26 27  1  0  0  0  0
 26 28  1  0  0  0  0
 29 30  2  0  0  0  0
 29 31  1  0  0  0  0
 31 32  1  0  0  0  0
 31 33  1  0  0  0  0
 33 34  1  0  0  0  0
 33 35  1  0  0  0  0
 33 36  1  0  0  0  0
M  END
$$$$

  -OEChem-01062216103D

 36 37  0     1  0  0  0  0  0999 V2000
   -3.8159   -2.6273    0.2927 H   0  0  0  0  0  0  0  0  0  0  0  0
   -3.6786   -1.8281   -0.4410 C   0  0  0  0  0  0  0  0  0  0  0  0
   -4.5382   -1.1550   -0.3943 H   0  0  0  0  0  0  0  0  0  0  0  0
   -3.6243   -2.2717   -1.4378 H   0  0  0  0  0  0  0  0  0  0  0  0
   -2.4041   -1.0599   -0.1448 C   0  0  0  0  0  0  0  0  0  0  0  0
   -1.7994   -1.2849    0.8874 O   0  0  0  0  0  0  0  0  0  0  0  0
   -2.0259   -0.0367   -0.9880 N   0  0  0  0  0  0  0  0  0  0  0  0
   -2.7128    0.2543   -1.6822 H   0  0  0  0  0  0  0  0  0  0  0  0
   -0.8020    0.7859   -0.9087 C   0  0  1  0  0  0  0  0  0  0  0  0
   -0.6425    1.1180    0.1224 H   0  0  0  0  0  0  0  0  0  0  0  0
    0.4576    0.0228   -1.4075 C   0  0  0  0  0  0  0  0  0  0  0  0
    0.2581   -0.3387   -2.4216 H   0  0  0  0  0  0  0  0  0  0  0  0
    1.3118    0.7026   -1.4644 H   0  0  0  0  0  0  0  0  0  0  0  0
    0.9010   -1.1416   -0.5644 C   0  0  0  0  0  0  0  0  0  0  0  0
    0.6111   -2.4687   -0.7741 C   0  0  0  0  0  0  0  0  0  0  0  0
   -0.0142   -2.8594   -1.5722 H   0  0  0  0  0  0  0  0  0  0  0  0
    1.2531   -3.2045    0.2194 N   0  0  0  0  0  0  0  0  0  0  0  0
    1.1671   -4.2084    0.3563 H   0  0  0  0  0  0  0  0  0  0  0  0
    1.9453   -2.3597    1.0717 C   0  0  0  0  0  0  0  0  0  0  0  0
    2.7170   -2.6159    2.2051 C   0  0  0  0  0  0  0  0  0  0  0  0
    2.8525   -3.6336    2.5531 H   0  0  0  0  0  0  0  0  0  0  0  0
    3.3081   -1.5426    2.8864 C   0  0  0  0  0  0  0  0  0  0  0  0
    3.9084   -1.7282    3.7719 H   0  0  0  0  0  0  0  0  0  0  0  0
    3.1199   -0.2293    2.4287 C   0  0  0  0  0  0  0  0  0  0  0  0
    3.5753    0.5998    2.9614 H   0  0  0  0  0  0  0  0  0  0  0  0
    2.3393    0.0161    1.2898 C   0  0  0  0  0  0  0  0  0  0  0  0
    2.1841    1.0301    0.9394 H   0  0  0  0  0  0  0  0  0  0  0  0
    1.7543   -1.0608    0.6147 C   0  0  0  0  0  0  0  0  0  0  0  0
   -0.9981    2.0358   -1.8115 C   0  0  0  0  0  0  0  0  0  0  0  0
   -2.1355    2.4130   -2.0757 O   0  0  0  0  0  0  0  0  0  0  0  0
    0.0516    2.6786   -2.4492 N   0  0  0  0  0  0  0  0  0  0  0  0
    0.9940    2.3628   -2.2408 H   0  0  0  0  0  0  0  0  0  0  0  0
   -0.1241    3.8110   -3.3513 C   0  0  0  0  0  0  0  0  0  0  0  0
   -0.6053    4.6454   -2.8304 H   0  0  0  0  0  0  0  0  0  0  0  0
    0.8467    4.1509   -3.7246 H   0  0  0  0  0  0  0  0  0  0  0  0
   -0.7428    3.5260   -4.2087 H   0  0  0  0  0  0  0  0  0  0  0  0
  1  2  1  0  0  0  0
  2  3  1  0  0  0  0
  2  4  1  0  0  0  0
  2  5  1  0  0  0  0
  5  6  2  0  0  0  0
  5  7  1  0  0  0  0
  7  8  1  0  0  0  0
  7  9  1  0  0  0  0
  9 10  1  0  0  0  0
  9 11  1  0  0  0  0
  9 29  1  0  0  0  0
 11 12  1  0  0  0  0
 11 13  1  0  0  0  0
 11 14  1  0  0  0  0
 14 15  2  0  0  0  0
 14 28  1  0  0  0  0
 15 16  1  0  0  0  0
 15 17  1  0  0  0  0
 17 18  1  0  0  0  0
 17 19  1  0  0  0  0
 19 20  1  0  0  0  0
 19 28  2  0  0  0  0
 20 21  1  0  0  0  0
 20 22  2  0  0  0  0
 22 23  1  0  0  0  0
 22 24  1  0  0  0  0
 24 25  1  0  0  0  0
 24 26  2  0  0  0  0
 26 27  1  0  0  0  0
 26 28  1  0  0  0  0
 29 30  2  0  0  0  0
 29 31  1  0  0  0  0
 31 32  1  0  0  0  0
 31 33  1  0  0  0  0
 33 34  1  0  0  0  0
 33 35  1  0  0  0  0
 33 36  1  0  0  0  0
M  END
$$$$

  -OEChem-01062216103D

 36 37  0     1  0  0  0  0  0999 V2000
   -3.8559   -2.5911    0.2923 H   0  0  0  0  0  0  0  0  0  0  0  0
   -3.7068   -1.7968   -0.4444 C   0  0  0  0  0  0  0  0  0  0  0  0
   -4.5470   -1.1006   -0.3867 H   0  0  0  0  0  0  0  0  0  0  0  0
   -3.6784   -2.2425   -1.4414 H   0  0  0  0  0  0  0  0  0  0  0  0
   -2.4079   -1.0640   -0.1667 C   0  0  0  0  0  0  0  0  0  0  0  0
   -1.7889   -1.3165    0.8501 O   0  0  0  0  0  0  0  0  0  0  0  0
   -2.0243   -0.0413   -1.0084 N   0  0  0  0  0  0  0  0  0  0  0  0
   -2.7288    0.2790   -1.6704 H   0  0  0  0  0  0  0  0  0  0  0  0
   -0.7925    0.7699   -0.9297 C   0  0  1  0  0  0  0  0  0  0  0  0
   -0.6364    1.1048    0.1012 H   0  0  0  0  0  0  0  0  0  0  0  0
    0.4724    0.0058   -1.4127 C   0  0  0  0  0  0  0  0  0  0  0  0
    0.2846   -0.3628   -2.4263 H   0  0  0  0  0  0  0  0  0  0  0  0
    1.3220    0.6928   -1.4626 H   0  0  0  0  0  0  0  0  0  0  0  0
    0.9147   -1.1536   -0.5623 C   0  0  0  0  0  0  0  0  0  0  0  0
    0.6309   -2.4826   -0.7686 C   0  0  0  0  0  0  0  0  0  0  0  0
    0.0097   -2.8790   -1.5672 H   0  0  0  0  0  0  0  0  0  0  0  0
    1.2722   -3.2125    0.2298 N   0  0  0  0  0  0  0  0  0  0  0  0
    1.1848   -4.2153    0.3729 H   0  0  0  0  0  0  0  0  0  0  0  0
    1.9593   -2.3624    1.0810 C   0  0  0  0  0  0  0  0  0  0  0  0
    2.7294   -2.6120    2.2170 C   0  0  0  0  0  0  0  0  0  0  0  0
    2.8690   -3.6277    2.5688 H   0  0  0  0  0  0  0  0  0  0  0  0
    3.3142   -1.5341    2.8964 C   0  0  0  0  0  0  0  0  0  0  0  0
    3.9136   -1.7141    3.7837 H   0  0  0  0  0  0  0  0  0  0  0  0
    3.1203   -0.2230    2.4348 C   0  0  0  0  0  0  0  0  0  0  0  0
    3.5698    0.6100    2.9666 H   0  0  0  0  0  0  0  0  0  0  0  0
    2.3412    0.0157    1.2933 C   0  0  0  0  0  0  0  0  0  0  0  0
    2.1817    1.0282    0.9397 H   0  0  0  0  0  0  0  0  0  0  0  0
    1.7636   -1.0658    0.6195 C   0  0  0  0  0  0  0  0  0  0  0  0
   -0.9897    2.0210   -1.8297 C   0  0  0  0  0  0  0  0  0  0  0  0
   -2.0971    2.5448   -1.8797 O   0  0  0  0  0  0  0  0  0  0  0  0
   -0.0255    2.4891   -2.7095 N   0  0  0  0  0  0  0  0  0  0  0  0
    0.8837    2.0369   -2.6973 H   0  0  0  0  0  0  0  0  0  0  0  0
   -0.2348    3.6167   -3.6108 C   0  0  0  0  0  0  0  0  0  0  0  0
   -0.4780    4.5212   -3.0433 H   0  0  0  0  0  0  0  0  0  0  0  0
    0.6714    3.8080   -4.1935 H   0  0  0  0  0  0  0  0  0  0  0  0
   -1.0540    3.4055   -4.3062 H   0  0  0  0  0  0  0  0  0  0  0  0
  1  2  1  0  0  0  0
  2  3  1  0  0  0  0
  2  4  1  0  0  0  0
  2  5  1  0  0  0  0
  5  6  2  0  0  0  0
  5  7  1  0  0  0  0
  7  8  1  0  0  0  0
  7  9  1  0  0  0  0
  9 10  1  0  0  0  0
  9 11  1  0  0  0  0
  9 29  1  0  0  0  0
 11 12  1  0  0  0  0
 11 13  1  0  0  0  0
 11 14  1  0  0  0  0
 14 15  2  0  0  0  0
 14 28  1  0  0  0  0
 15 16  1  0  0  0  0
 15 17  1  0  0  0  0
 17 18  1  0  0  0  0
 17 19  1  0  0  0  0
 19 20  1  0  0  0  0
 19 28  2  0  0  0  0
 20 21  1  0  0  0  0
 20 22  2  0  0  0  0
 22 23  1  0  0  0  0
 22 24  1  0  0  0  0
 24 25  1  0  0  0  0
 24 26  2  0  0  0  0
 26 27  1  0  0  0  0
 26 28  1  0  0  0  0
 29 30  2  0  0  0  0
 29 31  1  0  0  0  0
 31 32  1  0  0  0  0
 31 33  1  0  0  0  0
 33 34  1  0  0  0  0
 33 35  1  0  0  0  0
 33 36  1  0  0  0  0
M  END
$$$$

  -OEChem-01062216103D

 36 37  0     1  0  0  0  0  0999 V2000
   -3.8715   -2.5849    0.2935 H   0  0  0  0  0  0  0  0  0  0  0  0
   -3.7204   -1.7926   -0.4452 C   0  0  0  0  0  0  0  0  0  0  0  0
   -4.5570   -1.0920   -0.3859 H   0  0  0  0  0  0  0  0  0  0  0  0
   -3.6979   -2.2407   -1.4413 H   0  0  0  0  0  0  0  0  0  0  0  0
   -2.4164   -1.0659   -0.1732 C   0  0  0  0  0  0  0  0  0  0  0  0
   -1.7911   -1.3271    0.8372 O   0  0  0  0  0  0  0  0  0  0  0  0
   -2.0321   -0.0443   -1.0163 N   0  0  0  0  0  0  0  0  0  0  0  0
   -2.7384    0.2739   -1.6757 H   0  0  0  0  0  0  0  0  0  0  0  0
   -0.7932    0.7569   -0.9450 C   0  0  1  0  0  0  0  0  0  0  0  0
   -0.6341    1.0925    0.0854 H   0  0  0  0  0  0  0  0  0  0  0  0
    0.4720   -0.0084   -1.4234 C   0  0  0  0  0  0  0  0  0  0  0  0
    0.2825   -0.3893   -2.4321 H   0  0  0  0  0  0  0  0  0  0  0  0
    1.3165    0.6853   -1.4835 H   0  0  0  0  0  0  0  0  0  0  0  0
    0.9150   -1.1634   -0.5675 C   0  0  0  0  0  0  0  0  0  0  0  0
    0.6344   -2.4946   -0.7643 C   0  0  0  0  0  0  0  0  0  0  0  0
    0.0134   -2.8985   -1.5591 H   0  0  0  0  0  0  0  0  0  0  0  0
    1.2767   -3.2157    0.2398 N   0  0  0  0  0  0  0  0  0  0  0  0
    1.1906   -4.2173    0.3917 H   0  0  0  0  0  0  0  0  0  0  0  0
    1.9619   -2.3578    1.0845 C   0  0  0  0  0  0  0  0  0  0  0  0
    2.7325   -2.5972    2.2221 C   0  0  0  0  0  0  0  0  0  0  0  0
    2.8739   -3.6103    2.5812 H   0  0  0  0  0  0  0  0  0  0  0  0
    3.3162   -1.5131    2.8929 C   0  0  0  0  0  0  0  0  0  0  0  0
    3.9168   -1.6857    3.7809 H   0  0  0  0  0  0  0  0  0  0  0  0
    3.1202   -0.2060    2.4210 C   0  0  0  0  0  0  0  0  0  0  0  0
    3.5685    0.6320    2.9456 H   0  0  0  0  0  0  0  0  0  0  0  0
    2.3402    0.0223    1.2781 C   0  0  0  0  0  0  0  0  0  0  0  0
    2.1783    1.0316    0.9166 H   0  0  0  0  0  0  0  0  0  0  0  0
    1.7641   -1.0654    0.6131 C   0  0  0  0  0  0  0  0  0  0  0  0
   -0.9834    2.0106   -1.8386 C   0  0  0  0  0  0  0  0  0  0  0  0
   -1.9914    2.6898   -1.6895 O   0  0  0  0  0  0  0  0  0  0  0  0
   -0.1715    2.3036   -2.9241 N   0  0  0  0  0  0  0  0  0  0  0  0
    0.6464    1.7201   -3.0720 H   0  0  0  0  0  0  0  0  0  0  0  0
   -0.3995    3.4321   -3.8198 C   0  0  0  0  0  0  0  0  0  0  0  0
   -0.3820    4.3740   -3.2614 H   0  0  0  0  0  0  0  0  0  0  0  0
    0.3807    3.4708   -4.5861 H   0  0  0  0  0  0  0  0  0  0  0  0
   -1.3694    3.3361   -4.3191 H   0  0  0  0  0  0  0  0  0  0  0  0
  1  2  1  0  0  0  0
  2  3  1  0  0  0  0
  2  4  1  0  0  0  0
  2  5  1  0  0  0  0
  5  6  2  0  0  0  0
  5  7  1  0  0  0  0
  7  8  1  0  0  0  0
  7  9  1  0  0  0  0
  9 10  1  0  0  0  0
  9 11  1  0  0  0  0
  9 29  1  0  0  0  0
 11 12  1  0  0  0  0
 11 13  1  0  0  0  0
 11 14  1  0  0  0  0
 14 15  2  0  0  0  0
 14 28  1  0  0  0  0
 15 16  1  0  0  0  0
 15 17  1  0  0  0  0
 17 18  1  0  0  0  0
 17 19  1  0  0  0  0
 19 20  1  0  0  0  0
 19 28  2  0  0  0  0
 20 21  1  0  0  0  0
 20 22  2  0  0  0  0
 22 23  1  0  0  0  0
 22 24  1  0  0  0  0
 24 25  1  0  0  0  0
 24 26  2  0  0  0  0
 26 27  1  0  0  0  0
 26 28  1  0  0  0  0
 29 30  2  0  0  0  0
 29 31  1  0  0  0  0
 31 32  1  0  0  0  0
 31 33  1  0  0  0  0
 33 34  1  0  0  0  0
 33 35  1  0  0  0  0
 33 36  1  0  0  0  0
M  END
$$$$

  -OEChem-01062216103D

 36 37  0     1  0  0  0  0  0999 V2000
   -3.8573   -2.6018    0.3102 H   0  0  0  0  0  0  0  0  0  0  0  0
   -3.7160   -1.8133   -0.4344 C   0  0  0  0  0  0  0  0  0  0  0  0
   -4.5627   -1.1245   -0.3822 H   0  0  0  0  0  0  0  0  0  0  0  0
   -3.6845   -2.2689   -1.4267 H   0  0  0  0  0  0  0  0  0  0  0  0
   -2.4233   -1.0663   -0.1639 C   0  0  0  0  0  0  0  0  0  0  0  0
   -1.7979   -1.3116    0.8502 O   0  0  0  0  0  0  0  0  0  0  0  0
   -2.0473   -0.0474   -1.0149 N   0  0  0  0  0  0  0  0  0  0  0  0
   -2.7402    0.2322   -1.7038 H   0  0  0  0  0  0  0  0  0  0  0  0
   -0.8044    0.7492   -0.9560 C   0  0  1  0  0  0  0  0  0  0  0  0
   -0.6383    1.0838    0.0738 H   0  0  0  0  0  0  0  0  0  0  0  0
    0.4574   -0.0178   -1.4381 C   0  0  0  0  0  0  0  0  0  0  0  0
    0.2607   -0.4105   -2.4404 H   0  0  0  0  0  0  0  0  0  0  0  0
    1.2982    0.6793   -1.5148 H   0  0  0  0  0  0  0  0  0  0  0  0
    0.9029   -1.1684   -0.5774 C   0  0  0  0  0  0  0  0  0  0  0  0
    0.6215   -2.5013   -0.7625 C   0  0  0  0  0  0  0  0  0  0  0  0
   -0.0004   -2.9121   -1.5529 H   0  0  0  0  0  0  0  0  0  0  0  0
    1.2666   -3.2143    0.2457 N   0  0  0  0  0  0  0  0  0  0  0  0
    1.1806   -4.2145    0.4064 H   0  0  0  0  0  0  0  0  0  0  0  0
    1.9542   -2.3496    1.0816 C   0  0  0  0  0  0  0  0  0  0  0  0
    2.7287   -2.5791    2.2187 C   0  0  0  0  0  0  0  0  0  0  0  0
    2.8720   -3.5889    2.5861 H   0  0  0  0  0  0  0  0  0  0  0  0
    3.3142   -1.4891    2.8781 C   0  0  0  0  0  0  0  0  0  0  0  0
    3.9186   -1.6535    3.7648 H   0  0  0  0  0  0  0  0  0  0  0  0
    3.1152   -0.1861    2.3966 C   0  0  0  0  0  0  0  0  0  0  0  0
    3.5648    0.6567    2.9122 H   0  0  0  0  0  0  0  0  0  0  0  0
    2.3309    0.0324    1.2549 C   0  0  0  0  0  0  0  0  0  0  0  0
    2.1662    1.0387    0.8858 H   0  0  0  0  0  0  0  0  0  0  0  0
    1.7544   -1.0612    0.6003 C   0  0  0  0  0  0  0  0  0  0  0  0
   -0.9832    2.0050   -1.8439 C   0  0  0  0  0  0  0  0  0  0  0  0
   -1.8144    2.8427   -1.5215 O   0  0  0  0  0  0  0  0  0  0  0  0
   -0.3846    2.1379   -3.0875 N   0  0  0  0  0  0  0  0  0  0  0  0
    0.2877    1.4289   -3.3645 H   0  0  0  0  0  0  0  0  0  0  0  0
   -0.6099    3.2759   -3.9714 C   0  0  0  0  0  0  0  0  0  0  0  0
   -0.3239    4.2093   -3.4751 H   0  0  0  0  0  0  0  0  0  0  0  0
   -0.0122    3.1720   -4.8821 H   0  0  0  0  0  0  0  0  0  0  0  0
   -1.6655    3.3374   -4.2564 H   0  0  0  0  0  0  0  0  0  0  0  0
  1  2  1  0  0  0  0
  2  3  1  0  0  0  0
  2  4  1  0  0  0  0
  2  5  1  0  0  0  0
  5  6  2  0  0  0  0
  5  7  1  0  0  0  0
  7  8  1  0  0  0  0
  7  9  1  0  0  0  0
  9 10  1  0  0  0  0
  9 11  1  0  0  0  0
  9 29  1  0  0  0  0
 11 12  1  0  0  0  0
 11 13  1  0  0  0  0
 11 14  1  0  0  0  0
 14 15  2  0  0  0  0
 14 28  1  0  0  0  0
 15 16  1  0  0  0  0
 15 17  1  0  0  0  0
 17 18  1  0  0  0  0
 17 19  1  0  0  0  0
 19 20  1  0  0  0  0
 19 28  2  0  0  0  0
 20 21  1  0  0  0  0
 20 22  2  0  0  0  0
 22 23  1  0  0  0  0
 22 24  1  0  0  0  0
 24 25  1  0  0  0  0
 24 26  2  0  0  0  0
 26 27  1  0  0  0  0
 26 28  1  0  0  0  0
 29 30  2  0  0  0  0
 29 31  1  0  0  0  0
 31 32  1  0  0  0  0
 31 33  1  0  0  0  0
 33 34  1  0  0  0  0
 33 35  1  0  0  0  0
 33 36  1  0  0  0  0
M  END
$$$$

  -OEChem-01062216103D

 36 37  0     1  0  0  0  0  0999 V2000
   -3.8528   -2.6150    0.3367 H   0  0  0  0  0  0  0  0  0  0  0  0
   -3.7143   -1.8365   -0.4189 C   0  0  0  0  0  0  0  0  0  0  0  0
   -4.5703   -1.1580   -0.3849 H   0  0  0  0  0  0  0  0  0  0  0  0
   -3.6682   -2.3075   -1.4034 H   0  0  0  0  0  0  0  0  0  0  0  0
   -2.4337   -1.0690   -0.1477 C   0  0  0  0  0  0  0  0  0  0  0  0
   -1.8085   -1.2991    0.8700 O   0  0  0  0  0  0  0  0  0  0  0  0
   -2.0669   -0.0528   -1.0063 N   0  0  0  0  0  0  0  0  0  0  0  0
   -2.7423    0.1837   -1.7272 H   0  0  0  0  0  0  0  0  0  0  0  0
   -0.8215    0.7407   -0.9591 C   0  0  1  0  0  0  0  0  0  0  0  0
   -0.6470    1.0727    0.0706 H   0  0  0  0  0  0  0  0  0  0  0  0
    0.4380   -0.0220   -1.4508 C   0  0  0  0  0  0  0  0  0  0  0  0
    0.2368   -0.4188   -2.4501 H   0  0  0  0  0  0  0  0  0  0  0  0
    1.2743    0.6795   -1.5386 H   0  0  0  0  0  0  0  0  0  0  0  0
    0.8901   -1.1712   -0.5910 C   0  0  0  0  0  0  0  0  0  0  0  0
    0.6124   -2.5060   -0.7688 C   0  0  0  0  0  0  0  0  0  0  0  0
   -0.0090   -2.9238   -1.5558 H   0  0  0  0  0  0  0  0  0  0  0  0
    1.2638   -3.2120    0.2407 N   0  0  0  0  0  0  0  0  0  0  0  0
    1.1874   -4.2127    0.4029 H   0  0  0  0  0  0  0  0  0  0  0  0
    1.9500   -2.3410    1.0715 C   0  0  0  0  0  0  0  0  0  0  0  0
    2.7279   -2.5604    2.2086 C   0  0  0  0  0  0  0  0  0  0  0  0
    2.8766   -3.5672    2.5821 H   0  0  0  0  0  0  0  0  0  0  0  0
    3.3086   -1.4637    2.8614 C   0  0  0  0  0  0  0  0  0  0  0  0
    3.9146   -1.6195    3.7488 H   0  0  0  0  0  0  0  0  0  0  0  0
    3.1022   -0.1641    2.3731 C   0  0  0  0  0  0  0  0  0  0  0  0
    3.5478    0.6841    2.8837 H   0  0  0  0  0  0  0  0  0  0  0  0
    2.3151    0.0443    1.2316 C   0  0  0  0  0  0  0  0  0  0  0  0
    2.1440    1.0479    0.8576 H   0  0  0  0  0  0  0  0  0  0  0  0
    1.7434   -1.0560    0.5843 C   0  0  0  0  0  0  0  0  0  0  0  0
   -0.9918    1.9972   -1.8427 C   0  0  0  0  0  0  0  0  0  0  0  0
   -1.5637    2.9776   -1.3886 O   0  0  0  0  0  0  0  0  0  0  0  0
   -0.6590    2.0010   -3.1882 N   0  0  0  0  0  0  0  0  0  0  0  0
   -0.1879    1.1814   -3.5587 H   0  0  0  0  0  0  0  0  0  0  0  0
   -0.8623    3.1510   -4.0618 C   0  0  0  0  0  0  0  0  0  0  0  0
   -0.3103    4.0196   -3.6872 H   0  0  0  0  0  0  0  0  0  0  0  0
   -0.5078    2.9261   -5.0723 H   0  0  0  0  0  0  0  0  0  0  0  0
   -1.9256    3.4067   -4.1180 H   0  0  0  0  0  0  0  0  0  0  0  0
  1  2  1  0  0  0  0
  2  3  1  0  0  0  0
  2  4  1  0  0  0  0
  2  5  1  0  0  0  0
  5  6  2  0  0  0  0
  5  7  1  0  0  0  0
  7  8  1  0  0  0  0
  7  9  1  0  0  0  0
  9 10  1  0  0  0  0
  9 11  1  0  0  0  0
  9 29  1  0  0  0  0
 11 12  1  0  0  0  0
 11 13  1  0  0  0  0
 11 14  1  0  0  0  0
 14 15  2  0  0  0  0
 14 28  1  0  0  0  0
 15 16  1  0  0  0  0
 15 17  1  0  0  0  0
 17 18  1  0  0  0  0
 17 19  1  0  0  0  0
 19 20  1  0  0  0  0
 19 28  2  0  0  0  0
 20 21  1  0  0  0  0
 20 22  2  0  0  0  0
 22 23  1  0  0  0  0
 22 24  1  0  0  0  0
 24 25  1  0  0  0  0
 24 26  2  0  0  0  0
 26 27  1  0  0  0  0
 26 28  1  0  0  0  0
 29 30  2  0  0  0  0
 29 31  1  0  0  0  0
 31 32  1  0  0  0  0
 31 33  1  0  0  0  0
 33 34  1  0  0  0  0
 33 35  1  0  0  0  0
 33 36  1  0  0  0  0
M  END
$$$$

  -OEChem-01062216103D

 36 37  0     1  0  0  0  0  0999 V2000
   -3.8292   -2.6410    0.3802 H   0  0  0  0  0  0  0  0  0  0  0  0
   -3.7037   -1.8698   -0.3854 C   0  0  0  0  0  0  0  0  0  0  0  0
   -4.5730   -1.2080   -0.3627 H   0  0  0  0  0  0  0  0  0  0  0  0
   -3.6444   -2.3526   -1.3634 H   0  0  0  0  0  0  0  0  0  0  0  0
   -2.4398   -1.0731   -0.1206 C   0  0  0  0  0  0  0  0  0  0  0  0
   -1.8128   -1.2773    0.9011 O   0  0  0  0  0  0  0  0  0  0  0  0
   -2.0884   -0.0606   -0.9904 N   0  0  0  0  0  0  0  0  0  0  0  0
   -2.7512    0.1364   -1.7339 H   0  0  0  0  0  0  0  0  0  0  0  0
   -0.8464    0.7396   -0.9517 C   0  0  1  0  0  0  0  0  0  0  0  0
   -0.6654    1.0715    0.0770 H   0  0  0  0  0  0  0  0  0  0  0  0
    0.4127   -0.0100   -1.4597 C   0  0  0  0  0  0  0  0  0  0  0  0
    0.2096   -0.4003   -2.4612 H   0  0  0  0  0  0  0  0  0  0  0  0
    1.2430    0.6988   -1.5484 H   0  0  0  0  0  0  0  0  0  0  0  0
    0.8754   -1.1599   -0.6066 C   0  0  0  0  0  0  0  0  0  0  0  0
    0.6024   -2.4951   -0.7876 C   0  0  0  0  0  0  0  0  0  0  0  0
   -0.0191   -2.9129   -1.5745 H   0  0  0  0  0  0  0  0  0  0  0  0
    1.2604   -3.2017    0.2171 N   0  0  0  0  0  0  0  0  0  0  0  0
    1.1930   -4.2040    0.3741 H   0  0  0  0  0  0  0  0  0  0  0  0
    1.9432   -2.3297    1.0500 C   0  0  0  0  0  0  0  0  0  0  0  0
    2.7236   -2.5484    2.1856 C   0  0  0  0  0  0  0  0  0  0  0  0
    2.8801   -3.5557    2.5546 H   0  0  0  0  0  0  0  0  0  0  0  0
    3.2971   -1.4503    2.8426 C   0  0  0  0  0  0  0  0  0  0  0  0
    3.9048   -1.6057    3.7287 H   0  0  0  0  0  0  0  0  0  0  0  0
    3.0812   -0.1501    2.3601 C   0  0  0  0  0  0  0  0  0  0  0  0
    3.5204    0.6993    2.8740 H   0  0  0  0  0  0  0  0  0  0  0  0
    2.2926    0.0574    1.2195 C   0  0  0  0  0  0  0  0  0  0  0  0
    2.1140    1.0612    0.8491 H   0  0  0  0  0  0  0  0  0  0  0  0
    1.7286   -1.0442    0.5680 C   0  0  0  0  0  0  0  0  0  0  0  0
   -1.0160    1.9914   -1.8377 C   0  0  0  0  0  0  0  0  0  0  0  0
   -1.2748    3.0713   -1.3276 O   0  0  0  0  0  0  0  0  0  0  0  0
   -0.9777    1.9036   -3.2201 N   0  0  0  0  0  0  0  0  0  0  0  0
   -0.7249    1.0084   -3.6270 H   0  0  0  0  0  0  0  0  0  0  0  0
   -1.1344    3.0574   -4.0983 C   0  0  0  0  0  0  0  0  0  0  0  0
   -0.3630    3.8061   -3.8889 H   0  0  0  0  0  0  0  0  0  0  0  0
   -1.0444    2.7521   -5.1453 H   0  0  0  0  0  0  0  0  0  0  0  0
   -2.1185    3.5163   -3.9560 H   0  0  0  0  0  0  0  0  0  0  0  0
  1  2  1  0  0  0  0
  2  3  1  0  0  0  0
  2  4  1  0  0  0  0
  2  5  1  0  0  0  0
  5  6  2  0  0  0  0
  5  7  1  0  0  0  0
  7  8  1  0  0  0  0
  7  9  1  0  0  0  0
  9 10  1  0  0  0  0
  9 11  1  0  0  0  0
  9 29  1  0  0  0  0
 11 12  1  0  0  0  0
 11 13  1  0  0  0  0
 11 14  1  0  0  0  0
 14 15  2  0  0  0  0
 14 28  1  0  0  0  0
 15 16  1  0  0  0  0
 15 17  1  0  0  0  0
 17 18  1  0  0  0  0
 17 19  1  0  0  0  0
 19 20  1  0  0  0  0
 19 28  2  0  0  0  0
 20 21  1  0  0  0  0
 20 22  2  0  0  0  0
 22 23  1  0  0  0  0
 22 24  1  0  0  0  0
 24 25  1  0  0  0  0
 24 26  2  0  0  0  0
 26 27  1  0  0  0  0
 26 28  1  0  0  0  0
 29 30  2  0  0  0  0
 29 31  1  0  0  0  0
 31 32  1  0  0  0  0
 31 33  1  0  0  0  0
 33 34  1  0  0  0  0
 33 35  1  0  0  0  0
 33 36  1  0  0  0  0
M  END
$$$$

  -OEChem-01062216103D

 36 37  0     1  0  0  0  0  0999 V2000
   -3.8022   -2.6698    0.4167 H   0  0  0  0  0  0  0  0  0  0  0  0
   -3.6931   -1.8985   -0.3511 C   0  0  0  0  0  0  0  0  0  0  0  0
   -4.5739   -1.2525   -0.3272 H   0  0  0  0  0  0  0  0  0  0  0  0
   -3.6285   -2.3821   -1.3282 H   0  0  0  0  0  0  0  0  0  0  0  0
   -2.4426   -1.0793   -0.0918 C   0  0  0  0  0  0  0  0  0  0  0  0
   -1.8154   -1.2619    0.9339 O   0  0  0  0  0  0  0  0  0  0  0  0
   -2.1052   -0.0688   -0.9699 N   0  0  0  0  0  0  0  0  0  0  0  0
   -2.7678    0.1110   -1.7176 H   0  0  0  0  0  0  0  0  0  0  0  0
   -0.8726    0.7471   -0.9306 C   0  0  1  0  0  0  0  0  0  0  0  0
   -0.6889    1.0787    0.0981 H   0  0  0  0  0  0  0  0  0  0  0  0
    0.3867    0.0150   -1.4581 C   0  0  0  0  0  0  0  0  0  0  0  0
    0.1806   -0.3613   -2.4645 H   0  0  0  0  0  0  0  0  0  0  0  0
    1.2110    0.7309   -1.5428 H   0  0  0  0  0  0  0  0  0  0  0  0
    0.8615   -1.1399   -0.6192 C   0  0  0  0  0  0  0  0  0  0  0  0
    0.5948   -2.4745   -0.8124 C   0  0  0  0  0  0  0  0  0  0  0  0
   -0.0262   -2.8872   -1.6022 H   0  0  0  0  0  0  0  0  0  0  0  0
    1.2574   -3.1873    0.1849 N   0  0  0  0  0  0  0  0  0  0  0  0
    1.1984   -4.1918    0.3304 H   0  0  0  0  0  0  0  0  0  0  0  0
    1.9359   -2.3196    1.0257 C   0  0  0  0  0  0  0  0  0  0  0  0
    2.7182   -2.5446    2.1586 C   0  0  0  0  0  0  0  0  0  0  0  0
    2.8793   -3.5544    2.5181 H   0  0  0  0  0  0  0  0  0  0  0  0
    3.2868   -1.4498    2.8251 C   0  0  0  0  0  0  0  0  0  0  0  0
    3.8950   -1.6102    3.7100 H   0  0  0  0  0  0  0  0  0  0  0  0
    3.0647   -0.1464    2.3541 C   0  0  0  0  0  0  0  0  0  0  0  0
    3.4997    0.7008    2.8754 H   0  0  0  0  0  0  0  0  0  0  0  0
    2.2744    0.0676    1.2158 C   0  0  0  0  0  0  0  0  0  0  0  0
    2.0910    1.0737    0.8537 H   0  0  0  0  0  0  0  0  0  0  0  0
    1.7149   -1.0309    0.5556 C   0  0  0  0  0  0  0  0  0  0  0  0
   -1.0446    1.9923   -1.8222 C   0  0  0  0  0  0  0  0  0  0  0  0
   -0.9972    3.1127   -1.3369 O   0  0  0  0  0  0  0  0  0  0  0  0
   -1.3019    1.8579   -3.1770 N   0  0  0  0  0  0  0  0  0  0  0  0
   -1.2363    0.9257   -3.5735 H   0  0  0  0  0  0  0  0  0  0  0  0
   -1.4251    2.9981   -4.0780 C   0  0  0  0  0  0  0  0  0  0  0  0
   -0.5085    3.5974   -4.0656 H   0  0  0  0  0  0  0  0  0  0  0  0
   -1.5996    2.6546   -5.1021 H   0  0  0  0  0  0  0  0  0  0  0  0
   -2.2656    3.6335   -3.7787 H   0  0  0  0  0  0  0  0  0  0  0  0
  1  2  1  0  0  0  0
  2  3  1  0  0  0  0
  2  4  1  0  0  0  0
  2  5  1  0  0  0  0
  5  6  2  0  0  0  0
  5  7  1  0  0  0  0
  7  8  1  0  0  0  0
  7  9  1  0  0  0  0
  9 10  1  0  0  0  0
  9 11  1  0  0  0  0
  9 29  1  0  0  0  0
 11 12  1  0  0  0  0
 11 13  1  0  0  0  0
 11 14  1  0  0  0  0
 14 15  2  0  0  0  0
 14 28  1  0  0  0  0
 15 16  1  0  0  0  0
 15 17  1  0  0  0  0
 17 18  1  0  0  0  0
 17 19  1  0  0  0  0
 19 20  1  0  0  0  0
 19 28  2  0  0  0  0
 20 21  1  0  0  0  0
 20 22  2  0  0  0  0
 22 23  1  0  0  0  0
 22 24  1  0  0  0  0
 24 25  1  0  0  0  0
 24 26  2  0  0  0  0
 26 27  1  0  0  0  0
 26 28  1  0  0  0  0
 29 30  2  0  0  0  0
 29 31  1  0  0  0  0
 31 32  1  0  0  0  0
 31 33  1  0  0  0  0
 33 34  1  0  0  0  0
 33 35  1  0  0  0  0
 33 36  1  0  0  0  0
M  END
$$$$

  -OEChem-01062216103D

 36 37  0     1  0  0  0  0  0999 V2000
   -3.7908   -2.6966    0.4432 H   0  0  0  0  0  0  0  0  0  0  0  0
   -3.6925   -1.9249   -0.3256 C   0  0  0  0  0  0  0  0  0  0  0  0
   -4.5783   -1.2859   -0.2978 H   0  0  0  0  0  0  0  0  0  0  0  0
   -3.6284   -2.4091   -1.3027 H   0  0  0  0  0  0  0  0  0  0  0  0
   -2.4481   -1.0952   -0.0724 C   0  0  0  0  0  0  0  0  0  0  0  0
   -1.8179   -1.2676    0.9530 O   0  0  0  0  0  0  0  0  0  0  0  0
   -2.1223   -0.0841   -0.9544 N   0  0  0  0  0  0  0  0  0  0  0  0
   -2.8005    0.1043   -1.6853 H   0  0  0  0  0  0  0  0  0  0  0  0
   -0.8998    0.7484   -0.9102 C   0  0  1  0  0  0  0  0  0  0  0  0
   -0.7179    1.0771    0.1197 H   0  0  0  0  0  0  0  0  0  0  0  0
    0.3608    0.0302   -1.4505 C   0  0  0  0  0  0  0  0  0  0  0  0
    0.1502   -0.3350   -2.4600 H   0  0  0  0  0  0  0  0  0  0  0  0
    1.1812    0.7512   -1.5330 H   0  0  0  0  0  0  0  0  0  0  0  0
    0.8472   -1.1286   -0.6239 C   0  0  0  0  0  0  0  0  0  0  0  0
    0.5890   -2.4634   -0.8262 C   0  0  0  0  0  0  0  0  0  0  0  0
   -0.0300   -2.8752   -1.6180 H   0  0  0  0  0  0  0  0  0  0  0  0
    1.2579   -3.1786    0.1649 N   0  0  0  0  0  0  0  0  0  0  0  0
    1.2064   -4.1845    0.3027 H   0  0  0  0  0  0  0  0  0  0  0  0
    1.9342   -2.3127    1.0098 C   0  0  0  0  0  0  0  0  0  0  0  0
    2.7209   -2.5397    2.1393 C   0  0  0  0  0  0  0  0  0  0  0  0
    2.8887   -3.5503    2.4933 H   0  0  0  0  0  0  0  0  0  0  0  0
    3.2850   -1.4456    2.8107 C   0  0  0  0  0  0  0  0  0  0  0  0
    3.8963   -1.6070    3.6933 H   0  0  0  0  0  0  0  0  0  0  0  0
    3.0554   -0.1407    2.3477 C   0  0  0  0  0  0  0  0  0  0  0  0
    3.4883    0.7053    2.8727 H   0  0  0  0  0  0  0  0  0  0  0  0
    2.2606    0.0758    1.2128 C   0  0  0  0  0  0  0  0  0  0  0  0
    2.0710    1.0832    0.8566 H   0  0  0  0  0  0  0  0  0  0  0  0
    1.7044   -1.0223    0.5484 C   0  0  0  0  0  0  0  0  0  0  0  0
   -1.0651    1.9937   -1.8025 C   0  0  0  0  0  0  0  0  0  0  0  0
   -0.7361    3.0972   -1.3931 O   0  0  0  0  0  0  0  0  0  0  0  0
   -1.6033    1.8776   -3.0744 N   0  0  0  0  0  0  0  0  0  0  0  0
   -1.6978    0.9395   -3.4495 H   0  0  0  0  0  0  0  0  0  0  0  0
   -1.7128    3.0078   -3.9896 C   0  0  0  0  0  0  0  0  0  0  0  0
   -0.7246    3.4329   -4.1945 H   0  0  0  0  0  0  0  0  0  0  0  0
   -2.1549    2.6859   -4.9373 H   0  0  0  0  0  0  0  0  0  0  0  0
   -2.3497    3.7885   -3.5601 H   0  0  0  0  0  0  0  0  0  0  0  0
  1  2  1  0  0  0  0
  2  3  1  0  0  0  0
  2  4  1  0  0  0  0
  2  5  1  0  0  0  0
  5  6  2  0  0  0  0
  5  7  1  0  0  0  0
  7  8  1  0  0  0  0
  7  9  1  0  0  0  0
  9 10  1  0  0  0  0
  9 11  1  0  0  0  0
  9 29  1  0  0  0  0
 11 12  1  0  0  0  0
 11 13  1  0  0  0  0
 11 14  1  0  0  0  0
 14 15  2  0  0  0  0
 14 28  1  0  0  0  0
 15 16  1  0  0  0  0
 15 17  1  0  0  0  0
 17 18  1  0  0  0  0
 17 19  1  0  0  0  0
 19 20  1  0  0  0  0
 19 28  2  0  0  0  0
 20 21  1  0  0  0  0
 20 22  2  0  0  0  0
 22 23  1  0  0  0  0
 22 24  1  0  0  0  0
 24 25  1  0  0  0  0
 24 26  2  0  0  0  0
 26 27  1  0  0  0  0
 26 28  1  0  0  0  0
 29 30  2  0  0  0  0
 29 31  1  0  0  0  0
 31 32  1  0  0  0  0
 31 33  1  0  0  0  0
 33 34  1  0  0  0  0
 33 35  1  0  0  0  0
 33 36  1  0  0  0  0
M  END
$$$$

  -OEChem-01062216103D

 36 37  0     1  0  0  0  0  0999 V2000
   -3.7622   -2.7412    0.4537 H   0  0  0  0  0  0  0  0  0  0  0  0
   -3.6742   -1.9698   -0.3169 C   0  0  0  0  0  0  0  0  0  0  0  0
   -4.5750   -1.3517   -0.2995 H   0  0  0  0  0  0  0  0  0  0  0  0
   -3.5903   -2.4563   -1.2914 H   0  0  0  0  0  0  0  0  0  0  0  0
   -2.4509   -1.1108   -0.0565 C   0  0  0  0  0  0  0  0  0  0  0  0
   -1.8303   -1.2589    0.9785 O   0  0  0  0  0  0  0  0  0  0  0  0
   -2.1364   -0.1001   -0.9434 N   0  0  0  0  0  0  0  0  0  0  0  0
   -2.8154    0.0722   -1.6757 H   0  0  0  0  0  0  0  0  0  0  0  0
   -0.9220    0.7472   -0.8995 C   0  0  1  0  0  0  0  0  0  0  0  0
   -0.7405    1.0748    0.1305 H   0  0  0  0  0  0  0  0  0  0  0  0
    0.3380    0.0294   -1.4437 C   0  0  0  0  0  0  0  0  0  0  0  0
    0.1233   -0.3349   -2.4532 H   0  0  0  0  0  0  0  0  0  0  0  0
    1.1588    0.7499   -1.5296 H   0  0  0  0  0  0  0  0  0  0  0  0
    0.8282   -1.1275   -0.6154 C   0  0  0  0  0  0  0  0  0  0  0  0
    0.5698   -2.4627   -0.8142 C   0  0  0  0  0  0  0  0  0  0  0  0
   -0.0520   -2.8750   -1.6035 H   0  0  0  0  0  0  0  0  0  0  0  0
    1.2425   -3.1761    0.1758 N   0  0  0  0  0  0  0  0  0  0  0  0
    1.1942   -4.1820    0.3145 H   0  0  0  0  0  0  0  0  0  0  0  0
    1.9248   -2.3087    1.0141 C   0  0  0  0  0  0  0  0  0  0  0  0
    2.7208   -2.5339    2.1376 C   0  0  0  0  0  0  0  0  0  0  0  0
    2.8906   -3.5440    2.4926 H   0  0  0  0  0  0  0  0  0  0  0  0
    3.2936   -1.4387    2.8001 C   0  0  0  0  0  0  0  0  0  0  0  0
    3.9145   -1.5990    3.6762 H   0  0  0  0  0  0  0  0  0  0  0  0
    3.0613   -0.1347    2.3352 C   0  0  0  0  0  0  0  0  0  0  0  0
    3.5018    0.7131    2.8510 H   0  0  0  0  0  0  0  0  0  0  0  0
    2.2559    0.0797    1.2074 C   0  0  0  0  0  0  0  0  0  0  0  0
    2.0657    1.0859    0.8481 H   0  0  0  0  0  0  0  0  0  0  0  0
    1.6928   -1.0193    0.5511 C   0  0  0  0  0  0  0  0  0  0  0  0
   -1.0740    1.9968   -1.7915 C   0  0  0  0  0  0  0  0  0  0  0  0
   -0.5099    3.0384   -1.4893 O   0  0  0  0  0  0  0  0  0  0  0  0
   -1.8631    1.9677   -2.9315 N   0  0  0  0  0  0  0  0  0  0  0  0
   -2.1452    1.0555   -3.2721 H   0  0  0  0  0  0  0  0  0  0  0  0
   -1.9830    3.1082   -3.8332 C   0  0  0  0  0  0  0  0  0  0  0  0
   -1.0084    3.3624   -4.2630 H   0  0  0  0  0  0  0  0  0  0  0  0
   -2.6724    2.8735   -4.6498 H   0  0  0  0  0  0  0  0  0  0  0  0
   -2.3702    3.9816   -3.2978 H   0  0  0  0  0  0  0  0  0  0  0  0
  1  2  1  0  0  0  0
  2  3  1  0  0  0  0
  2  4  1  0  0  0  0
  2  5  1  0  0  0  0
  5  6  2  0  0  0  0
  5  7  1  0  0  0  0
  7  8  1  0  0  0  0
  7  9  1  0  0  0  0
  9 10  1  0  0  0  0
  9 11  1  0  0  0  0
  9 29  1  0  0  0  0
 11 12  1  0  0  0  0
 11 13  1  0  0  0  0
 11 14  1  0  0  0  0
 14 15  2  0  0  0  0
 14 28  1  0  0  0  0
 15 16  1  0  0  0  0
 15 17  1  0  0  0  0
 17 18  1  0  0  0  0
 17 19  1  0  0  0  0
 19 20  1  0  0  0  0
 19 28  2  0  0  0  0
 20 21  1  0  0  0  0
 20 22  2  0  0  0  0
 22 23  1  0  0  0  0
 22 24  1  0  0  0  0
 24 25  1  0  0  0  0
 24 26  2  0  0  0  0
 26 27  1  0  0  0  0
 26 28  1  0  0  0  0
 29 30  2  0  0  0  0
 29 31  1  0  0  0  0
 31 32  1  0  0  0  0
 31 33  1  0  0  0  0
 33 34  1  0  0  0  0
 33 35  1  0  0  0  0
 33 36  1  0  0  0  0
M  END
$$$$

  -OEChem-01062216103D

 36 37  0     1  0  0  0  0  0999 V2000
   -3.3593   -2.8667    0.4955 H   0  0  0  0  0  0  0  0  0  0  0  0
   -3.3524   -2.1380   -0.3202 C   0  0  0  0  0  0  0  0  0  0  0  0
   -4.3650   -1.7505   -0.4548 H   0  0  0  0  0  0  0  0  0  0  0  0
   -3.0352   -2.6412   -1.2362 H   0  0  0  0  0  0  0  0  0  0  0  0
   -2.4013   -1.0025    0.0086 C   0  0  0  0  0  0  0  0  0  0  0  0
   -1.9442   -0.9073    1.1324 O   0  0  0  0  0  0  0  0  0  0  0  0
   -2.1536   -0.0244   -0.9345 N   0  0  0  0  0  0  0  0  0  0  0  0
   -2.5359   -0.2440   -1.8470 H   0  0  0  0  0  0  0  0  0  0  0  0
   -0.9172    0.7925   -0.9316 C   0  0  1  0  0  0  0  0  0  0  0  0
   -0.7009    1.1335    0.0873 H   0  0  0  0  0  0  0  0  0  0  0  0
    0.2992    0.0027   -1.4806 C   0  0  0  0  0  0  0  0  0  0  0  0
    0.0485   -0.3777   -2.4756 H   0  0  0  0  0  0  0  0  0  0  0  0
    1.1542    0.6769   -1.6009 H   0  0  0  0  0  0  0  0  0  0  0  0
    0.7504   -1.1497   -0.6215 C   0  0  0  0  0  0  0  0  0  0  0  0
    0.4285   -2.4787   -0.7686 C   0  0  0  0  0  0  0  0  0  0  0  0
   -0.2085   -2.8941   -1.5443 H   0  0  0  0  0  0  0  0  0  0  0  0
    1.0724   -3.1852    0.2449 N   0  0  0  0  0  0  0  0  0  0  0  0
    1.0024   -4.1869    0.4058 H   0  0  0  0  0  0  0  0  0  0  0  0
    1.7999   -2.3199    1.0466 C   0  0  0  0  0  0  0  0  0  0  0  0
    2.5949   -2.5402    2.1719 C   0  0  0  0  0  0  0  0  0  0  0  0
    2.7226   -3.5431    2.5630 H   0  0  0  0  0  0  0  0  0  0  0  0
    3.2225   -1.4489    2.7898 C   0  0  0  0  0  0  0  0  0  0  0  0
    3.8424   -1.6049    3.6674 H   0  0  0  0  0  0  0  0  0  0  0  0
    3.0468   -0.1538    2.2782 C   0  0  0  0  0  0  0  0  0  0  0  0
    3.5300    0.6907    2.7600 H   0  0  0  0  0  0  0  0  0  0  0  0
    2.2438    0.0559    1.1480 C   0  0  0  0  0  0  0  0  0  0  0  0
    2.0996    1.0557    0.7511 H   0  0  0  0  0  0  0  0  0  0  0  0
    1.6247   -1.0392    0.5372 C   0  0  0  0  0  0  0  0  0  0  0  0
   -1.0492    2.0440   -1.8304 C   0  0  0  0  0  0  0  0  0  0  0  0
   -0.1860    2.9109   -1.8084 O   0  0  0  0  0  0  0  0  0  0  0  0
   -2.0754    2.1573   -2.7552 N   0  0  0  0  0  0  0  0  0  0  0  0
   -2.8766    1.5536   -2.6112 H   0  0  0  0  0  0  0  0  0  0  0  0
   -2.2466    3.3356   -3.5984 C   0  0  0  0  0  0  0  0  0  0  0  0
   -1.3544    3.5033   -4.2111 H   0  0  0  0  0  0  0  0  0  0  0  0
   -3.1011    3.1999   -4.2682 H   0  0  0  0  0  0  0  0  0  0  0  0
   -2.4240    4.2249   -2.9845 H   0  0  0  0  0  0  0  0  0  0  0  0
  1  2  1  0  0  0  0
  2  3  1  0  0  0  0
  2  4  1  0  0  0  0
  2  5  1  0  0  0  0
  5  6  2  0  0  0  0
  5  7  1  0  0  0  0
  7  8  1  0  0  0  0
  7  9  1  0  0  0  0
  9 10  1  0  0  0  0
  9 11  1  0  0  0  0
  9 29  1  0  0  0  0
 11 12  1  0  0  0  0
 11 13  1  0  0  0  0
 11 14  1  0  0  0  0
 14 15  2  0  0  0  0
 14 28  1  0  0  0  0
 15 16  1  0  0  0  0
 15 17  1  0  0  0  0
 17 18  1  0  0  0  0
 17 19  1  0  0  0  0
 19 20  1  0  0  0  0
 19 28  2  0  0  0  0
 20 21  1  0  0  0  0
 20 22  2  0  0  0  0
 22 23  1  0  0  0  0
 22 24  1  0  0  0  0
 24 25  1  0  0  0  0
 24 26  2  0  0  0  0
 26 27  1  0  0  0  0
 26 28  1  0  0  0  0
 29 30  2  0  0  0  0
 29 31  1  0  0  0  0
 31 32  1  0  0  0  0
 31 33  1  0  0  0  0
 33 34  1  0  0  0  0
 33 35  1  0  0  0  0
 33 36  1  0  0  0  0
M  END
$$$$

  -OEChem-01062216103D

 36 37  0     1  0  0  0  0  0999 V2000
   -3.3461   -2.8761    0.4516 H   0  0  0  0  0  0  0  0  0  0  0  0
   -3.3487   -2.1293   -0.3476 C   0  0  0  0  0  0  0  0  0  0  0  0
   -4.3615   -1.7341   -0.4580 H   0  0  0  0  0  0  0  0  0  0  0  0
   -3.0477   -2.6131   -1.2797 H   0  0  0  0  0  0  0  0  0  0  0  0
   -2.3889   -1.0045   -0.0087 C   0  0  0  0  0  0  0  0  0  0  0  0
   -1.9359   -0.9176    1.1175 O   0  0  0  0  0  0  0  0  0  0  0  0
   -2.1355   -0.0197   -0.9428 N   0  0  0  0  0  0  0  0  0  0  0  0
   -2.5234   -0.2210   -1.8585 H   0  0  0  0  0  0  0  0  0  0  0  0
   -0.9003    0.7992   -0.9371 C   0  0  1  0  0  0  0  0  0  0  0  0
   -0.6852    1.1423    0.0811 H   0  0  0  0  0  0  0  0  0  0  0  0
    0.3169    0.0038   -1.4813 C   0  0  0  0  0  0  0  0  0  0  0  0
    0.0680   -0.3783   -2.4761 H   0  0  0  0  0  0  0  0  0  0  0  0
    1.1762    0.6717   -1.6010 H   0  0  0  0  0  0  0  0  0  0  0  0
    0.7619   -1.1465   -0.6165 C   0  0  0  0  0  0  0  0  0  0  0  0
    0.4333   -2.4734   -0.7639 C   0  0  0  0  0  0  0  0  0  0  0  0
   -0.2044   -2.8850   -1.5410 H   0  0  0  0  0  0  0  0  0  0  0  0
    1.0669   -3.1823    0.2540 N   0  0  0  0  0  0  0  0  0  0  0  0
    0.9845   -4.1822    0.4194 H   0  0  0  0  0  0  0  0  0  0  0  0
    1.7988   -2.3214    1.0561 C   0  0  0  0  0  0  0  0  0  0  0  0
    2.5900   -2.5474    2.1828 C   0  0  0  0  0  0  0  0  0  0  0  0
    2.7090   -3.5511    2.5748 H   0  0  0  0  0  0  0  0  0  0  0  0
    3.2264   -1.4610    2.8003 C   0  0  0  0  0  0  0  0  0  0  0  0
    3.8458   -1.6223    3.6773 H   0  0  0  0  0  0  0  0  0  0  0  0
    3.0611   -0.1647    2.2881 C   0  0  0  0  0  0  0  0  0  0  0  0
    3.5513    0.6757    2.7698 H   0  0  0  0  0  0  0  0  0  0  0  0
    2.2610    0.0509    1.1565 C   0  0  0  0  0  0  0  0  0  0  0  0
    2.1262    1.0515    0.7582 H   0  0  0  0  0  0  0  0  0  0  0  0
    1.6343   -1.0398    0.5447 C   0  0  0  0  0  0  0  0  0  0  0  0
   -1.0573    2.0500   -1.8366 C   0  0  0  0  0  0  0  0  0  0  0  0
   -0.1211    2.8168   -2.0192 O   0  0  0  0  0  0  0  0  0  0  0  0
   -2.2425    2.2834   -2.5159 N   0  0  0  0  0  0  0  0  0  0  0  0
   -3.0526    1.7748   -2.1765 H   0  0  0  0  0  0  0  0  0  0  0  0
   -2.4675    3.4782   -3.3222 C   0  0  0  0  0  0  0  0  0  0  0  0
   -1.7143    3.5561   -4.1135 H   0  0  0  0  0  0  0  0  0  0  0  0
   -3.4546    3.4362   -3.7925 H   0  0  0  0  0  0  0  0  0  0  0  0
   -2.4171    4.3770   -2.6985 H   0  0  0  0  0  0  0  0  0  0  0  0
  1  2  1  0  0  0  0
  2  3  1  0  0  0  0
  2  4  1  0  0  0  0
  2  5  1  0  0  0  0
  5  6  2  0  0  0  0
  5  7  1  0  0  0  0
  7  8  1  0  0  0  0
  7  9  1  0  0  0  0
  9 10  1  0  0  0  0
  9 11  1  0  0  0  0
  9 29  1  0  0  0  0
 11 12  1  0  0  0  0
 11 13  1  0  0  0  0
 11 14  1  0  0  0  0
 14 15  2  0  0  0  0
 14 28  1  0  0  0  0
 15 16  1  0  0  0  0
 15 17  1  0  0  0  0
 17 18  1  0  0  0  0
 17 19  1  0  0  0  0
 19 20  1  0  0  0  0
 19 28  2  0  0  0  0
 20 21  1  0  0  0  0
 20 22  2  0  0  0  0
 22 23  1  0  0  0  0
 22 24  1  0  0  0  0
 24 25  1  0  0  0  0
 24 26  2  0  0  0  0
 26 27  1  0  0  0  0
 26 28  1  0  0  0  0
 29 30  2  0  0  0  0
 29 31  1  0  0  0  0
 31 32  1  0  0  0  0
 31 33  1  0  0  0  0
 33 34  1  0  0  0  0
 33 35  1  0  0  0  0
 33 36  1  0  0  0  0
M  END
$$$$

  -OEChem-01062216103D

 36 37  0     1  0  0  0  0  0999 V2000
   -3.3502   -2.8679    0.4238 H   0  0  0  0  0  0  0  0  0  0  0  0
   -3.3461   -2.1181   -0.3724 C   0  0  0  0  0  0  0  0  0  0  0  0
   -4.3567   -1.7187   -0.4864 H   0  0  0  0  0  0  0  0  0  0  0  0
   -3.0423   -2.5996   -1.3047 H   0  0  0  0  0  0  0  0  0  0  0  0
   -2.3831   -0.9991   -0.0247 C   0  0  0  0  0  0  0  0  0  0  0  0
   -1.9333   -0.9184    1.1032 O   0  0  0  0  0  0  0  0  0  0  0  0
   -2.1244   -0.0077   -0.9494 N   0  0  0  0  0  0  0  0  0  0  0  0
   -2.5323   -0.1800   -1.8631 H   0  0  0  0  0  0  0  0  0  0  0  0
   -0.8844    0.8033   -0.9443 C   0  0  1  0  0  0  0  0  0  0  0  0
   -0.6679    1.1455    0.0735 H   0  0  0  0  0  0  0  0  0  0  0  0
    0.3311   -0.0007   -1.4836 C   0  0  0  0  0  0  0  0  0  0  0  0
    0.0830   -0.3826   -2.4788 H   0  0  0  0  0  0  0  0  0  0  0  0
    1.1952    0.6613   -1.6005 H   0  0  0  0  0  0  0  0  0  0  0  0
    0.7698   -1.1514   -0.6151 C   0  0  0  0  0  0  0  0  0  0  0  0
    0.4362   -2.4776   -0.7591 C   0  0  0  0  0  0  0  0  0  0  0  0
   -0.2012   -2.8886   -1.5370 H   0  0  0  0  0  0  0  0  0  0  0  0
    1.0670   -3.1863    0.2610 N   0  0  0  0  0  0  0  0  0  0  0  0
    0.9845   -4.1863    0.4263 H   0  0  0  0  0  0  0  0  0  0  0  0
    1.7997   -2.3255    1.0628 C   0  0  0  0  0  0  0  0  0  0  0  0
    2.5875   -2.5507    2.1921 C   0  0  0  0  0  0  0  0  0  0  0  0
    2.7027   -3.5537    2.5868 H   0  0  0  0  0  0  0  0  0  0  0  0
    3.2249   -1.4644    2.8087 C   0  0  0  0  0  0  0  0  0  0  0  0
    3.8415   -1.6250    3.6879 H   0  0  0  0  0  0  0  0  0  0  0  0
    3.0643   -0.1689    2.2929 C   0  0  0  0  0  0  0  0  0  0  0  0
    3.5543    0.6717    2.7745 H   0  0  0  0  0  0  0  0  0  0  0  0
    2.2682    0.0455    1.1584 C   0  0  0  0  0  0  0  0  0  0  0  0
    2.1371    1.0451    0.7572 H   0  0  0  0  0  0  0  0  0  0  0  0
    1.6400   -1.0448    0.5478 C   0  0  0  0  0  0  0  0  0  0  0  0
   -1.0622    2.0567   -1.8393 C   0  0  0  0  0  0  0  0  0  0  0  0
   -0.1054    2.7005   -2.2498 O   0  0  0  0  0  0  0  0  0  0  0  0
   -2.3311    2.4412   -2.2405 N   0  0  0  0  0  0  0  0  0  0  0  0
   -3.1026    2.0157   -1.7343 H   0  0  0  0  0  0  0  0  0  0  0  0
   -2.5883    3.6511   -3.0132 C   0  0  0  0  0  0  0  0  0  0  0  0
   -2.0307    3.6306   -3.9556 H   0  0  0  0  0  0  0  0  0  0  0  0
   -3.6542    3.7309   -3.2471 H   0  0  0  0  0  0  0  0  0  0  0  0
   -2.2889    4.5387   -2.4461 H   0  0  0  0  0  0  0  0  0  0  0  0
  1  2  1  0  0  0  0
  2  3  1  0  0  0  0
  2  4  1  0  0  0  0
  2  5  1  0  0  0  0
  5  6  2  0  0  0  0
  5  7  1  0  0  0  0
  7  8  1  0  0  0  0
  7  9  1  0  0  0  0
  9 10  1  0  0  0  0
  9 11  1  0  0  0  0
  9 29  1  0  0  0  0
 11 12  1  0  0  0  0
 11 13  1  0  0  0  0
 11 14  1  0  0  0  0
 14 15  2  0  0  0  0
 14 28  1  0  0  0  0
 15 16  1  0  0  0  0
 15 17  1  0  0  0  0
 17 18  1  0  0  0  0
 17 19  1  0  0  0  0
 19 20  1  0  0  0  0
 19 28  2  0  0  0  0
 20 21  1  0  0  0  0
 20 22  2  0  0  0  0
 22 23  1  0  0  0  0
 22 24  1  0  0  0  0
 24 25  1  0  0  0  0
 24 26  2  0  0  0  0
 26 27  1  0  0  0  0
 26 28  1  0  0  0  0
 29 30  2  0  0  0  0
 29 31  1  0  0  0  0
 31 32  1  0  0  0  0
 31 33  1  0  0  0  0
 33 34  1  0  0  0  0
 33 35  1  0  0  0  0
 33 36  1  0  0  0  0
M  END
$$$$

  -OEChem-01062216103D

 36 37  0     1  0  0  0  0  0999 V2000
   -3.3819   -2.8486    0.3982 H   0  0  0  0  0  0  0  0  0  0  0  0
   -3.3624   -2.0947   -0.3939 C   0  0  0  0  0  0  0  0  0  0  0  0
   -4.3648   -1.6751   -0.5065 H   0  0  0  0  0  0  0  0  0  0  0  0
   -3.0679   -2.5767   -1.3288 H   0  0  0  0  0  0  0  0  0  0  0  0
   -2.3775   -0.9964   -0.0405 C   0  0  0  0  0  0  0  0  0  0  0  0
   -1.9190   -0.9340    1.0853 O   0  0  0  0  0  0  0  0  0  0  0  0
   -2.1114    0.0034   -0.9536 N   0  0  0  0  0  0  0  0  0  0  0  0
   -2.5424   -0.1357   -1.8627 H   0  0  0  0  0  0  0  0  0  0  0  0
   -0.8679    0.8073   -0.9483 C   0  0  1  0  0  0  0  0  0  0  0  0
   -0.6502    1.1468    0.0702 H   0  0  0  0  0  0  0  0  0  0  0  0
    0.3489    0.0028   -1.4842 C   0  0  0  0  0  0  0  0  0  0  0  0
    0.1042   -0.3785   -2.4805 H   0  0  0  0  0  0  0  0  0  0  0  0
    1.2128    0.6658   -1.5969 H   0  0  0  0  0  0  0  0  0  0  0  0
    0.7841   -1.1477   -0.6134 C   0  0  0  0  0  0  0  0  0  0  0  0
    0.4482   -2.4730   -0.7603 C   0  0  0  0  0  0  0  0  0  0  0  0
   -0.1889   -2.8811   -1.5400 H   0  0  0  0  0  0  0  0  0  0  0  0
    1.0732   -3.1846    0.2616 N   0  0  0  0  0  0  0  0  0  0  0  0
    0.9864   -4.1844    0.4257 H   0  0  0  0  0  0  0  0  0  0  0  0
    1.8048   -2.3266    1.0672 C   0  0  0  0  0  0  0  0  0  0  0  0
    2.5865   -2.5558    2.1998 C   0  0  0  0  0  0  0  0  0  0  0  0
    2.6952   -3.5595    2.5945 H   0  0  0  0  0  0  0  0  0  0  0  0
    3.2252   -1.4727    2.8202 C   0  0  0  0  0  0  0  0  0  0  0  0
    3.8373   -1.6371    3.7018 H   0  0  0  0  0  0  0  0  0  0  0  0
    3.0725   -0.1763    2.3043 C   0  0  0  0  0  0  0  0  0  0  0  0
    3.5650    0.6613    2.7883 H   0  0  0  0  0  0  0  0  0  0  0  0
    2.2824    0.0422    1.1664 C   0  0  0  0  0  0  0  0  0  0  0  0
    2.1586    1.0422    0.7642 H   0  0  0  0  0  0  0  0  0  0  0  0
    1.6513   -1.0448    0.5528 C   0  0  0  0  0  0  0  0  0  0  0  0
   -1.0671    2.0627   -1.8360 C   0  0  0  0  0  0  0  0  0  0  0  0
   -0.1585    2.5656   -2.4841 O   0  0  0  0  0  0  0  0  0  0  0  0
   -2.3332    2.6103   -1.9538 N   0  0  0  0  0  0  0  0  0  0  0  0
   -3.0373    2.2557   -1.3118 H   0  0  0  0  0  0  0  0  0  0  0  0
   -2.6154    3.8273   -2.7060 C   0  0  0  0  0  0  0  0  0  0  0  0
   -2.3099    3.7122   -3.7514 H   0  0  0  0  0  0  0  0  0  0  0  0
   -3.6875    4.0454   -2.6835 H   0  0  0  0  0  0  0  0  0  0  0  0
   -2.0784    4.6781   -2.2735 H   0  0  0  0  0  0  0  0  0  0  0  0
  1  2  1  0  0  0  0
  2  3  1  0  0  0  0
  2  4  1  0  0  0  0
  2  5  1  0  0  0  0
  5  6  2  0  0  0  0
  5  7  1  0  0  0  0
  7  8  1  0  0  0  0
  7  9  1  0  0  0  0
  9 10  1  0  0  0  0
  9 11  1  0  0  0  0
  9 29  1  0  0  0  0
 11 12  1  0  0  0  0
 11 13  1  0  0  0  0
 11 14  1  0  0  0  0
 14 15  2  0  0  0  0
 14 28  1  0  0  0  0
 15 16  1  0  0  0  0
 15 17  1  0  0  0  0
 17 18  1  0  0  0  0
 17 19  1  0  0  0  0
 19 20  1  0  0  0  0
 19 28  2  0  0  0  0
 20 21  1  0  0  0  0
 20 22  2  0  0  0  0
 22 23  1  0  0  0  0
 22 24  1  0  0  0  0
 24 25  1  0  0  0  0
 24 26  2  0  0  0  0
 26 27  1  0  0  0  0
 26 28  1  0  0  0  0
 29 30  2  0  0  0  0
 29 31  1  0  0  0  0
 31 32  1  0  0  0  0
 31 33  1  0  0  0  0
 33 34  1  0  0  0  0
 33 35  1  0  0  0  0
 33 36  1  0  0  0  0
M  END
$$$$

  -OEChem-01062216103D

 36 37  0     1  0  0  0  0  0999 V2000
   -3.4070   -2.8263    0.3932 H   0  0  0  0  0  0  0  0  0  0  0  0
   -3.3676   -2.0778   -0.4034 C   0  0  0  0  0  0  0  0  0  0  0  0
   -4.3625   -1.6445   -0.5303 H   0  0  0  0  0  0  0  0  0  0  0  0
   -3.0689   -2.5701   -1.3318 H   0  0  0  0  0  0  0  0  0  0  0  0
   -2.3711   -0.9913   -0.0461 C   0  0  0  0  0  0  0  0  0  0  0  0
   -1.9058   -0.9425    1.0778 O   0  0  0  0  0  0  0  0  0  0  0  0
   -2.1022    0.0149   -0.9509 N   0  0  0  0  0  0  0  0  0  0  0  0
   -2.5478   -0.1036   -1.8562 H   0  0  0  0  0  0  0  0  0  0  0  0
   -0.8563    0.8128   -0.9457 C   0  0  1  0  0  0  0  0  0  0  0  0
   -0.6346    1.1479    0.0733 H   0  0  0  0  0  0  0  0  0  0  0  0
    0.3613    0.0118   -1.4839 C   0  0  0  0  0  0  0  0  0  0  0  0
    0.1163   -0.3692   -2.4805 H   0  0  0  0  0  0  0  0  0  0  0  0
    1.2218    0.6795   -1.5966 H   0  0  0  0  0  0  0  0  0  0  0  0
    0.7961   -1.1402   -0.6157 C   0  0  0  0  0  0  0  0  0  0  0  0
    0.4588   -2.4640   -0.7692 C   0  0  0  0  0  0  0  0  0  0  0  0
   -0.1762   -2.8673   -1.5531 H   0  0  0  0  0  0  0  0  0  0  0  0
    1.0756   -3.1803    0.2541 N   0  0  0  0  0  0  0  0  0  0  0  0
    0.9821   -4.1799    0.4160 H   0  0  0  0  0  0  0  0  0  0  0  0
    1.8048   -2.3267    1.0663 C   0  0  0  0  0  0  0  0  0  0  0  0
    2.5784   -2.5620    2.2031 C   0  0  0  0  0  0  0  0  0  0  0  0
    2.6806   -3.5673    2.5954 H   0  0  0  0  0  0  0  0  0  0  0  0
    3.2186   -1.4831    2.8294 C   0  0  0  0  0  0  0  0  0  0  0  0
    3.8236   -1.6518    3.7150 H   0  0  0  0  0  0  0  0  0  0  0  0
    3.0766   -0.1852    2.3143 C   0  0  0  0  0  0  0  0  0  0  0  0
    3.5724    0.6488    2.8016 H   0  0  0  0  0  0  0  0  0  0  0  0
    2.2934    0.0395    1.1726 C   0  0  0  0  0  0  0  0  0  0  0  0
    2.1780    1.0409    0.7717 H   0  0  0  0  0  0  0  0  0  0  0  0
    1.6594   -1.0429    0.5539 C   0  0  0  0  0  0  0  0  0  0  0  0
   -1.0684    2.0706   -1.8245 C   0  0  0  0  0  0  0  0  0  0  0  0
   -0.2773    2.4204   -2.6914 O   0  0  0  0  0  0  0  0  0  0  0  0
   -2.2421    2.7892   -1.6811 N   0  0  0  0  0  0  0  0  0  0  0  0
   -2.8562    2.5122   -0.9193 H   0  0  0  0  0  0  0  0  0  0  0  0
   -2.5416    4.0059   -2.4268 C   0  0  0  0  0  0  0  0  0  0  0  0
   -2.5369    3.8072   -3.5037 H   0  0  0  0  0  0  0  0  0  0  0  0
   -3.5304    4.3847   -2.1510 H   0  0  0  0  0  0  0  0  0  0  0  0
   -1.8000    4.7813   -2.2078 H   0  0  0  0  0  0  0  0  0  0  0  0
  1  2  1  0  0  0  0
  2  3  1  0  0  0  0
  2  4  1  0  0  0  0
  2  5  1  0  0  0  0
  5  6  2  0  0  0  0
  5  7  1  0  0  0  0
  7  8  1  0  0  0  0
  7  9  1  0  0  0  0
  9 10  1  0  0  0  0
  9 11  1  0  0  0  0
  9 29  1  0  0  0  0
 11 12  1  0  0  0  0
 11 13  1  0  0  0  0
 11 14  1  0  0  0  0
 14 15  2  0  0  0  0
 14 28  1  0  0  0  0
 15 16  1  0  0  0  0
 15 17  1  0  0  0  0
 17 18  1  0  0  0  0
 17 19  1  0  0  0  0
 19 20  1  0  0  0  0
 19 28  2  0  0  0  0
 20 21  1  0  0  0  0
 20 22  2  0  0  0  0
 22 23  1  0  0  0  0
 22 24  1  0  0  0  0
 24 25  1  0  0  0  0
 24 26  2  0  0  0  0
 26 27  1  0  0  0  0
 26 28  1  0  0  0  0
 29 30  2  0  0  0  0
 29 31  1  0  0  0  0
 31 32  1  0  0  0  0
 31 33  1  0  0  0  0
 33 34  1  0  0  0  0
 33 35  1  0  0  0  0
 33 36  1  0  0  0  0
M  END
$$$$

  -OEChem-01062216103D

 36 37  0     1  0  0  0  0  0999 V2000
   -3.3988   -2.8351    0.3629 H   0  0  0  0  0  0  0  0  0  0  0  0
   -3.3855   -2.0628   -0.4115 C   0  0  0  0  0  0  0  0  0  0  0  0
   -4.3865   -1.6339   -0.5000 H   0  0  0  0  0  0  0  0  0  0  0  0
   -3.1069   -2.5245   -1.3614 H   0  0  0  0  0  0  0  0  0  0  0  0
   -2.3880   -0.9797   -0.0477 C   0  0  0  0  0  0  0  0  0  0  0  0
   -1.9253   -0.9364    1.0778 O   0  0  0  0  0  0  0  0  0  0  0  0
   -2.1097    0.0283   -0.9473 N   0  0  0  0  0  0  0  0  0  0  0  0
   -2.5537   -0.0787   -1.8550 H   0  0  0  0  0  0  0  0  0  0  0  0
   -0.8626    0.8202   -0.9295 C   0  0  1  0  0  0  0  0  0  0  0  0
   -0.6468    1.1492    0.0926 H   0  0  0  0  0  0  0  0  0  0  0  0
    0.3595    0.0232   -1.4607 C   0  0  0  0  0  0  0  0  0  0  0  0
    0.1214   -0.3559   -2.4597 H   0  0  0  0  0  0  0  0  0  0  0  0
    1.2159    0.6972   -1.5674 H   0  0  0  0  0  0  0  0  0  0  0  0
    0.7929   -1.1345   -0.5993 C   0  0  0  0  0  0  0  0  0  0  0  0
    0.4612   -2.4583   -0.7647 C   0  0  0  0  0  0  0  0  0  0  0  0
   -0.1736   -2.8565   -1.5514 H   0  0  0  0  0  0  0  0  0  0  0  0
    1.0890   -3.1821    0.2466 N   0  0  0  0  0  0  0  0  0  0  0  0
    1.0073   -4.1850    0.3945 H   0  0  0  0  0  0  0  0  0  0  0  0
    1.8190   -2.3331    1.0631 C   0  0  0  0  0  0  0  0  0  0  0  0
    2.6045   -2.5758    2.1902 C   0  0  0  0  0  0  0  0  0  0  0  0
    2.7194   -3.5851    2.5685 H   0  0  0  0  0  0  0  0  0  0  0  0
    3.2399   -1.4990    2.8253 C   0  0  0  0  0  0  0  0  0  0  0  0
    3.8538   -1.6736    3.7037 H   0  0  0  0  0  0  0  0  0  0  0  0
    3.0816   -0.1959    2.3282 C   0  0  0  0  0  0  0  0  0  0  0  0
    3.5722    0.6366    2.8231 H   0  0  0  0  0  0  0  0  0  0  0  0
    2.2884    0.0356    1.1952 C   0  0  0  0  0  0  0  0  0  0  0  0
    2.1605    1.0403    0.8076 H   0  0  0  0  0  0  0  0  0  0  0  0
    1.6602   -1.0446    0.5674 C   0  0  0  0  0  0  0  0  0  0  0  0
   -1.0647    2.0795   -1.8052 C   0  0  0  0  0  0  0  0  0  0  0  0
   -0.4382    2.2787   -2.8389 O   0  0  0  0  0  0  0  0  0  0  0  0
   -2.0660    2.9691   -1.4616 N   0  0  0  0  0  0  0  0  0  0  0  0
   -2.5832    2.7745   -0.6079 H   0  0  0  0  0  0  0  0  0  0  0  0
   -2.3652    4.1815   -2.2138 C   0  0  0  0  0  0  0  0  0  0  0  0
   -2.6403    3.9361   -3.2450 H   0  0  0  0  0  0  0  0  0  0  0  0
   -3.2006    4.7158   -1.7513 H   0  0  0  0  0  0  0  0  0  0  0  0
   -1.4954    4.8465   -2.2299 H   0  0  0  0  0  0  0  0  0  0  0  0
  1  2  1  0  0  0  0
  2  3  1  0  0  0  0
  2  4  1  0  0  0  0
  2  5  1  0  0  0  0
  5  6  2  0  0  0  0
  5  7  1  0  0  0  0
  7  8  1  0  0  0  0
  7  9  1  0  0  0  0
  9 10  1  0  0  0  0
  9 11  1  0  0  0  0
  9 29  1  0  0  0  0
 11 12  1  0  0  0  0
 11 13  1  0  0  0  0
 11 14  1  0  0  0  0
 14 15  2  0  0  0  0
 14 28  1  0  0  0  0
 15 16  1  0  0  0  0
 15 17  1  0  0  0  0
 17 18  1  0  0  0  0
 17 19  1  0  0  0  0
 19 20  1  0  0  0  0
 19 28  2  0  0  0  0
 20 21  1  0  0  0  0
 20 22  2  0  0  0  0
 22 23  1  0  0  0  0
 22 24  1  0  0  0  0
 24 25  1  0  0  0  0
 24 26  2  0  0  0  0
 26 27  1  0  0  0  0
 26 28  1  0  0  0  0
 29 30  2  0  0  0  0
 29 31  1  0  0  0  0
 31 32  1  0  0  0  0
 31 33  1  0  0  0  0
 33 34  1  0  0  0  0
 33 35  1  0  0  0  0
 33 36  1  0  0  0  0
M  END
$$$$

  -OEChem-01062216103D

 36 37  0     1  0  0  0  0  0999 V2000
   -3.4267   -2.8200    0.3628 H   0  0  0  0  0  0  0  0  0  0  0  0
   -3.4010   -2.0476   -0.4110 C   0  0  0  0  0  0  0  0  0  0  0  0
   -4.3949   -1.6029   -0.5000 H   0  0  0  0  0  0  0  0  0  0  0  0
   -3.1292   -2.5127   -1.3614 H   0  0  0  0  0  0  0  0  0  0  0  0
   -2.3874   -0.9803   -0.0446 C   0  0  0  0  0  0  0  0  0  0  0  0
   -1.9131   -0.9553    1.0769 O   0  0  0  0  0  0  0  0  0  0  0  0
   -2.1039    0.0311   -0.9385 N   0  0  0  0  0  0  0  0  0  0  0  0
   -2.5539   -0.0620   -1.8451 H   0  0  0  0  0  0  0  0  0  0  0  0
   -0.8584    0.8230   -0.9164 C   0  0  1  0  0  0  0  0  0  0  0  0
   -0.6420    1.1448    0.1079 H   0  0  0  0  0  0  0  0  0  0  0  0
    0.3664    0.0367   -1.4539 C   0  0  0  0  0  0  0  0  0  0  0  0
    0.1298   -0.3402   -2.4542 H   0  0  0  0  0  0  0  0  0  0  0  0
    1.2173    0.7173   -1.5602 H   0  0  0  0  0  0  0  0  0  0  0  0
    0.8015   -1.1243   -0.5987 C   0  0  0  0  0  0  0  0  0  0  0  0
    0.4720   -2.4471   -0.7751 C   0  0  0  0  0  0  0  0  0  0  0  0
   -0.1614   -2.8397   -1.5659 H   0  0  0  0  0  0  0  0  0  0  0  0
    1.0981   -3.1776    0.2324 N   0  0  0  0  0  0  0  0  0  0  0  0
    1.0151   -4.1812    0.3729 H   0  0  0  0  0  0  0  0  0  0  0  0
    1.8251   -2.3342    1.0572 C   0  0  0  0  0  0  0  0  0  0  0  0
    2.6065   -2.5851    2.1852 C   0  0  0  0  0  0  0  0  0  0  0  0
    2.7194   -3.5972    2.5568 H   0  0  0  0  0  0  0  0  0  0  0  0
    3.2396   -1.5130    2.8300 C   0  0  0  0  0  0  0  0  0  0  0  0
    3.8494   -1.6936    3.7100 H   0  0  0  0  0  0  0  0  0  0  0  0
    3.0842   -0.2067    2.3411 C   0  0  0  0  0  0  0  0  0  0  0  0
    3.5747    0.6215    2.8431 H   0  0  0  0  0  0  0  0  0  0  0  0
    2.2948    0.0335    1.2071 C   0  0  0  0  0  0  0  0  0  0  0  0
    2.1693    1.0413    0.8265 H   0  0  0  0  0  0  0  0  0  0  0  0
    1.6673   -1.0420    0.5701 C   0  0  0  0  0  0  0  0  0  0  0  0
   -1.0554    2.0839   -1.7869 C   0  0  0  0  0  0  0  0  0  0  0  0
   -0.6507    2.1506   -2.9414 O   0  0  0  0  0  0  0  0  0  0  0  0
   -1.8212    3.1233   -1.2925 N   0  0  0  0  0  0  0  0  0  0  0  0
   -2.2026    3.0143   -0.3563 H   0  0  0  0  0  0  0  0  0  0  0  0
   -2.1266    4.3327   -2.0471 C   0  0  0  0  0  0  0  0  0  0  0  0
   -2.6736    4.0854   -2.9629 H   0  0  0  0  0  0  0  0  0  0  0  0
   -2.7446    5.0072   -1.4467 H   0  0  0  0  0  0  0  0  0  0  0  0
   -1.2046    4.8581   -2.3175 H   0  0  0  0  0  0  0  0  0  0  0  0
  1  2  1  0  0  0  0
  2  3  1  0  0  0  0
  2  4  1  0  0  0  0
  2  5  1  0  0  0  0
  5  6  2  0  0  0  0
  5  7  1  0  0  0  0
  7  8  1  0  0  0  0
  7  9  1  0  0  0  0
  9 10  1  0  0  0  0
  9 11  1  0  0  0  0
  9 29  1  0  0  0  0
 11 12  1  0  0  0  0
 11 13  1  0  0  0  0
 11 14  1  0  0  0  0
 14 15  2  0  0  0  0
 14 28  1  0  0  0  0
 15 16  1  0  0  0  0
 15 17  1  0  0  0  0
 17 18  1  0  0  0  0
 17 19  1  0  0  0  0
 19 20  1  0  0  0  0
 19 28  2  0  0  0  0
 20 21  1  0  0  0  0
 20 22  2  0  0  0  0
 22 23  1  0  0  0  0
 22 24  1  0  0  0  0
 24 25  1  0  0  0  0
 24 26  2  0  0  0  0
 26 27  1  0  0  0  0
 26 28  1  0  0  0  0
 29 30  2  0  0  0  0
 29 31  1  0  0  0  0
 31 32  1  0  0  0  0
 31 33  1  0  0  0  0
 33 34  1  0  0  0  0
 33 35  1  0  0  0  0
 33 36  1  0  0  0  0
M  END
$$$$

  -OEChem-01062216103D

 36 37  0     1  0  0  0  0  0999 V2000
   -3.4717   -2.7841    0.3831 H   0  0  0  0  0  0  0  0  0  0  0  0
   -3.4108   -2.0282   -0.4050 C   0  0  0  0  0  0  0  0  0  0  0  0
   -4.3923   -1.5634   -0.5241 H   0  0  0  0  0  0  0  0  0  0  0  0
   -3.1293   -2.5177   -1.3402 H   0  0  0  0  0  0  0  0  0  0  0  0
   -2.3811   -0.9764   -0.0387 C   0  0  0  0  0  0  0  0  0  0  0  0
   -1.8961   -0.9668    1.0787 O   0  0  0  0  0  0  0  0  0  0  0  0
   -2.0903    0.0354   -0.9293 N   0  0  0  0  0  0  0  0  0  0  0  0
   -2.5474   -0.0402   -1.8342 H   0  0  0  0  0  0  0  0  0  0  0  0
   -0.8457    0.8257   -0.9036 C   0  0  1  0  0  0  0  0  0  0  0  0
   -0.6290    1.1405    0.1228 H   0  0  0  0  0  0  0  0  0  0  0  0
    0.3794    0.0498   -1.4513 C   0  0  0  0  0  0  0  0  0  0  0  0
    0.1419   -0.3208   -2.4537 H   0  0  0  0  0  0  0  0  0  0  0  0
    1.2274    0.7348   -1.5545 H   0  0  0  0  0  0  0  0  0  0  0  0
    0.8158   -1.1177   -0.6054 C   0  0  0  0  0  0  0  0  0  0  0  0
    0.4879   -2.4396   -0.7928 C   0  0  0  0  0  0  0  0  0  0  0  0
   -0.1426   -2.8267   -1.5888 H   0  0  0  0  0  0  0  0  0  0  0  0
    1.1076   -3.1766    0.2142 N   0  0  0  0  0  0  0  0  0  0  0  0
    1.0187   -4.1803    0.3521 H   0  0  0  0  0  0  0  0  0  0  0  0
    1.8286   -2.3383    1.0492 C   0  0  0  0  0  0  0  0  0  0  0  0
    2.6018   -2.5964    2.1814 C   0  0  0  0  0  0  0  0  0  0  0  0
    2.7121   -3.6107    2.5479 H   0  0  0  0  0  0  0  0  0  0  0  0
    3.2310   -1.5285    2.8371 C   0  0  0  0  0  0  0  0  0  0  0  0
    3.8362   -1.7147    3.7193 H   0  0  0  0  0  0  0  0  0  0  0  0
    3.0780   -0.2190    2.3557 C   0  0  0  0  0  0  0  0  0  0  0  0
    3.5648    0.6061    2.8662 H   0  0  0  0  0  0  0  0  0  0  0  0
    2.2958    0.0283    1.2183 C   0  0  0  0  0  0  0  0  0  0  0  0
    2.1716    1.0385    0.8437 H   0  0  0  0  0  0  0  0  0  0  0  0
    1.6738   -1.0431    0.5694 C   0  0  0  0  0  0  0  0  0  0  0  0
   -1.0377    2.0854   -1.7734 C   0  0  0  0  0  0  0  0  0  0  0  0
   -0.9023    2.0451   -2.9907 O   0  0  0  0  0  0  0  0  0  0  0  0
   -1.5234    3.2426   -1.1934 N   0  0  0  0  0  0  0  0  0  0  0  0
   -1.7211    3.2162   -0.1965 H   0  0  0  0  0  0  0  0  0  0  0  0
   -1.8452    4.4487   -1.9464 C   0  0  0  0  0  0  0  0  0  0  0  0
   -2.6380    4.2472   -2.6744 H   0  0  0  0  0  0  0  0  0  0  0  0
   -2.1897    5.2357   -1.2687 H   0  0  0  0  0  0  0  0  0  0  0  0
   -0.9616    4.8154   -2.4793 H   0  0  0  0  0  0  0  0  0  0  0  0
  1  2  1  0  0  0  0
  2  3  1  0  0  0  0
  2  4  1  0  0  0  0
  2  5  1  0  0  0  0
  5  6  2  0  0  0  0
  5  7  1  0  0  0  0
  7  8  1  0  0  0  0
  7  9  1  0  0  0  0
  9 10  1  0  0  0  0
  9 11  1  0  0  0  0
  9 29  1  0  0  0  0
 11 12  1  0  0  0  0
 11 13  1  0  0  0  0
 11 14  1  0  0  0  0
 14 15  2  0  0  0  0
 14 28  1  0  0  0  0
 15 16  1  0  0  0  0
 15 17  1  0  0  0  0
 17 18  1  0  0  0  0
 17 19  1  0  0  0  0
 19 20  1  0  0  0  0
 19 28  2  0  0  0  0
 20 21  1  0  0  0  0
 20 22  2  0  0  0  0
 22 23  1  0  0  0  0
 22 24  1  0  0  0  0
 24 25  1  0  0  0  0
 24 26  2  0  0  0  0
 26 27  1  0  0  0  0
 26 28  1  0  0  0  0
 29 30  2  0  0  0  0
 29 31  1  0  0  0  0
 31 32  1  0  0  0  0
 31 33  1  0  0  0  0
 33 34  1  0  0  0  0
 33 35  1  0  0  0  0
 33 36  1  0  0  0  0
M  END
$$$$

  -OEChem-01062216103D

 36 37  0     1  0  0  0  0  0999 V2000
   -3.5172   -2.7638    0.3845 H   0  0  0  0  0  0  0  0  0  0  0  0
   -3.4441   -2.0065   -0.4011 C   0  0  0  0  0  0  0  0  0  0  0  0
   -4.4156   -1.5190   -0.5133 H   0  0  0  0  0  0  0  0  0  0  0  0
   -3.1790   -2.4991   -1.3395 H   0  0  0  0  0  0  0  0  0  0  0  0
   -2.3881   -0.9800   -0.0370 C   0  0  0  0  0  0  0  0  0  0  0  0
   -1.8891   -0.9929    1.0744 O   0  0  0  0  0  0  0  0  0  0  0  0
   -2.0829    0.0303   -0.9241 N   0  0  0  0  0  0  0  0  0  0  0  0
   -2.5490   -0.0219   -1.8268 H   0  0  0  0  0  0  0  0  0  0  0  0
   -0.8416    0.8239   -0.8889 C   0  0  1  0  0  0  0  0  0  0  0  0
   -0.6324    1.1356    0.1398 H   0  0  0  0  0  0  0  0  0  0  0  0
    0.3882    0.0609   -1.4398 C   0  0  0  0  0  0  0  0  0  0  0  0
    0.1550   -0.3016   -2.4464 H   0  0  0  0  0  0  0  0  0  0  0  0
    1.2333    0.7504   -1.5344 H   0  0  0  0  0  0  0  0  0  0  0  0
    0.8264   -1.1107   -0.6019 C   0  0  0  0  0  0  0  0  0  0  0  0
    0.5046   -2.4317   -0.8022 C   0  0  0  0  0  0  0  0  0  0  0  0
   -0.1242   -2.8139   -1.6020 H   0  0  0  0  0  0  0  0  0  0  0  0
    1.1257   -3.1752    0.1990 N   0  0  0  0  0  0  0  0  0  0  0  0
    1.0385   -4.1801    0.3279 H   0  0  0  0  0  0  0  0  0  0  0  0
    1.8415   -2.3415    1.0434 C   0  0  0  0  0  0  0  0  0  0  0  0
    2.6126   -2.6055    2.1754 C   0  0  0  0  0  0  0  0  0  0  0  0
    2.7254   -3.6223    2.5342 H   0  0  0  0  0  0  0  0  0  0  0  0
    3.2361   -1.5407    2.8413 C   0  0  0  0  0  0  0  0  0  0  0  0
    3.8382   -1.7322    3.7242 H   0  0  0  0  0  0  0  0  0  0  0  0
    3.0811   -0.2279    2.3696 C   0  0  0  0  0  0  0  0  0  0  0  0
    3.5645    0.5947    2.8876 H   0  0  0  0  0  0  0  0  0  0  0  0
    2.3010    0.0253    1.2321 C   0  0  0  0  0  0  0  0  0  0  0  0
    2.1754    1.0377    0.8646 H   0  0  0  0  0  0  0  0  0  0  0  0
    1.6832   -1.0429    0.5741 C   0  0  0  0  0  0  0  0  0  0  0  0
   -1.0254    2.0783   -1.7645 C   0  0  0  0  0  0  0  0  0  0  0  0
   -1.1404    1.9750   -2.9805 O   0  0  0  0  0  0  0  0  0  0  0  0
   -1.2153    3.3134   -1.1728 N   0  0  0  0  0  0  0  0  0  0  0  0
   -1.2211    3.3493   -0.1569 H   0  0  0  0  0  0  0  0  0  0  0  0
   -1.5190    4.5253   -1.9237 C   0  0  0  0  0  0  0  0  0  0  0  0
   -2.4630    4.4134   -2.4673 H   0  0  0  0  0  0  0  0  0  0  0  0
   -1.6099    5.3780   -1.2439 H   0  0  0  0  0  0  0  0  0  0  0  0
   -0.7211    4.7406   -2.6422 H   0  0  0  0  0  0  0  0  0  0  0  0
  1  2  1  0  0  0  0
  2  3  1  0  0  0  0
  2  4  1  0  0  0  0
  2  5  1  0  0  0  0
  5  6  2  0  0  0  0
  5  7  1  0  0  0  0
  7  8  1  0  0  0  0
  7  9  1  0  0  0  0
  9 10  1  0  0  0  0
  9 11  1  0  0  0  0
  9 29  1  0  0  0  0
 11 12  1  0  0  0  0
 11 13  1  0  0  0  0
 11 14  1  0  0  0  0
 14 15  2  0  0  0  0
 14 28  1  0  0  0  0
 15 16  1  0  0  0  0
 15 17  1  0  0  0  0
 17 18  1  0  0  0  0
 17 19  1  0  0  0  0
 19 20  1  0  0  0  0
 19 28  2  0  0  0  0
 20 21  1  0  0  0  0
 20 22  2  0  0  0  0
 22 23  1  0  0  0  0
 22 24  1  0  0  0  0
 24 25  1  0  0  0  0
 24 26  2  0  0  0  0
 26 27  1  0  0  0  0
 26 28  1  0  0  0  0
 29 30  2  0  0  0  0
 29 31  1  0  0  0  0
 31 32  1  0  0  0  0
 31 33  1  0  0  0  0
 33 34  1  0  0  0  0
 33 35  1  0  0  0  0
 33 36  1  0  0  0  0
M  END
$$$$

  -OEChem-01062216103D

 36 37  0     1  0  0  0  0  0999 V2000
   -3.5471   -2.7675    0.3729 H   0  0  0  0  0  0  0  0  0  0  0  0
   -3.4788   -1.9950   -0.3982 C   0  0  0  0  0  0  0  0  0  0  0  0
   -4.4449   -1.4914   -0.4805 H   0  0  0  0  0  0  0  0  0  0  0  0
   -3.2401   -2.4711   -1.3519 H   0  0  0  0  0  0  0  0  0  0  0  0
   -2.4016   -0.9908   -0.0354 C   0  0  0  0  0  0  0  0  0  0  0  0
   -1.8933   -1.0218    1.0714 O   0  0  0  0  0  0  0  0  0  0  0  0
   -2.0849    0.0180   -0.9199 N   0  0  0  0  0  0  0  0  0  0  0  0
   -2.5642   -0.0068   -1.8173 H   0  0  0  0  0  0  0  0  0  0  0  0
   -0.8511    0.8217   -0.8747 C   0  0  1  0  0  0  0  0  0  0  0  0
   -0.6536    1.1353    0.1556 H   0  0  0  0  0  0  0  0  0  0  0  0
    0.3851    0.0715   -1.4251 C   0  0  0  0  0  0  0  0  0  0  0  0
    0.1547   -0.2869   -2.4338 H   0  0  0  0  0  0  0  0  0  0  0  0
    1.2257    0.7671   -1.5151 H   0  0  0  0  0  0  0  0  0  0  0  0
    0.8304   -1.1020   -0.5939 C   0  0  0  0  0  0  0  0  0  0  0  0
    0.5183   -2.4235   -0.8057 C   0  0  0  0  0  0  0  0  0  0  0  0
   -0.1087   -2.8028   -1.6082 H   0  0  0  0  0  0  0  0  0  0  0  0
    1.1464   -3.1714    0.1875 N   0  0  0  0  0  0  0  0  0  0  0  0
    1.0651   -4.1776    0.3089 H   0  0  0  0  0  0  0  0  0  0  0  0
    1.8574   -2.3403    1.0380 C   0  0  0  0  0  0  0  0  0  0  0  0
    2.6326   -2.6111    2.1656 C   0  0  0  0  0  0  0  0  0  0  0  0
    2.7528   -3.6310    2.5130 H   0  0  0  0  0  0  0  0  0  0  0  0
    3.2511   -1.5492    2.8407 C   0  0  0  0  0  0  0  0  0  0  0  0
    3.8568   -1.7463    3.7201 H   0  0  0  0  0  0  0  0  0  0  0  0
    3.0857   -0.2329    2.3826 C   0  0  0  0  0  0  0  0  0  0  0  0
    3.5643    0.5874    2.9083 H   0  0  0  0  0  0  0  0  0  0  0  0
    2.3010    0.0269    1.2496 C   0  0  0  0  0  0  0  0  0  0  0  0
    2.1670    1.0421    0.8933 H   0  0  0  0  0  0  0  0  0  0  0  0
    1.6889   -1.0384    0.5816 C   0  0  0  0  0  0  0  0  0  0  0  0
   -1.0294    2.0696   -1.7593 C   0  0  0  0  0  0  0  0  0  0  0  0
   -1.3548    1.9450   -2.9350 O   0  0  0  0  0  0  0  0  0  0  0  0
   -0.9263    3.3365   -1.2151 N   0  0  0  0  0  0  0  0  0  0  0  0
   -0.7470    3.4069   -0.2171 H   0  0  0  0  0  0  0  0  0  0  0  0
   -1.1569    4.5562   -1.9793 C   0  0  0  0  0  0  0  0  0  0  0  0
   -2.1837    4.5831   -2.3587 H   0  0  0  0  0  0  0  0  0  0  0  0
   -0.9984    5.4347   -1.3466 H   0  0  0  0  0  0  0  0  0  0  0  0
   -0.4661    4.6127   -2.8271 H   0  0  0  0  0  0  0  0  0  0  0  0
  1  2  1  0  0  0  0
  2  3  1  0  0  0  0
  2  4  1  0  0  0  0
  2  5  1  0  0  0  0
  5  6  2  0  0  0  0
  5  7  1  0  0  0  0
  7  8  1  0  0  0  0
  7  9  1  0  0  0  0
  9 10  1  0  0  0  0
  9 11  1  0  0  0  0
  9 29  1  0  0  0  0
 11 12  1  0  0  0  0
 11 13  1  0  0  0  0
 11 14  1  0  0  0  0
 14 15  2  0  0  0  0
 14 28  1  0  0  0  0
 15 16  1  0  0  0  0
 15 17  1  0  0  0  0
 17 18  1  0  0  0  0
 17 19  1  0  0  0  0
 19 20  1  0  0  0  0
 19 28  2  0  0  0  0
 20 21  1  0  0  0  0
 20 22  2  0  0  0  0
 22 23  1  0  0  0  0
 22 24  1  0  0  0  0
 24 25  1  0  0  0  0
 24 26  2  0  0  0  0
 26 27  1  0  0  0  0
 26 28  1  0  0  0  0
 29 30  2  0  0  0  0
 29 31  1  0  0  0  0
 31 32  1  0  0  0  0
 31 33  1  0  0  0  0
 33 34  1  0  0  0  0
 33 35  1  0  0  0  0
 33 36  1  0  0  0  0
M  END
$$$$

  -OEChem-01062216103D

 36 37  0     1  0  0  0  0  0999 V2000
   -3.6016   -2.7523    0.3692 H   0  0  0  0  0  0  0  0  0  0  0  0
   -3.5231   -1.9761   -0.3973 C   0  0  0  0  0  0  0  0  0  0  0  0
   -4.4750   -1.4431   -0.4595 H   0  0  0  0  0  0  0  0  0  0  0  0
   -3.3142   -2.4511   -1.3587 H   0  0  0  0  0  0  0  0  0  0  0  0
   -2.4110   -1.0067   -0.0447 C   0  0  0  0  0  0  0  0  0  0  0  0
   -1.8828   -1.0660    1.0515 O   0  0  0  0  0  0  0  0  0  0  0  0
   -2.0823    0.0016   -0.9251 N   0  0  0  0  0  0  0  0  0  0  0  0
   -2.5899    0.0192   -1.8075 H   0  0  0  0  0  0  0  0  0  0  0  0
   -0.8552    0.8149   -0.8728 C   0  0  1  0  0  0  0  0  0  0  0  0
   -0.6687    1.1319    0.1584 H   0  0  0  0  0  0  0  0  0  0  0  0
    0.3872    0.0741   -1.4198 C   0  0  0  0  0  0  0  0  0  0  0  0
    0.1620   -0.2812   -2.4309 H   0  0  0  0  0  0  0  0  0  0  0  0
    1.2249    0.7740   -1.5039 H   0  0  0  0  0  0  0  0  0  0  0  0
    0.8373   -1.0981   -0.5899 C   0  0  0  0  0  0  0  0  0  0  0  0
    0.5333   -2.4205   -0.8073 C   0  0  0  0  0  0  0  0  0  0  0  0
   -0.0936   -2.8002   -1.6098 H   0  0  0  0  0  0  0  0  0  0  0  0
    1.1675   -3.1686    0.1817 N   0  0  0  0  0  0  0  0  0  0  0  0
    1.0900   -4.1755    0.3000 H   0  0  0  0  0  0  0  0  0  0  0  0
    1.8735   -2.3368    1.0356 C   0  0  0  0  0  0  0  0  0  0  0  0
    2.6503   -2.6076    2.1623 C   0  0  0  0  0  0  0  0  0  0  0  0
    2.7766   -3.6281    2.5060 H   0  0  0  0  0  0  0  0  0  0  0  0
    3.2615   -1.5447    2.8424 C   0  0  0  0  0  0  0  0  0  0  0  0
    3.8674   -1.7413    3.7218 H   0  0  0  0  0  0  0  0  0  0  0  0
    3.0890   -0.2277    2.3895 C   0  0  0  0  0  0  0  0  0  0  0  0
    3.5626    0.5928    2.9193 H   0  0  0  0  0  0  0  0  0  0  0  0
    2.3033    0.0321    1.2572 C   0  0  0  0  0  0  0  0  0  0  0  0
    2.1644    1.0480    0.9054 H   0  0  0  0  0  0  0  0  0  0  0  0
    1.6967   -1.0338    0.5851 C   0  0  0  0  0  0  0  0  0  0  0  0
   -1.0276    2.0586   -1.7644 C   0  0  0  0  0  0  0  0  0  0  0  0
   -1.5527    1.9520   -2.8679 O   0  0  0  0  0  0  0  0  0  0  0  0
   -0.6390    3.3061   -1.3123 N   0  0  0  0  0  0  0  0  0  0  0  0
   -0.2709    3.3709   -0.3673 H   0  0  0  0  0  0  0  0  0  0  0  0
   -0.8122    4.5279   -2.0880 C   0  0  0  0  0  0  0  0  0  0  0  0
   -1.8729    4.7043   -2.2951 H   0  0  0  0  0  0  0  0  0  0  0  0
   -0.4204    5.3860   -1.5333 H   0  0  0  0  0  0  0  0  0  0  0  0
   -0.2739    4.4568   -3.0391 H   0  0  0  0  0  0  0  0  0  0  0  0
  1  2  1  0  0  0  0
  2  3  1  0  0  0  0
  2  4  1  0  0  0  0
  2  5  1  0  0  0  0
  5  6  2  0  0  0  0
  5  7  1  0  0  0  0
  7  8  1  0  0  0  0
  7  9  1  0  0  0  0
  9 10  1  0  0  0  0
  9 11  1  0  0  0  0
  9 29  1  0  0  0  0
 11 12  1  0  0  0  0
 11 13  1  0  0  0  0
 11 14  1  0  0  0  0
 14 15  2  0  0  0  0
 14 28  1  0  0  0  0
 15 16  1  0  0  0  0
 15 17  1  0  0  0  0
 17 18  1  0  0  0  0
 17 19  1  0  0  0  0
 19 20  1  0  0  0  0
 19 28  2  0  0  0  0
 20 21  1  0  0  0  0
 20 22  2  0  0  0  0
 22 23  1  0  0  0  0
 22 24  1  0  0  0  0
 24 25  1  0  0  0  0
 24 26  2  0  0  0  0
 26 27  1  0  0  0  0
 26 28  1  0  0  0  0
 29 30  2  0  0  0  0
 29 31  1  0  0  0  0
 31 32  1  0  0  0  0
 31 33  1  0  0  0  0
 33 34  1  0  0  0  0
 33 35  1  0  0  0  0
 33 36  1  0  0  0  0
M  END
$$$$

  -OEChem-01062216103D

 36 37  0     1  0  0  0  0  0999 V2000
   -3.6499   -2.7484    0.3419 H   0  0  0  0  0  0  0  0  0  0  0  0
   -3.5773   -1.9487   -0.4005 C   0  0  0  0  0  0  0  0  0  0  0  0
   -4.5138   -1.3858   -0.4059 H   0  0  0  0  0  0  0  0  0  0  0  0
   -3.4221   -2.3959   -1.3850 H   0  0  0  0  0  0  0  0  0  0  0  0
   -2.4227   -1.0253   -0.0618 C   0  0  0  0  0  0  0  0  0  0  0  0
   -1.8746   -1.1164    1.0224 O   0  0  0  0  0  0  0  0  0  0  0  0
   -2.0817   -0.0163   -0.9363 N   0  0  0  0  0  0  0  0  0  0  0  0
   -2.6247    0.0527   -1.7955 H   0  0  0  0  0  0  0  0  0  0  0  0
   -0.8591    0.8040   -0.8772 C   0  0  1  0  0  0  0  0  0  0  0  0
   -0.6831    1.1242    0.1550 H   0  0  0  0  0  0  0  0  0  0  0  0
    0.3899    0.0686   -1.4168 C   0  0  0  0  0  0  0  0  0  0  0  0
    0.1702   -0.2876   -2.4286 H   0  0  0  0  0  0  0  0  0  0  0  0
    1.2257    0.7710   -1.4975 H   0  0  0  0  0  0  0  0  0  0  0  0
    0.8450   -1.1015   -0.5870 C   0  0  0  0  0  0  0  0  0  0  0  0
    0.5518   -2.4262   -0.8054 C   0  0  0  0  0  0  0  0  0  0  0  0
   -0.0716   -2.8104   -1.6083 H   0  0  0  0  0  0  0  0  0  0  0  0
    1.1937   -3.1698    0.1825 N   0  0  0  0  0  0  0  0  0  0  0  0
    1.1199   -4.1769    0.3029 H   0  0  0  0  0  0  0  0  0  0  0  0
    1.8941   -2.3328    1.0364 C   0  0  0  0  0  0  0  0  0  0  0  0
    2.6763   -2.5977    2.1608 C   0  0  0  0  0  0  0  0  0  0  0  0
    2.8149   -3.6176    2.5011 H   0  0  0  0  0  0  0  0  0  0  0  0
    3.2784   -1.5302    2.8417 C   0  0  0  0  0  0  0  0  0  0  0  0
    3.8899   -1.7225    3.7181 H   0  0  0  0  0  0  0  0  0  0  0  0
    3.0891   -0.2136    2.3939 C   0  0  0  0  0  0  0  0  0  0  0  0
    3.5539    0.6107    2.9260 H   0  0  0  0  0  0  0  0  0  0  0  0
    2.2982    0.0405    1.2639 C   0  0  0  0  0  0  0  0  0  0  0  0
    2.1454    1.0563    0.9177 H   0  0  0  0  0  0  0  0  0  0  0  0
    1.7039   -1.0307    0.5885 C   0  0  0  0  0  0  0  0  0  0  0  0
   -1.0243    2.0472   -1.7733 C   0  0  0  0  0  0  0  0  0  0  0  0
   -1.7387    1.9970   -2.7697 O   0  0  0  0  0  0  0  0  0  0  0  0
   -0.3751    3.2277   -1.4609 N   0  0  0  0  0  0  0  0  0  0  0  0
    0.1818    3.2488   -0.6113 H   0  0  0  0  0  0  0  0  0  0  0  0
   -0.5009    4.4447   -2.2531 C   0  0  0  0  0  0  0  0  0  0  0  0
   -1.5474    4.7631   -2.3040 H   0  0  0  0  0  0  0  0  0  0  0  0
    0.0840    5.2515   -1.8012 H   0  0  0  0  0  0  0  0  0  0  0  0
   -0.1325    4.2788   -3.2708 H   0  0  0  0  0  0  0  0  0  0  0  0
  1  2  1  0  0  0  0
  2  3  1  0  0  0  0
  2  4  1  0  0  0  0
  2  5  1  0  0  0  0
  5  6  2  0  0  0  0
  5  7  1  0  0  0  0
  7  8  1  0  0  0  0
  7  9  1  0  0  0  0
  9 10  1  0  0  0  0
  9 11  1  0  0  0  0
  9 29  1  0  0  0  0
 11 12  1  0  0  0  0
 11 13  1  0  0  0  0
 11 14  1  0  0  0  0
 14 15  2  0  0  0  0
 14 28  1  0  0  0  0
 15 16  1  0  0  0  0
 15 17  1  0  0  0  0
 17 18  1  0  0  0  0
 17 19  1  0  0  0  0
 19 20  1  0  0  0  0
 19 28  2  0  0  0  0
 20 21  1  0  0  0  0
 20 22  2  0  0  0  0
 22 23  1  0  0  0  0
 22 24  1  0  0  0  0
 24 25  1  0  0  0  0
 24 26  2  0  0  0  0
 26 27  1  0  0  0  0
 26 28  1  0  0  0  0
 29 30  2  0  0  0  0
 29 31  1  0  0  0  0
 31 32  1  0  0  0  0
 31 33  1  0  0  0  0
 33 34  1  0  0  0  0
 33 35  1  0  0  0  0
 33 36  1  0  0  0  0
M  END
$$$$

  -OEChem-01062216103D

 36 37  0     1  0  0  0  0  0999 V2000
   -3.6868   -2.7330    0.3371 H   0  0  0  0  0  0  0  0  0  0  0  0
   -3.6013   -1.9329   -0.4034 C   0  0  0  0  0  0  0  0  0  0  0  0
   -4.5237   -1.3472   -0.3990 H   0  0  0  0  0  0  0  0  0  0  0  0
   -3.4657   -2.3803   -1.3908 H   0  0  0  0  0  0  0  0  0  0  0  0
   -2.4214   -1.0393   -0.0717 C   0  0  0  0  0  0  0  0  0  0  0  0
   -1.8572   -1.1596    1.0012 O   0  0  0  0  0  0  0  0  0  0  0  0
   -2.0739   -0.0267   -0.9392 N   0  0  0  0  0  0  0  0  0  0  0  0
   -2.6554    0.0951   -1.7670 H   0  0  0  0  0  0  0  0  0  0  0  0
   -0.8577    0.8037   -0.8743 C   0  0  1  0  0  0  0  0  0  0  0  0
   -0.6860    1.1259    0.1580 H   0  0  0  0  0  0  0  0  0  0  0  0
    0.3938    0.0684   -1.4132 C   0  0  0  0  0  0  0  0  0  0  0  0
    0.1746   -0.2868   -2.4257 H   0  0  0  0  0  0  0  0  0  0  0  0
    1.2319    0.7678   -1.4931 H   0  0  0  0  0  0  0  0  0  0  0  0
    0.8518   -1.1018   -0.5855 C   0  0  0  0  0  0  0  0  0  0  0  0
    0.5618   -2.4270   -0.8051 C   0  0  0  0  0  0  0  0  0  0  0  0
   -0.0634   -2.8115   -1.6066 H   0  0  0  0  0  0  0  0  0  0  0  0
    1.2091   -3.1703    0.1793 N   0  0  0  0  0  0  0  0  0  0  0  0
    1.1332   -4.1768    0.3022 H   0  0  0  0  0  0  0  0  0  0  0  0
    1.9070   -2.3323    1.0340 C   0  0  0  0  0  0  0  0  0  0  0  0
    2.6900   -2.5962    2.1580 C   0  0  0  0  0  0  0  0  0  0  0  0
    2.8330   -3.6164    2.4961 H   0  0  0  0  0  0  0  0  0  0  0  0
    3.2853   -1.5272    2.8427 C   0  0  0  0  0  0  0  0  0  0  0  0
    3.8962   -1.7186    3.7197 H   0  0  0  0  0  0  0  0  0  0  0  0
    3.0888   -0.2105    2.3986 C   0  0  0  0  0  0  0  0  0  0  0  0
    3.5468    0.6153    2.9341 H   0  0  0  0  0  0  0  0  0  0  0  0
    2.2981    0.0424    1.2684 C   0  0  0  0  0  0  0  0  0  0  0  0
    2.1384    1.0583    0.9259 H   0  0  0  0  0  0  0  0  0  0  0  0
    1.7107   -1.0301    0.5894 C   0  0  0  0  0  0  0  0  0  0  0  0
   -1.0263    2.0474   -1.7734 C   0  0  0  0  0  0  0  0  0  0  0  0
   -1.8995    2.0728   -2.6356 O   0  0  0  0  0  0  0  0  0  0  0  0
   -0.1696    3.1269   -1.6511 N   0  0  0  0  0  0  0  0  0  0  0  0
    0.5373    3.0876   -0.9224 H   0  0  0  0  0  0  0  0  0  0  0  0
   -0.2568    4.3191   -2.4855 C   0  0  0  0  0  0  0  0  0  0  0  0
   -1.2310    4.8039   -2.3618 H   0  0  0  0  0  0  0  0  0  0  0  0
    0.5228    5.0342   -2.2057 H   0  0  0  0  0  0  0  0  0  0  0  0
   -0.1236    4.0587   -3.5408 H   0  0  0  0  0  0  0  0  0  0  0  0
  1  2  1  0  0  0  0
  2  3  1  0  0  0  0
  2  4  1  0  0  0  0
  2  5  1  0  0  0  0
  5  6  2  0  0  0  0
  5  7  1  0  0  0  0
  7  8  1  0  0  0  0
  7  9  1  0  0  0  0
  9 10  1  0  0  0  0
  9 11  1  0  0  0  0
  9 29  1  0  0  0  0
 11 12  1  0  0  0  0
 11 13  1  0  0  0  0
 11 14  1  0  0  0  0
 14 15  2  0  0  0  0
 14 28  1  0  0  0  0
 15 16  1  0  0  0  0
 15 17  1  0  0  0  0
 17 18  1  0  0  0  0
 17 19  1  0  0  0  0
 19 20  1  0  0  0  0
 19 28  2  0  0  0  0
 20 21  1  0  0  0  0
 20 22  2  0  0  0  0
 22 23  1  0  0  0  0
 22 24  1  0  0  0  0
 24 25  1  0  0  0  0
 24 26  2  0  0  0  0
 26 27  1  0  0  0  0
 26 28  1  0  0  0  0
 29 30  2  0  0  0  0
 29 31  1  0  0  0  0
 31 32  1  0  0  0  0
 31 33  1  0  0  0  0
 33 34  1  0  0  0  0
 33 35  1  0  0  0  0
 33 36  1  0  0  0  0
M  END
$$$$

  -OEChem-01062216103D

 36 37  0     1  0  0  0  0  0999 V2000
   -3.6582   -2.7003    0.3963 H   0  0  0  0  0  0  0  0  0  0  0  0
   -3.5811   -1.9089   -0.3546 C   0  0  0  0  0  0  0  0  0  0  0  0
   -4.4403   -1.2413   -0.2531 H   0  0  0  0  0  0  0  0  0  0  0  0
   -3.5955   -2.3637   -1.3479 H   0  0  0  0  0  0  0  0  0  0  0  0
   -2.2941   -1.1294   -0.1605 C   0  0  0  0  0  0  0  0  0  0  0  0
   -1.5780   -1.3775    0.7937 O   0  0  0  0  0  0  0  0  0  0  0  0
   -1.9942   -0.0945   -1.0208 N   0  0  0  0  0  0  0  0  0  0  0  0
   -2.7264    0.2006   -1.6646 H   0  0  0  0  0  0  0  0  0  0  0  0
   -0.7998    0.7661   -0.9459 C   0  0  1  0  0  0  0  0  0  0  0  0
   -0.4706    0.8667    0.0938 H   0  0  0  0  0  0  0  0  0  0  0  0
    0.3449    0.1791   -1.8038 C   0  0  0  0  0  0  0  0  0  0  0  0
   -0.0266    0.0228   -2.8218 H   0  0  0  0  0  0  0  0  0  0  0  0
    1.1750    0.8886   -1.8678 H   0  0  0  0  0  0  0  0  0  0  0  0
    0.8912   -1.1215   -1.2796 C   0  0  0  0  0  0  0  0  0  0  0  0
    0.5434   -2.3829   -1.6991 C   0  0  0  0  0  0  0  0  0  0  0  0
   -0.1970   -2.6124   -2.4608 H   0  0  0  0  0  0  0  0  0  0  0  0
    1.3036   -3.2952   -0.9708 N   0  0  0  0  0  0  0  0  0  0  0  0
    1.2278   -4.3074   -1.0328 H   0  0  0  0  0  0  0  0  0  0  0  0
    2.1346   -2.6295   -0.0839 C   0  0  0  0  0  0  0  0  0  0  0  0
    3.0617   -3.0966    0.8479 C   0  0  0  0  0  0  0  0  0  0  0  0
    3.2241   -4.1616    0.9691 H   0  0  0  0  0  0  0  0  0  0  0  0
    3.7756   -2.1729    1.6244 C   0  0  0  0  0  0  0  0  0  0  0  0
    4.4994   -2.5234    2.3540 H   0  0  0  0  0  0  0  0  0  0  0  0
    3.5527   -0.7969    1.4629 C   0  0  0  0  0  0  0  0  0  0  0  0
    4.1043   -0.0847    2.0689 H   0  0  0  0  0  0  0  0  0  0  0  0
    2.6150   -0.3394    0.5260 C   0  0  0  0  0  0  0  0  0  0  0  0
    2.4345    0.7223    0.4045 H   0  0  0  0  0  0  0  0  0  0  0  0
    1.9094   -1.2675   -0.2471 C   0  0  0  0  0  0  0  0  0  0  0  0
   -1.1198    2.1754   -1.4953 C   0  0  0  0  0  0  0  0  0  0  0  0
   -2.2208    2.4117   -1.9836 O   0  0  0  0  0  0  0  0  0  0  0  0
   -0.1522    3.1647   -1.5264 N   0  0  0  0  0  0  0  0  0  0  0  0
    0.7505    2.9532   -1.1113 H   0  0  0  0  0  0  0  0  0  0  0  0
   -0.3814    4.4967   -2.0733 C   0  0  0  0  0  0  0  0  0  0  0  0
   -1.1962    4.9965   -1.5390 H   0  0  0  0  0  0  0  0  0  0  0  0
    0.5216    5.1069   -1.9743 H   0  0  0  0  0  0  0  0  0  0  0  0
   -0.6415    4.4346   -3.1353 H   0  0  0  0  0  0  0  0  0  0  0  0
  1  2  1  0  0  0  0
  2  3  1  0  0  0  0
  2  4  1  0  0  0  0
  2  5  1  0  0  0  0
  5  6  2  0  0  0  0
  5  7  1  0  0  0  0
  7  8  1  0  0  0  0
  7  9  1  0  0  0  0
  9 10  1  0  0  0  0
  9 11  1  0  0  0  0
  9 29  1  0  0  0  0
 11 12  1  0  0  0  0
 11 13  1  0  0  0  0
 11 14  1  0  0  0  0
 14 15  2  0  0  0  0
 14 28  1  0  0  0  0
 15 16  1  0  0  0  0
 15 17  1  0  0  0  0
 17 18  1  0  0  0  0
 17 19  1  0  0  0  0
 19 20  1  0  0  0  0
 19 28  2  0  0  0  0
 20 21  1  0  0  0  0
 20 22  2  0  0  0  0
 22 23  1  0  0  0  0
 22 24  1  0  0  0  0
 24 25  1  0  0  0  0
 24 26  2  0  0  0  0
 26 27  1  0  0  0  0
 26 28  1  0  0  0  0
 29 30  2  0  0  0  0
 29 31  1  0  0  0  0
 31 32  1  0  0  0  0
 31 33  1  0  0  0  0
 33 34  1  0  0  0  0
 33 35  1  0  0  0  0
 33 36  1  0  0  0  0
M  END
$$$$

  -OEChem-01062216103D

 36 37  0     1  0  0  0  0  0999 V2000
   -3.6731   -2.6644    0.4023 H   0  0  0  0  0  0  0  0  0  0  0  0
   -3.5904   -1.8750   -0.3500 C   0  0  0  0  0  0  0  0  0  0  0  0
   -4.4299   -1.1858   -0.2312 H   0  0  0  0  0  0  0  0  0  0  0  0
   -3.6366   -2.3290   -1.3426 H   0  0  0  0  0  0  0  0  0  0  0  0
   -2.2802   -1.1288   -0.1819 C   0  0  0  0  0  0  0  0  0  0  0  0
   -1.5498   -1.4008    0.7547 O   0  0  0  0  0  0  0  0  0  0  0  0
   -1.9793   -0.0933   -1.0415 N   0  0  0  0  0  0  0  0  0  0  0  0
   -2.7386    0.2453   -1.6306 H   0  0  0  0  0  0  0  0  0  0  0  0
   -0.7826    0.7651   -0.9625 C   0  0  1  0  0  0  0  0  0  0  0  0
   -0.4572    0.8708    0.0779 H   0  0  0  0  0  0  0  0  0  0  0  0
    0.3657    0.1636   -1.8102 C   0  0  0  0  0  0  0  0  0  0  0  0
   -0.0015    0.0054   -2.8296 H   0  0  0  0  0  0  0  0  0  0  0  0
    1.2040    0.8627   -1.8723 H   0  0  0  0  0  0  0  0  0  0  0  0
    0.9061   -1.1366   -1.2786 C   0  0  0  0  0  0  0  0  0  0  0  0
    0.5557   -2.3986   -1.6942 C   0  0  0  0  0  0  0  0  0  0  0  0
   -0.1858   -2.6286   -2.4548 H   0  0  0  0  0  0  0  0  0  0  0  0
    1.3152   -3.3105   -0.9644 N   0  0  0  0  0  0  0  0  0  0  0  0
    1.2367   -4.3227   -1.0228 H   0  0  0  0  0  0  0  0  0  0  0  0
    2.1450   -2.6440   -0.0771 C   0  0  0  0  0  0  0  0  0  0  0  0
    3.0685   -3.1116    0.8581 C   0  0  0  0  0  0  0  0  0  0  0  0
    3.2305   -4.1765    0.9803 H   0  0  0  0  0  0  0  0  0  0  0  0
    3.7787   -2.1880    1.6382 C   0  0  0  0  0  0  0  0  0  0  0  0
    4.4979   -2.5383    2.3726 H   0  0  0  0  0  0  0  0  0  0  0  0
    3.5568   -0.8118    1.4754 C   0  0  0  0  0  0  0  0  0  0  0  0
    4.1046   -0.0998    2.0851 H   0  0  0  0  0  0  0  0  0  0  0  0
    2.6243   -0.3540    0.5333 C   0  0  0  0  0  0  0  0  0  0  0  0
    2.4444    0.7078    0.4113 H   0  0  0  0  0  0  0  0  0  0  0  0
    1.9215   -1.2819   -0.2428 C   0  0  0  0  0  0  0  0  0  0  0  0
   -1.1139    2.1749   -1.5135 C   0  0  0  0  0  0  0  0  0  0  0  0
   -2.2774    2.4754   -1.7636 O   0  0  0  0  0  0  0  0  0  0  0  0
   -0.1202    3.0827   -1.8398 N   0  0  0  0  0  0  0  0  0  0  0  0
    0.8391    2.8275   -1.6247 H   0  0  0  0  0  0  0  0  0  0  0  0
   -0.3876    4.3991   -2.4068 C   0  0  0  0  0  0  0  0  0  0  0  0
   -1.0170    4.9872   -1.7306 H   0  0  0  0  0  0  0  0  0  0  0  0
    0.5503    4.9405   -2.5641 H   0  0  0  0  0  0  0  0  0  0  0  0
   -0.8976    4.3044   -3.3712 H   0  0  0  0  0  0  0  0  0  0  0  0
  1  2  1  0  0  0  0
  2  3  1  0  0  0  0
  2  4  1  0  0  0  0
  2  5  1  0  0  0  0
  5  6  2  0  0  0  0
  5  7  1  0  0  0  0
  7  8  1  0  0  0  0
  7  9  1  0  0  0  0
  9 10  1  0  0  0  0
  9 11  1  0  0  0  0
  9 29  1  0  0  0  0
 11 12  1  0  0  0  0
 11 13  1  0  0  0  0
 11 14  1  0  0  0  0
 14 15  2  0  0  0  0
 14 28  1  0  0  0  0
 15 16  1  0  0  0  0
 15 17  1  0  0  0  0
 17 18  1  0  0  0  0
 17 19  1  0  0  0  0
 19 20  1  0  0  0  0
 19 28  2  0  0  0  0
 20 21  1  0  0  0  0
 20 22  2  0  0  0  0
 22 23  1  0  0  0  0
 22 24  1  0  0  0  0
 24 25  1  0  0  0  0
 24 26  2  0  0  0  0
 26 27  1  0  0  0  0
 26 28  1  0  0  0  0
 29 30  2  0  0  0  0
 29 31  1  0  0  0  0
 31 32  1  0  0  0  0
 31 33  1  0  0  0  0
 33 34  1  0  0  0  0
 33 35  1  0  0  0  0
 33 36  1  0  0  0  0
M  END
$$$$

  -OEChem-01062216103D

 36 37  0     1  0  0  0  0  0999 V2000
   -3.6933   -2.6303    0.4046 H   0  0  0  0  0  0  0  0  0  0  0  0
   -3.6044   -1.8422   -0.3485 C   0  0  0  0  0  0  0  0  0  0  0  0
   -4.4244   -1.1325   -0.2144 H   0  0  0  0  0  0  0  0  0  0  0  0
   -3.6795   -2.2931   -1.3407 H   0  0  0  0  0  0  0  0  0  0  0  0
   -2.2736   -1.1287   -0.2034 C   0  0  0  0  0  0  0  0  0  0  0  0
   -1.5304   -1.4280    0.7142 O   0  0  0  0  0  0  0  0  0  0  0  0
   -1.9705   -0.0923   -1.0616 N   0  0  0  0  0  0  0  0  0  0  0  0
   -2.7464    0.2770   -1.6081 H   0  0  0  0  0  0  0  0  0  0  0  0
   -0.7679    0.7585   -0.9827 C   0  0  1  0  0  0  0  0  0  0  0  0
   -0.4461    0.8669    0.0587 H   0  0  0  0  0  0  0  0  0  0  0  0
    0.3852    0.1457   -1.8177 C   0  0  0  0  0  0  0  0  0  0  0  0
    0.0283   -0.0157   -2.8400 H   0  0  0  0  0  0  0  0  0  0  0  0
    1.2285    0.8393   -1.8703 H   0  0  0  0  0  0  0  0  0  0  0  0
    0.9192   -1.1528   -1.2773 C   0  0  0  0  0  0  0  0  0  0  0  0
    0.5694   -2.4165   -1.6883 C   0  0  0  0  0  0  0  0  0  0  0  0
   -0.1705   -2.6500   -2.4493 H   0  0  0  0  0  0  0  0  0  0  0  0
    1.3259   -3.3254   -0.9521 N   0  0  0  0  0  0  0  0  0  0  0  0
    1.2413   -4.3376   -1.0001 H   0  0  0  0  0  0  0  0  0  0  0  0
    2.1539   -2.6551   -0.0663 C   0  0  0  0  0  0  0  0  0  0  0  0
    3.0744   -3.1192    0.8731 C   0  0  0  0  0  0  0  0  0  0  0  0
    3.2343   -4.1839    0.9993 H   0  0  0  0  0  0  0  0  0  0  0  0
    3.7835   -2.1927    1.6506 C   0  0  0  0  0  0  0  0  0  0  0  0
    4.5009   -2.5411    2.3874 H   0  0  0  0  0  0  0  0  0  0  0  0
    3.5622   -0.8172    1.4818 C   0  0  0  0  0  0  0  0  0  0  0  0
    4.1081   -0.1026    2.0902 H   0  0  0  0  0  0  0  0  0  0  0  0
    2.6323   -0.3629    0.5353 C   0  0  0  0  0  0  0  0  0  0  0  0
    2.4524    0.6987    0.4093 H   0  0  0  0  0  0  0  0  0  0  0  0
    1.9317   -1.2939   -0.2388 C   0  0  0  0  0  0  0  0  0  0  0  0
   -1.1074    2.1697   -1.5314 C   0  0  0  0  0  0  0  0  0  0  0  0
   -2.2742    2.5488   -1.5380 O   0  0  0  0  0  0  0  0  0  0  0  0
   -0.1653    2.9777   -2.1474 N   0  0  0  0  0  0  0  0  0  0  0  0
    0.7994    2.6601   -2.1478 H   0  0  0  0  0  0  0  0  0  0  0  0
   -0.4749    4.2815   -2.7230 C   0  0  0  0  0  0  0  0  0  0  0  0
   -0.8853    4.9507   -1.9594 H   0  0  0  0  0  0  0  0  0  0  0  0
    0.4315    4.7388   -3.1314 H   0  0  0  0  0  0  0  0  0  0  0  0
   -1.2054    4.1800   -3.5325 H   0  0  0  0  0  0  0  0  0  0  0  0
  1  2  1  0  0  0  0
  2  3  1  0  0  0  0
  2  4  1  0  0  0  0
  2  5  1  0  0  0  0
  5  6  2  0  0  0  0
  5  7  1  0  0  0  0
  7  8  1  0  0  0  0
  7  9  1  0  0  0  0
  9 10  1  0  0  0  0
  9 11  1  0  0  0  0
  9 29  1  0  0  0  0
 11 12  1  0  0  0  0
 11 13  1  0  0  0  0
 11 14  1  0  0  0  0
 14 15  2  0  0  0  0
 14 28  1  0  0  0  0
 15 16  1  0  0  0  0
 15 17  1  0  0  0  0
 17 18  1  0  0  0  0
 17 19  1  0  0  0  0
 19 20  1  0  0  0  0
 19 28  2  0  0  0  0
 20 21  1  0  0  0  0
 20 22  2  0  0  0  0
 22 23  1  0  0  0  0
 22 24  1  0  0  0  0
 24 25  1  0  0  0  0
 24 26  2  0  0  0  0
 26 27  1  0  0  0  0
 26 28  1  0  0  0  0
 29 30  2  0  0  0  0
 29 31  1  0  0  0  0
 31 32  1  0  0  0  0
 31 33  1  0  0  0  0
 33 34  1  0  0  0  0
 33 35  1  0  0  0  0
 33 36  1  0  0  0  0
M  END
$$$$

  -OEChem-01062216103D

 36 37  0     1  0  0  0  0  0999 V2000
   -3.7111   -2.6076    0.4074 H   0  0  0  0  0  0  0  0  0  0  0  0
   -3.6194   -1.8218   -0.3476 C   0  0  0  0  0  0  0  0  0  0  0  0
   -4.4279   -1.1007   -0.2054 H   0  0  0  0  0  0  0  0  0  0  0  0
   -3.7116   -2.2727   -1.3383 H   0  0  0  0  0  0  0  0  0  0  0  0
   -2.2770   -1.1271   -0.2180 C   0  0  0  0  0  0  0  0  0  0  0  0
   -1.5248   -1.4436    0.6861 O   0  0  0  0  0  0  0  0  0  0  0  0
   -1.9733   -0.0905   -1.0763 N   0  0  0  0  0  0  0  0  0  0  0  0
   -2.7579    0.2944   -1.5981 H   0  0  0  0  0  0  0  0  0  0  0  0
   -0.7625    0.7497   -1.0024 C   0  0  1  0  0  0  0  0  0  0  0  0
   -0.4417    0.8591    0.0395 H   0  0  0  0  0  0  0  0  0  0  0  0
    0.3946    0.1300   -1.8271 C   0  0  0  0  0  0  0  0  0  0  0  0
    0.0457   -0.0351   -2.8517 H   0  0  0  0  0  0  0  0  0  0  0  0
    1.2373    0.8255   -1.8722 H   0  0  0  0  0  0  0  0  0  0  0  0
    0.9256   -1.1671   -1.2793 C   0  0  0  0  0  0  0  0  0  0  0  0
    0.5796   -2.4339   -1.6845 C   0  0  0  0  0  0  0  0  0  0  0  0
   -0.1579   -2.6742   -2.4457 H   0  0  0  0  0  0  0  0  0  0  0  0
    1.3361   -3.3373   -0.9411 N   0  0  0  0  0  0  0  0  0  0  0  0
    1.2517   -4.3499   -0.9816 H   0  0  0  0  0  0  0  0  0  0  0  0
    2.1613   -2.6605   -0.0574 C   0  0  0  0  0  0  0  0  0  0  0  0
    3.0812   -3.1166    0.8867 C   0  0  0  0  0  0  0  0  0  0  0  0
    3.2430   -4.1802    1.0202 H   0  0  0  0  0  0  0  0  0  0  0  0
    3.7876   -2.1837    1.6589 C   0  0  0  0  0  0  0  0  0  0  0  0
    4.5044   -2.5257    2.3990 H   0  0  0  0  0  0  0  0  0  0  0  0
    3.5641   -0.8098    1.4806 C   0  0  0  0  0  0  0  0  0  0  0  0
    4.1081   -0.0902    2.0847 H   0  0  0  0  0  0  0  0  0  0  0  0
    2.6346   -0.3633    0.5301 C   0  0  0  0  0  0  0  0  0  0  0  0
    2.4530    0.6974    0.3968 H   0  0  0  0  0  0  0  0  0  0  0  0
    1.9367   -1.3009   -0.2385 C   0  0  0  0  0  0  0  0  0  0  0  0
   -1.1018    2.1627   -1.5453 C   0  0  0  0  0  0  0  0  0  0  0  0
   -2.2082    2.6374   -1.3152 O   0  0  0  0  0  0  0  0  0  0  0  0
   -0.2799    2.8520   -2.4232 N   0  0  0  0  0  0  0  0  0  0  0  0
    0.6288    2.4498   -2.6327 H   0  0  0  0  0  0  0  0  0  0  0  0
   -0.6233    4.1471   -2.9997 C   0  0  0  0  0  0  0  0  0  0  0  0
   -0.7931    4.8861   -2.2095 H   0  0  0  0  0  0  0  0  0  0  0  0
    0.1909    4.5049   -3.6372 H   0  0  0  0  0  0  0  0  0  0  0  0
   -1.5297    4.0681   -3.6091 H   0  0  0  0  0  0  0  0  0  0  0  0
  1  2  1  0  0  0  0
  2  3  1  0  0  0  0
  2  4  1  0  0  0  0
  2  5  1  0  0  0  0
  5  6  2  0  0  0  0
  5  7  1  0  0  0  0
  7  8  1  0  0  0  0
  7  9  1  0  0  0  0
  9 10  1  0  0  0  0
  9 11  1  0  0  0  0
  9 29  1  0  0  0  0
 11 12  1  0  0  0  0
 11 13  1  0  0  0  0
 11 14  1  0  0  0  0
 14 15  2  0  0  0  0
 14 28  1  0  0  0  0
 15 16  1  0  0  0  0
 15 17  1  0  0  0  0
 17 18  1  0  0  0  0
 17 19  1  0  0  0  0
 19 20  1  0  0  0  0
 19 28  2  0  0  0  0
 20 21  1  0  0  0  0
 20 22  2  0  0  0  0
 22 23  1  0  0  0  0
 22 24  1  0  0  0  0
 24 25  1  0  0  0  0
 24 26  2  0  0  0  0
 26 27  1  0  0  0  0
 26 28  1  0  0  0  0
 29 30  2  0  0  0  0
 29 31  1  0  0  0  0
 31 32  1  0  0  0  0
 31 33  1  0  0  0  0
 33 34  1  0  0  0  0
 33 35  1  0  0  0  0
 33 36  1  0  0  0  0
M  END
$$$$

  -OEChem-01062216103D

 36 37  0     1  0  0  0  0  0999 V2000
   -3.7114   -2.6110    0.4147 H   0  0  0  0  0  0  0  0  0  0  0  0
   -3.6240   -1.8260   -0.3420 C   0  0  0  0  0  0  0  0  0  0  0  0
   -4.4342   -1.1071   -0.1986 H   0  0  0  0  0  0  0  0  0  0  0  0
   -3.7174   -2.2784   -1.3320 H   0  0  0  0  0  0  0  0  0  0  0  0
   -2.2836   -1.1269   -0.2170 C   0  0  0  0  0  0  0  0  0  0  0  0
   -1.5268   -1.4437    0.6827 O   0  0  0  0  0  0  0  0  0  0  0  0
   -1.9842   -0.0929   -1.0807 N   0  0  0  0  0  0  0  0  0  0  0  0
   -2.7664    0.2742   -1.6164 H   0  0  0  0  0  0  0  0  0  0  0  0
   -0.7699    0.7434   -1.0173 C   0  0  1  0  0  0  0  0  0  0  0  0
   -0.4461    0.8558    0.0235 H   0  0  0  0  0  0  0  0  0  0  0  0
    0.3874    0.1207   -1.8374 C   0  0  0  0  0  0  0  0  0  0  0  0
    0.0373   -0.0571   -2.8592 H   0  0  0  0  0  0  0  0  0  0  0  0
    1.2244    0.8237   -1.8900 H   0  0  0  0  0  0  0  0  0  0  0  0
    0.9213   -1.1718   -1.2822 C   0  0  0  0  0  0  0  0  0  0  0  0
    0.5776   -2.4417   -1.6798 C   0  0  0  0  0  0  0  0  0  0  0  0
   -0.1609   -2.6878   -2.4380 H   0  0  0  0  0  0  0  0  0  0  0  0
    1.3379   -3.3391   -0.9333 N   0  0  0  0  0  0  0  0  0  0  0  0
    1.2558   -4.3521   -0.9673 H   0  0  0  0  0  0  0  0  0  0  0  0
    2.1628   -2.6557   -0.0546 C   0  0  0  0  0  0  0  0  0  0  0  0
    3.0855   -3.1046    0.8901 C   0  0  0  0  0  0  0  0  0  0  0  0
    3.2511   -4.1668    1.0286 H   0  0  0  0  0  0  0  0  0  0  0  0
    3.7897   -2.1662    1.6575 C   0  0  0  0  0  0  0  0  0  0  0  0
    4.5093   -2.5020    2.3981 H   0  0  0  0  0  0  0  0  0  0  0  0
    3.5604   -0.7937    1.4744 C   0  0  0  0  0  0  0  0  0  0  0  0
    4.1015   -0.0693    2.0754 H   0  0  0  0  0  0  0  0  0  0  0  0
    2.6283   -0.3543    0.5232 C   0  0  0  0  0  0  0  0  0  0  0  0
    2.4414    0.7049    0.3862 H   0  0  0  0  0  0  0  0  0  0  0  0
    1.9337   -1.2976   -0.2414 C   0  0  0  0  0  0  0  0  0  0  0  0
   -1.1019    2.1568   -1.5588 C   0  0  0  0  0  0  0  0  0  0  0  0
   -2.0803    2.7449   -1.1163 O   0  0  0  0  0  0  0  0  0  0  0  0
   -0.4597    2.7145   -2.6537 N   0  0  0  0  0  0  0  0  0  0  0  0
    0.3317    2.2105   -3.0424 H   0  0  0  0  0  0  0  0  0  0  0  0
   -0.8141    4.0107   -3.2212 C   0  0  0  0  0  0  0  0  0  0  0  0
   -0.7254    4.7978   -2.4650 H   0  0  0  0  0  0  0  0  0  0  0  0
   -0.1458    4.2548   -4.0524 H   0  0  0  0  0  0  0  0  0  0  0  0
   -1.8426    3.9973   -3.5971 H   0  0  0  0  0  0  0  0  0  0  0  0
  1  2  1  0  0  0  0
  2  3  1  0  0  0  0
  2  4  1  0  0  0  0
  2  5  1  0  0  0  0
  5  6  2  0  0  0  0
  5  7  1  0  0  0  0
  7  8  1  0  0  0  0
  7  9  1  0  0  0  0
  9 10  1  0  0  0  0
  9 11  1  0  0  0  0
  9 29  1  0  0  0  0
 11 12  1  0  0  0  0
 11 13  1  0  0  0  0
 11 14  1  0  0  0  0
 14 15  2  0  0  0  0
 14 28  1  0  0  0  0
 15 16  1  0  0  0  0
 15 17  1  0  0  0  0
 17 18  1  0  0  0  0
 17 19  1  0  0  0  0
 19 20  1  0  0  0  0
 19 28  2  0  0  0  0
 20 21  1  0  0  0  0
 20 22  2  0  0  0  0
 22 23  1  0  0  0  0
 22 24  1  0  0  0  0
 24 25  1  0  0  0  0
 24 26  2  0  0  0  0
 26 27  1  0  0  0  0
 26 28  1  0  0  0  0
 29 30  2  0  0  0  0
 29 31  1  0  0  0  0
 31 32  1  0  0  0  0
 31 33  1  0  0  0  0
 33 34  1  0  0  0  0
 33 35  1  0  0  0  0
 33 36  1  0  0  0  0
M  END
$$$$

  -OEChem-01062216103D

 36 37  0     1  0  0  0  0  0999 V2000
   -3.7047   -2.6288    0.4198 H   0  0  0  0  0  0  0  0  0  0  0  0
   -3.6224   -1.8472   -0.3406 C   0  0  0  0  0  0  0  0  0  0  0  0
   -4.4432   -1.1386   -0.2067 H   0  0  0  0  0  0  0  0  0  0  0  0
   -3.7024   -2.3073   -1.3282 H   0  0  0  0  0  0  0  0  0  0  0  0
   -2.2925   -1.1294   -0.2081 C   0  0  0  0  0  0  0  0  0  0  0  0
   -1.5372   -1.4343    0.6968 O   0  0  0  0  0  0  0  0  0  0  0  0
   -1.9986   -0.0964   -1.0752 N   0  0  0  0  0  0  0  0  0  0  0  0
   -2.7680    0.2327   -1.6513 H   0  0  0  0  0  0  0  0  0  0  0  0
   -0.7819    0.7376   -1.0250 C   0  0  1  0  0  0  0  0  0  0  0  0
   -0.4513    0.8492    0.0141 H   0  0  0  0  0  0  0  0  0  0  0  0
    0.3717    0.1151   -1.8483 C   0  0  0  0  0  0  0  0  0  0  0  0
    0.0158   -0.0746   -2.8658 H   0  0  0  0  0  0  0  0  0  0  0  0
    1.2030    0.8244   -1.9132 H   0  0  0  0  0  0  0  0  0  0  0  0
    0.9089   -1.1740   -1.2888 C   0  0  0  0  0  0  0  0  0  0  0  0
    0.5667   -2.4473   -1.6765 C   0  0  0  0  0  0  0  0  0  0  0  0
   -0.1725   -2.7007   -2.4316 H   0  0  0  0  0  0  0  0  0  0  0  0
    1.3306   -3.3376   -0.9252 N   0  0  0  0  0  0  0  0  0  0  0  0
    1.2523   -4.3510   -0.9533 H   0  0  0  0  0  0  0  0  0  0  0  0
    2.1563   -2.6465   -0.0532 C   0  0  0  0  0  0  0  0  0  0  0  0
    3.0820   -3.0865    0.8933 C   0  0  0  0  0  0  0  0  0  0  0  0
    3.2495   -4.1473    1.0411 H   0  0  0  0  0  0  0  0  0  0  0  0
    3.7868   -2.1403    1.6511 C   0  0  0  0  0  0  0  0  0  0  0  0
    4.5077   -2.4680    2.3940 H   0  0  0  0  0  0  0  0  0  0  0  0
    3.5562   -0.7697    1.4560 C   0  0  0  0  0  0  0  0  0  0  0  0
    4.0980   -0.0393    2.0491 H   0  0  0  0  0  0  0  0  0  0  0  0
    2.6210   -0.3394    0.5035 C   0  0  0  0  0  0  0  0  0  0  0  0
    2.4333    0.7189    0.3577 H   0  0  0  0  0  0  0  0  0  0  0  0
    1.9247   -1.2903   -0.2504 C   0  0  0  0  0  0  0  0  0  0  0  0
   -1.1035    2.1523   -1.5614 C   0  0  0  0  0  0  0  0  0  0  0  0
   -1.8776    2.8641   -0.9368 O   0  0  0  0  0  0  0  0  0  0  0  0
   -0.6976    2.5822   -2.8152 N   0  0  0  0  0  0  0  0  0  0  0  0
   -0.0710    1.9790   -3.3395 H   0  0  0  0  0  0  0  0  0  0  0  0
   -1.0512    3.8828   -3.3723 C   0  0  0  0  0  0  0  0  0  0  0  0
   -0.7058    4.6875   -2.7147 H   0  0  0  0  0  0  0  0  0  0  0  0
   -0.5843    4.0140   -4.3530 H   0  0  0  0  0  0  0  0  0  0  0  0
   -2.1365    3.9666   -3.4923 H   0  0  0  0  0  0  0  0  0  0  0  0
  1  2  1  0  0  0  0
  2  3  1  0  0  0  0
  2  4  1  0  0  0  0
  2  5  1  0  0  0  0
  5  6  2  0  0  0  0
  5  7  1  0  0  0  0
  7  8  1  0  0  0  0
  7  9  1  0  0  0  0
  9 10  1  0  0  0  0
  9 11  1  0  0  0  0
  9 29  1  0  0  0  0
 11 12  1  0  0  0  0
 11 13  1  0  0  0  0
 11 14  1  0  0  0  0
 14 15  2  0  0  0  0
 14 28  1  0  0  0  0
 15 16  1  0  0  0  0
 15 17  1  0  0  0  0
 17 18  1  0  0  0  0
 17 19  1  0  0  0  0
 19 20  1  0  0  0  0
 19 28  2  0  0  0  0
 20 21  1  0  0  0  0
 20 22  2  0  0  0  0
 22 23  1  0  0  0  0
 22 24  1  0  0  0  0
 24 25  1  0  0  0  0
 24 26  2  0  0  0  0
 26 27  1  0  0  0  0
 26 28  1  0  0  0  0
 29 30  2  0  0  0  0
 29 31  1  0  0  0  0
 31 32  1  0  0  0  0
 31 33  1  0  0  0  0
 33 34  1  0  0  0  0
 33 35  1  0  0  0  0
 33 36  1  0  0  0  0
M  END
$$$$

  -OEChem-01062216103D

 36 37  0     1  0  0  0  0  0999 V2000
   -3.6860   -2.6615    0.4232 H   0  0  0  0  0  0  0  0  0  0  0  0
   -3.6116   -1.8802   -0.3386 C   0  0  0  0  0  0  0  0  0  0  0  0
   -4.4527   -1.1929   -0.2205 H   0  0  0  0  0  0  0  0  0  0  0  0
   -3.6639   -2.3449   -1.3258 H   0  0  0  0  0  0  0  0  0  0  0  0
   -2.3028   -1.1281   -0.1875 C   0  0  0  0  0  0  0  0  0  0  0  0
   -1.5541   -1.4110    0.7297 O   0  0  0  0  0  0  0  0  0  0  0  0
   -2.0156   -0.0973   -1.0598 N   0  0  0  0  0  0  0  0  0  0  0  0
   -2.7684    0.1894   -1.6779 H   0  0  0  0  0  0  0  0  0  0  0  0
   -0.7982    0.7366   -1.0214 C   0  0  1  0  0  0  0  0  0  0  0  0
   -0.4603    0.8477    0.0155 H   0  0  0  0  0  0  0  0  0  0  0  0
    0.3511    0.1184   -1.8528 C   0  0  0  0  0  0  0  0  0  0  0  0
   -0.0090   -0.0760   -2.8675 H   0  0  0  0  0  0  0  0  0  0  0  0
    1.1766    0.8342   -1.9261 H   0  0  0  0  0  0  0  0  0  0  0  0
    0.8941   -1.1692   -1.2942 C   0  0  0  0  0  0  0  0  0  0  0  0
    0.5533   -2.4445   -1.6770 C   0  0  0  0  0  0  0  0  0  0  0  0
   -0.1865   -2.7022   -2.4299 H   0  0  0  0  0  0  0  0  0  0  0  0
    1.3202   -3.3315   -0.9246 N   0  0  0  0  0  0  0  0  0  0  0  0
    1.2449   -4.3453   -0.9503 H   0  0  0  0  0  0  0  0  0  0  0  0
    2.1471   -2.6361   -0.0568 C   0  0  0  0  0  0  0  0  0  0  0  0
    3.0764   -3.0704    0.8889 C   0  0  0  0  0  0  0  0  0  0  0  0
    3.2466   -4.1302    1.0408 H   0  0  0  0  0  0  0  0  0  0  0  0
    3.7822   -2.1194    1.6396 C   0  0  0  0  0  0  0  0  0  0  0  0
    4.5072   -2.4426    2.3803 H   0  0  0  0  0  0  0  0  0  0  0  0
    3.5482   -0.7500    1.4391 C   0  0  0  0  0  0  0  0  0  0  0  0
    4.0913   -0.0154    2.0258 H   0  0  0  0  0  0  0  0  0  0  0  0
    2.6084   -0.3256    0.4887 C   0  0  0  0  0  0  0  0  0  0  0  0
    2.4172    0.7314    0.3380 H   0  0  0  0  0  0  0  0  0  0  0  0
    1.9123   -1.2811   -0.2586 C   0  0  0  0  0  0  0  0  0  0  0  0
   -1.1115    2.1510   -1.5565 C   0  0  0  0  0  0  0  0  0  0  0  0
   -1.6125    2.9826   -0.8139 O   0  0  0  0  0  0  0  0  0  0  0  0
   -0.9831    2.4649   -2.9001 N   0  0  0  0  0  0  0  0  0  0  0  0
   -0.5703    1.7652   -3.5091 H   0  0  0  0  0  0  0  0  0  0  0  0
   -1.3237    3.7692   -3.4563 C   0  0  0  0  0  0  0  0  0  0  0  0
   -0.7542    4.5602   -2.9570 H   0  0  0  0  0  0  0  0  0  0  0  0
   -1.0889    3.7978   -4.5246 H   0  0  0  0  0  0  0  0  0  0  0  0
   -2.3927    3.9718   -3.3315 H   0  0  0  0  0  0  0  0  0  0  0  0
  1  2  1  0  0  0  0
  2  3  1  0  0  0  0
  2  4  1  0  0  0  0
  2  5  1  0  0  0  0
  5  6  2  0  0  0  0
  5  7  1  0  0  0  0
  7  8  1  0  0  0  0
  7  9  1  0  0  0  0
  9 10  1  0  0  0  0
  9 11  1  0  0  0  0
  9 29  1  0  0  0  0
 11 12  1  0  0  0  0
 11 13  1  0  0  0  0
 11 14  1  0  0  0  0
 14 15  2  0  0  0  0
 14 28  1  0  0  0  0
 15 16  1  0  0  0  0
 15 17  1  0  0  0  0
 17 18  1  0  0  0  0
 17 19  1  0  0  0  0
 19 20  1  0  0  0  0
 19 28  2  0  0  0  0
 20 21  1  0  0  0  0
 20 22  2  0  0  0  0
 22 23  1  0  0  0  0
 22 24  1  0  0  0  0
 24 25  1  0  0  0  0
 24 26  2  0  0  0  0
 26 27  1  0  0  0  0
 26 28  1  0  0  0  0
 29 30  2  0  0  0  0
 29 31  1  0  0  0  0
 31 32  1  0  0  0  0
 31 33  1  0  0  0  0
 33 34  1  0  0  0  0
 33 35  1  0  0  0  0
 33 36  1  0  0  0  0
M  END
$$$$

  -OEChem-01062216103D

 36 37  0     1  0  0  0  0  0999 V2000
   -3.6676   -2.6848    0.4535 H   0  0  0  0  0  0  0  0  0  0  0  0
   -3.6032   -1.9092   -0.3149 C   0  0  0  0  0  0  0  0  0  0  0  0
   -4.4539   -1.2328   -0.2030 H   0  0  0  0  0  0  0  0  0  0  0  0
   -3.6483   -2.3840   -1.2977 H   0  0  0  0  0  0  0  0  0  0  0  0
   -2.3046   -1.1385   -0.1681 C   0  0  0  0  0  0  0  0  0  0  0  0
   -1.5550   -1.4039    0.7533 O   0  0  0  0  0  0  0  0  0  0  0  0
   -2.0291   -0.1088   -1.0462 N   0  0  0  0  0  0  0  0  0  0  0  0
   -2.7725    0.1473   -1.6882 H   0  0  0  0  0  0  0  0  0  0  0  0
   -0.8145    0.7302   -1.0155 C   0  0  1  0  0  0  0  0  0  0  0  0
   -0.4683    0.8386    0.0192 H   0  0  0  0  0  0  0  0  0  0  0  0
    0.3305    0.1265   -1.8601 C   0  0  0  0  0  0  0  0  0  0  0  0
   -0.0340   -0.0619   -2.8742 H   0  0  0  0  0  0  0  0  0  0  0  0
    1.1500    0.8487   -1.9352 H   0  0  0  0  0  0  0  0  0  0  0  0
    0.8827   -1.1611   -1.3102 C   0  0  0  0  0  0  0  0  0  0  0  0
    0.5477   -2.4378   -1.6939 C   0  0  0  0  0  0  0  0  0  0  0  0
   -0.1906   -2.6986   -2.4473 H   0  0  0  0  0  0  0  0  0  0  0  0
    1.3208   -3.3220   -0.9442 N   0  0  0  0  0  0  0  0  0  0  0  0
    1.2546   -4.3363   -0.9749 H   0  0  0  0  0  0  0  0  0  0  0  0
    2.1417   -2.6235   -0.0733 C   0  0  0  0  0  0  0  0  0  0  0  0
    3.0718   -3.0532    0.8736 C   0  0  0  0  0  0  0  0  0  0  0  0
    3.2506   -4.1121    1.0222 H   0  0  0  0  0  0  0  0  0  0  0  0
    3.7662   -2.0990    1.6312 C   0  0  0  0  0  0  0  0  0  0  0  0
    4.4909   -2.4189    2.3738 H   0  0  0  0  0  0  0  0  0  0  0  0
    3.5203   -0.7310    1.4361 C   0  0  0  0  0  0  0  0  0  0  0  0
    4.0529    0.0064    2.0288 H   0  0  0  0  0  0  0  0  0  0  0  0
    2.5813   -0.3113    0.4830 C   0  0  0  0  0  0  0  0  0  0  0  0
    2.3801    0.7447    0.3364 H   0  0  0  0  0  0  0  0  0  0  0  0
    1.8976   -1.2700   -0.2715 C   0  0  0  0  0  0  0  0  0  0  0  0
   -1.1251    2.1430   -1.5499 C   0  0  0  0  0  0  0  0  0  0  0  0
   -1.3138    3.0673   -0.7729 O   0  0  0  0  0  0  0  0  0  0  0  0
   -1.2973    2.3695   -2.9058 N   0  0  0  0  0  0  0  0  0  0  0  0
   -1.0948    1.6022   -3.5388 H   0  0  0  0  0  0  0  0  0  0  0  0
   -1.6116    3.6795   -3.4643 C   0  0  0  0  0  0  0  0  0  0  0  0
   -0.8490    4.4121   -3.1797 H   0  0  0  0  0  0  0  0  0  0  0  0
   -1.6479    3.6264   -4.5567 H   0  0  0  0  0  0  0  0  0  0  0  0
   -2.5853    4.0257   -3.1024 H   0  0  0  0  0  0  0  0  0  0  0  0
  1  2  1  0  0  0  0
  2  3  1  0  0  0  0
  2  4  1  0  0  0  0
  2  5  1  0  0  0  0
  5  6  2  0  0  0  0
  5  7  1  0  0  0  0
  7  8  1  0  0  0  0
  7  9  1  0  0  0  0
  9 10  1  0  0  0  0
  9 11  1  0  0  0  0
  9 29  1  0  0  0  0
 11 12  1  0  0  0  0
 11 13  1  0  0  0  0
 11 14  1  0  0  0  0
 14 15  2  0  0  0  0
 14 28  1  0  0  0  0
 15 16  1  0  0  0  0
 15 17  1  0  0  0  0
 17 18  1  0  0  0  0
 17 19  1  0  0  0  0
 19 20  1  0  0  0  0
 19 28  2  0  0  0  0
 20 21  1  0  0  0  0
 20 22  2  0  0  0  0
 22 23  1  0  0  0  0
 22 24  1  0  0  0  0
 24 25  1  0  0  0  0
 24 26  2  0  0  0  0
 26 27  1  0  0  0  0
 26 28  1  0  0  0  0
 29 30  2  0  0  0  0
 29 31  1  0  0  0  0
 31 32  1  0  0  0  0
 31 33  1  0  0  0  0
 33 34  1  0  0  0  0
 33 35  1  0  0  0  0
 33 36  1  0  0  0  0
M  END
$$$$

  -OEChem-01062216103D

 36 37  0     1  0  0  0  0  0999 V2000
   -3.6536   -2.7160    0.4807 H   0  0  0  0  0  0  0  0  0  0  0  0
   -3.5984   -1.9417   -0.2900 C   0  0  0  0  0  0  0  0  0  0  0  0
   -4.4588   -1.2768   -0.1817 H   0  0  0  0  0  0  0  0  0  0  0  0
   -3.6342   -2.4199   -1.2714 H   0  0  0  0  0  0  0  0  0  0  0  0
   -2.3112   -1.1522   -0.1435 C   0  0  0  0  0  0  0  0  0  0  0  0
   -1.5630   -1.3989    0.7839 O   0  0  0  0  0  0  0  0  0  0  0  0
   -2.0458   -0.1233   -1.0259 N   0  0  0  0  0  0  0  0  0  0  0  0
   -2.7874    0.1168   -1.6753 H   0  0  0  0  0  0  0  0  0  0  0  0
   -0.8379    0.7267   -0.9942 C   0  0  1  0  0  0  0  0  0  0  0  0
   -0.4876    0.8345    0.0394 H   0  0  0  0  0  0  0  0  0  0  0  0
    0.3064    0.1452   -1.8528 C   0  0  0  0  0  0  0  0  0  0  0  0
   -0.0603   -0.0303   -2.8684 H   0  0  0  0  0  0  0  0  0  0  0  0
    1.1201    0.8749   -1.9211 H   0  0  0  0  0  0  0  0  0  0  0  0
    0.8718   -1.1434   -1.3193 C   0  0  0  0  0  0  0  0  0  0  0  0
    0.5450   -2.4183   -1.7154 C   0  0  0  0  0  0  0  0  0  0  0  0
   -0.1893   -2.6766   -2.4733 H   0  0  0  0  0  0  0  0  0  0  0  0
    1.3230   -3.3044   -0.9731 N   0  0  0  0  0  0  0  0  0  0  0  0
    1.2669   -4.3188   -1.0160 H   0  0  0  0  0  0  0  0  0  0  0  0
    2.1380   -2.6087   -0.0940 C   0  0  0  0  0  0  0  0  0  0  0  0
    3.0690   -3.0406    0.8513 C   0  0  0  0  0  0  0  0  0  0  0  0
    3.2544   -4.0994    0.9912 H   0  0  0  0  0  0  0  0  0  0  0  0
    3.7549   -2.0890    1.6197 C   0  0  0  0  0  0  0  0  0  0  0  0
    4.4791   -2.4106    2.3619 H   0  0  0  0  0  0  0  0  0  0  0  0
    3.5011   -0.7209    1.4363 C   0  0  0  0  0  0  0  0  0  0  0  0
    4.0270    0.0138    2.0382 H   0  0  0  0  0  0  0  0  0  0  0  0
    2.5620   -0.2985    0.4845 C   0  0  0  0  0  0  0  0  0  0  0  0
    2.3543    0.7575    0.3467 H   0  0  0  0  0  0  0  0  0  0  0  0
    1.8857   -1.2548   -0.2800 C   0  0  0  0  0  0  0  0  0  0  0  0
   -1.1531    2.1356   -1.5322 C   0  0  0  0  0  0  0  0  0  0  0  0
   -1.0270    3.1173   -0.8154 O   0  0  0  0  0  0  0  0  0  0  0  0
   -1.6211    2.3042   -2.8255 N   0  0  0  0  0  0  0  0  0  0  0  0
   -1.6159    1.4913   -3.4332 H   0  0  0  0  0  0  0  0  0  0  0  0
   -1.8938    3.6141   -3.4057 C   0  0  0  0  0  0  0  0  0  0  0  0
   -0.9977    4.2428   -3.3729 H   0  0  0  0  0  0  0  0  0  0  0  0
   -2.2036    3.5090   -4.4498 H   0  0  0  0  0  0  0  0  0  0  0  0
   -2.6967    4.1166   -2.8559 H   0  0  0  0  0  0  0  0  0  0  0  0
  1  2  1  0  0  0  0
  2  3  1  0  0  0  0
  2  4  1  0  0  0  0
  2  5  1  0  0  0  0
  5  6  2  0  0  0  0
  5  7  1  0  0  0  0
  7  8  1  0  0  0  0
  7  9  1  0  0  0  0
  9 10  1  0  0  0  0
  9 11  1  0  0  0  0
  9 29  1  0  0  0  0
 11 12  1  0  0  0  0
 11 13  1  0  0  0  0
 11 14  1  0  0  0  0
 14 15  2  0  0  0  0
 14 28  1  0  0  0  0
 15 16  1  0  0  0  0
 15 17  1  0  0  0  0
 17 18  1  0  0  0  0
 17 19  1  0  0  0  0
 19 20  1  0  0  0  0
 19 28  2  0  0  0  0
 20 21  1  0  0  0  0
 20 22  2  0  0  0  0
 22 23  1  0  0  0  0
 22 24  1  0  0  0  0
 24 25  1  0  0  0  0
 24 26  2  0  0  0  0
 26 27  1  0  0  0  0
 26 28  1  0  0  0  0
 29 30  2  0  0  0  0
 29 31  1  0  0  0  0
 31 32  1  0  0  0  0
 31 33  1  0  0  0  0
 33 34  1  0  0  0  0
 33 35  1  0  0  0  0
 33 36  1  0  0  0  0
M  END
$$$$

  -OEChem-01062216103D

 36 37  0     1  0  0  0  0  0999 V2000
   -3.6374   -2.7608    0.4921 H   0  0  0  0  0  0  0  0  0  0  0  0
   -3.5917   -1.9847   -0.2773 C   0  0  0  0  0  0  0  0  0  0  0  0
   -4.4631   -1.3341   -0.1715 H   0  0  0  0  0  0  0  0  0  0  0  0
   -3.6161   -2.4623   -1.2593 H   0  0  0  0  0  0  0  0  0  0  0  0
   -2.3177   -1.1751   -0.1239 C   0  0  0  0  0  0  0  0  0  0  0  0
   -1.5739   -1.4059    0.8110 O   0  0  0  0  0  0  0  0  0  0  0  0
   -2.0629   -0.1434   -1.0067 N   0  0  0  0  0  0  0  0  0  0  0  0
   -2.8041    0.0817   -1.6608 H   0  0  0  0  0  0  0  0  0  0  0  0
   -0.8638    0.7216   -0.9703 C   0  0  1  0  0  0  0  0  0  0  0  0
   -0.5117    0.8263    0.0629 H   0  0  0  0  0  0  0  0  0  0  0  0
    0.2787    0.1577   -1.8407 C   0  0  0  0  0  0  0  0  0  0  0  0
   -0.0941   -0.0074   -2.8561 H   0  0  0  0  0  0  0  0  0  0  0  0
    1.0876    0.8935   -1.9064 H   0  0  0  0  0  0  0  0  0  0  0  0
    0.8551   -1.1309   -1.3201 C   0  0  0  0  0  0  0  0  0  0  0  0
    0.5352   -2.4049   -1.7237 C   0  0  0  0  0  0  0  0  0  0  0  0
   -0.1996   -2.6623   -2.4813 H   0  0  0  0  0  0  0  0  0  0  0  0
    1.3193   -3.2907   -0.9877 N   0  0  0  0  0  0  0  0  0  0  0  0
    1.2726   -4.3051   -1.0402 H   0  0  0  0  0  0  0  0  0  0  0  0
    2.1319   -2.5958   -0.1058 C   0  0  0  0  0  0  0  0  0  0  0  0
    3.0669   -3.0270    0.8357 C   0  0  0  0  0  0  0  0  0  0  0  0
    3.2590   -4.0854    0.9697 H   0  0  0  0  0  0  0  0  0  0  0  0
    3.7490   -2.0753    1.6075 C   0  0  0  0  0  0  0  0  0  0  0  0
    4.4763   -2.3964    2.3469 H   0  0  0  0  0  0  0  0  0  0  0  0
    3.4882   -0.7077    1.4307 C   0  0  0  0  0  0  0  0  0  0  0  0
    4.0123    0.0272    2.0337 H   0  0  0  0  0  0  0  0  0  0  0  0
    2.5451   -0.2857    0.4827 C   0  0  0  0  0  0  0  0  0  0  0  0
    2.3319    0.7701    0.3491 H   0  0  0  0  0  0  0  0  0  0  0  0
    1.8723   -1.2425   -0.2843 C   0  0  0  0  0  0  0  0  0  0  0  0
   -1.1726    2.1325   -1.5061 C   0  0  0  0  0  0  0  0  0  0  0  0
   -0.7615    3.1221   -0.9182 O   0  0  0  0  0  0  0  0  0  0  0  0
   -1.9101    2.2962   -2.6682 N   0  0  0  0  0  0  0  0  0  0  0  0
   -2.0800    1.4675   -3.2279 H   0  0  0  0  0  0  0  0  0  0  0  0
   -2.1533    3.6033   -3.2680 C   0  0  0  0  0  0  0  0  0  0  0  0
   -1.2065    4.0849   -3.5348 H   0  0  0  0  0  0  0  0  0  0  0  0
   -2.7563    3.4981   -4.1751 H   0  0  0  0  0  0  0  0  0  0  0  0
   -2.6933    4.2512   -2.5692 H   0  0  0  0  0  0  0  0  0  0  0  0
  1  2  1  0  0  0  0
  2  3  1  0  0  0  0
  2  4  1  0  0  0  0
  2  5  1  0  0  0  0
  5  6  2  0  0  0  0
  5  7  1  0  0  0  0
  7  8  1  0  0  0  0
  7  9  1  0  0  0  0
  9 10  1  0  0  0  0
  9 11  1  0  0  0  0
  9 29  1  0  0  0  0
 11 12  1  0  0  0  0
 11 13  1  0  0  0  0
 11 14  1  0  0  0  0
 14 15  2  0  0  0  0
 14 28  1  0  0  0  0
 15 16  1  0  0  0  0
 15 17  1  0  0  0  0
 17 18  1  0  0  0  0
 17 19  1  0  0  0  0
 19 20  1  0  0  0  0
 19 28  2  0  0  0  0
 20 21  1  0  0  0  0
 20 22  2  0  0  0  0
 22 23  1  0  0  0  0
 22 24  1  0  0  0  0
 24 25  1  0  0  0  0
 24 26  2  0  0  0  0
 26 27  1  0  0  0  0
 26 28  1  0  0  0  0
 29 30  2  0  0  0  0
 29 31  1  0  0  0  0
 31 32  1  0  0  0  0
 31 33  1  0  0  0  0
 33 34  1  0  0  0  0
 33 35  1  0  0  0  0
 33 36  1  0  0  0  0
M  END
$$$$

  -OEChem-01062216103D

 36 37  0     1  0  0  0  0  0999 V2000
   -3.2915   -2.8975    0.4946 H   0  0  0  0  0  0  0  0  0  0  0  0
   -3.2808   -2.1751   -0.3266 C   0  0  0  0  0  0  0  0  0  0  0  0
   -4.2797   -1.7444   -0.4287 H   0  0  0  0  0  0  0  0  0  0  0  0
   -3.0175   -2.6976   -1.2489 H   0  0  0  0  0  0  0  0  0  0  0  0
   -2.2698   -1.0803   -0.0414 C   0  0  0  0  0  0  0  0  0  0  0  0
   -1.6842   -1.0689    1.0260 O   0  0  0  0  0  0  0  0  0  0  0  0
   -2.0768   -0.0759   -0.9712 N   0  0  0  0  0  0  0  0  0  0  0  0
   -2.5373   -0.2360   -1.8588 H   0  0  0  0  0  0  0  0  0  0  0  0
   -0.8657    0.7751   -0.9840 C   0  0  1  0  0  0  0  0  0  0  0  0
   -0.4755    0.8915    0.0337 H   0  0  0  0  0  0  0  0  0  0  0  0
    0.2291    0.1543   -1.8775 C   0  0  0  0  0  0  0  0  0  0  0  0
   -0.1801   -0.0238   -2.8767 H   0  0  0  0  0  0  0  0  0  0  0  0
    1.0600    0.8594   -1.9891 H   0  0  0  0  0  0  0  0  0  0  0  0
    0.7778   -1.1363   -1.3284 C   0  0  0  0  0  0  0  0  0  0  0  0
    0.4026   -2.4114   -1.6794 C   0  0  0  0  0  0  0  0  0  0  0  0
   -0.3455   -2.6689   -2.4237 H   0  0  0  0  0  0  0  0  0  0  0  0
    1.1543   -3.2997   -0.9137 N   0  0  0  0  0  0  0  0  0  0  0  0
    1.0813   -4.3139   -0.9394 H   0  0  0  0  0  0  0  0  0  0  0  0
    2.0042   -2.6048   -0.0677 C   0  0  0  0  0  0  0  0  0  0  0  0
    2.9325   -3.0381    0.8793 C   0  0  0  0  0  0  0  0  0  0  0  0
    3.0842   -4.0977    1.0515 H   0  0  0  0  0  0  0  0  0  0  0  0
    3.6620   -2.0861    1.6060 C   0  0  0  0  0  0  0  0  0  0  0  0
    4.3861   -2.4082    2.3482 H   0  0  0  0  0  0  0  0  0  0  0  0
    3.4534   -0.7165    1.3801 C   0  0  0  0  0  0  0  0  0  0  0  0
    4.0137    0.0196    1.9482 H   0  0  0  0  0  0  0  0  0  0  0  0
    2.5168   -0.2927    0.4265 C   0  0  0  0  0  0  0  0  0  0  0  0
    2.3450    0.7651    0.2534 H   0  0  0  0  0  0  0  0  0  0  0  0
    1.7981   -1.2499   -0.2967 C   0  0  0  0  0  0  0  0  0  0  0  0
   -1.1406    2.1935   -1.5261 C   0  0  0  0  0  0  0  0  0  0  0  0
   -0.3904    3.1136   -1.2318 O   0  0  0  0  0  0  0  0  0  0  0  0
   -2.1323    2.4222   -2.4666 N   0  0  0  0  0  0  0  0  0  0  0  0
   -2.8088    1.6832   -2.6140 H   0  0  0  0  0  0  0  0  0  0  0  0
   -2.4097    3.7424   -3.0207 C   0  0  0  0  0  0  0  0  0  0  0  0
   -1.5253    4.1372   -3.5320 H   0  0  0  0  0  0  0  0  0  0  0  0
   -3.2279    3.6844   -3.7449 H   0  0  0  0  0  0  0  0  0  0  0  0
   -2.6976    4.4388   -2.2260 H   0  0  0  0  0  0  0  0  0  0  0  0
  1  2  1  0  0  0  0
  2  3  1  0  0  0  0
  2  4  1  0  0  0  0
  2  5  1  0  0  0  0
  5  6  2  0  0  0  0
  5  7  1  0  0  0  0
  7  8  1  0  0  0  0
  7  9  1  0  0  0  0
  9 10  1  0  0  0  0
  9 11  1  0  0  0  0
  9 29  1  0  0  0  0
 11 12  1  0  0  0  0
 11 13  1  0  0  0  0
 11 14  1  0  0  0  0
 14 15  2  0  0  0  0
 14 28  1  0  0  0  0
 15 16  1  0  0  0  0
 15 17  1  0  0  0  0
 17 18  1  0  0  0  0
 17 19  1  0  0  0  0
 19 20  1  0  0  0  0
 19 28  2  0  0  0  0
 20 21  1  0  0  0  0
 20 22  2  0  0  0  0
 22 23  1  0  0  0  0
 22 24  1  0  0  0  0
 24 25  1  0  0  0  0
 24 26  2  0  0  0  0
 26 27  1  0  0  0  0
 26 28  1  0  0  0  0
 29 30  2  0  0  0  0
 29 31  1  0  0  0  0
 31 32  1  0  0  0  0
 31 33  1  0  0  0  0
 33 34  1  0  0  0  0
 33 35  1  0  0  0  0
 33 36  1  0  0  0  0
M  END
$$$$

  -OEChem-01062216103D

 36 37  0     1  0  0  0  0  0999 V2000
   -3.2381   -2.9288    0.4593 H   0  0  0  0  0  0  0  0  0  0  0  0
   -3.2493   -2.1931   -0.3501 C   0  0  0  0  0  0  0  0  0  0  0  0
   -4.2599   -1.7883   -0.4434 H   0  0  0  0  0  0  0  0  0  0  0  0
   -2.9743   -2.6934   -1.2815 H   0  0  0  0  0  0  0  0  0  0  0  0
   -2.2684   -1.0754   -0.0495 C   0  0  0  0  0  0  0  0  0  0  0  0
   -1.7145   -1.0375    1.0341 O   0  0  0  0  0  0  0  0  0  0  0  0
   -2.0763   -0.0709   -0.9790 N   0  0  0  0  0  0  0  0  0  0  0  0
   -2.5055   -0.2517   -1.8796 H   0  0  0  0  0  0  0  0  0  0  0  0
   -0.8658    0.7819   -0.9844 C   0  0  1  0  0  0  0  0  0  0  0  0
   -0.4785    0.9000    0.0341 H   0  0  0  0  0  0  0  0  0  0  0  0
    0.2285    0.1534   -1.8757 C   0  0  0  0  0  0  0  0  0  0  0  0
   -0.1815   -0.0236   -2.8746 H   0  0  0  0  0  0  0  0  0  0  0  0
    1.0643    0.8522   -1.9885 H   0  0  0  0  0  0  0  0  0  0  0  0
    0.7708   -1.1390   -1.3243 C   0  0  0  0  0  0  0  0  0  0  0  0
    0.3925   -2.4141   -1.6720 C   0  0  0  0  0  0  0  0  0  0  0  0
   -0.3553   -2.6711   -2.4169 H   0  0  0  0  0  0  0  0  0  0  0  0
    1.1437   -3.3024   -0.9051 N   0  0  0  0  0  0  0  0  0  0  0  0
    1.0745   -4.3169   -0.9341 H   0  0  0  0  0  0  0  0  0  0  0  0
    1.9970   -2.6077   -0.0621 C   0  0  0  0  0  0  0  0  0  0  0  0
    2.9270   -3.0395    0.8841 C   0  0  0  0  0  0  0  0  0  0  0  0
    3.0768   -4.0986    1.0601 H   0  0  0  0  0  0  0  0  0  0  0  0
    3.6601   -2.0863    1.6059 C   0  0  0  0  0  0  0  0  0  0  0  0
    4.3850   -2.4075    2.3478 H   0  0  0  0  0  0  0  0  0  0  0  0
    3.4545   -0.7171    1.3748 C   0  0  0  0  0  0  0  0  0  0  0  0
    4.0188    0.0195    1.9384 H   0  0  0  0  0  0  0  0  0  0  0  0
    2.5172   -0.2950    0.4214 C   0  0  0  0  0  0  0  0  0  0  0  0
    2.3499    0.7622    0.2416 H   0  0  0  0  0  0  0  0  0  0  0  0
    1.7931   -1.2531   -0.2948 C   0  0  0  0  0  0  0  0  0  0  0  0
   -1.1470    2.1998   -1.5271 C   0  0  0  0  0  0  0  0  0  0  0  0
   -0.2884    3.0683   -1.4537 O   0  0  0  0  0  0  0  0  0  0  0  0
   -2.3132    2.4755   -2.2215 N   0  0  0  0  0  0  0  0  0  0  0  0
   -3.0687    1.8087   -2.1078 H   0  0  0  0  0  0  0  0  0  0  0  0
   -2.6320    3.8042   -2.7313 C   0  0  0  0  0  0  0  0  0  0  0  0
   -1.8580    4.1445   -3.4273 H   0  0  0  0  0  0  0  0  0  0  0  0
   -3.5878    3.7857   -3.2638 H   0  0  0  0  0  0  0  0  0  0  0  0
   -2.7059    4.5230   -1.9085 H   0  0  0  0  0  0  0  0  0  0  0  0
  1  2  1  0  0  0  0
  2  3  1  0  0  0  0
  2  4  1  0  0  0  0
  2  5  1  0  0  0  0
  5  6  2  0  0  0  0
  5  7  1  0  0  0  0
  7  8  1  0  0  0  0
  7  9  1  0  0  0  0
  9 10  1  0  0  0  0
  9 11  1  0  0  0  0
  9 29  1  0  0  0  0
 11 12  1  0  0  0  0
 11 13  1  0  0  0  0
 11 14  1  0  0  0  0
 14 15  2  0  0  0  0
 14 28  1  0  0  0  0
 15 16  1  0  0  0  0
 15 17  1  0  0  0  0
 17 18  1  0  0  0  0
 17 19  1  0  0  0  0
 19 20  1  0  0  0  0
 19 28  2  0  0  0  0
 20 21  1  0  0  0  0
 20 22  2  0  0  0  0
 22 23  1  0  0  0  0
 22 24  1  0  0  0  0
 24 25  1  0  0  0  0
 24 26  2  0  0  0  0
 26 27  1  0  0  0  0
 26 28  1  0  0  0  0
 29 30  2  0  0  0  0
 29 31  1  0  0  0  0
 31 32  1  0  0  0  0
 31 33  1  0  0  0  0
 33 34  1  0  0  0  0
 33 35  1  0  0  0  0
 33 36  1  0  0  0  0
M  END
$$$$

  -OEChem-01062216103D

 36 37  0     1  0  0  0  0  0999 V2000
   -3.2237   -2.9267    0.4324 H   0  0  0  0  0  0  0  0  0  0  0  0
   -3.2358   -2.1863   -0.3724 C   0  0  0  0  0  0  0  0  0  0  0  0
   -4.2471   -1.7837   -0.4654 H   0  0  0  0  0  0  0  0  0  0  0  0
   -2.9584   -2.6804   -1.3062 H   0  0  0  0  0  0  0  0  0  0  0  0
   -2.2574   -1.0688   -0.0641 C   0  0  0  0  0  0  0  0  0  0  0  0
   -1.7107   -1.0290    1.0232 O   0  0  0  0  0  0  0  0  0  0  0  0
   -2.0629   -0.0600   -0.9879 N   0  0  0  0  0  0  0  0  0  0  0  0
   -2.5032   -0.2222   -1.8876 H   0  0  0  0  0  0  0  0  0  0  0  0
   -0.8506    0.7900   -0.9946 C   0  0  1  0  0  0  0  0  0  0  0  0
   -0.4617    0.9098    0.0228 H   0  0  0  0  0  0  0  0  0  0  0  0
    0.2414    0.1512   -1.8845 C   0  0  0  0  0  0  0  0  0  0  0  0
   -0.1701   -0.0263   -2.8827 H   0  0  0  0  0  0  0  0  0  0  0  0
    1.0833    0.8414   -2.0021 H   0  0  0  0  0  0  0  0  0  0  0  0
    0.7774   -1.1419   -1.3274 C   0  0  0  0  0  0  0  0  0  0  0  0
    0.3922   -2.4167   -1.6698 C   0  0  0  0  0  0  0  0  0  0  0  0
   -0.3552   -2.6737   -2.4155 H   0  0  0  0  0  0  0  0  0  0  0  0
    1.1357   -3.3055   -0.8964 N   0  0  0  0  0  0  0  0  0  0  0  0
    1.0598   -4.3196   -0.9203 H   0  0  0  0  0  0  0  0  0  0  0  0
    1.9909   -2.6115   -0.0551 C   0  0  0  0  0  0  0  0  0  0  0  0
    2.9170   -3.0444    0.8943 C   0  0  0  0  0  0  0  0  0  0  0  0
    3.0614   -4.1034    1.0747 H   0  0  0  0  0  0  0  0  0  0  0  0
    3.6542   -2.0925    1.6133 C   0  0  0  0  0  0  0  0  0  0  0  0
    4.3769   -2.4142    2.3569 H   0  0  0  0  0  0  0  0  0  0  0  0
    3.4559   -0.7234    1.3774 C   0  0  0  0  0  0  0  0  0  0  0  0
    4.0242    0.0117    1.9386 H   0  0  0  0  0  0  0  0  0  0  0  0
    2.5218   -0.3000    0.4212 C   0  0  0  0  0  0  0  0  0  0  0  0
    2.3597    0.7574    0.2375 H   0  0  0  0  0  0  0  0  0  0  0  0
    1.7952   -1.2569   -0.2938 C   0  0  0  0  0  0  0  0  0  0  0  0
   -1.1499    2.2077   -1.5335 C   0  0  0  0  0  0  0  0  0  0  0  0
   -0.2510    3.0234   -1.6900 O   0  0  0  0  0  0  0  0  0  0  0  0
   -2.4310    2.5465   -1.9353 N   0  0  0  0  0  0  0  0  0  0  0  0
   -3.1709    1.9281   -1.6175 H   0  0  0  0  0  0  0  0  0  0  0  0
   -2.7905    3.8841   -2.3912 C   0  0  0  0  0  0  0  0  0  0  0  0
   -2.1868    4.1696   -3.2592 H   0  0  0  0  0  0  0  0  0  0  0  0
   -3.8448    3.9133   -2.6826 H   0  0  0  0  0  0  0  0  0  0  0  0
   -2.6294    4.6169   -1.5935 H   0  0  0  0  0  0  0  0  0  0  0  0
  1  2  1  0  0  0  0
  2  3  1  0  0  0  0
  2  4  1  0  0  0  0
  2  5  1  0  0  0  0
  5  6  2  0  0  0  0
  5  7  1  0  0  0  0
  7  8  1  0  0  0  0
  7  9  1  0  0  0  0
  9 10  1  0  0  0  0
  9 11  1  0  0  0  0
  9 29  1  0  0  0  0
 11 12  1  0  0  0  0
 11 13  1  0  0  0  0
 11 14  1  0  0  0  0
 14 15  2  0  0  0  0
 14 28  1  0  0  0  0
 15 16  1  0  0  0  0
 15 17  1  0  0  0  0
 17 18  1  0  0  0  0
 17 19  1  0  0  0  0
 19 20  1  0  0  0  0
 19 28  2  0  0  0  0
 20 21  1  0  0  0  0
 20 22  2  0  0  0  0
 22 23  1  0  0  0  0
 22 24  1  0  0  0  0
 24 25  1  0  0  0  0
 24 26  2  0  0  0  0
 26 27  1  0  0  0  0
 26 28  1  0  0  0  0
 29 30  2  0  0  0  0
 29 31  1  0  0  0  0
 31 32  1  0  0  0  0
 31 33  1  0  0  0  0
 33 34  1  0  0  0  0
 33 35  1  0  0  0  0
 33 36  1  0  0  0  0
M  END
$$$$

  -OEChem-01062216103D

 36 37  0     1  0  0  0  0  0999 V2000
   -3.2475   -2.9208    0.3977 H   0  0  0  0  0  0  0  0  0  0  0  0
   -3.2597   -2.1686   -0.3964 C   0  0  0  0  0  0  0  0  0  0  0  0
   -4.2661   -1.7496   -0.4692 H   0  0  0  0  0  0  0  0  0  0  0  0
   -3.0026   -2.6530   -1.3411 H   0  0  0  0  0  0  0  0  0  0  0  0
   -2.2607   -1.0702   -0.0851 C   0  0  0  0  0  0  0  0  0  0  0  0
   -1.7112   -1.0455    1.0011 O   0  0  0  0  0  0  0  0  0  0  0  0
   -2.0570   -0.0534   -0.9974 N   0  0  0  0  0  0  0  0  0  0  0  0
   -2.5169   -0.1845   -1.8928 H   0  0  0  0  0  0  0  0  0  0  0  0
   -0.8439    0.7953   -0.9983 C   0  0  1  0  0  0  0  0  0  0  0  0
   -0.4602    0.9129    0.0214 H   0  0  0  0  0  0  0  0  0  0  0  0
    0.2542    0.1531   -1.8803 C   0  0  0  0  0  0  0  0  0  0  0  0
   -0.1507   -0.0253   -2.8812 H   0  0  0  0  0  0  0  0  0  0  0  0
    1.0995    0.8401   -1.9914 H   0  0  0  0  0  0  0  0  0  0  0  0
    0.7863   -1.1392   -1.3178 C   0  0  0  0  0  0  0  0  0  0  0  0
    0.4001   -2.4126   -1.6625 C   0  0  0  0  0  0  0  0  0  0  0  0
   -0.3472   -2.6671   -2.4090 H   0  0  0  0  0  0  0  0  0  0  0  0
    1.1408   -3.3033   -0.8884 N   0  0  0  0  0  0  0  0  0  0  0  0
    1.0609   -4.3171   -0.9118 H   0  0  0  0  0  0  0  0  0  0  0  0
    1.9984   -2.6120   -0.0473 C   0  0  0  0  0  0  0  0  0  0  0  0
    2.9238   -3.0489    0.9012 C   0  0  0  0  0  0  0  0  0  0  0  0
    3.0635   -4.1090    1.0809 H   0  0  0  0  0  0  0  0  0  0  0  0
    3.6668   -2.1002    1.6185 C   0  0  0  0  0  0  0  0  0  0  0  0
    4.3890   -2.4253    2.3614 H   0  0  0  0  0  0  0  0  0  0  0  0
    3.4762   -0.7303    1.3796 C   0  0  0  0  0  0  0  0  0  0  0  0
    4.0508    0.0032    1.9368 H   0  0  0  0  0  0  0  0  0  0  0  0
    2.5427   -0.3031    0.4244 C   0  0  0  0  0  0  0  0  0  0  0  0
    2.3888    0.7548    0.2370 H   0  0  0  0  0  0  0  0  0  0  0  0
    1.8074   -1.2567   -0.2865 C   0  0  0  0  0  0  0  0  0  0  0  0
   -1.1607    2.2139   -1.5303 C   0  0  0  0  0  0  0  0  0  0  0  0
   -0.2776    2.9655   -1.9222 O   0  0  0  0  0  0  0  0  0  0  0  0
   -2.4759    2.6346   -1.6287 N   0  0  0  0  0  0  0  0  0  0  0  0
   -3.1626    2.0598   -1.1485 H   0  0  0  0  0  0  0  0  0  0  0  0
   -2.8547    3.9796   -2.0452 C   0  0  0  0  0  0  0  0  0  0  0  0
   -2.4589    4.1989   -3.0426 H   0  0  0  0  0  0  0  0  0  0  0  0
   -3.9445    4.0710   -2.0806 H   0  0  0  0  0  0  0  0  0  0  0  0
   -2.4655    4.7228   -1.3414 H   0  0  0  0  0  0  0  0  0  0  0  0
  1  2  1  0  0  0  0
  2  3  1  0  0  0  0
  2  4  1  0  0  0  0
  2  5  1  0  0  0  0
  5  6  2  0  0  0  0
  5  7  1  0  0  0  0
  7  8  1  0  0  0  0
  7  9  1  0  0  0  0
  9 10  1  0  0  0  0
  9 11  1  0  0  0  0
  9 29  1  0  0  0  0
 11 12  1  0  0  0  0
 11 13  1  0  0  0  0
 11 14  1  0  0  0  0
 14 15  2  0  0  0  0
 14 28  1  0  0  0  0
 15 16  1  0  0  0  0
 15 17  1  0  0  0  0
 17 18  1  0  0  0  0
 17 19  1  0  0  0  0
 19 20  1  0  0  0  0
 19 28  2  0  0  0  0
 20 21  1  0  0  0  0
 20 22  2  0  0  0  0
 22 23  1  0  0  0  0
 22 24  1  0  0  0  0
 24 25  1  0  0  0  0
 24 26  2  0  0  0  0
 26 27  1  0  0  0  0
 26 28  1  0  0  0  0
 29 30  2  0  0  0  0
 29 31  1  0  0  0  0
 31 32  1  0  0  0  0
 31 33  1  0  0  0  0
 33 34  1  0  0  0  0
 33 35  1  0  0  0  0
 33 36  1  0  0  0  0
M  END
$$$$

  -OEChem-01062216103D

 36 37  0     1  0  0  0  0  0999 V2000
   -3.2650   -2.9015    0.3785 H   0  0  0  0  0  0  0  0  0  0  0  0
   -3.2693   -2.1437   -0.4104 C   0  0  0  0  0  0  0  0  0  0  0  0
   -4.2691   -1.7080   -0.4757 H   0  0  0  0  0  0  0  0  0  0  0  0
   -3.0243   -2.6253   -1.3596 H   0  0  0  0  0  0  0  0  0  0  0  0
   -2.2523   -1.0624   -0.0981 C   0  0  0  0  0  0  0  0  0  0  0  0
   -1.6944   -1.0513    0.9843 O   0  0  0  0  0  0  0  0  0  0  0  0
   -2.0443   -0.0389   -1.0014 N   0  0  0  0  0  0  0  0  0  0  0  0
   -2.5273   -0.1396   -1.8889 H   0  0  0  0  0  0  0  0  0  0  0  0
   -0.8286    0.8043   -1.0023 C   0  0  1  0  0  0  0  0  0  0  0  0
   -0.4440    0.9209    0.0169 H   0  0  0  0  0  0  0  0  0  0  0  0
    0.2705    0.1589   -1.8818 C   0  0  0  0  0  0  0  0  0  0  0  0
   -0.1317   -0.0192   -2.8838 H   0  0  0  0  0  0  0  0  0  0  0  0
    1.1176    0.8443   -1.9896 H   0  0  0  0  0  0  0  0  0  0  0  0
    0.7976   -1.1342   -1.3163 C   0  0  0  0  0  0  0  0  0  0  0  0
    0.4064   -2.4056   -1.6630 C   0  0  0  0  0  0  0  0  0  0  0  0
   -0.3400   -2.6546   -2.4124 H   0  0  0  0  0  0  0  0  0  0  0  0
    1.1390   -3.3005   -0.8863 N   0  0  0  0  0  0  0  0  0  0  0  0
    1.0538   -4.3138   -0.9103 H   0  0  0  0  0  0  0  0  0  0  0  0
    1.9978   -2.6137   -0.0427 C   0  0  0  0  0  0  0  0  0  0  0  0
    2.9183   -3.0556    0.9080 C   0  0  0  0  0  0  0  0  0  0  0  0
    3.0504   -4.1162    1.0895 H   0  0  0  0  0  0  0  0  0  0  0  0
    3.6673   -2.1113    1.6247 C   0  0  0  0  0  0  0  0  0  0  0  0
    4.3872   -2.4412    2.3675 H   0  0  0  0  0  0  0  0  0  0  0  0
    3.4860   -0.7403    1.3850 C   0  0  0  0  0  0  0  0  0  0  0  0
    4.0651   -0.0108    1.9427 H   0  0  0  0  0  0  0  0  0  0  0  0
    2.5561   -0.3078    0.4287 C   0  0  0  0  0  0  0  0  0  0  0  0
    2.4096    0.7510    0.2414 H   0  0  0  0  0  0  0  0  0  0  0  0
    1.8156   -1.2571   -0.2828 C   0  0  0  0  0  0  0  0  0  0  0  0
   -1.1644    2.2220   -1.5254 C   0  0  0  0  0  0  0  0  0  0  0  0
   -0.3619    2.8922   -2.1623 O   0  0  0  0  0  0  0  0  0  0  0  0
   -2.4327    2.7352   -1.3178 N   0  0  0  0  0  0  0  0  0  0  0  0
   -3.0369    2.2026   -0.6974 H   0  0  0  0  0  0  0  0  0  0  0  0
   -2.8307    4.0820   -1.7088 C   0  0  0  0  0  0  0  0  0  0  0  0
   -2.6996    4.2234   -2.7867 H   0  0  0  0  0  0  0  0  0  0  0  0
   -3.8841    4.2504   -1.4658 H   0  0  0  0  0  0  0  0  0  0  0  0
   -2.2286    4.8279   -1.1794 H   0  0  0  0  0  0  0  0  0  0  0  0
  1  2  1  0  0  0  0
  2  3  1  0  0  0  0
  2  4  1  0  0  0  0
  2  5  1  0  0  0  0
  5  6  2  0  0  0  0
  5  7  1  0  0  0  0
  7  8  1  0  0  0  0
  7  9  1  0  0  0  0
  9 10  1  0  0  0  0
  9 11  1  0  0  0  0
  9 29  1  0  0  0  0
 11 12  1  0  0  0  0
 11 13  1  0  0  0  0
 11 14  1  0  0  0  0
 14 15  2  0  0  0  0
 14 28  1  0  0  0  0
 15 16  1  0  0  0  0
 15 17  1  0  0  0  0
 17 18  1  0  0  0  0
 17 19  1  0  0  0  0
 19 20  1  0  0  0  0
 19 28  2  0  0  0  0
 20 21  1  0  0  0  0
 20 22  2  0  0  0  0
 22 23  1  0  0  0  0
 22 24  1  0  0  0  0
 24 25  1  0  0  0  0
 24 26  2  0  0  0  0
 26 27  1  0  0  0  0
 26 28  1  0  0  0  0
 29 30  2  0  0  0  0
 29 31  1  0  0  0  0
 31 32  1  0  0  0  0
 31 33  1  0  0  0  0
 33 34  1  0  0  0  0
 33 35  1  0  0  0  0
 33 36  1  0  0  0  0
M  END
$$$$

  -OEChem-01062216103D

 36 37  0     1  0  0  0  0  0999 V2000
   -3.2687   -2.8842    0.3776 H   0  0  0  0  0  0  0  0  0  0  0  0
   -3.2672   -2.1275   -0.4123 C   0  0  0  0  0  0  0  0  0  0  0  0
   -4.2644   -1.6864   -0.4806 H   0  0  0  0  0  0  0  0  0  0  0  0
   -3.0225   -2.6120   -1.3604 H   0  0  0  0  0  0  0  0  0  0  0  0
   -2.2449   -1.0517   -0.0985 C   0  0  0  0  0  0  0  0  0  0  0  0
   -1.6798   -1.0498    0.9804 O   0  0  0  0  0  0  0  0  0  0  0  0
   -2.0363   -0.0235   -0.9956 N   0  0  0  0  0  0  0  0  0  0  0  0
   -2.5335   -0.1070   -1.8771 H   0  0  0  0  0  0  0  0  0  0  0  0
   -0.8172    0.8118   -0.9988 C   0  0  1  0  0  0  0  0  0  0  0  0
   -0.4278    0.9223    0.0193 H   0  0  0  0  0  0  0  0  0  0  0  0
    0.2800    0.1679   -1.8808 C   0  0  0  0  0  0  0  0  0  0  0  0
   -0.1231   -0.0066   -2.8834 H   0  0  0  0  0  0  0  0  0  0  0  0
    1.1259    0.8554   -1.9861 H   0  0  0  0  0  0  0  0  0  0  0  0
    0.8050   -1.1278   -1.3194 C   0  0  0  0  0  0  0  0  0  0  0  0
    0.4103   -2.3966   -1.6710 C   0  0  0  0  0  0  0  0  0  0  0  0
   -0.3357   -2.6406   -2.4225 H   0  0  0  0  0  0  0  0  0  0  0  0
    1.1382   -3.2963   -0.8958 N   0  0  0  0  0  0  0  0  0  0  0  0
    1.0498   -4.3093   -0.9242 H   0  0  0  0  0  0  0  0  0  0  0  0
    1.9965   -2.6149   -0.0470 C   0  0  0  0  0  0  0  0  0  0  0  0
    2.9130   -3.0628    0.9050 C   0  0  0  0  0  0  0  0  0  0  0  0
    3.0429   -4.1246    1.0819 H   0  0  0  0  0  0  0  0  0  0  0  0
    3.6613   -2.1227    1.6282 C   0  0  0  0  0  0  0  0  0  0  0  0
    4.3787   -2.4571    2.3716 H   0  0  0  0  0  0  0  0  0  0  0  0
    3.4827   -0.7503    1.3946 C   0  0  0  0  0  0  0  0  0  0  0  0
    4.0603   -0.0244    1.9585 H   0  0  0  0  0  0  0  0  0  0  0  0
    2.5572   -0.3120    0.4367 C   0  0  0  0  0  0  0  0  0  0  0  0
    2.4123    0.7475    0.2542 H   0  0  0  0  0  0  0  0  0  0  0  0
    1.8186   -1.2569   -0.2824 C   0  0  0  0  0  0  0  0  0  0  0  0
   -1.1614    2.2300   -1.5114 C   0  0  0  0  0  0  0  0  0  0  0  0
   -0.5048    2.7974   -2.3756 O   0  0  0  0  0  0  0  0  0  0  0  0
   -2.2962    2.8559   -1.0283 N   0  0  0  0  0  0  0  0  0  0  0  0
   -2.7994    2.3782   -0.2849 H   0  0  0  0  0  0  0  0  0  0  0  0
   -2.7080    4.1988   -1.4179 C   0  0  0  0  0  0  0  0  0  0  0  0
   -2.8725    4.2506   -2.4994 H   0  0  0  0  0  0  0  0  0  0  0  0
   -3.6407    4.4693   -0.9137 H   0  0  0  0  0  0  0  0  0  0  0  0
   -1.9406    4.9297   -1.1423 H   0  0  0  0  0  0  0  0  0  0  0  0
  1  2  1  0  0  0  0
  2  3  1  0  0  0  0
  2  4  1  0  0  0  0
  2  5  1  0  0  0  0
  5  6  2  0  0  0  0
  5  7  1  0  0  0  0
  7  8  1  0  0  0  0
  7  9  1  0  0  0  0
  9 10  1  0  0  0  0
  9 11  1  0  0  0  0
  9 29  1  0  0  0  0
 11 12  1  0  0  0  0
 11 13  1  0  0  0  0
 11 14  1  0  0  0  0
 14 15  2  0  0  0  0
 14 28  1  0  0  0  0
 15 16  1  0  0  0  0
 15 17  1  0  0  0  0
 17 18  1  0  0  0  0
 17 19  1  0  0  0  0
 19 20  1  0  0  0  0
 19 28  2  0  0  0  0
 20 21  1  0  0  0  0
 20 22  2  0  0  0  0
 22 23  1  0  0  0  0
 22 24  1  0  0  0  0
 24 25  1  0  0  0  0
 24 26  2  0  0  0  0
 26 27  1  0  0  0  0
 26 28  1  0  0  0  0
 29 30  2  0  0  0  0
 29 31  1  0  0  0  0
 31 32  1  0  0  0  0
 31 33  1  0  0  0  0
 33 34  1  0  0  0  0
 33 35  1  0  0  0  0
 33 36  1  0  0  0  0
M  END
$$$$

  -OEChem-01062216103D

 36 37  0     1  0  0  0  0  0999 V2000
   -3.2997   -2.8618    0.3784 H   0  0  0  0  0  0  0  0  0  0  0  0
   -3.2906   -2.1027   -0.4090 C   0  0  0  0  0  0  0  0  0  0  0  0
   -4.2804   -1.6439   -0.4684 H   0  0  0  0  0  0  0  0  0  0  0  0
   -3.0619   -2.5878   -1.3606 H   0  0  0  0  0  0  0  0  0  0  0  0
   -2.2474   -1.0460   -0.0991 C   0  0  0  0  0  0  0  0  0  0  0  0
   -1.6752   -1.0578    0.9765 O   0  0  0  0  0  0  0  0  0  0  0  0
   -2.0309   -0.0143   -0.9900 N   0  0  0  0  0  0  0  0  0  0  0  0
   -2.5364   -0.0800   -1.8686 H   0  0  0  0  0  0  0  0  0  0  0  0
   -0.8101    0.8158   -0.9879 C   0  0  1  0  0  0  0  0  0  0  0  0
   -0.4214    0.9207    0.0307 H   0  0  0  0  0  0  0  0  0  0  0  0
    0.2910    0.1788   -1.8689 C   0  0  0  0  0  0  0  0  0  0  0  0
   -0.1097    0.0049   -2.8727 H   0  0  0  0  0  0  0  0  0  0  0  0
    1.1323    0.8724   -1.9710 H   0  0  0  0  0  0  0  0  0  0  0  0
    0.8155   -1.1194   -1.3138 C   0  0  0  0  0  0  0  0  0  0  0  0
    0.4221   -2.3851   -1.6768 C   0  0  0  0  0  0  0  0  0  0  0  0
   -0.3221   -2.6223   -2.4322 H   0  0  0  0  0  0  0  0  0  0  0  0
    1.1491   -3.2911   -0.9078 N   0  0  0  0  0  0  0  0  0  0  0  0
    1.0610   -4.3038   -0.9450 H   0  0  0  0  0  0  0  0  0  0  0  0
    2.0059   -2.6164   -0.0525 C   0  0  0  0  0  0  0  0  0  0  0  0
    2.9208   -3.0725    0.8965 C   0  0  0  0  0  0  0  0  0  0  0  0
    3.0489   -4.1356    1.0647 H   0  0  0  0  0  0  0  0  0  0  0  0
    3.6691   -2.1392    1.6281 C   0  0  0  0  0  0  0  0  0  0  0  0
    4.3852   -2.4805    2.3696 H   0  0  0  0  0  0  0  0  0  0  0  0
    3.4924   -0.7648    1.4048 C   0  0  0  0  0  0  0  0  0  0  0  0
    4.0710   -0.0437    1.9741 H   0  0  0  0  0  0  0  0  0  0  0  0
    2.5681   -0.3182    0.4494 C   0  0  0  0  0  0  0  0  0  0  0  0
    2.4256    0.7427    0.2738 H   0  0  0  0  0  0  0  0  0  0  0  0
    1.8285   -1.2565   -0.2771 C   0  0  0  0  0  0  0  0  0  0  0  0
   -1.1538    2.2341   -1.4948 C   0  0  0  0  0  0  0  0  0  0  0  0
   -0.6899    2.6931   -2.5314 O   0  0  0  0  0  0  0  0  0  0  0  0
   -2.0870    2.9794   -0.7983 N   0  0  0  0  0  0  0  0  0  0  0  0
   -2.4694    2.5648    0.0482 H   0  0  0  0  0  0  0  0  0  0  0  0
   -2.5131    4.3161   -1.1933 C   0  0  0  0  0  0  0  0  0  0  0  0
   -2.9586    4.2966   -2.1934 H   0  0  0  0  0  0  0  0  0  0  0  0
   -3.2593    4.6983   -0.4904 H   0  0  0  0  0  0  0  0  0  0  0  0
   -1.6605    5.0033   -1.2002 H   0  0  0  0  0  0  0  0  0  0  0  0
  1  2  1  0  0  0  0
  2  3  1  0  0  0  0
  2  4  1  0  0  0  0
  2  5  1  0  0  0  0
  5  6  2  0  0  0  0
  5  7  1  0  0  0  0
  7  8  1  0  0  0  0
  7  9  1  0  0  0  0
  9 10  1  0  0  0  0
  9 11  1  0  0  0  0
  9 29  1  0  0  0  0
 11 12  1  0  0  0  0
 11 13  1  0  0  0  0
 11 14  1  0  0  0  0
 14 15  2  0  0  0  0
 14 28  1  0  0  0  0
 15 16  1  0  0  0  0
 15 17  1  0  0  0  0
 17 18  1  0  0  0  0
 17 19  1  0  0  0  0
 19 20  1  0  0  0  0
 19 28  2  0  0  0  0
 20 21  1  0  0  0  0
 20 22  2  0  0  0  0
 22 23  1  0  0  0  0
 22 24  1  0  0  0  0
 24 25  1  0  0  0  0
 24 26  2  0  0  0  0
 26 27  1  0  0  0  0
 26 28  1  0  0  0  0
 29 30  2  0  0  0  0
 29 31  1  0  0  0  0
 31 32  1  0  0  0  0
 31 33  1  0  0  0  0
 33 34  1  0  0  0  0
 33 35  1  0  0  0  0
 33 36  1  0  0  0  0
M  END
$$$$

  -OEChem-01062216103D

 36 37  0     1  0  0  0  0  0999 V2000
   -3.3180   -2.8534    0.3752 H   0  0  0  0  0  0  0  0  0  0  0  0
   -3.3069   -2.0877   -0.4056 C   0  0  0  0  0  0  0  0  0  0  0  0
   -4.2929   -1.6195   -0.4537 H   0  0  0  0  0  0  0  0  0  0  0  0
   -3.0898   -2.5665   -1.3631 H   0  0  0  0  0  0  0  0  0  0  0  0
   -2.2511   -1.0439   -0.0941 C   0  0  0  0  0  0  0  0  0  0  0  0
   -1.6690   -1.0728    0.9762 O   0  0  0  0  0  0  0  0  0  0  0  0
   -2.0266   -0.0109   -0.9811 N   0  0  0  0  0  0  0  0  0  0  0  0
   -2.5391   -0.0603   -1.8568 H   0  0  0  0  0  0  0  0  0  0  0  0
   -0.8068    0.8180   -0.9729 C   0  0  1  0  0  0  0  0  0  0  0  0
   -0.4188    0.9172    0.0464 H   0  0  0  0  0  0  0  0  0  0  0  0
    0.2963    0.1888   -1.8554 C   0  0  0  0  0  0  0  0  0  0  0  0
   -0.1034    0.0173   -2.8602 H   0  0  0  0  0  0  0  0  0  0  0  0
    1.1335    0.8876   -1.9548 H   0  0  0  0  0  0  0  0  0  0  0  0
    0.8214   -1.1121   -1.3069 C   0  0  0  0  0  0  0  0  0  0  0  0
    0.4288   -2.3753   -1.6796 C   0  0  0  0  0  0  0  0  0  0  0  0
   -0.3170   -2.6069   -2.4353 H   0  0  0  0  0  0  0  0  0  0  0  0
    1.1573   -3.2867   -0.9187 N   0  0  0  0  0  0  0  0  0  0  0  0
    1.0682   -4.2989   -0.9629 H   0  0  0  0  0  0  0  0  0  0  0  0
    2.0143   -2.6184   -0.0587 C   0  0  0  0  0  0  0  0  0  0  0  0
    2.9303   -3.0822    0.8858 C   0  0  0  0  0  0  0  0  0  0  0  0
    3.0596   -4.1469    1.0444 H   0  0  0  0  0  0  0  0  0  0  0  0
    3.6778   -2.1550    1.6259 C   0  0  0  0  0  0  0  0  0  0  0  0
    4.3931   -2.5024    2.3653 H   0  0  0  0  0  0  0  0  0  0  0  0
    3.5014   -0.7790    1.4132 C   0  0  0  0  0  0  0  0  0  0  0  0
    4.0810   -0.0630    1.9877 H   0  0  0  0  0  0  0  0  0  0  0  0
    2.5768   -0.3246    0.4615 C   0  0  0  0  0  0  0  0  0  0  0  0
    2.4356    0.7376    0.2936 H   0  0  0  0  0  0  0  0  0  0  0  0
    1.8358   -1.2566   -0.2720 C   0  0  0  0  0  0  0  0  0  0  0  0
   -1.1443    2.2359   -1.4795 C   0  0  0  0  0  0  0  0  0  0  0  0
   -0.9078    2.5873   -2.6292 O   0  0  0  0  0  0  0  0  0  0  0  0
   -1.8241    3.1021   -0.6437 N   0  0  0  0  0  0  0  0  0  0  0  0
   -2.0682    2.7582    0.2820 H   0  0  0  0  0  0  0  0  0  0  0  0
   -2.2504    4.4381   -1.0414 C   0  0  0  0  0  0  0  0  0  0  0  0
   -2.9424    4.3836   -1.8882 H   0  0  0  0  0  0  0  0  0  0  0  0
   -2.7590    4.9364   -0.2106 H   0  0  0  0  0  0  0  0  0  0  0  0
   -1.3862    5.0450   -1.3311 H   0  0  0  0  0  0  0  0  0  0  0  0
  1  2  1  0  0  0  0
  2  3  1  0  0  0  0
  2  4  1  0  0  0  0
  2  5  1  0  0  0  0
  5  6  2  0  0  0  0
  5  7  1  0  0  0  0
  7  8  1  0  0  0  0
  7  9  1  0  0  0  0
  9 10  1  0  0  0  0
  9 11  1  0  0  0  0
  9 29  1  0  0  0  0
 11 12  1  0  0  0  0
 11 13  1  0  0  0  0
 11 14  1  0  0  0  0
 14 15  2  0  0  0  0
 14 28  1  0  0  0  0
 15 16  1  0  0  0  0
 15 17  1  0  0  0  0
 17 18  1  0  0  0  0
 17 19  1  0  0  0  0
 19 20  1  0  0  0  0
 19 28  2  0  0  0  0
 20 21  1  0  0  0  0
 20 22  2  0  0  0  0
 22 23  1  0  0  0  0
 22 24  1  0  0  0  0
 24 25  1  0  0  0  0
 24 26  2  0  0  0  0
 26 27  1  0  0  0  0
 26 28  1  0  0  0  0
 29 30  2  0  0  0  0
 29 31  1  0  0  0  0
 31 32  1  0  0  0  0
 31 33  1  0  0  0  0
 33 34  1  0  0  0  0
 33 35  1  0  0  0  0
 33 36  1  0  0  0  0
M  END
$$$$

  -OEChem-01062216103D

 36 37  0     1  0  0  0  0  0999 V2000
   -3.3354   -2.8515    0.3681 H   0  0  0  0  0  0  0  0  0  0  0  0
   -3.3301   -2.0732   -0.4002 C   0  0  0  0  0  0  0  0  0  0  0  0
   -4.3143   -1.5997   -0.4298 H   0  0  0  0  0  0  0  0  0  0  0  0
   -3.1261   -2.5374   -1.3678 H   0  0  0  0  0  0  0  0  0  0  0  0
   -2.2658   -1.0393   -0.0848 C   0  0  0  0  0  0  0  0  0  0  0  0
   -1.6811   -1.0782    0.9841 O   0  0  0  0  0  0  0  0  0  0  0  0
   -2.0270   -0.0099   -0.9719 N   0  0  0  0  0  0  0  0  0  0  0  0
   -2.5477   -0.0391   -1.8440 H   0  0  0  0  0  0  0  0  0  0  0  0
   -0.8074    0.8169   -0.9554 C   0  0  1  0  0  0  0  0  0  0  0  0
   -0.4250    0.9128    0.0665 H   0  0  0  0  0  0  0  0  0  0  0  0
    0.3002    0.1956   -1.8362 C   0  0  0  0  0  0  0  0  0  0  0  0
   -0.0945    0.0285   -2.8436 H   0  0  0  0  0  0  0  0  0  0  0  0
    1.1353    0.8976   -1.9287 H   0  0  0  0  0  0  0  0  0  0  0  0
    0.8269   -1.1083   -1.2963 C   0  0  0  0  0  0  0  0  0  0  0  0
    0.4384   -2.3691   -1.6812 C   0  0  0  0  0  0  0  0  0  0  0  0
   -0.3077   -2.5956   -2.4382 H   0  0  0  0  0  0  0  0  0  0  0  0
    1.1730   -3.2854   -0.9323 N   0  0  0  0  0  0  0  0  0  0  0  0
    1.0894   -4.2975   -0.9886 H   0  0  0  0  0  0  0  0  0  0  0  0
    2.0286   -2.6226   -0.0671 C   0  0  0  0  0  0  0  0  0  0  0  0
    2.9480   -3.0932    0.8701 C   0  0  0  0  0  0  0  0  0  0  0  0
    3.0813   -4.1589    1.0166 H   0  0  0  0  0  0  0  0  0  0  0  0
    3.6934   -2.1713    1.6186 C   0  0  0  0  0  0  0  0  0  0  0  0
    4.4127   -2.5240    2.3518 H   0  0  0  0  0  0  0  0  0  0  0  0
    3.5096   -0.7936    1.4229 C   0  0  0  0  0  0  0  0  0  0  0  0
    4.0867   -0.0818    2.0053 H   0  0  0  0  0  0  0  0  0  0  0  0
    2.5811   -0.3325    0.4785 C   0  0  0  0  0  0  0  0  0  0  0  0
    2.4338    0.7308    0.3245 H   0  0  0  0  0  0  0  0  0  0  0  0
    1.8437   -1.2594   -0.2647 C   0  0  0  0  0  0  0  0  0  0  0  0
   -1.1346    2.2323   -1.4713 C   0  0  0  0  0  0  0  0  0  0  0  0
   -1.1437    2.4853   -2.6704 O   0  0  0  0  0  0  0  0  0  0  0  0
   -1.5313    3.2078   -0.5757 N   0  0  0  0  0  0  0  0  0  0  0  0
   -1.6069    2.9383    0.4020 H   0  0  0  0  0  0  0  0  0  0  0  0
   -1.9406    4.5490   -0.9740 C   0  0  0  0  0  0  0  0  0  0  0  0
   -2.8206    4.5049   -1.6242 H   0  0  0  0  0  0  0  0  0  0  0  0
   -2.1919    5.1450   -0.0914 H   0  0  0  0  0  0  0  0  0  0  0  0
   -1.1301    5.0533   -1.5106 H   0  0  0  0  0  0  0  0  0  0  0  0
  1  2  1  0  0  0  0
  2  3  1  0  0  0  0
  2  4  1  0  0  0  0
  2  5  1  0  0  0  0
  5  6  2  0  0  0  0
  5  7  1  0  0  0  0
  7  8  1  0  0  0  0
  7  9  1  0  0  0  0
  9 10  1  0  0  0  0
  9 11  1  0  0  0  0
  9 29  1  0  0  0  0
 11 12  1  0  0  0  0
 11 13  1  0  0  0  0
 11 14  1  0  0  0  0
 14 15  2  0  0  0  0
 14 28  1  0  0  0  0
 15 16  1  0  0  0  0
 15 17  1  0  0  0  0
 17 18  1  0  0  0  0
 17 19  1  0  0  0  0
 19 20  1  0  0  0  0
 19 28  2  0  0  0  0
 20 21  1  0  0  0  0
 20 22  2  0  0  0  0
 22 23  1  0  0  0  0
 22 24  1  0  0  0  0
 24 25  1  0  0  0  0
 24 26  2  0  0  0  0
 26 27  1  0  0  0  0
 26 28  1  0  0  0  0
 29 30  2  0  0  0  0
 29 31  1  0  0  0  0
 31 32  1  0  0  0  0
 31 33  1  0  0  0  0
 33 34  1  0  0  0  0
 33 35  1  0  0  0  0
 33 36  1  0  0  0  0
M  END
$$$$

  -OEChem-01062216103D

 36 37  0     1  0  0  0  0  0999 V2000
   -3.3893   -2.8287    0.3784 H   0  0  0  0  0  0  0  0  0  0  0  0
   -3.3706   -2.0484   -0.3876 C   0  0  0  0  0  0  0  0  0  0  0  0
   -4.3403   -1.5452   -0.4034 H   0  0  0  0  0  0  0  0  0  0  0  0
   -3.1924   -2.5147   -1.3592 H   0  0  0  0  0  0  0  0  0  0  0  0
   -2.2726   -1.0473   -0.0829 C   0  0  0  0  0  0  0  0  0  0  0  0
   -1.6682   -1.1138    0.9737 O   0  0  0  0  0  0  0  0  0  0  0  0
   -2.0200   -0.0195   -0.9675 N   0  0  0  0  0  0  0  0  0  0  0  0
   -2.5630   -0.0133   -1.8270 H   0  0  0  0  0  0  0  0  0  0  0  0
   -0.8031    0.8096   -0.9431 C   0  0  1  0  0  0  0  0  0  0  0  0
   -0.4277    0.9021    0.0816 H   0  0  0  0  0  0  0  0  0  0  0  0
    0.3094    0.2019   -1.8245 C   0  0  0  0  0  0  0  0  0  0  0  0
   -0.0827    0.0411   -2.8340 H   0  0  0  0  0  0  0  0  0  0  0  0
    1.1410    0.9088   -1.9096 H   0  0  0  0  0  0  0  0  0  0  0  0
    0.8402   -1.1035   -1.2932 C   0  0  0  0  0  0  0  0  0  0  0  0
    0.4574   -2.3619   -1.6910 C   0  0  0  0  0  0  0  0  0  0  0  0
   -0.2874   -2.5841   -2.4505 H   0  0  0  0  0  0  0  0  0  0  0  0
    1.1954   -3.2822   -0.9504 N   0  0  0  0  0  0  0  0  0  0  0  0
    1.1130   -4.2940   -1.0137 H   0  0  0  0  0  0  0  0  0  0  0  0
    2.0465   -2.6246   -0.0767 C   0  0  0  0  0  0  0  0  0  0  0  0
    2.9662   -3.1010    0.8577 C   0  0  0  0  0  0  0  0  0  0  0  0
    3.1048   -4.1677    0.9931 H   0  0  0  0  0  0  0  0  0  0  0  0
    3.7051   -2.1835    1.6180 C   0  0  0  0  0  0  0  0  0  0  0  0
    4.4238   -2.5405    2.3494 H   0  0  0  0  0  0  0  0  0  0  0  0
    3.5152   -0.8049    1.4367 C   0  0  0  0  0  0  0  0  0  0  0  0
    4.0865   -0.0968    2.0285 H   0  0  0  0  0  0  0  0  0  0  0  0
    2.5872   -0.3378    0.4949 C   0  0  0  0  0  0  0  0  0  0  0  0
    2.4352    0.7265    0.3527 H   0  0  0  0  0  0  0  0  0  0  0  0
    1.8558   -1.2600   -0.2605 C   0  0  0  0  0  0  0  0  0  0  0  0
   -1.1248    2.2218   -1.4671 C   0  0  0  0  0  0  0  0  0  0  0  0
   -1.3824    2.4010   -2.6520 O   0  0  0  0  0  0  0  0  0  0  0  0
   -1.2269    3.2814   -0.5849 N   0  0  0  0  0  0  0  0  0  0  0  0
   -1.1094    3.0779    0.4041 H   0  0  0  0  0  0  0  0  0  0  0  0
   -1.6112    4.6284   -0.9882 C   0  0  0  0  0  0  0  0  0  0  0  0
   -2.6189    4.6278   -1.4169 H   0  0  0  0  0  0  0  0  0  0  0  0
   -1.6033    5.2981   -0.1228 H   0  0  0  0  0  0  0  0  0  0  0  0
   -0.9103    5.0199   -1.7331 H   0  0  0  0  0  0  0  0  0  0  0  0
  1  2  1  0  0  0  0
  2  3  1  0  0  0  0
  2  4  1  0  0  0  0
  2  5  1  0  0  0  0
  5  6  2  0  0  0  0
  5  7  1  0  0  0  0
  7  8  1  0  0  0  0
  7  9  1  0  0  0  0
  9 10  1  0  0  0  0
  9 11  1  0  0  0  0
  9 29  1  0  0  0  0
 11 12  1  0  0  0  0
 11 13  1  0  0  0  0
 11 14  1  0  0  0  0
 14 15  2  0  0  0  0
 14 28  1  0  0  0  0
 15 16  1  0  0  0  0
 15 17  1  0  0  0  0
 17 18  1  0  0  0  0
 17 19  1  0  0  0  0
 19 20  1  0  0  0  0
 19 28  2  0  0  0  0
 20 21  1  0  0  0  0
 20 22  2  0  0  0  0
 22 23  1  0  0  0  0
 22 24  1  0  0  0  0
 24 25  1  0  0  0  0
 24 26  2  0  0  0  0
 26 27  1  0  0  0  0
 26 28  1  0  0  0  0
 29 30  2  0  0  0  0
 29 31  1  0  0  0  0
 31 32  1  0  0  0  0
 31 33  1  0  0  0  0
 33 34  1  0  0  0  0
 33 35  1  0  0  0  0
 33 36  1  0  0  0  0
M  END
$$$$

  -OEChem-01062216103D

 36 37  0     1  0  0  0  0  0999 V2000
   -3.4567   -2.8028    0.3896 H   0  0  0  0  0  0  0  0  0  0  0  0
   -3.4209   -2.0220   -0.3754 C   0  0  0  0  0  0  0  0  0  0  0  0
   -4.3716   -1.4835   -0.3749 H   0  0  0  0  0  0  0  0  0  0  0  0
   -3.2753   -2.4922   -1.3506 H   0  0  0  0  0  0  0  0  0  0  0  0
   -2.2815   -1.0633   -0.0865 C   0  0  0  0  0  0  0  0  0  0  0  0
   -1.6541   -1.1653    0.9538 O   0  0  0  0  0  0  0  0  0  0  0  0
   -2.0137   -0.0361   -0.9672 N   0  0  0  0  0  0  0  0  0  0  0  0
   -2.5886    0.0193   -1.8046 H   0  0  0  0  0  0  0  0  0  0  0  0
   -0.8012    0.7986   -0.9345 C   0  0  1  0  0  0  0  0  0  0  0  0
   -0.4354    0.8917    0.0935 H   0  0  0  0  0  0  0  0  0  0  0  0
    0.3176    0.2051   -1.8152 C   0  0  0  0  0  0  0  0  0  0  0  0
   -0.0701    0.0503   -2.8274 H   0  0  0  0  0  0  0  0  0  0  0  0
    1.1455    0.9174   -1.8913 H   0  0  0  0  0  0  0  0  0  0  0  0
    0.8547   -1.1000   -1.2907 C   0  0  0  0  0  0  0  0  0  0  0  0
    0.4800   -2.3572   -1.6999 C   0  0  0  0  0  0  0  0  0  0  0  0
   -0.2635   -2.5764   -2.4619 H   0  0  0  0  0  0  0  0  0  0  0  0
    1.2216   -3.2797   -0.9656 N   0  0  0  0  0  0  0  0  0  0  0  0
    1.1404   -4.2914   -1.0336 H   0  0  0  0  0  0  0  0  0  0  0  0
    2.0669   -2.6240   -0.0847 C   0  0  0  0  0  0  0  0  0  0  0  0
    2.9856   -3.1030    0.8492 C   0  0  0  0  0  0  0  0  0  0  0  0
    3.1276   -4.1699    0.9768 H   0  0  0  0  0  0  0  0  0  0  0  0
    3.7179   -2.1886    1.6194 C   0  0  0  0  0  0  0  0  0  0  0  0
    4.4348   -2.5485    2.3510 H   0  0  0  0  0  0  0  0  0  0  0  0
    3.5230   -0.8095    1.4478 C   0  0  0  0  0  0  0  0  0  0  0  0
    4.0894   -0.1037    2.0475 H   0  0  0  0  0  0  0  0  0  0  0  0
    2.5958   -0.3396    0.5062 C   0  0  0  0  0  0  0  0  0  0  0  0
    2.4404    0.7250    0.3718 H   0  0  0  0  0  0  0  0  0  0  0  0
    1.8698   -1.2590   -0.2581 C   0  0  0  0  0  0  0  0  0  0  0  0
   -1.1207    2.2071   -1.4679 C   0  0  0  0  0  0  0  0  0  0  0  0
   -1.6021    2.3441   -2.5873 O   0  0  0  0  0  0  0  0  0  0  0  0
   -0.9360    3.3184   -0.6663 N   0  0  0  0  0  0  0  0  0  0  0  0
   -0.6189    3.1612    0.2865 H   0  0  0  0  0  0  0  0  0  0  0  0
   -1.2771    4.6735   -1.0817 C   0  0  0  0  0  0  0  0  0  0  0  0
   -2.3493    4.7537   -1.2889 H   0  0  0  0  0  0  0  0  0  0  0  0
   -1.0233    5.3857   -0.2906 H   0  0  0  0  0  0  0  0  0  0  0  0
   -0.7219    4.9493   -1.9844 H   0  0  0  0  0  0  0  0  0  0  0  0
  1  2  1  0  0  0  0
  2  3  1  0  0  0  0
  2  4  1  0  0  0  0
  2  5  1  0  0  0  0
  5  6  2  0  0  0  0
  5  7  1  0  0  0  0
  7  8  1  0  0  0  0
  7  9  1  0  0  0  0
  9 10  1  0  0  0  0
  9 11  1  0  0  0  0
  9 29  1  0  0  0  0
 11 12  1  0  0  0  0
 11 13  1  0  0  0  0
 11 14  1  0  0  0  0
 14 15  2  0  0  0  0
 14 28  1  0  0  0  0
 15 16  1  0  0  0  0
 15 17  1  0  0  0  0
 17 18  1  0  0  0  0
 17 19  1  0  0  0  0
 19 20  1  0  0  0  0
 19 28  2  0  0  0  0
 20 21  1  0  0  0  0
 20 22  2  0  0  0  0
 22 23  1  0  0  0  0
 22 24  1  0  0  0  0
 24 25  1  0  0  0  0
 24 26  2  0  0  0  0
 26 27  1  0  0  0  0
 26 28  1  0  0  0  0
 29 30  2  0  0  0  0
 29 31  1  0  0  0  0
 31 32  1  0  0  0  0
 31 33  1  0  0  0  0
 33 34  1  0  0  0  0
 33 35  1  0  0  0  0
 33 36  1  0  0  0  0
M  END
$$$$

  -OEChem-01062216103D

 36 37  0     1  0  0  0  0  0999 V2000
   -3.5355   -2.7763    0.3880 H   0  0  0  0  0  0  0  0  0  0  0  0
   -3.4859   -1.9874   -0.3679 C   0  0  0  0  0  0  0  0  0  0  0  0
   -4.4110   -1.4068   -0.3335 H   0  0  0  0  0  0  0  0  0  0  0  0
   -3.3891   -2.4501   -1.3529 H   0  0  0  0  0  0  0  0  0  0  0  0
   -2.2976   -1.0829   -0.1005 C   0  0  0  0  0  0  0  0  0  0  0  0
   -1.6461   -1.2257    0.9199 O   0  0  0  0  0  0  0  0  0  0  0  0
   -2.0128   -0.0559   -0.9755 N   0  0  0  0  0  0  0  0  0  0  0  0
   -2.6260    0.0608   -1.7792 H   0  0  0  0  0  0  0  0  0  0  0  0
   -0.8051    0.7851   -0.9305 C   0  0  1  0  0  0  0  0  0  0  0  0
   -0.4528    0.8801    0.1018 H   0  0  0  0  0  0  0  0  0  0  0  0
    0.3226    0.2019   -1.8048 C   0  0  0  0  0  0  0  0  0  0  0  0
   -0.0604    0.0496   -2.8191 H   0  0  0  0  0  0  0  0  0  0  0  0
    1.1470    0.9190   -1.8742 H   0  0  0  0  0  0  0  0  0  0  0  0
    0.8654   -1.1022   -1.2841 C   0  0  0  0  0  0  0  0  0  0  0  0
    0.5029   -2.3602   -1.7013 C   0  0  0  0  0  0  0  0  0  0  0  0
   -0.2377   -2.5822   -2.4654 H   0  0  0  0  0  0  0  0  0  0  0  0
    1.2538   -3.2799   -0.9727 N   0  0  0  0  0  0  0  0  0  0  0  0
    1.1796   -4.2917   -1.0448 H   0  0  0  0  0  0  0  0  0  0  0  0
    2.0930   -2.6223   -0.0877 C   0  0  0  0  0  0  0  0  0  0  0  0
    3.0176   -3.0993    0.8414 C   0  0  0  0  0  0  0  0  0  0  0  0
    3.1710   -4.1659    0.9611 H   0  0  0  0  0  0  0  0  0  0  0  0
    3.7419   -2.1826    1.6166 C   0  0  0  0  0  0  0  0  0  0  0  0
    4.4637   -2.5404    2.3447 H   0  0  0  0  0  0  0  0  0  0  0  0
    3.5324   -0.8042    1.4550 C   0  0  0  0  0  0  0  0  0  0  0  0
    4.0928   -0.0980    2.0596 H   0  0  0  0  0  0  0  0  0  0  0  0
    2.5990   -0.3369    0.5184 C   0  0  0  0  0  0  0  0  0  0  0  0
    2.4311    0.7266    0.3920 H   0  0  0  0  0  0  0  0  0  0  0  0
    1.8820   -1.2581   -0.2519 C   0  0  0  0  0  0  0  0  0  0  0  0
   -1.1189    2.1911   -1.4728 C   0  0  0  0  0  0  0  0  0  0  0  0
   -1.7980    2.3182   -2.4863 O   0  0  0  0  0  0  0  0  0  0  0  0
   -0.6679    3.3167   -0.8084 N   0  0  0  0  0  0  0  0  0  0  0  0
   -0.1598    3.1778    0.0608 H   0  0  0  0  0  0  0  0  0  0  0  0
   -0.9573    4.6758   -1.2482 C   0  0  0  0  0  0  0  0  0  0  0  0
   -2.0380    4.8525   -1.2628 H   0  0  0  0  0  0  0  0  0  0  0  0
   -0.4978    5.3990   -0.5676 H   0  0  0  0  0  0  0  0  0  0  0  0
   -0.5582    4.8461   -2.2537 H   0  0  0  0  0  0  0  0  0  0  0  0
  1  2  1  0  0  0  0
  2  3  1  0  0  0  0
  2  4  1  0  0  0  0
  2  5  1  0  0  0  0
  5  6  2  0  0  0  0
  5  7  1  0  0  0  0
  7  8  1  0  0  0  0
  7  9  1  0  0  0  0
  9 10  1  0  0  0  0
  9 11  1  0  0  0  0
  9 29  1  0  0  0  0
 11 12  1  0  0  0  0
 11 13  1  0  0  0  0
 11 14  1  0  0  0  0
 14 15  2  0  0  0  0
 14 28  1  0  0  0  0
 15 16  1  0  0  0  0
 15 17  1  0  0  0  0
 17 18  1  0  0  0  0
 17 19  1  0  0  0  0
 19 20  1  0  0  0  0
 19 28  2  0  0  0  0
 20 21  1  0  0  0  0
 20 22  2  0  0  0  0
 22 23  1  0  0  0  0
 22 24  1  0  0  0  0
 24 25  1  0  0  0  0
 24 26  2  0  0  0  0
 26 27  1  0  0  0  0
 26 28  1  0  0  0  0
 29 30  2  0  0  0  0
 29 31  1  0  0  0  0
 31 32  1  0  0  0  0
 31 33  1  0  0  0  0
 33 34  1  0  0  0  0
 33 35  1  0  0  0  0
 33 36  1  0  0  0  0
M  END
$$$$

  -OEChem-01062216103D

 36 37  0     1  0  0  0  0  0999 V2000
   -3.5922   -2.7509    0.3920 H   0  0  0  0  0  0  0  0  0  0  0  0
   -3.5305   -1.9602   -0.3609 C   0  0  0  0  0  0  0  0  0  0  0  0
   -4.4313   -1.3447   -0.3007 H   0  0  0  0  0  0  0  0  0  0  0  0
   -3.4759   -2.4202   -1.3502 H   0  0  0  0  0  0  0  0  0  0  0  0
   -2.3023   -1.1038   -0.1185 C   0  0  0  0  0  0  0  0  0  0  0  0
   -1.6261   -1.2856    0.8792 O   0  0  0  0  0  0  0  0  0  0  0  0
   -2.0099   -0.0746   -0.9881 N   0  0  0  0  0  0  0  0  0  0  0  0
   -2.6665    0.1058   -1.7451 H   0  0  0  0  0  0  0  0  0  0  0  0
   -0.8083    0.7747   -0.9326 C   0  0  1  0  0  0  0  0  0  0  0  0
   -0.4662    0.8710    0.1034 H   0  0  0  0  0  0  0  0  0  0  0  0
    0.3268    0.1973   -1.8020 C   0  0  0  0  0  0  0  0  0  0  0  0
   -0.0508    0.0449   -2.8184 H   0  0  0  0  0  0  0  0  0  0  0  0
    1.1493    0.9165   -1.8667 H   0  0  0  0  0  0  0  0  0  0  0  0
    0.8741   -1.1048   -1.2822 C   0  0  0  0  0  0  0  0  0  0  0  0
    0.5199   -2.3636   -1.7035 C   0  0  0  0  0  0  0  0  0  0  0  0
   -0.2205   -2.5875   -2.4671 H   0  0  0  0  0  0  0  0  0  0  0  0
    1.2762   -3.2807   -0.9771 N   0  0  0  0  0  0  0  0  0  0  0  0
    1.2056   -4.2927   -1.0497 H   0  0  0  0  0  0  0  0  0  0  0  0
    2.1108   -2.6203   -0.0896 C   0  0  0  0  0  0  0  0  0  0  0  0
    3.0378   -3.0929    0.8396 C   0  0  0  0  0  0  0  0  0  0  0  0
    3.1975   -4.1587    0.9573 H   0  0  0  0  0  0  0  0  0  0  0  0
    3.7562   -2.1738    1.6173 C   0  0  0  0  0  0  0  0  0  0  0  0
    4.4799   -2.5285    2.3447 H   0  0  0  0  0  0  0  0  0  0  0  0
    3.5383   -0.7967    1.4592 C   0  0  0  0  0  0  0  0  0  0  0  0
    4.0940   -0.0880    2.0654 H   0  0  0  0  0  0  0  0  0  0  0  0
    2.6019   -0.3333    0.5236 C   0  0  0  0  0  0  0  0  0  0  0  0
    2.4273    0.7296    0.4016 H   0  0  0  0  0  0  0  0  0  0  0  0
    1.8912   -1.2571   -0.2501 C   0  0  0  0  0  0  0  0  0  0  0  0
   -1.1214    2.1806   -1.4789 C   0  0  0  0  0  0  0  0  0  0  0  0
   -1.9724    2.3257   -2.3508 O   0  0  0  0  0  0  0  0  0  0  0  0
   -0.4395    3.2853   -1.0029 N   0  0  0  0  0  0  0  0  0  0  0  0
    0.2308    3.1382   -0.2537 H   0  0  0  0  0  0  0  0  0  0  0  0
   -0.6830    4.6417   -1.4770 C   0  0  0  0  0  0  0  0  0  0  0  0
   -1.7229    4.9316   -1.2938 H   0  0  0  0  0  0  0  0  0  0  0  0
   -0.0302    5.3476   -0.9547 H   0  0  0  0  0  0  0  0  0  0  0  0
   -0.4803    4.7137   -2.5508 H   0  0  0  0  0  0  0  0  0  0  0  0
  1  2  1  0  0  0  0
  2  3  1  0  0  0  0
  2  4  1  0  0  0  0
  2  5  1  0  0  0  0
  5  6  2  0  0  0  0
  5  7  1  0  0  0  0
  7  8  1  0  0  0  0
  7  9  1  0  0  0  0
  9 10  1  0  0  0  0
  9 11  1  0  0  0  0
  9 29  1  0  0  0  0
 11 12  1  0  0  0  0
 11 13  1  0  0  0  0
 11 14  1  0  0  0  0
 14 15  2  0  0  0  0
 14 28  1  0  0  0  0
 15 16  1  0  0  0  0
 15 17  1  0  0  0  0
 17 18  1  0  0  0  0
 17 19  1  0  0  0  0
 19 20  1  0  0  0  0
 19 28  2  0  0  0  0
 20 21  1  0  0  0  0
 20 22  2  0  0  0  0
 22 23  1  0  0  0  0
 22 24  1  0  0  0  0
 24 25  1  0  0  0  0
 24 26  2  0  0  0  0
 26 27  1  0  0  0  0
 26 28  1  0  0  0  0
 29 30  2  0  0  0  0
 29 31  1  0  0  0  0
 31 32  1  0  0  0  0
 31 33  1  0  0  0  0
 33 34  1  0  0  0  0
 33 35  1  0  0  0  0
 33 36  1  0  0  0  0
M  END
$$$$

  -OEChem-01062216103D

 36 37  0     1  0  0  0  0  0999 V2000
   -3.6335   -2.7260    0.3947 H   0  0  0  0  0  0  0  0  0  0  0  0
   -3.5637   -1.9347   -0.3568 C   0  0  0  0  0  0  0  0  0  0  0  0
   -4.4423   -1.2904   -0.2737 H   0  0  0  0  0  0  0  0  0  0  0  0
   -3.5474   -2.3917   -1.3489 H   0  0  0  0  0  0  0  0  0  0  0  0
   -2.3024   -1.1206   -0.1402 C   0  0  0  0  0  0  0  0  0  0  0  0
   -1.6032   -1.3384    0.8340 O   0  0  0  0  0  0  0  0  0  0  0  0
   -2.0052   -0.0890   -1.0051 N   0  0  0  0  0  0  0  0  0  0  0  0
   -2.7038    0.1528   -1.7059 H   0  0  0  0  0  0  0  0  0  0  0  0
   -0.8088    0.7681   -0.9390 C   0  0  1  0  0  0  0  0  0  0  0  0
   -0.4750    0.8676    0.0992 H   0  0  0  0  0  0  0  0  0  0  0  0
    0.3331    0.1899   -1.8019 C   0  0  0  0  0  0  0  0  0  0  0  0
   -0.0403    0.0350   -2.8194 H   0  0  0  0  0  0  0  0  0  0  0  0
    1.1569    0.9076   -1.8651 H   0  0  0  0  0  0  0  0  0  0  0  0
    0.8821   -1.1104   -1.2797 C   0  0  0  0  0  0  0  0  0  0  0  0
    0.5337   -2.3707   -1.7016 C   0  0  0  0  0  0  0  0  0  0  0  0
   -0.2061   -2.5981   -2.4648 H   0  0  0  0  0  0  0  0  0  0  0  0
    1.2933   -3.2848   -0.9751 N   0  0  0  0  0  0  0  0  0  0  0  0
    1.2206   -4.2969   -1.0427 H   0  0  0  0  0  0  0  0  0  0  0  0
    2.1250   -2.6212   -0.0875 C   0  0  0  0  0  0  0  0  0  0  0  0
    3.0529   -3.0909    0.8420 C   0  0  0  0  0  0  0  0  0  0  0  0
    3.2150   -4.1563    0.9602 H   0  0  0  0  0  0  0  0  0  0  0  0
    3.7687   -2.1689    1.6189 C   0  0  0  0  0  0  0  0  0  0  0  0
    4.4938   -2.5214    2.3464 H   0  0  0  0  0  0  0  0  0  0  0  0
    3.5464   -0.7922    1.4602 C   0  0  0  0  0  0  0  0  0  0  0  0
    4.0996   -0.0813    2.0663 H   0  0  0  0  0  0  0  0  0  0  0  0
    2.6078   -0.3322    0.5251 C   0  0  0  0  0  0  0  0  0  0  0  0
    2.4285    0.7298    0.4036 H   0  0  0  0  0  0  0  0  0  0  0  0
    1.9004   -1.2587   -0.2480 C   0  0  0  0  0  0  0  0  0  0  0  0
   -1.1224    2.1752   -1.4882 C   0  0  0  0  0  0  0  0  0  0  0  0
   -2.1181    2.3603   -2.1813 O   0  0  0  0  0  0  0  0  0  0  0  0
   -0.2619    3.2310   -1.2466 N   0  0  0  0  0  0  0  0  0  0  0  0
    0.5432    3.0558   -0.6522 H   0  0  0  0  0  0  0  0  0  0  0  0
   -0.4836    4.5788   -1.7558 C   0  0  0  0  0  0  0  0  0  0  0  0
   -1.4352    4.9768   -1.3880 H   0  0  0  0  0  0  0  0  0  0  0  0
    0.3197    5.2444   -1.4257 H   0  0  0  0  0  0  0  0  0  0  0  0
   -0.5018    4.5761   -2.8507 H   0  0  0  0  0  0  0  0  0  0  0  0
  1  2  1  0  0  0  0
  2  3  1  0  0  0  0
  2  4  1  0  0  0  0
  2  5  1  0  0  0  0
  5  6  2  0  0  0  0
  5  7  1  0  0  0  0
  7  8  1  0  0  0  0
  7  9  1  0  0  0  0
  9 10  1  0  0  0  0
  9 11  1  0  0  0  0
  9 29  1  0  0  0  0
 11 12  1  0  0  0  0
 11 13  1  0  0  0  0
 11 14  1  0  0  0  0
 14 15  2  0  0  0  0
 14 28  1  0  0  0  0
 15 16  1  0  0  0  0
 15 17  1  0  0  0  0
 17 18  1  0  0  0  0
 17 19  1  0  0  0  0
 19 20  1  0  0  0  0
 19 28  2  0  0  0  0
 20 21  1  0  0  0  0
 20 22  2  0  0  0  0
 22 23  1  0  0  0  0
 22 24  1  0  0  0  0
 24 25  1  0  0  0  0
 24 26  2  0  0  0  0
 26 27  1  0  0  0  0
 26 28  1  0  0  0  0
 29 30  2  0  0  0  0
 29 31  1  0  0  0  0
 31 32  1  0  0  0  0
 31 33  1  0  0  0  0
 33 34  1  0  0  0  0
 33 35  1  0  0  0  0
 33 36  1  0  0  0  0
M  END
$$$$

  -OEChem-01062216103D

 36 37  0     1  0  0  0  0  0999 V2000
   -3.5961   -2.6773    0.4389 H   0  0  0  0  0  0  0  0  0  0  0  0
   -3.5446   -1.8934   -0.3220 C   0  0  0  0  0  0  0  0  0  0  0  0
   -4.3594   -1.1852   -0.1537 H   0  0  0  0  0  0  0  0  0  0  0  0
   -3.6645   -2.3504   -1.3069 H   0  0  0  0  0  0  0  0  0  0  0  0
   -2.2101   -1.1764   -0.2431 C   0  0  0  0  0  0  0  0  0  0  0  0
   -1.4005   -1.5028    0.6082 O   0  0  0  0  0  0  0  0  0  0  0  0
   -1.9551   -0.1275   -1.1017 N   0  0  0  0  0  0  0  0  0  0  0  0
   -2.7572    0.2477   -1.6050 H   0  0  0  0  0  0  0  0  0  0  0  0
   -0.7724    0.7484   -1.0180 C   0  0  1  0  0  0  0  0  0  0  0  0
   -0.2770    0.6394   -0.0473 H   0  0  0  0  0  0  0  0  0  0  0  0
    0.2162    0.3822   -2.1435 C   0  0  0  0  0  0  0  0  0  0  0  0
   -0.3098    0.4220   -3.1028 H   0  0  0  0  0  0  0  0  0  0  0  0
    1.0309    1.1106   -2.1903 H   0  0  0  0  0  0  0  0  0  0  0  0
    0.8175   -0.9863   -1.9616 C   0  0  0  0  0  0  0  0  0  0  0  0
    0.3905   -2.1481   -2.5578 C   0  0  0  0  0  0  0  0  0  0  0  0
   -0.4584   -2.2354   -3.2312 H   0  0  0  0  0  0  0  0  0  0  0  0
    1.2343   -3.1740   -2.1377 N   0  0  0  0  0  0  0  0  0  0  0  0
    1.1404   -4.1551   -2.3886 H   0  0  0  0  0  0  0  0  0  0  0  0
    2.1966   -2.6809   -1.2714 C   0  0  0  0  0  0  0  0  0  0  0  0
    3.2424   -3.3079   -0.5939 C   0  0  0  0  0  0  0  0  0  0  0  0
    3.4053   -4.3737   -0.7080 H   0  0  0  0  0  0  0  0  0  0  0  0
    4.0741   -2.5433    0.2363 C   0  0  0  0  0  0  0  0  0  0  0  0
    4.8898   -3.0193    0.7720 H   0  0  0  0  0  0  0  0  0  0  0  0
    3.8501   -1.1655    0.3798 C   0  0  0  0  0  0  0  0  0  0  0  0
    4.4925   -0.5775    1.0280 H   0  0  0  0  0  0  0  0  0  0  0  0
    2.7952   -0.5466   -0.3065 C   0  0  0  0  0  0  0  0  0  0  0  0
    2.6154    0.5163   -0.1936 H   0  0  0  0  0  0  0  0  0  0  0  0
    1.9714   -1.3160   -1.1346 C   0  0  0  0  0  0  0  0  0  0  0  0
   -1.1794    2.2303   -1.1760 C   0  0  0  0  0  0  0  0  0  0  0  0
   -2.3440    2.5279   -1.4239 O   0  0  0  0  0  0  0  0  0  0  0  0
   -0.2296    3.2356   -1.1284 N   0  0  0  0  0  0  0  0  0  0  0  0
    0.7260    2.9698   -0.9091 H   0  0  0  0  0  0  0  0  0  0  0  0
   -0.5453    4.6478   -1.3051 C   0  0  0  0  0  0  0  0  0  0  0  0
   -1.2700    4.9764   -0.5526 H   0  0  0  0  0  0  0  0  0  0  0  0
    0.3603    5.2530   -1.1994 H   0  0  0  0  0  0  0  0  0  0  0  0
   -0.9653    4.8253   -2.3008 H   0  0  0  0  0  0  0  0  0  0  0  0
  1  2  1  0  0  0  0
  2  3  1  0  0  0  0
  2  4  1  0  0  0  0
  2  5  1  0  0  0  0
  5  6  2  0  0  0  0
  5  7  1  0  0  0  0
  7  8  1  0  0  0  0
  7  9  1  0  0  0  0
  9 10  1  0  0  0  0
  9 11  1  0  0  0  0
  9 29  1  0  0  0  0
 11 12  1  0  0  0  0
 11 13  1  0  0  0  0
 11 14  1  0  0  0  0
 14 15  2  0  0  0  0
 14 28  1  0  0  0  0
 15 16  1  0  0  0  0
 15 17  1  0  0  0  0
 17 18  1  0  0  0  0
 17 19  1  0  0  0  0
 19 20  1  0  0  0  0
 19 28  2  0  0  0  0
 20 21  1  0  0  0  0
 20 22  2  0  0  0  0
 22 23  1  0  0  0  0
 22 24  1  0  0  0  0
 24 25  1  0  0  0  0
 24 26  2  0  0  0  0
 26 27  1  0  0  0  0
 26 28  1  0  0  0  0
 29 30  2  0  0  0  0
 29 31  1  0  0  0  0
 31 32  1  0  0  0  0
 31 33  1  0  0  0  0
 33 34  1  0  0  0  0
 33 35  1  0  0  0  0
 33 36  1  0  0  0  0
M  END
$$$$

  -OEChem-01062216103D

 36 37  0     1  0  0  0  0  0999 V2000
   -3.5956   -2.6521    0.4451 H   0  0  0  0  0  0  0  0  0  0  0  0
   -3.5464   -1.8684   -0.3162 C   0  0  0  0  0  0  0  0  0  0  0  0
   -4.3454   -1.1465   -0.1303 H   0  0  0  0  0  0  0  0  0  0  0  0
   -3.6942   -2.3217   -1.2991 H   0  0  0  0  0  0  0  0  0  0  0  0
   -2.1982   -1.1746   -0.2650 C   0  0  0  0  0  0  0  0  0  0  0  0
   -1.3742   -1.5229    0.5633 O   0  0  0  0  0  0  0  0  0  0  0  0
   -1.9475   -0.1241   -1.1235 N   0  0  0  0  0  0  0  0  0  0  0  0
   -2.7643    0.2772   -1.5804 H   0  0  0  0  0  0  0  0  0  0  0  0
   -0.7627    0.7497   -1.0354 C   0  0  1  0  0  0  0  0  0  0  0  0
   -0.2714    0.6439   -0.0622 H   0  0  0  0  0  0  0  0  0  0  0  0
    0.2302    0.3675   -2.1549 C   0  0  0  0  0  0  0  0  0  0  0  0
   -0.2899    0.4043   -3.1176 H   0  0  0  0  0  0  0  0  0  0  0  0
    1.0543    1.0845   -2.2022 H   0  0  0  0  0  0  0  0  0  0  0  0
    0.8245   -1.0023   -1.9621 C   0  0  0  0  0  0  0  0  0  0  0  0
    0.3950   -2.1665   -2.5519 C   0  0  0  0  0  0  0  0  0  0  0  0
   -0.4541   -2.2559   -3.2247 H   0  0  0  0  0  0  0  0  0  0  0  0
    1.2373   -3.1915   -2.1272 N   0  0  0  0  0  0  0  0  0  0  0  0
    1.1377   -4.1745   -2.3686 H   0  0  0  0  0  0  0  0  0  0  0  0
    2.2012   -2.6955   -1.2643 C   0  0  0  0  0  0  0  0  0  0  0  0
    3.2464   -3.3206   -0.5845 C   0  0  0  0  0  0  0  0  0  0  0  0
    3.4077   -4.3869   -0.6937 H   0  0  0  0  0  0  0  0  0  0  0  0
    4.0796   -2.5536    0.2419 C   0  0  0  0  0  0  0  0  0  0  0  0
    4.8953   -3.0284    0.7788 H   0  0  0  0  0  0  0  0  0  0  0  0
    3.8568   -1.1749    0.3802 C   0  0  0  0  0  0  0  0  0  0  0  0
    4.4997   -0.5853    1.0265 H   0  0  0  0  0  0  0  0  0  0  0  0
    2.8022   -0.5578   -0.3081 C   0  0  0  0  0  0  0  0  0  0  0  0
    2.6231    0.5054   -0.1976 H   0  0  0  0  0  0  0  0  0  0  0  0
    1.9779   -1.3297   -1.1335 C   0  0  0  0  0  0  0  0  0  0  0  0
   -1.1774    2.2331   -1.1893 C   0  0  0  0  0  0  0  0  0  0  0  0
   -2.3657    2.5395   -1.1937 O   0  0  0  0  0  0  0  0  0  0  0  0
   -0.2441    3.2232   -1.4461 N   0  0  0  0  0  0  0  0  0  0  0  0
    0.7368    2.9593   -1.4346 H   0  0  0  0  0  0  0  0  0  0  0  0
   -0.5930    4.6251   -1.6428 C   0  0  0  0  0  0  0  0  0  0  0  0
   -1.1189    5.0162   -0.7654 H   0  0  0  0  0  0  0  0  0  0  0  0
    0.3113    5.2215   -1.7975 H   0  0  0  0  0  0  0  0  0  0  0  0
   -1.2372    4.7400   -2.5209 H   0  0  0  0  0  0  0  0  0  0  0  0
  1  2  1  0  0  0  0
  2  3  1  0  0  0  0
  2  4  1  0  0  0  0
  2  5  1  0  0  0  0
  5  6  2  0  0  0  0
  5  7  1  0  0  0  0
  7  8  1  0  0  0  0
  7  9  1  0  0  0  0
  9 10  1  0  0  0  0
  9 11  1  0  0  0  0
  9 29  1  0  0  0  0
 11 12  1  0  0  0  0
 11 13  1  0  0  0  0
 11 14  1  0  0  0  0
 14 15  2  0  0  0  0
 14 28  1  0  0  0  0
 15 16  1  0  0  0  0
 15 17  1  0  0  0  0
 17 18  1  0  0  0  0
 17 19  1  0  0  0  0
 19 20  1  0  0  0  0
 19 28  2  0  0  0  0
 20 21  1  0  0  0  0
 20 22  2  0  0  0  0
 22 23  1  0  0  0  0
 22 24  1  0  0  0  0
 24 25  1  0  0  0  0
 24 26  2  0  0  0  0
 26 27  1  0  0  0  0
 26 28  1  0  0  0  0
 29 30  2  0  0  0  0
 29 31  1  0  0  0  0
 31 32  1  0  0  0  0
 31 33  1  0  0  0  0
 33 34  1  0  0  0  0
 33 35  1  0  0  0  0
 33 36  1  0  0  0  0
M  END
$$$$

  -OEChem-01062216103D

 36 37  0     1  0  0  0  0  0999 V2000
   -3.5918   -2.6189    0.4646 H   0  0  0  0  0  0  0  0  0  0  0  0
   -3.5466   -1.8363   -0.2981 C   0  0  0  0  0  0  0  0  0  0  0  0
   -4.3208   -1.0945   -0.0870 H   0  0  0  0  0  0  0  0  0  0  0  0
   -3.7368   -2.2850   -1.2758 H   0  0  0  0  0  0  0  0  0  0  0  0
   -2.1808   -1.1762   -0.2890 C   0  0  0  0  0  0  0  0  0  0  0  0
   -1.3391   -1.5508    0.5094 O   0  0  0  0  0  0  0  0  0  0  0  0
   -1.9378   -0.1231   -1.1470 N   0  0  0  0  0  0  0  0  0  0  0  0
   -2.7667    0.2970   -1.5621 H   0  0  0  0  0  0  0  0  0  0  0  0
   -0.7485    0.7459   -1.0624 C   0  0  1  0  0  0  0  0  0  0  0  0
   -0.2575    0.6410   -0.0888 H   0  0  0  0  0  0  0  0  0  0  0  0
    0.2491    0.3542   -2.1764 C   0  0  0  0  0  0  0  0  0  0  0  0
   -0.2645    0.3892   -3.1427 H   0  0  0  0  0  0  0  0  0  0  0  0
    1.0782    1.0656   -2.2182 H   0  0  0  0  0  0  0  0  0  0  0  0
    0.8402   -1.0157   -1.9762 C   0  0  0  0  0  0  0  0  0  0  0  0
    0.4117   -2.1821   -2.5624 C   0  0  0  0  0  0  0  0  0  0  0  0
   -0.4332   -2.2740   -3.2398 H   0  0  0  0  0  0  0  0  0  0  0  0
    1.2482   -3.2070   -2.1260 N   0  0  0  0  0  0  0  0  0  0  0  0
    1.1441   -4.1921   -2.3567 H   0  0  0  0  0  0  0  0  0  0  0  0
    2.2067   -2.7087   -1.2586 C   0  0  0  0  0  0  0  0  0  0  0  0
    3.2434   -3.3335   -0.5652 C   0  0  0  0  0  0  0  0  0  0  0  0
    3.4010   -4.4014   -0.6648 H   0  0  0  0  0  0  0  0  0  0  0  0
    4.0726   -2.5640    0.2630 C   0  0  0  0  0  0  0  0  0  0  0  0
    4.8815   -3.0381    0.8106 H   0  0  0  0  0  0  0  0  0  0  0  0
    3.8540   -1.1836    0.3900 C   0  0  0  0  0  0  0  0  0  0  0  0
    4.4929   -0.5917    1.0380 H   0  0  0  0  0  0  0  0  0  0  0  0
    2.8072   -0.5669   -0.3108 C   0  0  0  0  0  0  0  0  0  0  0  0
    2.6296    0.4978   -0.2076 H   0  0  0  0  0  0  0  0  0  0  0  0
    1.9871   -1.3414   -1.1382 C   0  0  0  0  0  0  0  0  0  0  0  0
   -1.1732    2.2295   -1.2068 C   0  0  0  0  0  0  0  0  0  0  0  0
   -2.3281    2.5547   -0.9521 O   0  0  0  0  0  0  0  0  0  0  0  0
   -0.3388    3.1883   -1.7573 N   0  0  0  0  0  0  0  0  0  0  0  0
    0.6140    2.9138   -1.9766 H   0  0  0  0  0  0  0  0  0  0  0  0
   -0.7334    4.5780   -1.9575 C   0  0  0  0  0  0  0  0  0  0  0  0
   -1.0240    5.0351   -1.0056 H   0  0  0  0  0  0  0  0  0  0  0  0
    0.0996    5.1513   -2.3754 H   0  0  0  0  0  0  0  0  0  0  0  0
   -1.5783    4.6404   -2.6513 H   0  0  0  0  0  0  0  0  0  0  0  0
  1  2  1  0  0  0  0
  2  3  1  0  0  0  0
  2  4  1  0  0  0  0
  2  5  1  0  0  0  0
  5  6  2  0  0  0  0
  5  7  1  0  0  0  0
  7  8  1  0  0  0  0
  7  9  1  0  0  0  0
  9 10  1  0  0  0  0
  9 11  1  0  0  0  0
  9 29  1  0  0  0  0
 11 12  1  0  0  0  0
 11 13  1  0  0  0  0
 11 14  1  0  0  0  0
 14 15  2  0  0  0  0
 14 28  1  0  0  0  0
 15 16  1  0  0  0  0
 15 17  1  0  0  0  0
 17 18  1  0  0  0  0
 17 19  1  0  0  0  0
 19 20  1  0  0  0  0
 19 28  2  0  0  0  0
 20 21  1  0  0  0  0
 20 22  2  0  0  0  0
 22 23  1  0  0  0  0
 22 24  1  0  0  0  0
 24 25  1  0  0  0  0
 24 26  2  0  0  0  0
 26 27  1  0  0  0  0
 26 28  1  0  0  0  0
 29 30  2  0  0  0  0
 29 31  1  0  0  0  0
 31 32  1  0  0  0  0
 31 33  1  0  0  0  0
 33 34  1  0  0  0  0
 33 35  1  0  0  0  0
 33 36  1  0  0  0  0
M  END
$$$$

  -OEChem-01062216103D

 36 37  0     1  0  0  0  0  0999 V2000
   -3.5955   -2.6079    0.4679 H   0  0  0  0  0  0  0  0  0  0  0  0
   -3.5522   -1.8255   -0.2949 C   0  0  0  0  0  0  0  0  0  0  0  0
   -4.3195   -1.0789   -0.0761 H   0  0  0  0  0  0  0  0  0  0  0  0
   -3.7543   -2.2729   -1.2706 H   0  0  0  0  0  0  0  0  0  0  0  0
   -2.1822   -1.1740   -0.2978 C   0  0  0  0  0  0  0  0  0  0  0  0
   -1.3338   -1.5598    0.4878 O   0  0  0  0  0  0  0  0  0  0  0  0
   -1.9424   -0.1208   -1.1572 N   0  0  0  0  0  0  0  0  0  0  0  0
   -2.7740    0.2974   -1.5667 H   0  0  0  0  0  0  0  0  0  0  0  0
   -0.7482    0.7426   -1.0808 C   0  0  1  0  0  0  0  0  0  0  0  0
   -0.2571    0.6391   -0.1070 H   0  0  0  0  0  0  0  0  0  0  0  0
    0.2527    0.3421   -2.1881 C   0  0  0  0  0  0  0  0  0  0  0  0
   -0.2566    0.3712   -3.1568 H   0  0  0  0  0  0  0  0  0  0  0  0
    1.0827    1.0533   -2.2267 H   0  0  0  0  0  0  0  0  0  0  0  0
    0.8417   -1.0268   -1.9784 C   0  0  0  0  0  0  0  0  0  0  0  0
    0.4155   -2.1972   -2.5584 C   0  0  0  0  0  0  0  0  0  0  0  0
   -0.4289   -2.2943   -3.2360 H   0  0  0  0  0  0  0  0  0  0  0  0
    1.2534   -3.2181   -2.1153 N   0  0  0  0  0  0  0  0  0  0  0  0
    1.1490   -4.2050   -2.3376 H   0  0  0  0  0  0  0  0  0  0  0  0
    2.2111   -2.7135   -1.2507 C   0  0  0  0  0  0  0  0  0  0  0  0
    3.2493   -3.3321   -0.5538 C   0  0  0  0  0  0  0  0  0  0  0  0
    3.4096   -4.4001   -0.6477 H   0  0  0  0  0  0  0  0  0  0  0  0
    4.0762   -2.5560    0.2701 C   0  0  0  0  0  0  0  0  0  0  0  0
    4.8864   -3.0248    0.8204 H   0  0  0  0  0  0  0  0  0  0  0  0
    3.8533   -1.1756    0.3903 C   0  0  0  0  0  0  0  0  0  0  0  0
    4.4901   -0.5785    1.0356 H   0  0  0  0  0  0  0  0  0  0  0  0
    2.8051   -0.5652   -0.3136 C   0  0  0  0  0  0  0  0  0  0  0  0
    2.6236    0.4992   -0.2151 H   0  0  0  0  0  0  0  0  0  0  0  0
    1.9882   -1.3460   -1.1378 C   0  0  0  0  0  0  0  0  0  0  0  0
   -1.1707    2.2273   -1.2201 C   0  0  0  0  0  0  0  0  0  0  0  0
   -2.2288    2.5969   -0.7245 O   0  0  0  0  0  0  0  0  0  0  0  0
   -0.4944    3.1238   -2.0321 N   0  0  0  0  0  0  0  0  0  0  0  0
    0.3664    2.8080   -2.4687 H   0  0  0  0  0  0  0  0  0  0  0  0
   -0.9170    4.5054   -2.2325 C   0  0  0  0  0  0  0  0  0  0  0  0
   -0.9609    5.0359   -1.2753 H   0  0  0  0  0  0  0  0  0  0  0  0
   -0.2086    5.0267   -2.8835 H   0  0  0  0  0  0  0  0  0  0  0  0
   -1.9064    4.5397   -2.7005 H   0  0  0  0  0  0  0  0  0  0  0  0
  1  2  1  0  0  0  0
  2  3  1  0  0  0  0
  2  4  1  0  0  0  0
  2  5  1  0  0  0  0
  5  6  2  0  0  0  0
  5  7  1  0  0  0  0
  7  8  1  0  0  0  0
  7  9  1  0  0  0  0
  9 10  1  0  0  0  0
  9 11  1  0  0  0  0
  9 29  1  0  0  0  0
 11 12  1  0  0  0  0
 11 13  1  0  0  0  0
 11 14  1  0  0  0  0
 14 15  2  0  0  0  0
 14 28  1  0  0  0  0
 15 16  1  0  0  0  0
 15 17  1  0  0  0  0
 17 18  1  0  0  0  0
 17 19  1  0  0  0  0
 19 20  1  0  0  0  0
 19 28  2  0  0  0  0
 20 21  1  0  0  0  0
 20 22  2  0  0  0  0
 22 23  1  0  0  0  0
 22 24  1  0  0  0  0
 24 25  1  0  0  0  0
 24 26  2  0  0  0  0
 26 27  1  0  0  0  0
 26 28  1  0  0  0  0
 29 30  2  0  0  0  0
 29 31  1  0  0  0  0
 31 32  1  0  0  0  0
 31 33  1  0  0  0  0
 33 34  1  0  0  0  0
 33 35  1  0  0  0  0
 33 36  1  0  0  0  0
M  END
$$$$

  -OEChem-01062216103D

 36 37  0     1  0  0  0  0  0999 V2000
   -3.5942   -2.6163    0.4685 H   0  0  0  0  0  0  0  0  0  0  0  0
   -3.5557   -1.8332   -0.2938 C   0  0  0  0  0  0  0  0  0  0  0  0
   -4.3295   -1.0931   -0.0754 H   0  0  0  0  0  0  0  0  0  0  0  0
   -3.7529   -2.2823   -1.2699 H   0  0  0  0  0  0  0  0  0  0  0  0
   -2.1905   -1.1714   -0.2940 C   0  0  0  0  0  0  0  0  0  0  0  0
   -1.3404   -1.5529    0.4913 O   0  0  0  0  0  0  0  0  0  0  0  0
   -1.9546   -0.1201   -1.1573 N   0  0  0  0  0  0  0  0  0  0  0  0
   -2.7834    0.2786   -1.5891 H   0  0  0  0  0  0  0  0  0  0  0  0
   -0.7571    0.7397   -1.0935 C   0  0  1  0  0  0  0  0  0  0  0  0
   -0.2630    0.6385   -0.1206 H   0  0  0  0  0  0  0  0  0  0  0  0
    0.2443    0.3344   -2.1977 C   0  0  0  0  0  0  0  0  0  0  0  0
   -0.2648    0.3544   -3.1666 H   0  0  0  0  0  0  0  0  0  0  0  0
    1.0695    1.0520   -2.2390 H   0  0  0  0  0  0  0  0  0  0  0  0
    0.8363   -1.0328   -1.9821 C   0  0  0  0  0  0  0  0  0  0  0  0
    0.4140   -2.2078   -2.5558 C   0  0  0  0  0  0  0  0  0  0  0  0
   -0.4292   -2.3118   -3.2336 H   0  0  0  0  0  0  0  0  0  0  0  0
    1.2558   -3.2234   -2.1075 N   0  0  0  0  0  0  0  0  0  0  0  0
    1.1563   -4.2116   -2.3263 H   0  0  0  0  0  0  0  0  0  0  0  0
    2.2118   -2.7111   -1.2453 C   0  0  0  0  0  0  0  0  0  0  0  0
    3.2530   -3.3214   -0.5456 C   0  0  0  0  0  0  0  0  0  0  0  0
    3.4186   -4.3891   -0.6337 H   0  0  0  0  0  0  0  0  0  0  0  0
    4.0769   -2.5375    0.2745 C   0  0  0  0  0  0  0  0  0  0  0  0
    4.8888   -2.9999    0.8277 H   0  0  0  0  0  0  0  0  0  0  0  0
    3.8486   -1.1574    0.3872 C   0  0  0  0  0  0  0  0  0  0  0  0
    4.4839   -0.5542    1.0285 H   0  0  0  0  0  0  0  0  0  0  0  0
    2.7976   -0.5554   -0.3197 C   0  0  0  0  0  0  0  0  0  0  0  0
    2.6123    0.5090   -0.2274 H   0  0  0  0  0  0  0  0  0  0  0  0
    1.9837   -1.3440   -1.1394 C   0  0  0  0  0  0  0  0  0  0  0  0
   -1.1718    2.2247   -1.2308 C   0  0  0  0  0  0  0  0  0  0  0  0
   -2.0650    2.6630   -0.5177 O   0  0  0  0  0  0  0  0  0  0  0  0
   -0.7094    3.0356   -2.2555 N   0  0  0  0  0  0  0  0  0  0  0  0
    0.0073    2.6583   -2.8681 H   0  0  0  0  0  0  0  0  0  0  0  0
   -1.1424    4.4148   -2.4481 C   0  0  0  0  0  0  0  0  0  0  0  0
   -0.9319    5.0104   -1.5535 H   0  0  0  0  0  0  0  0  0  0  0  0
   -0.6124    4.8632   -3.2940 H   0  0  0  0  0  0  0  0  0  0  0  0
   -2.2172    4.4544   -2.6540 H   0  0  0  0  0  0  0  0  0  0  0  0
  1  2  1  0  0  0  0
  2  3  1  0  0  0  0
  2  4  1  0  0  0  0
  2  5  1  0  0  0  0
  5  6  2  0  0  0  0
  5  7  1  0  0  0  0
  7  8  1  0  0  0  0
  7  9  1  0  0  0  0
  9 10  1  0  0  0  0
  9 11  1  0  0  0  0
  9 29  1  0  0  0  0
 11 12  1  0  0  0  0
 11 13  1  0  0  0  0
 11 14  1  0  0  0  0
 14 15  2  0  0  0  0
 14 28  1  0  0  0  0
 15 16  1  0  0  0  0
 15 17  1  0  0  0  0
 17 18  1  0  0  0  0
 17 19  1  0  0  0  0
 19 20  1  0  0  0  0
 19 28  2  0  0  0  0
 20 21  1  0  0  0  0
 20 22  2  0  0  0  0
 22 23  1  0  0  0  0
 22 24  1  0  0  0  0
 24 25  1  0  0  0  0
 24 26  2  0  0  0  0
 26 27  1  0  0  0  0
 26 28  1  0  0  0  0
 29 30  2  0  0  0  0
 29 31  1  0  0  0  0
 31 32  1  0  0  0  0
 31 33  1  0  0  0  0
 33 34  1  0  0  0  0
 33 35  1  0  0  0  0
 33 36  1  0  0  0  0
M  END
$$$$

  -OEChem-01062216103D

 36 37  0     1  0  0  0  0  0999 V2000
   -3.5789   -2.6475    0.4655 H   0  0  0  0  0  0  0  0  0  0  0  0
   -3.5508   -1.8607   -0.2937 C   0  0  0  0  0  0  0  0  0  0  0  0
   -4.3387   -1.1354   -0.0765 H   0  0  0  0  0  0  0  0  0  0  0  0
   -3.7346   -2.3095   -1.2724 H   0  0  0  0  0  0  0  0  0  0  0  0
   -2.1977   -1.1747   -0.2832 C   0  0  0  0  0  0  0  0  0  0  0  0
   -1.3485   -1.5428    0.5090 O   0  0  0  0  0  0  0  0  0  0  0  0
   -1.9675   -0.1247   -1.1505 N   0  0  0  0  0  0  0  0  0  0  0  0
   -2.7886    0.2428   -1.6217 H   0  0  0  0  0  0  0  0  0  0  0  0
   -0.7701    0.7366   -1.0985 C   0  0  1  0  0  0  0  0  0  0  0  0
   -0.2705    0.6363   -0.1281 H   0  0  0  0  0  0  0  0  0  0  0  0
    0.2278    0.3329   -2.2054 C   0  0  0  0  0  0  0  0  0  0  0  0
   -0.2842    0.3424   -3.1727 H   0  0  0  0  0  0  0  0  0  0  0  0
    1.0453    1.0595   -2.2532 H   0  0  0  0  0  0  0  0  0  0  0  0
    0.8246   -1.0312   -1.9872 C   0  0  0  0  0  0  0  0  0  0  0  0
    0.4052   -2.2105   -2.5545 C   0  0  0  0  0  0  0  0  0  0  0  0
   -0.4388   -2.3212   -3.2302 H   0  0  0  0  0  0  0  0  0  0  0  0
    1.2509   -3.2210   -2.1026 N   0  0  0  0  0  0  0  0  0  0  0  0
    1.1558   -4.2105   -2.3175 H   0  0  0  0  0  0  0  0  0  0  0  0
    2.2054   -2.7010   -1.2433 C   0  0  0  0  0  0  0  0  0  0  0  0
    3.2486   -3.3041   -0.5407 C   0  0  0  0  0  0  0  0  0  0  0  0
    3.4170   -4.3719   -0.6241 H   0  0  0  0  0  0  0  0  0  0  0  0
    4.0701   -2.5129    0.2751 C   0  0  0  0  0  0  0  0  0  0  0  0
    4.8847   -2.9694    0.8292 H   0  0  0  0  0  0  0  0  0  0  0  0
    3.8366   -1.1331    0.3816 C   0  0  0  0  0  0  0  0  0  0  0  0
    4.4688   -0.5236    1.0198 H   0  0  0  0  0  0  0  0  0  0  0  0
    2.7834   -0.5384   -0.3280 C   0  0  0  0  0  0  0  0  0  0  0  0
    2.5939    0.5259   -0.2410 H   0  0  0  0  0  0  0  0  0  0  0  0
    1.9728   -1.3344   -1.1439 C   0  0  0  0  0  0  0  0  0  0  0  0
   -1.1755    2.2218   -1.2359 C   0  0  0  0  0  0  0  0  0  0  0  0
   -1.8422    2.7463   -0.3549 O   0  0  0  0  0  0  0  0  0  0  0  0
   -0.9713    2.9346   -2.4068 N   0  0  0  0  0  0  0  0  0  0  0  0
   -0.4269    2.4894   -3.1392 H   0  0  0  0  0  0  0  0  0  0  0  0
   -1.4009    4.3160   -2.5919 C   0  0  0  0  0  0  0  0  0  0  0  0
   -0.9431    4.9644   -1.8373 H   0  0  0  0  0  0  0  0  0  0  0  0
   -1.1033    4.6748   -3.5819 H   0  0  0  0  0  0  0  0  0  0  0  0
   -2.4902    4.3935   -2.5095 H   0  0  0  0  0  0  0  0  0  0  0  0
  1  2  1  0  0  0  0
  2  3  1  0  0  0  0
  2  4  1  0  0  0  0
  2  5  1  0  0  0  0
  5  6  2  0  0  0  0
  5  7  1  0  0  0  0
  7  8  1  0  0  0  0
  7  9  1  0  0  0  0
  9 10  1  0  0  0  0
  9 11  1  0  0  0  0
  9 29  1  0  0  0  0
 11 12  1  0  0  0  0
 11 13  1  0  0  0  0
 11 14  1  0  0  0  0
 14 15  2  0  0  0  0
 14 28  1  0  0  0  0
 15 16  1  0  0  0  0
 15 17  1  0  0  0  0
 17 18  1  0  0  0  0
 17 19  1  0  0  0  0
 19 20  1  0  0  0  0
 19 28  2  0  0  0  0
 20 21  1  0  0  0  0
 20 22  2  0  0  0  0
 22 23  1  0  0  0  0
 22 24  1  0  0  0  0
 24 25  1  0  0  0  0
 24 26  2  0  0  0  0
 26 27  1  0  0  0  0
 26 28  1  0  0  0  0
 29 30  2  0  0  0  0
 29 31  1  0  0  0  0
 31 32  1  0  0  0  0
 31 33  1  0  0  0  0
 33 34  1  0  0  0  0
 33 35  1  0  0  0  0
 33 36  1  0  0  0  0
M  END
$$$$

  -OEChem-01062216103D

 36 37  0     1  0  0  0  0  0999 V2000
   -3.5736   -2.6792    0.4618 H   0  0  0  0  0  0  0  0  0  0  0  0
   -3.5460   -1.8948   -0.2999 C   0  0  0  0  0  0  0  0  0  0  0  0
   -4.3537   -1.1858   -0.1025 H   0  0  0  0  0  0  0  0  0  0  0  0
   -3.6987   -2.3509   -1.2806 H   0  0  0  0  0  0  0  0  0  0  0  0
   -2.2082   -1.1802   -0.2630 C   0  0  0  0  0  0  0  0  0  0  0  0
   -1.3688   -1.5254    0.5492 O   0  0  0  0  0  0  0  0  0  0  0  0
   -1.9807   -0.1318   -1.1330 N   0  0  0  0  0  0  0  0  0  0  0  0
   -2.7858    0.1928   -1.6587 H   0  0  0  0  0  0  0  0  0  0  0  0
   -0.7853    0.7330   -1.0933 C   0  0  1  0  0  0  0  0  0  0  0  0
   -0.2774    0.6341   -0.1267 H   0  0  0  0  0  0  0  0  0  0  0  0
    0.2059    0.3358   -2.2068 C   0  0  0  0  0  0  0  0  0  0  0  0
   -0.3128    0.3391   -3.1703 H   0  0  0  0  0  0  0  0  0  0  0  0
    1.0158    1.0702   -2.2627 H   0  0  0  0  0  0  0  0  0  0  0  0
    0.8097   -1.0257   -1.9905 C   0  0  0  0  0  0  0  0  0  0  0  0
    0.3932   -2.2083   -2.5528 C   0  0  0  0  0  0  0  0  0  0  0  0
   -0.4512   -2.3242   -3.2269 H   0  0  0  0  0  0  0  0  0  0  0  0
    1.2436   -3.2146   -2.1002 N   0  0  0  0  0  0  0  0  0  0  0  0
    1.1524   -4.2049   -2.3131 H   0  0  0  0  0  0  0  0  0  0  0  0
    2.1983   -2.6887   -1.2444 C   0  0  0  0  0  0  0  0  0  0  0  0
    3.2459   -3.2848   -0.5420 C   0  0  0  0  0  0  0  0  0  0  0  0
    3.4207   -4.3517   -0.6222 H   0  0  0  0  0  0  0  0  0  0  0  0
    4.0653   -2.4879    0.2702 C   0  0  0  0  0  0  0  0  0  0  0  0
    4.8826   -2.9386    0.8251 H   0  0  0  0  0  0  0  0  0  0  0  0
    3.8260   -1.1091    0.3734 C   0  0  0  0  0  0  0  0  0  0  0  0
    4.4566   -0.4956    1.0094 H   0  0  0  0  0  0  0  0  0  0  0  0
    2.7689   -0.5211   -0.3360 C   0  0  0  0  0  0  0  0  0  0  0  0
    2.5744    0.5425   -0.2501 H   0  0  0  0  0  0  0  0  0  0  0  0
    1.9604   -1.3228   -1.1486 C   0  0  0  0  0  0  0  0  0  0  0  0
   -1.1855    2.2173   -1.2334 C   0  0  0  0  0  0  0  0  0  0  0  0
   -1.5643    2.8411   -0.2528 O   0  0  0  0  0  0  0  0  0  0  0  0
   -1.2727    2.8293   -2.4737 N   0  0  0  0  0  0  0  0  0  0  0  0
   -0.9421    2.3079   -3.2798 H   0  0  0  0  0  0  0  0  0  0  0  0
   -1.6815    4.2178   -2.6536 C   0  0  0  0  0  0  0  0  0  0  0  0
   -1.0129    4.8889   -2.1038 H   0  0  0  0  0  0  0  0  0  0  0  0
   -1.6471    4.4883   -3.7134 H   0  0  0  0  0  0  0  0  0  0  0  0
   -2.7046    4.3664   -2.2922 H   0  0  0  0  0  0  0  0  0  0  0  0
  1  2  1  0  0  0  0
  2  3  1  0  0  0  0
  2  4  1  0  0  0  0
  2  5  1  0  0  0  0
  5  6  2  0  0  0  0
  5  7  1  0  0  0  0
  7  8  1  0  0  0  0
  7  9  1  0  0  0  0
  9 10  1  0  0  0  0
  9 11  1  0  0  0  0
  9 29  1  0  0  0  0
 11 12  1  0  0  0  0
 11 13  1  0  0  0  0
 11 14  1  0  0  0  0
 14 15  2  0  0  0  0
 14 28  1  0  0  0  0
 15 16  1  0  0  0  0
 15 17  1  0  0  0  0
 17 18  1  0  0  0  0
 17 19  1  0  0  0  0
 19 20  1  0  0  0  0
 19 28  2  0  0  0  0
 20 21  1  0  0  0  0
 20 22  2  0  0  0  0
 22 23  1  0  0  0  0
 22 24  1  0  0  0  0
 24 25  1  0  0  0  0
 24 26  2  0  0  0  0
 26 27  1  0  0  0  0
 26 28  1  0  0  0  0
 29 30  2  0  0  0  0
 29 31  1  0  0  0  0
 31 32  1  0  0  0  0
 31 33  1  0  0  0  0
 33 34  1  0  0  0  0
 33 35  1  0  0  0  0
 33 36  1  0  0  0  0
M  END
$$$$

  -OEChem-01062216103D

 36 37  0     1  0  0  0  0  0999 V2000
   -3.5556   -2.7240    0.4595 H   0  0  0  0  0  0  0  0  0  0  0  0
   -3.5357   -1.9364   -0.2992 C   0  0  0  0  0  0  0  0  0  0  0  0
   -4.3652   -1.2498   -0.1136 H   0  0  0  0  0  0  0  0  0  0  0  0
   -3.6602   -2.3929   -1.2836 H   0  0  0  0  0  0  0  0  0  0  0  0
   -2.2174   -1.1881   -0.2372 C   0  0  0  0  0  0  0  0  0  0  0  0
   -1.3893   -1.5060    0.5971 O   0  0  0  0  0  0  0  0  0  0  0  0
   -1.9947   -0.1407   -1.1100 N   0  0  0  0  0  0  0  0  0  0  0  0
   -2.7853    0.1475   -1.6768 H   0  0  0  0  0  0  0  0  0  0  0  0
   -0.8019    0.7290   -1.0774 C   0  0  1  0  0  0  0  0  0  0  0  0
   -0.2864    0.6289   -0.1146 H   0  0  0  0  0  0  0  0  0  0  0  0
    0.1837    0.3483   -2.2002 C   0  0  0  0  0  0  0  0  0  0  0  0
   -0.3378    0.3579   -3.1617 H   0  0  0  0  0  0  0  0  0  0  0  0
    0.9879    1.0894   -2.2535 H   0  0  0  0  0  0  0  0  0  0  0  0
    0.7957   -1.0112   -1.9950 C   0  0  0  0  0  0  0  0  0  0  0  0
    0.3832   -2.1933   -2.5616 C   0  0  0  0  0  0  0  0  0  0  0  0
   -0.4606   -2.3102   -3.2361 H   0  0  0  0  0  0  0  0  0  0  0  0
    1.2376   -3.1980   -2.1126 N   0  0  0  0  0  0  0  0  0  0  0  0
    1.1539   -4.1874   -2.3333 H   0  0  0  0  0  0  0  0  0  0  0  0
    2.1896   -2.6715   -1.2538 C   0  0  0  0  0  0  0  0  0  0  0  0
    3.2383   -3.2665   -0.5519 C   0  0  0  0  0  0  0  0  0  0  0  0
    3.4165   -4.3324   -0.6364 H   0  0  0  0  0  0  0  0  0  0  0  0
    4.0527   -2.4696    0.2652 C   0  0  0  0  0  0  0  0  0  0  0  0
    4.8706   -2.9194    0.8195 H   0  0  0  0  0  0  0  0  0  0  0  0
    3.8078   -1.0920    0.3736 C   0  0  0  0  0  0  0  0  0  0  0  0
    4.4344   -0.4781    1.0135 H   0  0  0  0  0  0  0  0  0  0  0  0
    2.7502   -0.5050   -0.3360 C   0  0  0  0  0  0  0  0  0  0  0  0
    2.5516    0.5579   -0.2469 H   0  0  0  0  0  0  0  0  0  0  0  0
    1.9465   -1.3069   -1.1531 C   0  0  0  0  0  0  0  0  0  0  0  0
   -1.2015    2.2113   -1.2198 C   0  0  0  0  0  0  0  0  0  0  0  0
   -1.2570    2.9348   -0.2365 O   0  0  0  0  0  0  0  0  0  0  0  0
   -1.5890    2.7261   -2.4464 N   0  0  0  0  0  0  0  0  0  0  0  0
   -1.4770    2.1307   -3.2608 H   0  0  0  0  0  0  0  0  0  0  0  0
   -1.9671    4.1210   -2.6416 C   0  0  0  0  0  0  0  0  0  0  0  0
   -1.1395    4.7844   -2.3693 H   0  0  0  0  0  0  0  0  0  0  0  0
   -2.2237    4.3005   -3.6900 H   0  0  0  0  0  0  0  0  0  0  0  0
   -2.8370    4.3724   -2.0256 H   0  0  0  0  0  0  0  0  0  0  0  0
  1  2  1  0  0  0  0
  2  3  1  0  0  0  0
  2  4  1  0  0  0  0
  2  5  1  0  0  0  0
  5  6  2  0  0  0  0
  5  7  1  0  0  0  0
  7  8  1  0  0  0  0
  7  9  1  0  0  0  0
  9 10  1  0  0  0  0
  9 11  1  0  0  0  0
  9 29  1  0  0  0  0
 11 12  1  0  0  0  0
 11 13  1  0  0  0  0
 11 14  1  0  0  0  0
 14 15  2  0  0  0  0
 14 28  1  0  0  0  0
 15 16  1  0  0  0  0
 15 17  1  0  0  0  0
 17 18  1  0  0  0  0
 17 19  1  0  0  0  0
 19 20  1  0  0  0  0
 19 28  2  0  0  0  0
 20 21  1  0  0  0  0
 20 22  2  0  0  0  0
 22 23  1  0  0  0  0
 22 24  1  0  0  0  0
 24 25  1  0  0  0  0
 24 26  2  0  0  0  0
 26 27  1  0  0  0  0
 26 28  1  0  0  0  0
 29 30  2  0  0  0  0
 29 31  1  0  0  0  0
 31 32  1  0  0  0  0
 31 33  1  0  0  0  0
 33 34  1  0  0  0  0
 33 35  1  0  0  0  0
 33 36  1  0  0  0  0
M  END
$$$$

  -OEChem-01062216103D

 36 37  0     1  0  0  0  0  0999 V2000
   -3.5677   -2.7460    0.4743 H   0  0  0  0  0  0  0  0  0  0  0  0
   -3.5402   -1.9712   -0.2969 C   0  0  0  0  0  0  0  0  0  0  0  0
   -4.3831   -1.2934   -0.1426 H   0  0  0  0  0  0  0  0  0  0  0  0
   -3.6354   -2.4469   -1.2755 H   0  0  0  0  0  0  0  0  0  0  0  0
   -2.2336   -1.2037   -0.2162 C   0  0  0  0  0  0  0  0  0  0  0  0
   -1.4179   -1.5016    0.6371 O   0  0  0  0  0  0  0  0  0  0  0  0
   -2.0122   -0.1554   -1.0884 N   0  0  0  0  0  0  0  0  0  0  0  0
   -2.7940    0.1130   -1.6757 H   0  0  0  0  0  0  0  0  0  0  0  0
   -0.8226    0.7202   -1.0539 C   0  0  1  0  0  0  0  0  0  0  0  0
   -0.3044    0.6158   -0.0933 H   0  0  0  0  0  0  0  0  0  0  0  0
    0.1603    0.3576   -2.1832 C   0  0  0  0  0  0  0  0  0  0  0  0
   -0.3646    0.3778   -3.1429 H   0  0  0  0  0  0  0  0  0  0  0  0
    0.9607    1.1034   -2.2303 H   0  0  0  0  0  0  0  0  0  0  0  0
    0.7802   -1.0008   -1.9924 C   0  0  0  0  0  0  0  0  0  0  0  0
    0.3751   -2.1816   -2.5668 C   0  0  0  0  0  0  0  0  0  0  0  0
   -0.4679   -2.3000   -3.2421 H   0  0  0  0  0  0  0  0  0  0  0  0
    1.2372   -3.1833   -2.1259 N   0  0  0  0  0  0  0  0  0  0  0  0
    1.1660   -4.1704   -2.3599 H   0  0  0  0  0  0  0  0  0  0  0  0
    2.1868   -2.6565   -1.2647 C   0  0  0  0  0  0  0  0  0  0  0  0
    3.2400   -3.2489   -0.5673 C   0  0  0  0  0  0  0  0  0  0  0  0
    3.4237   -4.3136   -0.6564 H   0  0  0  0  0  0  0  0  0  0  0  0
    4.0513   -2.4510    0.2523 C   0  0  0  0  0  0  0  0  0  0  0  0
    4.8722   -2.8986    0.8044 H   0  0  0  0  0  0  0  0  0  0  0  0
    3.7993   -1.0748    0.3664 C   0  0  0  0  0  0  0  0  0  0  0  0
    4.4236   -0.4598    1.0074 H   0  0  0  0  0  0  0  0  0  0  0  0
    2.7366   -0.4908   -0.3379 C   0  0  0  0  0  0  0  0  0  0  0  0
    2.5322    0.5709   -0.2445 H   0  0  0  0  0  0  0  0  0  0  0  0
    1.9353   -1.2942   -1.1557 C   0  0  0  0  0  0  0  0  0  0  0  0
   -1.2170    2.2025   -1.1969 C   0  0  0  0  0  0  0  0  0  0  0  0
   -0.9581    3.0044   -0.3119 O   0  0  0  0  0  0  0  0  0  0  0  0
   -1.8864    2.6436   -2.3272 N   0  0  0  0  0  0  0  0  0  0  0  0
   -1.9916    1.9879   -3.0943 H   0  0  0  0  0  0  0  0  0  0  0  0
   -2.2374    4.0423   -2.5456 C   0  0  0  0  0  0  0  0  0  0  0  0
   -1.3415    4.6719   -2.5222 H   0  0  0  0  0  0  0  0  0  0  0  0
   -2.7201    4.1644   -3.5200 H   0  0  0  0  0  0  0  0  0  0  0  0
   -2.9305    4.3877   -1.7713 H   0  0  0  0  0  0  0  0  0  0  0  0
  1  2  1  0  0  0  0
  2  3  1  0  0  0  0
  2  4  1  0  0  0  0
  2  5  1  0  0  0  0
  5  6  2  0  0  0  0
  5  7  1  0  0  0  0
  7  8  1  0  0  0  0
  7  9  1  0  0  0  0
  9 10  1  0  0  0  0
  9 11  1  0  0  0  0
  9 29  1  0  0  0  0
 11 12  1  0  0  0  0
 11 13  1  0  0  0  0
 11 14  1  0  0  0  0
 14 15  2  0  0  0  0
 14 28  1  0  0  0  0
 15 16  1  0  0  0  0
 15 17  1  0  0  0  0
 17 18  1  0  0  0  0
 17 19  1  0  0  0  0
 19 20  1  0  0  0  0
 19 28  2  0  0  0  0
 20 21  1  0  0  0  0
 20 22  2  0  0  0  0
 22 23  1  0  0  0  0
 22 24  1  0  0  0  0
 24 25  1  0  0  0  0
 24 26  2  0  0  0  0
 26 27  1  0  0  0  0
 26 28  1  0  0  0  0
 29 30  2  0  0  0  0
 29 31  1  0  0  0  0
 31 32  1  0  0  0  0
 31 33  1  0  0  0  0
 33 34  1  0  0  0  0
 33 35  1  0  0  0  0
 33 36  1  0  0  0  0
M  END
$$$$

  -OEChem-01062216103D

 36 37  0     1  0  0  0  0  0999 V2000
   -3.2850   -2.9368    0.4039 H   0  0  0  0  0  0  0  0  0  0  0  0
   -3.2967   -2.1752   -0.3813 C   0  0  0  0  0  0  0  0  0  0  0  0
   -4.2767   -1.6924   -0.3878 H   0  0  0  0  0  0  0  0  0  0  0  0
   -3.1279   -2.6625   -1.3441 H   0  0  0  0  0  0  0  0  0  0  0  0
   -2.2126   -1.1455   -0.1240 C   0  0  0  0  0  0  0  0  0  0  0  0
   -1.5349   -1.2302    0.8842 O   0  0  0  0  0  0  0  0  0  0  0  0
   -2.0343   -0.1118   -1.0241 N   0  0  0  0  0  0  0  0  0  0  0  0
   -2.5911   -0.1675   -1.8679 H   0  0  0  0  0  0  0  0  0  0  0  0
   -0.8432    0.7651   -1.0292 C   0  0  1  0  0  0  0  0  0  0  0  0
   -0.2928    0.6654   -0.0863 H   0  0  0  0  0  0  0  0  0  0  0  0
    0.0944    0.3802   -2.1875 C   0  0  0  0  0  0  0  0  0  0  0  0
   -0.4625    0.3980   -3.1292 H   0  0  0  0  0  0  0  0  0  0  0  0
    0.9020    1.1156   -2.2712 H   0  0  0  0  0  0  0  0  0  0  0  0
    0.7034   -0.9834   -1.9908 C   0  0  0  0  0  0  0  0  0  0  0  0
    0.2654   -2.1698   -2.5300 C   0  0  0  0  0  0  0  0  0  0  0  0
   -0.5863   -2.2876   -3.1941 H   0  0  0  0  0  0  0  0  0  0  0  0
    1.1114   -3.1790   -2.0754 N   0  0  0  0  0  0  0  0  0  0  0  0
    1.0300   -4.1678   -2.3004 H   0  0  0  0  0  0  0  0  0  0  0  0
    2.0820   -2.6521   -1.2381 C   0  0  0  0  0  0  0  0  0  0  0  0
    3.1317   -3.2494   -0.5398 C   0  0  0  0  0  0  0  0  0  0  0  0
    3.2955   -4.3188   -0.6079 H   0  0  0  0  0  0  0  0  0  0  0  0
    3.9659   -2.4499    0.2547 C   0  0  0  0  0  0  0  0  0  0  0  0
    4.7838   -2.9015    0.8078 H   0  0  0  0  0  0  0  0  0  0  0  0
    3.7408   -1.0672    0.3420 C   0  0  0  0  0  0  0  0  0  0  0  0
    4.3827   -0.4503    0.9636 H   0  0  0  0  0  0  0  0  0  0  0  0
    2.6834   -0.4776   -0.3656 C   0  0  0  0  0  0  0  0  0  0  0  0
    2.4998    0.5898   -0.2949 H   0  0  0  0  0  0  0  0  0  0  0  0
    1.8593   -1.2828   -1.1581 C   0  0  0  0  0  0  0  0  0  0  0  0
   -1.2017    2.2574   -1.1765 C   0  0  0  0  0  0  0  0  0  0  0  0
   -0.5713    3.1031   -0.5580 O   0  0  0  0  0  0  0  0  0  0  0  0
   -2.1359    2.6776   -2.1096 N   0  0  0  0  0  0  0  0  0  0  0  0
   -2.6310    1.9677   -2.6359 H   0  0  0  0  0  0  0  0  0  0  0  0
   -2.4484    4.0818   -2.3496 C   0  0  0  0  0  0  0  0  0  0  0  0
   -1.5663    4.6114   -2.7247 H   0  0  0  0  0  0  0  0  0  0  0  0
   -3.2471    4.1705   -3.0921 H   0  0  0  0  0  0  0  0  0  0  0  0
   -2.7822    4.5648   -1.4250 H   0  0  0  0  0  0  0  0  0  0  0  0
  1  2  1  0  0  0  0
  2  3  1  0  0  0  0
  2  4  1  0  0  0  0
  2  5  1  0  0  0  0
  5  6  2  0  0  0  0
  5  7  1  0  0  0  0
  7  8  1  0  0  0  0
  7  9  1  0  0  0  0
  9 10  1  0  0  0  0
  9 11  1  0  0  0  0
  9 29  1  0  0  0  0
 11 12  1  0  0  0  0
 11 13  1  0  0  0  0
 11 14  1  0  0  0  0
 14 15  2  0  0  0  0
 14 28  1  0  0  0  0
 15 16  1  0  0  0  0
 15 17  1  0  0  0  0
 17 18  1  0  0  0  0
 17 19  1  0  0  0  0
 19 20  1  0  0  0  0
 19 28  2  0  0  0  0
 20 21  1  0  0  0  0
 20 22  2  0  0  0  0
 22 23  1  0  0  0  0
 22 24  1  0  0  0  0
 24 25  1  0  0  0  0
 24 26  2  0  0  0  0
 26 27  1  0  0  0  0
 26 28  1  0  0  0  0
 29 30  2  0  0  0  0
 29 31  1  0  0  0  0
 31 32  1  0  0  0  0
 31 33  1  0  0  0  0
 33 34  1  0  0  0  0
 33 35  1  0  0  0  0
 33 36  1  0  0  0  0
M  END
$$$$

  -OEChem-01062216103D

 36 37  0     1  0  0  0  0  0999 V2000
   -3.1878   -2.9684    0.3816 H   0  0  0  0  0  0  0  0  0  0  0  0
   -3.2024   -2.2237   -0.4195 C   0  0  0  0  0  0  0  0  0  0  0  0
   -4.2104   -1.8096   -0.4967 H   0  0  0  0  0  0  0  0  0  0  0  0
   -2.9416   -2.7158   -1.3591 H   0  0  0  0  0  0  0  0  0  0  0  0
   -2.2081   -1.1183   -0.1192 C   0  0  0  0  0  0  0  0  0  0  0  0
   -1.6018   -1.1275    0.9370 O   0  0  0  0  0  0  0  0  0  0  0  0
   -2.0415   -0.0924   -1.0301 N   0  0  0  0  0  0  0  0  0  0  0  0
   -2.5061   -0.2391   -1.9187 H   0  0  0  0  0  0  0  0  0  0  0  0
   -0.8465    0.7796   -1.0342 C   0  0  1  0  0  0  0  0  0  0  0  0
   -0.2947    0.6803   -0.0923 H   0  0  0  0  0  0  0  0  0  0  0  0
    0.0849    0.3823   -2.1941 C   0  0  0  0  0  0  0  0  0  0  0  0
   -0.4743    0.4027   -3.1344 H   0  0  0  0  0  0  0  0  0  0  0  0
    0.8999    1.1088   -2.2834 H   0  0  0  0  0  0  0  0  0  0  0  0
    0.6815   -0.9856   -1.9912 C   0  0  0  0  0  0  0  0  0  0  0  0
    0.2343   -2.1727   -2.5213 C   0  0  0  0  0  0  0  0  0  0  0  0
   -0.6165   -2.2896   -3.1871 H   0  0  0  0  0  0  0  0  0  0  0  0
    1.0714   -3.1845   -2.0559 N   0  0  0  0  0  0  0  0  0  0  0  0
    0.9856   -4.1740   -2.2770 H   0  0  0  0  0  0  0  0  0  0  0  0
    2.0480   -2.6578   -1.2250 C   0  0  0  0  0  0  0  0  0  0  0  0
    3.0964   -3.2552   -0.5244 C   0  0  0  0  0  0  0  0  0  0  0  0
    3.2536   -4.3263   -0.5834 H   0  0  0  0  0  0  0  0  0  0  0  0
    3.9403   -2.4534    0.2580 C   0  0  0  0  0  0  0  0  0  0  0  0
    4.7590   -2.9042    0.8108 H   0  0  0  0  0  0  0  0  0  0  0  0
    3.7257   -1.0683    0.3316 C   0  0  0  0  0  0  0  0  0  0  0  0
    4.3757   -0.4487    0.9422 H   0  0  0  0  0  0  0  0  0  0  0  0
    2.6695   -0.4787   -0.3774 C   0  0  0  0  0  0  0  0  0  0  0  0
    2.4962    0.5915   -0.3191 H   0  0  0  0  0  0  0  0  0  0  0  0
    1.8361   -1.2863   -1.1578 C   0  0  0  0  0  0  0  0  0  0  0  0
   -1.1945    2.2740   -1.1849 C   0  0  0  0  0  0  0  0  0  0  0  0
   -0.3908    3.1258   -0.8317 O   0  0  0  0  0  0  0  0  0  0  0  0
   -2.3224    2.6721   -1.8830 N   0  0  0  0  0  0  0  0  0  0  0  0
   -3.0272    1.9630   -2.0496 H   0  0  0  0  0  0  0  0  0  0  0  0
   -2.6819    4.0726   -2.0719 C   0  0  0  0  0  0  0  0  0  0  0  0
   -1.8866    4.6039   -2.6053 H   0  0  0  0  0  0  0  0  0  0  0  0
   -3.6013    4.1518   -2.6596 H   0  0  0  0  0  0  0  0  0  0  0  0
   -2.8443    4.5603   -1.1050 H   0  0  0  0  0  0  0  0  0  0  0  0
  1  2  1  0  0  0  0
  2  3  1  0  0  0  0
  2  4  1  0  0  0  0
  2  5  1  0  0  0  0
  5  6  2  0  0  0  0
  5  7  1  0  0  0  0
  7  8  1  0  0  0  0
  7  9  1  0  0  0  0
  9 10  1  0  0  0  0
  9 11  1  0  0  0  0
  9 29  1  0  0  0  0
 11 12  1  0  0  0  0
 11 13  1  0  0  0  0
 11 14  1  0  0  0  0
 14 15  2  0  0  0  0
 14 28  1  0  0  0  0
 15 16  1  0  0  0  0
 15 17  1  0  0  0  0
 17 18  1  0  0  0  0
 17 19  1  0  0  0  0
 19 20  1  0  0  0  0
 19 28  2  0  0  0  0
 20 21  1  0  0  0  0
 20 22  2  0  0  0  0
 22 23  1  0  0  0  0
 22 24  1  0  0  0  0
 24 25  1  0  0  0  0
 24 26  2  0  0  0  0
 26 27  1  0  0  0  0
 26 28  1  0  0  0  0
 29 30  2  0  0  0  0
 29 31  1  0  0  0  0
 31 32  1  0  0  0  0
 31 33  1  0  0  0  0
 33 34  1  0  0  0  0
 33 35  1  0  0  0  0
 33 36  1  0  0  0  0
M  END
$$$$

  -OEChem-01062216103D

 36 37  0     1  0  0  0  0  0999 V2000
   -3.1651   -2.9647    0.3761 H   0  0  0  0  0  0  0  0  0  0  0  0
   -3.1695   -2.2311   -0.4352 C   0  0  0  0  0  0  0  0  0  0  0  0
   -4.1798   -1.8288   -0.5403 H   0  0  0  0  0  0  0  0  0  0  0  0
   -2.8829   -2.7330   -1.3623 H   0  0  0  0  0  0  0  0  0  0  0  0
   -2.1932   -1.1114   -0.1285 C   0  0  0  0  0  0  0  0  0  0  0  0
   -1.6032   -1.1025    0.9369 O   0  0  0  0  0  0  0  0  0  0  0  0
   -2.0309   -0.0845   -1.0387 N   0  0  0  0  0  0  0  0  0  0  0  0
   -2.4862   -0.2352   -1.9322 H   0  0  0  0  0  0  0  0  0  0  0  0
   -0.8378    0.7910   -1.0414 C   0  0  1  0  0  0  0  0  0  0  0  0
   -0.2834    0.6960   -0.1009 H   0  0  0  0  0  0  0  0  0  0  0  0
    0.0895    0.3874   -2.2043 C   0  0  0  0  0  0  0  0  0  0  0  0
   -0.4738    0.4075   -3.1423 H   0  0  0  0  0  0  0  0  0  0  0  0
    0.9066    1.1100   -2.3011 H   0  0  0  0  0  0  0  0  0  0  0  0
    0.6847   -0.9819   -1.9992 C   0  0  0  0  0  0  0  0  0  0  0  0
    0.2315   -2.1685   -2.5253 C   0  0  0  0  0  0  0  0  0  0  0  0
   -0.6186   -2.2816   -3.1925 H   0  0  0  0  0  0  0  0  0  0  0  0
    1.0610   -3.1843   -2.0550 N   0  0  0  0  0  0  0  0  0  0  0  0
    0.9729   -4.1734   -2.2767 H   0  0  0  0  0  0  0  0  0  0  0  0
    2.0382   -2.6611   -1.2229 C   0  0  0  0  0  0  0  0  0  0  0  0
    3.0798   -3.2633   -0.5162 C   0  0  0  0  0  0  0  0  0  0  0  0
    3.2303   -4.3356   -0.5700 H   0  0  0  0  0  0  0  0  0  0  0  0
    3.9250   -2.4642    0.2671 C   0  0  0  0  0  0  0  0  0  0  0  0
    4.7377   -2.9189    0.8255 H   0  0  0  0  0  0  0  0  0  0  0  0
    3.7188   -1.0775    0.3355 C   0  0  0  0  0  0  0  0  0  0  0  0
    4.3700   -0.4611    0.9477 H   0  0  0  0  0  0  0  0  0  0  0  0
    2.6698   -0.4831   -0.3804 C   0  0  0  0  0  0  0  0  0  0  0  0
    2.5026    0.5881   -0.3277 H   0  0  0  0  0  0  0  0  0  0  0  0
    1.8347   -1.2878   -1.1614 C   0  0  0  0  0  0  0  0  0  0  0  0
   -1.1982    2.2842   -1.1905 C   0  0  0  0  0  0  0  0  0  0  0  0
   -0.3336    3.1417   -1.0710 O   0  0  0  0  0  0  0  0  0  0  0  0
   -2.4623    2.6653   -1.6072 N   0  0  0  0  0  0  0  0  0  0  0  0
   -3.1848    1.9563   -1.5386 H   0  0  0  0  0  0  0  0  0  0  0  0
   -2.8652    4.0608   -1.7371 C   0  0  0  0  0  0  0  0  0  0  0  0
   -2.2230    4.5805   -2.4560 H   0  0  0  0  0  0  0  0  0  0  0  0
   -3.8984    4.1248   -2.0914 H   0  0  0  0  0  0  0  0  0  0  0  0
   -2.7967    4.5716   -0.7707 H   0  0  0  0  0  0  0  0  0  0  0  0
  1  2  1  0  0  0  0
  2  3  1  0  0  0  0
  2  4  1  0  0  0  0
  2  5  1  0  0  0  0
  5  6  2  0  0  0  0
  5  7  1  0  0  0  0
  7  8  1  0  0  0  0
  7  9  1  0  0  0  0
  9 10  1  0  0  0  0
  9 11  1  0  0  0  0
  9 29  1  0  0  0  0
 11 12  1  0  0  0  0
 11 13  1  0  0  0  0
 11 14  1  0  0  0  0
 14 15  2  0  0  0  0
 14 28  1  0  0  0  0
 15 16  1  0  0  0  0
 15 17  1  0  0  0  0
 17 18  1  0  0  0  0
 17 19  1  0  0  0  0
 19 20  1  0  0  0  0
 19 28  2  0  0  0  0
 20 21  1  0  0  0  0
 20 22  2  0  0  0  0
 22 23  1  0  0  0  0
 22 24  1  0  0  0  0
 24 25  1  0  0  0  0
 24 26  2  0  0  0  0
 26 27  1  0  0  0  0
 26 28  1  0  0  0  0
 29 30  2  0  0  0  0
 29 31  1  0  0  0  0
 31 32  1  0  0  0  0
 31 33  1  0  0  0  0
 33 34  1  0  0  0  0
 33 35  1  0  0  0  0
 33 36  1  0  0  0  0
M  END
$$$$

  -OEChem-01062216103D

 36 37  0     1  0  0  0  0  0999 V2000
   -3.1684   -2.9623    0.3559 H   0  0  0  0  0  0  0  0  0  0  0  0
   -3.1712   -2.2257   -0.4528 C   0  0  0  0  0  0  0  0  0  0  0  0
   -4.1793   -1.8164   -0.5520 H   0  0  0  0  0  0  0  0  0  0  0  0
   -2.8924   -2.7263   -1.3828 H   0  0  0  0  0  0  0  0  0  0  0  0
   -2.1856   -1.1138   -0.1462 C   0  0  0  0  0  0  0  0  0  0  0  0
   -1.5955   -1.1088    0.9193 O   0  0  0  0  0  0  0  0  0  0  0  0
   -2.0223   -0.0805   -1.0488 N   0  0  0  0  0  0  0  0  0  0  0  0
   -2.4935   -0.2087   -1.9381 H   0  0  0  0  0  0  0  0  0  0  0  0
   -0.8302    0.7972   -1.0490 C   0  0  1  0  0  0  0  0  0  0  0  0
   -0.2767    0.7018   -0.1082 H   0  0  0  0  0  0  0  0  0  0  0  0
    0.0973    0.3890   -2.2125 C   0  0  0  0  0  0  0  0  0  0  0  0
   -0.4663    0.4075   -3.1503 H   0  0  0  0  0  0  0  0  0  0  0  0
    0.9178    1.1071   -2.3132 H   0  0  0  0  0  0  0  0  0  0  0  0
    0.6902   -0.9803   -2.0027 C   0  0  0  0  0  0  0  0  0  0  0  0
    0.2338   -2.1671   -2.5256 C   0  0  0  0  0  0  0  0  0  0  0  0
   -0.6155   -2.2795   -3.1943 H   0  0  0  0  0  0  0  0  0  0  0  0
    1.0572   -3.1842   -2.0479 N   0  0  0  0  0  0  0  0  0  0  0  0
    0.9650   -4.1739   -2.2655 H   0  0  0  0  0  0  0  0  0  0  0  0
    2.0345   -2.6611   -1.2161 C   0  0  0  0  0  0  0  0  0  0  0  0
    3.0711   -3.2651   -0.5042 C   0  0  0  0  0  0  0  0  0  0  0  0
    3.2143   -4.3386   -0.5514 H   0  0  0  0  0  0  0  0  0  0  0  0
    3.9209   -2.4665    0.2746 C   0  0  0  0  0  0  0  0  0  0  0  0
    4.7307   -2.9229    0.8359 H   0  0  0  0  0  0  0  0  0  0  0  0
    3.7239   -1.0779    0.3332 C   0  0  0  0  0  0  0  0  0  0  0  0
    4.3799   -0.4612    0.9400 H   0  0  0  0  0  0  0  0  0  0  0  0
    2.6786   -0.4819   -0.3867 C   0  0  0  0  0  0  0  0  0  0  0  0
    2.5196    0.5909   -0.3422 H   0  0  0  0  0  0  0  0  0  0  0  0
    1.8385   -1.2866   -1.1625 C   0  0  0  0  0  0  0  0  0  0  0  0
   -1.2040    2.2897   -1.1898 C   0  0  0  0  0  0  0  0  0  0  0  0
   -0.3351    3.1448   -1.2984 O   0  0  0  0  0  0  0  0  0  0  0  0
   -2.5303    2.6710   -1.2961 N   0  0  0  0  0  0  0  0  0  0  0  0
   -3.2147    1.9650   -1.0421 H   0  0  0  0  0  0  0  0  0  0  0  0
   -2.9545    4.0641   -1.3689 C   0  0  0  0  0  0  0  0  0  0  0  0
   -2.4996    4.5595   -2.2332 H   0  0  0  0  0  0  0  0  0  0  0  0
   -4.0422    4.1230   -1.4731 H   0  0  0  0  0  0  0  0  0  0  0  0
   -2.6626    4.6018   -0.4607 H   0  0  0  0  0  0  0  0  0  0  0  0
  1  2  1  0  0  0  0
  2  3  1  0  0  0  0
  2  4  1  0  0  0  0
  2  5  1  0  0  0  0
  5  6  2  0  0  0  0
  5  7  1  0  0  0  0
  7  8  1  0  0  0  0
  7  9  1  0  0  0  0
  9 10  1  0  0  0  0
  9 11  1  0  0  0  0
  9 29  1  0  0  0  0
 11 12  1  0  0  0  0
 11 13  1  0  0  0  0
 11 14  1  0  0  0  0
 14 15  2  0  0  0  0
 14 28  1  0  0  0  0
 15 16  1  0  0  0  0
 15 17  1  0  0  0  0
 17 18  1  0  0  0  0
 17 19  1  0  0  0  0
 19 20  1  0  0  0  0
 19 28  2  0  0  0  0
 20 21  1  0  0  0  0
 20 22  2  0  0  0  0
 22 23  1  0  0  0  0
 22 24  1  0  0  0  0
 24 25  1  0  0  0  0
 24 26  2  0  0  0  0
 26 27  1  0  0  0  0
 26 28  1  0  0  0  0
 29 30  2  0  0  0  0
 29 31  1  0  0  0  0
 31 32  1  0  0  0  0
 31 33  1  0  0  0  0
 33 34  1  0  0  0  0
 33 35  1  0  0  0  0
 33 36  1  0  0  0  0
M  END
$$$$

  -OEChem-01062216103D

 36 37  0     1  0  0  0  0  0999 V2000
   -3.1912   -2.9546    0.3261 H   0  0  0  0  0  0  0  0  0  0  0  0
   -3.1959   -2.2040   -0.4695 C   0  0  0  0  0  0  0  0  0  0  0  0
   -4.1987   -1.7770   -0.5448 H   0  0  0  0  0  0  0  0  0  0  0  0
   -2.9412   -2.6927   -1.4127 H   0  0  0  0  0  0  0  0  0  0  0  0
   -2.1877   -1.1126   -0.1621 C   0  0  0  0  0  0  0  0  0  0  0  0
   -1.5892   -1.1248    0.8987 O   0  0  0  0  0  0  0  0  0  0  0  0
   -2.0170   -0.0717   -1.0541 N   0  0  0  0  0  0  0  0  0  0  0  0
   -2.5137   -0.1654   -1.9342 H   0  0  0  0  0  0  0  0  0  0  0  0
   -0.8237    0.8034   -1.0500 C   0  0  1  0  0  0  0  0  0  0  0  0
   -0.2736    0.7062   -0.1075 H   0  0  0  0  0  0  0  0  0  0  0  0
    0.1077    0.3891   -2.2096 C   0  0  0  0  0  0  0  0  0  0  0  0
   -0.4518    0.4092   -3.1498 H   0  0  0  0  0  0  0  0  0  0  0  0
    0.9332    1.1016   -2.3083 H   0  0  0  0  0  0  0  0  0  0  0  0
    0.6961   -0.9815   -1.9950 C   0  0  0  0  0  0  0  0  0  0  0  0
    0.2378   -2.1678   -2.5172 C   0  0  0  0  0  0  0  0  0  0  0  0
   -0.6120   -2.2788   -3.1851 H   0  0  0  0  0  0  0  0  0  0  0  0
    1.0609   -3.1857   -2.0405 N   0  0  0  0  0  0  0  0  0  0  0  0
    0.9678   -4.1752   -2.2589 H   0  0  0  0  0  0  0  0  0  0  0  0
    2.0409   -2.6633   -1.2112 C   0  0  0  0  0  0  0  0  0  0  0  0
    3.0801   -3.2675   -0.5033 C   0  0  0  0  0  0  0  0  0  0  0  0
    3.2238   -4.3409   -0.5514 H   0  0  0  0  0  0  0  0  0  0  0  0
    3.9329   -2.4691    0.2722 C   0  0  0  0  0  0  0  0  0  0  0  0
    4.7449   -2.9261    0.8297 H   0  0  0  0  0  0  0  0  0  0  0  0
    3.7372   -1.0805    0.3312 C   0  0  0  0  0  0  0  0  0  0  0  0
    4.3966   -0.4641    0.9346 H   0  0  0  0  0  0  0  0  0  0  0  0
    2.6896   -0.4842   -0.3849 C   0  0  0  0  0  0  0  0  0  0  0  0
    2.5320    0.5888   -0.3410 H   0  0  0  0  0  0  0  0  0  0  0  0
    1.8460   -1.2886   -1.1573 C   0  0  0  0  0  0  0  0  0  0  0  0
   -1.2111    2.2952   -1.1806 C   0  0  0  0  0  0  0  0  0  0  0  0
   -0.3942    3.1382   -1.5277 O   0  0  0  0  0  0  0  0  0  0  0  0
   -2.5208    2.6899   -0.9710 N   0  0  0  0  0  0  0  0  0  0  0  0
   -3.1338    1.9948   -0.5544 H   0  0  0  0  0  0  0  0  0  0  0  0
   -2.9541    4.0815   -1.0078 C   0  0  0  0  0  0  0  0  0  0  0  0
   -2.7225    4.5304   -1.9794 H   0  0  0  0  0  0  0  0  0  0  0  0
   -4.0348    4.1452   -0.8498 H   0  0  0  0  0  0  0  0  0  0  0  0
   -2.4534    4.6596   -0.2241 H   0  0  0  0  0  0  0  0  0  0  0  0
  1  2  1  0  0  0  0
  2  3  1  0  0  0  0
  2  4  1  0  0  0  0
  2  5  1  0  0  0  0
  5  6  2  0  0  0  0
  5  7  1  0  0  0  0
  7  8  1  0  0  0  0
  7  9  1  0  0  0  0
  9 10  1  0  0  0  0
  9 11  1  0  0  0  0
  9 29  1  0  0  0  0
 11 12  1  0  0  0  0
 11 13  1  0  0  0  0
 11 14  1  0  0  0  0
 14 15  2  0  0  0  0
 14 28  1  0  0  0  0
 15 16  1  0  0  0  0
 15 17  1  0  0  0  0
 17 18  1  0  0  0  0
 17 19  1  0  0  0  0
 19 20  1  0  0  0  0
 19 28  2  0  0  0  0
 20 21  1  0  0  0  0
 20 22  2  0  0  0  0
 22 23  1  0  0  0  0
 22 24  1  0  0  0  0
 24 25  1  0  0  0  0
 24 26  2  0  0  0  0
 26 27  1  0  0  0  0
 26 28  1  0  0  0  0
 29 30  2  0  0  0  0
 29 31  1  0  0  0  0
 31 32  1  0  0  0  0
 31 33  1  0  0  0  0
 33 34  1  0  0  0  0
 33 35  1  0  0  0  0
 33 36  1  0  0  0  0
M  END
$$$$

  -OEChem-01062216103D

 36 37  0     1  0  0  0  0  0999 V2000
   -3.2059   -2.9286    0.3159 H   0  0  0  0  0  0  0  0  0  0  0  0
   -3.2033   -2.1771   -0.4788 C   0  0  0  0  0  0  0  0  0  0  0  0
   -4.1999   -1.7349   -0.5490 H   0  0  0  0  0  0  0  0  0  0  0  0
   -2.9603   -2.6681   -1.4238 H   0  0  0  0  0  0  0  0  0  0  0  0
   -2.1779   -1.1015   -0.1743 C   0  0  0  0  0  0  0  0  0  0  0  0
   -1.5750   -1.1224    0.8840 O   0  0  0  0  0  0  0  0  0  0  0  0
   -2.0044   -0.0551   -1.0581 N   0  0  0  0  0  0  0  0  0  0  0  0
   -2.5215   -0.1240   -1.9288 H   0  0  0  0  0  0  0  0  0  0  0  0
   -0.8088    0.8151   -1.0561 C   0  0  1  0  0  0  0  0  0  0  0  0
   -0.2575    0.7161   -0.1148 H   0  0  0  0  0  0  0  0  0  0  0  0
    0.1230    0.3983   -2.2150 C   0  0  0  0  0  0  0  0  0  0  0  0
   -0.4354    0.4185   -3.1559 H   0  0  0  0  0  0  0  0  0  0  0  0
    0.9504    1.1089   -2.3119 H   0  0  0  0  0  0  0  0  0  0  0  0
    0.7070   -0.9736   -1.9970 C   0  0  0  0  0  0  0  0  0  0  0  0
    0.2431   -2.1574   -2.5196 C   0  0  0  0  0  0  0  0  0  0  0  0
   -0.6065   -2.2639   -3.1886 H   0  0  0  0  0  0  0  0  0  0  0  0
    1.0573   -3.1800   -2.0378 N   0  0  0  0  0  0  0  0  0  0  0  0
    0.9554   -4.1695   -2.2513 H   0  0  0  0  0  0  0  0  0  0  0  0
    2.0388   -2.6628   -1.2072 C   0  0  0  0  0  0  0  0  0  0  0  0
    3.0708   -3.2743   -0.4949 C   0  0  0  0  0  0  0  0  0  0  0  0
    3.2043   -4.3492   -0.5399 H   0  0  0  0  0  0  0  0  0  0  0  0
    3.9296   -2.4813    0.2797 C   0  0  0  0  0  0  0  0  0  0  0  0
    4.7363   -2.9435    0.8409 H   0  0  0  0  0  0  0  0  0  0  0  0
    3.7466   -1.0906    0.3328 C   0  0  0  0  0  0  0  0  0  0  0  0
    4.4112   -0.4786    0.9349 H   0  0  0  0  0  0  0  0  0  0  0  0
    2.7052   -0.4872   -0.3867 C   0  0  0  0  0  0  0  0  0  0  0  0
    2.5574    0.5872   -0.3472 H   0  0  0  0  0  0  0  0  0  0  0  0
    1.8546   -1.2864   -1.1572 C   0  0  0  0  0  0  0  0  0  0  0  0
   -1.2135    2.3030   -1.1754 C   0  0  0  0  0  0  0  0  0  0  0  0
   -0.5156    3.1214   -1.7605 O   0  0  0  0  0  0  0  0  0  0  0  0
   -2.4274    2.7176   -0.6575 N   0  0  0  0  0  0  0  0  0  0  0  0
   -2.9311    2.0365   -0.0951 H   0  0  0  0  0  0  0  0  0  0  0  0
   -2.8760    4.1044   -0.6628 C   0  0  0  0  0  0  0  0  0  0  0  0
   -2.9197    4.4901   -1.6867 H   0  0  0  0  0  0  0  0  0  0  0  0
   -3.8758    4.1788   -0.2244 H   0  0  0  0  0  0  0  0  0  0  0  0
   -2.1933    4.7306   -0.0790 H   0  0  0  0  0  0  0  0  0  0  0  0
  1  2  1  0  0  0  0
  2  3  1  0  0  0  0
  2  4  1  0  0  0  0
  2  5  1  0  0  0  0
  5  6  2  0  0  0  0
  5  7  1  0  0  0  0
  7  8  1  0  0  0  0
  7  9  1  0  0  0  0
  9 10  1  0  0  0  0
  9 11  1  0  0  0  0
  9 29  1  0  0  0  0
 11 12  1  0  0  0  0
 11 13  1  0  0  0  0
 11 14  1  0  0  0  0
 14 15  2  0  0  0  0
 14 28  1  0  0  0  0
 15 16  1  0  0  0  0
 15 17  1  0  0  0  0
 17 18  1  0  0  0  0
 17 19  1  0  0  0  0
 19 20  1  0  0  0  0
 19 28  2  0  0  0  0
 20 21  1  0  0  0  0
 20 22  2  0  0  0  0
 22 23  1  0  0  0  0
 22 24  1  0  0  0  0
 24 25  1  0  0  0  0
 24 26  2  0  0  0  0
 26 27  1  0  0  0  0
 26 28  1  0  0  0  0
 29 30  2  0  0  0  0
 29 31  1  0  0  0  0
 31 32  1  0  0  0  0
 31 33  1  0  0  0  0
 33 34  1  0  0  0  0
 33 35  1  0  0  0  0
 33 36  1  0  0  0  0
M  END
$$$$

  -OEChem-01062216103D

 36 37  0     1  0  0  0  0  0999 V2000
   -3.2008   -2.9178    0.3102 H   0  0  0  0  0  0  0  0  0  0  0  0
   -3.2043   -2.1591   -0.4777 C   0  0  0  0  0  0  0  0  0  0  0  0
   -4.2022   -1.7181   -0.5379 H   0  0  0  0  0  0  0  0  0  0  0  0
   -2.9668   -2.6410   -1.4287 H   0  0  0  0  0  0  0  0  0  0  0  0
   -2.1775   -1.0855   -0.1707 C   0  0  0  0  0  0  0  0  0  0  0  0
   -1.5749   -1.1080    0.8883 O   0  0  0  0  0  0  0  0  0  0  0  0
   -1.9988   -0.0376   -1.0512 N   0  0  0  0  0  0  0  0  0  0  0  0
   -2.5241   -0.0936   -1.9181 H   0  0  0  0  0  0  0  0  0  0  0  0
   -0.7984    0.8237   -1.0493 C   0  0  1  0  0  0  0  0  0  0  0  0
   -0.2457    0.7218   -0.1092 H   0  0  0  0  0  0  0  0  0  0  0  0
    0.1342    0.4072   -2.2075 C   0  0  0  0  0  0  0  0  0  0  0  0
   -0.4218    0.4324   -3.1497 H   0  0  0  0  0  0  0  0  0  0  0  0
    0.9629    1.1171   -2.2993 H   0  0  0  0  0  0  0  0  0  0  0  0
    0.7121   -0.9675   -1.9927 C   0  0  0  0  0  0  0  0  0  0  0  0
    0.2439   -2.1469   -2.5208 C   0  0  0  0  0  0  0  0  0  0  0  0
   -0.6061   -2.2458   -3.1909 H   0  0  0  0  0  0  0  0  0  0  0  0
    1.0555   -3.1746   -2.0450 N   0  0  0  0  0  0  0  0  0  0  0  0
    0.9526   -4.1619   -2.2682 H   0  0  0  0  0  0  0  0  0  0  0  0
    2.0383   -2.6648   -1.2113 C   0  0  0  0  0  0  0  0  0  0  0  0
    3.0692   -3.2813   -0.5018 C   0  0  0  0  0  0  0  0  0  0  0  0
    3.2016   -4.3560   -0.5515 H   0  0  0  0  0  0  0  0  0  0  0  0
    3.9290   -2.4936    0.2773 C   0  0  0  0  0  0  0  0  0  0  0  0
    4.7350   -2.9596    0.8362 H   0  0  0  0  0  0  0  0  0  0  0  0
    3.7479   -1.1032    0.3386 C   0  0  0  0  0  0  0  0  0  0  0  0
    4.4127   -0.4955    0.9445 H   0  0  0  0  0  0  0  0  0  0  0  0
    2.7081   -0.4946   -0.3783 C   0  0  0  0  0  0  0  0  0  0  0  0
    2.5619    0.5795   -0.3329 H   0  0  0  0  0  0  0  0  0  0  0  0
    1.8573   -1.2882   -1.1537 C   0  0  0  0  0  0  0  0  0  0  0  0
   -1.2096    2.3088   -1.1628 C   0  0  0  0  0  0  0  0  0  0  0  0
   -0.6834    3.0763   -1.9591 O   0  0  0  0  0  0  0  0  0  0  0  0
   -2.2514    2.7731   -0.3813 N   0  0  0  0  0  0  0  0  0  0  0  0
   -2.6337    2.1223    0.3007 H   0  0  0  0  0  0  0  0  0  0  0  0
   -2.7092    4.1565   -0.3817 C   0  0  0  0  0  0  0  0  0  0  0  0
   -3.0425    4.4497   -1.3827 H   0  0  0  0  0  0  0  0  0  0  0  0
   -3.5485    4.2769    0.3099 H   0  0  0  0  0  0  0  0  0  0  0  0
   -1.9021    4.8266   -0.0677 H   0  0  0  0  0  0  0  0  0  0  0  0
  1  2  1  0  0  0  0
  2  3  1  0  0  0  0
  2  4  1  0  0  0  0
  2  5  1  0  0  0  0
  5  6  2  0  0  0  0
  5  7  1  0  0  0  0
  7  8  1  0  0  0  0
  7  9  1  0  0  0  0
  9 10  1  0  0  0  0
  9 11  1  0  0  0  0
  9 29  1  0  0  0  0
 11 12  1  0  0  0  0
 11 13  1  0  0  0  0
 11 14  1  0  0  0  0
 14 15  2  0  0  0  0
 14 28  1  0  0  0  0
 15 16  1  0  0  0  0
 15 17  1  0  0  0  0
 17 18  1  0  0  0  0
 17 19  1  0  0  0  0
 19 20  1  0  0  0  0
 19 28  2  0  0  0  0
 20 21  1  0  0  0  0
 20 22  2  0  0  0  0
 22 23  1  0  0  0  0
 22 24  1  0  0  0  0
 24 25  1  0  0  0  0
 24 26  2  0  0  0  0
 26 27  1  0  0  0  0
 26 28  1  0  0  0  0
 29 30  2  0  0  0  0
 29 31  1  0  0  0  0
 31 32  1  0  0  0  0
 31 33  1  0  0  0  0
 33 34  1  0  0  0  0
 33 35  1  0  0  0  0
 33 36  1  0  0  0  0
M  END
$$$$

  -OEChem-01062216103D

 36 37  0     1  0  0  0  0  0999 V2000
   -3.2055   -2.8964    0.3312 H   0  0  0  0  0  0  0  0  0  0  0  0
   -3.2033   -2.1431   -0.4618 C   0  0  0  0  0  0  0  0  0  0  0  0
   -4.1966   -1.6920   -0.5219 H   0  0  0  0  0  0  0  0  0  0  0  0
   -2.9728   -2.6336   -1.4103 H   0  0  0  0  0  0  0  0  0  0  0  0
   -2.1652   -1.0776   -0.1643 C   0  0  0  0  0  0  0  0  0  0  0  0
   -1.5497   -1.1076    0.8875 O   0  0  0  0  0  0  0  0  0  0  0  0
   -1.9877   -0.0285   -1.0436 N   0  0  0  0  0  0  0  0  0  0  0  0
   -2.5271   -0.0699   -1.9027 H   0  0  0  0  0  0  0  0  0  0  0  0
   -0.7871    0.8299   -1.0445 C   0  0  1  0  0  0  0  0  0  0  0  0
   -0.2297    0.7257   -0.1075 H   0  0  0  0  0  0  0  0  0  0  0  0
    0.1443    0.4204   -2.2051 C   0  0  0  0  0  0  0  0  0  0  0  0
   -0.4138    0.4473   -3.1466 H   0  0  0  0  0  0  0  0  0  0  0  0
    0.9691    1.1353   -2.2944 H   0  0  0  0  0  0  0  0  0  0  0  0
    0.7240   -0.9547   -1.9970 C   0  0  0  0  0  0  0  0  0  0  0  0
    0.2521   -2.1292   -2.5326 C   0  0  0  0  0  0  0  0  0  0  0  0
   -0.5972   -2.2202   -3.2047 H   0  0  0  0  0  0  0  0  0  0  0  0
    1.0567   -3.1634   -2.0597 N   0  0  0  0  0  0  0  0  0  0  0  0
    0.9484   -4.1495   -2.2862 H   0  0  0  0  0  0  0  0  0  0  0  0
    2.0382   -2.6626   -1.2190 C   0  0  0  0  0  0  0  0  0  0  0  0
    3.0611   -3.2899   -0.5074 C   0  0  0  0  0  0  0  0  0  0  0  0
    3.1857   -4.3654   -0.5623 H   0  0  0  0  0  0  0  0  0  0  0  0
    3.9217   -2.5124    0.2805 C   0  0  0  0  0  0  0  0  0  0  0  0
    4.7209   -2.9872    0.8415 H   0  0  0  0  0  0  0  0  0  0  0  0
    3.7502   -1.1210    0.3475 C   0  0  0  0  0  0  0  0  0  0  0  0
    4.4170   -0.5215    0.9597 H   0  0  0  0  0  0  0  0  0  0  0  0
    2.7180   -0.5015   -0.3717 C   0  0  0  0  0  0  0  0  0  0  0  0
    2.5800    0.5734   -0.3218 H   0  0  0  0  0  0  0  0  0  0  0  0
    1.8650   -1.2850   -1.1553 C   0  0  0  0  0  0  0  0  0  0  0  0
   -1.2040    2.3118   -1.1542 C   0  0  0  0  0  0  0  0  0  0  0  0
   -0.8940    3.0109   -2.1112 O   0  0  0  0  0  0  0  0  0  0  0  0
   -2.0115    2.8468   -0.1681 N   0  0  0  0  0  0  0  0  0  0  0  0
   -2.2597    2.2339    0.6053 H   0  0  0  0  0  0  0  0  0  0  0  0
   -2.4812    4.2261   -0.1651 C   0  0  0  0  0  0  0  0  0  0  0  0
   -3.0920    4.4254   -1.0519 H   0  0  0  0  0  0  0  0  0  0  0  0
   -3.0903    4.4156    0.7240 H   0  0  0  0  0  0  0  0  0  0  0  0
   -1.6332    4.9189   -0.1572 H   0  0  0  0  0  0  0  0  0  0  0  0
  1  2  1  0  0  0  0
  2  3  1  0  0  0  0
  2  4  1  0  0  0  0
  2  5  1  0  0  0  0
  5  6  2  0  0  0  0
  5  7  1  0  0  0  0
  7  8  1  0  0  0  0
  7  9  1  0  0  0  0
  9 10  1  0  0  0  0
  9 11  1  0  0  0  0
  9 29  1  0  0  0  0
 11 12  1  0  0  0  0
 11 13  1  0  0  0  0
 11 14  1  0  0  0  0
 14 15  2  0  0  0  0
 14 28  1  0  0  0  0
 15 16  1  0  0  0  0
 15 17  1  0  0  0  0
 17 18  1  0  0  0  0
 17 19  1  0  0  0  0
 19 20  1  0  0  0  0
 19 28  2  0  0  0  0
 20 21  1  0  0  0  0
 20 22  2  0  0  0  0
 22 23  1  0  0  0  0
 22 24  1  0  0  0  0
 24 25  1  0  0  0  0
 24 26  2  0  0  0  0
 26 27  1  0  0  0  0
 26 28  1  0  0  0  0
 29 30  2  0  0  0  0
 29 31  1  0  0  0  0
 31 32  1  0  0  0  0
 31 33  1  0  0  0  0
 33 34  1  0  0  0  0
 33 35  1  0  0  0  0
 33 36  1  0  0  0  0
M  END
$$$$

  -OEChem-01062216103D

 36 37  0     1  0  0  0  0  0999 V2000
   -3.2449   -2.8886    0.3072 H   0  0  0  0  0  0  0  0  0  0  0  0
   -3.2540   -2.1078   -0.4586 C   0  0  0  0  0  0  0  0  0  0  0  0
   -4.2394   -1.6358   -0.4700 H   0  0  0  0  0  0  0  0  0  0  0  0
   -3.0651   -2.5687   -1.4309 H   0  0  0  0  0  0  0  0  0  0  0  0
   -2.1858   -1.0732   -0.1591 C   0  0  0  0  0  0  0  0  0  0  0  0
   -1.5592   -1.1311    0.8853 O   0  0  0  0  0  0  0  0  0  0  0  0
   -1.9860   -0.0248   -1.0335 N   0  0  0  0  0  0  0  0  0  0  0  0
   -2.5392   -0.0353   -1.8850 H   0  0  0  0  0  0  0  0  0  0  0  0
   -0.7828    0.8269   -1.0219 C   0  0  1  0  0  0  0  0  0  0  0  0
   -0.2331    0.7168   -0.0810 H   0  0  0  0  0  0  0  0  0  0  0  0
    0.1571    0.4199   -2.1754 C   0  0  0  0  0  0  0  0  0  0  0  0
   -0.3940    0.4490   -3.1207 H   0  0  0  0  0  0  0  0  0  0  0  0
    0.9802    1.1374   -2.2565 H   0  0  0  0  0  0  0  0  0  0  0  0
    0.7333   -0.9573   -1.9719 C   0  0  0  0  0  0  0  0  0  0  0  0
    0.2634   -2.1272   -2.5187 C   0  0  0  0  0  0  0  0  0  0  0  0
   -0.5885   -2.2131   -3.1882 H   0  0  0  0  0  0  0  0  0  0  0  0
    1.0739   -3.1635   -2.0608 N   0  0  0  0  0  0  0  0  0  0  0  0
    0.9658   -4.1476   -2.2955 H   0  0  0  0  0  0  0  0  0  0  0  0
    2.0605   -2.6681   -1.2230 C   0  0  0  0  0  0  0  0  0  0  0  0
    3.0930   -3.2997   -0.5296 C   0  0  0  0  0  0  0  0  0  0  0  0
    3.2210   -4.3740   -0.5990 H   0  0  0  0  0  0  0  0  0  0  0  0
    3.9596   -2.5278    0.2570 C   0  0  0  0  0  0  0  0  0  0  0  0
    4.7676   -3.0061    0.8023 H   0  0  0  0  0  0  0  0  0  0  0  0
    3.7831   -1.1380    0.3423 C   0  0  0  0  0  0  0  0  0  0  0  0
    4.4544   -0.5428    0.9539 H   0  0  0  0  0  0  0  0  0  0  0  0
    2.7409   -0.5142   -0.3586 C   0  0  0  0  0  0  0  0  0  0  0  0
    2.5996    0.5595   -0.2954 H   0  0  0  0  0  0  0  0  0  0  0  0
    1.8824   -1.2919   -1.1422 C   0  0  0  0  0  0  0  0  0  0  0  0
   -1.1904    2.3092   -1.1381 C   0  0  0  0  0  0  0  0  0  0  0  0
   -1.1131    2.9211   -2.1969 O   0  0  0  0  0  0  0  0  0  0  0  0
   -1.7317    2.9404   -0.0342 N   0  0  0  0  0  0  0  0  0  0  0  0
   -1.8440    2.3813    0.8086 H   0  0  0  0  0  0  0  0  0  0  0  0
   -2.2086    4.3173   -0.0436 C   0  0  0  0  0  0  0  0  0  0  0  0
   -3.0237    4.4357   -0.7652 H   0  0  0  0  0  0  0  0  0  0  0  0
   -2.5802    4.5953    0.9473 H   0  0  0  0  0  0  0  0  0  0  0  0
   -1.3970    5.0015   -0.3122 H   0  0  0  0  0  0  0  0  0  0  0  0
  1  2  1  0  0  0  0
  2  3  1  0  0  0  0
  2  4  1  0  0  0  0
  2  5  1  0  0  0  0
  5  6  2  0  0  0  0
  5  7  1  0  0  0  0
  7  8  1  0  0  0  0
  7  9  1  0  0  0  0
  9 10  1  0  0  0  0
  9 11  1  0  0  0  0
  9 29  1  0  0  0  0
 11 12  1  0  0  0  0
 11 13  1  0  0  0  0
 11 14  1  0  0  0  0
 14 15  2  0  0  0  0
 14 28  1  0  0  0  0
 15 16  1  0  0  0  0
 15 17  1  0  0  0  0
 17 18  1  0  0  0  0
 17 19  1  0  0  0  0
 19 20  1  0  0  0  0
 19 28  2  0  0  0  0
 20 21  1  0  0  0  0
 20 22  2  0  0  0  0
 22 23  1  0  0  0  0
 22 24  1  0  0  0  0
 24 25  1  0  0  0  0
 24 26  2  0  0  0  0
 26 27  1  0  0  0  0
 26 28  1  0  0  0  0
 29 30  2  0  0  0  0
 29 31  1  0  0  0  0
 31 32  1  0  0  0  0
 31 33  1  0  0  0  0
 33 34  1  0  0  0  0
 33 35  1  0  0  0  0
 33 36  1  0  0  0  0
M  END
$$$$

  -OEChem-01062216103D

 36 37  0     1  0  0  0  0  0999 V2000
   -3.3088   -2.8584    0.3277 H   0  0  0  0  0  0  0  0  0  0  0  0
   -3.3045   -2.0757   -0.4361 C   0  0  0  0  0  0  0  0  0  0  0  0
   -4.2699   -1.5645   -0.4225 H   0  0  0  0  0  0  0  0  0  0  0  0
   -3.1578   -2.5405   -1.4136 H   0  0  0  0  0  0  0  0  0  0  0  0
   -2.1891   -1.0855   -0.1601 C   0  0  0  0  0  0  0  0  0  0  0  0
   -1.5324   -1.1815    0.8630 O   0  0  0  0  0  0  0  0  0  0  0  0
   -1.9760   -0.0363   -1.0303 N   0  0  0  0  0  0  0  0  0  0  0  0
   -2.5606   -0.0023   -1.8604 H   0  0  0  0  0  0  0  0  0  0  0  0
   -0.7747    0.8164   -1.0117 C   0  0  1  0  0  0  0  0  0  0  0  0
   -0.2283    0.7013   -0.0696 H   0  0  0  0  0  0  0  0  0  0  0  0
    0.1706    0.4222   -2.1640 C   0  0  0  0  0  0  0  0  0  0  0  0
   -0.3777    0.4529   -3.1113 H   0  0  0  0  0  0  0  0  0  0  0  0
    0.9899    1.1447   -2.2387 H   0  0  0  0  0  0  0  0  0  0  0  0
    0.7498   -0.9541   -1.9673 C   0  0  0  0  0  0  0  0  0  0  0  0
    0.2834   -2.1199   -2.5252 C   0  0  0  0  0  0  0  0  0  0  0  0
   -0.5676   -2.2012   -3.1965 H   0  0  0  0  0  0  0  0  0  0  0  0
    1.0961   -3.1582   -2.0763 N   0  0  0  0  0  0  0  0  0  0  0  0
    0.9880   -4.1405   -2.3177 H   0  0  0  0  0  0  0  0  0  0  0  0
    2.0808   -2.6683   -1.2334 C   0  0  0  0  0  0  0  0  0  0  0  0
    3.1151   -3.3043   -0.5468 C   0  0  0  0  0  0  0  0  0  0  0  0
    3.2464   -4.3774   -0.6289 H   0  0  0  0  0  0  0  0  0  0  0  0
    3.9791   -2.5383    0.2486 C   0  0  0  0  0  0  0  0  0  0  0  0
    4.7884   -3.0201    0.7890 H   0  0  0  0  0  0  0  0  0  0  0  0
    3.7981   -1.1499    0.3489 C   0  0  0  0  0  0  0  0  0  0  0  0
    4.4674   -0.5598    0.9675 H   0  0  0  0  0  0  0  0  0  0  0  0
    2.7541   -0.5216   -0.3458 C   0  0  0  0  0  0  0  0  0  0  0  0
    2.6093    0.5507   -0.2704 H   0  0  0  0  0  0  0  0  0  0  0  0
    1.8987   -1.2934   -1.1388 C   0  0  0  0  0  0  0  0  0  0  0  0
   -1.1781    2.2980   -1.1330 C   0  0  0  0  0  0  0  0  0  0  0  0
   -1.3517    2.8210   -2.2276 O   0  0  0  0  0  0  0  0  0  0  0  0
   -1.4293    3.0286    0.0130 N   0  0  0  0  0  0  0  0  0  0  0  0
   -1.3730    2.5332    0.8998 H   0  0  0  0  0  0  0  0  0  0  0  0
   -1.8982    4.4084    0.0002 C   0  0  0  0  0  0  0  0  0  0  0  0
   -2.8670    4.4799   -0.5050 H   0  0  0  0  0  0  0  0  0  0  0  0
   -2.0130    4.7778    1.0237 H   0  0  0  0  0  0  0  0  0  0  0  0
   -1.1807    5.0516   -0.5203 H   0  0  0  0  0  0  0  0  0  0  0  0
  1  2  1  0  0  0  0
  2  3  1  0  0  0  0
  2  4  1  0  0  0  0
  2  5  1  0  0  0  0
  5  6  2  0  0  0  0
  5  7  1  0  0  0  0
  7  8  1  0  0  0  0
  7  9  1  0  0  0  0
  9 10  1  0  0  0  0
  9 11  1  0  0  0  0
  9 29  1  0  0  0  0
 11 12  1  0  0  0  0
 11 13  1  0  0  0  0
 11 14  1  0  0  0  0
 14 15  2  0  0  0  0
 14 28  1  0  0  0  0
 15 16  1  0  0  0  0
 15 17  1  0  0  0  0
 17 18  1  0  0  0  0
 17 19  1  0  0  0  0
 19 20  1  0  0  0  0
 19 28  2  0  0  0  0
 20 21  1  0  0  0  0
 20 22  2  0  0  0  0
 22 23  1  0  0  0  0
 22 24  1  0  0  0  0
 24 25  1  0  0  0  0
 24 26  2  0  0  0  0
 26 27  1  0  0  0  0
 26 28  1  0  0  0  0
 29 30  2  0  0  0  0
 29 31  1  0  0  0  0
 31 32  1  0  0  0  0
 31 33  1  0  0  0  0
 33 34  1  0  0  0  0
 33 35  1  0  0  0  0
 33 36  1  0  0  0  0
M  END
$$$$

  -OEChem-01062216103D

 36 37  0     1  0  0  0  0  0999 V2000
   -3.3838   -2.8238    0.3477 H   0  0  0  0  0  0  0  0  0  0  0  0
   -3.3639   -2.0365   -0.4109 C   0  0  0  0  0  0  0  0  0  0  0  0
   -4.3055   -1.4837   -0.3699 H   0  0  0  0  0  0  0  0  0  0  0  0
   -3.2618   -2.4998   -1.3949 H   0  0  0  0  0  0  0  0  0  0  0  0
   -2.1999   -1.0977   -0.1573 C   0  0  0  0  0  0  0  0  0  0  0  0
   -1.5159   -1.2356    0.8429 O   0  0  0  0  0  0  0  0  0  0  0  0
   -1.9677   -0.0512   -1.0254 N   0  0  0  0  0  0  0  0  0  0  0  0
   -2.5906    0.0401   -1.8231 H   0  0  0  0  0  0  0  0  0  0  0  0
   -0.7668    0.8003   -0.9994 C   0  0  1  0  0  0  0  0  0  0  0  0
   -0.2276    0.6819   -0.0537 H   0  0  0  0  0  0  0  0  0  0  0  0
    0.1837    0.4182   -2.1502 C   0  0  0  0  0  0  0  0  0  0  0  0
   -0.3627    0.4561   -3.0981 H   0  0  0  0  0  0  0  0  0  0  0  0
    0.9999    1.1447   -2.2163 H   0  0  0  0  0  0  0  0  0  0  0  0
    0.7679   -0.9579   -1.9670 C   0  0  0  0  0  0  0  0  0  0  0  0
    0.3094   -2.1205   -2.5382 C   0  0  0  0  0  0  0  0  0  0  0  0
   -0.5415   -2.2000   -3.2101 H   0  0  0  0  0  0  0  0  0  0  0  0
    1.1295   -3.1585   -2.1007 N   0  0  0  0  0  0  0  0  0  0  0  0
    1.0251   -4.1394   -2.3497 H   0  0  0  0  0  0  0  0  0  0  0  0
    2.1092   -2.6716   -1.2502 C   0  0  0  0  0  0  0  0  0  0  0  0
    3.1454   -3.3077   -0.5664 C   0  0  0  0  0  0  0  0  0  0  0  0
    3.2845   -4.3791   -0.6590 H   0  0  0  0  0  0  0  0  0  0  0  0
    4.0002   -2.5446    0.2418 C   0  0  0  0  0  0  0  0  0  0  0  0
    4.8095   -3.0271    0.7815 H   0  0  0  0  0  0  0  0  0  0  0  0
    3.8094   -1.1589    0.3566 C   0  0  0  0  0  0  0  0  0  0  0  0
    4.4707   -0.5712    0.9857 H   0  0  0  0  0  0  0  0  0  0  0  0
    2.7649   -0.5303   -0.3365 C   0  0  0  0  0  0  0  0  0  0  0  0
    2.6124    0.5402   -0.2503 H   0  0  0  0  0  0  0  0  0  0  0  0
    1.9176   -1.2992   -1.1408 C   0  0  0  0  0  0  0  0  0  0  0  0
   -1.1669    2.2810   -1.1324 C   0  0  0  0  0  0  0  0  0  0  0  0
   -1.5863    2.7185   -2.1978 O   0  0  0  0  0  0  0  0  0  0  0  0
   -1.1297    3.1090   -0.0261 N   0  0  0  0  0  0  0  0  0  0  0  0
   -0.8808    2.6852    0.8641 H   0  0  0  0  0  0  0  0  0  0  0  0
   -1.5785    4.4955   -0.0472 C   0  0  0  0  0  0  0  0  0  0  0  0
   -2.6378    4.5525   -0.3188 H   0  0  0  0  0  0  0  0  0  0  0  0
   -1.4492    4.9492    0.9400 H   0  0  0  0  0  0  0  0  0  0  0  0
   -0.9966    5.0747   -0.7718 H   0  0  0  0  0  0  0  0  0  0  0  0
  1  2  1  0  0  0  0
  2  3  1  0  0  0  0
  2  4  1  0  0  0  0
  2  5  1  0  0  0  0
  5  6  2  0  0  0  0
  5  7  1  0  0  0  0
  7  8  1  0  0  0  0
  7  9  1  0  0  0  0
  9 10  1  0  0  0  0
  9 11  1  0  0  0  0
  9 29  1  0  0  0  0
 11 12  1  0  0  0  0
 11 13  1  0  0  0  0
 11 14  1  0  0  0  0
 14 15  2  0  0  0  0
 14 28  1  0  0  0  0
 15 16  1  0  0  0  0
 15 17  1  0  0  0  0
 17 18  1  0  0  0  0
 17 19  1  0  0  0  0
 19 20  1  0  0  0  0
 19 28  2  0  0  0  0
 20 21  1  0  0  0  0
 20 22  2  0  0  0  0
 22 23  1  0  0  0  0
 22 24  1  0  0  0  0
 24 25  1  0  0  0  0
 24 26  2  0  0  0  0
 26 27  1  0  0  0  0
 26 28  1  0  0  0  0
 29 30  2  0  0  0  0
 29 31  1  0  0  0  0
 31 32  1  0  0  0  0
 31 33  1  0  0  0  0
 33 34  1  0  0  0  0
 33 35  1  0  0  0  0
 33 36  1  0  0  0  0
M  END
$$$$

  -OEChem-01062216103D

 36 37  0     1  0  0  0  0  0999 V2000
   -3.4625   -2.7864    0.3721 H   0  0  0  0  0  0  0  0  0  0  0  0
   -3.4274   -1.9984   -0.3855 C   0  0  0  0  0  0  0  0  0  0  0  0
   -4.3387   -1.3997   -0.3141 H   0  0  0  0  0  0  0  0  0  0  0  0
   -3.3794   -2.4622   -1.3734 H   0  0  0  0  0  0  0  0  0  0  0  0
   -2.2110   -1.1189   -0.1668 C   0  0  0  0  0  0  0  0  0  0  0  0
   -1.4947   -1.3058    0.8023 O   0  0  0  0  0  0  0  0  0  0  0  0
   -1.9636   -0.0730   -1.0312 N   0  0  0  0  0  0  0  0  0  0  0  0
   -2.6322    0.0880   -1.7799 H   0  0  0  0  0  0  0  0  0  0  0  0
   -0.7664    0.7825   -0.9953 C   0  0  1  0  0  0  0  0  0  0  0  0
   -0.2381    0.6651   -0.0436 H   0  0  0  0  0  0  0  0  0  0  0  0
    0.1935    0.4139   -2.1407 C   0  0  0  0  0  0  0  0  0  0  0  0
   -0.3475    0.4552   -3.0918 H   0  0  0  0  0  0  0  0  0  0  0  0
    1.0069    1.1444   -2.1968 H   0  0  0  0  0  0  0  0  0  0  0  0
    0.7849   -0.9595   -1.9628 C   0  0  0  0  0  0  0  0  0  0  0  0
    0.3356   -2.1197   -2.5460 C   0  0  0  0  0  0  0  0  0  0  0  0
   -0.5135   -2.1990   -3.2199 H   0  0  0  0  0  0  0  0  0  0  0  0
    1.1622   -3.1557   -2.1175 N   0  0  0  0  0  0  0  0  0  0  0  0
    1.0622   -4.1352   -2.3731 H   0  0  0  0  0  0  0  0  0  0  0  0
    2.1369   -2.6705   -1.2603 C   0  0  0  0  0  0  0  0  0  0  0  0
    3.1759   -3.3076   -0.5817 C   0  0  0  0  0  0  0  0  0  0  0  0
    3.3215   -4.3769   -0.6853 H   0  0  0  0  0  0  0  0  0  0  0  0
    4.0254   -2.5481    0.2352 C   0  0  0  0  0  0  0  0  0  0  0  0
    4.8375   -3.0314    0.7704 H   0  0  0  0  0  0  0  0  0  0  0  0
    3.8256   -1.1650    0.3645 C   0  0  0  0  0  0  0  0  0  0  0  0
    4.4835   -0.5812    1.0010 H   0  0  0  0  0  0  0  0  0  0  0  0
    2.7777   -0.5353   -0.3231 C   0  0  0  0  0  0  0  0  0  0  0  0
    2.6181    0.5327   -0.2249 H   0  0  0  0  0  0  0  0  0  0  0  0
    1.9361   -1.3005   -1.1372 C   0  0  0  0  0  0  0  0  0  0  0  0
   -1.1657    2.2615   -1.1388 C   0  0  0  0  0  0  0  0  0  0  0  0
   -1.8052    2.6317   -2.1171 O   0  0  0  0  0  0  0  0  0  0  0  0
   -0.8580    3.1689   -0.1422 N   0  0  0  0  0  0  0  0  0  0  0  0
   -0.4111    2.8084    0.6968 H   0  0  0  0  0  0  0  0  0  0  0  0
   -1.2660    4.5676   -0.1796 C   0  0  0  0  0  0  0  0  0  0  0  0
   -2.3572    4.6484   -0.2229 H   0  0  0  0  0  0  0  0  0  0  0  0
   -0.9160    5.0875    0.7174 H   0  0  0  0  0  0  0  0  0  0  0  0
   -0.8403    5.0667   -1.0564 H   0  0  0  0  0  0  0  0  0  0  0  0
  1  2  1  0  0  0  0
  2  3  1  0  0  0  0
  2  4  1  0  0  0  0
  2  5  1  0  0  0  0
  5  6  2  0  0  0  0
  5  7  1  0  0  0  0
  7  8  1  0  0  0  0
  7  9  1  0  0  0  0
  9 10  1  0  0  0  0
  9 11  1  0  0  0  0
  9 29  1  0  0  0  0
 11 12  1  0  0  0  0
 11 13  1  0  0  0  0
 11 14  1  0  0  0  0
 14 15  2  0  0  0  0
 14 28  1  0  0  0  0
 15 16  1  0  0  0  0
 15 17  1  0  0  0  0
 17 18  1  0  0  0  0
 17 19  1  0  0  0  0
 19 20  1  0  0  0  0
 19 28  2  0  0  0  0
 20 21  1  0  0  0  0
 20 22  2  0  0  0  0
 22 23  1  0  0  0  0
 22 24  1  0  0  0  0
 24 25  1  0  0  0  0
 24 26  2  0  0  0  0
 26 27  1  0  0  0  0
 26 28  1  0  0  0  0
 29 30  2  0  0  0  0
 29 31  1  0  0  0  0
 31 32  1  0  0  0  0
 31 33  1  0  0  0  0
 33 34  1  0  0  0  0
 33 35  1  0  0  0  0
 33 36  1  0  0  0  0
M  END
$$$$

  -OEChem-01062216103D

 36 37  0     1  0  0  0  0  0999 V2000
   -3.5201   -2.7551    0.3956 H   0  0  0  0  0  0  0  0  0  0  0  0
   -3.4736   -1.9682   -0.3624 C   0  0  0  0  0  0  0  0  0  0  0  0
   -4.3565   -1.3320   -0.2645 H   0  0  0  0  0  0  0  0  0  0  0  0
   -3.4737   -2.4319   -1.3515 H   0  0  0  0  0  0  0  0  0  0  0  0
   -2.2157   -1.1405   -0.1791 C   0  0  0  0  0  0  0  0  0  0  0  0
   -1.4720   -1.3697    0.7599 O   0  0  0  0  0  0  0  0  0  0  0  0
   -1.9595   -0.0951   -1.0412 N   0  0  0  0  0  0  0  0  0  0  0  0
   -2.6723    0.1339   -1.7302 H   0  0  0  0  0  0  0  0  0  0  0  0
   -0.7666    0.7663   -0.9938 C   0  0  1  0  0  0  0  0  0  0  0  0
   -0.2476    0.6496   -0.0366 H   0  0  0  0  0  0  0  0  0  0  0  0
    0.2003    0.4093   -2.1359 C   0  0  0  0  0  0  0  0  0  0  0  0
   -0.3382    0.4544   -3.0881 H   0  0  0  0  0  0  0  0  0  0  0  0
    1.0101    1.1443   -2.1843 H   0  0  0  0  0  0  0  0  0  0  0  0
    0.7983   -0.9618   -1.9648 C   0  0  0  0  0  0  0  0  0  0  0  0
    0.3581   -2.1202   -2.5576 C   0  0  0  0  0  0  0  0  0  0  0  0
   -0.4892   -2.1996   -3.2337 H   0  0  0  0  0  0  0  0  0  0  0  0
    1.1895   -3.1543   -2.1338 N   0  0  0  0  0  0  0  0  0  0  0  0
    1.0938   -4.1330   -2.3937 H   0  0  0  0  0  0  0  0  0  0  0  0
    2.1577   -2.6697   -1.2690 C   0  0  0  0  0  0  0  0  0  0  0  0
    3.1967   -3.3054   -0.5888 C   0  0  0  0  0  0  0  0  0  0  0  0
    3.3471   -4.3737   -0.6972 H   0  0  0  0  0  0  0  0  0  0  0  0
    4.0385   -2.5461    0.2360 C   0  0  0  0  0  0  0  0  0  0  0  0
    4.8498   -3.0285    0.7728 H   0  0  0  0  0  0  0  0  0  0  0  0
    3.8317   -1.1645    0.3711 C   0  0  0  0  0  0  0  0  0  0  0  0
    4.4838   -0.5803    1.0130 H   0  0  0  0  0  0  0  0  0  0  0  0
    2.7833   -0.5366   -0.3170 C   0  0  0  0  0  0  0  0  0  0  0  0
    2.6175    0.5299   -0.2140 H   0  0  0  0  0  0  0  0  0  0  0  0
    1.9488   -1.3016   -1.1382 C   0  0  0  0  0  0  0  0  0  0  0  0
   -1.1659    2.2446   -1.1458 C   0  0  0  0  0  0  0  0  0  0  0  0
   -1.9907    2.5698   -1.9933 O   0  0  0  0  0  0  0  0  0  0  0  0
   -0.6184    3.2093   -0.3206 N   0  0  0  0  0  0  0  0  0  0  0  0
    0.0075    2.8964    0.4166 H   0  0  0  0  0  0  0  0  0  0  0  0
   -0.9830    4.6189   -0.3870 C   0  0  0  0  0  0  0  0  0  0  0  0
   -2.0538    4.7481   -0.1973 H   0  0  0  0  0  0  0  0  0  0  0  0
   -0.4276    5.1887    0.3641 H   0  0  0  0  0  0  0  0  0  0  0  0
   -0.7480    5.0288   -1.3749 H   0  0  0  0  0  0  0  0  0  0  0  0
  1  2  1  0  0  0  0
  2  3  1  0  0  0  0
  2  4  1  0  0  0  0
  2  5  1  0  0  0  0
  5  6  2  0  0  0  0
  5  7  1  0  0  0  0
  7  8  1  0  0  0  0
  7  9  1  0  0  0  0
  9 10  1  0  0  0  0
  9 11  1  0  0  0  0
  9 29  1  0  0  0  0
 11 12  1  0  0  0  0
 11 13  1  0  0  0  0
 11 14  1  0  0  0  0
 14 15  2  0  0  0  0
 14 28  1  0  0  0  0
 15 16  1  0  0  0  0
 15 17  1  0  0  0  0
 17 18  1  0  0  0  0
 17 19  1  0  0  0  0
 19 20  1  0  0  0  0
 19 28  2  0  0  0  0
 20 21  1  0  0  0  0
 20 22  2  0  0  0  0
 22 23  1  0  0  0  0
 22 24  1  0  0  0  0
 24 25  1  0  0  0  0
 24 26  2  0  0  0  0
 26 27  1  0  0  0  0
 26 28  1  0  0  0  0
 29 30  2  0  0  0  0
 29 31  1  0  0  0  0
 31 32  1  0  0  0  0
 31 33  1  0  0  0  0
 33 34  1  0  0  0  0
 33 35  1  0  0  0  0
 33 36  1  0  0  0  0
M  END
$$$$

  -OEChem-01062216103D

 36 37  0     1  0  0  0  0  0999 V2000
   -3.5684   -2.7256    0.4146 H   0  0  0  0  0  0  0  0  0  0  0  0
   -3.5158   -1.9402   -0.3448 C   0  0  0  0  0  0  0  0  0  0  0  0
   -4.3710   -1.2717   -0.2201 H   0  0  0  0  0  0  0  0  0  0  0  0
   -3.5636   -2.4031   -1.3332 H   0  0  0  0  0  0  0  0  0  0  0  0
   -2.2229   -1.1595   -0.2005 C   0  0  0  0  0  0  0  0  0  0  0  0
   -1.4521   -1.4294    0.7050 O   0  0  0  0  0  0  0  0  0  0  0  0
   -1.9624   -0.1135   -1.0607 N   0  0  0  0  0  0  0  0  0  0  0  0
   -2.7136    0.1779   -1.6828 H   0  0  0  0  0  0  0  0  0  0  0  0
   -0.7741    0.7546   -0.9994 C   0  0  1  0  0  0  0  0  0  0  0  0
   -0.2669    0.6406   -0.0354 H   0  0  0  0  0  0  0  0  0  0  0  0
    0.2033    0.4017   -2.1338 C   0  0  0  0  0  0  0  0  0  0  0  0
   -0.3296    0.4455   -3.0893 H   0  0  0  0  0  0  0  0  0  0  0  0
    1.0110    1.1391   -2.1772 H   0  0  0  0  0  0  0  0  0  0  0  0
    0.8066   -0.9668   -1.9610 C   0  0  0  0  0  0  0  0  0  0  0  0
    0.3750   -2.1256   -2.5597 C   0  0  0  0  0  0  0  0  0  0  0  0
   -0.4720   -2.2080   -3.2360 H   0  0  0  0  0  0  0  0  0  0  0  0
    1.2128   -3.1560   -2.1390 N   0  0  0  0  0  0  0  0  0  0  0  0
    1.1198   -4.1352   -2.3981 H   0  0  0  0  0  0  0  0  0  0  0  0
    2.1772   -2.6686   -1.2718 C   0  0  0  0  0  0  0  0  0  0  0  0
    3.2195   -3.3013   -0.5942 C   0  0  0  0  0  0  0  0  0  0  0  0
    3.3766   -4.3681   -0.7072 H   0  0  0  0  0  0  0  0  0  0  0  0
    4.0568   -2.5405    0.2340 C   0  0  0  0  0  0  0  0  0  0  0  0
    4.8708   -3.0204    0.7693 H   0  0  0  0  0  0  0  0  0  0  0  0
    3.8419   -1.1606    0.3747 C   0  0  0  0  0  0  0  0  0  0  0  0
    4.4905   -0.5756    1.0197 H   0  0  0  0  0  0  0  0  0  0  0  0
    2.7898   -0.5360   -0.3110 C   0  0  0  0  0  0  0  0  0  0  0  0
    2.6182    0.5289   -0.2026 H   0  0  0  0  0  0  0  0  0  0  0  0
    1.9597   -1.3023   -1.1355 C   0  0  0  0  0  0  0  0  0  0  0  0
   -1.1725    2.2337   -1.1571 C   0  0  0  0  0  0  0  0  0  0  0  0
   -2.1485    2.5371   -1.8356 O   0  0  0  0  0  0  0  0  0  0  0  0
   -0.4269    3.2292   -0.5528 N   0  0  0  0  0  0  0  0  0  0  0  0
    0.3490    2.9429    0.0374 H   0  0  0  0  0  0  0  0  0  0  0  0
   -0.7512    4.6466   -0.6544 C   0  0  0  0  0  0  0  0  0  0  0  0
   -1.7524    4.8410   -0.2558 H   0  0  0  0  0  0  0  0  0  0  0  0
   -0.0309    5.2406   -0.0837 H   0  0  0  0  0  0  0  0  0  0  0  0
   -0.7174    4.9735   -1.6990 H   0  0  0  0  0  0  0  0  0  0  0  0
  1  2  1  0  0  0  0
  2  3  1  0  0  0  0
  2  4  1  0  0  0  0
  2  5  1  0  0  0  0
  5  6  2  0  0  0  0
  5  7  1  0  0  0  0
  7  8  1  0  0  0  0
  7  9  1  0  0  0  0
  9 10  1  0  0  0  0
  9 11  1  0  0  0  0
  9 29  1  0  0  0  0
 11 12  1  0  0  0  0
 11 13  1  0  0  0  0
 11 14  1  0  0  0  0
 14 15  2  0  0  0  0
 14 28  1  0  0  0  0
 15 16  1  0  0  0  0
 15 17  1  0  0  0  0
 17 18  1  0  0  0  0
 17 19  1  0  0  0  0
 19 20  1  0  0  0  0
 19 28  2  0  0  0  0
 20 21  1  0  0  0  0
 20 22  2  0  0  0  0
 22 23  1  0  0  0  0
 22 24  1  0  0  0  0
 24 25  1  0  0  0  0
 24 26  2  0  0  0  0
 26 27  1  0  0  0  0
 26 28  1  0  0  0  0
 29 30  2  0  0  0  0
 29 31  1  0  0  0  0
 31 32  1  0  0  0  0
 31 33  1  0  0  0  0
 33 34  1  0  0  0  0
 33 35  1  0  0  0  0
 33 36  1  0  0  0  0
M  END
$$$$

  -OEChem-01062216103D

 36 37  0     1  0  0  0  0  0999 V2000
   -3.5919   -2.6997    0.4308 H   0  0  0  0  0  0  0  0  0  0  0  0
   -3.5380   -1.9166   -0.3307 C   0  0  0  0  0  0  0  0  0  0  0  0
   -4.3704   -1.2240   -0.1829 H   0  0  0  0  0  0  0  0  0  0  0  0
   -3.6256   -2.3779   -1.3173 H   0  0  0  0  0  0  0  0  0  0  0  0
   -2.2196   -1.1735   -0.2221 C   0  0  0  0  0  0  0  0  0  0  0  0
   -1.4276   -1.4749    0.6547 O   0  0  0  0  0  0  0  0  0  0  0  0
   -1.9611   -0.1253   -1.0804 N   0  0  0  0  0  0  0  0  0  0  0  0
   -2.7424    0.2162   -1.6371 H   0  0  0  0  0  0  0  0  0  0  0  0
   -0.7766    0.7479   -1.0067 C   0  0  1  0  0  0  0  0  0  0  0  0
   -0.2760    0.6353   -0.0393 H   0  0  0  0  0  0  0  0  0  0  0  0
    0.2074    0.3937   -2.1369 C   0  0  0  0  0  0  0  0  0  0  0  0
   -0.3223    0.4353   -3.0943 H   0  0  0  0  0  0  0  0  0  0  0  0
    1.0163    1.1296   -2.1796 H   0  0  0  0  0  0  0  0  0  0  0  0
    0.8123   -0.9740   -1.9621 C   0  0  0  0  0  0  0  0  0  0  0  0
    0.3858   -2.1338   -2.5623 C   0  0  0  0  0  0  0  0  0  0  0  0
   -0.4608   -2.2186   -3.2389 H   0  0  0  0  0  0  0  0  0  0  0  0
    1.2276   -3.1613   -2.1427 N   0  0  0  0  0  0  0  0  0  0  0  0
    1.1364   -4.1409   -2.4009 H   0  0  0  0  0  0  0  0  0  0  0  0
    2.1892   -2.6711   -1.2736 C   0  0  0  0  0  0  0  0  0  0  0  0
    3.2332   -3.3004   -0.5953 C   0  0  0  0  0  0  0  0  0  0  0  0
    3.3945   -4.3665   -0.7091 H   0  0  0  0  0  0  0  0  0  0  0  0
    4.0663   -2.5376    0.2354 C   0  0  0  0  0  0  0  0  0  0  0  0
    4.8809   -3.0149    0.7718 H   0  0  0  0  0  0  0  0  0  0  0  0
    3.8459   -1.1590    0.3777 C   0  0  0  0  0  0  0  0  0  0  0  0
    4.4908   -0.5723    1.0244 H   0  0  0  0  0  0  0  0  0  0  0  0
    2.7920   -0.5379   -0.3081 C   0  0  0  0  0  0  0  0  0  0  0  0
    2.6157    0.5258   -0.1966 H   0  0  0  0  0  0  0  0  0  0  0  0
    1.9659   -1.3059   -1.1354 C   0  0  0  0  0  0  0  0  0  0  0  0
   -1.1777    2.2284   -1.1643 C   0  0  0  0  0  0  0  0  0  0  0  0
   -2.2688    2.5241   -1.6417 O   0  0  0  0  0  0  0  0  0  0  0  0
   -0.2930    3.2357   -0.8235 N   0  0  0  0  0  0  0  0  0  0  0  0
    0.5937    2.9630   -0.4090 H   0  0  0  0  0  0  0  0  0  0  0  0
   -0.5984    4.6541   -0.9682 C   0  0  0  0  0  0  0  0  0  0  0  0
   -1.4828    4.9193   -0.3791 H   0  0  0  0  0  0  0  0  0  0  0  0
    0.2438    5.2589   -0.6183 H   0  0  0  0  0  0  0  0  0  0  0  0
   -0.7877    4.9005   -2.0183 H   0  0  0  0  0  0  0  0  0  0  0  0
  1  2  1  0  0  0  0
  2  3  1  0  0  0  0
  2  4  1  0  0  0  0
  2  5  1  0  0  0  0
  5  6  2  0  0  0  0
  5  7  1  0  0  0  0
  7  8  1  0  0  0  0
  7  9  1  0  0  0  0
  9 10  1  0  0  0  0
  9 11  1  0  0  0  0
  9 29  1  0  0  0  0
 11 12  1  0  0  0  0
 11 13  1  0  0  0  0
 11 14  1  0  0  0  0
 14 15  2  0  0  0  0
 14 28  1  0  0  0  0
 15 16  1  0  0  0  0
 15 17  1  0  0  0  0
 17 18  1  0  0  0  0
 17 19  1  0  0  0  0
 19 20  1  0  0  0  0
 19 28  2  0  0  0  0
 20 21  1  0  0  0  0
 20 22  2  0  0  0  0
 22 23  1  0  0  0  0
 22 24  1  0  0  0  0
 24 25  1  0  0  0  0
 24 26  2  0  0  0  0
 26 27  1  0  0  0  0
 26 28  1  0  0  0  0
 29 30  2  0  0  0  0
 29 31  1  0  0  0  0
 31 32  1  0  0  0  0
 31 33  1  0  0  0  0
 33 34  1  0  0  0  0
 33 35  1  0  0  0  0
 33 36  1  0  0  0  0
M  END
$$$$

  -OEChem-01062216103D

 36 37  0     1  0  0  0  0  0999 V2000
   -3.5665   -2.6493    0.4611 H   0  0  0  0  0  0  0  0  0  0  0  0
   -3.5321   -1.8710   -0.3064 C   0  0  0  0  0  0  0  0  0  0  0  0
   -4.3118   -1.1350   -0.0964 H   0  0  0  0  0  0  0  0  0  0  0  0
   -3.7229   -2.3275   -1.2804 H   0  0  0  0  0  0  0  0  0  0  0  0
   -2.1723   -1.1985   -0.3076 C   0  0  0  0  0  0  0  0  0  0  0  0
   -1.3130   -1.5766    0.4715 O   0  0  0  0  0  0  0  0  0  0  0  0
   -1.9454   -0.1392   -1.1618 N   0  0  0  0  0  0  0  0  0  0  0  0
   -2.7795    0.2750   -1.5719 H   0  0  0  0  0  0  0  0  0  0  0  0
   -0.7670    0.7428   -1.0707 C   0  0  1  0  0  0  0  0  0  0  0  0
   -0.1167    0.4473   -0.2410 H   0  0  0  0  0  0  0  0  0  0  0  0
    0.0261    0.6489   -2.3876 C   0  0  0  0  0  0  0  0  0  0  0  0
   -0.6442    0.8675   -3.2253 H   0  0  0  0  0  0  0  0  0  0  0  0
    0.8269    1.3939   -2.4083 H   0  0  0  0  0  0  0  0  0  0  0  0
    0.6393   -0.7137   -2.5756 C   0  0  0  0  0  0  0  0  0  0  0  0
    0.1153   -1.7442   -3.3179 C   0  0  0  0  0  0  0  0  0  0  0  0
   -0.8267   -1.7146   -3.8598 H   0  0  0  0  0  0  0  0  0  0  0  0
    1.0024   -2.8155   -3.2395 N   0  0  0  0  0  0  0  0  0  0  0  0
    0.8652   -3.7278   -3.6685 H   0  0  0  0  0  0  0  0  0  0  0  0
    2.0895   -2.4829   -2.4474 C   0  0  0  0  0  0  0  0  0  0  0  0
    3.2192   -3.2094   -2.0707 C   0  0  0  0  0  0  0  0  0  0  0  0
    3.3529   -4.2287   -2.4151 H   0  0  0  0  0  0  0  0  0  0  0  0
    4.1739   -2.6058   -1.2404 C   0  0  0  0  0  0  0  0  0  0  0  0
    5.0565   -3.1610   -0.9372 H   0  0  0  0  0  0  0  0  0  0  0  0
    3.9876   -1.2875   -0.7968 C   0  0  0  0  0  0  0  0  0  0  0  0
    4.7264   -0.8250   -0.1494 H   0  0  0  0  0  0  0  0  0  0  0  0
    2.8477   -0.5673   -1.1823 C   0  0  0  0  0  0  0  0  0  0  0  0
    2.6983    0.4493   -0.8376 H   0  0  0  0  0  0  0  0  0  0  0  0
    1.9011   -1.1760   -2.0124 C   0  0  0  0  0  0  0  0  0  0  0  0
   -1.1906    2.2084   -0.8292 C   0  0  0  0  0  0  0  0  0  0  0  0
   -2.3776    2.5191   -0.8436 O   0  0  0  0  0  0  0  0  0  0  0  0
   -0.2410    3.2077   -0.7089 N   0  0  0  0  0  0  0  0  0  0  0  0
    0.7351    2.9276   -0.6831 H   0  0  0  0  0  0  0  0  0  0  0  0
   -0.5751    4.6144   -0.5227 C   0  0  0  0  0  0  0  0  0  0  0  0
   -1.1770    4.7497    0.3822 H   0  0  0  0  0  0  0  0  0  0  0  0
    0.3379    5.2091   -0.4221 H   0  0  0  0  0  0  0  0  0  0  0  0
   -1.1401    4.9910   -1.3818 H   0  0  0  0  0  0  0  0  0  0  0  0
  1  2  1  0  0  0  0
  2  3  1  0  0  0  0
  2  4  1  0  0  0  0
  2  5  1  0  0  0  0
  5  6  2  0  0  0  0
  5  7  1  0  0  0  0
  7  8  1  0  0  0  0
  7  9  1  0  0  0  0
  9 10  1  0  0  0  0
  9 11  1  0  0  0  0
  9 29  1  0  0  0  0
 11 12  1  0  0  0  0
 11 13  1  0  0  0  0
 11 14  1  0  0  0  0
 14 15  2  0  0  0  0
 14 28  1  0  0  0  0
 15 16  1  0  0  0  0
 15 17  1  0  0  0  0
 17 18  1  0  0  0  0
 17 19  1  0  0  0  0
 19 20  1  0  0  0  0
 19 28  2  0  0  0  0
 20 21  1  0  0  0  0
 20 22  2  0  0  0  0
 22 23  1  0  0  0  0
 22 24  1  0  0  0  0
 24 25  1  0  0  0  0
 24 26  2  0  0  0  0
 26 27  1  0  0  0  0
 26 28  1  0  0  0  0
 29 30  2  0  0  0  0
 29 31  1  0  0  0  0
 31 32  1  0  0  0  0
 31 33  1  0  0  0  0
 33 34  1  0  0  0  0
 33 35  1  0  0  0  0
 33 36  1  0  0  0  0
M  END
$$$$

  -OEChem-01062216103D

 36 37  0     1  0  0  0  0  0999 V2000
   -3.5537   -2.6293    0.4664 H   0  0  0  0  0  0  0  0  0  0  0  0
   -3.5269   -1.8486   -0.2991 C   0  0  0  0  0  0  0  0  0  0  0  0
   -4.2919   -1.1033   -0.0678 H   0  0  0  0  0  0  0  0  0  0  0  0
   -3.7461   -2.2986   -1.2700 H   0  0  0  0  0  0  0  0  0  0  0  0
   -2.1587   -1.1944   -0.3299 C   0  0  0  0  0  0  0  0  0  0  0  0
   -1.2851   -1.5927    0.4226 O   0  0  0  0  0  0  0  0  0  0  0  0
   -1.9396   -0.1331   -1.1842 N   0  0  0  0  0  0  0  0  0  0  0  0
   -2.7830    0.2944   -1.5596 H   0  0  0  0  0  0  0  0  0  0  0  0
   -0.7602    0.7483   -1.0906 C   0  0  1  0  0  0  0  0  0  0  0  0
   -0.1114    0.4556   -0.2581 H   0  0  0  0  0  0  0  0  0  0  0  0
    0.0358    0.6375   -2.4065 C   0  0  0  0  0  0  0  0  0  0  0  0
   -0.6309    0.8506   -3.2483 H   0  0  0  0  0  0  0  0  0  0  0  0
    0.8438    1.3736   -2.4344 H   0  0  0  0  0  0  0  0  0  0  0  0
    0.6442   -0.7285   -2.5811 C   0  0  0  0  0  0  0  0  0  0  0  0
    0.1177   -1.7639   -3.3147 C   0  0  0  0  0  0  0  0  0  0  0  0
   -0.8244   -1.7373   -3.8566 H   0  0  0  0  0  0  0  0  0  0  0  0
    1.0033   -2.8358   -3.2294 N   0  0  0  0  0  0  0  0  0  0  0  0
    0.8617   -3.7527   -3.6468 H   0  0  0  0  0  0  0  0  0  0  0  0
    2.0919   -2.4983   -2.4418 C   0  0  0  0  0  0  0  0  0  0  0  0
    3.2210   -3.2237   -2.0621 C   0  0  0  0  0  0  0  0  0  0  0  0
    3.3532   -4.2452   -2.4005 H   0  0  0  0  0  0  0  0  0  0  0  0
    4.1771   -2.6165   -1.2358 C   0  0  0  0  0  0  0  0  0  0  0  0
    5.0594   -3.1709   -0.9301 H   0  0  0  0  0  0  0  0  0  0  0  0
    3.9921   -1.2958   -0.7986 C   0  0  0  0  0  0  0  0  0  0  0  0
    4.7307   -0.8310   -0.1529 H   0  0  0  0  0  0  0  0  0  0  0  0
    2.8527   -0.5764   -1.1871 C   0  0  0  0  0  0  0  0  0  0  0  0
    2.7032    0.4414   -0.8450 H   0  0  0  0  0  0  0  0  0  0  0  0
    1.9056   -1.1884   -2.0148 C   0  0  0  0  0  0  0  0  0  0  0  0
   -1.1901    2.2139   -0.8420 C   0  0  0  0  0  0  0  0  0  0  0  0
   -2.3655    2.4782   -0.6101 O   0  0  0  0  0  0  0  0  0  0  0  0
   -0.3043    3.2635   -1.0172 N   0  0  0  0  0  0  0  0  0  0  0  0
    0.6674    3.0326   -1.2019 H   0  0  0  0  0  0  0  0  0  0  0  0
   -0.6731    4.6632   -0.8418 C   0  0  0  0  0  0  0  0  0  0  0  0
   -1.0550    4.8351    0.1701 H   0  0  0  0  0  0  0  0  0  0  0  0
    0.1988    5.3063   -0.9954 H   0  0  0  0  0  0  0  0  0  0  0  0
   -1.4447    4.9494   -1.5641 H   0  0  0  0  0  0  0  0  0  0  0  0
  1  2  1  0  0  0  0
  2  3  1  0  0  0  0
  2  4  1  0  0  0  0
  2  5  1  0  0  0  0
  5  6  2  0  0  0  0
  5  7  1  0  0  0  0
  7  8  1  0  0  0  0
  7  9  1  0  0  0  0
  9 10  1  0  0  0  0
  9 11  1  0  0  0  0
  9 29  1  0  0  0  0
 11 12  1  0  0  0  0
 11 13  1  0  0  0  0
 11 14  1  0  0  0  0
 14 15  2  0  0  0  0
 14 28  1  0  0  0  0
 15 16  1  0  0  0  0
 15 17  1  0  0  0  0
 17 18  1  0  0  0  0
 17 19  1  0  0  0  0
 19 20  1  0  0  0  0
 19 28  2  0  0  0  0
 20 21  1  0  0  0  0
 20 22  2  0  0  0  0
 22 23  1  0  0  0  0
 22 24  1  0  0  0  0
 24 25  1  0  0  0  0
 24 26  2  0  0  0  0
 26 27  1  0  0  0  0
 26 28  1  0  0  0  0
 29 30  2  0  0  0  0
 29 31  1  0  0  0  0
 31 32  1  0  0  0  0
 31 33  1  0  0  0  0
 33 34  1  0  0  0  0
 33 35  1  0  0  0  0
 33 36  1  0  0  0  0
M  END
$$$$

  -OEChem-01062216103D

 36 37  0     1  0  0  0  0  0999 V2000
   -3.5415   -2.6106    0.4746 H   0  0  0  0  0  0  0  0  0  0  0  0
   -3.5233   -1.8293   -0.2903 C   0  0  0  0  0  0  0  0  0  0  0  0
   -4.2748   -1.0762   -0.0406 H   0  0  0  0  0  0  0  0  0  0  0  0
   -3.7687   -2.2761   -1.2565 H   0  0  0  0  0  0  0  0  0  0  0  0
   -2.1493   -1.1893   -0.3497 C   0  0  0  0  0  0  0  0  0  0  0  0
   -1.2625   -1.6048    0.3774 O   0  0  0  0  0  0  0  0  0  0  0  0
   -1.9382   -0.1261   -1.2043 N   0  0  0  0  0  0  0  0  0  0  0  0
   -2.7878    0.3056   -1.5583 H   0  0  0  0  0  0  0  0  0  0  0  0
   -0.7554    0.7527   -1.1157 C   0  0  1  0  0  0  0  0  0  0  0  0
   -0.1065    0.4619   -0.2824 H   0  0  0  0  0  0  0  0  0  0  0  0
    0.0448    0.6264   -2.4292 C   0  0  0  0  0  0  0  0  0  0  0  0
   -0.6169    0.8373   -3.2754 H   0  0  0  0  0  0  0  0  0  0  0  0
    0.8591    1.3553   -2.4585 H   0  0  0  0  0  0  0  0  0  0  0  0
    0.6500   -0.7431   -2.5914 C   0  0  0  0  0  0  0  0  0  0  0  0
    0.1239   -1.7841   -3.3176 C   0  0  0  0  0  0  0  0  0  0  0  0
   -0.8165   -1.7609   -3.8623 H   0  0  0  0  0  0  0  0  0  0  0  0
    1.0075   -2.8566   -3.2201 N   0  0  0  0  0  0  0  0  0  0  0  0
    0.8649   -3.7774   -3.6282 H   0  0  0  0  0  0  0  0  0  0  0  0
    2.0950   -2.5144   -2.4329 C   0  0  0  0  0  0  0  0  0  0  0  0
    3.2226   -3.2381   -2.0448 C   0  0  0  0  0  0  0  0  0  0  0  0
    3.3543   -4.2629   -2.3736 H   0  0  0  0  0  0  0  0  0  0  0  0
    4.1780   -2.6244   -1.2229 C   0  0  0  0  0  0  0  0  0  0  0  0
    5.0588   -3.1770   -0.9104 H   0  0  0  0  0  0  0  0  0  0  0  0
    3.9939   -1.2997   -0.7977 C   0  0  0  0  0  0  0  0  0  0  0  0
    4.7327   -0.8304   -0.1556 H   0  0  0  0  0  0  0  0  0  0  0  0
    2.8556   -0.5826   -1.1934 C   0  0  0  0  0  0  0  0  0  0  0  0
    2.7064    0.4379   -0.8589 H   0  0  0  0  0  0  0  0  0  0  0  0
    1.9094   -1.2005   -2.0179 C   0  0  0  0  0  0  0  0  0  0  0  0
   -1.1893    2.2180   -0.8582 C   0  0  0  0  0  0  0  0  0  0  0  0
   -2.2909    2.4497   -0.3720 O   0  0  0  0  0  0  0  0  0  0  0  0
   -0.4441    3.2949   -1.3102 N   0  0  0  0  0  0  0  0  0  0  0  0
    0.4658    3.1000   -1.7169 H   0  0  0  0  0  0  0  0  0  0  0  0
   -0.8497    4.6845   -1.1318 C   0  0  0  0  0  0  0  0  0  0  0  0
   -0.9854    4.9111   -0.0689 H   0  0  0  0  0  0  0  0  0  0  0  0
   -0.0845    5.3563   -1.5325 H   0  0  0  0  0  0  0  0  0  0  0  0
   -1.7903    4.8803   -1.6572 H   0  0  0  0  0  0  0  0  0  0  0  0
  1  2  1  0  0  0  0
  2  3  1  0  0  0  0
  2  4  1  0  0  0  0
  2  5  1  0  0  0  0
  5  6  2  0  0  0  0
  5  7  1  0  0  0  0
  7  8  1  0  0  0  0
  7  9  1  0  0  0  0
  9 10  1  0  0  0  0
  9 11  1  0  0  0  0
  9 29  1  0  0  0  0
 11 12  1  0  0  0  0
 11 13  1  0  0  0  0
 11 14  1  0  0  0  0
 14 15  2  0  0  0  0
 14 28  1  0  0  0  0
 15 16  1  0  0  0  0
 15 17  1  0  0  0  0
 17 18  1  0  0  0  0
 17 19  1  0  0  0  0
 19 20  1  0  0  0  0
 19 28  2  0  0  0  0
 20 21  1  0  0  0  0
 20 22  2  0  0  0  0
 22 23  1  0  0  0  0
 22 24  1  0  0  0  0
 24 25  1  0  0  0  0
 24 26  2  0  0  0  0
 26 27  1  0  0  0  0
 26 28  1  0  0  0  0
 29 30  2  0  0  0  0
 29 31  1  0  0  0  0
 31 32  1  0  0  0  0
 31 33  1  0  0  0  0
 33 34  1  0  0  0  0
 33 35  1  0  0  0  0
 33 36  1  0  0  0  0
M  END
$$$$

  -OEChem-01062216103D

 36 37  0     1  0  0  0  0  0999 V2000
   -3.5336   -2.6079    0.4773 H   0  0  0  0  0  0  0  0  0  0  0  0
   -3.5225   -1.8243   -0.2858 C   0  0  0  0  0  0  0  0  0  0  0  0
   -4.2711   -1.0715   -0.0264 H   0  0  0  0  0  0  0  0  0  0  0  0
   -3.7783   -2.2684   -1.2505 H   0  0  0  0  0  0  0  0  0  0  0  0
   -2.1485   -1.1848   -0.3568 C   0  0  0  0  0  0  0  0  0  0  0  0
   -1.2541   -1.6073    0.3565 O   0  0  0  0  0  0  0  0  0  0  0  0
   -1.9441   -0.1211   -1.2132 N   0  0  0  0  0  0  0  0  0  0  0  0
   -2.7945    0.3002   -1.5754 H   0  0  0  0  0  0  0  0  0  0  0  0
   -0.7578    0.7544   -1.1354 C   0  0  1  0  0  0  0  0  0  0  0  0
   -0.1083    0.4652   -0.3020 H   0  0  0  0  0  0  0  0  0  0  0  0
    0.0458    0.6185   -2.4452 C   0  0  0  0  0  0  0  0  0  0  0  0
   -0.6125    0.8255   -3.2952 H   0  0  0  0  0  0  0  0  0  0  0  0
    0.8622    1.3457   -2.4719 H   0  0  0  0  0  0  0  0  0  0  0  0
    0.6501   -0.7522   -2.5973 C   0  0  0  0  0  0  0  0  0  0  0  0
    0.1265   -1.7983   -3.3179 C   0  0  0  0  0  0  0  0  0  0  0  0
   -0.8130   -1.7798   -3.8642 H   0  0  0  0  0  0  0  0  0  0  0  0
    1.0111   -2.8694   -3.2125 N   0  0  0  0  0  0  0  0  0  0  0  0
    0.8688   -3.7940   -3.6123 H   0  0  0  0  0  0  0  0  0  0  0  0
    2.0971   -2.5208   -2.4257 C   0  0  0  0  0  0  0  0  0  0  0  0
    3.2259   -3.2396   -2.0316 C   0  0  0  0  0  0  0  0  0  0  0  0
    3.3608   -4.2654   -2.3555 H   0  0  0  0  0  0  0  0  0  0  0  0
    4.1787   -2.6195   -1.2111 C   0  0  0  0  0  0  0  0  0  0  0  0
    5.0605   -3.1683   -0.8945 H   0  0  0  0  0  0  0  0  0  0  0  0
    3.9907   -1.2931   -0.7929 C   0  0  0  0  0  0  0  0  0  0  0  0
    4.7269   -0.8184   -0.1515 H   0  0  0  0  0  0  0  0  0  0  0  0
    2.8516   -0.5807   -1.1948 C   0  0  0  0  0  0  0  0  0  0  0  0
    2.6989    0.4412   -0.8657 H   0  0  0  0  0  0  0  0  0  0  0  0
    1.9086   -1.2049   -2.0184 C   0  0  0  0  0  0  0  0  0  0  0  0
   -1.1888    2.2193   -0.8721 C   0  0  0  0  0  0  0  0  0  0  0  0
   -2.1509    2.4442   -0.1478 O   0  0  0  0  0  0  0  0  0  0  0  0
   -0.6434    3.2879   -1.5658 N   0  0  0  0  0  0  0  0  0  0  0  0
    0.1430    3.0987   -2.1796 H   0  0  0  0  0  0  0  0  0  0  0  0
   -1.0741    4.6696   -1.3842 C   0  0  0  0  0  0  0  0  0  0  0  0
   -0.9573    4.9738   -0.3386 H   0  0  0  0  0  0  0  0  0  0  0  0
   -0.4718    5.3379   -2.0071 H   0  0  0  0  0  0  0  0  0  0  0  0
   -2.1250    4.7846   -1.6697 H   0  0  0  0  0  0  0  0  0  0  0  0
  1  2  1  0  0  0  0
  2  3  1  0  0  0  0
  2  4  1  0  0  0  0
  2  5  1  0  0  0  0
  5  6  2  0  0  0  0
  5  7  1  0  0  0  0
  7  8  1  0  0  0  0
  7  9  1  0  0  0  0
  9 10  1  0  0  0  0
  9 11  1  0  0  0  0
  9 29  1  0  0  0  0
 11 12  1  0  0  0  0
 11 13  1  0  0  0  0
 11 14  1  0  0  0  0
 14 15  2  0  0  0  0
 14 28  1  0  0  0  0
 15 16  1  0  0  0  0
 15 17  1  0  0  0  0
 17 18  1  0  0  0  0
 17 19  1  0  0  0  0
 19 20  1  0  0  0  0
 19 28  2  0  0  0  0
 20 21  1  0  0  0  0
 20 22  2  0  0  0  0
 22 23  1  0  0  0  0
 22 24  1  0  0  0  0
 24 25  1  0  0  0  0
 24 26  2  0  0  0  0
 26 27  1  0  0  0  0
 26 28  1  0  0  0  0
 29 30  2  0  0  0  0
 29 31  1  0  0  0  0
 31 32  1  0  0  0  0
 31 33  1  0  0  0  0
 33 34  1  0  0  0  0
 33 35  1  0  0  0  0
 33 36  1  0  0  0  0
M  END
$$$$

  -OEChem-01062216103D

 36 37  0     1  0  0  0  0  0999 V2000
   -3.5208   -2.6162    0.4820 H   0  0  0  0  0  0  0  0  0  0  0  0
   -3.5179   -1.8293   -0.2774 C   0  0  0  0  0  0  0  0  0  0  0  0
   -4.2666   -1.0801   -0.0086 H   0  0  0  0  0  0  0  0  0  0  0  0
   -3.7795   -2.2696   -1.2422 H   0  0  0  0  0  0  0  0  0  0  0  0
   -2.1462   -1.1859   -0.3557 C   0  0  0  0  0  0  0  0  0  0  0  0
   -1.2465   -1.6078    0.3508 O   0  0  0  0  0  0  0  0  0  0  0  0
   -1.9498   -0.1230   -1.2154 N   0  0  0  0  0  0  0  0  0  0  0  0
   -2.7994    0.2800   -1.5977 H   0  0  0  0  0  0  0  0  0  0  0  0
   -0.7632    0.7526   -1.1530 C   0  0  1  0  0  0  0  0  0  0  0  0
   -0.1093    0.4662   -0.3220 H   0  0  0  0  0  0  0  0  0  0  0  0
    0.0392    0.6152   -2.4628 C   0  0  0  0  0  0  0  0  0  0  0  0
   -0.6202    0.8135   -3.3139 H   0  0  0  0  0  0  0  0  0  0  0  0
    0.8497    1.3497   -2.4887 H   0  0  0  0  0  0  0  0  0  0  0  0
    0.6483   -0.7535   -2.6115 C   0  0  0  0  0  0  0  0  0  0  0  0
    0.1296   -1.8050   -3.3280 C   0  0  0  0  0  0  0  0  0  0  0  0
   -0.8083   -1.7930   -3.8772 H   0  0  0  0  0  0  0  0  0  0  0  0
    1.0175   -2.8726   -3.2147 N   0  0  0  0  0  0  0  0  0  0  0  0
    0.8788   -3.8002   -3.6084 H   0  0  0  0  0  0  0  0  0  0  0  0
    2.0983   -2.5175   -2.4239 C   0  0  0  0  0  0  0  0  0  0  0  0
    3.2251   -3.2326   -2.0180 C   0  0  0  0  0  0  0  0  0  0  0  0
    3.3634   -4.2604   -2.3348 H   0  0  0  0  0  0  0  0  0  0  0  0
    4.1702   -2.6071   -1.1925 C   0  0  0  0  0  0  0  0  0  0  0  0
    5.0498   -3.1530   -0.8651 H   0  0  0  0  0  0  0  0  0  0  0  0
    3.9765   -1.2792   -0.7819 C   0  0  0  0  0  0  0  0  0  0  0  0
    4.7052   -0.8004   -0.1353 H   0  0  0  0  0  0  0  0  0  0  0  0
    2.8398   -0.5703   -1.1967 C   0  0  0  0  0  0  0  0  0  0  0  0
    2.6822    0.4529   -0.8730 H   0  0  0  0  0  0  0  0  0  0  0  0
    1.9046   -1.2003   -2.0244 C   0  0  0  0  0  0  0  0  0  0  0  0
   -1.1917    2.2162   -0.8877 C   0  0  0  0  0  0  0  0  0  0  0  0
   -1.9533    2.4615    0.0385 O   0  0  0  0  0  0  0  0  0  0  0  0
   -0.8993    3.2439   -1.7706 N   0  0  0  0  0  0  0  0  0  0  0  0
   -0.2800    3.0349   -2.5477 H   0  0  0  0  0  0  0  0  0  0  0  0
   -1.3381    4.6209   -1.5740 C   0  0  0  0  0  0  0  0  0  0  0  0
   -0.9706    5.0068   -0.6172 H   0  0  0  0  0  0  0  0  0  0  0  0
   -0.9518    5.2590   -2.3745 H   0  0  0  0  0  0  0  0  0  0  0  0
   -2.4315    4.6805   -1.5820 H   0  0  0  0  0  0  0  0  0  0  0  0
  1  2  1  0  0  0  0
  2  3  1  0  0  0  0
  2  4  1  0  0  0  0
  2  5  1  0  0  0  0
  5  6  2  0  0  0  0
  5  7  1  0  0  0  0
  7  8  1  0  0  0  0
  7  9  1  0  0  0  0
  9 10  1  0  0  0  0
  9 11  1  0  0  0  0
  9 29  1  0  0  0  0
 11 12  1  0  0  0  0
 11 13  1  0  0  0  0
 11 14  1  0  0  0  0
 14 15  2  0  0  0  0
 14 28  1  0  0  0  0
 15 16  1  0  0  0  0
 15 17  1  0  0  0  0
 17 18  1  0  0  0  0
 17 19  1  0  0  0  0
 19 20  1  0  0  0  0
 19 28  2  0  0  0  0
 20 21  1  0  0  0  0
 20 22  2  0  0  0  0
 22 23  1  0  0  0  0
 22 24  1  0  0  0  0
 24 25  1  0  0  0  0
 24 26  2  0  0  0  0
 26 27  1  0  0  0  0
 26 28  1  0  0  0  0
 29 30  2  0  0  0  0
 29 31  1  0  0  0  0
 31 32  1  0  0  0  0
 31 33  1  0  0  0  0
 33 34  1  0  0  0  0
 33 35  1  0  0  0  0
 33 36  1  0  0  0  0
M  END
$$$$

  -OEChem-01062216103D

 36 37  0     1  0  0  0  0  0999 V2000
   -3.5244   -2.6454    0.4665 H   0  0  0  0  0  0  0  0  0  0  0  0
   -3.5205   -1.8592   -0.2937 C   0  0  0  0  0  0  0  0  0  0  0  0
   -4.2916   -1.1264   -0.0440 H   0  0  0  0  0  0  0  0  0  0  0  0
   -3.7487   -2.3059   -1.2640 H   0  0  0  0  0  0  0  0  0  0  0  0
   -2.1613   -1.1867   -0.3396 C   0  0  0  0  0  0  0  0  0  0  0  0
   -1.2700   -1.5910    0.3870 O   0  0  0  0  0  0  0  0  0  0  0  0
   -1.9638   -0.1253   -1.2012 N   0  0  0  0  0  0  0  0  0  0  0  0
   -2.8033    0.2454   -1.6345 H   0  0  0  0  0  0  0  0  0  0  0  0
   -0.7776    0.7520   -1.1497 C   0  0  1  0  0  0  0  0  0  0  0  0
   -0.1192    0.4673   -0.3210 H   0  0  0  0  0  0  0  0  0  0  0  0
    0.0215    0.6142   -2.4604 C   0  0  0  0  0  0  0  0  0  0  0  0
   -0.6415    0.8019   -3.3106 H   0  0  0  0  0  0  0  0  0  0  0  0
    0.8243    1.3579   -2.4911 H   0  0  0  0  0  0  0  0  0  0  0  0
    0.6344   -0.7531   -2.6069 C   0  0  0  0  0  0  0  0  0  0  0  0
    0.1191   -1.8095   -3.3189 C   0  0  0  0  0  0  0  0  0  0  0  0
   -0.8194   -1.8041   -3.8671 H   0  0  0  0  0  0  0  0  0  0  0  0
    1.0120   -2.8727   -3.2036 N   0  0  0  0  0  0  0  0  0  0  0  0
    0.8784   -3.8016   -3.5963 H   0  0  0  0  0  0  0  0  0  0  0  0
    2.0935   -2.5100   -2.4168 C   0  0  0  0  0  0  0  0  0  0  0  0
    3.2259   -3.2170   -2.0118 C   0  0  0  0  0  0  0  0  0  0  0  0
    3.3697   -4.2448   -2.3250 H   0  0  0  0  0  0  0  0  0  0  0  0
    4.1709   -2.5831   -1.1927 C   0  0  0  0  0  0  0  0  0  0  0  0
    5.0554   -3.1221   -0.8667 H   0  0  0  0  0  0  0  0  0  0  0  0
    3.9716   -1.2547   -0.7869 C   0  0  0  0  0  0  0  0  0  0  0  0
    4.7008   -0.7688   -0.1458 H   0  0  0  0  0  0  0  0  0  0  0  0
    2.8292   -0.5542   -1.1999 C   0  0  0  0  0  0  0  0  0  0  0  0
    2.6679    0.4693   -0.8796 H   0  0  0  0  0  0  0  0  0  0  0  0
    1.8941   -1.1923   -2.0216 C   0  0  0  0  0  0  0  0  0  0  0  0
   -1.1957    2.2169   -0.8884 C   0  0  0  0  0  0  0  0  0  0  0  0
   -1.7025    2.5206    0.1821 O   0  0  0  0  0  0  0  0  0  0  0  0
   -1.1809    3.1713   -1.8934 N   0  0  0  0  0  0  0  0  0  0  0  0
   -0.7598    2.9136   -2.7806 H   0  0  0  0  0  0  0  0  0  0  0  0
   -1.6155    4.5497   -1.6966 C   0  0  0  0  0  0  0  0  0  0  0  0
   -1.0305    5.0266   -0.9029 H   0  0  0  0  0  0  0  0  0  0  0  0
   -1.4799    5.1244   -2.6179 H   0  0  0  0  0  0  0  0  0  0  0  0
   -2.6750    4.5828   -1.4217 H   0  0  0  0  0  0  0  0  0  0  0  0
  1  2  1  0  0  0  0
  2  3  1  0  0  0  0
  2  4  1  0  0  0  0
  2  5  1  0  0  0  0
  5  6  2  0  0  0  0
  5  7  1  0  0  0  0
  7  8  1  0  0  0  0
  7  9  1  0  0  0  0
  9 10  1  0  0  0  0
  9 11  1  0  0  0  0
  9 29  1  0  0  0  0
 11 12  1  0  0  0  0
 11 13  1  0  0  0  0
 11 14  1  0  0  0  0
 14 15  2  0  0  0  0
 14 28  1  0  0  0  0
 15 16  1  0  0  0  0
 15 17  1  0  0  0  0
 17 18  1  0  0  0  0
 17 19  1  0  0  0  0
 19 20  1  0  0  0  0
 19 28  2  0  0  0  0
 20 21  1  0  0  0  0
 20 22  2  0  0  0  0
 22 23  1  0  0  0  0
 22 24  1  0  0  0  0
 24 25  1  0  0  0  0
 24 26  2  0  0  0  0
 26 27  1  0  0  0  0
 26 28  1  0  0  0  0
 29 30  2  0  0  0  0
 29 31  1  0  0  0  0
 31 32  1  0  0  0  0
 31 33  1  0  0  0  0
 33 34  1  0  0  0  0
 33 35  1  0  0  0  0
 33 36  1  0  0  0  0
M  END
$$$$

  -OEChem-01062216103D

 36 37  0     1  0  0  0  0  0999 V2000
   -3.5260   -2.6778    0.4555 H   0  0  0  0  0  0  0  0  0  0  0  0
   -3.5187   -1.8958   -0.3091 C   0  0  0  0  0  0  0  0  0  0  0  0
   -4.3117   -1.1786   -0.0841 H   0  0  0  0  0  0  0  0  0  0  0  0
   -3.7120   -2.3528   -1.2823 H   0  0  0  0  0  0  0  0  0  0  0  0
   -2.1732   -1.1948   -0.3238 C   0  0  0  0  0  0  0  0  0  0  0  0
   -1.2932   -1.5765    0.4275 O   0  0  0  0  0  0  0  0  0  0  0  0
   -1.9760   -0.1330   -1.1853 N   0  0  0  0  0  0  0  0  0  0  0  0
   -2.8029    0.2041   -1.6667 H   0  0  0  0  0  0  0  0  0  0  0  0
   -0.7914    0.7471   -1.1439 C   0  0  1  0  0  0  0  0  0  0  0  0
   -0.1275    0.4608   -0.3199 H   0  0  0  0  0  0  0  0  0  0  0  0
    0.0015    0.6166   -2.4584 C   0  0  0  0  0  0  0  0  0  0  0  0
   -0.6647    0.8007   -3.3066 H   0  0  0  0  0  0  0  0  0  0  0  0
    0.7979    1.3675   -2.4911 H   0  0  0  0  0  0  0  0  0  0  0  0
    0.6187   -0.7485   -2.6086 C   0  0  0  0  0  0  0  0  0  0  0  0
    0.1081   -1.8090   -3.3181 C   0  0  0  0  0  0  0  0  0  0  0  0
   -0.8301   -1.8096   -3.8667 H   0  0  0  0  0  0  0  0  0  0  0  0
    1.0056   -2.8681   -3.1994 N   0  0  0  0  0  0  0  0  0  0  0  0
    0.8771   -3.7986   -3.5901 H   0  0  0  0  0  0  0  0  0  0  0  0
    2.0858   -2.4979   -2.4138 C   0  0  0  0  0  0  0  0  0  0  0  0
    3.2217   -3.1977   -2.0057 C   0  0  0  0  0  0  0  0  0  0  0  0
    3.3706   -4.2262   -2.3141 H   0  0  0  0  0  0  0  0  0  0  0  0
    4.1636   -2.5558   -1.1891 C   0  0  0  0  0  0  0  0  0  0  0  0
    5.0506   -3.0892   -0.8608 H   0  0  0  0  0  0  0  0  0  0  0  0
    3.9580   -1.2268   -0.7888 C   0  0  0  0  0  0  0  0  0  0  0  0
    4.6848   -0.7346   -0.1496 H   0  0  0  0  0  0  0  0  0  0  0  0
    2.8121   -0.5338   -1.2042 C   0  0  0  0  0  0  0  0  0  0  0  0
    2.6454    0.4903   -0.8879 H   0  0  0  0  0  0  0  0  0  0  0  0
    1.8805   -1.1801   -2.0232 C   0  0  0  0  0  0  0  0  0  0  0  0
   -1.2008    2.2125   -0.8842 C   0  0  0  0  0  0  0  0  0  0  0  0
   -1.4025    2.6003    0.2571 O   0  0  0  0  0  0  0  0  0  0  0  0
   -1.4842    3.0764   -1.9300 N   0  0  0  0  0  0  0  0  0  0  0  0
   -1.2854    2.7554   -2.8722 H   0  0  0  0  0  0  0  0  0  0  0  0
   -1.9024    4.4597   -1.7322 C   0  0  0  0  0  0  0  0  0  0  0  0
   -1.1443    5.0126   -1.1672 H   0  0  0  0  0  0  0  0  0  0  0  0
   -2.0429    4.9549   -2.6977 H   0  0  0  0  0  0  0  0  0  0  0  0
   -2.8491    4.4994   -1.1830 H   0  0  0  0  0  0  0  0  0  0  0  0
  1  2  1  0  0  0  0
  2  3  1  0  0  0  0
  2  4  1  0  0  0  0
  2  5  1  0  0  0  0
  5  6  2  0  0  0  0
  5  7  1  0  0  0  0
  7  8  1  0  0  0  0
  7  9  1  0  0  0  0
  9 10  1  0  0  0  0
  9 11  1  0  0  0  0
  9 29  1  0  0  0  0
 11 12  1  0  0  0  0
 11 13  1  0  0  0  0
 11 14  1  0  0  0  0
 14 15  2  0  0  0  0
 14 28  1  0  0  0  0
 15 16  1  0  0  0  0
 15 17  1  0  0  0  0
 17 18  1  0  0  0  0
 17 19  1  0  0  0  0
 19 20  1  0  0  0  0
 19 28  2  0  0  0  0
 20 21  1  0  0  0  0
 20 22  2  0  0  0  0
 22 23  1  0  0  0  0
 22 24  1  0  0  0  0
 24 25  1  0  0  0  0
 24 26  2  0  0  0  0
 26 27  1  0  0  0  0
 26 28  1  0  0  0  0
 29 30  2  0  0  0  0
 29 31  1  0  0  0  0
 31 32  1  0  0  0  0
 31 33  1  0  0  0  0
 33 34  1  0  0  0  0
 33 35  1  0  0  0  0
 33 36  1  0  0  0  0
M  END
$$$$

  -OEChem-01062216103D

 36 37  0     1  0  0  0  0  0999 V2000
   -3.4965   -2.7514    0.4240 H   0  0  0  0  0  0  0  0  0  0  0  0
   -3.4985   -1.9548   -0.3256 C   0  0  0  0  0  0  0  0  0  0  0  0
   -4.3271   -1.2753   -0.1125 H   0  0  0  0  0  0  0  0  0  0  0  0
   -3.6429   -2.4013   -1.3120 H   0  0  0  0  0  0  0  0  0  0  0  0
   -2.1835   -1.1990   -0.2855 C   0  0  0  0  0  0  0  0  0  0  0  0
   -1.3288   -1.5321    0.5160 O   0  0  0  0  0  0  0  0  0  0  0  0
   -1.9868   -0.1402   -1.1513 N   0  0  0  0  0  0  0  0  0  0  0  0
   -2.7890    0.1426   -1.7032 H   0  0  0  0  0  0  0  0  0  0  0  0
   -0.8059    0.7460   -1.1195 C   0  0  1  0  0  0  0  0  0  0  0  0
   -0.1349    0.4619   -0.3005 H   0  0  0  0  0  0  0  0  0  0  0  0
   -0.0210    0.6317   -2.4392 C   0  0  0  0  0  0  0  0  0  0  0  0
   -0.6920    0.8195   -3.2826 H   0  0  0  0  0  0  0  0  0  0  0  0
    0.7687    1.3897   -2.4691 H   0  0  0  0  0  0  0  0  0  0  0  0
    0.6049   -0.7279   -2.6040 C   0  0  0  0  0  0  0  0  0  0  0  0
    0.0952   -1.7849   -3.3196 C   0  0  0  0  0  0  0  0  0  0  0  0
   -0.8424   -1.7832   -3.8690 H   0  0  0  0  0  0  0  0  0  0  0  0
    0.9947   -2.8431   -3.2100 N   0  0  0  0  0  0  0  0  0  0  0  0
    0.8731   -3.7677   -3.6166 H   0  0  0  0  0  0  0  0  0  0  0  0
    2.0728   -2.4781   -2.4193 C   0  0  0  0  0  0  0  0  0  0  0  0
    3.2075   -3.1810   -2.0137 C   0  0  0  0  0  0  0  0  0  0  0  0
    3.3570   -4.2071   -2.3297 H   0  0  0  0  0  0  0  0  0  0  0  0
    4.1468   -2.5451   -1.1892 C   0  0  0  0  0  0  0  0  0  0  0  0
    5.0332   -3.0808   -0.8630 H   0  0  0  0  0  0  0  0  0  0  0  0
    3.9392   -1.2192   -0.7786 C   0  0  0  0  0  0  0  0  0  0  0  0
    4.6635   -0.7311   -0.1337 H   0  0  0  0  0  0  0  0  0  0  0  0
    2.7944   -0.5229   -1.1920 C   0  0  0  0  0  0  0  0  0  0  0  0
    2.6259    0.4989   -0.8687 H   0  0  0  0  0  0  0  0  0  0  0  0
    1.8657   -1.1632   -2.0191 C   0  0  0  0  0  0  0  0  0  0  0  0
   -1.2155    2.2116   -0.8685 C   0  0  0  0  0  0  0  0  0  0  0  0
   -1.0780    2.7167    0.2358 O   0  0  0  0  0  0  0  0  0  0  0  0
   -1.7953    2.9655   -1.8763 N   0  0  0  0  0  0  0  0  0  0  0  0
   -1.8377    2.5556   -2.8035 H   0  0  0  0  0  0  0  0  0  0  0  0
   -2.1814    4.3615   -1.7062 C   0  0  0  0  0  0  0  0  0  0  0  0
   -1.3084    4.9731   -1.4545 H   0  0  0  0  0  0  0  0  0  0  0  0
   -2.6200    4.7481   -2.6311 H   0  0  0  0  0  0  0  0  0  0  0  0
   -2.9227    4.4599   -0.9059 H   0  0  0  0  0  0  0  0  0  0  0  0
  1  2  1  0  0  0  0
  2  3  1  0  0  0  0
  2  4  1  0  0  0  0
  2  5  1  0  0  0  0
  5  6  2  0  0  0  0
  5  7  1  0  0  0  0
  7  8  1  0  0  0  0
  7  9  1  0  0  0  0
  9 10  1  0  0  0  0
  9 11  1  0  0  0  0
  9 29  1  0  0  0  0
 11 12  1  0  0  0  0
 11 13  1  0  0  0  0
 11 14  1  0  0  0  0
 14 15  2  0  0  0  0
 14 28  1  0  0  0  0
 15 16  1  0  0  0  0
 15 17  1  0  0  0  0
 17 18  1  0  0  0  0
 17 19  1  0  0  0  0
 19 20  1  0  0  0  0
 19 28  2  0  0  0  0
 20 21  1  0  0  0  0
 20 22  2  0  0  0  0
 22 23  1  0  0  0  0
 22 24  1  0  0  0  0
 24 25  1  0  0  0  0
 24 26  2  0  0  0  0
 26 27  1  0  0  0  0
 26 28  1  0  0  0  0
 29 30  2  0  0  0  0
 29 31  1  0  0  0  0
 31 32  1  0  0  0  0
 31 33  1  0  0  0  0
 33 34  1  0  0  0  0
 33 35  1  0  0  0  0
 33 36  1  0  0  0  0
M  END
$$$$

  -OEChem-01062216103D

 36 37  0     1  0  0  0  0  0999 V2000
   -3.4581   -2.8277    0.3854 H   0  0  0  0  0  0  0  0  0  0  0  0
   -3.4572   -2.0355   -0.3690 C   0  0  0  0  0  0  0  0  0  0  0  0
   -4.3367   -1.4053   -0.2170 H   0  0  0  0  0  0  0  0  0  0  0  0
   -3.5096   -2.4943   -1.3590 H   0  0  0  0  0  0  0  0  0  0  0  0
   -2.1950   -1.2024   -0.2485 C   0  0  0  0  0  0  0  0  0  0  0  0
   -1.3847   -1.4677    0.6210 O   0  0  0  0  0  0  0  0  0  0  0  0
   -1.9998   -0.1437   -1.1145 N   0  0  0  0  0  0  0  0  0  0  0  0
   -2.7484    0.0507   -1.7688 H   0  0  0  0  0  0  0  0  0  0  0  0
   -0.8198    0.7454   -1.0922 C   0  0  1  0  0  0  0  0  0  0  0  0
   -0.1402    0.4571   -0.2815 H   0  0  0  0  0  0  0  0  0  0  0  0
   -0.0508    0.6421   -2.4204 C   0  0  0  0  0  0  0  0  0  0  0  0
   -0.7291    0.8389   -3.2556 H   0  0  0  0  0  0  0  0  0  0  0  0
    0.7393    1.4001   -2.4523 H   0  0  0  0  0  0  0  0  0  0  0  0
    0.5737   -0.7168   -2.5958 C   0  0  0  0  0  0  0  0  0  0  0  0
    0.0621   -1.7752   -3.3081 C   0  0  0  0  0  0  0  0  0  0  0  0
   -0.8770   -1.7753   -3.8546 H   0  0  0  0  0  0  0  0  0  0  0  0
    0.9639   -2.8320   -3.2005 N   0  0  0  0  0  0  0  0  0  0  0  0
    0.8471   -3.7546   -3.6132 H   0  0  0  0  0  0  0  0  0  0  0  0
    2.0448   -2.4648   -2.4140 C   0  0  0  0  0  0  0  0  0  0  0  0
    3.1839   -3.1628   -2.0117 C   0  0  0  0  0  0  0  0  0  0  0  0
    3.3368   -4.1889   -2.3268 H   0  0  0  0  0  0  0  0  0  0  0  0
    4.1242   -2.5218   -1.1922 C   0  0  0  0  0  0  0  0  0  0  0  0
    5.0148   -3.0527   -0.8701 H   0  0  0  0  0  0  0  0  0  0  0  0
    3.9130   -1.1965   -0.7816 C   0  0  0  0  0  0  0  0  0  0  0  0
    4.6377   -0.7042   -0.1403 H   0  0  0  0  0  0  0  0  0  0  0  0
    2.7644   -0.5048   -1.1913 C   0  0  0  0  0  0  0  0  0  0  0  0
    2.5925    0.5173   -0.8693 H   0  0  0  0  0  0  0  0  0  0  0  0
    1.8361   -1.1501   -2.0146 C   0  0  0  0  0  0  0  0  0  0  0  0
   -1.2147    2.2140   -0.8422 C   0  0  0  0  0  0  0  0  0  0  0  0
   -0.7506    2.8329    0.1041 O   0  0  0  0  0  0  0  0  0  0  0  0
   -2.0631    2.8712   -1.7187 N   0  0  0  0  0  0  0  0  0  0  0  0
   -2.3576    2.3726   -2.5509 H   0  0  0  0  0  0  0  0  0  0  0  0
   -2.4170    4.2789   -1.5794 C   0  0  0  0  0  0  0  0  0  0  0  0
   -1.5232    4.9077   -1.6497 H   0  0  0  0  0  0  0  0  0  0  0  0
   -3.1116    4.5740   -2.3716 H   0  0  0  0  0  0  0  0  0  0  0  0
   -2.8996    4.4590   -0.6129 H   0  0  0  0  0  0  0  0  0  0  0  0
  1  2  1  0  0  0  0
  2  3  1  0  0  0  0
  2  4  1  0  0  0  0
  2  5  1  0  0  0  0
  5  6  2  0  0  0  0
  5  7  1  0  0  0  0
  7  8  1  0  0  0  0
  7  9  1  0  0  0  0
  9 10  1  0  0  0  0
  9 11  1  0  0  0  0
  9 29  1  0  0  0  0
 11 12  1  0  0  0  0
 11 13  1  0  0  0  0
 11 14  1  0  0  0  0
 14 15  2  0  0  0  0
 14 28  1  0  0  0  0
 15 16  1  0  0  0  0
 15 17  1  0  0  0  0
 17 18  1  0  0  0  0
 17 19  1  0  0  0  0
 19 20  1  0  0  0  0
 19 28  2  0  0  0  0
 20 21  1  0  0  0  0
 20 22  2  0  0  0  0
 22 23  1  0  0  0  0
 22 24  1  0  0  0  0
 24 25  1  0  0  0  0
 24 26  2  0  0  0  0
 26 27  1  0  0  0  0
 26 28  1  0  0  0  0
 29 30  2  0  0  0  0
 29 31  1  0  0  0  0
 31 32  1  0  0  0  0
 31 33  1  0  0  0  0
 33 34  1  0  0  0  0
 33 35  1  0  0  0  0
 33 36  1  0  0  0  0
M  END
$$$$

  -OEChem-01062216103D

 36 37  0     1  0  0  0  0  0999 V2000
   -3.2247   -2.9552    0.3129 H   0  0  0  0  0  0  0  0  0  0  0  0
   -3.2346   -2.1976   -0.4759 C   0  0  0  0  0  0  0  0  0  0  0  0
   -4.2293   -1.7475   -0.5184 H   0  0  0  0  0  0  0  0  0  0  0  0
   -3.0168   -2.6832   -1.4298 H   0  0  0  0  0  0  0  0  0  0  0  0
   -2.1941   -1.1322   -0.1865 C   0  0  0  0  0  0  0  0  0  0  0  0
   -1.5461   -1.1899    0.8433 O   0  0  0  0  0  0  0  0  0  0  0  0
   -2.0242   -0.0923   -1.0800 N   0  0  0  0  0  0  0  0  0  0  0  0
   -2.5241   -0.1930   -1.9553 H   0  0  0  0  0  0  0  0  0  0  0  0
   -0.8374    0.7887   -1.0708 C   0  0  1  0  0  0  0  0  0  0  0  0
   -0.1486    0.4983   -0.2688 H   0  0  0  0  0  0  0  0  0  0  0  0
   -0.0920    0.6706   -2.4103 C   0  0  0  0  0  0  0  0  0  0  0  0
   -0.7817    0.8753   -3.2347 H   0  0  0  0  0  0  0  0  0  0  0  0
    0.7069    1.4184   -2.4592 H   0  0  0  0  0  0  0  0  0  0  0  0
    0.5134   -0.6975   -2.5847 C   0  0  0  0  0  0  0  0  0  0  0  0
   -0.0193   -1.7566   -3.2808 C   0  0  0  0  0  0  0  0  0  0  0  0
   -0.9580   -1.7489   -3.8282 H   0  0  0  0  0  0  0  0  0  0  0  0
    0.8643   -2.8271   -3.1618 N   0  0  0  0  0  0  0  0  0  0  0  0
    0.7395   -3.7479   -3.5768 H   0  0  0  0  0  0  0  0  0  0  0  0
    1.9558   -2.4673   -2.3871 C   0  0  0  0  0  0  0  0  0  0  0  0
    3.0863   -3.1784   -1.9843 C   0  0  0  0  0  0  0  0  0  0  0  0
    3.2217   -4.2098   -2.2896 H   0  0  0  0  0  0  0  0  0  0  0  0
    4.0415   -2.5430   -1.1776 C   0  0  0  0  0  0  0  0  0  0  0  0
    4.9254   -3.0844   -0.8536 H   0  0  0  0  0  0  0  0  0  0  0  0
    3.8546   -1.2090   -0.7830 C   0  0  0  0  0  0  0  0  0  0  0  0
    4.5913   -0.7204   -0.1524 H   0  0  0  0  0  0  0  0  0  0  0  0
    2.7155   -0.5036   -1.1958 C   0  0  0  0  0  0  0  0  0  0  0  0
    2.5646    0.5263   -0.8877 H   0  0  0  0  0  0  0  0  0  0  0  0
    1.7712   -1.1445   -2.0042 C   0  0  0  0  0  0  0  0  0  0  0  0
   -1.1977    2.2682   -0.8354 C   0  0  0  0  0  0  0  0  0  0  0  0
   -0.4485    2.9870   -0.1891 O   0  0  0  0  0  0  0  0  0  0  0  0
   -2.2584    2.8492   -1.5100 N   0  0  0  0  0  0  0  0  0  0  0  0
   -2.9032    2.2243   -1.9802 H   0  0  0  0  0  0  0  0  0  0  0  0
   -2.6231    4.2527   -1.3580 C   0  0  0  0  0  0  0  0  0  0  0  0
   -1.7976    4.8993   -1.6737 H   0  0  0  0  0  0  0  0  0  0  0  0
   -3.4978    4.4860   -1.9723 H   0  0  0  0  0  0  0  0  0  0  0  0
   -2.8644    4.4747   -0.3133 H   0  0  0  0  0  0  0  0  0  0  0  0
  1  2  1  0  0  0  0
  2  3  1  0  0  0  0
  2  4  1  0  0  0  0
  2  5  1  0  0  0  0
  5  6  2  0  0  0  0
  5  7  1  0  0  0  0
  7  8  1  0  0  0  0
  7  9  1  0  0  0  0
  9 10  1  0  0  0  0
  9 11  1  0  0  0  0
  9 29  1  0  0  0  0
 11 12  1  0  0  0  0
 11 13  1  0  0  0  0
 11 14  1  0  0  0  0
 14 15  2  0  0  0  0
 14 28  1  0  0  0  0
 15 16  1  0  0  0  0
 15 17  1  0  0  0  0
 17 18  1  0  0  0  0
 17 19  1  0  0  0  0
 19 20  1  0  0  0  0
 19 28  2  0  0  0  0
 20 21  1  0  0  0  0
 20 22  2  0  0  0  0
 22 23  1  0  0  0  0
 22 24  1  0  0  0  0
 24 25  1  0  0  0  0
 24 26  2  0  0  0  0
 26 27  1  0  0  0  0
 26 28  1  0  0  0  0
 29 30  2  0  0  0  0
 29 31  1  0  0  0  0
 31 32  1  0  0  0  0
 31 33  1  0  0  0  0
 33 34  1  0  0  0  0
 33 35  1  0  0  0  0
 33 36  1  0  0  0  0
M  END
$$$$

  -OEChem-01062216103D

 36 37  0     1  0  0  0  0  0999 V2000
   -3.1667   -2.9733    0.3022 H   0  0  0  0  0  0  0  0  0  0  0  0
   -3.1646   -2.2351   -0.5051 C   0  0  0  0  0  0  0  0  0  0  0  0
   -4.1723   -1.8268   -0.6106 H   0  0  0  0  0  0  0  0  0  0  0  0
   -2.8781   -2.7337   -1.4340 H   0  0  0  0  0  0  0  0  0  0  0  0
   -2.1830   -1.1224   -0.1900 C   0  0  0  0  0  0  0  0  0  0  0  0
   -1.5770   -1.1351    0.8665 O   0  0  0  0  0  0  0  0  0  0  0  0
   -2.0236   -0.0836   -1.0863 N   0  0  0  0  0  0  0  0  0  0  0  0
   -2.4794   -0.2219   -1.9809 H   0  0  0  0  0  0  0  0  0  0  0  0
   -0.8385    0.8005   -1.0715 C   0  0  1  0  0  0  0  0  0  0  0  0
   -0.1481    0.5107   -0.2710 H   0  0  0  0  0  0  0  0  0  0  0  0
   -0.0987    0.6836   -2.4147 C   0  0  0  0  0  0  0  0  0  0  0  0
   -0.7922    0.8918   -3.2354 H   0  0  0  0  0  0  0  0  0  0  0  0
    0.7020    1.4293   -2.4667 H   0  0  0  0  0  0  0  0  0  0  0  0
    0.5036   -0.6863   -2.5897 C   0  0  0  0  0  0  0  0  0  0  0  0
   -0.0354   -1.7438   -3.2835 C   0  0  0  0  0  0  0  0  0  0  0  0
   -0.9718   -1.7291   -3.8346 H   0  0  0  0  0  0  0  0  0  0  0  0
    0.8384   -2.8214   -3.1574 N   0  0  0  0  0  0  0  0  0  0  0  0
    0.7093   -3.7418   -3.5723 H   0  0  0  0  0  0  0  0  0  0  0  0
    1.9306   -2.4674   -2.3811 C   0  0  0  0  0  0  0  0  0  0  0  0
    3.0544   -3.1865   -1.9725 C   0  0  0  0  0  0  0  0  0  0  0  0
    3.1822   -4.2205   -2.2728 H   0  0  0  0  0  0  0  0  0  0  0  0
    4.0127   -2.5553   -1.1666 C   0  0  0  0  0  0  0  0  0  0  0  0
    4.8916   -3.1024   -0.8389 H   0  0  0  0  0  0  0  0  0  0  0  0
    3.8362   -1.2179   -0.7782 C   0  0  0  0  0  0  0  0  0  0  0  0
    4.5766   -0.7328   -0.1492 H   0  0  0  0  0  0  0  0  0  0  0  0
    2.7036   -0.5045   -1.1963 C   0  0  0  0  0  0  0  0  0  0  0  0
    2.5601    0.5287   -0.8950 H   0  0  0  0  0  0  0  0  0  0  0  0
    1.7559   -1.1413   -2.0040 C   0  0  0  0  0  0  0  0  0  0  0  0
   -1.2000    2.2798   -0.8342 C   0  0  0  0  0  0  0  0  0  0  0  0
   -0.3473    3.0619   -0.4366 O   0  0  0  0  0  0  0  0  0  0  0  0
   -2.4198    2.7796   -1.2569 N   0  0  0  0  0  0  0  0  0  0  0  0
   -3.1384    2.0935   -1.4607 H   0  0  0  0  0  0  0  0  0  0  0  0
   -2.8135    4.1703   -1.0647 C   0  0  0  0  0  0  0  0  0  0  0  0
   -2.1174    4.8407   -1.5798 H   0  0  0  0  0  0  0  0  0  0  0  0
   -3.8159    4.3393   -1.4691 H   0  0  0  0  0  0  0  0  0  0  0  0
   -2.8215    4.4223    0.0009 H   0  0  0  0  0  0  0  0  0  0  0  0
  1  2  1  0  0  0  0
  2  3  1  0  0  0  0
  2  4  1  0  0  0  0
  2  5  1  0  0  0  0
  5  6  2  0  0  0  0
  5  7  1  0  0  0  0
  7  8  1  0  0  0  0
  7  9  1  0  0  0  0
  9 10  1  0  0  0  0
  9 11  1  0  0  0  0
  9 29  1  0  0  0  0
 11 12  1  0  0  0  0
 11 13  1  0  0  0  0
 11 14  1  0  0  0  0
 14 15  2  0  0  0  0
 14 28  1  0  0  0  0
 15 16  1  0  0  0  0
 15 17  1  0  0  0  0
 17 18  1  0  0  0  0
 17 19  1  0  0  0  0
 19 20  1  0  0  0  0
 19 28  2  0  0  0  0
 20 21  1  0  0  0  0
 20 22  2  0  0  0  0
 22 23  1  0  0  0  0
 22 24  1  0  0  0  0
 24 25  1  0  0  0  0
 24 26  2  0  0  0  0
 26 27  1  0  0  0  0
 26 28  1  0  0  0  0
 29 30  2  0  0  0  0
 29 31  1  0  0  0  0
 31 32  1  0  0  0  0
 31 33  1  0  0  0  0
 33 34  1  0  0  0  0
 33 35  1  0  0  0  0
 33 36  1  0  0  0  0
M  END
$$$$

  -OEChem-01062216103D

 36 37  0     1  0  0  0  0  0999 V2000
   -3.1339   -2.9861    0.2783 H   0  0  0  0  0  0  0  0  0  0  0  0
   -3.1301   -2.2510   -0.5316 C   0  0  0  0  0  0  0  0  0  0  0  0
   -4.1429   -1.8614   -0.6583 H   0  0  0  0  0  0  0  0  0  0  0  0
   -2.8164   -2.7474   -1.4529 H   0  0  0  0  0  0  0  0  0  0  0  0
   -2.1743   -1.1199   -0.2033 C   0  0  0  0  0  0  0  0  0  0  0  0
   -1.5851   -1.1169    0.8630 O   0  0  0  0  0  0  0  0  0  0  0  0
   -2.0215   -0.0777   -1.0965 N   0  0  0  0  0  0  0  0  0  0  0  0
   -2.4739   -0.2148   -1.9937 H   0  0  0  0  0  0  0  0  0  0  0  0
   -0.8379    0.8092   -1.0793 C   0  0  1  0  0  0  0  0  0  0  0  0
   -0.1459    0.5192   -0.2805 H   0  0  0  0  0  0  0  0  0  0  0  0
   -0.1027    0.6871   -2.4266 C   0  0  0  0  0  0  0  0  0  0  0  0
   -0.7994    0.8932   -3.2448 H   0  0  0  0  0  0  0  0  0  0  0  0
    0.6997    1.4302   -2.4875 H   0  0  0  0  0  0  0  0  0  0  0  0
    0.4975   -0.6847   -2.5977 C   0  0  0  0  0  0  0  0  0  0  0  0
   -0.0446   -1.7453   -3.2848 C   0  0  0  0  0  0  0  0  0  0  0  0
   -0.9805   -1.7320   -3.8370 H   0  0  0  0  0  0  0  0  0  0  0  0
    0.8245   -2.8255   -3.1481 N   0  0  0  0  0  0  0  0  0  0  0  0
    0.6937   -3.7478   -3.5580 H   0  0  0  0  0  0  0  0  0  0  0  0
    1.9164   -2.4701   -2.3720 C   0  0  0  0  0  0  0  0  0  0  0  0
    3.0354   -3.1907   -1.9545 C   0  0  0  0  0  0  0  0  0  0  0  0
    3.1579   -4.2281   -2.2447 H   0  0  0  0  0  0  0  0  0  0  0  0
    3.9966   -2.5568   -1.1538 C   0  0  0  0  0  0  0  0  0  0  0  0
    4.8725   -3.1051   -0.8202 H   0  0  0  0  0  0  0  0  0  0  0  0
    3.8270   -1.2146   -0.7797 C   0  0  0  0  0  0  0  0  0  0  0  0
    4.5691   -0.7262   -0.1555 H   0  0  0  0  0  0  0  0  0  0  0  0
    2.6987   -0.4998   -1.2062 C   0  0  0  0  0  0  0  0  0  0  0  0
    2.5615    0.5376   -0.9164 H   0  0  0  0  0  0  0  0  0  0  0  0
    1.7478   -1.1399   -2.0076 C   0  0  0  0  0  0  0  0  0  0  0  0
   -1.2027    2.2878   -0.8349 C   0  0  0  0  0  0  0  0  0  0  0  0
   -0.3213    3.1186   -0.6600 O   0  0  0  0  0  0  0  0  0  0  0  0
   -2.5117    2.7175   -0.9639 N   0  0  0  0  0  0  0  0  0  0  0  0
   -3.2184    1.9888   -0.9650 H   0  0  0  0  0  0  0  0  0  0  0  0
   -2.9227    4.0931   -0.7106 C   0  0  0  0  0  0  0  0  0  0  0  0
   -2.3983    4.7805   -1.3830 H   0  0  0  0  0  0  0  0  0  0  0  0
   -3.9984    4.2030   -0.8776 H   0  0  0  0  0  0  0  0  0  0  0  0
   -2.7009    4.3749    0.3241 H   0  0  0  0  0  0  0  0  0  0  0  0
  1  2  1  0  0  0  0
  2  3  1  0  0  0  0
  2  4  1  0  0  0  0
  2  5  1  0  0  0  0
  5  6  2  0  0  0  0
  5  7  1  0  0  0  0
  7  8  1  0  0  0  0
  7  9  1  0  0  0  0
  9 10  1  0  0  0  0
  9 11  1  0  0  0  0
  9 29  1  0  0  0  0
 11 12  1  0  0  0  0
 11 13  1  0  0  0  0
 11 14  1  0  0  0  0
 14 15  2  0  0  0  0
 14 28  1  0  0  0  0
 15 16  1  0  0  0  0
 15 17  1  0  0  0  0
 17 18  1  0  0  0  0
 17 19  1  0  0  0  0
 19 20  1  0  0  0  0
 19 28  2  0  0  0  0
 20 21  1  0  0  0  0
 20 22  2  0  0  0  0
 22 23  1  0  0  0  0
 22 24  1  0  0  0  0
 24 25  1  0  0  0  0
 24 26  2  0  0  0  0
 26 27  1  0  0  0  0
 26 28  1  0  0  0  0
 29 30  2  0  0  0  0
 29 31  1  0  0  0  0
 31 32  1  0  0  0  0
 31 33  1  0  0  0  0
 33 34  1  0  0  0  0
 33 35  1  0  0  0  0
 33 36  1  0  0  0  0
M  END
$$$$

  -OEChem-01062216103D

 36 37  0     1  0  0  0  0  0999 V2000
   -3.1677   -2.9658    0.2710 H   0  0  0  0  0  0  0  0  0  0  0  0
   -3.1521   -2.2323   -0.5402 C   0  0  0  0  0  0  0  0  0  0  0  0
   -4.1565   -1.8194   -0.6600 H   0  0  0  0  0  0  0  0  0  0  0  0
   -2.8574   -2.7372   -1.4632 H   0  0  0  0  0  0  0  0  0  0  0  0
   -2.1683   -1.1230   -0.2201 C   0  0  0  0  0  0  0  0  0  0  0  0
   -1.5704   -1.1320    0.8412 O   0  0  0  0  0  0  0  0  0  0  0  0
   -2.0120   -0.0738   -1.1040 N   0  0  0  0  0  0  0  0  0  0  0  0
   -2.4894   -0.1805   -1.9926 H   0  0  0  0  0  0  0  0  0  0  0  0
   -0.8298    0.8158   -1.0847 C   0  0  1  0  0  0  0  0  0  0  0  0
   -0.1378    0.5272   -0.2856 H   0  0  0  0  0  0  0  0  0  0  0  0
   -0.0948    0.6894   -2.4332 C   0  0  0  0  0  0  0  0  0  0  0  0
   -0.7927    0.8936   -3.2512 H   0  0  0  0  0  0  0  0  0  0  0  0
    0.7092    1.4300   -2.4990 H   0  0  0  0  0  0  0  0  0  0  0  0
    0.5057   -0.6831   -2.6001 C   0  0  0  0  0  0  0  0  0  0  0  0
   -0.0384   -1.7447   -3.2839 C   0  0  0  0  0  0  0  0  0  0  0  0
   -0.9754   -1.7304   -3.8344 H   0  0  0  0  0  0  0  0  0  0  0  0
    0.8289   -2.8261   -3.1457 N   0  0  0  0  0  0  0  0  0  0  0  0
    0.6961   -3.7490   -3.5537 H   0  0  0  0  0  0  0  0  0  0  0  0
    1.9216   -2.4707   -2.3709 C   0  0  0  0  0  0  0  0  0  0  0  0
    3.0389   -3.1930   -1.9508 C   0  0  0  0  0  0  0  0  0  0  0  0
    3.1594   -4.2319   -2.2369 H   0  0  0  0  0  0  0  0  0  0  0  0
    4.0008   -2.5591   -1.1512 C   0  0  0  0  0  0  0  0  0  0  0  0
    4.8744   -3.1091   -0.8142 H   0  0  0  0  0  0  0  0  0  0  0  0
    3.8348   -1.2151   -0.7821 C   0  0  0  0  0  0  0  0  0  0  0  0
    4.5786   -0.7273   -0.1595 H   0  0  0  0  0  0  0  0  0  0  0  0
    2.7083   -0.4986   -1.2113 C   0  0  0  0  0  0  0  0  0  0  0  0
    2.5733    0.5404   -0.9266 H   0  0  0  0  0  0  0  0  0  0  0  0
    1.7557   -1.1390   -2.0099 C   0  0  0  0  0  0  0  0  0  0  0  0
   -1.2077    2.2917   -0.8304 C   0  0  0  0  0  0  0  0  0  0  0  0
   -0.3590    3.1723   -0.8827 O   0  0  0  0  0  0  0  0  0  0  0  0
   -2.5317    2.6507   -0.6498 N   0  0  0  0  0  0  0  0  0  0  0  0
   -3.1743    1.8858   -0.4662 H   0  0  0  0  0  0  0  0  0  0  0  0
   -2.9542    4.0122   -0.3461 C   0  0  0  0  0  0  0  0  0  0  0  0
   -2.6286    4.6996   -1.1338 H   0  0  0  0  0  0  0  0  0  0  0  0
   -4.0450    4.0622   -0.2760 H   0  0  0  0  0  0  0  0  0  0  0  0
   -2.5284    4.3417    0.6073 H   0  0  0  0  0  0  0  0  0  0  0  0
  1  2  1  0  0  0  0
  2  3  1  0  0  0  0
  2  4  1  0  0  0  0
  2  5  1  0  0  0  0
  5  6  2  0  0  0  0
  5  7  1  0  0  0  0
  7  8  1  0  0  0  0
  7  9  1  0  0  0  0
  9 10  1  0  0  0  0
  9 11  1  0  0  0  0
  9 29  1  0  0  0  0
 11 12  1  0  0  0  0
 11 13  1  0  0  0  0
 11 14  1  0  0  0  0
 14 15  2  0  0  0  0
 14 28  1  0  0  0  0
 15 16  1  0  0  0  0
 15 17  1  0  0  0  0
 17 18  1  0  0  0  0
 17 19  1  0  0  0  0
 19 20  1  0  0  0  0
 19 28  2  0  0  0  0
 20 21  1  0  0  0  0
 20 22  2  0  0  0  0
 22 23  1  0  0  0  0
 22 24  1  0  0  0  0
 24 25  1  0  0  0  0
 24 26  2  0  0  0  0
 26 27  1  0  0  0  0
 26 28  1  0  0  0  0
 29 30  2  0  0  0  0
 29 31  1  0  0  0  0
 31 32  1  0  0  0  0
 31 33  1  0  0  0  0
 33 34  1  0  0  0  0
 33 35  1  0  0  0  0
 33 36  1  0  0  0  0
M  END
$$$$

  -OEChem-01062216103D

 36 37  0     1  0  0  0  0  0999 V2000
   -3.1602   -2.9689    0.2324 H   0  0  0  0  0  0  0  0  0  0  0  0
   -3.1584   -2.2193   -0.5644 C   0  0  0  0  0  0  0  0  0  0  0  0
   -4.1658   -1.8081   -0.6632 H   0  0  0  0  0  0  0  0  0  0  0  0
   -2.8744   -2.7050   -1.5008 H   0  0  0  0  0  0  0  0  0  0  0  0
   -2.1733   -1.1134   -0.2359 C   0  0  0  0  0  0  0  0  0  0  0  0
   -1.5827   -1.1234    0.8297 O   0  0  0  0  0  0  0  0  0  0  0  0
   -2.0125   -0.0586   -1.1115 N   0  0  0  0  0  0  0  0  0  0  0  0
   -2.5051   -0.1437   -1.9944 H   0  0  0  0  0  0  0  0  0  0  0  0
   -0.8286    0.8279   -1.0899 C   0  0  1  0  0  0  0  0  0  0  0  0
   -0.1395    0.5372   -0.2892 H   0  0  0  0  0  0  0  0  0  0  0  0
   -0.0903    0.6890   -2.4370 C   0  0  0  0  0  0  0  0  0  0  0  0
   -0.7855    0.8904   -3.2577 H   0  0  0  0  0  0  0  0  0  0  0  0
    0.7180    1.4241   -2.5079 H   0  0  0  0  0  0  0  0  0  0  0  0
    0.5053   -0.6871   -2.5932 C   0  0  0  0  0  0  0  0  0  0  0  0
   -0.0414   -1.7515   -3.2706 C   0  0  0  0  0  0  0  0  0  0  0  0
   -0.9795   -1.7395   -3.8194 H   0  0  0  0  0  0  0  0  0  0  0  0
    0.8246   -2.8334   -3.1280 N   0  0  0  0  0  0  0  0  0  0  0  0
    0.6898   -3.7582   -3.5309 H   0  0  0  0  0  0  0  0  0  0  0  0
    1.9208   -2.4746   -2.3599 C   0  0  0  0  0  0  0  0  0  0  0  0
    3.0385   -3.1963   -1.9409 C   0  0  0  0  0  0  0  0  0  0  0  0
    3.1547   -4.2369   -2.2215 H   0  0  0  0  0  0  0  0  0  0  0  0
    4.0061   -2.5595   -1.1508 C   0  0  0  0  0  0  0  0  0  0  0  0
    4.8801   -3.1094   -0.8149 H   0  0  0  0  0  0  0  0  0  0  0  0
    3.8455   -1.2123   -0.7908 C   0  0  0  0  0  0  0  0  0  0  0  0
    4.5948   -0.7215   -0.1768 H   0  0  0  0  0  0  0  0  0  0  0  0
    2.7183   -0.4963   -1.2189 C   0  0  0  0  0  0  0  0  0  0  0  0
    2.5891    0.5452   -0.9418 H   0  0  0  0  0  0  0  0  0  0  0  0
    1.7585   -1.1404   -2.0065 C   0  0  0  0  0  0  0  0  0  0  0  0
   -1.2149    2.3012   -0.8249 C   0  0  0  0  0  0  0  0  0  0  0  0
   -0.4493    3.2177   -1.0947 O   0  0  0  0  0  0  0  0  0  0  0  0
   -2.4732    2.6067   -0.3385 N   0  0  0  0  0  0  0  0  0  0  0  0
   -3.0185    1.8186   -0.0000 H   0  0  0  0  0  0  0  0  0  0  0  0
   -2.8888    3.9572    0.0192 C   0  0  0  0  0  0  0  0  0  0  0  0
   -2.8061    4.6256   -0.8443 H   0  0  0  0  0  0  0  0  0  0  0  0
   -3.9306    3.9550    0.3533 H   0  0  0  0  0  0  0  0  0  0  0  0
   -2.2647    4.3486    0.8295 H   0  0  0  0  0  0  0  0  0  0  0  0
  1  2  1  0  0  0  0
  2  3  1  0  0  0  0
  2  4  1  0  0  0  0
  2  5  1  0  0  0  0
  5  6  2  0  0  0  0
  5  7  1  0  0  0  0
  7  8  1  0  0  0  0
  7  9  1  0  0  0  0
  9 10  1  0  0  0  0
  9 11  1  0  0  0  0
  9 29  1  0  0  0  0
 11 12  1  0  0  0  0
 11 13  1  0  0  0  0
 11 14  1  0  0  0  0
 14 15  2  0  0  0  0
 14 28  1  0  0  0  0
 15 16  1  0  0  0  0
 15 17  1  0  0  0  0
 17 18  1  0  0  0  0
 17 19  1  0  0  0  0
 19 20  1  0  0  0  0
 19 28  2  0  0  0  0
 20 21  1  0  0  0  0
 20 22  2  0  0  0  0
 22 23  1  0  0  0  0
 22 24  1  0  0  0  0
 24 25  1  0  0  0  0
 24 26  2  0  0  0  0
 26 27  1  0  0  0  0
 26 28  1  0  0  0  0
 29 30  2  0  0  0  0
 29 31  1  0  0  0  0
 31 32  1  0  0  0  0
 31 33  1  0  0  0  0
 33 34  1  0  0  0  0
 33 35  1  0  0  0  0
 33 36  1  0  0  0  0
M  END
$$$$

  -OEChem-01062216103D

 36 37  0     1  0  0  0  0  0999 V2000
   -3.1775   -2.9478    0.2257 H   0  0  0  0  0  0  0  0  0  0  0  0
   -3.1741   -2.1921   -0.5651 C   0  0  0  0  0  0  0  0  0  0  0  0
   -4.1760   -1.7640   -0.6482 H   0  0  0  0  0  0  0  0  0  0  0  0
   -2.9088   -2.6738   -1.5092 H   0  0  0  0  0  0  0  0  0  0  0  0
   -2.1696   -1.1032   -0.2405 C   0  0  0  0  0  0  0  0  0  0  0  0
   -1.5763   -1.1194    0.8239 O   0  0  0  0  0  0  0  0  0  0  0  0
   -2.0030   -0.0449   -1.1095 N   0  0  0  0  0  0  0  0  0  0  0  0
   -2.5168   -0.1048   -1.9823 H   0  0  0  0  0  0  0  0  0  0  0  0
   -0.8163    0.8360   -1.0878 C   0  0  1  0  0  0  0  0  0  0  0  0
   -0.1272    0.5445   -0.2874 H   0  0  0  0  0  0  0  0  0  0  0  0
   -0.0758    0.6962   -2.4334 C   0  0  0  0  0  0  0  0  0  0  0  0
   -0.7676    0.9034   -3.2556 H   0  0  0  0  0  0  0  0  0  0  0  0
    0.7372    1.4267   -2.4991 H   0  0  0  0  0  0  0  0  0  0  0  0
    0.5147   -0.6815   -2.5890 C   0  0  0  0  0  0  0  0  0  0  0  0
   -0.0367   -1.7413   -3.2688 C   0  0  0  0  0  0  0  0  0  0  0  0
   -0.9748   -1.7220   -3.8174 H   0  0  0  0  0  0  0  0  0  0  0  0
    0.8245   -2.8274   -3.1286 N   0  0  0  0  0  0  0  0  0  0  0  0
    0.6852   -3.7506   -3.5339 H   0  0  0  0  0  0  0  0  0  0  0  0
    1.9227   -2.4748   -2.3600 C   0  0  0  0  0  0  0  0  0  0  0  0
    3.0392   -3.2003   -1.9435 C   0  0  0  0  0  0  0  0  0  0  0  0
    3.1524   -4.2406   -2.2270 H   0  0  0  0  0  0  0  0  0  0  0  0
    4.0095   -2.5675   -1.1533 C   0  0  0  0  0  0  0  0  0  0  0  0
    4.8826   -3.1199   -0.8198 H   0  0  0  0  0  0  0  0  0  0  0  0
    3.8533   -1.2208   -0.7905 C   0  0  0  0  0  0  0  0  0  0  0  0
    4.6051   -0.7329   -0.1775 H   0  0  0  0  0  0  0  0  0  0  0  0
    2.7274   -0.5013   -1.2154 C   0  0  0  0  0  0  0  0  0  0  0  0
    2.6011    0.5403   -0.9373 H   0  0  0  0  0  0  0  0  0  0  0  0
    1.7654   -1.1410   -2.0034 C   0  0  0  0  0  0  0  0  0  0  0  0
   -1.2172    2.3038   -0.8139 C   0  0  0  0  0  0  0  0  0  0  0  0
   -0.6017    3.2442   -1.3004 O   0  0  0  0  0  0  0  0  0  0  0  0
   -2.3361    2.5681   -0.0455 N   0  0  0  0  0  0  0  0  0  0  0  0
   -2.7495    1.7689    0.4290 H   0  0  0  0  0  0  0  0  0  0  0  0
   -2.7531    3.9119    0.3335 C   0  0  0  0  0  0  0  0  0  0  0  0
   -2.9409    4.5211   -0.5569 H   0  0  0  0  0  0  0  0  0  0  0  0
   -3.6747    3.8691    0.9217 H   0  0  0  0  0  0  0  0  0  0  0  0
   -1.9780    4.3970    0.9359 H   0  0  0  0  0  0  0  0  0  0  0  0
  1  2  1  0  0  0  0
  2  3  1  0  0  0  0
  2  4  1  0  0  0  0
  2  5  1  0  0  0  0
  5  6  2  0  0  0  0
  5  7  1  0  0  0  0
  7  8  1  0  0  0  0
  7  9  1  0  0  0  0
  9 10  1  0  0  0  0
  9 11  1  0  0  0  0
  9 29  1  0  0  0  0
 11 12  1  0  0  0  0
 11 13  1  0  0  0  0
 11 14  1  0  0  0  0
 14 15  2  0  0  0  0
 14 28  1  0  0  0  0
 15 16  1  0  0  0  0
 15 17  1  0  0  0  0
 17 18  1  0  0  0  0
 17 19  1  0  0  0  0
 19 20  1  0  0  0  0
 19 28  2  0  0  0  0
 20 21  1  0  0  0  0
 20 22  2  0  0  0  0
 22 23  1  0  0  0  0
 22 24  1  0  0  0  0
 24 25  1  0  0  0  0
 24 26  2  0  0  0  0
 26 27  1  0  0  0  0
 26 28  1  0  0  0  0
 29 30  2  0  0  0  0
 29 31  1  0  0  0  0
 31 32  1  0  0  0  0
 31 33  1  0  0  0  0
 33 34  1  0  0  0  0
 33 35  1  0  0  0  0
 33 36  1  0  0  0  0
M  END
$$$$

  -OEChem-01062216103D

 36 37  0     1  0  0  0  0  0999 V2000
   -3.1597   -2.9249    0.2440 H   0  0  0  0  0  0  0  0  0  0  0  0
   -3.1556   -2.1767   -0.5537 C   0  0  0  0  0  0  0  0  0  0  0  0
   -4.1582   -1.7517   -0.6432 H   0  0  0  0  0  0  0  0  0  0  0  0
   -2.8867   -2.6667   -1.4924 H   0  0  0  0  0  0  0  0  0  0  0  0
   -2.1538   -1.0833   -0.2356 C   0  0  0  0  0  0  0  0  0  0  0  0
   -1.5602   -1.0902    0.8294 O   0  0  0  0  0  0  0  0  0  0  0  0
   -1.9922   -0.0247   -1.1049 N   0  0  0  0  0  0  0  0  0  0  0  0
   -2.5148   -0.0790   -1.9728 H   0  0  0  0  0  0  0  0  0  0  0  0
   -0.8022    0.8493   -1.0907 C   0  0  1  0  0  0  0  0  0  0  0  0
   -0.1088    0.5567   -0.2949 H   0  0  0  0  0  0  0  0  0  0  0  0
   -0.0640    0.7116   -2.4374 C   0  0  0  0  0  0  0  0  0  0  0  0
   -0.7566    0.9222   -3.2583 H   0  0  0  0  0  0  0  0  0  0  0  0
    0.7493    1.4423   -2.5007 H   0  0  0  0  0  0  0  0  0  0  0  0
    0.5223   -0.6678   -2.5966 C   0  0  0  0  0  0  0  0  0  0  0  0
   -0.0352   -1.7228   -3.2791 C   0  0  0  0  0  0  0  0  0  0  0  0
   -0.9721   -1.6956   -3.8296 H   0  0  0  0  0  0  0  0  0  0  0  0
    0.8172   -2.8156   -3.1379 N   0  0  0  0  0  0  0  0  0  0  0  0
    0.6726   -3.7365   -3.5464 H   0  0  0  0  0  0  0  0  0  0  0  0
    1.9145   -2.4728   -2.3638 C   0  0  0  0  0  0  0  0  0  0  0  0
    3.0225   -3.2085   -1.9429 C   0  0  0  0  0  0  0  0  0  0  0  0
    3.1283   -4.2494   -2.2273 H   0  0  0  0  0  0  0  0  0  0  0  0
    3.9938   -2.5852   -1.1461 C   0  0  0  0  0  0  0  0  0  0  0  0
    4.8611   -3.1454   -0.8096 H   0  0  0  0  0  0  0  0  0  0  0  0
    3.8462   -1.2381   -0.7805 C   0  0  0  0  0  0  0  0  0  0  0  0
    4.5985   -0.7581   -0.1619 H   0  0  0  0  0  0  0  0  0  0  0  0
    2.7287   -0.5085   -1.2101 C   0  0  0  0  0  0  0  0  0  0  0  0
    2.6092    0.5331   -0.9295 H   0  0  0  0  0  0  0  0  0  0  0  0
    1.7665   -1.1383   -2.0056 C   0  0  0  0  0  0  0  0  0  0  0  0
   -1.2129    2.3111   -0.8085 C   0  0  0  0  0  0  0  0  0  0  0  0
   -0.7999    3.2487   -1.4799 O   0  0  0  0  0  0  0  0  0  0  0  0
   -2.1195    2.5607    0.2047 N   0  0  0  0  0  0  0  0  0  0  0  0
   -2.3863    1.7628    0.7781 H   0  0  0  0  0  0  0  0  0  0  0  0
   -2.5480    3.8965    0.5974 C   0  0  0  0  0  0  0  0  0  0  0  0
   -3.0202    4.4116   -0.2457 H   0  0  0  0  0  0  0  0  0  0  0  0
   -3.2736    3.8348    1.4141 H   0  0  0  0  0  0  0  0  0  0  0  0
   -1.6917    4.4879    0.9377 H   0  0  0  0  0  0  0  0  0  0  0  0
  1  2  1  0  0  0  0
  2  3  1  0  0  0  0
  2  4  1  0  0  0  0
  2  5  1  0  0  0  0
  5  6  2  0  0  0  0
  5  7  1  0  0  0  0
  7  8  1  0  0  0  0
  7  9  1  0  0  0  0
  9 10  1  0  0  0  0
  9 11  1  0  0  0  0
  9 29  1  0  0  0  0
 11 12  1  0  0  0  0
 11 13  1  0  0  0  0
 11 14  1  0  0  0  0
 14 15  2  0  0  0  0
 14 28  1  0  0  0  0
 15 16  1  0  0  0  0
 15 17  1  0  0  0  0
 17 18  1  0  0  0  0
 17 19  1  0  0  0  0
 19 20  1  0  0  0  0
 19 28  2  0  0  0  0
 20 21  1  0  0  0  0
 20 22  2  0  0  0  0
 22 23  1  0  0  0  0
 22 24  1  0  0  0  0
 24 25  1  0  0  0  0
 24 26  2  0  0  0  0
 26 27  1  0  0  0  0
 26 28  1  0  0  0  0
 29 30  2  0  0  0  0
 29 31  1  0  0  0  0
 31 32  1  0  0  0  0
 31 33  1  0  0  0  0
 33 34  1  0  0  0  0
 33 35  1  0  0  0  0
 33 36  1  0  0  0  0
M  END
$$$$

  -OEChem-01062216103D

 36 37  0     1  0  0  0  0  0999 V2000
   -3.1791   -2.9032    0.2573 H   0  0  0  0  0  0  0  0  0  0  0  0
   -3.1823   -2.1445   -0.5305 C   0  0  0  0  0  0  0  0  0  0  0  0
   -4.1793   -1.7014   -0.5891 H   0  0  0  0  0  0  0  0  0  0  0  0
   -2.9465   -2.6269   -1.4819 H   0  0  0  0  0  0  0  0  0  0  0  0
   -2.1539   -1.0723   -0.2247 C   0  0  0  0  0  0  0  0  0  0  0  0
   -1.5445   -1.0946    0.8318 O   0  0  0  0  0  0  0  0  0  0  0  0
   -1.9829   -0.0146   -1.0932 N   0  0  0  0  0  0  0  0  0  0  0  0
   -2.5212   -0.0477   -1.9528 H   0  0  0  0  0  0  0  0  0  0  0  0
   -0.7886    0.8511   -1.0774 C   0  0  1  0  0  0  0  0  0  0  0  0
   -0.0968    0.5549   -0.2815 H   0  0  0  0  0  0  0  0  0  0  0  0
   -0.0456    0.7170   -2.4214 C   0  0  0  0  0  0  0  0  0  0  0  0
   -0.7347    0.9316   -3.2445 H   0  0  0  0  0  0  0  0  0  0  0  0
    0.7669    1.4493   -2.4772 H   0  0  0  0  0  0  0  0  0  0  0  0
    0.5366   -0.6632   -2.5865 C   0  0  0  0  0  0  0  0  0  0  0  0
   -0.0246   -1.7104   -3.2777 C   0  0  0  0  0  0  0  0  0  0  0  0
   -0.9612   -1.6759   -3.8281 H   0  0  0  0  0  0  0  0  0  0  0  0
    0.8251   -2.8064   -3.1461 N   0  0  0  0  0  0  0  0  0  0  0  0
    0.6782   -3.7229   -3.5637 H   0  0  0  0  0  0  0  0  0  0  0  0
    1.9249   -2.4733   -2.3709 C   0  0  0  0  0  0  0  0  0  0  0  0
    3.0320   -3.2159   -1.9595 C   0  0  0  0  0  0  0  0  0  0  0  0
    3.1340   -4.2548   -2.2522 H   0  0  0  0  0  0  0  0  0  0  0  0
    4.0082   -2.6022   -1.1619 C   0  0  0  0  0  0  0  0  0  0  0  0
    4.8748   -3.1680   -0.8333 H   0  0  0  0  0  0  0  0  0  0  0  0
    3.8664   -1.2577   -0.7859 C   0  0  0  0  0  0  0  0  0  0  0  0
    4.6230   -0.7855   -0.1668 H   0  0  0  0  0  0  0  0  0  0  0  0
    2.7497   -0.5208   -1.2055 C   0  0  0  0  0  0  0  0  0  0  0  0
    2.6359    0.5189   -0.9167 H   0  0  0  0  0  0  0  0  0  0  0  0
    1.7817   -1.1412   -2.0017 C   0  0  0  0  0  0  0  0  0  0  0  0
   -1.1995    2.3106   -0.7955 C   0  0  0  0  0  0  0  0  0  0  0  0
   -1.0131    3.2128   -1.6034 O   0  0  0  0  0  0  0  0  0  0  0  0
   -1.8476    2.5911    0.3921 N   0  0  0  0  0  0  0  0  0  0  0  0
   -1.9918    1.8100    1.0298 H   0  0  0  0  0  0  0  0  0  0  0  0
   -2.3009    3.9212    0.7752 C   0  0  0  0  0  0  0  0  0  0  0  0
   -3.0312    4.3001    0.0525 H   0  0  0  0  0  0  0  0  0  0  0  0
   -2.7745    3.8884    1.7610 H   0  0  0  0  0  0  0  0  0  0  0  0
   -1.4558    4.6160    0.8204 H   0  0  0  0  0  0  0  0  0  0  0  0
  1  2  1  0  0  0  0
  2  3  1  0  0  0  0
  2  4  1  0  0  0  0
  2  5  1  0  0  0  0
  5  6  2  0  0  0  0
  5  7  1  0  0  0  0
  7  8  1  0  0  0  0
  7  9  1  0  0  0  0
  9 10  1  0  0  0  0
  9 11  1  0  0  0  0
  9 29  1  0  0  0  0
 11 12  1  0  0  0  0
 11 13  1  0  0  0  0
 11 14  1  0  0  0  0
 14 15  2  0  0  0  0
 14 28  1  0  0  0  0
 15 16  1  0  0  0  0
 15 17  1  0  0  0  0
 17 18  1  0  0  0  0
 17 19  1  0  0  0  0
 19 20  1  0  0  0  0
 19 28  2  0  0  0  0
 20 21  1  0  0  0  0
 20 22  2  0  0  0  0
 22 23  1  0  0  0  0
 22 24  1  0  0  0  0
 24 25  1  0  0  0  0
 24 26  2  0  0  0  0
 26 27  1  0  0  0  0
 26 28  1  0  0  0  0
 29 30  2  0  0  0  0
 29 31  1  0  0  0  0
 31 32  1  0  0  0  0
 31 33  1  0  0  0  0
 33 34  1  0  0  0  0
 33 35  1  0  0  0  0
 33 36  1  0  0  0  0
M  END
$$$$

  -OEChem-01062216103D

 36 37  0     1  0  0  0  0  0999 V2000
   -3.2456   -2.8740    0.2605 H   0  0  0  0  0  0  0  0  0  0  0  0
   -3.2507   -2.0935   -0.5054 C   0  0  0  0  0  0  0  0  0  0  0  0
   -4.2285   -1.6057   -0.5049 H   0  0  0  0  0  0  0  0  0  0  0  0
   -3.0817   -2.5577   -1.4799 H   0  0  0  0  0  0  0  0  0  0  0  0
   -2.1619   -1.0766   -0.2193 C   0  0  0  0  0  0  0  0  0  0  0  0
   -1.5153   -1.1480    0.8129 O   0  0  0  0  0  0  0  0  0  0  0  0
   -1.9690   -0.0187   -1.0824 N   0  0  0  0  0  0  0  0  0  0  0  0
   -2.5450    0.0002   -1.9179 H   0  0  0  0  0  0  0  0  0  0  0  0
   -0.7724    0.8410   -1.0596 C   0  0  1  0  0  0  0  0  0  0  0  0
   -0.0839    0.5404   -0.2627 H   0  0  0  0  0  0  0  0  0  0  0  0
   -0.0240    0.7097   -2.4003 C   0  0  0  0  0  0  0  0  0  0  0  0
   -0.7103    0.9258   -3.2254 H   0  0  0  0  0  0  0  0  0  0  0  0
    0.7869    1.4439   -2.4501 H   0  0  0  0  0  0  0  0  0  0  0  0
    0.5557   -0.6707   -2.5702 C   0  0  0  0  0  0  0  0  0  0  0  0
   -0.0054   -1.7127   -3.2685 C   0  0  0  0  0  0  0  0  0  0  0  0
   -0.9454   -1.6747   -3.8130 H   0  0  0  0  0  0  0  0  0  0  0  0
    0.8469   -2.8083   -3.1495 N   0  0  0  0  0  0  0  0  0  0  0  0
    0.6968   -3.7231   -3.5690 H   0  0  0  0  0  0  0  0  0  0  0  0
    1.9511   -2.4781   -2.3798 C   0  0  0  0  0  0  0  0  0  0  0  0
    3.0639   -3.2200   -1.9833 C   0  0  0  0  0  0  0  0  0  0  0  0
    3.1664   -4.2562   -2.2854 H   0  0  0  0  0  0  0  0  0  0  0  0
    4.0450   -2.6088   -1.1895 C   0  0  0  0  0  0  0  0  0  0  0  0
    4.9160   -3.1745   -0.8721 H   0  0  0  0  0  0  0  0  0  0  0  0
    3.9027   -1.2670   -0.8032 C   0  0  0  0  0  0  0  0  0  0  0  0
    4.6632   -0.7959   -0.1880 H   0  0  0  0  0  0  0  0  0  0  0  0
    2.7801   -0.5309   -1.2081 C   0  0  0  0  0  0  0  0  0  0  0  0
    2.6658    0.5069   -0.9132 H   0  0  0  0  0  0  0  0  0  0  0  0
    1.8068   -1.1493   -1.9992 C   0  0  0  0  0  0  0  0  0  0  0  0
   -1.1814    2.3007   -0.7835 C   0  0  0  0  0  0  0  0  0  0  0  0
   -1.2378    3.1388   -1.6759 O   0  0  0  0  0  0  0  0  0  0  0  0
   -1.5461    2.6527    0.5019 N   0  0  0  0  0  0  0  0  0  0  0  0
   -1.5608    1.9066    1.1952 H   0  0  0  0  0  0  0  0  0  0  0  0
   -2.0204    3.9796    0.8726 C   0  0  0  0  0  0  0  0  0  0  0  0
   -2.9352    4.2268    0.3237 H   0  0  0  0  0  0  0  0  0  0  0  0
   -2.2384    4.0169    1.9442 H   0  0  0  0  0  0  0  0  0  0  0  0
   -1.2593    4.7344    0.6488 H   0  0  0  0  0  0  0  0  0  0  0  0
  1  2  1  0  0  0  0
  2  3  1  0  0  0  0
  2  4  1  0  0  0  0
  2  5  1  0  0  0  0
  5  6  2  0  0  0  0
  5  7  1  0  0  0  0
  7  8  1  0  0  0  0
  7  9  1  0  0  0  0
  9 10  1  0  0  0  0
  9 11  1  0  0  0  0
  9 29  1  0  0  0  0
 11 12  1  0  0  0  0
 11 13  1  0  0  0  0
 11 14  1  0  0  0  0
 14 15  2  0  0  0  0
 14 28  1  0  0  0  0
 15 16  1  0  0  0  0
 15 17  1  0  0  0  0
 17 18  1  0  0  0  0
 17 19  1  0  0  0  0
 19 20  1  0  0  0  0
 19 28  2  0  0  0  0
 20 21  1  0  0  0  0
 20 22  2  0  0  0  0
 22 23  1  0  0  0  0
 22 24  1  0  0  0  0
 24 25  1  0  0  0  0
 24 26  2  0  0  0  0
 26 27  1  0  0  0  0
 26 28  1  0  0  0  0
 29 30  2  0  0  0  0
 29 31  1  0  0  0  0
 31 32  1  0  0  0  0
 31 33  1  0  0  0  0
 33 34  1  0  0  0  0
 33 35  1  0  0  0  0
 33 36  1  0  0  0  0
M  END
$$$$

  -OEChem-01062216103D

 36 37  0     1  0  0  0  0  0999 V2000
   -3.2912   -2.8468    0.2879 H   0  0  0  0  0  0  0  0  0  0  0  0
   -3.2890   -2.0633   -0.4752 C   0  0  0  0  0  0  0  0  0  0  0  0
   -4.2462   -1.5373   -0.4435 H   0  0  0  0  0  0  0  0  0  0  0  0
   -3.1676   -2.5291   -1.4559 H   0  0  0  0  0  0  0  0  0  0  0  0
   -2.1531   -1.0911   -0.2201 C   0  0  0  0  0  0  0  0  0  0  0  0
   -1.4624   -1.2092    0.7788 O   0  0  0  0  0  0  0  0  0  0  0  0
   -1.9540   -0.0321   -1.0806 N   0  0  0  0  0  0  0  0  0  0  0  0
   -2.5782    0.0427   -1.8779 H   0  0  0  0  0  0  0  0  0  0  0  0
   -0.7599    0.8295   -1.0584 C   0  0  1  0  0  0  0  0  0  0  0  0
   -0.0697    0.5260   -0.2642 H   0  0  0  0  0  0  0  0  0  0  0  0
   -0.0129    0.7091   -2.3996 C   0  0  0  0  0  0  0  0  0  0  0  0
   -0.7017    0.9241   -3.2231 H   0  0  0  0  0  0  0  0  0  0  0  0
    0.7934    1.4483   -2.4473 H   0  0  0  0  0  0  0  0  0  0  0  0
    0.5707   -0.6686   -2.5764 C   0  0  0  0  0  0  0  0  0  0  0  0
    0.0113   -1.7081   -3.2797 C   0  0  0  0  0  0  0  0  0  0  0  0
   -0.9293   -1.6683   -3.8230 H   0  0  0  0  0  0  0  0  0  0  0  0
    0.8652   -2.8034   -3.1665 N   0  0  0  0  0  0  0  0  0  0  0  0
    0.7138   -3.7177   -3.5868 H   0  0  0  0  0  0  0  0  0  0  0  0
    1.9671   -2.4763   -2.3921 C   0  0  0  0  0  0  0  0  0  0  0  0
    3.0787   -3.2203   -1.9957 C   0  0  0  0  0  0  0  0  0  0  0  0
    3.1827   -4.2544   -2.3044 H   0  0  0  0  0  0  0  0  0  0  0  0
    4.0559   -2.6140   -1.1933 C   0  0  0  0  0  0  0  0  0  0  0  0
    4.9255   -3.1817   -0.8760 H   0  0  0  0  0  0  0  0  0  0  0  0
    3.9110   -1.2750   -0.7979 C   0  0  0  0  0  0  0  0  0  0  0  0
    4.6682   -0.8085   -0.1751 H   0  0  0  0  0  0  0  0  0  0  0  0
    2.7897   -0.5368   -1.2032 C   0  0  0  0  0  0  0  0  0  0  0  0
    2.6732    0.4982   -0.8999 H   0  0  0  0  0  0  0  0  0  0  0  0
    1.8204   -1.1496   -2.0039 C   0  0  0  0  0  0  0  0  0  0  0  0
   -1.1659    2.2896   -0.7857 C   0  0  0  0  0  0  0  0  0  0  0  0
   -1.4819    3.0441   -1.6985 O   0  0  0  0  0  0  0  0  0  0  0  0
   -1.2284    2.7371    0.5202 N   0  0  0  0  0  0  0  0  0  0  0  0
   -1.0756    2.0440    1.2499 H   0  0  0  0  0  0  0  0  0  0  0  0
   -1.7042    4.0631    0.8924 C   0  0  0  0  0  0  0  0  0  0  0  0
   -2.7460    4.1975    0.5831 H   0  0  0  0  0  0  0  0  0  0  0  0
   -1.6447    4.1942    1.9770 H   0  0  0  0  0  0  0  0  0  0  0  0
   -1.0922    4.8372    0.4174 H   0  0  0  0  0  0  0  0  0  0  0  0
  1  2  1  0  0  0  0
  2  3  1  0  0  0  0
  2  4  1  0  0  0  0
  2  5  1  0  0  0  0
  5  6  2  0  0  0  0
  5  7  1  0  0  0  0
  7  8  1  0  0  0  0
  7  9  1  0  0  0  0
  9 10  1  0  0  0  0
  9 11  1  0  0  0  0
  9 29  1  0  0  0  0
 11 12  1  0  0  0  0
 11 13  1  0  0  0  0
 11 14  1  0  0  0  0
 14 15  2  0  0  0  0
 14 28  1  0  0  0  0
 15 16  1  0  0  0  0
 15 17  1  0  0  0  0
 17 18  1  0  0  0  0
 17 19  1  0  0  0  0
 19 20  1  0  0  0  0
 19 28  2  0  0  0  0
 20 21  1  0  0  0  0
 20 22  2  0  0  0  0
 22 23  1  0  0  0  0
 22 24  1  0  0  0  0
 24 25  1  0  0  0  0
 24 26  2  0  0  0  0
 26 27  1  0  0  0  0
 26 28  1  0  0  0  0
 29 30  2  0  0  0  0
 29 31  1  0  0  0  0
 31 32  1  0  0  0  0
 31 33  1  0  0  0  0
 33 34  1  0  0  0  0
 33 35  1  0  0  0  0
 33 36  1  0  0  0  0
M  END
$$$$

  -OEChem-01062216103D

 36 37  0     1  0  0  0  0  0999 V2000
   -3.3615   -2.8067    0.3334 H   0  0  0  0  0  0  0  0  0  0  0  0
   -3.3484   -2.0231   -0.4295 C   0  0  0  0  0  0  0  0  0  0  0  0
   -4.2724   -1.4445   -0.3566 H   0  0  0  0  0  0  0  0  0  0  0  0
   -3.2945   -2.4924   -1.4145 H   0  0  0  0  0  0  0  0  0  0  0  0
   -2.1508   -1.1155   -0.2240 C   0  0  0  0  0  0  0  0  0  0  0  0
   -1.4147   -1.2886    0.7337 O   0  0  0  0  0  0  0  0  0  0  0  0
   -1.9411   -0.0571   -1.0831 N   0  0  0  0  0  0  0  0  0  0  0  0
   -2.6239    0.0939   -1.8197 H   0  0  0  0  0  0  0  0  0  0  0  0
   -0.7505    0.8082   -1.0578 C   0  0  1  0  0  0  0  0  0  0  0  0
   -0.0627    0.5049   -0.2618 H   0  0  0  0  0  0  0  0  0  0  0  0
    0.0007    0.7031   -2.3969 C   0  0  0  0  0  0  0  0  0  0  0  0
   -0.6876    0.9205   -3.2203 H   0  0  0  0  0  0  0  0  0  0  0  0
    0.8026    1.4472   -2.4372 H   0  0  0  0  0  0  0  0  0  0  0  0
    0.5929   -0.6691   -2.5846 C   0  0  0  0  0  0  0  0  0  0  0  0
    0.0397   -1.7040   -3.2995 C   0  0  0  0  0  0  0  0  0  0  0  0
   -0.9001   -1.6633   -3.8441 H   0  0  0  0  0  0  0  0  0  0  0  0
    0.8988   -2.7957   -3.1954 N   0  0  0  0  0  0  0  0  0  0  0  0
    0.7504   -3.7074   -3.6220 H   0  0  0  0  0  0  0  0  0  0  0  0
    1.9949   -2.4728   -2.4115 C   0  0  0  0  0  0  0  0  0  0  0  0
    3.1052   -3.2184   -2.0151 C   0  0  0  0  0  0  0  0  0  0  0  0
    3.2133   -4.2492   -2.3334 H   0  0  0  0  0  0  0  0  0  0  0  0
    4.0747   -2.6186   -1.1989 C   0  0  0  0  0  0  0  0  0  0  0  0
    4.9427   -3.1880   -0.8802 H   0  0  0  0  0  0  0  0  0  0  0  0
    3.9237   -1.2842   -0.7910 C   0  0  0  0  0  0  0  0  0  0  0  0
    4.6750   -0.8233   -0.1573 H   0  0  0  0  0  0  0  0  0  0  0  0
    2.8039   -0.5441   -1.1967 C   0  0  0  0  0  0  0  0  0  0  0  0
    2.6818    0.4870   -0.8830 H   0  0  0  0  0  0  0  0  0  0  0  0
    1.8418   -1.1508   -2.0104 C   0  0  0  0  0  0  0  0  0  0  0  0
   -1.1586    2.2683   -0.7944 C   0  0  0  0  0  0  0  0  0  0  0  0
   -1.7240    2.9243   -1.6619 O   0  0  0  0  0  0  0  0  0  0  0  0
   -0.9380    2.8287    0.4498 N   0  0  0  0  0  0  0  0  0  0  0  0
   -0.5910    2.2095    1.1786 H   0  0  0  0  0  0  0  0  0  0  0  0
   -1.3964    4.1620    0.8180 C   0  0  0  0  0  0  0  0  0  0  0  0
   -2.4881    4.2227    0.7569 H   0  0  0  0  0  0  0  0  0  0  0  0
   -1.0928    4.3958    1.8429 H   0  0  0  0  0  0  0  0  0  0  0  0
   -0.9632    4.9140    0.1503 H   0  0  0  0  0  0  0  0  0  0  0  0
  1  2  1  0  0  0  0
  2  3  1  0  0  0  0
  2  4  1  0  0  0  0
  2  5  1  0  0  0  0
  5  6  2  0  0  0  0
  5  7  1  0  0  0  0
  7  8  1  0  0  0  0
  7  9  1  0  0  0  0
  9 10  1  0  0  0  0
  9 11  1  0  0  0  0
  9 29  1  0  0  0  0
 11 12  1  0  0  0  0
 11 13  1  0  0  0  0
 11 14  1  0  0  0  0
 14 15  2  0  0  0  0
 14 28  1  0  0  0  0
 15 16  1  0  0  0  0
 15 17  1  0  0  0  0
 17 18  1  0  0  0  0
 17 19  1  0  0  0  0
 19 20  1  0  0  0  0
 19 28  2  0  0  0  0
 20 21  1  0  0  0  0
 20 22  2  0  0  0  0
 22 23  1  0  0  0  0
 22 24  1  0  0  0  0
 24 25  1  0  0  0  0
 24 26  2  0  0  0  0
 26 27  1  0  0  0  0
 26 28  1  0  0  0  0
 29 30  2  0  0  0  0
 29 31  1  0  0  0  0
 31 32  1  0  0  0  0
 31 33  1  0  0  0  0
 33 34  1  0  0  0  0
 33 35  1  0  0  0  0
 33 36  1  0  0  0  0
M  END
$$$$

  -OEChem-01062216103D

 36 37  0     1  0  0  0  0  0999 V2000
   -3.4462   -2.7593    0.3770 H   0  0  0  0  0  0  0  0  0  0  0  0
   -3.4187   -1.9765   -0.3864 C   0  0  0  0  0  0  0  0  0  0  0  0
   -4.3010   -1.3421   -0.2729 H   0  0  0  0  0  0  0  0  0  0  0  0
   -3.4388   -2.4461   -1.3727 H   0  0  0  0  0  0  0  0  0  0  0  0
   -2.1593   -1.1445   -0.2353 C   0  0  0  0  0  0  0  0  0  0  0  0
   -1.3815   -1.3823    0.6742 O   0  0  0  0  0  0  0  0  0  0  0  0
   -1.9357   -0.0872   -1.0920 N   0  0  0  0  0  0  0  0  0  0  0  0
   -2.6758    0.1524   -1.7461 H   0  0  0  0  0  0  0  0  0  0  0  0
   -0.7484    0.7823   -1.0551 C   0  0  1  0  0  0  0  0  0  0  0  0
   -0.0689    0.4789   -0.2519 H   0  0  0  0  0  0  0  0  0  0  0  0
    0.0127    0.6907   -2.3881 C   0  0  0  0  0  0  0  0  0  0  0  0
   -0.6721    0.9122   -3.2131 H   0  0  0  0  0  0  0  0  0  0  0  0
    0.8107    1.4394   -2.4170 H   0  0  0  0  0  0  0  0  0  0  0  0
    0.6143   -0.6760   -2.5848 C   0  0  0  0  0  0  0  0  0  0  0  0
    0.0704   -1.7060   -3.3135 C   0  0  0  0  0  0  0  0  0  0  0  0
   -0.8701   -1.6657   -3.8574 H   0  0  0  0  0  0  0  0  0  0  0  0
    0.9371   -2.7929   -3.2207 N   0  0  0  0  0  0  0  0  0  0  0  0
    0.7910   -3.7032   -3.6511 H   0  0  0  0  0  0  0  0  0  0  0  0
    2.0290   -2.4715   -2.4304 C   0  0  0  0  0  0  0  0  0  0  0  0
    3.1428   -3.2144   -2.0392 C   0  0  0  0  0  0  0  0  0  0  0  0
    3.2584   -4.2410   -2.3683 H   0  0  0  0  0  0  0  0  0  0  0  0
    4.1058   -2.6184   -1.2126 C   0  0  0  0  0  0  0  0  0  0  0  0
    4.9760   -3.1864   -0.8974 H   0  0  0  0  0  0  0  0  0  0  0  0
    3.9447   -1.2902   -0.7892 C   0  0  0  0  0  0  0  0  0  0  0  0
    4.6907   -0.8326   -0.1468 H   0  0  0  0  0  0  0  0  0  0  0  0
    2.8215   -0.5527   -1.1904 C   0  0  0  0  0  0  0  0  0  0  0  0
    2.6927    0.4737   -0.8647 H   0  0  0  0  0  0  0  0  0  0  0  0
    1.8656   -1.1556   -2.0141 C   0  0  0  0  0  0  0  0  0  0  0  0
   -1.1610    2.2431   -0.8031 C   0  0  0  0  0  0  0  0  0  0  0  0
   -1.9365    2.8025   -1.5704 O   0  0  0  0  0  0  0  0  0  0  0  0
   -0.6948    2.9190    0.3091 N   0  0  0  0  0  0  0  0  0  0  0  0
   -0.1483    2.3864    0.9811 H   0  0  0  0  0  0  0  0  0  0  0  0
   -1.1143    4.2709    0.6567 C   0  0  0  0  0  0  0  0  0  0  0  0
   -2.1951    4.3044    0.8291 H   0  0  0  0  0  0  0  0  0  0  0  0
   -0.6076    4.6008    1.5688 H   0  0  0  0  0  0  0  0  0  0  0  0
   -0.8633    4.9695   -0.1484 H   0  0  0  0  0  0  0  0  0  0  0  0
  1  2  1  0  0  0  0
  2  3  1  0  0  0  0
  2  4  1  0  0  0  0
  2  5  1  0  0  0  0
  5  6  2  0  0  0  0
  5  7  1  0  0  0  0
  7  8  1  0  0  0  0
  7  9  1  0  0  0  0
  9 10  1  0  0  0  0
  9 11  1  0  0  0  0
  9 29  1  0  0  0  0
 11 12  1  0  0  0  0
 11 13  1  0  0  0  0
 11 14  1  0  0  0  0
 14 15  2  0  0  0  0
 14 28  1  0  0  0  0
 15 16  1  0  0  0  0
 15 17  1  0  0  0  0
 17 18  1  0  0  0  0
 17 19  1  0  0  0  0
 19 20  1  0  0  0  0
 19 28  2  0  0  0  0
 20 21  1  0  0  0  0
 20 22  2  0  0  0  0
 22 23  1  0  0  0  0
 22 24  1  0  0  0  0
 24 25  1  0  0  0  0
 24 26  2  0  0  0  0
 26 27  1  0  0  0  0
 26 28  1  0  0  0  0
 29 30  2  0  0  0  0
 29 31  1  0  0  0  0
 31 32  1  0  0  0  0
 31 33  1  0  0  0  0
 33 34  1  0  0  0  0
 33 35  1  0  0  0  0
 33 36  1  0  0  0  0
M  END
$$$$

  -OEChem-01062216103D

 36 37  0     1  0  0  0  0  0999 V2000
   -3.5293   -2.7151    0.4070 H   0  0  0  0  0  0  0  0  0  0  0  0
   -3.4875   -1.9326   -0.3558 C   0  0  0  0  0  0  0  0  0  0  0  0
   -4.3326   -1.2551   -0.2120 H   0  0  0  0  0  0  0  0  0  0  0  0
   -3.5637   -2.3975   -1.3414 H   0  0  0  0  0  0  0  0  0  0  0  0
   -2.1834   -1.1655   -0.2464 C   0  0  0  0  0  0  0  0  0  0  0  0
   -1.3827   -1.4538    0.6277 O   0  0  0  0  0  0  0  0  0  0  0  0
   -1.9438   -0.1115   -1.1029 N   0  0  0  0  0  0  0  0  0  0  0  0
   -2.7185    0.1976   -1.6848 H   0  0  0  0  0  0  0  0  0  0  0  0
   -0.7570    0.7585   -1.0474 C   0  0  1  0  0  0  0  0  0  0  0  0
   -0.0919    0.4555   -0.2322 H   0  0  0  0  0  0  0  0  0  0  0  0
    0.0190    0.6723   -2.3715 C   0  0  0  0  0  0  0  0  0  0  0  0
   -0.6589    0.8957   -3.2020 H   0  0  0  0  0  0  0  0  0  0  0  0
    0.8163    1.4221   -2.3902 H   0  0  0  0  0  0  0  0  0  0  0  0
    0.6255   -0.6915   -2.5714 C   0  0  0  0  0  0  0  0  0  0  0  0
    0.0920   -1.7184   -3.3120 C   0  0  0  0  0  0  0  0  0  0  0  0
   -0.8486   -1.6809   -3.8561 H   0  0  0  0  0  0  0  0  0  0  0  0
    0.9697   -2.7973   -3.2317 N   0  0  0  0  0  0  0  0  0  0  0  0
    0.8315   -3.7045   -3.6709 H   0  0  0  0  0  0  0  0  0  0  0  0
    2.0608   -2.4728   -2.4415 C   0  0  0  0  0  0  0  0  0  0  0  0
    3.1850   -3.2073   -2.0641 C   0  0  0  0  0  0  0  0  0  0  0  0
    3.3101   -4.2289   -2.4053 H   0  0  0  0  0  0  0  0  0  0  0  0
    4.1463   -2.6086   -1.2372 C   0  0  0  0  0  0  0  0  0  0  0  0
    5.0251   -3.1695   -0.9333 H   0  0  0  0  0  0  0  0  0  0  0  0
    3.9725   -1.2864   -0.7991 C   0  0  0  0  0  0  0  0  0  0  0  0
    4.7171   -0.8269   -0.1560 H   0  0  0  0  0  0  0  0  0  0  0  0
    2.8383   -0.5577   -1.1858 C   0  0  0  0  0  0  0  0  0  0  0  0
    2.6988    0.4635   -0.8486 H   0  0  0  0  0  0  0  0  0  0  0  0
    1.8845   -1.1631   -2.0102 C   0  0  0  0  0  0  0  0  0  0  0  0
   -1.1692    2.2218   -0.8092 C   0  0  0  0  0  0  0  0  0  0  0  0
   -2.1022    2.7039   -1.4426 O   0  0  0  0  0  0  0  0  0  0  0  0
   -0.4974    2.9996    0.1157 N   0  0  0  0  0  0  0  0  0  0  0  0
    0.2110    2.5433    0.6842 H   0  0  0  0  0  0  0  0  0  0  0  0
   -0.8671    4.3763    0.4204 C   0  0  0  0  0  0  0  0  0  0  0  0
   -1.8989    4.4259    0.7837 H   0  0  0  0  0  0  0  0  0  0  0  0
   -0.2083    4.7819    1.1941 H   0  0  0  0  0  0  0  0  0  0  0  0
   -0.7770    5.0031   -0.4729 H   0  0  0  0  0  0  0  0  0  0  0  0
  1  2  1  0  0  0  0
  2  3  1  0  0  0  0
  2  4  1  0  0  0  0
  2  5  1  0  0  0  0
  5  6  2  0  0  0  0
  5  7  1  0  0  0  0
  7  8  1  0  0  0  0
  7  9  1  0  0  0  0
  9 10  1  0  0  0  0
  9 11  1  0  0  0  0
  9 29  1  0  0  0  0
 11 12  1  0  0  0  0
 11 13  1  0  0  0  0
 11 14  1  0  0  0  0
 14 15  2  0  0  0  0
 14 28  1  0  0  0  0
 15 16  1  0  0  0  0
 15 17  1  0  0  0  0
 17 18  1  0  0  0  0
 17 19  1  0  0  0  0
 19 20  1  0  0  0  0
 19 28  2  0  0  0  0
 20 21  1  0  0  0  0
 20 22  2  0  0  0  0
 22 23  1  0  0  0  0
 22 24  1  0  0  0  0
 24 25  1  0  0  0  0
 24 26  2  0  0  0  0
 26 27  1  0  0  0  0
 26 28  1  0  0  0  0
 29 30  2  0  0  0  0
 29 31  1  0  0  0  0
 31 32  1  0  0  0  0
 31 33  1  0  0  0  0
 33 34  1  0  0  0  0
 33 35  1  0  0  0  0
 33 36  1  0  0  0  0
M  END
$$$$

  -OEChem-01062216103D

 36 37  0     1  0  0  0  0  0999 V2000
   -3.5575   -2.6920    0.4281 H   0  0  0  0  0  0  0  0  0  0  0  0
   -3.5160   -1.9097   -0.3351 C   0  0  0  0  0  0  0  0  0  0  0  0
   -4.3381   -1.2098   -0.1669 H   0  0  0  0  0  0  0  0  0  0  0  0
   -3.6330   -2.3704   -1.3187 H   0  0  0  0  0  0  0  0  0  0  0  0
   -2.1888   -1.1784   -0.2616 C   0  0  0  0  0  0  0  0  0  0  0  0
   -1.3687   -1.4982    0.5833 O   0  0  0  0  0  0  0  0  0  0  0  0
   -1.9482   -0.1257   -1.1197 N   0  0  0  0  0  0  0  0  0  0  0  0
   -2.7467    0.2282   -1.6415 H   0  0  0  0  0  0  0  0  0  0  0  0
   -0.7642    0.7481   -1.0520 C   0  0  1  0  0  0  0  0  0  0  0  0
   -0.1067    0.4483   -0.2295 H   0  0  0  0  0  0  0  0  0  0  0  0
    0.0196    0.6623   -2.3714 C   0  0  0  0  0  0  0  0  0  0  0  0
   -0.6541    0.8861   -3.2049 H   0  0  0  0  0  0  0  0  0  0  0  0
    0.8165    1.4125   -2.3857 H   0  0  0  0  0  0  0  0  0  0  0  0
    0.6305   -0.7001   -2.5696 C   0  0  0  0  0  0  0  0  0  0  0  0
    0.1031   -1.7273   -3.3139 C   0  0  0  0  0  0  0  0  0  0  0  0
   -0.8384   -1.6929   -3.8561 H   0  0  0  0  0  0  0  0  0  0  0  0
    0.9874   -2.8013   -3.2388 N   0  0  0  0  0  0  0  0  0  0  0  0
    0.8522   -3.7091   -3.6780 H   0  0  0  0  0  0  0  0  0  0  0  0
    2.0763   -2.4734   -2.4472 C   0  0  0  0  0  0  0  0  0  0  0  0
    3.2052   -3.2024   -2.0732 C   0  0  0  0  0  0  0  0  0  0  0  0
    3.3367   -4.2212   -2.4200 H   0  0  0  0  0  0  0  0  0  0  0  0
    4.1622   -2.6018   -1.2430 C   0  0  0  0  0  0  0  0  0  0  0  0
    5.0446   -3.1591   -0.9431 H   0  0  0  0  0  0  0  0  0  0  0  0
    3.9793   -1.2837   -0.7972 C   0  0  0  0  0  0  0  0  0  0  0  0
    4.7204   -0.8235   -0.1512 H   0  0  0  0  0  0  0  0  0  0  0  0
    2.8408   -0.5604   -1.1805 C   0  0  0  0  0  0  0  0  0  0  0  0
    2.6945    0.4572   -0.8370 H   0  0  0  0  0  0  0  0  0  0  0  0
    1.8917   -1.1670   -2.0094 C   0  0  0  0  0  0  0  0  0  0  0  0
   -1.1769    2.2136   -0.8202 C   0  0  0  0  0  0  0  0  0  0  0  0
   -2.2366    2.6311   -1.2761 O   0  0  0  0  0  0  0  0  0  0  0  0
   -0.3432    3.0775   -0.1340 N   0  0  0  0  0  0  0  0  0  0  0  0
    0.4963    2.6859    0.2835 H   0  0  0  0  0  0  0  0  0  0  0  0
   -0.6804    4.4698    0.1352 C   0  0  0  0  0  0  0  0  0  0  0  0
   -1.6107    4.5356    0.7093 H   0  0  0  0  0  0  0  0  0  0  0  0
    0.1169    4.9461    0.7140 H   0  0  0  0  0  0  0  0  0  0  0  0
   -0.8041    5.0223   -0.8021 H   0  0  0  0  0  0  0  0  0  0  0  0
  1  2  1  0  0  0  0
  2  3  1  0  0  0  0
  2  4  1  0  0  0  0
  2  5  1  0  0  0  0
  5  6  2  0  0  0  0
  5  7  1  0  0  0  0
  7  8  1  0  0  0  0
  7  9  1  0  0  0  0
  9 10  1  0  0  0  0
  9 11  1  0  0  0  0
  9 29  1  0  0  0  0
 11 12  1  0  0  0  0
 11 13  1  0  0  0  0
 11 14  1  0  0  0  0
 14 15  2  0  0  0  0
 14 28  1  0  0  0  0
 15 16  1  0  0  0  0
 15 17  1  0  0  0  0
 17 18  1  0  0  0  0
 17 19  1  0  0  0  0
 19 20  1  0  0  0  0
 19 28  2  0  0  0  0
 20 21  1  0  0  0  0
 20 22  2  0  0  0  0
 22 23  1  0  0  0  0
 22 24  1  0  0  0  0
 24 25  1  0  0  0  0
 24 26  2  0  0  0  0
 26 27  1  0  0  0  0
 26 28  1  0  0  0  0
 29 30  2  0  0  0  0
 29 31  1  0  0  0  0
 31 32  1  0  0  0  0
 31 33  1  0  0  0  0
 33 34  1  0  0  0  0
 33 35  1  0  0  0  0
 33 36  1  0  0  0  0
M  END
$$$$

  -OEChem-01062216103D

 36 37  0     1  0  0  0  0  0999 V2000
   -3.5667   -2.6711    0.4501 H   0  0  0  0  0  0  0  0  0  0  0  0
   -3.5292   -1.8912   -0.3157 C   0  0  0  0  0  0  0  0  0  0  0  0
   -4.3285   -1.1711   -0.1241 H   0  0  0  0  0  0  0  0  0  0  0  0
   -3.6866   -2.3499   -1.2946 H   0  0  0  0  0  0  0  0  0  0  0  0
   -2.1832   -1.1924   -0.2835 C   0  0  0  0  0  0  0  0  0  0  0  0
   -1.3412   -1.5433    0.5266 O   0  0  0  0  0  0  0  0  0  0  0  0
   -1.9496   -0.1369   -1.1405 N   0  0  0  0  0  0  0  0  0  0  0  0
   -2.7692    0.2518   -1.6018 H   0  0  0  0  0  0  0  0  0  0  0  0
   -0.7695    0.7425   -1.0604 C   0  0  1  0  0  0  0  0  0  0  0  0
   -0.1163    0.4452   -0.2334 H   0  0  0  0  0  0  0  0  0  0  0  0
    0.0203    0.6568   -2.3775 C   0  0  0  0  0  0  0  0  0  0  0  0
   -0.6518    0.8772   -3.2135 H   0  0  0  0  0  0  0  0  0  0  0  0
    0.8169    1.4068   -2.3928 H   0  0  0  0  0  0  0  0  0  0  0  0
    0.6354   -0.7039   -2.5730 C   0  0  0  0  0  0  0  0  0  0  0  0
    0.1121   -1.7317   -3.3192 C   0  0  0  0  0  0  0  0  0  0  0  0
   -0.8288   -1.6993   -3.8626 H   0  0  0  0  0  0  0  0  0  0  0  0
    0.9990   -2.8034   -3.2441 N   0  0  0  0  0  0  0  0  0  0  0  0
    0.8639   -3.7126   -3.6800 H   0  0  0  0  0  0  0  0  0  0  0  0
    2.0852   -2.4739   -2.4497 C   0  0  0  0  0  0  0  0  0  0  0  0
    3.2143   -3.2017   -2.0743 C   0  0  0  0  0  0  0  0  0  0  0  0
    3.3485   -4.2198   -2.4218 H   0  0  0  0  0  0  0  0  0  0  0  0
    4.1685   -2.6011   -1.2411 C   0  0  0  0  0  0  0  0  0  0  0  0
    5.0510   -3.1575   -0.9396 H   0  0  0  0  0  0  0  0  0  0  0  0
    3.9824   -1.2840   -0.7937 C   0  0  0  0  0  0  0  0  0  0  0  0
    4.7216   -0.8236   -0.1454 H   0  0  0  0  0  0  0  0  0  0  0  0
    2.8431   -0.5623   -1.1779 C   0  0  0  0  0  0  0  0  0  0  0  0
    2.6945    0.4540   -0.8317 H   0  0  0  0  0  0  0  0  0  0  0  0
    1.8966   -1.1685   -2.0103 C   0  0  0  0  0  0  0  0  0  0  0  0
   -1.1862    2.2082   -0.8259 C   0  0  0  0  0  0  0  0  0  0  0  0
   -2.3325    2.5704   -1.0718 O   0  0  0  0  0  0  0  0  0  0  0  0
   -0.2554    3.1446   -0.4135 N   0  0  0  0  0  0  0  0  0  0  0  0
    0.6763    2.8110   -0.1834 H   0  0  0  0  0  0  0  0  0  0  0  0
   -0.5772    4.5484   -0.1883 C   0  0  0  0  0  0  0  0  0  0  0  0
   -1.3611    4.6457    0.5702 H   0  0  0  0  0  0  0  0  0  0  0  0
    0.3090    5.0878    0.1597 H   0  0  0  0  0  0  0  0  0  0  0  0
   -0.9240    5.0156   -1.1160 H   0  0  0  0  0  0  0  0  0  0  0  0
  1  2  1  0  0  0  0
  2  3  1  0  0  0  0
  2  4  1  0  0  0  0
  2  5  1  0  0  0  0
  5  6  2  0  0  0  0
  5  7  1  0  0  0  0
  7  8  1  0  0  0  0
  7  9  1  0  0  0  0
  9 10  1  0  0  0  0
  9 11  1  0  0  0  0
  9 29  1  0  0  0  0
 11 12  1  0  0  0  0
 11 13  1  0  0  0  0
 11 14  1  0  0  0  0
 14 15  2  0  0  0  0
 14 28  1  0  0  0  0
 15 16  1  0  0  0  0
 15 17  1  0  0  0  0
 17 18  1  0  0  0  0
 17 19  1  0  0  0  0
 19 20  1  0  0  0  0
 19 28  2  0  0  0  0
 20 21  1  0  0  0  0
 20 22  2  0  0  0  0
 22 23  1  0  0  0  0
 22 24  1  0  0  0  0
 24 25  1  0  0  0  0
 24 26  2  0  0  0  0
 26 27  1  0  0  0  0
 26 28  1  0  0  0  0
 29 30  2  0  0  0  0
 29 31  1  0  0  0  0
 31 32  1  0  0  0  0
 31 33  1  0  0  0  0
 33 34  1  0  0  0  0
 33 35  1  0  0  0  0
 33 36  1  0  0  0  0
M  END
$$$$

  -OEChem-01062216103D

 36 37  0     1  0  0  0  0  0999 V2000
   -3.5435   -2.6330    0.4773 H   0  0  0  0  0  0  0  0  0  0  0  0
   -3.5297   -1.8566   -0.2929 C   0  0  0  0  0  0  0  0  0  0  0  0
   -4.2949   -1.1133   -0.0560 H   0  0  0  0  0  0  0  0  0  0  0  0
   -3.7586   -2.3130   -1.2587 H   0  0  0  0  0  0  0  0  0  0  0  0
   -2.1648   -1.1968   -0.3441 C   0  0  0  0  0  0  0  0  0  0  0  0
   -1.2765   -1.5926    0.3934 O   0  0  0  0  0  0  0  0  0  0  0  0
   -1.9590   -0.1350   -1.2011 N   0  0  0  0  0  0  0  0  0  0  0  0
   -2.8081    0.2908   -1.5627 H   0  0  0  0  0  0  0  0  0  0  0  0
   -0.7806    0.7475   -1.1084 C   0  0  1  0  0  0  0  0  0  0  0  0
   -0.0036    0.3015   -0.4788 H   0  0  0  0  0  0  0  0  0  0  0  0
   -0.2071    0.9500   -2.5224 C   0  0  0  0  0  0  0  0  0  0  0  0
   -1.0007    1.3137   -3.1835 H   0  0  0  0  0  0  0  0  0  0  0  0
    0.5822    1.7074   -2.5131 H   0  0  0  0  0  0  0  0  0  0  0  0
    0.3657   -0.3284   -3.0767 C   0  0  0  0  0  0  0  0  0  0  0  0
   -0.2715   -1.2031   -3.9232 C   0  0  0  0  0  0  0  0  0  0  0  0
   -1.2854   -1.0902   -4.2989 H   0  0  0  0  0  0  0  0  0  0  0  0
    0.6125   -2.2436   -4.2001 N   0  0  0  0  0  0  0  0  0  0  0  0
    0.4091   -3.0503   -4.7859 H   0  0  0  0  0  0  0  0  0  0  0  0
    1.8108   -2.0473   -3.5329 C   0  0  0  0  0  0  0  0  0  0  0  0
    2.9825   -2.8028   -3.4895 C   0  0  0  0  0  0  0  0  0  0  0  0
    3.0579   -3.7271   -4.0513 H   0  0  0  0  0  0  0  0  0  0  0  0
    4.0569   -2.3533   -2.7090 C   0  0  0  0  0  0  0  0  0  0  0  0
    4.9741   -2.9331   -2.6646 H   0  0  0  0  0  0  0  0  0  0  0  0
    3.9466   -1.1578   -1.9823 C   0  0  0  0  0  0  0  0  0  0  0  0
    4.7790   -0.8153   -1.3752 H   0  0  0  0  0  0  0  0  0  0  0  0
    2.7635   -0.4067   -2.0341 C   0  0  0  0  0  0  0  0  0  0  0  0
    2.6743    0.5149   -1.4706 H   0  0  0  0  0  0  0  0  0  0  0  0
    1.6973   -0.8609   -2.8172 C   0  0  0  0  0  0  0  0  0  0  0  0
   -1.1487    2.1171   -0.4952 C   0  0  0  0  0  0  0  0  0  0  0  0
   -2.3216    2.4030   -0.2763 O   0  0  0  0  0  0  0  0  0  0  0  0
   -0.1827    3.0922   -0.3180 N   0  0  0  0  0  0  0  0  0  0  0  0
    0.7843    2.8286   -0.4822 H   0  0  0  0  0  0  0  0  0  0  0  0
   -0.4692    4.4181    0.2164 C   0  0  0  0  0  0  0  0  0  0  0  0
   -0.9226    4.3418    1.2104 H   0  0  0  0  0  0  0  0  0  0  0  0
    0.4547    4.9982    0.3018 H   0  0  0  0  0  0  0  0  0  0  0  0
   -1.1559    4.9576   -0.4445 H   0  0  0  0  0  0  0  0  0  0  0  0
  1  2  1  0  0  0  0
  2  3  1  0  0  0  0
  2  4  1  0  0  0  0
  2  5  1  0  0  0  0
  5  6  2  0  0  0  0
  5  7  1  0  0  0  0
  7  8  1  0  0  0  0
  7  9  1  0  0  0  0
  9 10  1  0  0  0  0
  9 11  1  0  0  0  0
  9 29  1  0  0  0  0
 11 12  1  0  0  0  0
 11 13  1  0  0  0  0
 11 14  1  0  0  0  0
 14 15  2  0  0  0  0
 14 28  1  0  0  0  0
 15 16  1  0  0  0  0
 15 17  1  0  0  0  0
 17 18  1  0  0  0  0
 17 19  1  0  0  0  0
 19 20  1  0  0  0  0
 19 28  2  0  0  0  0
 20 21  1  0  0  0  0
 20 22  2  0  0  0  0
 22 23  1  0  0  0  0
 22 24  1  0  0  0  0
 24 25  1  0  0  0  0
 24 26  2  0  0  0  0
 26 27  1  0  0  0  0
 26 28  1  0  0  0  0
 29 30  2  0  0  0  0
 29 31  1  0  0  0  0
 31 32  1  0  0  0  0
 31 33  1  0  0  0  0
 33 34  1  0  0  0  0
 33 35  1  0  0  0  0
 33 36  1  0  0  0  0
M  END
$$$$

  -OEChem-01062216103D

 36 37  0     1  0  0  0  0  0999 V2000
   -3.5268   -2.6060    0.4917 H   0  0  0  0  0  0  0  0  0  0  0  0
   -3.5220   -1.8295   -0.2784 C   0  0  0  0  0  0  0  0  0  0  0  0
   -4.2648   -1.0717   -0.0176 H   0  0  0  0  0  0  0  0  0  0  0  0
   -3.7905   -2.2807   -1.2363 H   0  0  0  0  0  0  0  0  0  0  0  0
   -2.1471   -1.1951   -0.3720 C   0  0  0  0  0  0  0  0  0  0  0  0
   -1.2399   -1.6194    0.3256 O   0  0  0  0  0  0  0  0  0  0  0  0
   -1.9539   -0.1281   -1.2261 N   0  0  0  0  0  0  0  0  0  0  0  0
   -2.8124    0.3084   -1.5501 H   0  0  0  0  0  0  0  0  0  0  0  0
   -0.7754    0.7556   -1.1331 C   0  0  1  0  0  0  0  0  0  0  0  0
    0.0028    0.3120   -0.5030 H   0  0  0  0  0  0  0  0  0  0  0  0
   -0.2007    0.9454   -2.5505 C   0  0  0  0  0  0  0  0  0  0  0  0
   -0.9925    1.3059   -3.2148 H   0  0  0  0  0  0  0  0  0  0  0  0
    0.5940    1.6966   -2.5505 H   0  0  0  0  0  0  0  0  0  0  0  0
    0.3710   -0.3380   -3.0932 C   0  0  0  0  0  0  0  0  0  0  0  0
   -0.2663   -1.2197   -3.9322 C   0  0  0  0  0  0  0  0  0  0  0  0
   -1.2801   -1.1104   -4.3092 H   0  0  0  0  0  0  0  0  0  0  0  0
    0.6165   -2.2642   -4.1971 N   0  0  0  0  0  0  0  0  0  0  0  0
    0.4118   -3.0782   -4.7720 H   0  0  0  0  0  0  0  0  0  0  0  0
    1.8136   -2.0639   -3.5292 C   0  0  0  0  0  0  0  0  0  0  0  0
    2.9823   -2.8231   -3.4750 C   0  0  0  0  0  0  0  0  0  0  0  0
    3.0547   -3.7544   -4.0253 H   0  0  0  0  0  0  0  0  0  0  0  0
    4.0568   -2.3682   -2.6980 C   0  0  0  0  0  0  0  0  0  0  0  0
    4.9719   -2.9505   -2.6445 H   0  0  0  0  0  0  0  0  0  0  0  0
    3.9493   -1.1640   -1.9855 C   0  0  0  0  0  0  0  0  0  0  0  0
    4.7813   -0.8172   -1.3803 H   0  0  0  0  0  0  0  0  0  0  0  0
    2.7685   -0.4098   -2.0471 C   0  0  0  0  0  0  0  0  0  0  0  0
    2.6809    0.5177   -1.4925 H   0  0  0  0  0  0  0  0  0  0  0  0
    1.7018   -0.8694   -2.8267 C   0  0  0  0  0  0  0  0  0  0  0  0
   -1.1497    2.1208   -0.5060 C   0  0  0  0  0  0  0  0  0  0  0  0
   -2.2721    2.3018   -0.0453 O   0  0  0  0  0  0  0  0  0  0  0  0
   -0.2966    3.2081   -0.5933 N   0  0  0  0  0  0  0  0  0  0  0  0
    0.6339    3.0457   -0.9664 H   0  0  0  0  0  0  0  0  0  0  0  0
   -0.6190    4.5266   -0.0605 C   0  0  0  0  0  0  0  0  0  0  0  0
   -0.8346    4.4653    1.0116 H   0  0  0  0  0  0  0  0  0  0  0  0
    0.2244    5.2088   -0.2043 H   0  0  0  0  0  0  0  0  0  0  0  0
   -1.4926    4.9439   -0.5722 H   0  0  0  0  0  0  0  0  0  0  0  0
  1  2  1  0  0  0  0
  2  3  1  0  0  0  0
  2  4  1  0  0  0  0
  2  5  1  0  0  0  0
  5  6  2  0  0  0  0
  5  7  1  0  0  0  0
  7  8  1  0  0  0  0
  7  9  1  0  0  0  0
  9 10  1  0  0  0  0
  9 11  1  0  0  0  0
  9 29  1  0  0  0  0
 11 12  1  0  0  0  0
 11 13  1  0  0  0  0
 11 14  1  0  0  0  0
 14 15  2  0  0  0  0
 14 28  1  0  0  0  0
 15 16  1  0  0  0  0
 15 17  1  0  0  0  0
 17 18  1  0  0  0  0
 17 19  1  0  0  0  0
 19 20  1  0  0  0  0
 19 28  2  0  0  0  0
 20 21  1  0  0  0  0
 20 22  2  0  0  0  0
 22 23  1  0  0  0  0
 22 24  1  0  0  0  0
 24 25  1  0  0  0  0
 24 26  2  0  0  0  0
 26 27  1  0  0  0  0
 26 28  1  0  0  0  0
 29 30  2  0  0  0  0
 29 31  1  0  0  0  0
 31 32  1  0  0  0  0
 31 33  1  0  0  0  0
 33 34  1  0  0  0  0
 33 35  1  0  0  0  0
 33 36  1  0  0  0  0
M  END
$$$$

  -OEChem-01062216103D

 36 37  0     1  0  0  0  0  0999 V2000
   -3.5138   -2.5915    0.4891 H   0  0  0  0  0  0  0  0  0  0  0  0
   -3.5164   -1.8125   -0.2785 C   0  0  0  0  0  0  0  0  0  0  0  0
   -4.2506   -1.0515   -0.0028 H   0  0  0  0  0  0  0  0  0  0  0  0
   -3.8023   -2.2589   -1.2337 H   0  0  0  0  0  0  0  0  0  0  0  0
   -2.1392   -1.1864   -0.3904 C   0  0  0  0  0  0  0  0  0  0  0  0
   -1.2234   -1.6253    0.2863 O   0  0  0  0  0  0  0  0  0  0  0  0
   -1.9525   -0.1166   -1.2429 N   0  0  0  0  0  0  0  0  0  0  0  0
   -2.8128    0.3146   -1.5669 H   0  0  0  0  0  0  0  0  0  0  0  0
   -0.7723    0.7658   -1.1537 C   0  0  1  0  0  0  0  0  0  0  0  0
    0.0064    0.3237   -0.5229 H   0  0  0  0  0  0  0  0  0  0  0  0
   -0.1971    0.9386   -2.5742 C   0  0  0  0  0  0  0  0  0  0  0  0
   -0.9866    1.2957   -3.2433 H   0  0  0  0  0  0  0  0  0  0  0  0
    0.6031    1.6836   -2.5822 H   0  0  0  0  0  0  0  0  0  0  0  0
    0.3711   -0.3528   -3.1023 C   0  0  0  0  0  0  0  0  0  0  0  0
   -0.2667   -1.2443   -3.9309 C   0  0  0  0  0  0  0  0  0  0  0  0
   -1.2804   -1.1402   -4.3094 H   0  0  0  0  0  0  0  0  0  0  0  0
    0.6161   -2.2916   -4.1841 N   0  0  0  0  0  0  0  0  0  0  0  0
    0.4098   -3.1142   -4.7462 H   0  0  0  0  0  0  0  0  0  0  0  0
    1.8146   -2.0822   -3.5212 C   0  0  0  0  0  0  0  0  0  0  0  0
    2.9852   -2.8383   -3.4618 C   0  0  0  0  0  0  0  0  0  0  0  0
    3.0593   -3.7746   -4.0037 H   0  0  0  0  0  0  0  0  0  0  0  0
    4.0598   -2.3733   -2.6909 C   0  0  0  0  0  0  0  0  0  0  0  0
    4.9763   -2.9529   -2.6330 H   0  0  0  0  0  0  0  0  0  0  0  0
    3.9504   -1.1629   -1.9890 C   0  0  0  0  0  0  0  0  0  0  0  0
    4.7827   -0.8094   -1.3880 H   0  0  0  0  0  0  0  0  0  0  0  0
    2.7680   -0.4118   -2.0556 C   0  0  0  0  0  0  0  0  0  0  0  0
    2.6788    0.5194   -1.5071 H   0  0  0  0  0  0  0  0  0  0  0  0
    1.7022   -0.8807   -2.8309 C   0  0  0  0  0  0  0  0  0  0  0  0
   -1.1477    2.1289   -0.5177 C   0  0  0  0  0  0  0  0  0  0  0  0
   -2.1584    2.2267    0.1693 O   0  0  0  0  0  0  0  0  0  0  0  0
   -0.4764    3.2963   -0.8434 N   0  0  0  0  0  0  0  0  0  0  0  0
    0.3659    3.2132   -1.4042 H   0  0  0  0  0  0  0  0  0  0  0  0
   -0.8351    4.6048   -0.3082 C   0  0  0  0  0  0  0  0  0  0  0  0
   -0.7953    4.5952    0.7862 H   0  0  0  0  0  0  0  0  0  0  0  0
   -0.1388    5.3663   -0.6725 H   0  0  0  0  0  0  0  0  0  0  0  0
   -1.8464    4.8838   -0.6222 H   0  0  0  0  0  0  0  0  0  0  0  0
  1  2  1  0  0  0  0
  2  3  1  0  0  0  0
  2  4  1  0  0  0  0
  2  5  1  0  0  0  0
  5  6  2  0  0  0  0
  5  7  1  0  0  0  0
  7  8  1  0  0  0  0
  7  9  1  0  0  0  0
  9 10  1  0  0  0  0
  9 11  1  0  0  0  0
  9 29  1  0  0  0  0
 11 12  1  0  0  0  0
 11 13  1  0  0  0  0
 11 14  1  0  0  0  0
 14 15  2  0  0  0  0
 14 28  1  0  0  0  0
 15 16  1  0  0  0  0
 15 17  1  0  0  0  0
 17 18  1  0  0  0  0
 17 19  1  0  0  0  0
 19 20  1  0  0  0  0
 19 28  2  0  0  0  0
 20 21  1  0  0  0  0
 20 22  2  0  0  0  0
 22 23  1  0  0  0  0
 22 24  1  0  0  0  0
 24 25  1  0  0  0  0
 24 26  2  0  0  0  0
 26 27  1  0  0  0  0
 26 28  1  0  0  0  0
 29 30  2  0  0  0  0
 29 31  1  0  0  0  0
 31 32  1  0  0  0  0
 31 33  1  0  0  0  0
 33 34  1  0  0  0  0
 33 35  1  0  0  0  0
 33 36  1  0  0  0  0
M  END
$$$$

  -OEChem-01062216103D

 36 37  0     1  0  0  0  0  0999 V2000
   -3.4934   -2.6103    0.4729 H   0  0  0  0  0  0  0  0  0  0  0  0
   -3.5100   -1.8126   -0.2751 C   0  0  0  0  0  0  0  0  0  0  0  0
   -4.2410   -1.0604    0.0312 H   0  0  0  0  0  0  0  0  0  0  0  0
   -3.8101   -2.2363   -1.2362 H   0  0  0  0  0  0  0  0  0  0  0  0
   -2.1359   -1.1807   -0.3936 C   0  0  0  0  0  0  0  0  0  0  0  0
   -1.2115   -1.6291    0.2644 O   0  0  0  0  0  0  0  0  0  0  0  0
   -1.9579   -0.1094   -1.2470 N   0  0  0  0  0  0  0  0  0  0  0  0
   -2.8197    0.3111   -1.5792 H   0  0  0  0  0  0  0  0  0  0  0  0
   -0.7759    0.7720   -1.1719 C   0  0  1  0  0  0  0  0  0  0  0  0
    0.0042    0.3308   -0.5420 H   0  0  0  0  0  0  0  0  0  0  0  0
   -0.1986    0.9361   -2.5920 C   0  0  0  0  0  0  0  0  0  0  0  0
   -0.9854    1.2916   -3.2653 H   0  0  0  0  0  0  0  0  0  0  0  0
    0.6049    1.6780   -2.5977 H   0  0  0  0  0  0  0  0  0  0  0  0
    0.3691   -0.3580   -3.1118 C   0  0  0  0  0  0  0  0  0  0  0  0
   -0.2658   -1.2550   -3.9364 C   0  0  0  0  0  0  0  0  0  0  0  0
   -1.2787   -1.1542   -4.3178 H   0  0  0  0  0  0  0  0  0  0  0  0
    0.6195   -2.3018   -4.1834 N   0  0  0  0  0  0  0  0  0  0  0  0
    0.4163   -3.1276   -4.7418 H   0  0  0  0  0  0  0  0  0  0  0  0
    1.8154   -2.0881   -3.5170 C   0  0  0  0  0  0  0  0  0  0  0  0
    2.9871   -2.8418   -3.4480 C   0  0  0  0  0  0  0  0  0  0  0  0
    3.0653   -3.7802   -3.9851 H   0  0  0  0  0  0  0  0  0  0  0  0
    4.0568   -2.3724   -2.6729 C   0  0  0  0  0  0  0  0  0  0  0  0
    4.9735   -2.9505   -2.6072 H   0  0  0  0  0  0  0  0  0  0  0  0
    3.9418   -1.1600   -1.9758 C   0  0  0  0  0  0  0  0  0  0  0  0
    4.7690   -0.8033   -1.3697 H   0  0  0  0  0  0  0  0  0  0  0  0
    2.7590   -0.4106   -2.0527 C   0  0  0  0  0  0  0  0  0  0  0  0
    2.6645    0.5222   -1.5077 H   0  0  0  0  0  0  0  0  0  0  0  0
    1.6986   -0.8838   -2.8326 C   0  0  0  0  0  0  0  0  0  0  0  0
   -1.1453    2.1335   -0.5297 C   0  0  0  0  0  0  0  0  0  0  0  0
   -1.9769    2.1783    0.3685 O   0  0  0  0  0  0  0  0  0  0  0  0
   -0.7111    3.3378   -1.0609 N   0  0  0  0  0  0  0  0  0  0  0  0
   -0.0254    3.3016   -1.8088 H   0  0  0  0  0  0  0  0  0  0  0  0
   -1.0959    4.6387   -0.5253 C   0  0  0  0  0  0  0  0  0  0  0  0
   -0.7992    4.7235    0.5254 H   0  0  0  0  0  0  0  0  0  0  0  0
   -0.6061    5.4390   -1.0883 H   0  0  0  0  0  0  0  0  0  0  0  0
   -2.1795    4.7784   -0.5984 H   0  0  0  0  0  0  0  0  0  0  0  0
  1  2  1  0  0  0  0
  2  3  1  0  0  0  0
  2  4  1  0  0  0  0
  2  5  1  0  0  0  0
  5  6  2  0  0  0  0
  5  7  1  0  0  0  0
  7  8  1  0  0  0  0
  7  9  1  0  0  0  0
  9 10  1  0  0  0  0
  9 11  1  0  0  0  0
  9 29  1  0  0  0  0
 11 12  1  0  0  0  0
 11 13  1  0  0  0  0
 11 14  1  0  0  0  0
 14 15  2  0  0  0  0
 14 28  1  0  0  0  0
 15 16  1  0  0  0  0
 15 17  1  0  0  0  0
 17 18  1  0  0  0  0
 17 19  1  0  0  0  0
 19 20  1  0  0  0  0
 19 28  2  0  0  0  0
 20 21  1  0  0  0  0
 20 22  2  0  0  0  0
 22 23  1  0  0  0  0
 22 24  1  0  0  0  0
 24 25  1  0  0  0  0
 24 26  2  0  0  0  0
 26 27  1  0  0  0  0
 26 28  1  0  0  0  0
 29 30  2  0  0  0  0
 29 31  1  0  0  0  0
 31 32  1  0  0  0  0
 31 33  1  0  0  0  0
 33 34  1  0  0  0  0
 33 35  1  0  0  0  0
 33 36  1  0  0  0  0
M  END
$$$$

  -OEChem-01062216103D

 36 37  0     1  0  0  0  0  0999 V2000
   -3.4958   -2.6206    0.4670 H   0  0  0  0  0  0  0  0  0  0  0  0
   -3.5130   -1.8216   -0.2798 C   0  0  0  0  0  0  0  0  0  0  0  0
   -4.2531   -1.0765    0.0216 H   0  0  0  0  0  0  0  0  0  0  0  0
   -3.8010   -2.2466   -1.2440 H   0  0  0  0  0  0  0  0  0  0  0  0
   -2.1436   -1.1773   -0.3857 C   0  0  0  0  0  0  0  0  0  0  0  0
   -1.2208   -1.6215    0.2766 O   0  0  0  0  0  0  0  0  0  0  0  0
   -1.9669   -0.1069   -1.2411 N   0  0  0  0  0  0  0  0  0  0  0  0
   -2.8244    0.2942   -1.6052 H   0  0  0  0  0  0  0  0  0  0  0  0
   -0.7841    0.7741   -1.1799 C   0  0  1  0  0  0  0  0  0  0  0  0
   -0.0021    0.3349   -0.5507 H   0  0  0  0  0  0  0  0  0  0  0  0
   -0.2054    0.9339   -2.5994 C   0  0  0  0  0  0  0  0  0  0  0  0
   -0.9916    1.2833   -3.2759 H   0  0  0  0  0  0  0  0  0  0  0  0
    0.5944    1.6809   -2.6015 H   0  0  0  0  0  0  0  0  0  0  0  0
    0.3648   -0.3602   -3.1162 C   0  0  0  0  0  0  0  0  0  0  0  0
   -0.2657   -1.2616   -3.9398 C   0  0  0  0  0  0  0  0  0  0  0  0
   -1.2776   -1.1657   -4.3249 H   0  0  0  0  0  0  0  0  0  0  0  0
    0.6233   -2.3067   -4.1807 N   0  0  0  0  0  0  0  0  0  0  0  0
    0.4238   -3.1352   -4.7368 H   0  0  0  0  0  0  0  0  0  0  0  0
    1.8170   -2.0879   -3.5115 C   0  0  0  0  0  0  0  0  0  0  0  0
    2.9905   -2.8384   -3.4358 C   0  0  0  0  0  0  0  0  0  0  0  0
    3.0728   -3.7792   -3.9684 H   0  0  0  0  0  0  0  0  0  0  0  0
    4.0571   -2.3627   -2.6600 C   0  0  0  0  0  0  0  0  0  0  0  0
    4.9752   -2.9382   -2.5895 H   0  0  0  0  0  0  0  0  0  0  0  0
    3.9375   -1.1470   -1.9695 C   0  0  0  0  0  0  0  0  0  0  0  0
    4.7630   -0.7841   -1.3650 H   0  0  0  0  0  0  0  0  0  0  0  0
    2.7528   -0.4017   -2.0521 C   0  0  0  0  0  0  0  0  0  0  0  0
    2.6550    0.5340   -1.5126 H   0  0  0  0  0  0  0  0  0  0  0  0
    1.6952   -0.8814   -2.8320 C   0  0  0  0  0  0  0  0  0  0  0  0
   -1.1482    2.1358   -0.5393 C   0  0  0  0  0  0  0  0  0  0  0  0
   -1.7442    2.1669    0.5289 O   0  0  0  0  0  0  0  0  0  0  0  0
   -0.9910    3.3314   -1.2229 N   0  0  0  0  0  0  0  0  0  0  0  0
   -0.5103    3.3025   -2.1165 H   0  0  0  0  0  0  0  0  0  0  0  0
   -1.3860    4.6262   -0.6808 C   0  0  0  0  0  0  0  0  0  0  0  0
   -0.8621    4.8234    0.2604 H   0  0  0  0  0  0  0  0  0  0  0  0
   -1.1374    5.4229   -1.3884 H   0  0  0  0  0  0  0  0  0  0  0  0
   -2.4650    4.6521   -0.4961 H   0  0  0  0  0  0  0  0  0  0  0  0
  1  2  1  0  0  0  0
  2  3  1  0  0  0  0
  2  4  1  0  0  0  0
  2  5  1  0  0  0  0
  5  6  2  0  0  0  0
  5  7  1  0  0  0  0
  7  8  1  0  0  0  0
  7  9  1  0  0  0  0
  9 10  1  0  0  0  0
  9 11  1  0  0  0  0
  9 29  1  0  0  0  0
 11 12  1  0  0  0  0
 11 13  1  0  0  0  0
 11 14  1  0  0  0  0
 14 15  2  0  0  0  0
 14 28  1  0  0  0  0
 15 16  1  0  0  0  0
 15 17  1  0  0  0  0
 17 18  1  0  0  0  0
 17 19  1  0  0  0  0
 19 20  1  0  0  0  0
 19 28  2  0  0  0  0
 20 21  1  0  0  0  0
 20 22  2  0  0  0  0
 22 23  1  0  0  0  0
 22 24  1  0  0  0  0
 24 25  1  0  0  0  0
 24 26  2  0  0  0  0
 26 27  1  0  0  0  0
 26 28  1  0  0  0  0
 29 30  2  0  0  0  0
 29 31  1  0  0  0  0
 31 32  1  0  0  0  0
 31 33  1  0  0  0  0
 33 34  1  0  0  0  0
 33 35  1  0  0  0  0
 33 36  1  0  0  0  0
M  END
$$$$

  -OEChem-01062216103D

 36 37  0     1  0  0  0  0  0999 V2000
   -3.5012   -2.6358    0.4662 H   0  0  0  0  0  0  0  0  0  0  0  0
   -3.5139   -1.8503   -0.2947 C   0  0  0  0  0  0  0  0  0  0  0  0
   -4.2773   -1.1158   -0.0269 H   0  0  0  0  0  0  0  0  0  0  0  0
   -3.7666   -2.2977   -1.2587 H   0  0  0  0  0  0  0  0  0  0  0  0
   -2.1548   -1.1808   -0.3738 C   0  0  0  0  0  0  0  0  0  0  0  0
   -1.2387   -1.6051    0.3097 O   0  0  0  0  0  0  0  0  0  0  0  0
   -1.9788   -0.1123   -1.2317 N   0  0  0  0  0  0  0  0  0  0  0  0
   -2.8276    0.2560   -1.6466 H   0  0  0  0  0  0  0  0  0  0  0  0
   -0.8000    0.7745   -1.1800 C   0  0  1  0  0  0  0  0  0  0  0  0
   -0.0150    0.3391   -0.5511 H   0  0  0  0  0  0  0  0  0  0  0  0
   -0.2236    0.9329   -2.5996 C   0  0  0  0  0  0  0  0  0  0  0  0
   -1.0136    1.2696   -3.2782 H   0  0  0  0  0  0  0  0  0  0  0  0
    0.5665    1.6906   -2.6031 H   0  0  0  0  0  0  0  0  0  0  0  0
    0.3536   -0.3595   -3.1137 C   0  0  0  0  0  0  0  0  0  0  0  0
   -0.2726   -1.2666   -3.9344 C   0  0  0  0  0  0  0  0  0  0  0  0
   -1.2852   -1.1773   -4.3191 H   0  0  0  0  0  0  0  0  0  0  0  0
    0.6220   -2.3074   -4.1736 N   0  0  0  0  0  0  0  0  0  0  0  0
    0.4275   -3.1380   -4.7283 H   0  0  0  0  0  0  0  0  0  0  0  0
    1.8148   -2.0805   -3.5057 C   0  0  0  0  0  0  0  0  0  0  0  0
    2.9924   -2.8246   -3.4294 C   0  0  0  0  0  0  0  0  0  0  0  0
    3.0808   -3.7654   -3.9611 H   0  0  0  0  0  0  0  0  0  0  0  0
    4.0563   -2.3428   -2.6533 C   0  0  0  0  0  0  0  0  0  0  0  0
    4.9776   -2.9132   -2.5810 H   0  0  0  0  0  0  0  0  0  0  0  0
    3.9296   -1.1277   -1.9630 C   0  0  0  0  0  0  0  0  0  0  0  0
    4.7518   -0.7616   -1.3557 H   0  0  0  0  0  0  0  0  0  0  0  0
    2.7413   -0.3880   -2.0476 C   0  0  0  0  0  0  0  0  0  0  0  0
    2.6379    0.5468   -1.5070 H   0  0  0  0  0  0  0  0  0  0  0  0
    1.6868   -0.8735   -2.8283 C   0  0  0  0  0  0  0  0  0  0  0  0
   -1.1591    2.1391   -0.5470 C   0  0  0  0  0  0  0  0  0  0  0  0
   -1.4758    2.2026    0.6321 O   0  0  0  0  0  0  0  0  0  0  0  0
   -1.3001    3.2828   -1.3177 N   0  0  0  0  0  0  0  0  0  0  0  0
   -1.0267    3.2283   -2.2938 H   0  0  0  0  0  0  0  0  0  0  0  0
   -1.6791    4.5792   -0.7662 C   0  0  0  0  0  0  0  0  0  0  0  0
   -0.9635    4.8937    0.0010 H   0  0  0  0  0  0  0  0  0  0  0  0
   -1.6938    5.3367   -1.5557 H   0  0  0  0  0  0  0  0  0  0  0  0
   -2.6768    4.5287   -0.3176 H   0  0  0  0  0  0  0  0  0  0  0  0
  1  2  1  0  0  0  0
  2  3  1  0  0  0  0
  2  4  1  0  0  0  0
  2  5  1  0  0  0  0
  5  6  2  0  0  0  0
  5  7  1  0  0  0  0
  7  8  1  0  0  0  0
  7  9  1  0  0  0  0
  9 10  1  0  0  0  0
  9 11  1  0  0  0  0
  9 29  1  0  0  0  0
 11 12  1  0  0  0  0
 11 13  1  0  0  0  0
 11 14  1  0  0  0  0
 14 15  2  0  0  0  0
 14 28  1  0  0  0  0
 15 16  1  0  0  0  0
 15 17  1  0  0  0  0
 17 18  1  0  0  0  0
 17 19  1  0  0  0  0
 19 20  1  0  0  0  0
 19 28  2  0  0  0  0
 20 21  1  0  0  0  0
 20 22  2  0  0  0  0
 22 23  1  0  0  0  0
 22 24  1  0  0  0  0
 24 25  1  0  0  0  0
 24 26  2  0  0  0  0
 26 27  1  0  0  0  0
 26 28  1  0  0  0  0
 29 30  2  0  0  0  0
 29 31  1  0  0  0  0
 31 32  1  0  0  0  0
 31 33  1  0  0  0  0
 33 34  1  0  0  0  0
 33 35  1  0  0  0  0
 33 36  1  0  0  0  0
M  END
$$$$

  -OEChem-01062216103D

 36 37  0     1  0  0  0  0  0999 V2000
   -3.4919   -2.6917    0.4344 H   0  0  0  0  0  0  0  0  0  0  0  0
   -3.5054   -1.9010   -0.3213 C   0  0  0  0  0  0  0  0  0  0  0  0
   -4.3008   -1.1939   -0.0739 H   0  0  0  0  0  0  0  0  0  0  0  0
   -3.7114   -2.3492   -1.2961 H   0  0  0  0  0  0  0  0  0  0  0  0
   -2.1668   -1.1873   -0.3514 C   0  0  0  0  0  0  0  0  0  0  0  0
   -1.2679   -1.5731    0.3752 O   0  0  0  0  0  0  0  0  0  0  0  0
   -1.9899   -0.1195   -1.2103 N   0  0  0  0  0  0  0  0  0  0  0  0
   -2.8222    0.2062   -1.6886 H   0  0  0  0  0  0  0  0  0  0  0  0
   -0.8140    0.7720   -1.1714 C   0  0  1  0  0  0  0  0  0  0  0  0
   -0.0242    0.3371   -0.5479 H   0  0  0  0  0  0  0  0  0  0  0  0
   -0.2433    0.9387   -2.5920 C   0  0  0  0  0  0  0  0  0  0  0  0
   -1.0361    1.2716   -3.2687 H   0  0  0  0  0  0  0  0  0  0  0  0
    0.5391    1.7046   -2.5937 H   0  0  0  0  0  0  0  0  0  0  0  0
    0.3390   -0.3489   -3.1123 C   0  0  0  0  0  0  0  0  0  0  0  0
   -0.2831   -1.2578   -3.9341 C   0  0  0  0  0  0  0  0  0  0  0  0
   -1.2943   -1.1705   -4.3227 H   0  0  0  0  0  0  0  0  0  0  0  0
    0.6146   -2.2963   -4.1720 N   0  0  0  0  0  0  0  0  0  0  0  0
    0.4254   -3.1252   -4.7311 H   0  0  0  0  0  0  0  0  0  0  0  0
    1.8049   -2.0671   -3.5002 C   0  0  0  0  0  0  0  0  0  0  0  0
    2.9836   -2.8091   -3.4191 C   0  0  0  0  0  0  0  0  0  0  0  0
    3.0749   -3.7504   -3.9493 H   0  0  0  0  0  0  0  0  0  0  0  0
    4.0435   -2.3247   -2.6396 C   0  0  0  0  0  0  0  0  0  0  0  0
    4.9658   -2.8927   -2.5637 H   0  0  0  0  0  0  0  0  0  0  0  0
    3.9118   -1.1096   -1.9502 C   0  0  0  0  0  0  0  0  0  0  0  0
    4.7307   -0.7403   -1.3403 H   0  0  0  0  0  0  0  0  0  0  0  0
    2.7224   -0.3725   -2.0391 C   0  0  0  0  0  0  0  0  0  0  0  0
    2.6153    0.5625   -1.4994 H   0  0  0  0  0  0  0  0  0  0  0  0
    1.6719   -0.8604   -2.8233 C   0  0  0  0  0  0  0  0  0  0  0  0
   -1.1654    2.1392   -0.5441 C   0  0  0  0  0  0  0  0  0  0  0  0
   -1.1454    2.2876    0.6686 O   0  0  0  0  0  0  0  0  0  0  0  0
   -1.6108    3.1936   -1.3262 N   0  0  0  0  0  0  0  0  0  0  0  0
   -1.5888    3.0745   -2.3337 H   0  0  0  0  0  0  0  0  0  0  0  0
   -1.9655    4.4990   -0.7804 C   0  0  0  0  0  0  0  0  0  0  0  0
   -1.1098    4.9432   -0.2609 H   0  0  0  0  0  0  0  0  0  0  0  0
   -2.2703    5.1755   -1.5847 H   0  0  0  0  0  0  0  0  0  0  0  0
   -2.7970    4.4066   -0.0738 H   0  0  0  0  0  0  0  0  0  0  0  0
  1  2  1  0  0  0  0
  2  3  1  0  0  0  0
  2  4  1  0  0  0  0
  2  5  1  0  0  0  0
  5  6  2  0  0  0  0
  5  7  1  0  0  0  0
  7  8  1  0  0  0  0
  7  9  1  0  0  0  0
  9 10  1  0  0  0  0
  9 11  1  0  0  0  0
  9 29  1  0  0  0  0
 11 12  1  0  0  0  0
 11 13  1  0  0  0  0
 11 14  1  0  0  0  0
 14 15  2  0  0  0  0
 14 28  1  0  0  0  0
 15 16  1  0  0  0  0
 15 17  1  0  0  0  0
 17 18  1  0  0  0  0
 17 19  1  0  0  0  0
 19 20  1  0  0  0  0
 19 28  2  0  0  0  0
 20 21  1  0  0  0  0
 20 22  2  0  0  0  0
 22 23  1  0  0  0  0
 22 24  1  0  0  0  0
 24 25  1  0  0  0  0
 24 26  2  0  0  0  0
 26 27  1  0  0  0  0
 26 28  1  0  0  0  0
 29 30  2  0  0  0  0
 29 31  1  0  0  0  0
 31 32  1  0  0  0  0
 31 33  1  0  0  0  0
 33 34  1  0  0  0  0
 33 35  1  0  0  0  0
 33 36  1  0  0  0  0
M  END
$$$$

  -OEChem-01062216103D

 36 37  0     1  0  0  0  0  0999 V2000
   -3.4611   -2.7789    0.3719 H   0  0  0  0  0  0  0  0  0  0  0  0
   -3.4713   -1.9832   -0.3787 C   0  0  0  0  0  0  0  0  0  0  0  0
   -4.3221   -1.3266   -0.1822 H   0  0  0  0  0  0  0  0  0  0  0  0
   -3.5844   -2.4340   -1.3674 H   0  0  0  0  0  0  0  0  0  0  0  0
   -2.1791   -1.1907   -0.3147 C   0  0  0  0  0  0  0  0  0  0  0  0
   -1.3239   -1.5045    0.4939 O   0  0  0  0  0  0  0  0  0  0  0  0
   -1.9982   -0.1237   -1.1733 N   0  0  0  0  0  0  0  0  0  0  0  0
   -2.7843    0.1205   -1.7640 H   0  0  0  0  0  0  0  0  0  0  0  0
   -0.8246    0.7716   -1.1448 C   0  0  1  0  0  0  0  0  0  0  0  0
   -0.0294    0.3347   -0.5291 H   0  0  0  0  0  0  0  0  0  0  0  0
   -0.2664    0.9527   -2.5675 C   0  0  0  0  0  0  0  0  0  0  0  0
   -1.0625    1.2916   -3.2366 H   0  0  0  0  0  0  0  0  0  0  0  0
    0.5143    1.7207   -2.5666 H   0  0  0  0  0  0  0  0  0  0  0  0
    0.3152   -0.3305   -3.0995 C   0  0  0  0  0  0  0  0  0  0  0  0
   -0.3082   -1.2379   -3.9226 C   0  0  0  0  0  0  0  0  0  0  0  0
   -1.3189   -1.1499   -4.3123 H   0  0  0  0  0  0  0  0  0  0  0  0
    0.5881   -2.2773   -4.1611 N   0  0  0  0  0  0  0  0  0  0  0  0
    0.4010   -3.1022   -4.7268 H   0  0  0  0  0  0  0  0  0  0  0  0
    1.7784   -2.0506   -3.4889 C   0  0  0  0  0  0  0  0  0  0  0  0
    2.9564   -2.7934   -3.4085 C   0  0  0  0  0  0  0  0  0  0  0  0
    3.0473   -3.7343   -3.9393 H   0  0  0  0  0  0  0  0  0  0  0  0
    4.0171   -2.3095   -2.6295 C   0  0  0  0  0  0  0  0  0  0  0  0
    4.9395   -2.8779   -2.5553 H   0  0  0  0  0  0  0  0  0  0  0  0
    3.8863   -1.0942   -1.9398 C   0  0  0  0  0  0  0  0  0  0  0  0
    4.7059   -0.7247   -1.3310 H   0  0  0  0  0  0  0  0  0  0  0  0
    2.6971   -0.3568   -2.0273 C   0  0  0  0  0  0  0  0  0  0  0  0
    2.5892    0.5784   -1.4877 H   0  0  0  0  0  0  0  0  0  0  0  0
    1.6468   -0.8444   -2.8115 C   0  0  0  0  0  0  0  0  0  0  0  0
   -1.1691    2.1410   -0.5233 C   0  0  0  0  0  0  0  0  0  0  0  0
   -0.7941    2.4298    0.6033 O   0  0  0  0  0  0  0  0  0  0  0  0
   -1.9006    3.0757   -1.2388 N   0  0  0  0  0  0  0  0  0  0  0  0
   -2.1525    2.8465   -2.1942 H   0  0  0  0  0  0  0  0  0  0  0  0
   -2.2199    4.4024   -0.7247 C   0  0  0  0  0  0  0  0  0  0  0  0
   -1.3027    4.9621   -0.5136 H   0  0  0  0  0  0  0  0  0  0  0  0
   -2.8053    4.9627   -1.4600 H   0  0  0  0  0  0  0  0  0  0  0  0
   -2.8062    4.3256    0.1972 H   0  0  0  0  0  0  0  0  0  0  0  0
  1  2  1  0  0  0  0
  2  3  1  0  0  0  0
  2  4  1  0  0  0  0
  2  5  1  0  0  0  0
  5  6  2  0  0  0  0
  5  7  1  0  0  0  0
  7  8  1  0  0  0  0
  7  9  1  0  0  0  0
  9 10  1  0  0  0  0
  9 11  1  0  0  0  0
  9 29  1  0  0  0  0
 11 12  1  0  0  0  0
 11 13  1  0  0  0  0
 11 14  1  0  0  0  0
 14 15  2  0  0  0  0
 14 28  1  0  0  0  0
 15 16  1  0  0  0  0
 15 17  1  0  0  0  0
 17 18  1  0  0  0  0
 17 19  1  0  0  0  0
 19 20  1  0  0  0  0
 19 28  2  0  0  0  0
 20 21  1  0  0  0  0
 20 22  2  0  0  0  0
 22 23  1  0  0  0  0
 22 24  1  0  0  0  0
 24 25  1  0  0  0  0
 24 26  2  0  0  0  0
 26 27  1  0  0  0  0
 26 28  1  0  0  0  0
 29 30  2  0  0  0  0
 29 31  1  0  0  0  0
 31 32  1  0  0  0  0
 31 33  1  0  0  0  0
 33 34  1  0  0  0  0
 33 35  1  0  0  0  0
 33 36  1  0  0  0  0
M  END
$$$$

  -OEChem-01062216103D

 36 37  0     1  0  0  0  0  0999 V2000
   -3.2529   -2.9407    0.2440 H   0  0  0  0  0  0  0  0  0  0  0  0
   -3.2750   -2.1617   -0.5234 C   0  0  0  0  0  0  0  0  0  0  0  0
   -4.2558   -1.6806   -0.5078 H   0  0  0  0  0  0  0  0  0  0  0  0
   -3.1171   -2.6269   -1.4991 H   0  0  0  0  0  0  0  0  0  0  0  0
   -2.1893   -1.1366   -0.2555 C   0  0  0  0  0  0  0  0  0  0  0  0
   -1.4882   -1.2469    0.7342 O   0  0  0  0  0  0  0  0  0  0  0  0
   -2.0242   -0.0811   -1.1303 N   0  0  0  0  0  0  0  0  0  0  0  0
   -2.5681   -0.1294   -1.9833 H   0  0  0  0  0  0  0  0  0  0  0  0
   -0.8442    0.8056   -1.1121 C   0  0  1  0  0  0  0  0  0  0  0  0
   -0.0459    0.3579   -0.5079 H   0  0  0  0  0  0  0  0  0  0  0  0
   -0.3077    0.9893   -2.5413 C   0  0  0  0  0  0  0  0  0  0  0  0
   -1.1103    1.3436   -3.1950 H   0  0  0  0  0  0  0  0  0  0  0  0
    0.4808    1.7496   -2.5481 H   0  0  0  0  0  0  0  0  0  0  0  0
    0.2532   -0.2997   -3.0825 C   0  0  0  0  0  0  0  0  0  0  0  0
   -0.3843   -1.2054   -3.8977 C   0  0  0  0  0  0  0  0  0  0  0  0
   -1.3913   -1.1061   -4.2940 H   0  0  0  0  0  0  0  0  0  0  0  0
    0.4968   -2.2599   -4.1269 N   0  0  0  0  0  0  0  0  0  0  0  0
    0.3054   -3.0789   -4.7002 H   0  0  0  0  0  0  0  0  0  0  0  0
    1.6907   -2.0452   -3.4568 C   0  0  0  0  0  0  0  0  0  0  0  0
    2.8590   -2.8026   -3.3697 C   0  0  0  0  0  0  0  0  0  0  0  0
    2.9389   -3.7479   -3.8943 H   0  0  0  0  0  0  0  0  0  0  0  0
    3.9253   -2.3276   -2.5927 C   0  0  0  0  0  0  0  0  0  0  0  0
    4.8403   -2.9069   -2.5134 H   0  0  0  0  0  0  0  0  0  0  0  0
    3.8103   -1.1056   -1.9123 C   0  0  0  0  0  0  0  0  0  0  0  0
    4.6343   -0.7416   -1.3060 H   0  0  0  0  0  0  0  0  0  0  0  0
    2.6320   -0.3521   -2.0079 C   0  0  0  0  0  0  0  0  0  0  0  0
    2.5370    0.5902   -1.4775 H   0  0  0  0  0  0  0  0  0  0  0  0
    1.5761   -0.8318   -2.7895 C   0  0  0  0  0  0  0  0  0  0  0  0
   -1.1543    2.1857   -0.4982 C   0  0  0  0  0  0  0  0  0  0  0  0
   -0.4413    2.6458    0.3822 O   0  0  0  0  0  0  0  0  0  0  0  0
   -2.1193    3.0032   -1.0636 N   0  0  0  0  0  0  0  0  0  0  0  0
   -2.7187    2.5949   -1.7719 H   0  0  0  0  0  0  0  0  0  0  0  0
   -2.4146    4.3449   -0.5751 C   0  0  0  0  0  0  0  0  0  0  0  0
   -1.5354    4.9903   -0.6739 H   0  0  0  0  0  0  0  0  0  0  0  0
   -3.2331    4.7865   -1.1514 H   0  0  0  0  0  0  0  0  0  0  0  0
   -2.7117    4.3125    0.4785 H   0  0  0  0  0  0  0  0  0  0  0  0
  1  2  1  0  0  0  0
  2  3  1  0  0  0  0
  2  4  1  0  0  0  0
  2  5  1  0  0  0  0
  5  6  2  0  0  0  0
  5  7  1  0  0  0  0
  7  8  1  0  0  0  0
  7  9  1  0  0  0  0
  9 10  1  0  0  0  0
  9 11  1  0  0  0  0
  9 29  1  0  0  0  0
 11 12  1  0  0  0  0
 11 13  1  0  0  0  0
 11 14  1  0  0  0  0
 14 15  2  0  0  0  0
 14 28  1  0  0  0  0
 15 16  1  0  0  0  0
 15 17  1  0  0  0  0
 17 18  1  0  0  0  0
 17 19  1  0  0  0  0
 19 20  1  0  0  0  0
 19 28  2  0  0  0  0
 20 21  1  0  0  0  0
 20 22  2  0  0  0  0
 22 23  1  0  0  0  0
 22 24  1  0  0  0  0
 24 25  1  0  0  0  0
 24 26  2  0  0  0  0
 26 27  1  0  0  0  0
 26 28  1  0  0  0  0
 29 30  2  0  0  0  0
 29 31  1  0  0  0  0
 31 32  1  0  0  0  0
 31 33  1  0  0  0  0
 33 34  1  0  0  0  0
 33 35  1  0  0  0  0
 33 36  1  0  0  0  0
M  END
$$$$

  -OEChem-01062216103D

 36 37  0     1  0  0  0  0  0999 V2000
   -3.2009   -2.9745    0.2289 H   0  0  0  0  0  0  0  0  0  0  0  0
   -3.2095   -2.2160   -0.5592 C   0  0  0  0  0  0  0  0  0  0  0  0
   -4.2125   -1.7882   -0.6252 H   0  0  0  0  0  0  0  0  0  0  0  0
   -2.9587   -2.6944   -1.5090 H   0  0  0  0  0  0  0  0  0  0  0  0
   -2.2007   -1.1278   -0.2445 C   0  0  0  0  0  0  0  0  0  0  0  0
   -1.5623   -1.1762    0.7918 O   0  0  0  0  0  0  0  0  0  0  0  0
   -2.0397   -0.0767   -1.1250 N   0  0  0  0  0  0  0  0  0  0  0  0
   -2.5059   -0.1919   -2.0171 H   0  0  0  0  0  0  0  0  0  0  0  0
   -0.8569    0.8064   -1.0945 C   0  0  1  0  0  0  0  0  0  0  0  0
   -0.0619    0.3539   -0.4900 H   0  0  0  0  0  0  0  0  0  0  0  0
   -0.3199    0.9996   -2.5220 C   0  0  0  0  0  0  0  0  0  0  0  0
   -1.1210    1.3653   -3.1715 H   0  0  0  0  0  0  0  0  0  0  0  0
    0.4720    1.7563   -2.5228 H   0  0  0  0  0  0  0  0  0  0  0  0
    0.2365   -0.2873   -3.0735 C   0  0  0  0  0  0  0  0  0  0  0  0
   -0.4030   -1.1848   -3.8961 C   0  0  0  0  0  0  0  0  0  0  0  0
   -1.4076   -1.0776   -4.2963 H   0  0  0  0  0  0  0  0  0  0  0  0
    0.4735   -2.2424   -4.1288 N   0  0  0  0  0  0  0  0  0  0  0  0
    0.2832   -3.0527   -4.7150 H   0  0  0  0  0  0  0  0  0  0  0  0
    1.6670   -2.0368   -3.4549 C   0  0  0  0  0  0  0  0  0  0  0  0
    2.8326   -2.7990   -3.3717 C   0  0  0  0  0  0  0  0  0  0  0  0
    2.9094   -3.7408   -3.9034 H   0  0  0  0  0  0  0  0  0  0  0  0
    3.8998   -2.3324   -2.5905 C   0  0  0  0  0  0  0  0  0  0  0  0
    4.8126   -2.9158   -2.5143 H   0  0  0  0  0  0  0  0  0  0  0  0
    3.7887   -1.1137   -1.9031 C   0  0  0  0  0  0  0  0  0  0  0  0
    4.6135   -0.7556   -1.2944 H   0  0  0  0  0  0  0  0  0  0  0  0
    2.6132   -0.3552   -1.9958 C   0  0  0  0  0  0  0  0  0  0  0  0
    2.5218    0.5856   -1.4617 H   0  0  0  0  0  0  0  0  0  0  0  0
    1.5563   -0.8271   -2.7808 C   0  0  0  0  0  0  0  0  0  0  0  0
   -1.1573    2.1891   -0.4846 C   0  0  0  0  0  0  0  0  0  0  0  0
   -0.2959    2.7762    0.1555 O   0  0  0  0  0  0  0  0  0  0  0  0
   -2.3003    2.8790   -0.8509 N   0  0  0  0  0  0  0  0  0  0  0  0
   -3.0294    2.3416   -1.3069 H   0  0  0  0  0  0  0  0  0  0  0  0
   -2.6108    4.2171   -0.3621 C   0  0  0  0  0  0  0  0  0  0  0  0
   -1.8213    4.9210   -0.6460 H   0  0  0  0  0  0  0  0  0  0  0  0
   -3.5541    4.5682   -0.7910 H   0  0  0  0  0  0  0  0  0  0  0  0
   -2.7042    4.2145    0.7290 H   0  0  0  0  0  0  0  0  0  0  0  0
  1  2  1  0  0  0  0
  2  3  1  0  0  0  0
  2  4  1  0  0  0  0
  2  5  1  0  0  0  0
  5  6  2  0  0  0  0
  5  7  1  0  0  0  0
  7  8  1  0  0  0  0
  7  9  1  0  0  0  0
  9 10  1  0  0  0  0
  9 11  1  0  0  0  0
  9 29  1  0  0  0  0
 11 12  1  0  0  0  0
 11 13  1  0  0  0  0
 11 14  1  0  0  0  0
 14 15  2  0  0  0  0
 14 28  1  0  0  0  0
 15 16  1  0  0  0  0
 15 17  1  0  0  0  0
 17 18  1  0  0  0  0
 17 19  1  0  0  0  0
 19 20  1  0  0  0  0
 19 28  2  0  0  0  0
 20 21  1  0  0  0  0
 20 22  2  0  0  0  0
 22 23  1  0  0  0  0
 22 24  1  0  0  0  0
 24 25  1  0  0  0  0
 24 26  2  0  0  0  0
 26 27  1  0  0  0  0
 26 28  1  0  0  0  0
 29 30  2  0  0  0  0
 29 31  1  0  0  0  0
 31 32  1  0  0  0  0
 31 33  1  0  0  0  0
 33 34  1  0  0  0  0
 33 35  1  0  0  0  0
 33 36  1  0  0  0  0
M  END
$$$$

  -OEChem-01062216103D

 36 37  0     1  0  0  0  0  0999 V2000
   -3.1757   -2.9723    0.2220 H   0  0  0  0  0  0  0  0  0  0  0  0
   -3.1715   -2.2280   -0.5797 C   0  0  0  0  0  0  0  0  0  0  0  0
   -4.1807   -1.8238   -0.6896 H   0  0  0  0  0  0  0  0  0  0  0  0
   -2.8761   -2.7179   -1.5107 H   0  0  0  0  0  0  0  0  0  0  0  0
   -2.1970   -1.1132   -0.2499 C   0  0  0  0  0  0  0  0  0  0  0  0
   -1.5914   -1.1301    0.8069 O   0  0  0  0  0  0  0  0  0  0  0  0
   -2.0362   -0.0648   -1.1332 N   0  0  0  0  0  0  0  0  0  0  0  0
   -2.4787   -0.1955   -2.0357 H   0  0  0  0  0  0  0  0  0  0  0  0
   -0.8520    0.8177   -1.0954 C   0  0  1  0  0  0  0  0  0  0  0  0
   -0.0582    0.3665   -0.4884 H   0  0  0  0  0  0  0  0  0  0  0  0
   -0.3156    1.0113   -2.5233 C   0  0  0  0  0  0  0  0  0  0  0  0
   -1.1180    1.3794   -3.1703 H   0  0  0  0  0  0  0  0  0  0  0  0
    0.4788    1.7657   -2.5264 H   0  0  0  0  0  0  0  0  0  0  0  0
    0.2376   -0.2770   -3.0751 C   0  0  0  0  0  0  0  0  0  0  0  0
   -0.4079   -1.1703   -3.8974 C   0  0  0  0  0  0  0  0  0  0  0  0
   -1.4110   -1.0537   -4.2995 H   0  0  0  0  0  0  0  0  0  0  0  0
    0.4599   -2.2359   -4.1270 N   0  0  0  0  0  0  0  0  0  0  0  0
    0.2651   -3.0438   -4.7151 H   0  0  0  0  0  0  0  0  0  0  0  0
    1.6540   -2.0393   -3.4513 C   0  0  0  0  0  0  0  0  0  0  0  0
    2.8129   -2.8113   -3.3645 C   0  0  0  0  0  0  0  0  0  0  0  0
    2.8834   -3.7556   -3.8924 H   0  0  0  0  0  0  0  0  0  0  0  0
    3.8831   -2.3512   -2.5840 C   0  0  0  0  0  0  0  0  0  0  0  0
    4.7911   -2.9416   -2.5056 H   0  0  0  0  0  0  0  0  0  0  0  0
    3.7818   -1.1293   -1.9004 C   0  0  0  0  0  0  0  0  0  0  0  0
    4.6101   -0.7767   -1.2929 H   0  0  0  0  0  0  0  0  0  0  0  0
    2.6127   -0.3610   -1.9959 C   0  0  0  0  0  0  0  0  0  0  0  0
    2.5282    0.5833   -1.4664 H   0  0  0  0  0  0  0  0  0  0  0  0
    1.5526   -0.8269   -2.7800 C   0  0  0  0  0  0  0  0  0  0  0  0
   -1.1562    2.2008   -0.4876 C   0  0  0  0  0  0  0  0  0  0  0  0
   -0.2437    2.8988   -0.0661 O   0  0  0  0  0  0  0  0  0  0  0  0
   -2.4195    2.7520   -0.6107 N   0  0  0  0  0  0  0  0  0  0  0  0
   -3.1642    2.1074   -0.8550 H   0  0  0  0  0  0  0  0  0  0  0  0
   -2.7710    4.0572   -0.0652 C   0  0  0  0  0  0  0  0  0  0  0  0
   -2.1487    4.8400   -0.5116 H   0  0  0  0  0  0  0  0  0  0  0  0
   -3.8188    4.2871   -0.2802 H   0  0  0  0  0  0  0  0  0  0  0  0
   -2.6278    4.0693    1.0204 H   0  0  0  0  0  0  0  0  0  0  0  0
  1  2  1  0  0  0  0
  2  3  1  0  0  0  0
  2  4  1  0  0  0  0
  2  5  1  0  0  0  0
  5  6  2  0  0  0  0
  5  7  1  0  0  0  0
  7  8  1  0  0  0  0
  7  9  1  0  0  0  0
  9 10  1  0  0  0  0
  9 11  1  0  0  0  0
  9 29  1  0  0  0  0
 11 12  1  0  0  0  0
 11 13  1  0  0  0  0
 11 14  1  0  0  0  0
 14 15  2  0  0  0  0
 14 28  1  0  0  0  0
 15 16  1  0  0  0  0
 15 17  1  0  0  0  0
 17 18  1  0  0  0  0
 17 19  1  0  0  0  0
 19 20  1  0  0  0  0
 19 28  2  0  0  0  0
 20 21  1  0  0  0  0
 20 22  2  0  0  0  0
 22 23  1  0  0  0  0
 22 24  1  0  0  0  0
 24 25  1  0  0  0  0
 24 26  2  0  0  0  0
 26 27  1  0  0  0  0
 26 28  1  0  0  0  0
 29 30  2  0  0  0  0
 29 31  1  0  0  0  0
 31 32  1  0  0  0  0
 31 33  1  0  0  0  0
 33 34  1  0  0  0  0
 33 35  1  0  0  0  0
 33 36  1  0  0  0  0
M  END
$$$$

  -OEChem-01062216103D

 36 37  0     1  0  0  0  0  0999 V2000
   -3.1504   -2.9797    0.1989 H   0  0  0  0  0  0  0  0  0  0  0  0
   -3.1433   -2.2390   -0.6058 C   0  0  0  0  0  0  0  0  0  0  0  0
   -4.1562   -1.8503   -0.7348 H   0  0  0  0  0  0  0  0  0  0  0  0
   -2.8245   -2.7284   -1.5292 H   0  0  0  0  0  0  0  0  0  0  0  0
   -2.1913   -1.1084   -0.2654 C   0  0  0  0  0  0  0  0  0  0  0  0
   -1.6042   -1.1074    0.8020 O   0  0  0  0  0  0  0  0  0  0  0  0
   -2.0359   -0.0573   -1.1461 N   0  0  0  0  0  0  0  0  0  0  0  0
   -2.4710   -0.1907   -2.0522 H   0  0  0  0  0  0  0  0  0  0  0  0
   -0.8533    0.8282   -1.1045 C   0  0  1  0  0  0  0  0  0  0  0  0
   -0.0582    0.3778   -0.4992 H   0  0  0  0  0  0  0  0  0  0  0  0
   -0.3221    1.0166   -2.5366 C   0  0  0  0  0  0  0  0  0  0  0  0
   -1.1277    1.3817   -3.1814 H   0  0  0  0  0  0  0  0  0  0  0  0
    0.4718    1.7710   -2.5496 H   0  0  0  0  0  0  0  0  0  0  0  0
    0.2303   -0.2744   -3.0840 C   0  0  0  0  0  0  0  0  0  0  0  0
   -0.4165   -1.1732   -3.8995 C   0  0  0  0  0  0  0  0  0  0  0  0
   -1.4188   -1.0575   -4.3033 H   0  0  0  0  0  0  0  0  0  0  0  0
    0.4489   -2.2427   -4.1190 N   0  0  0  0  0  0  0  0  0  0  0  0
    0.2534   -3.0543   -4.7015 H   0  0  0  0  0  0  0  0  0  0  0  0
    1.6423   -2.0437   -3.4430 C   0  0  0  0  0  0  0  0  0  0  0  0
    2.7987   -2.8184   -3.3469 C   0  0  0  0  0  0  0  0  0  0  0  0
    2.8670   -3.7676   -3.8665 H   0  0  0  0  0  0  0  0  0  0  0  0
    3.8687   -2.3546   -2.5680 C   0  0  0  0  0  0  0  0  0  0  0  0
    4.7745   -2.9473   -2.4825 H   0  0  0  0  0  0  0  0  0  0  0  0
    3.7702   -1.1262   -1.8961 C   0  0  0  0  0  0  0  0  0  0  0  0
    4.5984   -0.7704   -1.2907 H   0  0  0  0  0  0  0  0  0  0  0  0
    2.6039   -0.3550   -2.0013 C   0  0  0  0  0  0  0  0  0  0  0  0
    2.5219    0.5953   -1.4823 H   0  0  0  0  0  0  0  0  0  0  0  0
    1.5434   -0.8251   -2.7826 C   0  0  0  0  0  0  0  0  0  0  0  0
   -1.1584    2.2105   -0.4911 C   0  0  0  0  0  0  0  0  0  0  0  0
   -0.2495    3.0012   -0.2733 O   0  0  0  0  0  0  0  0  0  0  0  0
   -2.4665    2.6321   -0.3327 N   0  0  0  0  0  0  0  0  0  0  0  0
   -3.1737    1.9061   -0.3946 H   0  0  0  0  0  0  0  0  0  0  0  0
   -2.8201    3.9067    0.2792 C   0  0  0  0  0  0  0  0  0  0  0  0
   -2.3856    4.7372   -0.2870 H   0  0  0  0  0  0  0  0  0  0  0  0
   -3.9070    4.0314    0.2923 H   0  0  0  0  0  0  0  0  0  0  0  0
   -2.4524    3.9516    1.3097 H   0  0  0  0  0  0  0  0  0  0  0  0
  1  2  1  0  0  0  0
  2  3  1  0  0  0  0
  2  4  1  0  0  0  0
  2  5  1  0  0  0  0
  5  6  2  0  0  0  0
  5  7  1  0  0  0  0
  7  8  1  0  0  0  0
  7  9  1  0  0  0  0
  9 10  1  0  0  0  0
  9 11  1  0  0  0  0
  9 29  1  0  0  0  0
 11 12  1  0  0  0  0
 11 13  1  0  0  0  0
 11 14  1  0  0  0  0
 14 15  2  0  0  0  0
 14 28  1  0  0  0  0
 15 16  1  0  0  0  0
 15 17  1  0  0  0  0
 17 18  1  0  0  0  0
 17 19  1  0  0  0  0
 19 20  1  0  0  0  0
 19 28  2  0  0  0  0
 20 21  1  0  0  0  0
 20 22  2  0  0  0  0
 22 23  1  0  0  0  0
 22 24  1  0  0  0  0
 24 25  1  0  0  0  0
 24 26  2  0  0  0  0
 26 27  1  0  0  0  0
 26 28  1  0  0  0  0
 29 30  2  0  0  0  0
 29 31  1  0  0  0  0
 31 32  1  0  0  0  0
 31 33  1  0  0  0  0
 33 34  1  0  0  0  0
 33 35  1  0  0  0  0
 33 36  1  0  0  0  0
M  END
$$$$

  -OEChem-01062216103D

 36 37  0     1  0  0  0  0  0999 V2000
   -3.1494   -2.9785    0.1708 H   0  0  0  0  0  0  0  0  0  0  0  0
   -3.1375   -2.2365   -0.6327 C   0  0  0  0  0  0  0  0  0  0  0  0
   -4.1496   -1.8476   -0.7679 H   0  0  0  0  0  0  0  0  0  0  0  0
   -2.8127   -2.7241   -1.5551 H   0  0  0  0  0  0  0  0  0  0  0  0
   -2.1873   -1.1067   -0.2842 C   0  0  0  0  0  0  0  0  0  0  0  0
   -1.6079   -1.1050    0.7876 O   0  0  0  0  0  0  0  0  0  0  0  0
   -2.0327   -0.0485   -1.1556 N   0  0  0  0  0  0  0  0  0  0  0  0
   -2.4819   -0.1628   -2.0575 H   0  0  0  0  0  0  0  0  0  0  0  0
   -0.8519    0.8398   -1.1110 C   0  0  1  0  0  0  0  0  0  0  0  0
   -0.0565    0.3891   -0.5061 H   0  0  0  0  0  0  0  0  0  0  0  0
   -0.3245    1.0218   -2.5471 C   0  0  0  0  0  0  0  0  0  0  0  0
   -1.1325    1.3827   -3.1914 H   0  0  0  0  0  0  0  0  0  0  0  0
    0.4704    1.7749   -2.5696 H   0  0  0  0  0  0  0  0  0  0  0  0
    0.2276   -0.2727   -3.0877 C   0  0  0  0  0  0  0  0  0  0  0  0
   -0.4211   -1.1768   -3.8957 C   0  0  0  0  0  0  0  0  0  0  0  0
   -1.4243   -1.0632   -4.2981 H   0  0  0  0  0  0  0  0  0  0  0  0
    0.4424   -2.2497   -4.1069 N   0  0  0  0  0  0  0  0  0  0  0  0
    0.2449   -3.0650   -4.6835 H   0  0  0  0  0  0  0  0  0  0  0  0
    1.6367   -2.0472   -3.4335 C   0  0  0  0  0  0  0  0  0  0  0  0
    2.7911   -2.8238   -3.3300 C   0  0  0  0  0  0  0  0  0  0  0  0
    2.8570   -3.7788   -3.8391 H   0  0  0  0  0  0  0  0  0  0  0  0
    3.8628   -2.3546   -2.5566 C   0  0  0  0  0  0  0  0  0  0  0  0
    4.7671   -2.9488   -2.4646 H   0  0  0  0  0  0  0  0  0  0  0  0
    3.7685   -1.1182   -1.8990 C   0  0  0  0  0  0  0  0  0  0  0  0
    4.5987   -0.7572   -1.2994 H   0  0  0  0  0  0  0  0  0  0  0  0
    2.6038   -0.3456   -2.0113 C   0  0  0  0  0  0  0  0  0  0  0  0
    2.5251    0.6110   -1.5037 H   0  0  0  0  0  0  0  0  0  0  0  0
    1.5409   -0.8222   -2.7849 C   0  0  0  0  0  0  0  0  0  0  0  0
   -1.1627    2.2179   -0.4862 C   0  0  0  0  0  0  0  0  0  0  0  0
   -0.3125    3.0989   -0.4676 O   0  0  0  0  0  0  0  0  0  0  0  0
   -2.4383    2.5102   -0.0382 N   0  0  0  0  0  0  0  0  0  0  0  0
   -3.0592    1.7127    0.0651 H   0  0  0  0  0  0  0  0  0  0  0  0
   -2.7808    3.7590    0.6304 C   0  0  0  0  0  0  0  0  0  0  0  0
   -2.5606    4.6142   -0.0170 H   0  0  0  0  0  0  0  0  0  0  0  0
   -3.8476    3.7771    0.8724 H   0  0  0  0  0  0  0  0  0  0  0  0
   -2.2113    3.8647    1.5596 H   0  0  0  0  0  0  0  0  0  0  0  0
  1  2  1  0  0  0  0
  2  3  1  0  0  0  0
  2  4  1  0  0  0  0
  2  5  1  0  0  0  0
  5  6  2  0  0  0  0
  5  7  1  0  0  0  0
  7  8  1  0  0  0  0
  7  9  1  0  0  0  0
  9 10  1  0  0  0  0
  9 11  1  0  0  0  0
  9 29  1  0  0  0  0
 11 12  1  0  0  0  0
 11 13  1  0  0  0  0
 11 14  1  0  0  0  0
 14 15  2  0  0  0  0
 14 28  1  0  0  0  0
 15 16  1  0  0  0  0
 15 17  1  0  0  0  0
 17 18  1  0  0  0  0
 17 19  1  0  0  0  0
 19 20  1  0  0  0  0
 19 28  2  0  0  0  0
 20 21  1  0  0  0  0
 20 22  2  0  0  0  0
 22 23  1  0  0  0  0
 22 24  1  0  0  0  0
 24 25  1  0  0  0  0
 24 26  2  0  0  0  0
 26 27  1  0  0  0  0
 26 28  1  0  0  0  0
 29 30  2  0  0  0  0
 29 31  1  0  0  0  0
 31 32  1  0  0  0  0
 31 33  1  0  0  0  0
 33 34  1  0  0  0  0
 33 35  1  0  0  0  0
 33 36  1  0  0  0  0
M  END
$$$$

  -OEChem-01062216103D

 36 37  0     1  0  0  0  0  0999 V2000
   -3.1541   -2.9719    0.1437 H   0  0  0  0  0  0  0  0  0  0  0  0
   -3.1479   -2.2209   -0.6514 C   0  0  0  0  0  0  0  0  0  0  0  0
   -4.1605   -1.8292   -0.7735 H   0  0  0  0  0  0  0  0  0  0  0  0
   -2.8318   -2.6985   -1.5821 H   0  0  0  0  0  0  0  0  0  0  0  0
   -2.1934   -1.0962   -0.2980 C   0  0  0  0  0  0  0  0  0  0  0  0
   -1.6270   -1.0889    0.7810 O   0  0  0  0  0  0  0  0  0  0  0  0
   -2.0348   -0.0323   -1.1605 N   0  0  0  0  0  0  0  0  0  0  0  0
   -2.4956   -0.1286   -2.0587 H   0  0  0  0  0  0  0  0  0  0  0  0
   -0.8519    0.8522   -1.1138 C   0  0  1  0  0  0  0  0  0  0  0  0
   -0.0593    0.3988   -0.5078 H   0  0  0  0  0  0  0  0  0  0  0  0
   -0.3202    1.0238   -2.5505 C   0  0  0  0  0  0  0  0  0  0  0  0
   -1.1249    1.3851   -3.1985 H   0  0  0  0  0  0  0  0  0  0  0  0
    0.4788    1.7719   -2.5772 H   0  0  0  0  0  0  0  0  0  0  0  0
    0.2285   -0.2760   -3.0816 C   0  0  0  0  0  0  0  0  0  0  0  0
   -0.4222   -1.1824   -3.8851 C   0  0  0  0  0  0  0  0  0  0  0  0
   -1.4257   -1.0688   -4.2870 H   0  0  0  0  0  0  0  0  0  0  0  0
    0.4397   -2.2572   -4.0934 N   0  0  0  0  0  0  0  0  0  0  0  0
    0.2407   -3.0741   -4.6676 H   0  0  0  0  0  0  0  0  0  0  0  0
    1.6366   -2.0516   -3.4253 C   0  0  0  0  0  0  0  0  0  0  0  0
    2.7926   -2.8262   -3.3249 C   0  0  0  0  0  0  0  0  0  0  0  0
    2.8574   -3.7825   -3.8319 H   0  0  0  0  0  0  0  0  0  0  0  0
    3.8676   -2.3532   -2.5587 C   0  0  0  0  0  0  0  0  0  0  0  0
    4.7732   -2.9458   -2.4699 H   0  0  0  0  0  0  0  0  0  0  0  0
    3.7750   -1.1150   -1.9045 C   0  0  0  0  0  0  0  0  0  0  0  0
    4.6079   -0.7508   -1.3106 H   0  0  0  0  0  0  0  0  0  0  0  0
    2.6089   -0.3443   -2.0136 C   0  0  0  0  0  0  0  0  0  0  0  0
    2.5318    0.6144   -1.5099 H   0  0  0  0  0  0  0  0  0  0  0  0
    1.5427   -0.8245   -2.7805 C   0  0  0  0  0  0  0  0  0  0  0  0
   -1.1688    2.2248   -0.4762 C   0  0  0  0  0  0  0  0  0  0  0  0
   -0.4339    3.1889   -0.6512 O   0  0  0  0  0  0  0  0  0  0  0  0
   -2.3353    2.3982    0.2461 N   0  0  0  0  0  0  0  0  0  0  0  0
   -2.8193    1.5418    0.5045 H   0  0  0  0  0  0  0  0  0  0  0  0
   -2.6578    3.6291    0.9562 C   0  0  0  0  0  0  0  0  0  0  0  0
   -2.6819    4.4768    0.2632 H   0  0  0  0  0  0  0  0  0  0  0  0
   -3.6403    3.5450    1.4305 H   0  0  0  0  0  0  0  0  0  0  0  0
   -1.9123    3.8295    1.7328 H   0  0  0  0  0  0  0  0  0  0  0  0
  1  2  1  0  0  0  0
  2  3  1  0  0  0  0
  2  4  1  0  0  0  0
  2  5  1  0  0  0  0
  5  6  2  0  0  0  0
  5  7  1  0  0  0  0
  7  8  1  0  0  0  0
  7  9  1  0  0  0  0
  9 10  1  0  0  0  0
  9 11  1  0  0  0  0
  9 29  1  0  0  0  0
 11 12  1  0  0  0  0
 11 13  1  0  0  0  0
 11 14  1  0  0  0  0
 14 15  2  0  0  0  0
 14 28  1  0  0  0  0
 15 16  1  0  0  0  0
 15 17  1  0  0  0  0
 17 18  1  0  0  0  0
 17 19  1  0  0  0  0
 19 20  1  0  0  0  0
 19 28  2  0  0  0  0
 20 21  1  0  0  0  0
 20 22  2  0  0  0  0
 22 23  1  0  0  0  0
 22 24  1  0  0  0  0
 24 25  1  0  0  0  0
 24 26  2  0  0  0  0
 26 27  1  0  0  0  0
 26 28  1  0  0  0  0
 29 30  2  0  0  0  0
 29 31  1  0  0  0  0
 31 32  1  0  0  0  0
 31 33  1  0  0  0  0
 33 34  1  0  0  0  0
 33 35  1  0  0  0  0
 33 36  1  0  0  0  0
M  END
$$$$

  -OEChem-01062216103D

 36 37  0     1  0  0  0  0  0999 V2000
   -3.1282   -2.9544    0.1441 H   0  0  0  0  0  0  0  0  0  0  0  0
   -3.1250   -2.2068   -0.6545 C   0  0  0  0  0  0  0  0  0  0  0  0
   -4.1401   -1.8229   -0.7826 H   0  0  0  0  0  0  0  0  0  0  0  0
   -2.8018   -2.6858   -1.5820 H   0  0  0  0  0  0  0  0  0  0  0  0
   -2.1809   -1.0733   -0.3021 C   0  0  0  0  0  0  0  0  0  0  0  0
   -1.6285   -1.0470    0.7849 O   0  0  0  0  0  0  0  0  0  0  0  0
   -2.0289   -0.0072   -1.1620 N   0  0  0  0  0  0  0  0  0  0  0  0
   -2.4968   -0.0984   -2.0571 H   0  0  0  0  0  0  0  0  0  0  0  0
   -0.8433    0.8726   -1.1209 C   0  0  1  0  0  0  0  0  0  0  0  0
   -0.0497    0.4185   -0.5173 H   0  0  0  0  0  0  0  0  0  0  0  0
   -0.3106    1.0410   -2.5578 C   0  0  0  0  0  0  0  0  0  0  0  0
   -1.1130    1.4049   -3.2071 H   0  0  0  0  0  0  0  0  0  0  0  0
    0.4927    1.7847   -2.5839 H   0  0  0  0  0  0  0  0  0  0  0  0
    0.2328   -0.2628   -3.0842 C   0  0  0  0  0  0  0  0  0  0  0  0
   -0.4247   -1.1661   -3.8856 C   0  0  0  0  0  0  0  0  0  0  0  0
   -1.4268   -1.0449   -4.2888 H   0  0  0  0  0  0  0  0  0  0  0  0
    0.4282   -2.2487   -4.0891 N   0  0  0  0  0  0  0  0  0  0  0  0
    0.2230   -3.0655   -4.6611 H   0  0  0  0  0  0  0  0  0  0  0  0
    1.6258   -2.0512   -3.4199 C   0  0  0  0  0  0  0  0  0  0  0  0
    2.7744   -2.8361   -3.3158 C   0  0  0  0  0  0  0  0  0  0  0  0
    2.8309   -3.7937   -3.8209 H   0  0  0  0  0  0  0  0  0  0  0  0
    3.8523   -2.3714   -2.5487 C   0  0  0  0  0  0  0  0  0  0  0  0
    4.7522   -2.9722   -2.4571 H   0  0  0  0  0  0  0  0  0  0  0  0
    3.7703   -1.1305   -1.8982 C   0  0  0  0  0  0  0  0  0  0  0  0
    4.6057   -0.7730   -1.3038 H   0  0  0  0  0  0  0  0  0  0  0  0
    2.6121   -0.3487   -2.0123 C   0  0  0  0  0  0  0  0  0  0  0  0
    2.5441    0.6123   -1.5121 H   0  0  0  0  0  0  0  0  0  0  0  0
    1.5422   -0.8211   -2.7790 C   0  0  0  0  0  0  0  0  0  0  0  0
   -1.1726    2.2361   -0.4702 C   0  0  0  0  0  0  0  0  0  0  0  0
   -0.6220    3.2710   -0.8262 O   0  0  0  0  0  0  0  0  0  0  0  0
   -2.1570    2.3018    0.4984 N   0  0  0  0  0  0  0  0  0  0  0  0
   -2.4672    1.4043    0.8674 H   0  0  0  0  0  0  0  0  0  0  0  0
   -2.4727    3.5158    1.2396 C   0  0  0  0  0  0  0  0  0  0  0  0
   -2.7674    4.3176    0.5546 H   0  0  0  0  0  0  0  0  0  0  0  0
   -3.3014    3.3317    1.9298 H   0  0  0  0  0  0  0  0  0  0  0  0
   -1.6047    3.8475    1.8189 H   0  0  0  0  0  0  0  0  0  0  0  0
  1  2  1  0  0  0  0
  2  3  1  0  0  0  0
  2  4  1  0  0  0  0
  2  5  1  0  0  0  0
  5  6  2  0  0  0  0
  5  7  1  0  0  0  0
  7  8  1  0  0  0  0
  7  9  1  0  0  0  0
  9 10  1  0  0  0  0
  9 11  1  0  0  0  0
  9 29  1  0  0  0  0
 11 12  1  0  0  0  0
 11 13  1  0  0  0  0
 11 14  1  0  0  0  0
 14 15  2  0  0  0  0
 14 28  1  0  0  0  0
 15 16  1  0  0  0  0
 15 17  1  0  0  0  0
 17 18  1  0  0  0  0
 17 19  1  0  0  0  0
 19 20  1  0  0  0  0
 19 28  2  0  0  0  0
 20 21  1  0  0  0  0
 20 22  2  0  0  0  0
 22 23  1  0  0  0  0
 22 24  1  0  0  0  0
 24 25  1  0  0  0  0
 24 26  2  0  0  0  0
 26 27  1  0  0  0  0
 26 28  1  0  0  0  0
 29 30  2  0  0  0  0
 29 31  1  0  0  0  0
 31 32  1  0  0  0  0
 31 33  1  0  0  0  0
 33 34  1  0  0  0  0
 33 35  1  0  0  0  0
 33 36  1  0  0  0  0
M  END
$$$$

  -OEChem-01062216103D

 36 37  0     1  0  0  0  0  0999 V2000
   -3.1315   -2.9244    0.1718 H   0  0  0  0  0  0  0  0  0  0  0  0
   -3.1374   -2.1741   -0.6237 C   0  0  0  0  0  0  0  0  0  0  0  0
   -4.1511   -1.7799   -0.7284 H   0  0  0  0  0  0  0  0  0  0  0  0
   -2.8384   -2.6531   -1.5592 H   0  0  0  0  0  0  0  0  0  0  0  0
   -2.1752   -1.0514   -0.2871 C   0  0  0  0  0  0  0  0  0  0  0  0
   -1.6127   -1.0245    0.7957 O   0  0  0  0  0  0  0  0  0  0  0  0
   -2.0187    0.0104   -1.1511 N   0  0  0  0  0  0  0  0  0  0  0  0
   -2.5033   -0.0679   -2.0385 H   0  0  0  0  0  0  0  0  0  0  0  0
   -0.8273    0.8806   -1.1150 C   0  0  1  0  0  0  0  0  0  0  0  0
   -0.0339    0.4271   -0.5106 H   0  0  0  0  0  0  0  0  0  0  0  0
   -0.2885    1.0487   -2.5493 C   0  0  0  0  0  0  0  0  0  0  0  0
   -1.0862    1.4195   -3.2005 H   0  0  0  0  0  0  0  0  0  0  0  0
    0.5184    1.7889   -2.5679 H   0  0  0  0  0  0  0  0  0  0  0  0
    0.2485   -0.2563   -3.0785 C   0  0  0  0  0  0  0  0  0  0  0  0
   -0.4147   -1.1507   -3.8849 C   0  0  0  0  0  0  0  0  0  0  0  0
   -1.4167   -1.0199   -4.2861 H   0  0  0  0  0  0  0  0  0  0  0  0
    0.4316   -2.2371   -4.0955 N   0  0  0  0  0  0  0  0  0  0  0  0
    0.2211   -3.0484   -4.6731 H   0  0  0  0  0  0  0  0  0  0  0  0
    1.6309   -2.0502   -3.4265 C   0  0  0  0  0  0  0  0  0  0  0  0
    2.7754   -2.8417   -3.3296 C   0  0  0  0  0  0  0  0  0  0  0  0
    2.8252   -3.7969   -3.8403 H   0  0  0  0  0  0  0  0  0  0  0  0
    3.8577   -2.3870   -2.5624 C   0  0  0  0  0  0  0  0  0  0  0  0
    4.7549   -2.9927   -2.4771 H   0  0  0  0  0  0  0  0  0  0  0  0
    3.7834   -1.1502   -1.9035 C   0  0  0  0  0  0  0  0  0  0  0  0
    4.6227   -0.8007   -1.3100 H   0  0  0  0  0  0  0  0  0  0  0  0
    2.6284   -0.3624   -2.0090 C   0  0  0  0  0  0  0  0  0  0  0  0
    2.5667    0.5955   -1.5023 H   0  0  0  0  0  0  0  0  0  0  0  0
    1.5547   -0.8239   -2.7773 C   0  0  0  0  0  0  0  0  0  0  0  0
   -1.1694    2.2388   -0.4639 C   0  0  0  0  0  0  0  0  0  0  0  0
   -0.8362    3.3072   -0.9626 O   0  0  0  0  0  0  0  0  0  0  0  0
   -1.9172    2.2409    0.6984 N   0  0  0  0  0  0  0  0  0  0  0  0
   -2.0853    1.3275    1.1214 H   0  0  0  0  0  0  0  0  0  0  0  0
   -2.2437    3.4458    1.4489 C   0  0  0  0  0  0  0  0  0  0  0  0
   -2.8094    4.1456    0.8249 H   0  0  0  0  0  0  0  0  0  0  0  0
   -2.8530    3.1929    2.3218 H   0  0  0  0  0  0  0  0  0  0  0  0
   -1.3299    3.9400    1.7944 H   0  0  0  0  0  0  0  0  0  0  0  0
  1  2  1  0  0  0  0
  2  3  1  0  0  0  0
  2  4  1  0  0  0  0
  2  5  1  0  0  0  0
  5  6  2  0  0  0  0
  5  7  1  0  0  0  0
  7  8  1  0  0  0  0
  7  9  1  0  0  0  0
  9 10  1  0  0  0  0
  9 11  1  0  0  0  0
  9 29  1  0  0  0  0
 11 12  1  0  0  0  0
 11 13  1  0  0  0  0
 11 14  1  0  0  0  0
 14 15  2  0  0  0  0
 14 28  1  0  0  0  0
 15 16  1  0  0  0  0
 15 17  1  0  0  0  0
 17 18  1  0  0  0  0
 17 19  1  0  0  0  0
 19 20  1  0  0  0  0
 19 28  2  0  0  0  0
 20 21  1  0  0  0  0
 20 22  2  0  0  0  0
 22 23  1  0  0  0  0
 22 24  1  0  0  0  0
 24 25  1  0  0  0  0
 24 26  2  0  0  0  0
 26 27  1  0  0  0  0
 26 28  1  0  0  0  0
 29 30  2  0  0  0  0
 29 31  1  0  0  0  0
 31 32  1  0  0  0  0
 31 33  1  0  0  0  0
 33 34  1  0  0  0  0
 33 35  1  0  0  0  0
 33 36  1  0  0  0  0
M  END
$$$$

  -OEChem-01062216103D

 36 37  0     1  0  0  0  0  0999 V2000
   -3.1454   -2.8916    0.2054 H   0  0  0  0  0  0  0  0  0  0  0  0
   -3.1561   -2.1356   -0.5849 C   0  0  0  0  0  0  0  0  0  0  0  0
   -4.1623   -1.7161   -0.6583 H   0  0  0  0  0  0  0  0  0  0  0  0
   -2.8962   -2.6145   -1.5320 H   0  0  0  0  0  0  0  0  0  0  0  0
   -2.1581   -1.0380   -0.2694 C   0  0  0  0  0  0  0  0  0  0  0  0
   -1.5648   -1.0310    0.7980 O   0  0  0  0  0  0  0  0  0  0  0  0
   -1.9968    0.0217   -1.1356 N   0  0  0  0  0  0  0  0  0  0  0  0
   -2.5032   -0.0363   -2.0123 H   0  0  0  0  0  0  0  0  0  0  0  0
   -0.8013    0.8834   -1.1036 C   0  0  1  0  0  0  0  0  0  0  0  0
   -0.0065    0.4274   -0.5029 H   0  0  0  0  0  0  0  0  0  0  0  0
   -0.2642    1.0542   -2.5371 C   0  0  0  0  0  0  0  0  0  0  0  0
   -1.0619    1.4296   -3.1860 H   0  0  0  0  0  0  0  0  0  0  0  0
    0.5433    1.7937   -2.5517 H   0  0  0  0  0  0  0  0  0  0  0  0
    0.2651   -0.2518   -3.0726 C   0  0  0  0  0  0  0  0  0  0  0  0
   -0.4049   -1.1389   -3.8815 C   0  0  0  0  0  0  0  0  0  0  0  0
   -1.4077   -1.0019   -4.2783 H   0  0  0  0  0  0  0  0  0  0  0  0
    0.4364   -2.2271   -4.1024 N   0  0  0  0  0  0  0  0  0  0  0  0
    0.2201   -3.0338   -4.6843 H   0  0  0  0  0  0  0  0  0  0  0  0
    1.6389   -2.0495   -3.4368 C   0  0  0  0  0  0  0  0  0  0  0  0
    2.7806   -2.8467   -3.3514 C   0  0  0  0  0  0  0  0  0  0  0  0
    2.8251   -3.7975   -3.8708 H   0  0  0  0  0  0  0  0  0  0  0  0
    3.8678   -2.4026   -2.5853 C   0  0  0  0  0  0  0  0  0  0  0  0
    4.7633   -3.0125   -2.5098 H   0  0  0  0  0  0  0  0  0  0  0  0
    3.8006   -1.1712   -1.9154 C   0  0  0  0  0  0  0  0  0  0  0  0
    4.6432   -0.8303   -1.3213 H   0  0  0  0  0  0  0  0  0  0  0  0
    2.6487   -0.3772   -2.0106 C   0  0  0  0  0  0  0  0  0  0  0  0
    2.5932    0.5764   -1.4957 H   0  0  0  0  0  0  0  0  0  0  0  0
    1.5701   -0.8273   -2.7787 C   0  0  0  0  0  0  0  0  0  0  0  0
   -1.1461    2.2382   -0.4530 C   0  0  0  0  0  0  0  0  0  0  0  0
   -1.0448    3.3024   -1.0523 O   0  0  0  0  0  0  0  0  0  0  0  0
   -1.6106    2.2303    0.8477 N   0  0  0  0  0  0  0  0  0  0  0  0
   -1.6919    1.3158    1.2946 H   0  0  0  0  0  0  0  0  0  0  0  0
   -1.9872    3.4276    1.5859 C   0  0  0  0  0  0  0  0  0  0  0  0
   -2.8100    3.9453    1.0821 H   0  0  0  0  0  0  0  0  0  0  0  0
   -2.3127    3.1607    2.5959 H   0  0  0  0  0  0  0  0  0  0  0  0
   -1.1359    4.1116    1.6663 H   0  0  0  0  0  0  0  0  0  0  0  0
  1  2  1  0  0  0  0
  2  3  1  0  0  0  0
  2  4  1  0  0  0  0
  2  5  1  0  0  0  0
  5  6  2  0  0  0  0
  5  7  1  0  0  0  0
  7  8  1  0  0  0  0
  7  9  1  0  0  0  0
  9 10  1  0  0  0  0
  9 11  1  0  0  0  0
  9 29  1  0  0  0  0
 11 12  1  0  0  0  0
 11 13  1  0  0  0  0
 11 14  1  0  0  0  0
 14 15  2  0  0  0  0
 14 28  1  0  0  0  0
 15 16  1  0  0  0  0
 15 17  1  0  0  0  0
 17 18  1  0  0  0  0
 17 19  1  0  0  0  0
 19 20  1  0  0  0  0
 19 28  2  0  0  0  0
 20 21  1  0  0  0  0
 20 22  2  0  0  0  0
 22 23  1  0  0  0  0
 22 24  1  0  0  0  0
 24 25  1  0  0  0  0
 24 26  2  0  0  0  0
 26 27  1  0  0  0  0
 26 28  1  0  0  0  0
 29 30  2  0  0  0  0
 29 31  1  0  0  0  0
 31 32  1  0  0  0  0
 31 33  1  0  0  0  0
 33 34  1  0  0  0  0
 33 35  1  0  0  0  0
 33 36  1  0  0  0  0
M  END
$$$$

  -OEChem-01062216103D

 36 37  0     1  0  0  0  0  0999 V2000
   -3.1420   -2.8783    0.2139 H   0  0  0  0  0  0  0  0  0  0  0  0
   -3.1645   -2.1083   -0.5623 C   0  0  0  0  0  0  0  0  0  0  0  0
   -4.1632   -1.6661   -0.5920 H   0  0  0  0  0  0  0  0  0  0  0  0
   -2.9492   -2.5756   -1.5262 H   0  0  0  0  0  0  0  0  0  0  0  0
   -2.1326   -1.0377   -0.2651 C   0  0  0  0  0  0  0  0  0  0  0  0
   -1.4955   -1.0666    0.7767 O   0  0  0  0  0  0  0  0  0  0  0  0
   -1.9720    0.0242   -1.1287 N   0  0  0  0  0  0  0  0  0  0  0  0
   -2.5160    0.0021   -1.9845 H   0  0  0  0  0  0  0  0  0  0  0  0
   -0.7773    0.8841   -1.1021 C   0  0  1  0  0  0  0  0  0  0  0  0
    0.0228    0.4266   -0.5100 H   0  0  0  0  0  0  0  0  0  0  0  0
   -0.2483    1.0617   -2.5380 C   0  0  0  0  0  0  0  0  0  0  0  0
   -1.0507    1.4366   -3.1818 H   0  0  0  0  0  0  0  0  0  0  0  0
    0.5560    1.8046   -2.5533 H   0  0  0  0  0  0  0  0  0  0  0  0
    0.2775   -0.2429   -3.0802 C   0  0  0  0  0  0  0  0  0  0  0  0
   -0.3973   -1.1271   -3.8882 C   0  0  0  0  0  0  0  0  0  0  0  0
   -1.4007   -0.9862   -4.2827 H   0  0  0  0  0  0  0  0  0  0  0  0
    0.4366   -2.2219   -4.1053 N   0  0  0  0  0  0  0  0  0  0  0  0
    0.2121   -3.0319   -4.6795 H   0  0  0  0  0  0  0  0  0  0  0  0
    1.6399   -2.0508   -3.4394 C   0  0  0  0  0  0  0  0  0  0  0  0
    2.7742   -2.8575   -3.3460 C   0  0  0  0  0  0  0  0  0  0  0  0
    2.8100   -3.8138   -3.8558 H   0  0  0  0  0  0  0  0  0  0  0  0
    3.8651   -2.4165   -2.5832 C   0  0  0  0  0  0  0  0  0  0  0  0
    4.7547   -3.0339   -2.5006 H   0  0  0  0  0  0  0  0  0  0  0  0
    3.8093   -1.1781   -1.9253 C   0  0  0  0  0  0  0  0  0  0  0  0
    4.6557   -0.8389   -1.3357 H   0  0  0  0  0  0  0  0  0  0  0  0
    2.6634   -0.3761   -2.0255 C   0  0  0  0  0  0  0  0  0  0  0  0
    2.6158    0.5821   -1.5184 H   0  0  0  0  0  0  0  0  0  0  0  0
    1.5803   -0.8244   -2.7884 C   0  0  0  0  0  0  0  0  0  0  0  0
   -1.1193    2.2364   -0.4484 C   0  0  0  0  0  0  0  0  0  0  0  0
   -1.2734    3.2600   -1.1047 O   0  0  0  0  0  0  0  0  0  0  0  0
   -1.2710    2.2722    0.9241 N   0  0  0  0  0  0  0  0  0  0  0  0
   -1.2508    1.3708    1.4026 H   0  0  0  0  0  0  0  0  0  0  0  0
   -1.6894    3.4577    1.6594 C   0  0  0  0  0  0  0  0  0  0  0  0
   -2.6979    3.7588    1.3579 H   0  0  0  0  0  0  0  0  0  0  0  0
   -1.6946    3.2517    2.7341 H   0  0  0  0  0  0  0  0  0  0  0  0
   -1.0015    4.2887    1.4715 H   0  0  0  0  0  0  0  0  0  0  0  0
  1  2  1  0  0  0  0
  2  3  1  0  0  0  0
  2  4  1  0  0  0  0
  2  5  1  0  0  0  0
  5  6  2  0  0  0  0
  5  7  1  0  0  0  0
  7  8  1  0  0  0  0
  7  9  1  0  0  0  0
  9 10  1  0  0  0  0
  9 11  1  0  0  0  0
  9 29  1  0  0  0  0
 11 12  1  0  0  0  0
 11 13  1  0  0  0  0
 11 14  1  0  0  0  0
 14 15  2  0  0  0  0
 14 28  1  0  0  0  0
 15 16  1  0  0  0  0
 15 17  1  0  0  0  0
 17 18  1  0  0  0  0
 17 19  1  0  0  0  0
 19 20  1  0  0  0  0
 19 28  2  0  0  0  0
 20 21  1  0  0  0  0
 20 22  2  0  0  0  0
 22 23  1  0  0  0  0
 22 24  1  0  0  0  0
 24 25  1  0  0  0  0
 24 26  2  0  0  0  0
 26 27  1  0  0  0  0
 26 28  1  0  0  0  0
 29 30  2  0  0  0  0
 29 31  1  0  0  0  0
 31 32  1  0  0  0  0
 31 33  1  0  0  0  0
 33 34  1  0  0  0  0
 33 35  1  0  0  0  0
 33 36  1  0  0  0  0
M  END
$$$$

  -OEChem-01062216103D

 36 37  0     1  0  0  0  0  0999 V2000
   -3.2675   -2.8208    0.2746 H   0  0  0  0  0  0  0  0  0  0  0  0
   -3.2761   -2.0437   -0.4950 C   0  0  0  0  0  0  0  0  0  0  0  0
   -4.2302   -1.5130   -0.4498 H   0  0  0  0  0  0  0  0  0  0  0  0
   -3.1749   -2.5176   -1.4742 H   0  0  0  0  0  0  0  0  0  0  0  0
   -2.1320   -1.0741   -0.2688 C   0  0  0  0  0  0  0  0  0  0  0  0
   -1.4118   -1.1924    0.7104 O   0  0  0  0  0  0  0  0  0  0  0  0
   -1.9526   -0.0102   -1.1267 N   0  0  0  0  0  0  0  0  0  0  0  0
   -2.5973    0.0806   -1.9049 H   0  0  0  0  0  0  0  0  0  0  0  0
   -0.7629    0.8549   -1.1013 C   0  0  1  0  0  0  0  0  0  0  0  0
    0.0393    0.4003   -0.5100 H   0  0  0  0  0  0  0  0  0  0  0  0
   -0.2313    1.0400   -2.5340 C   0  0  0  0  0  0  0  0  0  0  0  0
   -1.0349    1.4097   -3.1792 H   0  0  0  0  0  0  0  0  0  0  0  0
    0.5664    1.7897   -2.5444 H   0  0  0  0  0  0  0  0  0  0  0  0
    0.3043   -0.2582   -3.0811 C   0  0  0  0  0  0  0  0  0  0  0  0
   -0.3640   -1.1418   -3.8945 C   0  0  0  0  0  0  0  0  0  0  0  0
   -1.3714   -1.0077   -4.2803 H   0  0  0  0  0  0  0  0  0  0  0  0
    0.4812   -2.2246   -4.1274 N   0  0  0  0  0  0  0  0  0  0  0  0
    0.2606   -3.0337   -4.7043 H   0  0  0  0  0  0  0  0  0  0  0  0
    1.6845   -2.0477   -3.4628 C   0  0  0  0  0  0  0  0  0  0  0  0
    2.8273   -2.8434   -3.3799 C   0  0  0  0  0  0  0  0  0  0  0  0
    2.8716   -3.7932   -3.9011 H   0  0  0  0  0  0  0  0  0  0  0  0
    3.9143   -2.4009   -2.6124 C   0  0  0  0  0  0  0  0  0  0  0  0
    4.8091   -3.0114   -2.5366 H   0  0  0  0  0  0  0  0  0  0  0  0
    3.8466   -1.1712   -1.9398 C   0  0  0  0  0  0  0  0  0  0  0  0
    4.6889   -0.8313   -1.3450 H   0  0  0  0  0  0  0  0  0  0  0  0
    2.6934   -0.3790   -2.0316 C   0  0  0  0  0  0  0  0  0  0  0  0
    2.6371    0.5726   -1.5135 H   0  0  0  0  0  0  0  0  0  0  0  0
    1.6138   -0.8290   -2.7984 C   0  0  0  0  0  0  0  0  0  0  0  0
   -1.1100    2.2089   -0.4568 C   0  0  0  0  0  0  0  0  0  0  0  0
   -1.5322    3.1469   -1.1234 O   0  0  0  0  0  0  0  0  0  0  0  0
   -0.9623    2.3497    0.9096 N   0  0  0  0  0  0  0  0  0  0  0  0
   -0.7667    1.4960    1.4307 H   0  0  0  0  0  0  0  0  0  0  0  0
   -1.3788    3.5392    1.6405 C   0  0  0  0  0  0  0  0  0  0  0  0
   -2.4602    3.6850    1.5504 H   0  0  0  0  0  0  0  0  0  0  0  0
   -1.1293    3.4367    2.7011 H   0  0  0  0  0  0  0  0  0  0  0  0
   -0.8692    4.4269    1.2514 H   0  0  0  0  0  0  0  0  0  0  0  0
  1  2  1  0  0  0  0
  2  3  1  0  0  0  0
  2  4  1  0  0  0  0
  2  5  1  0  0  0  0
  5  6  2  0  0  0  0
  5  7  1  0  0  0  0
  7  8  1  0  0  0  0
  7  9  1  0  0  0  0
  9 10  1  0  0  0  0
  9 11  1  0  0  0  0
  9 29  1  0  0  0  0
 11 12  1  0  0  0  0
 11 13  1  0  0  0  0
 11 14  1  0  0  0  0
 14 15  2  0  0  0  0
 14 28  1  0  0  0  0
 15 16  1  0  0  0  0
 15 17  1  0  0  0  0
 17 18  1  0  0  0  0
 17 19  1  0  0  0  0
 19 20  1  0  0  0  0
 19 28  2  0  0  0  0
 20 21  1  0  0  0  0
 20 22  2  0  0  0  0
 22 23  1  0  0  0  0
 22 24  1  0  0  0  0
 24 25  1  0  0  0  0
 24 26  2  0  0  0  0
 26 27  1  0  0  0  0
 26 28  1  0  0  0  0
 29 30  2  0  0  0  0
 29 31  1  0  0  0  0
 31 32  1  0  0  0  0
 31 33  1  0  0  0  0
 33 34  1  0  0  0  0
 33 35  1  0  0  0  0
 33 36  1  0  0  0  0
M  END
$$$$

  -OEChem-01062216103D

 36 37  0     1  0  0  0  0  0999 V2000
   -3.3961   -2.7537    0.3505 H   0  0  0  0  0  0  0  0  0  0  0  0
   -3.3876   -1.9755   -0.4178 C   0  0  0  0  0  0  0  0  0  0  0  0
   -4.2824   -1.3588   -0.3047 H   0  0  0  0  0  0  0  0  0  0  0  0
   -3.4011   -2.4516   -1.4010 H   0  0  0  0  0  0  0  0  0  0  0  0
   -2.1454   -1.1167   -0.2771 C   0  0  0  0  0  0  0  0  0  0  0  0
   -1.3596   -1.3251    0.6338 O   0  0  0  0  0  0  0  0  0  0  0  0
   -1.9465   -0.0542   -1.1332 N   0  0  0  0  0  0  0  0  0  0  0  0
   -2.6848    0.1656   -1.7947 H   0  0  0  0  0  0  0  0  0  0  0  0
   -0.7590    0.8140   -1.1001 C   0  0  1  0  0  0  0  0  0  0  0  0
    0.0381    0.3591   -0.5025 H   0  0  0  0  0  0  0  0  0  0  0  0
   -0.2152    1.0103   -2.5257 C   0  0  0  0  0  0  0  0  0  0  0  0
   -1.0155    1.3795   -3.1753 H   0  0  0  0  0  0  0  0  0  0  0  0
    0.5784    1.7646   -2.5249 H   0  0  0  0  0  0  0  0  0  0  0  0
    0.3314   -0.2792   -3.0805 C   0  0  0  0  0  0  0  0  0  0  0  0
   -0.3263   -1.1576   -3.9076 C   0  0  0  0  0  0  0  0  0  0  0  0
   -1.3354   -1.0290   -4.2908 H   0  0  0  0  0  0  0  0  0  0  0  0
    0.5331   -2.2254   -4.1578 N   0  0  0  0  0  0  0  0  0  0  0  0
    0.3209   -3.0297   -4.7439 H   0  0  0  0  0  0  0  0  0  0  0  0
    1.7343   -2.0437   -3.4909 C   0  0  0  0  0  0  0  0  0  0  0  0
    2.8873   -2.8259   -3.4227 C   0  0  0  0  0  0  0  0  0  0  0  0
    2.9432   -3.7656   -3.9606 H   0  0  0  0  0  0  0  0  0  0  0  0
    3.9691   -2.3819   -2.6488 C   0  0  0  0  0  0  0  0  0  0  0  0
    4.8721   -2.9817   -2.5845 H   0  0  0  0  0  0  0  0  0  0  0  0
    3.8862   -1.1641   -1.9559 C   0  0  0  0  0  0  0  0  0  0  0  0
    4.7252   -0.8236   -1.3567 H   0  0  0  0  0  0  0  0  0  0  0  0
    2.7226   -0.3855   -2.0331 C   0  0  0  0  0  0  0  0  0  0  0  0
    2.6538    0.5563   -1.4993 H   0  0  0  0  0  0  0  0  0  0  0  0
    1.6484   -0.8371   -2.8063 C   0  0  0  0  0  0  0  0  0  0  0  0
   -1.1091    2.1731   -0.4694 C   0  0  0  0  0  0  0  0  0  0  0  0
   -1.7750    2.9962   -1.0873 O   0  0  0  0  0  0  0  0  0  0  0  0
   -0.6961    2.4533    0.8193 N   0  0  0  0  0  0  0  0  0  0  0  0
   -0.2933    1.6805    1.3454 H   0  0  0  0  0  0  0  0  0  0  0  0
   -1.0877    3.6599    1.5360 C   0  0  0  0  0  0  0  0  0  0  0  0
   -2.1764    3.7048    1.6450 H   0  0  0  0  0  0  0  0  0  0  0  0
   -0.6385    3.6678    2.5337 H   0  0  0  0  0  0  0  0  0  0  0  0
   -0.7494    4.5520    0.9986 H   0  0  0  0  0  0  0  0  0  0  0  0
  1  2  1  0  0  0  0
  2  3  1  0  0  0  0
  2  4  1  0  0  0  0
  2  5  1  0  0  0  0
  5  6  2  0  0  0  0
  5  7  1  0  0  0  0
  7  8  1  0  0  0  0
  7  9  1  0  0  0  0
  9 10  1  0  0  0  0
  9 11  1  0  0  0  0
  9 29  1  0  0  0  0
 11 12  1  0  0  0  0
 11 13  1  0  0  0  0
 11 14  1  0  0  0  0
 14 15  2  0  0  0  0
 14 28  1  0  0  0  0
 15 16  1  0  0  0  0
 15 17  1  0  0  0  0
 17 18  1  0  0  0  0
 17 19  1  0  0  0  0
 19 20  1  0  0  0  0
 19 28  2  0  0  0  0
 20 21  1  0  0  0  0
 20 22  2  0  0  0  0
 22 23  1  0  0  0  0
 22 24  1  0  0  0  0
 24 25  1  0  0  0  0
 24 26  2  0  0  0  0
 26 27  1  0  0  0  0
 26 28  1  0  0  0  0
 29 30  2  0  0  0  0
 29 31  1  0  0  0  0
 31 32  1  0  0  0  0
 31 33  1  0  0  0  0
 33 34  1  0  0  0  0
 33 35  1  0  0  0  0
 33 36  1  0  0  0  0
M  END
$$$$

  -OEChem-01062216103D

 36 37  0     1  0  0  0  0  0999 V2000
   -3.4804   -2.7094    0.3986 H   0  0  0  0  0  0  0  0  0  0  0  0
   -3.4607   -1.9309   -0.3694 C   0  0  0  0  0  0  0  0  0  0  0  0
   -4.3126   -1.2639   -0.2160 H   0  0  0  0  0  0  0  0  0  0  0  0
   -3.5467   -2.4032   -1.3508 H   0  0  0  0  0  0  0  0  0  0  0  0
   -2.1646   -1.1467   -0.2841 C   0  0  0  0  0  0  0  0  0  0  0  0
   -1.3442   -1.4207    0.5772 O   0  0  0  0  0  0  0  0  0  0  0  0
   -1.9501   -0.0876   -1.1407 N   0  0  0  0  0  0  0  0  0  0  0  0
   -2.7339    0.2137   -1.7123 H   0  0  0  0  0  0  0  0  0  0  0  0
   -0.7633    0.7821   -1.0931 C   0  0  1  0  0  0  0  0  0  0  0  0
    0.0255    0.3268   -0.4850 H   0  0  0  0  0  0  0  0  0  0  0  0
   -0.2062    0.9853   -2.5118 C   0  0  0  0  0  0  0  0  0  0  0  0
   -1.0020    1.3577   -3.1653 H   0  0  0  0  0  0  0  0  0  0  0  0
    0.5861    1.7408   -2.4989 H   0  0  0  0  0  0  0  0  0  0  0  0
    0.3491   -0.2982   -3.0724 C   0  0  0  0  0  0  0  0  0  0  0  0
   -0.3005   -1.1705   -3.9120 C   0  0  0  0  0  0  0  0  0  0  0  0
   -1.3117   -1.0458   -4.2911 H   0  0  0  0  0  0  0  0  0  0  0  0
    0.5684   -2.2265   -4.1789 N   0  0  0  0  0  0  0  0  0  0  0  0
    0.3595   -3.0279   -4.7702 H   0  0  0  0  0  0  0  0  0  0  0  0
    1.7696   -2.0417   -3.5132 C   0  0  0  0  0  0  0  0  0  0  0  0
    2.9316   -2.8118   -3.4617 C   0  0  0  0  0  0  0  0  0  0  0  0
    2.9961   -3.7425   -4.0144 H   0  0  0  0  0  0  0  0  0  0  0  0
    4.0113   -2.3681   -2.6847 C   0  0  0  0  0  0  0  0  0  0  0  0
    4.9208   -2.9591   -2.6329 H   0  0  0  0  0  0  0  0  0  0  0  0
    3.9172   -1.1630   -1.9716 C   0  0  0  0  0  0  0  0  0  0  0  0
    4.7539   -0.8235   -1.3687 H   0  0  0  0  0  0  0  0  0  0  0  0
    2.7449   -0.3961   -2.0328 C   0  0  0  0  0  0  0  0  0  0  0  0
    2.6680    0.5362   -1.4837 H   0  0  0  0  0  0  0  0  0  0  0  0
    1.6727   -0.8467   -2.8096 C   0  0  0  0  0  0  0  0  0  0  0  0
   -1.1167    2.1471   -0.4765 C   0  0  0  0  0  0  0  0  0  0  0  0
   -1.9727    2.8539   -0.9971 O   0  0  0  0  0  0  0  0  0  0  0  0
   -0.4810    2.5777    0.6729 N   0  0  0  0  0  0  0  0  0  0  0  0
    0.1192    1.9070    1.1463 H   0  0  0  0  0  0  0  0  0  0  0  0
   -0.8291    3.8155    1.3589 C   0  0  0  0  0  0  0  0  0  0  0  0
   -1.8795    3.8007    1.6682 H   0  0  0  0  0  0  0  0  0  0  0  0
   -0.2072    3.9412    2.2504 H   0  0  0  0  0  0  0  0  0  0  0  0
   -0.6670    4.6757    0.7010 H   0  0  0  0  0  0  0  0  0  0  0  0
  1  2  1  0  0  0  0
  2  3  1  0  0  0  0
  2  4  1  0  0  0  0
  2  5  1  0  0  0  0
  5  6  2  0  0  0  0
  5  7  1  0  0  0  0
  7  8  1  0  0  0  0
  7  9  1  0  0  0  0
  9 10  1  0  0  0  0
  9 11  1  0  0  0  0
  9 29  1  0  0  0  0
 11 12  1  0  0  0  0
 11 13  1  0  0  0  0
 11 14  1  0  0  0  0
 14 15  2  0  0  0  0
 14 28  1  0  0  0  0
 15 16  1  0  0  0  0
 15 17  1  0  0  0  0
 17 18  1  0  0  0  0
 17 19  1  0  0  0  0
 19 20  1  0  0  0  0
 19 28  2  0  0  0  0
 20 21  1  0  0  0  0
 20 22  2  0  0  0  0
 22 23  1  0  0  0  0
 22 24  1  0  0  0  0
 24 25  1  0  0  0  0
 24 26  2  0  0  0  0
 26 27  1  0  0  0  0
 26 28  1  0  0  0  0
 29 30  2  0  0  0  0
 29 31  1  0  0  0  0
 31 32  1  0  0  0  0
 31 33  1  0  0  0  0
 33 34  1  0  0  0  0
 33 35  1  0  0  0  0
 33 36  1  0  0  0  0
M  END
$$$$

  -OEChem-01062216103D

 36 37  0     1  0  0  0  0  0999 V2000
   -3.5177   -2.6828    0.4299 H   0  0  0  0  0  0  0  0  0  0  0  0
   -3.4951   -1.9040   -0.3375 C   0  0  0  0  0  0  0  0  0  0  0  0
   -4.3171   -1.2072   -0.1561 H   0  0  0  0  0  0  0  0  0  0  0  0
   -3.6289   -2.3703   -1.3163 H   0  0  0  0  0  0  0  0  0  0  0  0
   -2.1708   -1.1658   -0.2933 C   0  0  0  0  0  0  0  0  0  0  0  0
   -1.3316   -1.4753    0.5372 O   0  0  0  0  0  0  0  0  0  0  0  0
   -1.9525   -0.1100   -1.1531 N   0  0  0  0  0  0  0  0  0  0  0  0
   -2.7610    0.2398   -1.6598 H   0  0  0  0  0  0  0  0  0  0  0  0
   -0.7675    0.7621   -1.0944 C   0  0  1  0  0  0  0  0  0  0  0  0
    0.0163    0.3081   -0.4791 H   0  0  0  0  0  0  0  0  0  0  0  0
   -0.2038    0.9725   -2.5082 C   0  0  0  0  0  0  0  0  0  0  0  0
   -0.9977    1.3464   -3.1632 H   0  0  0  0  0  0  0  0  0  0  0  0
    0.5868    1.7296   -2.4887 H   0  0  0  0  0  0  0  0  0  0  0  0
    0.3571   -0.3068   -3.0722 C   0  0  0  0  0  0  0  0  0  0  0  0
   -0.2870   -1.1761   -3.9193 C   0  0  0  0  0  0  0  0  0  0  0  0
   -1.2984   -1.0534   -4.2991 H   0  0  0  0  0  0  0  0  0  0  0  0
    0.5880   -2.2255   -4.1924 N   0  0  0  0  0  0  0  0  0  0  0  0
    0.3830   -3.0251   -4.7874 H   0  0  0  0  0  0  0  0  0  0  0  0
    1.7872   -2.0393   -3.5236 C   0  0  0  0  0  0  0  0  0  0  0  0
    2.9529   -2.8040   -3.4771 C   0  0  0  0  0  0  0  0  0  0  0  0
    3.0218   -3.7301   -4.0368 H   0  0  0  0  0  0  0  0  0  0  0  0
    4.0307   -2.3603   -2.6978 C   0  0  0  0  0  0  0  0  0  0  0  0
    4.9440   -2.9460   -2.6521 H   0  0  0  0  0  0  0  0  0  0  0  0
    3.9302   -1.1613   -1.9754 C   0  0  0  0  0  0  0  0  0  0  0  0
    4.7664   -0.8220   -1.3717 H   0  0  0  0  0  0  0  0  0  0  0  0
    2.7530   -0.4009   -2.0298 C   0  0  0  0  0  0  0  0  0  0  0  0
    2.6705    0.5258   -1.4726 H   0  0  0  0  0  0  0  0  0  0  0  0
    1.6833   -0.8504   -2.8109 C   0  0  0  0  0  0  0  0  0  0  0  0
   -1.1250    2.1302   -0.4871 C   0  0  0  0  0  0  0  0  0  0  0  0
   -2.1296    2.7228   -0.8661 O   0  0  0  0  0  0  0  0  0  0  0  0
   -0.3092    2.7080    0.4678 N   0  0  0  0  0  0  0  0  0  0  0  0
    0.4503    2.1407    0.8347 H   0  0  0  0  0  0  0  0  0  0  0  0
   -0.6196    3.9731    1.1215 C   0  0  0  0  0  0  0  0  0  0  0  0
   -1.5811    3.9103    1.6421 H   0  0  0  0  0  0  0  0  0  0  0  0
    0.1549    4.2199    1.8542 H   0  0  0  0  0  0  0  0  0  0  0  0
   -0.6684    4.7827    0.3858 H   0  0  0  0  0  0  0  0  0  0  0  0
  1  2  1  0  0  0  0
  2  3  1  0  0  0  0
  2  4  1  0  0  0  0
  2  5  1  0  0  0  0
  5  6  2  0  0  0  0
  5  7  1  0  0  0  0
  7  8  1  0  0  0  0
  7  9  1  0  0  0  0
  9 10  1  0  0  0  0
  9 11  1  0  0  0  0
  9 29  1  0  0  0  0
 11 12  1  0  0  0  0
 11 13  1  0  0  0  0
 11 14  1  0  0  0  0
 14 15  2  0  0  0  0
 14 28  1  0  0  0  0
 15 16  1  0  0  0  0
 15 17  1  0  0  0  0
 17 18  1  0  0  0  0
 17 19  1  0  0  0  0
 19 20  1  0  0  0  0
 19 28  2  0  0  0  0
 20 21  1  0  0  0  0
 20 22  2  0  0  0  0
 22 23  1  0  0  0  0
 22 24  1  0  0  0  0
 24 25  1  0  0  0  0
 24 26  2  0  0  0  0
 26 27  1  0  0  0  0
 26 28  1  0  0  0  0
 29 30  2  0  0  0  0
 29 31  1  0  0  0  0
 31 32  1  0  0  0  0
 31 33  1  0  0  0  0
 33 34  1  0  0  0  0
 33 35  1  0  0  0  0
 33 36  1  0  0  0  0
M  END
$$$$

  -OEChem-01062216103D

 36 37  0     1  0  0  0  0  0999 V2000
   -3.5447   -2.6617    0.4548 H   0  0  0  0  0  0  0  0  0  0  0  0
   -3.5205   -1.8863   -0.3160 C   0  0  0  0  0  0  0  0  0  0  0  0
   -4.3194   -1.1677   -0.1174 H   0  0  0  0  0  0  0  0  0  0  0  0
   -3.6903   -2.3516   -1.2898 H   0  0  0  0  0  0  0  0  0  0  0  0
   -2.1764   -1.1833   -0.3065 C   0  0  0  0  0  0  0  0  0  0  0  0
   -1.3194   -1.5271    0.4917 O   0  0  0  0  0  0  0  0  0  0  0  0
   -1.9579   -0.1276   -1.1667 N   0  0  0  0  0  0  0  0  0  0  0  0
   -2.7843    0.2593   -1.6150 H   0  0  0  0  0  0  0  0  0  0  0  0
   -0.7757    0.7485   -1.0942 C   0  0  1  0  0  0  0  0  0  0  0  0
    0.0036    0.2966   -0.4717 H   0  0  0  0  0  0  0  0  0  0  0  0
   -0.2059    0.9623   -2.5047 C   0  0  0  0  0  0  0  0  0  0  0  0
   -0.9993    1.3344   -3.1613 H   0  0  0  0  0  0  0  0  0  0  0  0
    0.5821    1.7216   -2.4816 H   0  0  0  0  0  0  0  0  0  0  0  0
    0.3621   -0.3135   -3.0697 C   0  0  0  0  0  0  0  0  0  0  0  0
   -0.2772   -1.1814   -3.9218 C   0  0  0  0  0  0  0  0  0  0  0  0
   -1.2896   -1.0618   -4.3000 H   0  0  0  0  0  0  0  0  0  0  0  0
    0.6023   -2.2256   -4.2001 N   0  0  0  0  0  0  0  0  0  0  0  0
    0.3990   -3.0256   -4.7953 H   0  0  0  0  0  0  0  0  0  0  0  0
    1.8004   -2.0370   -3.5303 C   0  0  0  0  0  0  0  0  0  0  0  0
    2.9693   -2.7970   -3.4873 C   0  0  0  0  0  0  0  0  0  0  0  0
    3.0416   -3.7206   -4.0508 H   0  0  0  0  0  0  0  0  0  0  0  0
    4.0452   -2.3524   -2.7061 C   0  0  0  0  0  0  0  0  0  0  0  0
    4.9604   -2.9354   -2.6627 H   0  0  0  0  0  0  0  0  0  0  0  0
    3.9399   -1.1569   -1.9788 C   0  0  0  0  0  0  0  0  0  0  0  0
    4.7741   -0.8166   -1.3728 H   0  0  0  0  0  0  0  0  0  0  0  0
    2.7596   -0.4012   -2.0299 C   0  0  0  0  0  0  0  0  0  0  0  0
    2.6746    0.5224   -1.4685 H   0  0  0  0  0  0  0  0  0  0  0  0
    1.6912   -0.8518   -2.8120 C   0  0  0  0  0  0  0  0  0  0  0  0
   -1.1366    2.1189   -0.4912 C   0  0  0  0  0  0  0  0  0  0  0  0
   -2.2427    2.6077   -0.6980 O   0  0  0  0  0  0  0  0  0  0  0  0
   -0.1982    2.8368    0.2271 N   0  0  0  0  0  0  0  0  0  0  0  0
    0.6804    2.3735    0.4414 H   0  0  0  0  0  0  0  0  0  0  0  0
   -0.4769    4.1321    0.8343 C   0  0  0  0  0  0  0  0  0  0  0  0
   -1.3088    4.0528    1.5421 H   0  0  0  0  0  0  0  0  0  0  0  0
    0.4035    4.4931    1.3747 H   0  0  0  0  0  0  0  0  0  0  0  0
   -0.7358    4.8677    0.0655 H   0  0  0  0  0  0  0  0  0  0  0  0
  1  2  1  0  0  0  0
  2  3  1  0  0  0  0
  2  4  1  0  0  0  0
  2  5  1  0  0  0  0
  5  6  2  0  0  0  0
  5  7  1  0  0  0  0
  7  8  1  0  0  0  0
  7  9  1  0  0  0  0
  9 10  1  0  0  0  0
  9 11  1  0  0  0  0
  9 29  1  0  0  0  0
 11 12  1  0  0  0  0
 11 13  1  0  0  0  0
 11 14  1  0  0  0  0
 14 15  2  0  0  0  0
 14 28  1  0  0  0  0
 15 16  1  0  0  0  0
 15 17  1  0  0  0  0
 17 18  1  0  0  0  0
 17 19  1  0  0  0  0
 19 20  1  0  0  0  0
 19 28  2  0  0  0  0
 20 21  1  0  0  0  0
 20 22  2  0  0  0  0
 22 23  1  0  0  0  0
 22 24  1  0  0  0  0
 24 25  1  0  0  0  0
 24 26  2  0  0  0  0
 26 27  1  0  0  0  0
 26 28  1  0  0  0  0
 29 30  2  0  0  0  0
 29 31  1  0  0  0  0
 31 32  1  0  0  0  0
 31 33  1  0  0  0  0
 33 34  1  0  0  0  0
 33 35  1  0  0  0  0
 33 36  1  0  0  0  0
M  END
$$$$

  -OEChem-01062216103D

 36 37  0     1  0  0  0  0  0999 V2000
   -3.5484   -2.6494    0.4680 H   0  0  0  0  0  0  0  0  0  0  0  0
   -3.5290   -1.8723   -0.3011 C   0  0  0  0  0  0  0  0  0  0  0  0
   -4.3096   -1.1399   -0.0809 H   0  0  0  0  0  0  0  0  0  0  0  0
   -3.7309   -2.3315   -1.2716 H   0  0  0  0  0  0  0  0  0  0  0  0
   -2.1729   -1.1934   -0.3230 C   0  0  0  0  0  0  0  0  0  0  0  0
   -1.3005   -1.5631    0.4463 O   0  0  0  0  0  0  0  0  0  0  0  0
   -1.9597   -0.1361   -1.1830 N   0  0  0  0  0  0  0  0  0  0  0  0
   -2.7988    0.2740   -1.5847 H   0  0  0  0  0  0  0  0  0  0  0  0
   -0.7799    0.7439   -1.0992 C   0  0  1  0  0  0  0  0  0  0  0  0
   -0.0024    0.2954   -0.4718 H   0  0  0  0  0  0  0  0  0  0  0  0
   -0.2080    0.9560   -2.5104 C   0  0  0  0  0  0  0  0  0  0  0  0
   -1.0013    1.3248   -3.1689 H   0  0  0  0  0  0  0  0  0  0  0  0
    0.5796    1.7159   -2.4907 H   0  0  0  0  0  0  0  0  0  0  0  0
    0.3635   -0.3194   -3.0726 C   0  0  0  0  0  0  0  0  0  0  0  0
   -0.2737   -1.1892   -3.9242 C   0  0  0  0  0  0  0  0  0  0  0  0
   -1.2865   -1.0732   -4.3018 H   0  0  0  0  0  0  0  0  0  0  0  0
    0.6091   -2.2301   -4.2030 N   0  0  0  0  0  0  0  0  0  0  0  0
    0.4069   -3.0326   -4.7949 H   0  0  0  0  0  0  0  0  0  0  0  0
    1.8068   -2.0381   -3.5332 C   0  0  0  0  0  0  0  0  0  0  0  0
    2.9777   -2.7951   -3.4907 C   0  0  0  0  0  0  0  0  0  0  0  0
    3.0531   -3.7173   -4.0559 H   0  0  0  0  0  0  0  0  0  0  0  0
    4.0517   -2.3492   -2.7075 C   0  0  0  0  0  0  0  0  0  0  0  0
    4.9681   -2.9301   -2.6635 H   0  0  0  0  0  0  0  0  0  0  0  0
    3.9425   -1.1554   -1.9780 C   0  0  0  0  0  0  0  0  0  0  0  0
    4.7749   -0.8148   -1.3698 H   0  0  0  0  0  0  0  0  0  0  0  0
    2.7605   -0.4024   -2.0290 C   0  0  0  0  0  0  0  0  0  0  0  0
    2.6716    0.5190   -1.4646 H   0  0  0  0  0  0  0  0  0  0  0  0
    1.6942   -0.8539   -2.8137 C   0  0  0  0  0  0  0  0  0  0  0  0
   -1.1441    2.1147   -0.4945 C   0  0  0  0  0  0  0  0  0  0  0  0
   -2.3083    2.5021   -0.5004 O   0  0  0  0  0  0  0  0  0  0  0  0
   -0.1517    2.9657   -0.0424 N   0  0  0  0  0  0  0  0  0  0  0  0
    0.7966    2.6028   -0.0077 H   0  0  0  0  0  0  0  0  0  0  0  0
   -0.4230    4.2811    0.5240 C   0  0  0  0  0  0  0  0  0  0  0  0
   -1.0811    4.1954    1.3952 H   0  0  0  0  0  0  0  0  0  0  0  0
    0.5105    4.7558    0.8414 H   0  0  0  0  0  0  0  0  0  0  0  0
   -0.9031    4.9266   -0.2190 H   0  0  0  0  0  0  0  0  0  0  0  0
  1  2  1  0  0  0  0
  2  3  1  0  0  0  0
  2  4  1  0  0  0  0
  2  5  1  0  0  0  0
  5  6  2  0  0  0  0
  5  7  1  0  0  0  0
  7  8  1  0  0  0  0
  7  9  1  0  0  0  0
  9 10  1  0  0  0  0
  9 11  1  0  0  0  0
  9 29  1  0  0  0  0
 11 12  1  0  0  0  0
 11 13  1  0  0  0  0
 11 14  1  0  0  0  0
 14 15  2  0  0  0  0
 14 28  1  0  0  0  0
 15 16  1  0  0  0  0
 15 17  1  0  0  0  0
 17 18  1  0  0  0  0
 17 19  1  0  0  0  0
 19 20  1  0  0  0  0
 19 28  2  0  0  0  0
 20 21  1  0  0  0  0
 20 22  2  0  0  0  0
 22 23  1  0  0  0  0
 22 24  1  0  0  0  0
 24 25  1  0  0  0  0
 24 26  2  0  0  0  0
 26 27  1  0  0  0  0
 26 28  1  0  0  0  0
 29 30  2  0  0  0  0
 29 31  1  0  0  0  0
 31 32  1  0  0  0  0
 31 33  1  0  0  0  0
 33 34  1  0  0  0  0
 33 35  1  0  0  0  0
 33 36  1  0  0  0  0
M  END
$$$$

  -OEChem-01062216103D

 36 37  0     1  0  0  0  0  0999 V2000
   -3.5141   -2.6139    0.5102 H   0  0  0  0  0  0  0  0  0  0  0  0
   -3.5250   -1.8403   -0.2627 C   0  0  0  0  0  0  0  0  0  0  0  0
   -4.2723   -1.0887    0.0035 H   0  0  0  0  0  0  0  0  0  0  0  0
   -3.7991   -2.2979   -1.2161 H   0  0  0  0  0  0  0  0  0  0  0  0
   -2.1577   -1.1929   -0.3731 C   0  0  0  0  0  0  0  0  0  0  0  0
   -1.2360   -1.6035    0.3146 O   0  0  0  0  0  0  0  0  0  0  0  0
   -1.9795   -0.1290   -1.2338 N   0  0  0  0  0  0  0  0  0  0  0  0
   -2.8408    0.2997   -1.5578 H   0  0  0  0  0  0  0  0  0  0  0  0
   -0.8022    0.7543   -1.1412 C   0  0  1  0  0  0  0  0  0  0  0  0
    0.0622    0.2034   -0.7551 H   0  0  0  0  0  0  0  0  0  0  0  0
   -0.4591    1.2661   -2.5519 C   0  0  0  0  0  0  0  0  0  0  0  0
   -1.3463    1.7336   -2.9911 H   0  0  0  0  0  0  0  0  0  0  0  0
    0.3216    2.0310   -2.5050 H   0  0  0  0  0  0  0  0  0  0  0  0
    0.0193    0.1495   -3.4427 C   0  0  0  0  0  0  0  0  0  0  0  0
   -0.7423   -0.5524   -4.3454 C   0  0  0  0  0  0  0  0  0  0  0  0
   -1.8012   -0.3951   -4.5341 H   0  0  0  0  0  0  0  0  0  0  0  0
    0.0861   -1.4892   -4.9590 N   0  0  0  0  0  0  0  0  0  0  0  0
   -0.2051   -2.1614   -5.6653 H   0  0  0  0  0  0  0  0  0  0  0  0
    1.3727   -1.3994   -4.4526 C   0  0  0  0  0  0  0  0  0  0  0  0
    2.5348   -2.1151   -4.7404 C   0  0  0  0  0  0  0  0  0  0  0  0
    2.5209   -2.9032   -5.4850 H   0  0  0  0  0  0  0  0  0  0  0  0
    3.7164   -1.8039   -4.0530 C   0  0  0  0  0  0  0  0  0  0  0  0
    4.6278   -2.3548   -4.2652 H   0  0  0  0  0  0  0  0  0  0  0  0
    3.7216   -0.7845   -3.0886 C   0  0  0  0  0  0  0  0  0  0  0  0
    4.6374   -0.5495   -2.5549 H   0  0  0  0  0  0  0  0  0  0  0  0
    2.5473   -0.0712   -2.8085 C   0  0  0  0  0  0  0  0  0  0  0  0
    2.5478    0.7141   -2.0612 H   0  0  0  0  0  0  0  0  0  0  0  0
    1.3732   -0.3867   -3.5001 C   0  0  0  0  0  0  0  0  0  0  0  0
   -1.0561    1.9527   -0.1980 C   0  0  0  0  0  0  0  0  0  0  0  0
   -2.1795    2.1690    0.2452 O   0  0  0  0  0  0  0  0  0  0  0  0
   -0.0657    2.8943    0.0217 N   0  0  0  0  0  0  0  0  0  0  0  0
    0.8639    2.6853   -0.3298 H   0  0  0  0  0  0  0  0  0  0  0  0
   -0.2507    4.0706    0.8628 C   0  0  0  0  0  0  0  0  0  0  0  0
   -0.5427    3.7758    1.8762 H   0  0  0  0  0  0  0  0  0  0  0  0
    0.6811    4.6411    0.9242 H   0  0  0  0  0  0  0  0  0  0  0  0
   -1.0273    4.7210    0.4470 H   0  0  0  0  0  0  0  0  0  0  0  0
  1  2  1  0  0  0  0
  2  3  1  0  0  0  0
  2  4  1  0  0  0  0
  2  5  1  0  0  0  0
  5  6  2  0  0  0  0
  5  7  1  0  0  0  0
  7  8  1  0  0  0  0
  7  9  1  0  0  0  0
  9 10  1  0  0  0  0
  9 11  1  0  0  0  0
  9 29  1  0  0  0  0
 11 12  1  0  0  0  0
 11 13  1  0  0  0  0
 11 14  1  0  0  0  0
 14 15  2  0  0  0  0
 14 28  1  0  0  0  0
 15 16  1  0  0  0  0
 15 17  1  0  0  0  0
 17 18  1  0  0  0  0
 17 19  1  0  0  0  0
 19 20  1  0  0  0  0
 19 28  2  0  0  0  0
 20 21  1  0  0  0  0
 20 22  2  0  0  0  0
 22 23  1  0  0  0  0
 22 24  1  0  0  0  0
 24 25  1  0  0  0  0
 24 26  2  0  0  0  0
 26 27  1  0  0  0  0
 26 28  1  0  0  0  0
 29 30  2  0  0  0  0
 29 31  1  0  0  0  0
 31 32  1  0  0  0  0
 31 33  1  0  0  0  0
 33 34  1  0  0  0  0
 33 35  1  0  0  0  0
 33 36  1  0  0  0  0
M  END
$$$$

  -OEChem-01062216103D

 36 37  0     1  0  0  0  0  0999 V2000
   -3.4928   -2.5906    0.5190 H   0  0  0  0  0  0  0  0  0  0  0  0
   -3.5160   -1.8137   -0.2503 C   0  0  0  0  0  0  0  0  0  0  0  0
   -4.2425   -1.0520    0.0429 H   0  0  0  0  0  0  0  0  0  0  0  0
   -3.8261   -2.2623   -1.1968 H   0  0  0  0  0  0  0  0  0  0  0  0
   -2.1430   -1.1871   -0.4000 C   0  0  0  0  0  0  0  0  0  0  0  0
   -1.2054   -1.6262    0.2471 O   0  0  0  0  0  0  0  0  0  0  0  0
   -1.9769   -0.1170   -1.2564 N   0  0  0  0  0  0  0  0  0  0  0  0
   -2.8443    0.3173   -1.5541 H   0  0  0  0  0  0  0  0  0  0  0  0
   -0.7999    0.7675   -1.1622 C   0  0  1  0  0  0  0  0  0  0  0  0
    0.0665    0.2191   -0.7768 H   0  0  0  0  0  0  0  0  0  0  0  0
   -0.4590    1.2662   -2.5803 C   0  0  0  0  0  0  0  0  0  0  0  0
   -1.3467    1.7295   -3.0232 H   0  0  0  0  0  0  0  0  0  0  0  0
    0.3250    2.0278   -2.5468 H   0  0  0  0  0  0  0  0  0  0  0  0
    0.0195    0.1410   -3.4599 C   0  0  0  0  0  0  0  0  0  0  0  0
   -0.7411   -0.5722   -4.3549 C   0  0  0  0  0  0  0  0  0  0  0  0
   -1.8005   -0.4200   -4.5460 H   0  0  0  0  0  0  0  0  0  0  0  0
    0.0889   -1.5139   -4.9587 N   0  0  0  0  0  0  0  0  0  0  0  0
   -0.2024   -2.1978   -5.6539 H   0  0  0  0  0  0  0  0  0  0  0  0
    1.3749   -1.4167   -4.4525 C   0  0  0  0  0  0  0  0  0  0  0  0
    2.5372   -2.1354   -4.7313 C   0  0  0  0  0  0  0  0  0  0  0  0
    2.5240   -2.9323   -5.4663 H   0  0  0  0  0  0  0  0  0  0  0  0
    3.7183   -1.8167   -4.0469 C   0  0  0  0  0  0  0  0  0  0  0  0
    4.6298   -2.3702   -4.2523 H   0  0  0  0  0  0  0  0  0  0  0  0
    3.7228   -0.7871   -3.0933 C   0  0  0  0  0  0  0  0  0  0  0  0
    4.6385   -0.5466   -2.5614 H   0  0  0  0  0  0  0  0  0  0  0  0
    2.5477   -0.0714   -2.8213 C   0  0  0  0  0  0  0  0  0  0  0  0
    2.5478    0.7204   -2.0806 H   0  0  0  0  0  0  0  0  0  0  0  0
    1.3741   -0.3940   -3.5109 C   0  0  0  0  0  0  0  0  0  0  0  0
   -1.0559    1.9590   -0.2051 C   0  0  0  0  0  0  0  0  0  0  0  0
   -2.0956    2.0241    0.4424 O   0  0  0  0  0  0  0  0  0  0  0  0
   -0.2182    3.0619   -0.1996 N   0  0  0  0  0  0  0  0  0  0  0  0
    0.6479    2.9945   -0.7254 H   0  0  0  0  0  0  0  0  0  0  0  0
   -0.4388    4.2316    0.6424 C   0  0  0  0  0  0  0  0  0  0  0  0
   -0.4817    3.9417    1.6976 H   0  0  0  0  0  0  0  0  0  0  0  0
    0.3774    4.9489    0.5145 H   0  0  0  0  0  0  0  0  0  0  0  0
   -1.3783    4.7255    0.3731 H   0  0  0  0  0  0  0  0  0  0  0  0
  1  2  1  0  0  0  0
  2  3  1  0  0  0  0
  2  4  1  0  0  0  0
  2  5  1  0  0  0  0
  5  6  2  0  0  0  0
  5  7  1  0  0  0  0
  7  8  1  0  0  0  0
  7  9  1  0  0  0  0
  9 10  1  0  0  0  0
  9 11  1  0  0  0  0
  9 29  1  0  0  0  0
 11 12  1  0  0  0  0
 11 13  1  0  0  0  0
 11 14  1  0  0  0  0
 14 15  2  0  0  0  0
 14 28  1  0  0  0  0
 15 16  1  0  0  0  0
 15 17  1  0  0  0  0
 17 18  1  0  0  0  0
 17 19  1  0  0  0  0
 19 20  1  0  0  0  0
 19 28  2  0  0  0  0
 20 21  1  0  0  0  0
 20 22  2  0  0  0  0
 22 23  1  0  0  0  0
 22 24  1  0  0  0  0
 24 25  1  0  0  0  0
 24 26  2  0  0  0  0
 26 27  1  0  0  0  0
 26 28  1  0  0  0  0
 29 30  2  0  0  0  0
 29 31  1  0  0  0  0
 31 32  1  0  0  0  0
 31 33  1  0  0  0  0
 33 34  1  0  0  0  0
 33 35  1  0  0  0  0
 33 36  1  0  0  0  0
M  END
$$$$

  -OEChem-01062216103D

 36 37  0     1  0  0  0  0  0999 V2000
   -3.4667   -2.6184    0.4776 H   0  0  0  0  0  0  0  0  0  0  0  0
   -3.5095   -1.8022   -0.2490 C   0  0  0  0  0  0  0  0  0  0  0  0
   -4.2175   -1.0507    0.1090 H   0  0  0  0  0  0  0  0  0  0  0  0
   -3.8579   -2.1990   -1.2053 H   0  0  0  0  0  0  0  0  0  0  0  0
   -2.1361   -1.1796   -0.4147 C   0  0  0  0  0  0  0  0  0  0  0  0
   -1.1878   -1.6386    0.2019 O   0  0  0  0  0  0  0  0  0  0  0  0
   -1.9788   -0.1035   -1.2664 N   0  0  0  0  0  0  0  0  0  0  0  0
   -2.8492    0.3270   -1.5594 H   0  0  0  0  0  0  0  0  0  0  0  0
   -0.7998    0.7805   -1.1808 C   0  0  1  0  0  0  0  0  0  0  0  0
    0.0673    0.2311   -0.7984 H   0  0  0  0  0  0  0  0  0  0  0  0
   -0.4597    1.2661   -2.6049 C   0  0  0  0  0  0  0  0  0  0  0  0
   -1.3453    1.7300   -3.0507 H   0  0  0  0  0  0  0  0  0  0  0  0
    0.3305    2.0212   -2.5810 H   0  0  0  0  0  0  0  0  0  0  0  0
    0.0157    0.1324   -3.4751 C   0  0  0  0  0  0  0  0  0  0  0  0
   -0.7425   -0.5906   -4.3643 C   0  0  0  0  0  0  0  0  0  0  0  0
   -1.8017   -0.4416   -4.5588 H   0  0  0  0  0  0  0  0  0  0  0  0
    0.0905   -1.5370   -4.9574 N   0  0  0  0  0  0  0  0  0  0  0  0
   -0.1985   -2.2289   -5.6455 H   0  0  0  0  0  0  0  0  0  0  0  0
    1.3755   -1.4339   -4.4495 C   0  0  0  0  0  0  0  0  0  0  0  0
    2.5406   -2.1526   -4.7176 C   0  0  0  0  0  0  0  0  0  0  0  0
    2.5319   -2.9560   -5.4455 H   0  0  0  0  0  0  0  0  0  0  0  0
    3.7184   -1.8249   -4.0313 C   0  0  0  0  0  0  0  0  0  0  0  0
    4.6321   -2.3778   -4.2276 H   0  0  0  0  0  0  0  0  0  0  0  0
    3.7168   -0.7872   -3.0863 C   0  0  0  0  0  0  0  0  0  0  0  0
    4.6292   -0.5399   -2.5518 H   0  0  0  0  0  0  0  0  0  0  0  0
    2.5394   -0.0718   -2.8251 C   0  0  0  0  0  0  0  0  0  0  0  0
    2.5338    0.7252   -2.0897 H   0  0  0  0  0  0  0  0  0  0  0  0
    1.3700   -0.4025   -3.5176 C   0  0  0  0  0  0  0  0  0  0  0  0
   -1.0475    1.9671   -0.2118 C   0  0  0  0  0  0  0  0  0  0  0  0
   -1.9367    1.9043    0.6296 O   0  0  0  0  0  0  0  0  0  0  0  0
   -0.4267    3.1925   -0.3939 N   0  0  0  0  0  0  0  0  0  0  0  0
    0.3160    3.2441   -1.0842 H   0  0  0  0  0  0  0  0  0  0  0  0
   -0.6869    4.3581    0.4432 C   0  0  0  0  0  0  0  0  0  0  0  0
   -0.4525    4.1379    1.4901 H   0  0  0  0  0  0  0  0  0  0  0  0
   -0.0685    5.2009    0.1200 H   0  0  0  0  0  0  0  0  0  0  0  0
   -1.7387    4.6545    0.3716 H   0  0  0  0  0  0  0  0  0  0  0  0
  1  2  1  0  0  0  0
  2  3  1  0  0  0  0
  2  4  1  0  0  0  0
  2  5  1  0  0  0  0
  5  6  2  0  0  0  0
  5  7  1  0  0  0  0
  7  8  1  0  0  0  0
  7  9  1  0  0  0  0
  9 10  1  0  0  0  0
  9 11  1  0  0  0  0
  9 29  1  0  0  0  0
 11 12  1  0  0  0  0
 11 13  1  0  0  0  0
 11 14  1  0  0  0  0
 14 15  2  0  0  0  0
 14 28  1  0  0  0  0
 15 16  1  0  0  0  0
 15 17  1  0  0  0  0
 17 18  1  0  0  0  0
 17 19  1  0  0  0  0
 19 20  1  0  0  0  0
 19 28  2  0  0  0  0
 20 21  1  0  0  0  0
 20 22  2  0  0  0  0
 22 23  1  0  0  0  0
 22 24  1  0  0  0  0
 24 25  1  0  0  0  0
 24 26  2  0  0  0  0
 26 27  1  0  0  0  0
 26 28  1  0  0  0  0
 29 30  2  0  0  0  0
 29 31  1  0  0  0  0
 31 32  1  0  0  0  0
 31 33  1  0  0  0  0
 33 34  1  0  0  0  0
 33 35  1  0  0  0  0
 33 36  1  0  0  0  0
M  END
$$$$

  -OEChem-01062216103D

 36 37  0     1  0  0  0  0  0999 V2000
   -3.4638   -2.5991    0.4962 H   0  0  0  0  0  0  0  0  0  0  0  0
   -3.5093   -1.7929   -0.2414 C   0  0  0  0  0  0  0  0  0  0  0  0
   -4.2156   -1.0366    0.1095 H   0  0  0  0  0  0  0  0  0  0  0  0
   -3.8617   -2.2026   -1.1908 H   0  0  0  0  0  0  0  0  0  0  0  0
   -2.1363   -1.1732   -0.4205 C   0  0  0  0  0  0  0  0  0  0  0  0
   -1.1807   -1.6465    0.1730 O   0  0  0  0  0  0  0  0  0  0  0  0
   -1.9857   -0.0954   -1.2720 N   0  0  0  0  0  0  0  0  0  0  0  0
   -2.8568    0.3227   -1.5793 H   0  0  0  0  0  0  0  0  0  0  0  0
   -0.8074    0.7906   -1.1985 C   0  0  1  0  0  0  0  0  0  0  0  0
    0.0601    0.2432   -0.8136 H   0  0  0  0  0  0  0  0  0  0  0  0
   -0.4623    1.2654   -2.6247 C   0  0  0  0  0  0  0  0  0  0  0  0
   -1.3447    1.7278   -3.0785 H   0  0  0  0  0  0  0  0  0  0  0  0
    0.3315    2.0172   -2.5986 H   0  0  0  0  0  0  0  0  0  0  0  0
    0.0161    0.1265   -3.4856 C   0  0  0  0  0  0  0  0  0  0  0  0
   -0.7387   -0.6026   -4.3725 C   0  0  0  0  0  0  0  0  0  0  0  0
   -1.7974   -0.4562   -4.5714 H   0  0  0  0  0  0  0  0  0  0  0  0
    0.0969   -1.5517   -4.9572 N   0  0  0  0  0  0  0  0  0  0  0  0
   -0.1896   -2.2507   -5.6391 H   0  0  0  0  0  0  0  0  0  0  0  0
    1.3803   -1.4435   -4.4466 C   0  0  0  0  0  0  0  0  0  0  0  0
    2.5471   -2.1621   -4.7070 C   0  0  0  0  0  0  0  0  0  0  0  0
    2.5420   -2.9703   -5.4296 H   0  0  0  0  0  0  0  0  0  0  0  0
    3.7227   -1.8281   -4.0199 C   0  0  0  0  0  0  0  0  0  0  0  0
    4.6378   -2.3811   -4.2104 H   0  0  0  0  0  0  0  0  0  0  0  0
    3.7171   -0.7847   -3.0813 C   0  0  0  0  0  0  0  0  0  0  0  0
    4.6274   -0.5335   -2.5455 H   0  0  0  0  0  0  0  0  0  0  0  0
    2.5381   -0.0695   -2.8276 C   0  0  0  0  0  0  0  0  0  0  0  0
    2.5291    0.7317   -2.0968 H   0  0  0  0  0  0  0  0  0  0  0  0
    1.3712   -0.4063   -3.5214 C   0  0  0  0  0  0  0  0  0  0  0  0
   -1.0518    1.9754   -0.2263 C   0  0  0  0  0  0  0  0  0  0  0  0
   -1.7250    1.8160    0.7843 O   0  0  0  0  0  0  0  0  0  0  0  0
   -0.7008    3.2750   -0.5572 N   0  0  0  0  0  0  0  0  0  0  0  0
   -0.1512    3.4137   -1.3993 H   0  0  0  0  0  0  0  0  0  0  0  0
   -0.9814    4.4262    0.2934 C   0  0  0  0  0  0  0  0  0  0  0  0
   -0.5136    4.3006    1.2755 H   0  0  0  0  0  0  0  0  0  0  0  0
   -0.5861    5.3386   -0.1633 H   0  0  0  0  0  0  0  0  0  0  0  0
   -2.0611    4.5483    0.4300 H   0  0  0  0  0  0  0  0  0  0  0  0
  1  2  1  0  0  0  0
  2  3  1  0  0  0  0
  2  4  1  0  0  0  0
  2  5  1  0  0  0  0
  5  6  2  0  0  0  0
  5  7  1  0  0  0  0
  7  8  1  0  0  0  0
  7  9  1  0  0  0  0
  9 10  1  0  0  0  0
  9 11  1  0  0  0  0
  9 29  1  0  0  0  0
 11 12  1  0  0  0  0
 11 13  1  0  0  0  0
 11 14  1  0  0  0  0
 14 15  2  0  0  0  0
 14 28  1  0  0  0  0
 15 16  1  0  0  0  0
 15 17  1  0  0  0  0
 17 18  1  0  0  0  0
 17 19  1  0  0  0  0
 19 20  1  0  0  0  0
 19 28  2  0  0  0  0
 20 21  1  0  0  0  0
 20 22  2  0  0  0  0
 22 23  1  0  0  0  0
 22 24  1  0  0  0  0
 24 25  1  0  0  0  0
 24 26  2  0  0  0  0
 26 27  1  0  0  0  0
 26 28  1  0  0  0  0
 29 30  2  0  0  0  0
 29 31  1  0  0  0  0
 31 32  1  0  0  0  0
 31 33  1  0  0  0  0
 33 34  1  0  0  0  0
 33 35  1  0  0  0  0
 33 36  1  0  0  0  0
M  END
$$$$

  -OEChem-01062216103D

 36 37  0     1  0  0  0  0  0999 V2000
   -3.4724   -2.5952    0.5054 H   0  0  0  0  0  0  0  0  0  0  0  0
   -3.5142   -1.8041   -0.2487 C   0  0  0  0  0  0  0  0  0  0  0  0
   -4.2376   -1.0516    0.0736 H   0  0  0  0  0  0  0  0  0  0  0  0
   -3.8419   -2.2371   -1.1964 H   0  0  0  0  0  0  0  0  0  0  0  0
   -2.1460   -1.1698   -0.4137 C   0  0  0  0  0  0  0  0  0  0  0  0
   -1.1912   -1.6394    0.1828 O   0  0  0  0  0  0  0  0  0  0  0  0
   -1.9967   -0.0932   -1.2673 N   0  0  0  0  0  0  0  0  0  0  0  0
   -2.8645    0.3040   -1.6090 H   0  0  0  0  0  0  0  0  0  0  0  0
   -0.8208    0.7969   -1.2058 C   0  0  1  0  0  0  0  0  0  0  0  0
    0.0474    0.2517   -0.8189 H   0  0  0  0  0  0  0  0  0  0  0  0
   -0.4720    1.2646   -2.6324 C   0  0  0  0  0  0  0  0  0  0  0  0
   -1.3542    1.7196   -3.0938 H   0  0  0  0  0  0  0  0  0  0  0  0
    0.3175    2.0216   -2.6010 H   0  0  0  0  0  0  0  0  0  0  0  0
    0.0122    0.1230   -3.4862 C   0  0  0  0  0  0  0  0  0  0  0  0
   -0.7389   -0.6116   -4.3717 C   0  0  0  0  0  0  0  0  0  0  0  0
   -1.7979   -0.4703   -4.5721 H   0  0  0  0  0  0  0  0  0  0  0  0
    0.1008   -1.5592   -4.9526 N   0  0  0  0  0  0  0  0  0  0  0  0
   -0.1827   -2.2615   -5.6323 H   0  0  0  0  0  0  0  0  0  0  0  0
    1.3836   -1.4449   -4.4410 C   0  0  0  0  0  0  0  0  0  0  0  0
    2.5536   -2.1598   -4.6984 C   0  0  0  0  0  0  0  0  0  0  0  0
    2.5520   -2.9696   -5.4197 H   0  0  0  0  0  0  0  0  0  0  0  0
    3.7271   -1.8201   -4.0102 C   0  0  0  0  0  0  0  0  0  0  0  0
    4.6448   -2.3692   -4.1991 H   0  0  0  0  0  0  0  0  0  0  0  0
    3.7160   -0.7754   -3.0730 C   0  0  0  0  0  0  0  0  0  0  0  0
    4.6243   -0.5197   -2.5358 H   0  0  0  0  0  0  0  0  0  0  0  0
    2.5341   -0.0637   -2.8227 C   0  0  0  0  0  0  0  0  0  0  0  0
    2.5214    0.7391   -2.0932 H   0  0  0  0  0  0  0  0  0  0  0  0
    1.3694   -0.4057   -3.5179 C   0  0  0  0  0  0  0  0  0  0  0  0
   -1.0612    1.9846   -0.2386 C   0  0  0  0  0  0  0  0  0  0  0  0
   -1.4708    1.7831    0.8962 O   0  0  0  0  0  0  0  0  0  0  0  0
   -1.0091    3.3002   -0.6734 N   0  0  0  0  0  0  0  0  0  0  0  0
   -0.6776    3.4710   -1.6174 H   0  0  0  0  0  0  0  0  0  0  0  0
   -1.2885    4.4433    0.1884 C   0  0  0  0  0  0  0  0  0  0  0  0
   -0.6134    4.4476    1.0508 H   0  0  0  0  0  0  0  0  0  0  0  0
   -1.1478    5.3769   -0.3649 H   0  0  0  0  0  0  0  0  0  0  0  0
   -2.3217    4.4079    0.5496 H   0  0  0  0  0  0  0  0  0  0  0  0
  1  2  1  0  0  0  0
  2  3  1  0  0  0  0
  2  4  1  0  0  0  0
  2  5  1  0  0  0  0
  5  6  2  0  0  0  0
  5  7  1  0  0  0  0
  7  8  1  0  0  0  0
  7  9  1  0  0  0  0
  9 10  1  0  0  0  0
  9 11  1  0  0  0  0
  9 29  1  0  0  0  0
 11 12  1  0  0  0  0
 11 13  1  0  0  0  0
 11 14  1  0  0  0  0
 14 15  2  0  0  0  0
 14 28  1  0  0  0  0
 15 16  1  0  0  0  0
 15 17  1  0  0  0  0
 17 18  1  0  0  0  0
 17 19  1  0  0  0  0
 19 20  1  0  0  0  0
 19 28  2  0  0  0  0
 20 21  1  0  0  0  0
 20 22  2  0  0  0  0
 22 23  1  0  0  0  0
 22 24  1  0  0  0  0
 24 25  1  0  0  0  0
 24 26  2  0  0  0  0
 26 27  1  0  0  0  0
 26 28  1  0  0  0  0
 29 30  2  0  0  0  0
 29 31  1  0  0  0  0
 31 32  1  0  0  0  0
 31 33  1  0  0  0  0
 33 34  1  0  0  0  0
 33 35  1  0  0  0  0
 33 36  1  0  0  0  0
M  END
$$$$

  -OEChem-01062216103D

 36 37  0     1  0  0  0  0  0999 V2000
   -3.4859   -2.6202    0.4835 H   0  0  0  0  0  0  0  0  0  0  0  0
   -3.5186   -1.8380   -0.2803 C   0  0  0  0  0  0  0  0  0  0  0  0
   -4.2733   -1.1014    0.0056 H   0  0  0  0  0  0  0  0  0  0  0  0
   -3.7978   -2.2891   -1.2353 H   0  0  0  0  0  0  0  0  0  0  0  0
   -2.1611   -1.1711   -0.3995 C   0  0  0  0  0  0  0  0  0  0  0  0
   -1.2177   -1.6174    0.2304 O   0  0  0  0  0  0  0  0  0  0  0  0
   -2.0080   -0.0951   -1.2528 N   0  0  0  0  0  0  0  0  0  0  0  0
   -2.8661    0.2726   -1.6472 H   0  0  0  0  0  0  0  0  0  0  0  0
   -0.8349    0.7989   -1.2016 C   0  0  1  0  0  0  0  0  0  0  0  0
    0.0350    0.2550   -0.8157 H   0  0  0  0  0  0  0  0  0  0  0  0
   -0.4884    1.2649   -2.6285 C   0  0  0  0  0  0  0  0  0  0  0  0
   -1.3723    1.7123   -3.0936 H   0  0  0  0  0  0  0  0  0  0  0  0
    0.2944    2.0295   -2.5945 H   0  0  0  0  0  0  0  0  0  0  0  0
   -0.0012    0.1227   -3.4805 C   0  0  0  0  0  0  0  0  0  0  0  0
   -0.7471   -0.6185   -4.3657 C   0  0  0  0  0  0  0  0  0  0  0  0
   -1.8061   -0.4837   -4.5702 H   0  0  0  0  0  0  0  0  0  0  0  0
    0.0984   -1.5630   -4.9430 N   0  0  0  0  0  0  0  0  0  0  0  0
   -0.1791   -2.2675   -5.6230 H   0  0  0  0  0  0  0  0  0  0  0  0
    1.3795   -1.4404   -4.4299 C   0  0  0  0  0  0  0  0  0  0  0  0
    2.5529   -2.1501   -4.6845 C   0  0  0  0  0  0  0  0  0  0  0  0
    2.5555   -2.9622   -5.4030 H   0  0  0  0  0  0  0  0  0  0  0  0
    3.7242   -1.8026   -3.9967 C   0  0  0  0  0  0  0  0  0  0  0  0
    4.6449   -2.3473   -4.1835 H   0  0  0  0  0  0  0  0  0  0  0  0
    3.7071   -0.7554   -3.0625 C   0  0  0  0  0  0  0  0  0  0  0  0
    4.6135   -0.4929   -2.5254 H   0  0  0  0  0  0  0  0  0  0  0  0
    2.5214   -0.0491   -2.8149 C   0  0  0  0  0  0  0  0  0  0  0  0
    2.5043    0.7562   -2.0882 H   0  0  0  0  0  0  0  0  0  0  0  0
    1.3588   -0.3990   -3.5097 C   0  0  0  0  0  0  0  0  0  0  0  0
   -1.0676    1.9907   -0.2414 C   0  0  0  0  0  0  0  0  0  0  0  0
   -1.1647    1.8079    0.9631 O   0  0  0  0  0  0  0  0  0  0  0  0
   -1.3236    3.2655   -0.7228 N   0  0  0  0  0  0  0  0  0  0  0  0
   -1.2279    3.4196   -1.7214 H   0  0  0  0  0  0  0  0  0  0  0  0
   -1.5876    4.4103    0.1416 C   0  0  0  0  0  0  0  0  0  0  0  0
   -0.7482    4.5768    0.8250 H   0  0  0  0  0  0  0  0  0  0  0  0
   -1.7277    5.3136   -0.4597 H   0  0  0  0  0  0  0  0  0  0  0  0
   -2.4949    4.2439    0.7318 H   0  0  0  0  0  0  0  0  0  0  0  0
  1  2  1  0  0  0  0
  2  3  1  0  0  0  0
  2  4  1  0  0  0  0
  2  5  1  0  0  0  0
  5  6  2  0  0  0  0
  5  7  1  0  0  0  0
  7  8  1  0  0  0  0
  7  9  1  0  0  0  0
  9 10  1  0  0  0  0
  9 11  1  0  0  0  0
  9 29  1  0  0  0  0
 11 12  1  0  0  0  0
 11 13  1  0  0  0  0
 11 14  1  0  0  0  0
 14 15  2  0  0  0  0
 14 28  1  0  0  0  0
 15 16  1  0  0  0  0
 15 17  1  0  0  0  0
 17 18  1  0  0  0  0
 17 19  1  0  0  0  0
 19 20  1  0  0  0  0
 19 28  2  0  0  0  0
 20 21  1  0  0  0  0
 20 22  2  0  0  0  0
 22 23  1  0  0  0  0
 22 24  1  0  0  0  0
 24 25  1  0  0  0  0
 24 26  2  0  0  0  0
 26 27  1  0  0  0  0
 26 28  1  0  0  0  0
 29 30  2  0  0  0  0
 29 31  1  0  0  0  0
 31 32  1  0  0  0  0
 31 33  1  0  0  0  0
 33 34  1  0  0  0  0
 33 35  1  0  0  0  0
 33 36  1  0  0  0  0
M  END
$$$$

  -OEChem-01062216103D

 36 37  0     1  0  0  0  0  0999 V2000
   -3.4743   -2.6989    0.4157 H   0  0  0  0  0  0  0  0  0  0  0  0
   -3.5034   -1.9070   -0.3383 C   0  0  0  0  0  0  0  0  0  0  0  0
   -4.3051   -1.2100   -0.0833 H   0  0  0  0  0  0  0  0  0  0  0  0
   -3.7120   -2.3561   -1.3120 H   0  0  0  0  0  0  0  0  0  0  0  0
   -2.1736   -1.1776   -0.3775 C   0  0  0  0  0  0  0  0  0  0  0  0
   -1.2564   -1.5677    0.3227 O   0  0  0  0  0  0  0  0  0  0  0  0
   -2.0157   -0.1009   -1.2284 N   0  0  0  0  0  0  0  0  0  0  0  0
   -2.8497    0.2116   -1.7113 H   0  0  0  0  0  0  0  0  0  0  0  0
   -0.8473    0.7995   -1.1899 C   0  0  1  0  0  0  0  0  0  0  0  0
    0.0262    0.2559   -0.8100 H   0  0  0  0  0  0  0  0  0  0  0  0
   -0.5096    1.2740   -2.6153 C   0  0  0  0  0  0  0  0  0  0  0  0
   -1.3970    1.7176   -3.0768 H   0  0  0  0  0  0  0  0  0  0  0  0
    0.2665    2.0457   -2.5786 H   0  0  0  0  0  0  0  0  0  0  0  0
   -0.0208    0.1373   -3.4739 C   0  0  0  0  0  0  0  0  0  0  0  0
   -0.7642   -0.6055   -4.3599 C   0  0  0  0  0  0  0  0  0  0  0  0
   -1.8226   -0.4717   -4.5677 H   0  0  0  0  0  0  0  0  0  0  0  0
    0.0834   -1.5502   -4.9341 N   0  0  0  0  0  0  0  0  0  0  0  0
   -0.1901   -2.2513   -5.6190 H   0  0  0  0  0  0  0  0  0  0  0  0
    1.3628   -1.4281   -4.4161 C   0  0  0  0  0  0  0  0  0  0  0  0
    2.5377   -2.1388   -4.6631 C   0  0  0  0  0  0  0  0  0  0  0  0
    2.5443   -2.9524   -5.3798 H   0  0  0  0  0  0  0  0  0  0  0  0
    3.7054   -1.7912   -3.9689 C   0  0  0  0  0  0  0  0  0  0  0  0
    4.6266   -2.3375   -4.1484 H   0  0  0  0  0  0  0  0  0  0  0  0
    3.6839   -0.7423   -3.0366 C   0  0  0  0  0  0  0  0  0  0  0  0
    4.5871   -0.4802   -2.4935 H   0  0  0  0  0  0  0  0  0  0  0  0
    2.4972   -0.0346   -2.7970 C   0  0  0  0  0  0  0  0  0  0  0  0
    2.4759    0.7717   -2.0711 H   0  0  0  0  0  0  0  0  0  0  0  0
    1.3385   -0.3853   -3.4977 C   0  0  0  0  0  0  0  0  0  0  0  0
   -1.0720    1.9953   -0.2364 C   0  0  0  0  0  0  0  0  0  0  0  0
   -0.7995    1.9108    0.9514 O   0  0  0  0  0  0  0  0  0  0  0  0
   -1.6324    3.1768   -0.6964 N   0  0  0  0  0  0  0  0  0  0  0  0
   -1.8213    3.2532   -1.6902 H   0  0  0  0  0  0  0  0  0  0  0  0
   -1.8587    4.3392    0.1546 C   0  0  0  0  0  0  0  0  0  0  0  0
   -0.9141    4.6902    0.5836 H   0  0  0  0  0  0  0  0  0  0  0  0
   -2.2979    5.1545   -0.4281 H   0  0  0  0  0  0  0  0  0  0  0  0
   -2.5449    4.0888    0.9706 H   0  0  0  0  0  0  0  0  0  0  0  0
  1  2  1  0  0  0  0
  2  3  1  0  0  0  0
  2  4  1  0  0  0  0
  2  5  1  0  0  0  0
  5  6  2  0  0  0  0
  5  7  1  0  0  0  0
  7  8  1  0  0  0  0
  7  9  1  0  0  0  0
  9 10  1  0  0  0  0
  9 11  1  0  0  0  0
  9 29  1  0  0  0  0
 11 12  1  0  0  0  0
 11 13  1  0  0  0  0
 11 14  1  0  0  0  0
 14 15  2  0  0  0  0
 14 28  1  0  0  0  0
 15 16  1  0  0  0  0
 15 17  1  0  0  0  0
 17 18  1  0  0  0  0
 17 19  1  0  0  0  0
 19 20  1  0  0  0  0
 19 28  2  0  0  0  0
 20 21  1  0  0  0  0
 20 22  2  0  0  0  0
 22 23  1  0  0  0  0
 22 24  1  0  0  0  0
 24 25  1  0  0  0  0
 24 26  2  0  0  0  0
 26 27  1  0  0  0  0
 26 28  1  0  0  0  0
 29 30  2  0  0  0  0
 29 31  1  0  0  0  0
 31 32  1  0  0  0  0
 31 33  1  0  0  0  0
 33 34  1  0  0  0  0
 33 35  1  0  0  0  0
 33 36  1  0  0  0  0
M  END
$$$$

  -OEChem-01062216103D

 36 37  0     1  0  0  0  0  0999 V2000
   -3.3073   -2.9045    0.2000 H   0  0  0  0  0  0  0  0  0  0  0  0
   -3.3513   -2.0930   -0.5321 C   0  0  0  0  0  0  0  0  0  0  0  0
   -4.3026   -1.5677   -0.4180 H   0  0  0  0  0  0  0  0  0  0  0  0
   -3.2943   -2.5218   -1.5353 H   0  0  0  0  0  0  0  0  0  0  0  0
   -2.1985   -1.1316   -0.3127 C   0  0  0  0  0  0  0  0  0  0  0  0
   -1.4300   -1.3132    0.6137 O   0  0  0  0  0  0  0  0  0  0  0  0
   -2.0354   -0.0628   -1.1709 N   0  0  0  0  0  0  0  0  0  0  0  0
   -2.6394   -0.0431   -1.9836 H   0  0  0  0  0  0  0  0  0  0  0  0
   -0.8631    0.8312   -1.1463 C   0  0  1  0  0  0  0  0  0  0  0  0
    0.0086    0.2783   -0.7756 H   0  0  0  0  0  0  0  0  0  0  0  0
   -0.5411    1.3153   -2.5706 C   0  0  0  0  0  0  0  0  0  0  0  0
   -1.4298    1.7720   -3.0162 H   0  0  0  0  0  0  0  0  0  0  0  0
    0.2408    2.0815   -2.5354 H   0  0  0  0  0  0  0  0  0  0  0  0
   -0.0712    0.1796   -3.4412 C   0  0  0  0  0  0  0  0  0  0  0  0
   -0.8281   -0.5547   -4.3239 C   0  0  0  0  0  0  0  0  0  0  0  0
   -1.8818   -0.3997   -4.5407 H   0  0  0  0  0  0  0  0  0  0  0  0
    0.0020   -1.5192   -4.8903 N   0  0  0  0  0  0  0  0  0  0  0  0
   -0.2778   -2.2073   -5.5864 H   0  0  0  0  0  0  0  0  0  0  0  0
    1.2825   -1.4191   -4.3700 C   0  0  0  0  0  0  0  0  0  0  0  0
    2.4442   -2.1524   -4.6114 C   0  0  0  0  0  0  0  0  0  0  0  0
    2.4379   -2.9675   -5.3263 H   0  0  0  0  0  0  0  0  0  0  0  0
    3.6167   -1.8236   -3.9162 C   0  0  0  0  0  0  0  0  0  0  0  0
    4.5283   -2.3869   -4.0921 H   0  0  0  0  0  0  0  0  0  0  0  0
    3.6132   -0.7700   -2.9889 C   0  0  0  0  0  0  0  0  0  0  0  0
    4.5205   -0.5208   -2.4467 H   0  0  0  0  0  0  0  0  0  0  0  0
    2.4400   -0.0386   -2.7554 C   0  0  0  0  0  0  0  0  0  0  0  0
    2.4322    0.7723   -2.0337 H   0  0  0  0  0  0  0  0  0  0  0  0
    1.2768   -0.3708   -3.4579 C   0  0  0  0  0  0  0  0  0  0  0  0
   -1.0641    2.0379   -0.2040 C   0  0  0  0  0  0  0  0  0  0  0  0
   -0.3893    2.1594    0.8079 O   0  0  0  0  0  0  0  0  0  0  0  0
   -1.8860    3.0896   -0.5761 N   0  0  0  0  0  0  0  0  0  0  0  0
   -2.4406    2.9759   -1.4173 H   0  0  0  0  0  0  0  0  0  0  0  0
   -2.0657    4.2894    0.2326 C   0  0  0  0  0  0  0  0  0  0  0  0
   -1.1234    4.8418    0.3118 H   0  0  0  0  0  0  0  0  0  0  0  0
   -2.8140    4.9446   -0.2234 H   0  0  0  0  0  0  0  0  0  0  0  0
   -2.4055    4.0263    1.2400 H   0  0  0  0  0  0  0  0  0  0  0  0
  1  2  1  0  0  0  0
  2  3  1  0  0  0  0
  2  4  1  0  0  0  0
  2  5  1  0  0  0  0
  5  6  2  0  0  0  0
  5  7  1  0  0  0  0
  7  8  1  0  0  0  0
  7  9  1  0  0  0  0
  9 10  1  0  0  0  0
  9 11  1  0  0  0  0
  9 29  1  0  0  0  0
 11 12  1  0  0  0  0
 11 13  1  0  0  0  0
 11 14  1  0  0  0  0
 14 15  2  0  0  0  0
 14 28  1  0  0  0  0
 15 16  1  0  0  0  0
 15 17  1  0  0  0  0
 17 18  1  0  0  0  0
 17 19  1  0  0  0  0
 19 20  1  0  0  0  0
 19 28  2  0  0  0  0
 20 21  1  0  0  0  0
 20 22  2  0  0  0  0
 22 23  1  0  0  0  0
 22 24  1  0  0  0  0
 24 25  1  0  0  0  0
 24 26  2  0  0  0  0
 26 27  1  0  0  0  0
 26 28  1  0  0  0  0
 29 30  2  0  0  0  0
 29 31  1  0  0  0  0
 31 32  1  0  0  0  0
 31 33  1  0  0  0  0
 33 34  1  0  0  0  0
 33 35  1  0  0  0  0
 33 36  1  0  0  0  0
M  END
$$$$

  -OEChem-01062216103D

 36 37  0     1  0  0  0  0  0999 V2000
   -3.2215   -2.9529    0.1695 H   0  0  0  0  0  0  0  0  0  0  0  0
   -3.2411   -2.1819   -0.6061 C   0  0  0  0  0  0  0  0  0  0  0  0
   -4.2420   -1.7455   -0.6433 H   0  0  0  0  0  0  0  0  0  0  0  0
   -3.0147   -2.6470   -1.5686 H   0  0  0  0  0  0  0  0  0  0  0  0
   -2.2167   -1.1068   -0.2972 C   0  0  0  0  0  0  0  0  0  0  0  0
   -1.5466   -1.1814    0.7167 O   0  0  0  0  0  0  0  0  0  0  0  0
   -2.0617   -0.0458   -1.1660 N   0  0  0  0  0  0  0  0  0  0  0  0
   -2.5321   -0.1490   -2.0575 H   0  0  0  0  0  0  0  0  0  0  0  0
   -0.8808    0.8364   -1.1273 C   0  0  1  0  0  0  0  0  0  0  0  0
   -0.0154    0.2728   -0.7579 H   0  0  0  0  0  0  0  0  0  0  0  0
   -0.5545    1.3361   -2.5440 C   0  0  0  0  0  0  0  0  0  0  0  0
   -1.4384    1.8102   -2.9814 H   0  0  0  0  0  0  0  0  0  0  0  0
    0.2354    2.0938   -2.4991 H   0  0  0  0  0  0  0  0  0  0  0  0
   -0.0963    0.2045   -3.4270 C   0  0  0  0  0  0  0  0  0  0  0  0
   -0.8585   -0.5135   -4.3189 C   0  0  0  0  0  0  0  0  0  0  0  0
   -1.9079   -0.3405   -4.5437 H   0  0  0  0  0  0  0  0  0  0  0  0
   -0.0384   -1.4867   -4.8861 N   0  0  0  0  0  0  0  0  0  0  0  0
   -0.3206   -2.1603   -5.5956 H   0  0  0  0  0  0  0  0  0  0  0  0
    1.2409   -1.4067   -4.3589 C   0  0  0  0  0  0  0  0  0  0  0  0
    2.3955   -2.1519   -4.5999 C   0  0  0  0  0  0  0  0  0  0  0  0
    2.3840   -2.9616   -5.3207 H   0  0  0  0  0  0  0  0  0  0  0  0
    3.5680   -1.8420   -3.8958 C   0  0  0  0  0  0  0  0  0  0  0  0
    4.4746   -2.4135   -4.0717 H   0  0  0  0  0  0  0  0  0  0  0  0
    3.5715   -0.7963   -2.9598 C   0  0  0  0  0  0  0  0  0  0  0  0
    4.4784   -0.5615   -2.4107 H   0  0  0  0  0  0  0  0  0  0  0  0
    2.4061   -0.0525   -2.7274 C   0  0  0  0  0  0  0  0  0  0  0  0
    2.4047    0.7543   -2.0009 H   0  0  0  0  0  0  0  0  0  0  0  0
    1.2433   -0.3651   -3.4393 C   0  0  0  0  0  0  0  0  0  0  0  0
   -1.0674    2.0456   -0.1887 C   0  0  0  0  0  0  0  0  0  0  0  0
   -0.1885    2.3489    0.6062 O   0  0  0  0  0  0  0  0  0  0  0  0
   -2.0923    2.9484   -0.4164 N   0  0  0  0  0  0  0  0  0  0  0  0
   -2.8377    2.6485   -1.0354 H   0  0  0  0  0  0  0  0  0  0  0  0
   -2.2793    4.1550    0.3802 C   0  0  0  0  0  0  0  0  0  0  0  0
   -1.4050    4.8092    0.2956 H   0  0  0  0  0  0  0  0  0  0  0  0
   -3.1572    4.7070    0.0313 H   0  0  0  0  0  0  0  0  0  0  0  0
   -2.4264    3.8985    1.4346 H   0  0  0  0  0  0  0  0  0  0  0  0
  1  2  1  0  0  0  0
  2  3  1  0  0  0  0
  2  4  1  0  0  0  0
  2  5  1  0  0  0  0
  5  6  2  0  0  0  0
  5  7  1  0  0  0  0
  7  8  1  0  0  0  0
  7  9  1  0  0  0  0
  9 10  1  0  0  0  0
  9 11  1  0  0  0  0
  9 29  1  0  0  0  0
 11 12  1  0  0  0  0
 11 13  1  0  0  0  0
 11 14  1  0  0  0  0
 14 15  2  0  0  0  0
 14 28  1  0  0  0  0
 15 16  1  0  0  0  0
 15 17  1  0  0  0  0
 17 18  1  0  0  0  0
 17 19  1  0  0  0  0
 19 20  1  0  0  0  0
 19 28  2  0  0  0  0
 20 21  1  0  0  0  0
 20 22  2  0  0  0  0
 22 23  1  0  0  0  0
 22 24  1  0  0  0  0
 24 25  1  0  0  0  0
 24 26  2  0  0  0  0
 26 27  1  0  0  0  0
 26 28  1  0  0  0  0
 29 30  2  0  0  0  0
 29 31  1  0  0  0  0
 31 32  1  0  0  0  0
 31 33  1  0  0  0  0
 33 34  1  0  0  0  0
 33 35  1  0  0  0  0
 33 36  1  0  0  0  0
M  END
$$$$

  -OEChem-01062216103D

 36 37  0     1  0  0  0  0  0999 V2000
   -3.2080   -2.9541    0.1732 H   0  0  0  0  0  0  0  0  0  0  0  0
   -3.2154   -2.1982   -0.6173 C   0  0  0  0  0  0  0  0  0  0  0  0
   -4.2229   -1.7835   -0.6980 H   0  0  0  0  0  0  0  0  0  0  0  0
   -2.9457   -2.6767   -1.5617 H   0  0  0  0  0  0  0  0  0  0  0  0
   -2.2242   -1.0968   -0.2927 C   0  0  0  0  0  0  0  0  0  0  0  0
   -1.5921   -1.1348    0.7477 O   0  0  0  0  0  0  0  0  0  0  0  0
   -2.0635   -0.0423   -1.1682 N   0  0  0  0  0  0  0  0  0  0  0  0
   -2.4915   -0.1761   -2.0774 H   0  0  0  0  0  0  0  0  0  0  0  0
   -0.8773    0.8336   -1.1163 C   0  0  1  0  0  0  0  0  0  0  0  0
   -0.0155    0.2677   -0.7423 H   0  0  0  0  0  0  0  0  0  0  0  0
   -0.5476    1.3420   -2.5285 C   0  0  0  0  0  0  0  0  0  0  0  0
   -1.4293    1.8260   -2.9603 H   0  0  0  0  0  0  0  0  0  0  0  0
    0.2468    2.0946   -2.4783 H   0  0  0  0  0  0  0  0  0  0  0  0
   -0.0946    0.2146   -3.4195 C   0  0  0  0  0  0  0  0  0  0  0  0
   -0.8614   -0.4918   -4.3167 C   0  0  0  0  0  0  0  0  0  0  0  0
   -1.9091   -0.3083   -4.5416 H   0  0  0  0  0  0  0  0  0  0  0  0
   -0.0481   -1.4665   -4.8906 N   0  0  0  0  0  0  0  0  0  0  0  0
   -0.3330   -2.1294   -5.6091 H   0  0  0  0  0  0  0  0  0  0  0  0
    1.2313   -1.3993   -4.3617 C   0  0  0  0  0  0  0  0  0  0  0  0
    2.3809   -2.1505   -4.6073 C   0  0  0  0  0  0  0  0  0  0  0  0
    2.3648   -2.9548   -5.3342 H   0  0  0  0  0  0  0  0  0  0  0  0
    3.5551   -1.8538   -3.9003 C   0  0  0  0  0  0  0  0  0  0  0  0
    4.4575   -2.4307   -4.0796 H   0  0  0  0  0  0  0  0  0  0  0  0
    3.5658   -0.8138   -2.9580 C   0  0  0  0  0  0  0  0  0  0  0  0
    4.4745   -0.5885   -2.4079 H   0  0  0  0  0  0  0  0  0  0  0  0
    2.4054   -0.0633   -2.7214 C   0  0  0  0  0  0  0  0  0  0  0  0
    2.4090    0.7405   -1.9913 H   0  0  0  0  0  0  0  0  0  0  0  0
    1.2407   -0.3641   -3.4350 C   0  0  0  0  0  0  0  0  0  0  0  0
   -1.0661    2.0465   -0.1842 C   0  0  0  0  0  0  0  0  0  0  0  0
   -0.1080    2.5077    0.4215 O   0  0  0  0  0  0  0  0  0  0  0  0
   -2.2416    2.7759   -0.2280 N   0  0  0  0  0  0  0  0  0  0  0  0
   -3.0354    2.3228   -0.6683 H   0  0  0  0  0  0  0  0  0  0  0  0
   -2.4726    3.9555    0.5965 C   0  0  0  0  0  0  0  0  0  0  0  0
   -1.7361    4.7331    0.3680 H   0  0  0  0  0  0  0  0  0  0  0  0
   -3.4710    4.3606    0.4067 H   0  0  0  0  0  0  0  0  0  0  0  0
   -2.3978    3.7009    1.6590 H   0  0  0  0  0  0  0  0  0  0  0  0
  1  2  1  0  0  0  0
  2  3  1  0  0  0  0
  2  4  1  0  0  0  0
  2  5  1  0  0  0  0
  5  6  2  0  0  0  0
  5  7  1  0  0  0  0
  7  8  1  0  0  0  0
  7  9  1  0  0  0  0
  9 10  1  0  0  0  0
  9 11  1  0  0  0  0
  9 29  1  0  0  0  0
 11 12  1  0  0  0  0
 11 13  1  0  0  0  0
 11 14  1  0  0  0  0
 14 15  2  0  0  0  0
 14 28  1  0  0  0  0
 15 16  1  0  0  0  0
 15 17  1  0  0  0  0
 17 18  1  0  0  0  0
 17 19  1  0  0  0  0
 19 20  1  0  0  0  0
 19 28  2  0  0  0  0
 20 21  1  0  0  0  0
 20 22  2  0  0  0  0
 22 23  1  0  0  0  0
 22 24  1  0  0  0  0
 24 25  1  0  0  0  0
 24 26  2  0  0  0  0
 26 27  1  0  0  0  0
 26 28  1  0  0  0  0
 29 30  2  0  0  0  0
 29 31  1  0  0  0  0
 31 32  1  0  0  0  0
 31 33  1  0  0  0  0
 33 34  1  0  0  0  0
 33 35  1  0  0  0  0
 33 36  1  0  0  0  0
M  END
$$$$

  -OEChem-01062216103D

 36 37  0     1  0  0  0  0  0999 V2000
   -3.1781   -2.9690    0.1390 H   0  0  0  0  0  0  0  0  0  0  0  0
   -3.1753   -2.2181   -0.6563 C   0  0  0  0  0  0  0  0  0  0  0  0
   -4.1889   -1.8283   -0.7759 H   0  0  0  0  0  0  0  0  0  0  0  0
   -2.8609   -2.6955   -1.5877 H   0  0  0  0  0  0  0  0  0  0  0  0
   -2.2223   -1.0914   -0.3062 C   0  0  0  0  0  0  0  0  0  0  0  0
   -1.6193   -1.1079    0.7519 O   0  0  0  0  0  0  0  0  0  0  0  0
   -2.0631   -0.0345   -1.1783 N   0  0  0  0  0  0  0  0  0  0  0  0
   -2.4698   -0.1784   -2.0960 H   0  0  0  0  0  0  0  0  0  0  0  0
   -0.8769    0.8418   -1.1174 C   0  0  1  0  0  0  0  0  0  0  0  0
   -0.0148    0.2752   -0.7462 H   0  0  0  0  0  0  0  0  0  0  0  0
   -0.5540    1.3537   -2.5305 C   0  0  0  0  0  0  0  0  0  0  0  0
   -1.4383    1.8381   -2.9563 H   0  0  0  0  0  0  0  0  0  0  0  0
    0.2405    2.1065   -2.4851 H   0  0  0  0  0  0  0  0  0  0  0  0
   -0.1039    0.2261   -3.4229 C   0  0  0  0  0  0  0  0  0  0  0  0
   -0.8729   -0.4816   -4.3169 C   0  0  0  0  0  0  0  0  0  0  0  0
   -1.9196   -0.2946   -4.5437 H   0  0  0  0  0  0  0  0  0  0  0  0
   -0.0642   -1.4650   -4.8824 N   0  0  0  0  0  0  0  0  0  0  0  0
   -0.3515   -2.1296   -5.5983 H   0  0  0  0  0  0  0  0  0  0  0  0
    1.2148   -1.4022   -4.3516 C   0  0  0  0  0  0  0  0  0  0  0  0
    2.3604   -2.1630   -4.5872 C   0  0  0  0  0  0  0  0  0  0  0  0
    2.3409   -2.9744   -5.3061 H   0  0  0  0  0  0  0  0  0  0  0  0
    3.5348   -1.8664   -3.8805 C   0  0  0  0  0  0  0  0  0  0  0  0
    4.4340   -2.4505   -4.0524 H   0  0  0  0  0  0  0  0  0  0  0  0
    3.5500   -0.8163   -2.9493 C   0  0  0  0  0  0  0  0  0  0  0  0
    4.4591   -0.5895   -2.4005 H   0  0  0  0  0  0  0  0  0  0  0  0
    2.3935   -0.0569   -2.7224 C   0  0  0  0  0  0  0  0  0  0  0  0
    2.3991    0.7558   -2.0023 H   0  0  0  0  0  0  0  0  0  0  0  0
    1.2283   -0.3592   -3.4339 C   0  0  0  0  0  0  0  0  0  0  0  0
   -1.0622    2.0531   -0.1819 C   0  0  0  0  0  0  0  0  0  0  0  0
   -0.0833    2.6612    0.2309 O   0  0  0  0  0  0  0  0  0  0  0  0
   -2.3197    2.5980    0.0077 N   0  0  0  0  0  0  0  0  0  0  0  0
   -3.1023    2.0075   -0.2555 H   0  0  0  0  0  0  0  0  0  0  0  0
   -2.5632    3.7437    0.8748 C   0  0  0  0  0  0  0  0  0  0  0  0
   -2.0015    4.6160    0.5243 H   0  0  0  0  0  0  0  0  0  0  0  0
   -3.6274    3.9977    0.8759 H   0  0  0  0  0  0  0  0  0  0  0  0
   -2.2586    3.5177    1.9021 H   0  0  0  0  0  0  0  0  0  0  0  0
  1  2  1  0  0  0  0
  2  3  1  0  0  0  0
  2  4  1  0  0  0  0
  2  5  1  0  0  0  0
  5  6  2  0  0  0  0
  5  7  1  0  0  0  0
  7  8  1  0  0  0  0
  7  9  1  0  0  0  0
  9 10  1  0  0  0  0
  9 11  1  0  0  0  0
  9 29  1  0  0  0  0
 11 12  1  0  0  0  0
 11 13  1  0  0  0  0
 11 14  1  0  0  0  0
 14 15  2  0  0  0  0
 14 28  1  0  0  0  0
 15 16  1  0  0  0  0
 15 17  1  0  0  0  0
 17 18  1  0  0  0  0
 17 19  1  0  0  0  0
 19 20  1  0  0  0  0
 19 28  2  0  0  0  0
 20 21  1  0  0  0  0
 20 22  2  0  0  0  0
 22 23  1  0  0  0  0
 22 24  1  0  0  0  0
 24 25  1  0  0  0  0
 24 26  2  0  0  0  0
 26 27  1  0  0  0  0
 26 28  1  0  0  0  0
 29 30  2  0  0  0  0
 29 31  1  0  0  0  0
 31 32  1  0  0  0  0
 31 33  1  0  0  0  0
 33 34  1  0  0  0  0
 33 35  1  0  0  0  0
 33 36  1  0  0  0  0
M  END
$$$$

  -OEChem-01062216103D

 36 37  0     1  0  0  0  0  0999 V2000
   -3.1886   -2.9643    0.1259 H   0  0  0  0  0  0  0  0  0  0  0  0
   -3.1828   -2.2144   -0.6703 C   0  0  0  0  0  0  0  0  0  0  0  0
   -4.1960   -1.8249   -0.7944 H   0  0  0  0  0  0  0  0  0  0  0  0
   -2.8650   -2.6930   -1.5998 H   0  0  0  0  0  0  0  0  0  0  0  0
   -2.2314   -1.0870   -0.3174 C   0  0  0  0  0  0  0  0  0  0  0  0
   -1.6463   -1.0915    0.7511 O   0  0  0  0  0  0  0  0  0  0  0  0
   -2.0680   -0.0289   -1.1871 N   0  0  0  0  0  0  0  0  0  0  0  0
   -2.4781   -0.1636   -2.1047 H   0  0  0  0  0  0  0  0  0  0  0  0
   -0.8818    0.8487   -1.1213 C   0  0  1  0  0  0  0  0  0  0  0  0
   -0.0208    0.2830   -0.7464 H   0  0  0  0  0  0  0  0  0  0  0  0
   -0.5581    1.3525   -2.5387 C   0  0  0  0  0  0  0  0  0  0  0  0
   -1.4435    1.8328   -2.9671 H   0  0  0  0  0  0  0  0  0  0  0  0
    0.2354    2.1068   -2.5008 H   0  0  0  0  0  0  0  0  0  0  0  0
   -0.1055    0.2211   -3.4249 C   0  0  0  0  0  0  0  0  0  0  0  0
   -0.8734   -0.4919   -4.3156 C   0  0  0  0  0  0  0  0  0  0  0  0
   -1.9203   -0.3068   -4.5433 H   0  0  0  0  0  0  0  0  0  0  0  0
   -0.0626   -1.4759   -4.8774 N   0  0  0  0  0  0  0  0  0  0  0  0
   -0.3483   -2.1431   -5.5914 H   0  0  0  0  0  0  0  0  0  0  0  0
    1.2166   -1.4073   -4.3480 C   0  0  0  0  0  0  0  0  0  0  0  0
    2.3639   -2.1656   -4.5826 C   0  0  0  0  0  0  0  0  0  0  0  0
    2.3459   -2.9797   -5.2985 H   0  0  0  0  0  0  0  0  0  0  0  0
    3.5385   -1.8623   -3.8793 C   0  0  0  0  0  0  0  0  0  0  0  0
    4.4392   -2.4444   -4.0501 H   0  0  0  0  0  0  0  0  0  0  0  0
    3.5525   -0.8080   -2.9527 C   0  0  0  0  0  0  0  0  0  0  0  0
    4.4625   -0.5763   -2.4072 H   0  0  0  0  0  0  0  0  0  0  0  0
    2.3943   -0.0508   -2.7265 C   0  0  0  0  0  0  0  0  0  0  0  0
    2.3999    0.7656   -2.0104 H   0  0  0  0  0  0  0  0  0  0  0  0
    1.2286   -0.3603   -3.4345 C   0  0  0  0  0  0  0  0  0  0  0  0
   -1.0674    2.0620   -0.1852 C   0  0  0  0  0  0  0  0  0  0  0  0
   -0.1207    2.8005    0.0557 O   0  0  0  0  0  0  0  0  0  0  0  0
   -2.3292    2.4229    0.2512 N   0  0  0  0  0  0  0  0  0  0  0  0
   -3.0455    1.7102    0.1501 H   0  0  0  0  0  0  0  0  0  0  0  0
   -2.5598    3.5218    1.1798 C   0  0  0  0  0  0  0  0  0  0  0  0
   -2.1883    4.4629    0.7609 H   0  0  0  0  0  0  0  0  0  0  0  0
   -3.6304    3.6320    1.3763 H   0  0  0  0  0  0  0  0  0  0  0  0
   -2.0488    3.3325    2.1297 H   0  0  0  0  0  0  0  0  0  0  0  0
  1  2  1  0  0  0  0
  2  3  1  0  0  0  0
  2  4  1  0  0  0  0
  2  5  1  0  0  0  0
  5  6  2  0  0  0  0
  5  7  1  0  0  0  0
  7  8  1  0  0  0  0
  7  9  1  0  0  0  0
  9 10  1  0  0  0  0
  9 11  1  0  0  0  0
  9 29  1  0  0  0  0
 11 12  1  0  0  0  0
 11 13  1  0  0  0  0
 11 14  1  0  0  0  0
 14 15  2  0  0  0  0
 14 28  1  0  0  0  0
 15 16  1  0  0  0  0
 15 17  1  0  0  0  0
 17 18  1  0  0  0  0
 17 19  1  0  0  0  0
 19 20  1  0  0  0  0
 19 28  2  0  0  0  0
 20 21  1  0  0  0  0
 20 22  2  0  0  0  0
 22 23  1  0  0  0  0
 22 24  1  0  0  0  0
 24 25  1  0  0  0  0
 24 26  2  0  0  0  0
 26 27  1  0  0  0  0
 26 28  1  0  0  0  0
 29 30  2  0  0  0  0
 29 31  1  0  0  0  0
 31 32  1  0  0  0  0
 31 33  1  0  0  0  0
 33 34  1  0  0  0  0
 33 35  1  0  0  0  0
 33 36  1  0  0  0  0
M  END
$$$$

  -OEChem-01062216103D

 36 37  0     1  0  0  0  0  0999 V2000
   -3.1962   -2.9636    0.0917 H   0  0  0  0  0  0  0  0  0  0  0  0
   -3.1876   -2.2094   -0.7004 C   0  0  0  0  0  0  0  0  0  0  0  0
   -4.2005   -1.8202   -0.8274 H   0  0  0  0  0  0  0  0  0  0  0  0
   -2.8646   -2.6823   -1.6311 H   0  0  0  0  0  0  0  0  0  0  0  0
   -2.2396   -1.0827   -0.3363 C   0  0  0  0  0  0  0  0  0  0  0  0
   -1.6756   -1.0789    0.7437 O   0  0  0  0  0  0  0  0  0  0  0  0
   -2.0733   -0.0166   -1.1945 N   0  0  0  0  0  0  0  0  0  0  0  0
   -2.4925   -0.1337   -2.1104 H   0  0  0  0  0  0  0  0  0  0  0  0
   -0.8871    0.8611   -1.1239 C   0  0  1  0  0  0  0  0  0  0  0  0
   -0.0272    0.2935   -0.7503 H   0  0  0  0  0  0  0  0  0  0  0  0
   -0.5640    1.3552   -2.5471 C   0  0  0  0  0  0  0  0  0  0  0  0
   -1.4499    1.8320   -2.9784 H   0  0  0  0  0  0  0  0  0  0  0  0
    0.2297    2.1093   -2.5195 H   0  0  0  0  0  0  0  0  0  0  0  0
   -0.1103    0.2162   -3.4245 C   0  0  0  0  0  0  0  0  0  0  0  0
   -0.8772   -0.5053   -4.3091 C   0  0  0  0  0  0  0  0  0  0  0  0
   -1.9244   -0.3236   -4.5375 H   0  0  0  0  0  0  0  0  0  0  0  0
   -0.0652   -1.4921   -4.8642 N   0  0  0  0  0  0  0  0  0  0  0  0
   -0.3501   -2.1642   -5.5739 H   0  0  0  0  0  0  0  0  0  0  0  0
    1.2149   -1.4158   -4.3381 C   0  0  0  0  0  0  0  0  0  0  0  0
    2.3646   -2.1711   -4.5709 C   0  0  0  0  0  0  0  0  0  0  0  0
    2.3480   -2.9904   -5.2809 H   0  0  0  0  0  0  0  0  0  0  0  0
    3.5407   -1.8572   -3.8747 C   0  0  0  0  0  0  0  0  0  0  0  0
    4.4435   -2.4360   -4.0453 H   0  0  0  0  0  0  0  0  0  0  0  0
    3.5534   -0.7959   -2.9563 C   0  0  0  0  0  0  0  0  0  0  0  0
    4.4646   -0.5555   -2.4168 H   0  0  0  0  0  0  0  0  0  0  0  0
    2.3927   -0.0421   -2.7316 C   0  0  0  0  0  0  0  0  0  0  0  0
    2.3972    0.7809   -2.0231 H   0  0  0  0  0  0  0  0  0  0  0  0
    1.2256   -0.3618   -3.4327 C   0  0  0  0  0  0  0  0  0  0  0  0
   -1.0723    2.0684   -0.1753 C   0  0  0  0  0  0  0  0  0  0  0  0
   -0.2096    2.9348   -0.1008 O   0  0  0  0  0  0  0  0  0  0  0  0
   -2.2598    2.2465    0.5109 N   0  0  0  0  0  0  0  0  0  0  0  0
   -2.8494    1.4206    0.5683 H   0  0  0  0  0  0  0  0  0  0  0  0
   -2.4610    3.3141    1.4825 C   0  0  0  0  0  0  0  0  0  0  0  0
   -2.3076    4.2928    1.0157 H   0  0  0  0  0  0  0  0  0  0  0  0
   -3.4811    3.2785    1.8763 H   0  0  0  0  0  0  0  0  0  0  0  0
   -1.7613    3.2081    2.3181 H   0  0  0  0  0  0  0  0  0  0  0  0
  1  2  1  0  0  0  0
  2  3  1  0  0  0  0
  2  4  1  0  0  0  0
  2  5  1  0  0  0  0
  5  6  2  0  0  0  0
  5  7  1  0  0  0  0
  7  8  1  0  0  0  0
  7  9  1  0  0  0  0
  9 10  1  0  0  0  0
  9 11  1  0  0  0  0
  9 29  1  0  0  0  0
 11 12  1  0  0  0  0
 11 13  1  0  0  0  0
 11 14  1  0  0  0  0
 14 15  2  0  0  0  0
 14 28  1  0  0  0  0
 15 16  1  0  0  0  0
 15 17  1  0  0  0  0
 17 18  1  0  0  0  0
 17 19  1  0  0  0  0
 19 20  1  0  0  0  0
 19 28  2  0  0  0  0
 20 21  1  0  0  0  0
 20 22  2  0  0  0  0
 22 23  1  0  0  0  0
 22 24  1  0  0  0  0
 24 25  1  0  0  0  0
 24 26  2  0  0  0  0
 26 27  1  0  0  0  0
 26 28  1  0  0  0  0
 29 30  2  0  0  0  0
 29 31  1  0  0  0  0
 31 32  1  0  0  0  0
 31 33  1  0  0  0  0
 33 34  1  0  0  0  0
 33 35  1  0  0  0  0
 33 36  1  0  0  0  0
M  END
$$$$

  -OEChem-01062216103D

 36 37  0     1  0  0  0  0  0999 V2000
   -3.2082   -2.9514    0.0709 H   0  0  0  0  0  0  0  0  0  0  0  0
   -3.1970   -2.1914   -0.7156 C   0  0  0  0  0  0  0  0  0  0  0  0
   -4.2084   -1.7964   -0.8381 H   0  0  0  0  0  0  0  0  0  0  0  0
   -2.8783   -2.6591   -1.6504 H   0  0  0  0  0  0  0  0  0  0  0  0
   -2.2426   -1.0723   -0.3453 C   0  0  0  0  0  0  0  0  0  0  0  0
   -1.6936   -1.0644    0.7432 O   0  0  0  0  0  0  0  0  0  0  0  0
   -2.0719    0.0005   -1.1928 N   0  0  0  0  0  0  0  0  0  0  0  0
   -2.5043   -0.0977   -2.1047 H   0  0  0  0  0  0  0  0  0  0  0  0
   -0.8840    0.8758   -1.1216 C   0  0  1  0  0  0  0  0  0  0  0  0
   -0.0258    0.3060   -0.7481 H   0  0  0  0  0  0  0  0  0  0  0  0
   -0.5590    1.3628   -2.5484 C   0  0  0  0  0  0  0  0  0  0  0  0
   -1.4432    1.8406   -2.9820 H   0  0  0  0  0  0  0  0  0  0  0  0
    0.2378    2.1138   -2.5264 H   0  0  0  0  0  0  0  0  0  0  0  0
   -0.1069    0.2176   -3.4195 C   0  0  0  0  0  0  0  0  0  0  0  0
   -0.8767   -0.5060   -4.2999 C   0  0  0  0  0  0  0  0  0  0  0  0
   -1.9243   -0.3238   -4.5262 H   0  0  0  0  0  0  0  0  0  0  0  0
   -0.0678   -1.4971   -4.8524 N   0  0  0  0  0  0  0  0  0  0  0  0
   -0.3549   -2.1698   -5.5607 H   0  0  0  0  0  0  0  0  0  0  0  0
    1.2140   -1.4201   -4.3309 C   0  0  0  0  0  0  0  0  0  0  0  0
    2.3615   -2.1785   -4.5646 C   0  0  0  0  0  0  0  0  0  0  0  0
    2.3405   -3.0017   -5.2700 H   0  0  0  0  0  0  0  0  0  0  0  0
    3.5410   -1.8625   -3.8751 C   0  0  0  0  0  0  0  0  0  0  0  0
    4.4423   -2.4437   -4.0466 H   0  0  0  0  0  0  0  0  0  0  0  0
    3.5594   -0.7948   -2.9639 C   0  0  0  0  0  0  0  0  0  0  0  0
    4.4741   -0.5517   -2.4312 H   0  0  0  0  0  0  0  0  0  0  0  0
    2.4004   -0.0381   -2.7388 C   0  0  0  0  0  0  0  0  0  0  0  0
    2.4099    0.7907   -2.0374 H   0  0  0  0  0  0  0  0  0  0  0  0
    1.2291   -0.3613   -3.4311 C   0  0  0  0  0  0  0  0  0  0  0  0
   -1.0752    2.0738   -0.1592 C   0  0  0  0  0  0  0  0  0  0  0  0
   -0.3614    3.0664   -0.2388 O   0  0  0  0  0  0  0  0  0  0  0  0
   -2.1169    2.0735    0.7500 N   0  0  0  0  0  0  0  0  0  0  0  0
   -2.5194    1.1552    0.9312 H   0  0  0  0  0  0  0  0  0  0  0  0
   -2.2988    3.1191    1.7485 C   0  0  0  0  0  0  0  0  0  0  0  0
   -2.3967    4.0975    1.2666 H   0  0  0  0  0  0  0  0  0  0  0  0
   -3.2063    2.9307    2.3299 H   0  0  0  0  0  0  0  0  0  0  0  0
   -1.4452    3.1476    2.4337 H   0  0  0  0  0  0  0  0  0  0  0  0
  1  2  1  0  0  0  0
  2  3  1  0  0  0  0
  2  4  1  0  0  0  0
  2  5  1  0  0  0  0
  5  6  2  0  0  0  0
  5  7  1  0  0  0  0
  7  8  1  0  0  0  0
  7  9  1  0  0  0  0
  9 10  1  0  0  0  0
  9 11  1  0  0  0  0
  9 29  1  0  0  0  0
 11 12  1  0  0  0  0
 11 13  1  0  0  0  0
 11 14  1  0  0  0  0
 14 15  2  0  0  0  0
 14 28  1  0  0  0  0
 15 16  1  0  0  0  0
 15 17  1  0  0  0  0
 17 18  1  0  0  0  0
 17 19  1  0  0  0  0
 19 20  1  0  0  0  0
 19 28  2  0  0  0  0
 20 21  1  0  0  0  0
 20 22  2  0  0  0  0
 22 23  1  0  0  0  0
 22 24  1  0  0  0  0
 24 25  1  0  0  0  0
 24 26  2  0  0  0  0
 26 27  1  0  0  0  0
 26 28  1  0  0  0  0
 29 30  2  0  0  0  0
 29 31  1  0  0  0  0
 31 32  1  0  0  0  0
 31 33  1  0  0  0  0
 33 34  1  0  0  0  0
 33 35  1  0  0  0  0
 33 36  1  0  0  0  0
M  END
$$$$

  -OEChem-01062216103D

 36 37  0     1  0  0  0  0  0999 V2000
   -3.2203   -2.9303    0.0750 H   0  0  0  0  0  0  0  0  0  0  0  0
   -3.2099   -2.1659   -0.7072 C   0  0  0  0  0  0  0  0  0  0  0  0
   -4.2164   -1.7532   -0.8101 H   0  0  0  0  0  0  0  0  0  0  0  0
   -2.9142   -2.6327   -1.6500 H   0  0  0  0  0  0  0  0  0  0  0  0
   -2.2318   -1.0644   -0.3469 C   0  0  0  0  0  0  0  0  0  0  0  0
   -1.6567   -1.0764    0.7294 O   0  0  0  0  0  0  0  0  0  0  0  0
   -2.0638    0.0140   -1.1880 N   0  0  0  0  0  0  0  0  0  0  0  0
   -2.5285   -0.0579   -2.0863 H   0  0  0  0  0  0  0  0  0  0  0  0
   -0.8765    0.8898   -1.1252 C   0  0  1  0  0  0  0  0  0  0  0  0
   -0.0161    0.3209   -0.7556 H   0  0  0  0  0  0  0  0  0  0  0  0
   -0.5524    1.3727   -2.5539 C   0  0  0  0  0  0  0  0  0  0  0  0
   -1.4366    1.8496   -2.9887 H   0  0  0  0  0  0  0  0  0  0  0  0
    0.2454    2.1225   -2.5347 H   0  0  0  0  0  0  0  0  0  0  0  0
   -0.1015    0.2246   -3.4210 C   0  0  0  0  0  0  0  0  0  0  0  0
   -0.8738   -0.5005   -4.2977 C   0  0  0  0  0  0  0  0  0  0  0  0
   -1.9213   -0.3166   -4.5230 H   0  0  0  0  0  0  0  0  0  0  0  0
   -0.0681   -1.4958   -4.8467 N   0  0  0  0  0  0  0  0  0  0  0  0
   -0.3581   -2.1714   -5.5510 H   0  0  0  0  0  0  0  0  0  0  0  0
    1.2139   -1.4201   -4.3259 C   0  0  0  0  0  0  0  0  0  0  0  0
    2.3588   -2.1834   -4.5560 C   0  0  0  0  0  0  0  0  0  0  0  0
    2.3344   -3.0098   -5.2577 H   0  0  0  0  0  0  0  0  0  0  0  0
    3.5394   -1.8689   -3.8678 C   0  0  0  0  0  0  0  0  0  0  0  0
    4.4380   -2.4550   -4.0361 H   0  0  0  0  0  0  0  0  0  0  0  0
    3.5620   -0.7973   -2.9618 C   0  0  0  0  0  0  0  0  0  0  0  0
    4.4778   -0.5553   -2.4307 H   0  0  0  0  0  0  0  0  0  0  0  0
    2.4058   -0.0355   -2.7401 C   0  0  0  0  0  0  0  0  0  0  0  0
    2.4184    0.7961   -2.0424 H   0  0  0  0  0  0  0  0  0  0  0  0
    1.2331   -0.3575   -3.4306 C   0  0  0  0  0  0  0  0  0  0  0  0
   -1.0743    2.0784   -0.1517 C   0  0  0  0  0  0  0  0  0  0  0  0
   -0.5619    3.1717   -0.3614 O   0  0  0  0  0  0  0  0  0  0  0  0
   -1.8977    1.9290    0.9486 N   0  0  0  0  0  0  0  0  0  0  0  0
   -2.1259    0.9617    1.1845 H   0  0  0  0  0  0  0  0  0  0  0  0
   -2.0654    2.9555    1.9686 C   0  0  0  0  0  0  0  0  0  0  0  0
   -2.4280    3.8863    1.5200 H   0  0  0  0  0  0  0  0  0  0  0  0
   -2.7942    2.6278    2.7160 H   0  0  0  0  0  0  0  0  0  0  0  0
   -1.1139    3.1537    2.4728 H   0  0  0  0  0  0  0  0  0  0  0  0
  1  2  1  0  0  0  0
  2  3  1  0  0  0  0
  2  4  1  0  0  0  0
  2  5  1  0  0  0  0
  5  6  2  0  0  0  0
  5  7  1  0  0  0  0
  7  8  1  0  0  0  0
  7  9  1  0  0  0  0
  9 10  1  0  0  0  0
  9 11  1  0  0  0  0
  9 29  1  0  0  0  0
 11 12  1  0  0  0  0
 11 13  1  0  0  0  0
 11 14  1  0  0  0  0
 14 15  2  0  0  0  0
 14 28  1  0  0  0  0
 15 16  1  0  0  0  0
 15 17  1  0  0  0  0
 17 18  1  0  0  0  0
 17 19  1  0  0  0  0
 19 20  1  0  0  0  0
 19 28  2  0  0  0  0
 20 21  1  0  0  0  0
 20 22  2  0  0  0  0
 22 23  1  0  0  0  0
 22 24  1  0  0  0  0
 24 25  1  0  0  0  0
 24 26  2  0  0  0  0
 26 27  1  0  0  0  0
 26 28  1  0  0  0  0
 29 30  2  0  0  0  0
 29 31  1  0  0  0  0
 31 32  1  0  0  0  0
 31 33  1  0  0  0  0
 33 34  1  0  0  0  0
 33 35  1  0  0  0  0
 33 36  1  0  0  0  0
M  END
$$$$

  -OEChem-01062216103D

 36 37  0     1  0  0  0  0  0999 V2000
   -3.2465   -2.9004    0.1113 H   0  0  0  0  0  0  0  0  0  0  0  0
   -3.2449   -2.1280   -0.6629 C   0  0  0  0  0  0  0  0  0  0  0  0
   -4.2407   -1.6815   -0.7169 H   0  0  0  0  0  0  0  0  0  0  0  0
   -3.0070   -2.5934   -1.6224 H   0  0  0  0  0  0  0  0  0  0  0  0
   -2.2161   -1.0631   -0.3352 C   0  0  0  0  0  0  0  0  0  0  0  0
   -1.5887   -1.1135    0.7113 O   0  0  0  0  0  0  0  0  0  0  0  0
   -2.0466    0.0155   -1.1767 N   0  0  0  0  0  0  0  0  0  0  0  0
   -2.5528   -0.0216   -2.0544 H   0  0  0  0  0  0  0  0  0  0  0  0
   -0.8591    0.8897   -1.1221 C   0  0  1  0  0  0  0  0  0  0  0  0
    0.0037    0.3233   -0.7545 H   0  0  0  0  0  0  0  0  0  0  0  0
   -0.5346    1.3730   -2.5496 C   0  0  0  0  0  0  0  0  0  0  0  0
   -1.4173    1.8529   -2.9835 H   0  0  0  0  0  0  0  0  0  0  0  0
    0.2644    2.1214   -2.5262 H   0  0  0  0  0  0  0  0  0  0  0  0
   -0.0858    0.2261   -3.4183 C   0  0  0  0  0  0  0  0  0  0  0  0
   -0.8616   -0.4948   -4.2950 C   0  0  0  0  0  0  0  0  0  0  0  0
   -1.9099   -0.3089   -4.5152 H   0  0  0  0  0  0  0  0  0  0  0  0
   -0.0587   -1.4892   -4.8495 N   0  0  0  0  0  0  0  0  0  0  0  0
   -0.3521   -2.1621   -5.5549 H   0  0  0  0  0  0  0  0  0  0  0  0
    1.2247   -1.4174   -4.3314 C   0  0  0  0  0  0  0  0  0  0  0  0
    2.3675   -2.1823   -4.5656 C   0  0  0  0  0  0  0  0  0  0  0  0
    2.3396   -3.0077   -5.2680 H   0  0  0  0  0  0  0  0  0  0  0  0
    3.5506   -1.8707   -3.8803 C   0  0  0  0  0  0  0  0  0  0  0  0
    4.4481   -2.4576   -4.0523 H   0  0  0  0  0  0  0  0  0  0  0  0
    3.5774   -0.8008   -2.9722 C   0  0  0  0  0  0  0  0  0  0  0  0
    4.4953   -0.5609   -2.4439 H   0  0  0  0  0  0  0  0  0  0  0  0
    2.4229   -0.0385   -2.7450 C   0  0  0  0  0  0  0  0  0  0  0  0
    2.4395    0.7909   -2.0452 H   0  0  0  0  0  0  0  0  0  0  0  0
    1.2479   -0.3573   -3.4332 C   0  0  0  0  0  0  0  0  0  0  0  0
   -1.0672    2.0735   -0.1465 C   0  0  0  0  0  0  0  0  0  0  0  0
   -0.7851    3.2260   -0.4537 O   0  0  0  0  0  0  0  0  0  0  0  0
   -1.6236    1.8308    1.0945 N   0  0  0  0  0  0  0  0  0  0  0  0
   -1.7373    0.8454    1.3437 H   0  0  0  0  0  0  0  0  0  0  0  0
   -1.7959    2.8494    2.1209 C   0  0  0  0  0  0  0  0  0  0  0  0
   -2.4258    3.6650    1.7507 H   0  0  0  0  0  0  0  0  0  0  0  0
   -2.2766    2.4169    3.0035 H   0  0  0  0  0  0  0  0  0  0  0  0
   -0.8258    3.2600    2.4190 H   0  0  0  0  0  0  0  0  0  0  0  0
  1  2  1  0  0  0  0
  2  3  1  0  0  0  0
  2  4  1  0  0  0  0
  2  5  1  0  0  0  0
  5  6  2  0  0  0  0
  5  7  1  0  0  0  0
  7  8  1  0  0  0  0
  7  9  1  0  0  0  0
  9 10  1  0  0  0  0
  9 11  1  0  0  0  0
  9 29  1  0  0  0  0
 11 12  1  0  0  0  0
 11 13  1  0  0  0  0
 11 14  1  0  0  0  0
 14 15  2  0  0  0  0
 14 28  1  0  0  0  0
 15 16  1  0  0  0  0
 15 17  1  0  0  0  0
 17 18  1  0  0  0  0
 17 19  1  0  0  0  0
 19 20  1  0  0  0  0
 19 28  2  0  0  0  0
 20 21  1  0  0  0  0
 20 22  2  0  0  0  0
 22 23  1  0  0  0  0
 22 24  1  0  0  0  0
 24 25  1  0  0  0  0
 24 26  2  0  0  0  0
 26 27  1  0  0  0  0
 26 28  1  0  0  0  0
 29 30  2  0  0  0  0
 29 31  1  0  0  0  0
 31 32  1  0  0  0  0
 31 33  1  0  0  0  0
 33 34  1  0  0  0  0
 33 35  1  0  0  0  0
 33 36  1  0  0  0  0
M  END
$$$$

  -OEChem-01062216103D

 36 37  0     1  0  0  0  0  0999 V2000
   -3.2547   -2.8660    0.1522 H   0  0  0  0  0  0  0  0  0  0  0  0
   -3.2679   -2.0790   -0.6070 C   0  0  0  0  0  0  0  0  0  0  0  0
   -4.2526   -1.6052   -0.6063 H   0  0  0  0  0  0  0  0  0  0  0  0
   -3.0877   -2.5320   -1.5849 H   0  0  0  0  0  0  0  0  0  0  0  0
   -2.1956   -1.0488   -0.3093 C   0  0  0  0  0  0  0  0  0  0  0  0
   -1.5267   -1.1315    0.7098 O   0  0  0  0  0  0  0  0  0  0  0  0
   -2.0184    0.0260   -1.1541 N   0  0  0  0  0  0  0  0  0  0  0  0
   -2.5655    0.0271   -2.0078 H   0  0  0  0  0  0  0  0  0  0  0  0
   -0.8237    0.8878   -1.1081 C   0  0  1  0  0  0  0  0  0  0  0  0
    0.0373    0.3167   -0.7433 H   0  0  0  0  0  0  0  0  0  0  0  0
   -0.4977    1.3694   -2.5349 C   0  0  0  0  0  0  0  0  0  0  0  0
   -1.3779    1.8556   -2.9678 H   0  0  0  0  0  0  0  0  0  0  0  0
    0.3058    2.1131   -2.5084 H   0  0  0  0  0  0  0  0  0  0  0  0
   -0.0616    0.2198   -3.4070 C   0  0  0  0  0  0  0  0  0  0  0  0
   -0.8470   -0.4919   -4.2828 C   0  0  0  0  0  0  0  0  0  0  0  0
   -1.8963   -0.3002   -4.4935 H   0  0  0  0  0  0  0  0  0  0  0  0
   -0.0521   -1.4848   -4.8513 N   0  0  0  0  0  0  0  0  0  0  0  0
   -0.3546   -2.1531   -5.5572 H   0  0  0  0  0  0  0  0  0  0  0  0
    1.2365   -1.4193   -4.3454 C   0  0  0  0  0  0  0  0  0  0  0  0
    2.3756   -2.1834   -4.5998 C   0  0  0  0  0  0  0  0  0  0  0  0
    2.3387   -3.0014   -5.3106 H   0  0  0  0  0  0  0  0  0  0  0  0
    3.5667   -1.8797   -3.9250 C   0  0  0  0  0  0  0  0  0  0  0  0
    4.4614   -2.4656   -4.1126 H   0  0  0  0  0  0  0  0  0  0  0  0
    3.6050   -0.8183   -3.0077 C   0  0  0  0  0  0  0  0  0  0  0  0
    4.5287   -0.5844   -2.4868 H   0  0  0  0  0  0  0  0  0  0  0  0
    2.4542   -0.0559   -2.7611 C   0  0  0  0  0  0  0  0  0  0  0  0
    2.4802    0.7679   -2.0548 H   0  0  0  0  0  0  0  0  0  0  0  0
    1.2707   -0.3669   -3.4385 C   0  0  0  0  0  0  0  0  0  0  0  0
   -1.0307    2.0688   -0.1333 C   0  0  0  0  0  0  0  0  0  0  0  0
   -0.9972    3.2363   -0.5051 O   0  0  0  0  0  0  0  0  0  0  0  0
   -1.2883    1.7915    1.1948 N   0  0  0  0  0  0  0  0  0  0  0  0
   -1.3455    0.8012    1.4462 H   0  0  0  0  0  0  0  0  0  0  0  0
   -1.5454    2.8062    2.2068 C   0  0  0  0  0  0  0  0  0  0  0  0
   -2.4317    3.3930    1.9443 H   0  0  0  0  0  0  0  0  0  0  0  0
   -1.7179    2.3332    3.1783 H   0  0  0  0  0  0  0  0  0  0  0  0
   -0.6889    3.4820    2.2981 H   0  0  0  0  0  0  0  0  0  0  0  0
  1  2  1  0  0  0  0
  2  3  1  0  0  0  0
  2  4  1  0  0  0  0
  2  5  1  0  0  0  0
  5  6  2  0  0  0  0
  5  7  1  0  0  0  0
  7  8  1  0  0  0  0
  7  9  1  0  0  0  0
  9 10  1  0  0  0  0
  9 11  1  0  0  0  0
  9 29  1  0  0  0  0
 11 12  1  0  0  0  0
 11 13  1  0  0  0  0
 11 14  1  0  0  0  0
 14 15  2  0  0  0  0
 14 28  1  0  0  0  0
 15 16  1  0  0  0  0
 15 17  1  0  0  0  0
 17 18  1  0  0  0  0
 17 19  1  0  0  0  0
 19 20  1  0  0  0  0
 19 28  2  0  0  0  0
 20 21  1  0  0  0  0
 20 22  2  0  0  0  0
 22 23  1  0  0  0  0
 22 24  1  0  0  0  0
 24 25  1  0  0  0  0
 24 26  2  0  0  0  0
 26 27  1  0  0  0  0
 26 28  1  0  0  0  0
 29 30  2  0  0  0  0
 29 31  1  0  0  0  0
 31 32  1  0  0  0  0
 31 33  1  0  0  0  0
 33 34  1  0  0  0  0
 33 35  1  0  0  0  0
 33 36  1  0  0  0  0
M  END
$$$$

  -OEChem-01062216103D

 36 37  0     1  0  0  0  0  0999 V2000
   -3.2556   -2.8199    0.2337 H   0  0  0  0  0  0  0  0  0  0  0  0
   -3.2725   -2.0448   -0.5378 C   0  0  0  0  0  0  0  0  0  0  0  0
   -4.2428   -1.5432   -0.5127 H   0  0  0  0  0  0  0  0  0  0  0  0
   -3.1379   -2.5172   -1.5137 H   0  0  0  0  0  0  0  0  0  0  0  0
   -2.1636   -1.0401   -0.2918 C   0  0  0  0  0  0  0  0  0  0  0  0
   -1.4548   -1.1345    0.6997 O   0  0  0  0  0  0  0  0  0  0  0  0
   -1.9944    0.0269   -1.1486 N   0  0  0  0  0  0  0  0  0  0  0  0
   -2.5769    0.0524   -1.9784 H   0  0  0  0  0  0  0  0  0  0  0  0
   -0.7996    0.8857   -1.1120 C   0  0  1  0  0  0  0  0  0  0  0  0
    0.0651    0.3182   -0.7505 H   0  0  0  0  0  0  0  0  0  0  0  0
   -0.4734    1.3740   -2.5355 C   0  0  0  0  0  0  0  0  0  0  0  0
   -1.3540    1.8620   -2.9661 H   0  0  0  0  0  0  0  0  0  0  0  0
    0.3288    2.1186   -2.5020 H   0  0  0  0  0  0  0  0  0  0  0  0
   -0.0406    0.2294   -3.4154 C   0  0  0  0  0  0  0  0  0  0  0  0
   -0.8306   -0.4727   -4.2944 C   0  0  0  0  0  0  0  0  0  0  0  0
   -1.8783   -0.2723   -4.5033 H   0  0  0  0  0  0  0  0  0  0  0  0
   -0.0430   -1.4684   -4.8676 N   0  0  0  0  0  0  0  0  0  0  0  0
   -0.3514   -2.1338   -5.5737 H   0  0  0  0  0  0  0  0  0  0  0  0
    1.2457   -1.4142   -4.3611 C   0  0  0  0  0  0  0  0  0  0  0  0
    2.3781   -2.1870   -4.6181 C   0  0  0  0  0  0  0  0  0  0  0  0
    2.3335   -3.0025   -5.3312 H   0  0  0  0  0  0  0  0  0  0  0  0
    3.5720   -1.8952   -3.9433 C   0  0  0  0  0  0  0  0  0  0  0  0
    4.4613   -2.4887   -4.1331 H   0  0  0  0  0  0  0  0  0  0  0  0
    3.6200   -0.8361   -3.0237 C   0  0  0  0  0  0  0  0  0  0  0  0
    4.5464   -0.6109   -2.5042 H   0  0  0  0  0  0  0  0  0  0  0  0
    2.4756   -0.0655   -2.7736 C   0  0  0  0  0  0  0  0  0  0  0  0
    2.5093    0.7556   -2.0649 H   0  0  0  0  0  0  0  0  0  0  0  0
    1.2886   -0.3651   -3.4504 C   0  0  0  0  0  0  0  0  0  0  0  0
   -1.0182    2.0657   -0.1427 C   0  0  0  0  0  0  0  0  0  0  0  0
   -1.2309    3.2055   -0.5409 O   0  0  0  0  0  0  0  0  0  0  0  0
   -0.9656    1.8144    1.2142 N   0  0  0  0  0  0  0  0  0  0  0  0
   -0.9459    0.8269    1.4806 H   0  0  0  0  0  0  0  0  0  0  0  0
   -1.2598    2.8157    2.2299 C   0  0  0  0  0  0  0  0  0  0  0  0
   -2.2949    3.1608    2.1390 H   0  0  0  0  0  0  0  0  0  0  0  0
   -1.1214    2.3910    3.2288 H   0  0  0  0  0  0  0  0  0  0  0  0
   -0.5899    3.6756    2.1252 H   0  0  0  0  0  0  0  0  0  0  0  0
  1  2  1  0  0  0  0
  2  3  1  0  0  0  0
  2  4  1  0  0  0  0
  2  5  1  0  0  0  0
  5  6  2  0  0  0  0
  5  7  1  0  0  0  0
  7  8  1  0  0  0  0
  7  9  1  0  0  0  0
  9 10  1  0  0  0  0
  9 11  1  0  0  0  0
  9 29  1  0  0  0  0
 11 12  1  0  0  0  0
 11 13  1  0  0  0  0
 11 14  1  0  0  0  0
 14 15  2  0  0  0  0
 14 28  1  0  0  0  0
 15 16  1  0  0  0  0
 15 17  1  0  0  0  0
 17 18  1  0  0  0  0
 17 19  1  0  0  0  0
 19 20  1  0  0  0  0
 19 28  2  0  0  0  0
 20 21  1  0  0  0  0
 20 22  2  0  0  0  0
 22 23  1  0  0  0  0
 22 24  1  0  0  0  0
 24 25  1  0  0  0  0
 24 26  2  0  0  0  0
 26 27  1  0  0  0  0
 26 28  1  0  0  0  0
 29 30  2  0  0  0  0
 29 31  1  0  0  0  0
 31 32  1  0  0  0  0
 31 33  1  0  0  0  0
 33 34  1  0  0  0  0
 33 35  1  0  0  0  0
 33 36  1  0  0  0  0
M  END
$$$$

  -OEChem-01062216103D

 36 37  0     1  0  0  0  0  0999 V2000
   -3.2707   -2.8040    0.2677 H   0  0  0  0  0  0  0  0  0  0  0  0
   -3.2956   -2.0255   -0.5000 C   0  0  0  0  0  0  0  0  0  0  0  0
   -4.2497   -1.4969   -0.4352 H   0  0  0  0  0  0  0  0  0  0  0  0
   -3.2128   -2.4977   -1.4818 H   0  0  0  0  0  0  0  0  0  0  0  0
   -2.1494   -1.0539   -0.2944 C   0  0  0  0  0  0  0  0  0  0  0  0
   -1.3996   -1.1780    0.6633 O   0  0  0  0  0  0  0  0  0  0  0  0
   -1.9818    0.0107   -1.1541 N   0  0  0  0  0  0  0  0  0  0  0  0
   -2.6219    0.0951   -1.9362 H   0  0  0  0  0  0  0  0  0  0  0  0
   -0.7913    0.8731   -1.1189 C   0  0  1  0  0  0  0  0  0  0  0  0
    0.0773    0.3097   -0.7607 H   0  0  0  0  0  0  0  0  0  0  0  0
   -0.4669    1.3693   -2.5397 C   0  0  0  0  0  0  0  0  0  0  0  0
   -1.3493    1.8543   -2.9701 H   0  0  0  0  0  0  0  0  0  0  0  0
    0.3317    2.1177   -2.5018 H   0  0  0  0  0  0  0  0  0  0  0  0
   -0.0304    0.2294   -3.4234 C   0  0  0  0  0  0  0  0  0  0  0  0
   -0.8190   -0.4711   -4.3046 C   0  0  0  0  0  0  0  0  0  0  0  0
   -1.8680   -0.2734   -4.5099 H   0  0  0  0  0  0  0  0  0  0  0  0
   -0.0291   -1.4628   -4.8819 N   0  0  0  0  0  0  0  0  0  0  0  0
   -0.3381   -2.1296   -5.5862 H   0  0  0  0  0  0  0  0  0  0  0  0
    1.2591   -1.4094   -4.3736 C   0  0  0  0  0  0  0  0  0  0  0  0
    2.3930   -2.1809   -4.6299 C   0  0  0  0  0  0  0  0  0  0  0  0
    2.3514   -2.9944   -5.3457 H   0  0  0  0  0  0  0  0  0  0  0  0
    3.5845   -1.8913   -3.9498 C   0  0  0  0  0  0  0  0  0  0  0  0
    4.4743   -2.4847   -4.1381 H   0  0  0  0  0  0  0  0  0  0  0  0
    3.6291   -0.8358   -3.0260 C   0  0  0  0  0  0  0  0  0  0  0  0
    4.5532   -0.6135   -2.5012 H   0  0  0  0  0  0  0  0  0  0  0  0
    2.4835   -0.0666   -2.7769 C   0  0  0  0  0  0  0  0  0  0  0  0
    2.5135    0.7509   -2.0640 H   0  0  0  0  0  0  0  0  0  0  0  0
    1.2991   -0.3637   -3.4588 C   0  0  0  0  0  0  0  0  0  0  0  0
   -1.0187    2.0536   -0.1548 C   0  0  0  0  0  0  0  0  0  0  0  0
   -1.4773    3.1220   -0.5437 O   0  0  0  0  0  0  0  0  0  0  0  0
   -0.6672    1.8986    1.1720 N   0  0  0  0  0  0  0  0  0  0  0  0
   -0.5023    0.9363    1.4707 H   0  0  0  0  0  0  0  0  0  0  0  0
   -0.9354    2.9078    2.1879 C   0  0  0  0  0  0  0  0  0  0  0  0
   -2.0141    3.0430    2.3175 H   0  0  0  0  0  0  0  0  0  0  0  0
   -0.5045    2.6021    3.1461 H   0  0  0  0  0  0  0  0  0  0  0  0
   -0.4911    3.8672    1.9028 H   0  0  0  0  0  0  0  0  0  0  0  0
  1  2  1  0  0  0  0
  2  3  1  0  0  0  0
  2  4  1  0  0  0  0
  2  5  1  0  0  0  0
  5  6  2  0  0  0  0
  5  7  1  0  0  0  0
  7  8  1  0  0  0  0
  7  9  1  0  0  0  0
  9 10  1  0  0  0  0
  9 11  1  0  0  0  0
  9 29  1  0  0  0  0
 11 12  1  0  0  0  0
 11 13  1  0  0  0  0
 11 14  1  0  0  0  0
 14 15  2  0  0  0  0
 14 28  1  0  0  0  0
 15 16  1  0  0  0  0
 15 17  1  0  0  0  0
 17 18  1  0  0  0  0
 17 19  1  0  0  0  0
 19 20  1  0  0  0  0
 19 28  2  0  0  0  0
 20 21  1  0  0  0  0
 20 22  2  0  0  0  0
 22 23  1  0  0  0  0
 22 24  1  0  0  0  0
 24 25  1  0  0  0  0
 24 26  2  0  0  0  0
 26 27  1  0  0  0  0
 26 28  1  0  0  0  0
 29 30  2  0  0  0  0
 29 31  1  0  0  0  0
 31 32  1  0  0  0  0
 31 33  1  0  0  0  0
 33 34  1  0  0  0  0
 33 35  1  0  0  0  0
 33 36  1  0  0  0  0
M  END
$$$$

  -OEChem-01062216103D

 36 37  0     1  0  0  0  0  0999 V2000
   -3.4152   -2.7008    0.3996 H   0  0  0  0  0  0  0  0  0  0  0  0
   -3.4232   -1.9298   -0.3759 C   0  0  0  0  0  0  0  0  0  0  0  0
   -4.2918   -1.2851   -0.2216 H   0  0  0  0  0  0  0  0  0  0  0  0
   -3.5041   -2.4138   -1.3520 H   0  0  0  0  0  0  0  0  0  0  0  0
   -2.1491   -1.1093   -0.3090 C   0  0  0  0  0  0  0  0  0  0  0  0
   -1.3114   -1.3463    0.5481 O   0  0  0  0  0  0  0  0  0  0  0  0
   -1.9681   -0.0471   -1.1692 N   0  0  0  0  0  0  0  0  0  0  0  0
   -2.7486    0.2232   -1.7588 H   0  0  0  0  0  0  0  0  0  0  0  0
   -0.7823    0.8218   -1.1300 C   0  0  1  0  0  0  0  0  0  0  0  0
    0.0874    0.2633   -0.7679 H   0  0  0  0  0  0  0  0  0  0  0  0
   -0.4515    1.3236   -2.5464 C   0  0  0  0  0  0  0  0  0  0  0  0
   -1.3353    1.8028   -2.9801 H   0  0  0  0  0  0  0  0  0  0  0  0
    0.3401    2.0787   -2.5012 H   0  0  0  0  0  0  0  0  0  0  0  0
   -0.0021    0.1925   -3.4346 C   0  0  0  0  0  0  0  0  0  0  0  0
   -0.7787   -0.5093   -4.3250 C   0  0  0  0  0  0  0  0  0  0  0  0
   -1.8326   -0.3303   -4.5222 H   0  0  0  0  0  0  0  0  0  0  0  0
    0.0300   -1.4756   -4.9200 N   0  0  0  0  0  0  0  0  0  0  0  0
   -0.2695   -2.1415   -5.6290 H   0  0  0  0  0  0  0  0  0  0  0  0
    1.3182   -1.4044   -4.4138 C   0  0  0  0  0  0  0  0  0  0  0  0
    2.4673   -2.1478   -4.6850 C   0  0  0  0  0  0  0  0  0  0  0  0
    2.4407   -2.9502   -5.4139 H   0  0  0  0  0  0  0  0  0  0  0  0
    3.6538   -1.8452   -4.0017 C   0  0  0  0  0  0  0  0  0  0  0  0
    4.5555   -2.4164   -4.2014 H   0  0  0  0  0  0  0  0  0  0  0  0
    3.6780   -0.8058   -3.0589 C   0  0  0  0  0  0  0  0  0  0  0  0
    4.5977   -0.5748   -2.5303 H   0  0  0  0  0  0  0  0  0  0  0  0
    2.5176   -0.0641   -2.7959 C   0  0  0  0  0  0  0  0  0  0  0  0
    2.5319    0.7411   -2.0689 H   0  0  0  0  0  0  0  0  0  0  0  0
    1.3387   -0.3736   -3.4818 C   0  0  0  0  0  0  0  0  0  0  0  0
   -1.0196    2.0089   -0.1785 C   0  0  0  0  0  0  0  0  0  0  0  0
   -1.7394    2.9444   -0.5099 O   0  0  0  0  0  0  0  0  0  0  0  0
   -0.4121    2.0151    1.0623 N   0  0  0  0  0  0  0  0  0  0  0  0
   -0.0021    1.1321    1.3616 H   0  0  0  0  0  0  0  0  0  0  0  0
   -0.6763    3.0354    2.0686 C   0  0  0  0  0  0  0  0  0  0  0  0
   -1.7378    3.0438    2.3379 H   0  0  0  0  0  0  0  0  0  0  0  0
   -0.0909    2.8349    2.9711 H   0  0  0  0  0  0  0  0  0  0  0  0
   -0.4001    4.0258    1.6918 H   0  0  0  0  0  0  0  0  0  0  0  0
  1  2  1  0  0  0  0
  2  3  1  0  0  0  0
  2  4  1  0  0  0  0
  2  5  1  0  0  0  0
  5  6  2  0  0  0  0
  5  7  1  0  0  0  0
  7  8  1  0  0  0  0
  7  9  1  0  0  0  0
  9 10  1  0  0  0  0
  9 11  1  0  0  0  0
  9 29  1  0  0  0  0
 11 12  1  0  0  0  0
 11 13  1  0  0  0  0
 11 14  1  0  0  0  0
 14 15  2  0  0  0  0
 14 28  1  0  0  0  0
 15 16  1  0  0  0  0
 15 17  1  0  0  0  0
 17 18  1  0  0  0  0
 17 19  1  0  0  0  0
 19 20  1  0  0  0  0
 19 28  2  0  0  0  0
 20 21  1  0  0  0  0
 20 22  2  0  0  0  0
 22 23  1  0  0  0  0
 22 24  1  0  0  0  0
 24 25  1  0  0  0  0
 24 26  2  0  0  0  0
 26 27  1  0  0  0  0
 26 28  1  0  0  0  0
 29 30  2  0  0  0  0
 29 31  1  0  0  0  0
 31 32  1  0  0  0  0
 31 33  1  0  0  0  0
 33 34  1  0  0  0  0
 33 35  1  0  0  0  0
 33 36  1  0  0  0  0
M  END
$$$$

  -OEChem-01062216103D

 36 37  0     1  0  0  0  0  0999 V2000
   -3.4507   -2.6819    0.4289 H   0  0  0  0  0  0  0  0  0  0  0  0
   -3.4623   -1.8999   -0.3355 C   0  0  0  0  0  0  0  0  0  0  0  0
   -4.2938   -1.2209   -0.1317 H   0  0  0  0  0  0  0  0  0  0  0  0
   -3.6100   -2.3649   -1.3130 H   0  0  0  0  0  0  0  0  0  0  0  0
   -2.1525   -1.1354   -0.3192 C   0  0  0  0  0  0  0  0  0  0  0  0
   -1.2882   -1.4220    0.4947 O   0  0  0  0  0  0  0  0  0  0  0  0
   -1.9671   -0.0762   -1.1823 N   0  0  0  0  0  0  0  0  0  0  0  0
   -2.7819    0.2550   -1.6894 H   0  0  0  0  0  0  0  0  0  0  0  0
   -0.7834    0.7960   -1.1345 C   0  0  1  0  0  0  0  0  0  0  0  0
    0.0846    0.2376   -0.7680 H   0  0  0  0  0  0  0  0  0  0  0  0
   -0.4477    1.3064   -2.5450 C   0  0  0  0  0  0  0  0  0  0  0  0
   -1.3311    1.7857   -2.9793 H   0  0  0  0  0  0  0  0  0  0  0  0
    0.3410    2.0637   -2.4926 H   0  0  0  0  0  0  0  0  0  0  0  0
    0.0086    0.1816   -3.4369 C   0  0  0  0  0  0  0  0  0  0  0  0
   -0.7637   -0.5161   -4.3338 C   0  0  0  0  0  0  0  0  0  0  0  0
   -1.8184   -0.3396   -4.5295 H   0  0  0  0  0  0  0  0  0  0  0  0
    0.0500   -1.4740   -4.9354 N   0  0  0  0  0  0  0  0  0  0  0  0
   -0.2477   -2.1389   -5.6461 H   0  0  0  0  0  0  0  0  0  0  0  0
    1.3375   -1.4002   -4.4279 C   0  0  0  0  0  0  0  0  0  0  0  0
    2.4900   -2.1354   -4.7060 C   0  0  0  0  0  0  0  0  0  0  0  0
    2.4664   -2.9305   -5.4429 H   0  0  0  0  0  0  0  0  0  0  0  0
    3.6752   -1.8330   -4.0203 C   0  0  0  0  0  0  0  0  0  0  0  0
    4.5798   -2.3974   -4.2267 H   0  0  0  0  0  0  0  0  0  0  0  0
    3.6943   -0.8023   -3.0679 C   0  0  0  0  0  0  0  0  0  0  0  0
    4.6135   -0.5712   -2.5382 H   0  0  0  0  0  0  0  0  0  0  0  0
    2.5300   -0.0691   -2.7977 C   0  0  0  0  0  0  0  0  0  0  0  0
    2.5403    0.7287   -2.0628 H   0  0  0  0  0  0  0  0  0  0  0  0
    1.3526   -0.3774   -3.4869 C   0  0  0  0  0  0  0  0  0  0  0  0
   -1.0241    1.9892   -0.1927 C   0  0  0  0  0  0  0  0  0  0  0  0
   -1.9291    2.7835   -0.4243 O   0  0  0  0  0  0  0  0  0  0  0  0
   -0.2089    2.1782    0.9071 N   0  0  0  0  0  0  0  0  0  0  0  0
    0.4050    1.4052    1.1531 H   0  0  0  0  0  0  0  0  0  0  0  0
   -0.4437    3.2230    1.8952 C   0  0  0  0  0  0  0  0  0  0  0  0
   -1.4211    3.0894    2.3704 H   0  0  0  0  0  0  0  0  0  0  0  0
    0.3269    3.1888    2.6713 H   0  0  0  0  0  0  0  0  0  0  0  0
   -0.4131    4.2106    1.4231 H   0  0  0  0  0  0  0  0  0  0  0  0
  1  2  1  0  0  0  0
  2  3  1  0  0  0  0
  2  4  1  0  0  0  0
  2  5  1  0  0  0  0
  5  6  2  0  0  0  0
  5  7  1  0  0  0  0
  7  8  1  0  0  0  0
  7  9  1  0  0  0  0
  9 10  1  0  0  0  0
  9 11  1  0  0  0  0
  9 29  1  0  0  0  0
 11 12  1  0  0  0  0
 11 13  1  0  0  0  0
 11 14  1  0  0  0  0
 14 15  2  0  0  0  0
 14 28  1  0  0  0  0
 15 16  1  0  0  0  0
 15 17  1  0  0  0  0
 17 18  1  0  0  0  0
 17 19  1  0  0  0  0
 19 20  1  0  0  0  0
 19 28  2  0  0  0  0
 20 21  1  0  0  0  0
 20 22  2  0  0  0  0
 22 23  1  0  0  0  0
 22 24  1  0  0  0  0
 24 25  1  0  0  0  0
 24 26  2  0  0  0  0
 26 27  1  0  0  0  0
 26 28  1  0  0  0  0
 29 30  2  0  0  0  0
 29 31  1  0  0  0  0
 31 32  1  0  0  0  0
 31 33  1  0  0  0  0
 33 34  1  0  0  0  0
 33 35  1  0  0  0  0
 33 36  1  0  0  0  0
M  END
$$$$

  -OEChem-01062216103D

 36 37  0     1  0  0  0  0  0999 V2000
   -3.4856   -2.6586    0.4658 H   0  0  0  0  0  0  0  0  0  0  0  0
   -3.4941   -1.8788   -0.3009 C   0  0  0  0  0  0  0  0  0  0  0  0
   -4.2957   -1.1716   -0.0739 H   0  0  0  0  0  0  0  0  0  0  0  0
   -3.6875   -2.3416   -1.2714 H   0  0  0  0  0  0  0  0  0  0  0  0
   -2.1594   -1.1585   -0.3279 C   0  0  0  0  0  0  0  0  0  0  0  0
   -1.2774   -1.4819    0.4523 O   0  0  0  0  0  0  0  0  0  0  0  0
   -1.9705   -0.1026   -1.1949 N   0  0  0  0  0  0  0  0  0  0  0  0
   -2.8039    0.2699   -1.6396 H   0  0  0  0  0  0  0  0  0  0  0  0
   -0.7881    0.7723   -1.1355 C   0  0  1  0  0  0  0  0  0  0  0  0
    0.0767    0.2142   -0.7608 H   0  0  0  0  0  0  0  0  0  0  0  0
   -0.4473    1.2897   -2.5417 C   0  0  0  0  0  0  0  0  0  0  0  0
   -1.3307    1.7682   -2.9764 H   0  0  0  0  0  0  0  0  0  0  0  0
    0.3396    2.0487   -2.4839 H   0  0  0  0  0  0  0  0  0  0  0  0
    0.0156    0.1715   -3.4376 C   0  0  0  0  0  0  0  0  0  0  0  0
   -0.7522   -0.5223   -4.3412 C   0  0  0  0  0  0  0  0  0  0  0  0
   -1.8076   -0.3498   -4.5363 H   0  0  0  0  0  0  0  0  0  0  0  0
    0.0663   -1.4716   -4.9491 N   0  0  0  0  0  0  0  0  0  0  0  0
   -0.2286   -2.1356   -5.6615 H   0  0  0  0  0  0  0  0  0  0  0  0
    1.3529   -1.3951   -4.4402 C   0  0  0  0  0  0  0  0  0  0  0  0
    2.5092   -2.1220   -4.7239 C   0  0  0  0  0  0  0  0  0  0  0  0
    2.4898   -2.9119   -5.4665 H   0  0  0  0  0  0  0  0  0  0  0  0
    3.6929   -1.8185   -4.0366 C   0  0  0  0  0  0  0  0  0  0  0  0
    4.5998   -2.3770   -4.2476 H   0  0  0  0  0  0  0  0  0  0  0  0
    3.7067   -0.7954   -3.0761 C   0  0  0  0  0  0  0  0  0  0  0  0
    4.6249   -0.5644   -2.5447 H   0  0  0  0  0  0  0  0  0  0  0  0
    2.5384   -0.0709   -2.7996 C   0  0  0  0  0  0  0  0  0  0  0  0
    2.5444    0.7209   -2.0585 H   0  0  0  0  0  0  0  0  0  0  0  0
    1.3626   -0.3798   -3.4910 C   0  0  0  0  0  0  0  0  0  0  0  0
   -1.0339    1.9716   -0.2023 C   0  0  0  0  0  0  0  0  0  0  0  0
   -2.0682    2.6230   -0.3026 O   0  0  0  0  0  0  0  0  0  0  0  0
   -0.0704    2.3535    0.7123 N   0  0  0  0  0  0  0  0  0  0  0  0
    0.7045    1.7116    0.8576 H   0  0  0  0  0  0  0  0  0  0  0  0
   -0.2701    3.4355    1.6678 C   0  0  0  0  0  0  0  0  0  0  0  0
   -1.1287    3.2230    2.3134 H   0  0  0  0  0  0  0  0  0  0  0  0
    0.6169    3.5513    2.2976 H   0  0  0  0  0  0  0  0  0  0  0  0
   -0.4470    4.3808    1.1443 H   0  0  0  0  0  0  0  0  0  0  0  0
  1  2  1  0  0  0  0
  2  3  1  0  0  0  0
  2  4  1  0  0  0  0
  2  5  1  0  0  0  0
  5  6  2  0  0  0  0
  5  7  1  0  0  0  0
  7  8  1  0  0  0  0
  7  9  1  0  0  0  0
  9 10  1  0  0  0  0
  9 11  1  0  0  0  0
  9 29  1  0  0  0  0
 11 12  1  0  0  0  0
 11 13  1  0  0  0  0
 11 14  1  0  0  0  0
 14 15  2  0  0  0  0
 14 28  1  0  0  0  0
 15 16  1  0  0  0  0
 15 17  1  0  0  0  0
 17 18  1  0  0  0  0
 17 19  1  0  0  0  0
 19 20  1  0  0  0  0
 19 28  2  0  0  0  0
 20 21  1  0  0  0  0
 20 22  2  0  0  0  0
 22 23  1  0  0  0  0
 22 24  1  0  0  0  0
 24 25  1  0  0  0  0
 24 26  2  0  0  0  0
 26 27  1  0  0  0  0
 26 28  1  0  0  0  0
 29 30  2  0  0  0  0
 29 31  1  0  0  0  0
 31 32  1  0  0  0  0
 31 33  1  0  0  0  0
 33 34  1  0  0  0  0
 33 35  1  0  0  0  0
 33 36  1  0  0  0  0
M  END
$$$$

  -OEChem-01062216103D

 36 37  0     1  0  0  0  0  0999 V2000
   -3.5060   -2.6405    0.4927 H   0  0  0  0  0  0  0  0  0  0  0  0
   -3.5140   -1.8661   -0.2795 C   0  0  0  0  0  0  0  0  0  0  0  0
   -4.2954   -1.1402   -0.0417 H   0  0  0  0  0  0  0  0  0  0  0  0
   -3.7360   -2.3308   -1.2430 H   0  0  0  0  0  0  0  0  0  0  0  0
   -2.1655   -1.1748   -0.3382 C   0  0  0  0  0  0  0  0  0  0  0  0
   -1.2688   -1.5288    0.4112 O   0  0  0  0  0  0  0  0  0  0  0  0
   -1.9781   -0.1198   -1.2066 N   0  0  0  0  0  0  0  0  0  0  0  0
   -2.8250    0.2832   -1.5965 H   0  0  0  0  0  0  0  0  0  0  0  0
   -0.7972    0.7574   -1.1348 C   0  0  1  0  0  0  0  0  0  0  0  0
    0.0660    0.2011   -0.7538 H   0  0  0  0  0  0  0  0  0  0  0  0
   -0.4522    1.2765   -2.5393 C   0  0  0  0  0  0  0  0  0  0  0  0
   -1.3357    1.7538   -2.9757 H   0  0  0  0  0  0  0  0  0  0  0  0
    0.3324    2.0374   -2.4779 H   0  0  0  0  0  0  0  0  0  0  0  0
    0.0177    0.1622   -3.4374 C   0  0  0  0  0  0  0  0  0  0  0  0
   -0.7458   -0.5307   -4.3455 C   0  0  0  0  0  0  0  0  0  0  0  0
   -1.8028   -0.3646   -4.5387 H   0  0  0  0  0  0  0  0  0  0  0  0
    0.0785   -1.4714   -4.9594 N   0  0  0  0  0  0  0  0  0  0  0  0
   -0.2137   -2.1349   -5.6735 H   0  0  0  0  0  0  0  0  0  0  0  0
    1.3645   -1.3914   -4.4496 C   0  0  0  0  0  0  0  0  0  0  0  0
    2.5244   -2.1112   -4.7370 C   0  0  0  0  0  0  0  0  0  0  0  0
    2.5094   -2.8967   -5.4845 H   0  0  0  0  0  0  0  0  0  0  0  0
    3.7062   -1.8070   -4.0463 C   0  0  0  0  0  0  0  0  0  0  0  0
    4.6162   -2.3601   -4.2590 H   0  0  0  0  0  0  0  0  0  0  0  0
    3.7142   -0.7901   -3.0792 C   0  0  0  0  0  0  0  0  0  0  0  0
    4.6306   -0.5591   -2.5447 H   0  0  0  0  0  0  0  0  0  0  0  0
    2.5422   -0.0725   -2.7998 C   0  0  0  0  0  0  0  0  0  0  0  0
    2.5441    0.7139   -2.0531 H   0  0  0  0  0  0  0  0  0  0  0  0
    1.3680   -0.3820   -3.4939 C   0  0  0  0  0  0  0  0  0  0  0  0
   -1.0470    1.9594   -0.2038 C   0  0  0  0  0  0  0  0  0  0  0  0
   -2.1613    2.4692   -0.1456 O   0  0  0  0  0  0  0  0  0  0  0  0
    0.0012    2.5338    0.4916 N   0  0  0  0  0  0  0  0  0  0  0  0
    0.8846    2.0322    0.4948 H   0  0  0  0  0  0  0  0  0  0  0  0
   -0.1689    3.6580    1.4034 C   0  0  0  0  0  0  0  0  0  0  0  0
   -0.8742    3.4021    2.2011 H   0  0  0  0  0  0  0  0  0  0  0  0
    0.7898    3.9214    1.8606 H   0  0  0  0  0  0  0  0  0  0  0  0
   -0.5468    4.5338    0.8657 H   0  0  0  0  0  0  0  0  0  0  0  0
  1  2  1  0  0  0  0
  2  3  1  0  0  0  0
  2  4  1  0  0  0  0
  2  5  1  0  0  0  0
  5  6  2  0  0  0  0
  5  7  1  0  0  0  0
  7  8  1  0  0  0  0
  7  9  1  0  0  0  0
  9 10  1  0  0  0  0
  9 11  1  0  0  0  0
  9 29  1  0  0  0  0
 11 12  1  0  0  0  0
 11 13  1  0  0  0  0
 11 14  1  0  0  0  0
 14 15  2  0  0  0  0
 14 28  1  0  0  0  0
 15 16  1  0  0  0  0
 15 17  1  0  0  0  0
 17 18  1  0  0  0  0
 17 19  1  0  0  0  0
 19 20  1  0  0  0  0
 19 28  2  0  0  0  0
 20 21  1  0  0  0  0
 20 22  2  0  0  0  0
 22 23  1  0  0  0  0
 22 24  1  0  0  0  0
 24 25  1  0  0  0  0
 24 26  2  0  0  0  0
 26 27  1  0  0  0  0
 26 28  1  0  0  0  0
 29 30  2  0  0  0  0
 29 31  1  0  0  0  0
 31 32  1  0  0  0  0
 31 33  1  0  0  0  0
 33 34  1  0  0  0  0
 33 35  1  0  0  0  0
 33 36  1  0  0  0  0
M  END
$$$$

  -OEChem-01062216103D

 36 37  0     1  0  0  0  0  0999 V2000
   -3.5147   -2.6325    0.4993 H   0  0  0  0  0  0  0  0  0  0  0  0
   -3.5235   -1.8550   -0.2694 C   0  0  0  0  0  0  0  0  0  0  0  0
   -4.2864   -1.1161   -0.0129 H   0  0  0  0  0  0  0  0  0  0  0  0
   -3.7736   -2.3116   -1.2298 H   0  0  0  0  0  0  0  0  0  0  0  0
   -2.1645   -1.1872   -0.3525 C   0  0  0  0  0  0  0  0  0  0  0  0
   -1.2572   -1.5664    0.3712 O   0  0  0  0  0  0  0  0  0  0  0  0
   -1.9798   -0.1298   -1.2191 N   0  0  0  0  0  0  0  0  0  0  0  0
   -2.8344    0.2892   -1.5731 H   0  0  0  0  0  0  0  0  0  0  0  0
   -0.8009    0.7505   -1.1355 C   0  0  1  0  0  0  0  0  0  0  0  0
    0.0622    0.1971   -0.7505 H   0  0  0  0  0  0  0  0  0  0  0  0
   -0.4564    1.2695   -2.5413 C   0  0  0  0  0  0  0  0  0  0  0  0
   -1.3417    1.7424   -2.9784 H   0  0  0  0  0  0  0  0  0  0  0  0
    0.3255    2.0331   -2.4842 H   0  0  0  0  0  0  0  0  0  0  0  0
    0.0181    0.1567   -3.4382 C   0  0  0  0  0  0  0  0  0  0  0  0
   -0.7437   -0.5387   -4.3458 C   0  0  0  0  0  0  0  0  0  0  0  0
   -1.8017   -0.3774   -4.5378 H   0  0  0  0  0  0  0  0  0  0  0  0
    0.0837   -1.4757   -4.9606 N   0  0  0  0  0  0  0  0  0  0  0  0
   -0.2072   -2.1420   -5.6726 H   0  0  0  0  0  0  0  0  0  0  0  0
    1.3695   -1.3914   -4.4515 C   0  0  0  0  0  0  0  0  0  0  0  0
    2.5309   -2.1077   -4.7402 C   0  0  0  0  0  0  0  0  0  0  0  0
    2.5175   -2.8924   -5.4885 H   0  0  0  0  0  0  0  0  0  0  0  0
    3.7121   -1.8013   -4.0498 C   0  0  0  0  0  0  0  0  0  0  0  0
    4.6229   -2.3530   -4.2627 H   0  0  0  0  0  0  0  0  0  0  0  0
    3.7182   -0.7852   -3.0821 C   0  0  0  0  0  0  0  0  0  0  0  0
    4.6345   -0.5532   -2.5480 H   0  0  0  0  0  0  0  0  0  0  0  0
    2.5446   -0.0709   -2.8010 C   0  0  0  0  0  0  0  0  0  0  0  0
    2.5456    0.7135   -2.0524 H   0  0  0  0  0  0  0  0  0  0  0  0
    1.3707   -0.3825   -3.4952 C   0  0  0  0  0  0  0  0  0  0  0  0
   -1.0535    1.9527   -0.2023 C   0  0  0  0  0  0  0  0  0  0  0  0
   -2.1995    2.3174    0.0404 O   0  0  0  0  0  0  0  0  0  0  0  0
    0.0063    2.7155    0.2544 N   0  0  0  0  0  0  0  0  0  0  0  0
    0.9430    2.3601    0.0863 H   0  0  0  0  0  0  0  0  0  0  0  0
   -0.1605    3.8724    1.1254 C   0  0  0  0  0  0  0  0  0  0  0  0
   -0.6699    3.5855    2.0514 H   0  0  0  0  0  0  0  0  0  0  0  0
    0.8155    4.2941    1.3839 H   0  0  0  0  0  0  0  0  0  0  0  0
   -0.7498    4.6473    0.6240 H   0  0  0  0  0  0  0  0  0  0  0  0
  1  2  1  0  0  0  0
  2  3  1  0  0  0  0
  2  4  1  0  0  0  0
  2  5  1  0  0  0  0
  5  6  2  0  0  0  0
  5  7  1  0  0  0  0
  7  8  1  0  0  0  0
  7  9  1  0  0  0  0
  9 10  1  0  0  0  0
  9 11  1  0  0  0  0
  9 29  1  0  0  0  0
 11 12  1  0  0  0  0
 11 13  1  0  0  0  0
 11 14  1  0  0  0  0
 14 15  2  0  0  0  0
 14 28  1  0  0  0  0
 15 16  1  0  0  0  0
 15 17  1  0  0  0  0
 17 18  1  0  0  0  0
 17 19  1  0  0  0  0
 19 20  1  0  0  0  0
 19 28  2  0  0  0  0
 20 21  1  0  0  0  0
 20 22  2  0  0  0  0
 22 23  1  0  0  0  0
 22 24  1  0  0  0  0
 24 25  1  0  0  0  0
 24 26  2  0  0  0  0
 26 27  1  0  0  0  0
 26 28  1  0  0  0  0
 29 30  2  0  0  0  0
 29 31  1  0  0  0  0
 31 32  1  0  0  0  0
 31 33  1  0  0  0  0
 33 34  1  0  0  0  0
 33 35  1  0  0  0  0
 33 36  1  0  0  0  0
M  END
$$$$

  -OEChem-01062216103D

 36 37  0     1  0  0  0  0  0999 V2000
   -3.4579   -2.6403    0.5030 H   0  0  0  0  0  0  0  0  0  0  0  0
   -3.5192   -1.8193   -0.2169 C   0  0  0  0  0  0  0  0  0  0  0  0
   -4.2226   -1.0729    0.1605 H   0  0  0  0  0  0  0  0  0  0  0  0
   -3.8858   -2.2111   -1.1686 H   0  0  0  0  0  0  0  0  0  0  0  0
   -2.1523   -1.1898   -0.4062 C   0  0  0  0  0  0  0  0  0  0  0  0
   -1.1909   -1.6268    0.2075 O   0  0  0  0  0  0  0  0  0  0  0  0
   -2.0057   -0.1209   -1.2673 N   0  0  0  0  0  0  0  0  0  0  0  0
   -2.8781    0.3115   -1.5508 H   0  0  0  0  0  0  0  0  0  0  0  0
   -0.8309    0.7648   -1.1712 C   0  0  1  0  0  0  0  0  0  0  0  0
    0.0775    0.1638   -1.0541 H   0  0  0  0  0  0  0  0  0  0  0  0
   -0.7146    1.5732   -2.4762 C   0  0  0  0  0  0  0  0  0  0  0  0
   -1.6603    2.0912   -2.6658 H   0  0  0  0  0  0  0  0  0  0  0  0
    0.0632    2.3377   -2.3892 H   0  0  0  0  0  0  0  0  0  0  0  0
   -0.3796    0.6821   -3.6435 C   0  0  0  0  0  0  0  0  0  0  0  0
   -1.2692    0.1546   -4.5480 C   0  0  0  0  0  0  0  0  0  0  0  0
   -2.3448    0.3129   -4.5419 H   0  0  0  0  0  0  0  0  0  0  0  0
   -0.5432   -0.6132   -5.4557 N   0  0  0  0  0  0  0  0  0  0  0  0
   -0.9380   -1.1366   -6.2342 H   0  0  0  0  0  0  0  0  0  0  0  0
    0.8053   -0.5883   -5.1377 C   0  0  0  0  0  0  0  0  0  0  0  0
    1.9103   -1.1968   -5.7329 C   0  0  0  0  0  0  0  0  0  0  0  0
    1.7843   -1.8210   -6.6106 H   0  0  0  0  0  0  0  0  0  0  0  0
    3.1826   -0.9935   -5.1799 C   0  0  0  0  0  0  0  0  0  0  0  0
    4.0515   -1.4635   -5.6313 H   0  0  0  0  0  0  0  0  0  0  0  0
    3.3347   -0.1868   -4.0418 C   0  0  0  0  0  0  0  0  0  0  0  0
    4.3214   -0.0343   -3.6150 H   0  0  0  0  0  0  0  0  0  0  0  0
    2.2163    0.4192   -3.4516 C   0  0  0  0  0  0  0  0  0  0  0  0
    2.3310    1.0394   -2.5697 H   0  0  0  0  0  0  0  0  0  0  0  0
    0.9504    0.2119   -4.0101 C   0  0  0  0  0  0  0  0  0  0  0  0
   -0.9180    1.7281    0.0370 C   0  0  0  0  0  0  0  0  0  0  0  0
   -1.9634    1.8425    0.6692 O   0  0  0  0  0  0  0  0  0  0  0  0
    0.1013    2.6311    0.2860 N   0  0  0  0  0  0  0  0  0  0  0  0
    0.9721    2.5019   -0.2202 H   0  0  0  0  0  0  0  0  0  0  0  0
    0.0596    3.6020    1.3727 C   0  0  0  0  0  0  0  0  0  0  0  0
   -0.0350    3.0928    2.3377 H   0  0  0  0  0  0  0  0  0  0  0  0
    0.9777    4.1972    1.3836 H   0  0  0  0  0  0  0  0  0  0  0  0
   -0.7900    4.2815    1.2476 H   0  0  0  0  0  0  0  0  0  0  0  0
  1  2  1  0  0  0  0
  2  3  1  0  0  0  0
  2  4  1  0  0  0  0
  2  5  1  0  0  0  0
  5  6  2  0  0  0  0
  5  7  1  0  0  0  0
  7  8  1  0  0  0  0
  7  9  1  0  0  0  0
  9 10  1  0  0  0  0
  9 11  1  0  0  0  0
  9 29  1  0  0  0  0
 11 12  1  0  0  0  0
 11 13  1  0  0  0  0
 11 14  1  0  0  0  0
 14 15  2  0  0  0  0
 14 28  1  0  0  0  0
 15 16  1  0  0  0  0
 15 17  1  0  0  0  0
 17 18  1  0  0  0  0
 17 19  1  0  0  0  0
 19 20  1  0  0  0  0
 19 28  2  0  0  0  0
 20 21  1  0  0  0  0
 20 22  2  0  0  0  0
 22 23  1  0  0  0  0
 22 24  1  0  0  0  0
 24 25  1  0  0  0  0
 24 26  2  0  0  0  0
 26 27  1  0  0  0  0
 26 28  1  0  0  0  0
 29 30  2  0  0  0  0
 29 31  1  0  0  0  0
 31 32  1  0  0  0  0
 31 33  1  0  0  0  0
 33 34  1  0  0  0  0
 33 35  1  0  0  0  0
 33 36  1  0  0  0  0
M  END
$$$$

  -OEChem-01062216103D

 36 37  0     1  0  0  0  0  0999 V2000
   -3.4523   -2.5799    0.5605 H   0  0  0  0  0  0  0  0  0  0  0  0
   -3.5101   -1.8046   -0.2087 C   0  0  0  0  0  0  0  0  0  0  0  0
   -4.2180   -1.0392    0.1187 H   0  0  0  0  0  0  0  0  0  0  0  0
   -3.8685   -2.2534   -1.1378 H   0  0  0  0  0  0  0  0  0  0  0  0
   -2.1428   -1.1852   -0.4263 C   0  0  0  0  0  0  0  0  0  0  0  0
   -1.1674   -1.6522    0.1414 O   0  0  0  0  0  0  0  0  0  0  0  0
   -2.0079   -0.1068   -1.2789 N   0  0  0  0  0  0  0  0  0  0  0  0
   -2.8851    0.3283   -1.5419 H   0  0  0  0  0  0  0  0  0  0  0  0
   -0.8330    0.7804   -1.1825 C   0  0  1  0  0  0  0  0  0  0  0  0
    0.0768    0.1805   -1.0688 H   0  0  0  0  0  0  0  0  0  0  0  0
   -0.7206    1.5769   -2.4978 C   0  0  0  0  0  0  0  0  0  0  0  0
   -1.6673    2.0922   -2.6901 H   0  0  0  0  0  0  0  0  0  0  0  0
    0.0580    2.3414   -2.4261 H   0  0  0  0  0  0  0  0  0  0  0  0
   -0.3840    0.6763   -3.6580 C   0  0  0  0  0  0  0  0  0  0  0  0
   -1.2717    0.1371   -4.5579 C   0  0  0  0  0  0  0  0  0  0  0  0
   -2.3480    0.2904   -4.5535 H   0  0  0  0  0  0  0  0  0  0  0  0
   -0.5427   -0.6332   -5.4611 N   0  0  0  0  0  0  0  0  0  0  0  0
   -0.9356   -1.1659   -6.2343 H   0  0  0  0  0  0  0  0  0  0  0  0
    0.8053   -0.6016   -5.1431 C   0  0  0  0  0  0  0  0  0  0  0  0
    1.9123   -1.2107   -5.7341 C   0  0  0  0  0  0  0  0  0  0  0  0
    1.7884   -1.8402   -6.6081 H   0  0  0  0  0  0  0  0  0  0  0  0
    3.1837   -1.0010   -5.1814 C   0  0  0  0  0  0  0  0  0  0  0  0
    4.0542   -1.4705   -5.6303 H   0  0  0  0  0  0  0  0  0  0  0  0
    3.3321   -0.1890   -4.0464 C   0  0  0  0  0  0  0  0  0  0  0  0
    4.3177   -0.0332   -3.6181 H   0  0  0  0  0  0  0  0  0  0  0  0
    2.2117    0.4177   -3.4608 C   0  0  0  0  0  0  0  0  0  0  0  0
    2.3243    1.0408   -2.5807 H   0  0  0  0  0  0  0  0  0  0  0  0
    0.9471    0.2061   -4.0206 C   0  0  0  0  0  0  0  0  0  0  0  0
   -0.9115    1.7342    0.0395 C   0  0  0  0  0  0  0  0  0  0  0  0
   -1.8453    1.6624    0.8317 O   0  0  0  0  0  0  0  0  0  0  0  0
   -0.0746    2.8339    0.1355 N   0  0  0  0  0  0  0  0  0  0  0  0
    0.7045    2.8861   -0.5135 H   0  0  0  0  0  0  0  0  0  0  0  0
   -0.1521    3.8084    1.2178 C   0  0  0  0  0  0  0  0  0  0  0  0
   -0.0400    3.3136    2.1885 H   0  0  0  0  0  0  0  0  0  0  0  0
    0.6443    4.5515    1.1150 H   0  0  0  0  0  0  0  0  0  0  0  0
   -1.1154    4.3286    1.1960 H   0  0  0  0  0  0  0  0  0  0  0  0
  1  2  1  0  0  0  0
  2  3  1  0  0  0  0
  2  4  1  0  0  0  0
  2  5  1  0  0  0  0
  5  6  2  0  0  0  0
  5  7  1  0  0  0  0
  7  8  1  0  0  0  0
  7  9  1  0  0  0  0
  9 10  1  0  0  0  0
  9 11  1  0  0  0  0
  9 29  1  0  0  0  0
 11 12  1  0  0  0  0
 11 13  1  0  0  0  0
 11 14  1  0  0  0  0
 14 15  2  0  0  0  0
 14 28  1  0  0  0  0
 15 16  1  0  0  0  0
 15 17  1  0  0  0  0
 17 18  1  0  0  0  0
 17 19  1  0  0  0  0
 19 20  1  0  0  0  0
 19 28  2  0  0  0  0
 20 21  1  0  0  0  0
 20 22  2  0  0  0  0
 22 23  1  0  0  0  0
 22 24  1  0  0  0  0
 24 25  1  0  0  0  0
 24 26  2  0  0  0  0
 26 27  1  0  0  0  0
 26 28  1  0  0  0  0
 29 30  2  0  0  0  0
 29 31  1  0  0  0  0
 31 32  1  0  0  0  0
 31 33  1  0  0  0  0
 33 34  1  0  0  0  0
 33 35  1  0  0  0  0
 33 36  1  0  0  0  0
M  END
$$$$

  -OEChem-01062216103D

 36 37  0     1  0  0  0  0  0999 V2000
   -3.4316   -2.6269    0.4976 H   0  0  0  0  0  0  0  0  0  0  0  0
   -3.5101   -1.7876   -0.1991 C   0  0  0  0  0  0  0  0  0  0  0  0
   -4.1777   -1.0370    0.2308 H   0  0  0  0  0  0  0  0  0  0  0  0
   -3.9308   -2.1482   -1.1404 H   0  0  0  0  0  0  0  0  0  0  0  0
   -2.1408   -1.1815   -0.4410 C   0  0  0  0  0  0  0  0  0  0  0  0
   -1.1566   -1.6772    0.0850 O   0  0  0  0  0  0  0  0  0  0  0  0
   -2.0141   -0.0958   -1.2868 N   0  0  0  0  0  0  0  0  0  0  0  0
   -2.8947    0.3352   -1.5439 H   0  0  0  0  0  0  0  0  0  0  0  0
   -0.8407    0.7955   -1.1977 C   0  0  1  0  0  0  0  0  0  0  0  0
    0.0694    0.1956   -1.0857 H   0  0  0  0  0  0  0  0  0  0  0  0
   -0.7299    1.5772   -2.5233 C   0  0  0  0  0  0  0  0  0  0  0  0
   -1.6764    2.0901   -2.7220 H   0  0  0  0  0  0  0  0  0  0  0  0
    0.0511    2.3399   -2.4641 H   0  0  0  0  0  0  0  0  0  0  0  0
   -0.3905    0.6667   -3.6740 C   0  0  0  0  0  0  0  0  0  0  0  0
   -1.2732    0.1141   -4.5707 C   0  0  0  0  0  0  0  0  0  0  0  0
   -2.3503    0.2606   -4.5707 H   0  0  0  0  0  0  0  0  0  0  0  0
   -0.5365   -0.6581   -5.4661 N   0  0  0  0  0  0  0  0  0  0  0  0
   -0.9237   -1.1996   -6.2360 H   0  0  0  0  0  0  0  0  0  0  0  0
    0.8103   -0.6166   -5.1438 C   0  0  0  0  0  0  0  0  0  0  0  0
    1.9226   -1.2246   -5.7256 C   0  0  0  0  0  0  0  0  0  0  0  0
    1.8048   -1.8604   -6.5959 H   0  0  0  0  0  0  0  0  0  0  0  0
    3.1902   -1.0067   -5.1672 C   0  0  0  0  0  0  0  0  0  0  0  0
    4.0648   -1.4768   -5.6070 H   0  0  0  0  0  0  0  0  0  0  0  0
    3.3297   -0.1868   -4.0365 C   0  0  0  0  0  0  0  0  0  0  0  0
    4.3119   -0.0252   -3.6025 H   0  0  0  0  0  0  0  0  0  0  0  0
    2.2042    0.4200   -3.4610 C   0  0  0  0  0  0  0  0  0  0  0  0
    2.3092    1.0475   -2.5826 H   0  0  0  0  0  0  0  0  0  0  0  0
    0.9438    0.1999   -4.0269 C   0  0  0  0  0  0  0  0  0  0  0  0
   -0.9060    1.7466    0.0310 C   0  0  0  0  0  0  0  0  0  0  0  0
   -1.6644    1.5142    0.9655 O   0  0  0  0  0  0  0  0  0  0  0  0
   -0.3130    2.9992    0.0014 N   0  0  0  0  0  0  0  0  0  0  0  0
    0.3157    3.2014   -0.7695 H   0  0  0  0  0  0  0  0  0  0  0  0
   -0.4196    3.9667    1.0877 C   0  0  0  0  0  0  0  0  0  0  0  0
   -0.0191    3.5464    2.0162 H   0  0  0  0  0  0  0  0  0  0  0  0
    0.1462    4.8712    0.8451 H   0  0  0  0  0  0  0  0  0  0  0  0
   -1.4655    4.2478    1.2498 H   0  0  0  0  0  0  0  0  0  0  0  0
  1  2  1  0  0  0  0
  2  3  1  0  0  0  0
  2  4  1  0  0  0  0
  2  5  1  0  0  0  0
  5  6  2  0  0  0  0
  5  7  1  0  0  0  0
  7  8  1  0  0  0  0
  7  9  1  0  0  0  0
  9 10  1  0  0  0  0
  9 11  1  0  0  0  0
  9 29  1  0  0  0  0
 11 12  1  0  0  0  0
 11 13  1  0  0  0  0
 11 14  1  0  0  0  0
 14 15  2  0  0  0  0
 14 28  1  0  0  0  0
 15 16  1  0  0  0  0
 15 17  1  0  0  0  0
 17 18  1  0  0  0  0
 17 19  1  0  0  0  0
 19 20  1  0  0  0  0
 19 28  2  0  0  0  0
 20 21  1  0  0  0  0
 20 22  2  0  0  0  0
 22 23  1  0  0  0  0
 22 24  1  0  0  0  0
 24 25  1  0  0  0  0
 24 26  2  0  0  0  0
 26 27  1  0  0  0  0
 26 28  1  0  0  0  0
 29 30  2  0  0  0  0
 29 31  1  0  0  0  0
 31 32  1  0  0  0  0
 31 33  1  0  0  0  0
 33 34  1  0  0  0  0
 33 35  1  0  0  0  0
 33 36  1  0  0  0  0
M  END
$$$$

  -OEChem-01062216103D

 36 37  0     1  0  0  0  0  0999 V2000
   -3.4282   -2.5976    0.5263 H   0  0  0  0  0  0  0  0  0  0  0  0
   -3.5110   -1.7757   -0.1904 C   0  0  0  0  0  0  0  0  0  0  0  0
   -4.1781   -1.0163    0.2243 H   0  0  0  0  0  0  0  0  0  0  0  0
   -3.9351   -2.1599   -1.1208 H   0  0  0  0  0  0  0  0  0  0  0  0
   -2.1426   -1.1752   -0.4515 C   0  0  0  0  0  0  0  0  0  0  0  0
   -1.1517   -1.6951    0.0359 O   0  0  0  0  0  0  0  0  0  0  0  0
   -2.0234   -0.0844   -1.2922 N   0  0  0  0  0  0  0  0  0  0  0  0
   -2.9064    0.3402   -1.5506 H   0  0  0  0  0  0  0  0  0  0  0  0
   -0.8525    0.8115   -1.2143 C   0  0  1  0  0  0  0  0  0  0  0  0
    0.0582    0.2123   -1.1025 H   0  0  0  0  0  0  0  0  0  0  0  0
   -0.7376    1.5820   -2.5460 C   0  0  0  0  0  0  0  0  0  0  0  0
   -1.6824    2.0945   -2.7534 H   0  0  0  0  0  0  0  0  0  0  0  0
    0.0467    2.3418   -2.4866 H   0  0  0  0  0  0  0  0  0  0  0  0
   -0.3936    0.6621   -3.6878 C   0  0  0  0  0  0  0  0  0  0  0  0
   -1.2717    0.1004   -4.5836 C   0  0  0  0  0  0  0  0  0  0  0  0
   -2.3494    0.2435   -4.5891 H   0  0  0  0  0  0  0  0  0  0  0  0
   -0.5302   -0.6777   -5.4701 N   0  0  0  0  0  0  0  0  0  0  0  0
   -0.9137   -1.2287   -6.2351 H   0  0  0  0  0  0  0  0  0  0  0  0
    0.8158   -0.6305   -5.1436 C   0  0  0  0  0  0  0  0  0  0  0  0
    1.9326   -1.2402   -5.7156 C   0  0  0  0  0  0  0  0  0  0  0  0
    1.8210   -1.8845   -6.5806 H   0  0  0  0  0  0  0  0  0  0  0  0
    3.1975   -1.0126   -5.1548 C   0  0  0  0  0  0  0  0  0  0  0  0
    4.0752   -1.4836   -5.5875 H   0  0  0  0  0  0  0  0  0  0  0  0
    3.3302   -0.1818   -4.0314 C   0  0  0  0  0  0  0  0  0  0  0  0
    4.3106   -0.0125   -3.5959 H   0  0  0  0  0  0  0  0  0  0  0  0
    2.2004    0.4257   -3.4652 C   0  0  0  0  0  0  0  0  0  0  0  0
    2.3001    1.0617   -2.5922 H   0  0  0  0  0  0  0  0  0  0  0  0
    0.9428    0.1961   -4.0333 C   0  0  0  0  0  0  0  0  0  0  0  0
   -0.9079    1.7594    0.0182 C   0  0  0  0  0  0  0  0  0  0  0  0
   -1.4169    1.3947    1.0704 O   0  0  0  0  0  0  0  0  0  0  0  0
   -0.6058    3.1082   -0.0929 N   0  0  0  0  0  0  0  0  0  0  0  0
   -0.1981    3.4280   -0.9656 H   0  0  0  0  0  0  0  0  0  0  0  0
   -0.7315    4.0565    1.0085 C   0  0  0  0  0  0  0  0  0  0  0  0
   -0.1071    3.7479    1.8537 H   0  0  0  0  0  0  0  0  0  0  0  0
   -0.4111    5.0524    0.6879 H   0  0  0  0  0  0  0  0  0  0  0  0
   -1.7723    4.1199    1.3430 H   0  0  0  0  0  0  0  0  0  0  0  0
  1  2  1  0  0  0  0
  2  3  1  0  0  0  0
  2  4  1  0  0  0  0
  2  5  1  0  0  0  0
  5  6  2  0  0  0  0
  5  7  1  0  0  0  0
  7  8  1  0  0  0  0
  7  9  1  0  0  0  0
  9 10  1  0  0  0  0
  9 11  1  0  0  0  0
  9 29  1  0  0  0  0
 11 12  1  0  0  0  0
 11 13  1  0  0  0  0
 11 14  1  0  0  0  0
 14 15  2  0  0  0  0
 14 28  1  0  0  0  0
 15 16  1  0  0  0  0
 15 17  1  0  0  0  0
 17 18  1  0  0  0  0
 17 19  1  0  0  0  0
 19 20  1  0  0  0  0
 19 28  2  0  0  0  0
 20 21  1  0  0  0  0
 20 22  2  0  0  0  0
 22 23  1  0  0  0  0
 22 24  1  0  0  0  0
 24 25  1  0  0  0  0
 24 26  2  0  0  0  0
 26 27  1  0  0  0  0
 26 28  1  0  0  0  0
 29 30  2  0  0  0  0
 29 31  1  0  0  0  0
 31 32  1  0  0  0  0
 31 33  1  0  0  0  0
 33 34  1  0  0  0  0
 33 35  1  0  0  0  0
 33 36  1  0  0  0  0
M  END
$$$$

  -OEChem-01062216103D

 36 37  0     1  0  0  0  0  0999 V2000
   -3.4484   -2.5756    0.5463 H   0  0  0  0  0  0  0  0  0  0  0  0
   -3.5191   -1.7840   -0.2051 C   0  0  0  0  0  0  0  0  0  0  0  0
   -4.2120   -1.0203    0.1559 H   0  0  0  0  0  0  0  0  0  0  0  0
   -3.9040   -2.2115   -1.1339 H   0  0  0  0  0  0  0  0  0  0  0  0
   -2.1520   -1.1719   -0.4441 C   0  0  0  0  0  0  0  0  0  0  0  0
   -1.1643   -1.6926    0.0468 O   0  0  0  0  0  0  0  0  0  0  0  0
   -2.0320   -0.0825   -1.2861 N   0  0  0  0  0  0  0  0  0  0  0  0
   -2.9130    0.3236   -1.5783 H   0  0  0  0  0  0  0  0  0  0  0  0
   -0.8658    0.8193   -1.2196 C   0  0  1  0  0  0  0  0  0  0  0  0
    0.0461    0.2224   -1.1035 H   0  0  0  0  0  0  0  0  0  0  0  0
   -0.7487    1.5836   -2.5534 C   0  0  0  0  0  0  0  0  0  0  0  0
   -1.6937    2.0926   -2.7684 H   0  0  0  0  0  0  0  0  0  0  0  0
    0.0340    2.3456   -2.4870 H   0  0  0  0  0  0  0  0  0  0  0  0
   -0.3995    0.6597   -3.6903 C   0  0  0  0  0  0  0  0  0  0  0  0
   -1.2729    0.0918   -4.5866 C   0  0  0  0  0  0  0  0  0  0  0  0
   -2.3507    0.2314   -4.5968 H   0  0  0  0  0  0  0  0  0  0  0  0
   -0.5265   -0.6896   -5.4657 N   0  0  0  0  0  0  0  0  0  0  0  0
   -0.9060   -1.2505   -6.2254 H   0  0  0  0  0  0  0  0  0  0  0  0
    0.8185   -0.6348   -5.1368 C   0  0  0  0  0  0  0  0  0  0  0  0
    1.9392   -1.2416   -5.7041 C   0  0  0  0  0  0  0  0  0  0  0  0
    1.8324   -1.8898   -6.5668 H   0  0  0  0  0  0  0  0  0  0  0  0
    3.2017   -1.0056   -5.1417 C   0  0  0  0  0  0  0  0  0  0  0  0
    4.0828   -1.4733   -5.5711 H   0  0  0  0  0  0  0  0  0  0  0  0
    3.3277   -0.1706   -4.0206 C   0  0  0  0  0  0  0  0  0  0  0  0
    4.3056    0.0046   -3.5824 H   0  0  0  0  0  0  0  0  0  0  0  0
    2.1941    0.4344   -3.4595 C   0  0  0  0  0  0  0  0  0  0  0  0
    2.2883    1.0745   -2.5890 H   0  0  0  0  0  0  0  0  0  0  0  0
    0.9394    0.1971   -4.0300 C   0  0  0  0  0  0  0  0  0  0  0  0
   -0.9204    1.7721    0.0064 C   0  0  0  0  0  0  0  0  0  0  0  0
   -1.1282    1.3413    1.1317 O   0  0  0  0  0  0  0  0  0  0  0  0
   -0.9329    3.1499   -0.1515 N   0  0  0  0  0  0  0  0  0  0  0  0
   -0.7686    3.5185   -1.0827 H   0  0  0  0  0  0  0  0  0  0  0  0
   -1.0452    4.0856    0.9619 C   0  0  0  0  0  0  0  0  0  0  0  0
   -0.2281    3.9323    1.6748 H   0  0  0  0  0  0  0  0  0  0  0  0
   -0.9963    5.1158    0.5965 H   0  0  0  0  0  0  0  0  0  0  0  0
   -1.9984    3.9487    1.4833 H   0  0  0  0  0  0  0  0  0  0  0  0
  1  2  1  0  0  0  0
  2  3  1  0  0  0  0
  2  4  1  0  0  0  0
  2  5  1  0  0  0  0
  5  6  2  0  0  0  0
  5  7  1  0  0  0  0
  7  8  1  0  0  0  0
  7  9  1  0  0  0  0
  9 10  1  0  0  0  0
  9 11  1  0  0  0  0
  9 29  1  0  0  0  0
 11 12  1  0  0  0  0
 11 13  1  0  0  0  0
 11 14  1  0  0  0  0
 14 15  2  0  0  0  0
 14 28  1  0  0  0  0
 15 16  1  0  0  0  0
 15 17  1  0  0  0  0
 17 18  1  0  0  0  0
 17 19  1  0  0  0  0
 19 20  1  0  0  0  0
 19 28  2  0  0  0  0
 20 21  1  0  0  0  0
 20 22  2  0  0  0  0
 22 23  1  0  0  0  0
 22 24  1  0  0  0  0
 24 25  1  0  0  0  0
 24 26  2  0  0  0  0
 26 27  1  0  0  0  0
 26 28  1  0  0  0  0
 29 30  2  0  0  0  0
 29 31  1  0  0  0  0
 31 32  1  0  0  0  0
 31 33  1  0  0  0  0
 33 34  1  0  0  0  0
 33 35  1  0  0  0  0
 33 36  1  0  0  0  0
M  END
$$$$

  -OEChem-01062216103D

 36 37  0     1  0  0  0  0  0999 V2000
   -3.4693   -2.6265    0.4894 H   0  0  0  0  0  0  0  0  0  0  0  0
   -3.5266   -1.8353   -0.2637 C   0  0  0  0  0  0  0  0  0  0  0  0
   -4.2667   -1.0990    0.0583 H   0  0  0  0  0  0  0  0  0  0  0  0
   -3.8431   -2.2745   -1.2126 H   0  0  0  0  0  0  0  0  0  0  0  0
   -2.1710   -1.1737   -0.4254 C   0  0  0  0  0  0  0  0  0  0  0  0
   -1.1990   -1.6555    0.1291 O   0  0  0  0  0  0  0  0  0  0  0  0
   -2.0411   -0.0844   -1.2655 N   0  0  0  0  0  0  0  0  0  0  0  0
   -2.9095    0.2831   -1.6356 H   0  0  0  0  0  0  0  0  0  0  0  0
   -0.8800    0.8247   -1.2111 C   0  0  1  0  0  0  0  0  0  0  0  0
    0.0336    0.2302   -1.0941 H   0  0  0  0  0  0  0  0  0  0  0  0
   -0.7656    1.5880   -2.5447 C   0  0  0  0  0  0  0  0  0  0  0  0
   -1.7133    2.0897   -2.7641 H   0  0  0  0  0  0  0  0  0  0  0  0
    0.0105    2.3570   -2.4727 H   0  0  0  0  0  0  0  0  0  0  0  0
   -0.4133    0.6639   -3.6803 C   0  0  0  0  0  0  0  0  0  0  0  0
   -1.2832    0.0911   -4.5772 C   0  0  0  0  0  0  0  0  0  0  0  0
   -2.3612    0.2286   -4.5921 H   0  0  0  0  0  0  0  0  0  0  0  0
   -0.5326   -0.6900   -5.4529 N   0  0  0  0  0  0  0  0  0  0  0  0
   -0.9078   -1.2510   -6.2148 H   0  0  0  0  0  0  0  0  0  0  0  0
    0.8113   -0.6314   -5.1203 C   0  0  0  0  0  0  0  0  0  0  0  0
    1.9350   -1.2366   -5.6833 C   0  0  0  0  0  0  0  0  0  0  0  0
    1.8322   -1.8863   -6.5452 H   0  0  0  0  0  0  0  0  0  0  0  0
    3.1953   -0.9969   -5.1177 C   0  0  0  0  0  0  0  0  0  0  0  0
    4.0785   -1.4627   -5.5441 H   0  0  0  0  0  0  0  0  0  0  0  0
    3.3163   -0.1606   -3.9972 C   0  0  0  0  0  0  0  0  0  0  0  0
    4.2925    0.0171   -3.5561 H   0  0  0  0  0  0  0  0  0  0  0  0
    2.1799    0.4430   -3.4401 C   0  0  0  0  0  0  0  0  0  0  0  0
    2.2698    1.0846   -2.5698 H   0  0  0  0  0  0  0  0  0  0  0  0
    0.9272    0.2027   -4.0146 C   0  0  0  0  0  0  0  0  0  0  0  0
   -0.9296    1.7858    0.0052 C   0  0  0  0  0  0  0  0  0  0  0  0
   -0.7683    1.3768    1.1451 O   0  0  0  0  0  0  0  0  0  0  0  0
   -1.2580    3.1236   -0.1546 N   0  0  0  0  0  0  0  0  0  0  0  0
   -1.3722    3.4707   -1.1012 H   0  0  0  0  0  0  0  0  0  0  0  0
   -1.3334    4.0688    0.9535 C   0  0  0  0  0  0  0  0  0  0  0  0
   -0.3707    4.1291    1.4722 H   0  0  0  0  0  0  0  0  0  0  0  0
   -1.5893    5.0658    0.5827 H   0  0  0  0  0  0  0  0  0  0  0  0
   -2.1012    3.7589    1.6702 H   0  0  0  0  0  0  0  0  0  0  0  0
  1  2  1  0  0  0  0
  2  3  1  0  0  0  0
  2  4  1  0  0  0  0
  2  5  1  0  0  0  0
  5  6  2  0  0  0  0
  5  7  1  0  0  0  0
  7  8  1  0  0  0  0
  7  9  1  0  0  0  0
  9 10  1  0  0  0  0
  9 11  1  0  0  0  0
  9 29  1  0  0  0  0
 11 12  1  0  0  0  0
 11 13  1  0  0  0  0
 11 14  1  0  0  0  0
 14 15  2  0  0  0  0
 14 28  1  0  0  0  0
 15 16  1  0  0  0  0
 15 17  1  0  0  0  0
 17 18  1  0  0  0  0
 17 19  1  0  0  0  0
 19 20  1  0  0  0  0
 19 28  2  0  0  0  0
 20 21  1  0  0  0  0
 20 22  2  0  0  0  0
 22 23  1  0  0  0  0
 22 24  1  0  0  0  0
 24 25  1  0  0  0  0
 24 26  2  0  0  0  0
 26 27  1  0  0  0  0
 26 28  1  0  0  0  0
 29 30  2  0  0  0  0
 29 31  1  0  0  0  0
 31 32  1  0  0  0  0
 31 33  1  0  0  0  0
 33 34  1  0  0  0  0
 33 35  1  0  0  0  0
 33 36  1  0  0  0  0
M  END
$$$$

  -OEChem-01062216103D

 36 37  0     1  0  0  0  0  0999 V2000
   -3.4548   -2.7771    0.3065 H   0  0  0  0  0  0  0  0  0  0  0  0
   -3.4886   -1.9689   -0.4298 C   0  0  0  0  0  0  0  0  0  0  0  0
   -4.3443   -1.3277   -0.2067 H   0  0  0  0  0  0  0  0  0  0  0  0
   -3.6137   -2.4045   -1.4237 H   0  0  0  0  0  0  0  0  0  0  0  0
   -2.2048   -1.1622   -0.3758 C   0  0  0  0  0  0  0  0  0  0  0  0
   -1.3109   -1.5082    0.3740 O   0  0  0  0  0  0  0  0  0  0  0  0
   -2.0496   -0.0741   -1.2117 N   0  0  0  0  0  0  0  0  0  0  0  0
   -2.8286    0.1504   -1.8186 H   0  0  0  0  0  0  0  0  0  0  0  0
   -0.8912    0.8383   -1.1743 C   0  0  1  0  0  0  0  0  0  0  0  0
    0.0217    0.2415   -1.0619 H   0  0  0  0  0  0  0  0  0  0  0  0
   -0.7863    1.6060   -2.5051 C   0  0  0  0  0  0  0  0  0  0  0  0
   -1.7346    2.1091   -2.7170 H   0  0  0  0  0  0  0  0  0  0  0  0
   -0.0113    2.3764   -2.4304 H   0  0  0  0  0  0  0  0  0  0  0  0
   -0.4426    0.6863   -3.6477 C   0  0  0  0  0  0  0  0  0  0  0  0
   -1.3168    0.1162   -4.5431 C   0  0  0  0  0  0  0  0  0  0  0  0
   -2.3935    0.2636   -4.5621 H   0  0  0  0  0  0  0  0  0  0  0  0
   -0.5719   -0.6728   -5.4168 N   0  0  0  0  0  0  0  0  0  0  0  0
   -0.9487   -1.2218   -6.1869 H   0  0  0  0  0  0  0  0  0  0  0  0
    0.7720   -0.6247   -5.0830 C   0  0  0  0  0  0  0  0  0  0  0  0
    1.8909   -1.2425   -5.6418 C   0  0  0  0  0  0  0  0  0  0  0  0
    1.7845   -1.8955   -6.5008 H   0  0  0  0  0  0  0  0  0  0  0  0
    3.1525   -1.0114   -5.0755 C   0  0  0  0  0  0  0  0  0  0  0  0
    4.0324   -1.4876   -5.4980 H   0  0  0  0  0  0  0  0  0  0  0  0
    3.2796   -0.1697   -3.9596 C   0  0  0  0  0  0  0  0  0  0  0  0
    4.2568    0.0020   -3.5183 H   0  0  0  0  0  0  0  0  0  0  0  0
    2.1478    0.4461   -3.4066 C   0  0  0  0  0  0  0  0  0  0  0  0
    2.2414    1.0912   -2.5390 H   0  0  0  0  0  0  0  0  0  0  0  0
    0.8939    0.2130   -3.9808 C   0  0  0  0  0  0  0  0  0  0  0  0
   -0.9281    1.8128    0.0283 C   0  0  0  0  0  0  0  0  0  0  0  0
   -0.3397    1.5580    1.0683 O   0  0  0  0  0  0  0  0  0  0  0  0
   -1.5485    3.0479   -0.0810 N   0  0  0  0  0  0  0  0  0  0  0  0
   -2.0051    3.2700   -0.9589 H   0  0  0  0  0  0  0  0  0  0  0  0
   -1.5639    4.0357    0.9918 C   0  0  0  0  0  0  0  0  0  0  0  0
   -0.5433    4.3391    1.2484 H   0  0  0  0  0  0  0  0  0  0  0  0
   -2.1205    4.9244    0.6795 H   0  0  0  0  0  0  0  0  0  0  0  0
   -2.0442    3.6236    1.8857 H   0  0  0  0  0  0  0  0  0  0  0  0
  1  2  1  0  0  0  0
  2  3  1  0  0  0  0
  2  4  1  0  0  0  0
  2  5  1  0  0  0  0
  5  6  2  0  0  0  0
  5  7  1  0  0  0  0
  7  8  1  0  0  0  0
  7  9  1  0  0  0  0
  9 10  1  0  0  0  0
  9 11  1  0  0  0  0
  9 29  1  0  0  0  0
 11 12  1  0  0  0  0
 11 13  1  0  0  0  0
 11 14  1  0  0  0  0
 14 15  2  0  0  0  0
 14 28  1  0  0  0  0
 15 16  1  0  0  0  0
 15 17  1  0  0  0  0
 17 18  1  0  0  0  0
 17 19  1  0  0  0  0
 19 20  1  0  0  0  0
 19 28  2  0  0  0  0
 20 21  1  0  0  0  0
 20 22  2  0  0  0  0
 22 23  1  0  0  0  0
 22 24  1  0  0  0  0
 24 25  1  0  0  0  0
 24 26  2  0  0  0  0
 26 27  1  0  0  0  0
 26 28  1  0  0  0  0
 29 30  2  0  0  0  0
 29 31  1  0  0  0  0
 31 32  1  0  0  0  0
 31 33  1  0  0  0  0
 33 34  1  0  0  0  0
 33 35  1  0  0  0  0
 33 36  1  0  0  0  0
M  END
$$$$

  -OEChem-01062216103D

 36 37  0     1  0  0  0  0  0999 V2000
   -3.2862   -2.9360    0.0925 H   0  0  0  0  0  0  0  0  0  0  0  0
   -3.3070   -2.1413   -0.6586 C   0  0  0  0  0  0  0  0  0  0  0  0
   -4.2977   -1.6810   -0.6561 H   0  0  0  0  0  0  0  0  0  0  0  0
   -3.1168   -2.5814   -1.6404 H   0  0  0  0  0  0  0  0  0  0  0  0
   -2.2493   -1.1002   -0.3440 C   0  0  0  0  0  0  0  0  0  0  0  0
   -1.5463   -1.2324    0.6403 O   0  0  0  0  0  0  0  0  0  0  0  0
   -2.0888   -0.0205   -1.1883 N   0  0  0  0  0  0  0  0  0  0  0  0
   -2.5750   -0.0919   -2.0746 H   0  0  0  0  0  0  0  0  0  0  0  0
   -0.9156    0.8704   -1.1390 C   0  0  1  0  0  0  0  0  0  0  0  0
   -0.0131    0.2568   -1.0328 H   0  0  0  0  0  0  0  0  0  0  0  0
   -0.8076    1.6564   -2.4567 C   0  0  0  0  0  0  0  0  0  0  0  0
   -1.7490    2.1787   -2.6540 H   0  0  0  0  0  0  0  0  0  0  0  0
   -0.0209    2.4141   -2.3763 H   0  0  0  0  0  0  0  0  0  0  0  0
   -0.4872    0.7407   -3.6088 C   0  0  0  0  0  0  0  0  0  0  0  0
   -1.3767    0.1945   -4.5042 C   0  0  0  0  0  0  0  0  0  0  0  0
   -2.4473    0.3816   -4.5334 H   0  0  0  0  0  0  0  0  0  0  0  0
   -0.6542   -0.6240   -5.3693 N   0  0  0  0  0  0  0  0  0  0  0  0
   -1.0415   -1.1481   -6.1517 H   0  0  0  0  0  0  0  0  0  0  0  0
    0.6895   -0.6187   -5.0291 C   0  0  0  0  0  0  0  0  0  0  0  0
    1.7917   -1.2727   -5.5799 C   0  0  0  0  0  0  0  0  0  0  0  0
    1.6698   -1.9229   -6.4390 H   0  0  0  0  0  0  0  0  0  0  0  0
    3.0570   -1.0806   -5.0065 C   0  0  0  0  0  0  0  0  0  0  0  0
    3.9244   -1.5841   -5.4233 H   0  0  0  0  0  0  0  0  0  0  0  0
    3.2048   -0.2405   -3.8921 C   0  0  0  0  0  0  0  0  0  0  0  0
    4.1847   -0.0966   -3.4466 H   0  0  0  0  0  0  0  0  0  0  0  0
    2.0905    0.4136   -3.3482 C   0  0  0  0  0  0  0  0  0  0  0  0
    2.2010    1.0604   -2.4833 H   0  0  0  0  0  0  0  0  0  0  0  0
    0.8333    0.2194   -3.9302 C   0  0  0  0  0  0  0  0  0  0  0  0
   -0.9299    1.8477    0.0585 C   0  0  0  0  0  0  0  0  0  0  0  0
   -0.0299    1.8214    0.8865 O   0  0  0  0  0  0  0  0  0  0  0  0
   -1.7750    2.9455    0.0513 N   0  0  0  0  0  0  0  0  0  0  0  0
   -2.5331    2.9392   -0.6223 H   0  0  0  0  0  0  0  0  0  0  0  0
   -1.7640    3.9677    1.0910 C   0  0  0  0  0  0  0  0  0  0  0  0
   -0.7919    4.4713    1.1227 H   0  0  0  0  0  0  0  0  0  0  0  0
   -2.5347    4.7184    0.8918 H   0  0  0  0  0  0  0  0  0  0  0  0
   -1.9606    3.5197    2.0708 H   0  0  0  0  0  0  0  0  0  0  0  0
  1  2  1  0  0  0  0
  2  3  1  0  0  0  0
  2  4  1  0  0  0  0
  2  5  1  0  0  0  0
  5  6  2  0  0  0  0
  5  7  1  0  0  0  0
  7  8  1  0  0  0  0
  7  9  1  0  0  0  0
  9 10  1  0  0  0  0
  9 11  1  0  0  0  0
  9 29  1  0  0  0  0
 11 12  1  0  0  0  0
 11 13  1  0  0  0  0
 11 14  1  0  0  0  0
 14 15  2  0  0  0  0
 14 28  1  0  0  0  0
 15 16  1  0  0  0  0
 15 17  1  0  0  0  0
 17 18  1  0  0  0  0
 17 19  1  0  0  0  0
 19 20  1  0  0  0  0
 19 28  2  0  0  0  0
 20 21  1  0  0  0  0
 20 22  2  0  0  0  0
 22 23  1  0  0  0  0
 22 24  1  0  0  0  0
 24 25  1  0  0  0  0
 24 26  2  0  0  0  0
 26 27  1  0  0  0  0
 26 28  1  0  0  0  0
 29 30  2  0  0  0  0
 29 31  1  0  0  0  0
 31 32  1  0  0  0  0
 31 33  1  0  0  0  0
 33 34  1  0  0  0  0
 33 35  1  0  0  0  0
 33 36  1  0  0  0  0
M  END
$$$$

  -OEChem-01062216103D

 36 37  0     1  0  0  0  0  0999 V2000
   -3.2870   -2.9324    0.1110 H   0  0  0  0  0  0  0  0  0  0  0  0
   -3.2901   -2.1559   -0.6595 C   0  0  0  0  0  0  0  0  0  0  0  0
   -4.2863   -1.7097   -0.7051 H   0  0  0  0  0  0  0  0  0  0  0  0
   -3.0572   -2.6161   -1.6228 H   0  0  0  0  0  0  0  0  0  0  0  0
   -2.2600   -1.0920   -0.3312 C   0  0  0  0  0  0  0  0  0  0  0  0
   -1.5989   -1.1809    0.6871 O   0  0  0  0  0  0  0  0  0  0  0  0
   -2.0906   -0.0223   -1.1862 N   0  0  0  0  0  0  0  0  0  0  0  0
   -2.5284   -0.1310   -2.0943 H   0  0  0  0  0  0  0  0  0  0  0  0
   -0.9082    0.8561   -1.1258 C   0  0  1  0  0  0  0  0  0  0  0  0
   -0.0103    0.2369   -1.0139 H   0  0  0  0  0  0  0  0  0  0  0  0
   -0.7893    1.6566   -2.4327 C   0  0  0  0  0  0  0  0  0  0  0  0
   -1.7245    2.1930   -2.6227 H   0  0  0  0  0  0  0  0  0  0  0  0
    0.0056    2.4048   -2.3413 H   0  0  0  0  0  0  0  0  0  0  0  0
   -0.4770    0.7517   -3.5960 C   0  0  0  0  0  0  0  0  0  0  0  0
   -1.3727    0.2276   -4.4986 C   0  0  0  0  0  0  0  0  0  0  0  0
   -2.4408    0.4295   -4.5257 H   0  0  0  0  0  0  0  0  0  0  0  0
   -0.6603   -0.5896   -5.3733 N   0  0  0  0  0  0  0  0  0  0  0  0
   -1.0529   -1.0961   -6.1646 H   0  0  0  0  0  0  0  0  0  0  0  0
    0.6835   -0.6032   -5.0343 C   0  0  0  0  0  0  0  0  0  0  0  0
    1.7782   -1.2626   -5.5941 C   0  0  0  0  0  0  0  0  0  0  0  0
    1.6487   -1.9028   -6.4596 H   0  0  0  0  0  0  0  0  0  0  0  0
    3.0464   -1.0890   -5.0213 C   0  0  0  0  0  0  0  0  0  0  0  0
    3.9079   -1.5967   -5.4447 H   0  0  0  0  0  0  0  0  0  0  0  0
    3.2044   -0.2618   -3.8986 C   0  0  0  0  0  0  0  0  0  0  0  0
    4.1862   -0.1319   -3.4534 H   0  0  0  0  0  0  0  0  0  0  0  0
    2.0977    0.3981   -3.3457 C   0  0  0  0  0  0  0  0  0  0  0  0
    2.2159    1.0374   -2.4760 H   0  0  0  0  0  0  0  0  0  0  0  0
    0.8375    0.2210   -3.9262 C   0  0  0  0  0  0  0  0  0  0  0  0
   -0.9304    1.8363    0.0659 C   0  0  0  0  0  0  0  0  0  0  0  0
    0.0786    2.0037    0.7379 O   0  0  0  0  0  0  0  0  0  0  0  0
   -1.9644    2.7492    0.1873 N   0  0  0  0  0  0  0  0  0  0  0  0
   -2.8095    2.5490   -0.3371 H   0  0  0  0  0  0  0  0  0  0  0  0
   -2.0109    3.7590    1.2375 C   0  0  0  0  0  0  0  0  0  0  0  0
   -1.1465    4.4273    1.1645 H   0  0  0  0  0  0  0  0  0  0  0  0
   -2.9197    4.3611    1.1438 H   0  0  0  0  0  0  0  0  0  0  0  0
   -2.0080    3.2852    2.2249 H   0  0  0  0  0  0  0  0  0  0  0  0
  1  2  1  0  0  0  0
  2  3  1  0  0  0  0
  2  4  1  0  0  0  0
  2  5  1  0  0  0  0
  5  6  2  0  0  0  0
  5  7  1  0  0  0  0
  7  8  1  0  0  0  0
  7  9  1  0  0  0  0
  9 10  1  0  0  0  0
  9 11  1  0  0  0  0
  9 29  1  0  0  0  0
 11 12  1  0  0  0  0
 11 13  1  0  0  0  0
 11 14  1  0  0  0  0
 14 15  2  0  0  0  0
 14 28  1  0  0  0  0
 15 16  1  0  0  0  0
 15 17  1  0  0  0  0
 17 18  1  0  0  0  0
 17 19  1  0  0  0  0
 19 20  1  0  0  0  0
 19 28  2  0  0  0  0
 20 21  1  0  0  0  0
 20 22  2  0  0  0  0
 22 23  1  0  0  0  0
 22 24  1  0  0  0  0
 24 25  1  0  0  0  0
 24 26  2  0  0  0  0
 26 27  1  0  0  0  0
 26 28  1  0  0  0  0
 29 30  2  0  0  0  0
 29 31  1  0  0  0  0
 31 32  1  0  0  0  0
 31 33  1  0  0  0  0
 33 34  1  0  0  0  0
 33 35  1  0  0  0  0
 33 36  1  0  0  0  0
M  END
$$$$

  -OEChem-01062216103D

 36 37  0     1  0  0  0  0  0999 V2000
   -3.2697   -2.9356    0.1033 H   0  0  0  0  0  0  0  0  0  0  0  0
   -3.2632   -2.1709   -0.6787 C   0  0  0  0  0  0  0  0  0  0  0  0
   -4.2661   -1.7466   -0.7638 H   0  0  0  0  0  0  0  0  0  0  0  0
   -2.9899   -2.6410   -1.6264 H   0  0  0  0  0  0  0  0  0  0  0  0
   -2.2660   -1.0810   -0.3335 C   0  0  0  0  0  0  0  0  0  0  0  0
   -1.6354   -1.1407    0.7064 O   0  0  0  0  0  0  0  0  0  0  0  0
   -2.0924   -0.0155   -1.1929 N   0  0  0  0  0  0  0  0  0  0  0  0
   -2.5028   -0.1420   -2.1118 H   0  0  0  0  0  0  0  0  0  0  0  0
   -0.9049    0.8569   -1.1234 C   0  0  1  0  0  0  0  0  0  0  0  0
   -0.0091    0.2355   -1.0092 H   0  0  0  0  0  0  0  0  0  0  0  0
   -0.7835    1.6648   -2.4250 C   0  0  0  0  0  0  0  0  0  0  0  0
   -1.7153    2.2091   -2.6088 H   0  0  0  0  0  0  0  0  0  0  0  0
    0.0159    2.4077   -2.3307 H   0  0  0  0  0  0  0  0  0  0  0  0
   -0.4757    0.7644   -3.5927 C   0  0  0  0  0  0  0  0  0  0  0  0
   -1.3756    0.2500   -4.4962 C   0  0  0  0  0  0  0  0  0  0  0  0
   -2.4415    0.4622   -4.5231 H   0  0  0  0  0  0  0  0  0  0  0  0
   -0.6704   -0.5724   -5.3716 N   0  0  0  0  0  0  0  0  0  0  0  0
   -1.0668   -1.0709   -6.1662 H   0  0  0  0  0  0  0  0  0  0  0  0
    0.6733   -0.5982   -5.0322 C   0  0  0  0  0  0  0  0  0  0  0  0
    1.7629   -1.2650   -5.5931 C   0  0  0  0  0  0  0  0  0  0  0  0
    1.6290   -1.9012   -6.4609 H   0  0  0  0  0  0  0  0  0  0  0  0
    3.0318   -1.1036   -5.0185 C   0  0  0  0  0  0  0  0  0  0  0  0
    3.8889   -1.6175   -5.4433 H   0  0  0  0  0  0  0  0  0  0  0  0
    3.1963   -0.2806   -3.8934 C   0  0  0  0  0  0  0  0  0  0  0  0
    4.1793   -0.1600   -3.4478 H   0  0  0  0  0  0  0  0  0  0  0  0
    2.0948    0.3874   -3.3397 C   0  0  0  0  0  0  0  0  0  0  0  0
    2.2169    1.0243   -2.4687 H   0  0  0  0  0  0  0  0  0  0  0  0
    0.8340    0.2224   -3.9222 C   0  0  0  0  0  0  0  0  0  0  0  0
   -0.9271    1.8400    0.0650 C   0  0  0  0  0  0  0  0  0  0  0  0
    0.1252    2.1938    0.5809 O   0  0  0  0  0  0  0  0  0  0  0  0
   -2.0839    2.5406    0.3581 N   0  0  0  0  0  0  0  0  0  0  0  0
   -2.9440    2.1573   -0.0199 H   0  0  0  0  0  0  0  0  0  0  0  0
   -2.1656    3.5111    1.4421 C   0  0  0  0  0  0  0  0  0  0  0  0
   -1.4586    4.3308    1.2769 H   0  0  0  0  0  0  0  0  0  0  0  0
   -3.1738    3.9324    1.4974 H   0  0  0  0  0  0  0  0  0  0  0  0
   -1.9350    3.0344    2.4006 H   0  0  0  0  0  0  0  0  0  0  0  0
  1  2  1  0  0  0  0
  2  3  1  0  0  0  0
  2  4  1  0  0  0  0
  2  5  1  0  0  0  0
  5  6  2  0  0  0  0
  5  7  1  0  0  0  0
  7  8  1  0  0  0  0
  7  9  1  0  0  0  0
  9 10  1  0  0  0  0
  9 11  1  0  0  0  0
  9 29  1  0  0  0  0
 11 12  1  0  0  0  0
 11 13  1  0  0  0  0
 11 14  1  0  0  0  0
 14 15  2  0  0  0  0
 14 28  1  0  0  0  0
 15 16  1  0  0  0  0
 15 17  1  0  0  0  0
 17 18  1  0  0  0  0
 17 19  1  0  0  0  0
 19 20  1  0  0  0  0
 19 28  2  0  0  0  0
 20 21  1  0  0  0  0
 20 22  2  0  0  0  0
 22 23  1  0  0  0  0
 22 24  1  0  0  0  0
 24 25  1  0  0  0  0
 24 26  2  0  0  0  0
 26 27  1  0  0  0  0
 26 28  1  0  0  0  0
 29 30  2  0  0  0  0
 29 31  1  0  0  0  0
 31 32  1  0  0  0  0
 31 33  1  0  0  0  0
 33 34  1  0  0  0  0
 33 35  1  0  0  0  0
 33 36  1  0  0  0  0
M  END
$$$$

  -OEChem-01062216103D

 36 37  0     1  0  0  0  0  0999 V2000
   -3.2845   -2.9259    0.0973 H   0  0  0  0  0  0  0  0  0  0  0  0
   -3.2687   -2.1652   -0.6886 C   0  0  0  0  0  0  0  0  0  0  0  0
   -4.2705   -1.7403   -0.7875 H   0  0  0  0  0  0  0  0  0  0  0  0
   -2.9850   -2.6404   -1.6309 H   0  0  0  0  0  0  0  0  0  0  0  0
   -2.2743   -1.0747   -0.3383 C   0  0  0  0  0  0  0  0  0  0  0  0
   -1.6608   -1.1230    0.7126 O   0  0  0  0  0  0  0  0  0  0  0  0
   -2.0939   -0.0107   -1.1976 N   0  0  0  0  0  0  0  0  0  0  0  0
   -2.5013   -0.1341   -2.1184 H   0  0  0  0  0  0  0  0  0  0  0  0
   -0.9045    0.8601   -1.1229 C   0  0  1  0  0  0  0  0  0  0  0  0
   -0.0092    0.2385   -1.0066 H   0  0  0  0  0  0  0  0  0  0  0  0
   -0.7843    1.6647   -2.4275 C   0  0  0  0  0  0  0  0  0  0  0  0
   -1.7174    2.2072   -2.6108 H   0  0  0  0  0  0  0  0  0  0  0  0
    0.0142    2.4092   -2.3385 H   0  0  0  0  0  0  0  0  0  0  0  0
   -0.4764    0.7618   -3.5936 C   0  0  0  0  0  0  0  0  0  0  0  0
   -1.3758    0.2442   -4.4959 C   0  0  0  0  0  0  0  0  0  0  0  0
   -2.4420    0.4560   -4.5236 H   0  0  0  0  0  0  0  0  0  0  0  0
   -0.6698   -0.5799   -5.3693 N   0  0  0  0  0  0  0  0  0  0  0  0
   -1.0650   -1.0778   -6.1647 H   0  0  0  0  0  0  0  0  0  0  0  0
    0.6740   -0.6028   -5.0309 C   0  0  0  0  0  0  0  0  0  0  0  0
    1.7640   -1.2691   -5.5912 C   0  0  0  0  0  0  0  0  0  0  0  0
    1.6301   -1.9077   -6.4571 H   0  0  0  0  0  0  0  0  0  0  0  0
    3.0336   -1.1032   -5.0194 C   0  0  0  0  0  0  0  0  0  0  0  0
    3.8917   -1.6158   -5.4441 H   0  0  0  0  0  0  0  0  0  0  0  0
    3.1981   -0.2750   -3.8981 C   0  0  0  0  0  0  0  0  0  0  0  0
    4.1818   -0.1488   -3.4557 H   0  0  0  0  0  0  0  0  0  0  0  0
    2.0959    0.3924   -3.3449 C   0  0  0  0  0  0  0  0  0  0  0  0
    2.2183    1.0346   -2.4777 H   0  0  0  0  0  0  0  0  0  0  0  0
    0.8342    0.2215   -3.9237 C   0  0  0  0  0  0  0  0  0  0  0  0
   -0.9263    1.8472    0.0636 C   0  0  0  0  0  0  0  0  0  0  0  0
    0.1145    2.3762    0.4334 O   0  0  0  0  0  0  0  0  0  0  0  0
   -2.1319    2.3190    0.5513 N   0  0  0  0  0  0  0  0  0  0  0  0
   -2.9459    1.7613    0.3129 H   0  0  0  0  0  0  0  0  0  0  0  0
   -2.2207    3.2349    1.6811 C   0  0  0  0  0  0  0  0  0  0  0  0
   -1.6901    4.1674    1.4618 H   0  0  0  0  0  0  0  0  0  0  0  0
   -3.2673    3.4757    1.8902 H   0  0  0  0  0  0  0  0  0  0  0  0
   -1.7828    2.7820    2.5769 H   0  0  0  0  0  0  0  0  0  0  0  0
  1  2  1  0  0  0  0
  2  3  1  0  0  0  0
  2  4  1  0  0  0  0
  2  5  1  0  0  0  0
  5  6  2  0  0  0  0
  5  7  1  0  0  0  0
  7  8  1  0  0  0  0
  7  9  1  0  0  0  0
  9 10  1  0  0  0  0
  9 11  1  0  0  0  0
  9 29  1  0  0  0  0
 11 12  1  0  0  0  0
 11 13  1  0  0  0  0
 11 14  1  0  0  0  0
 14 15  2  0  0  0  0
 14 28  1  0  0  0  0
 15 16  1  0  0  0  0
 15 17  1  0  0  0  0
 17 18  1  0  0  0  0
 17 19  1  0  0  0  0
 19 20  1  0  0  0  0
 19 28  2  0  0  0  0
 20 21  1  0  0  0  0
 20 22  2  0  0  0  0
 22 23  1  0  0  0  0
 22 24  1  0  0  0  0
 24 25  1  0  0  0  0
 24 26  2  0  0  0  0
 26 27  1  0  0  0  0
 26 28  1  0  0  0  0
 29 30  2  0  0  0  0
 29 31  1  0  0  0  0
 31 32  1  0  0  0  0
 31 33  1  0  0  0  0
 33 34  1  0  0  0  0
 33 35  1  0  0  0  0
 33 36  1  0  0  0  0
M  END
$$$$

  -OEChem-01062216103D

 36 37  0     1  0  0  0  0  0999 V2000
   -3.2943   -2.9382    0.0415 H   0  0  0  0  0  0  0  0  0  0  0  0
   -3.2731   -2.1695   -0.7363 C   0  0  0  0  0  0  0  0  0  0  0  0
   -4.2765   -1.7513   -0.8457 H   0  0  0  0  0  0  0  0  0  0  0  0
   -2.9721   -2.6330   -1.6789 H   0  0  0  0  0  0  0  0  0  0  0  0
   -2.2922   -1.0753   -0.3605 C   0  0  0  0  0  0  0  0  0  0  0  0
   -1.7096   -1.1157    0.7084 O   0  0  0  0  0  0  0  0  0  0  0  0
   -2.1004   -0.0050   -1.2086 N   0  0  0  0  0  0  0  0  0  0  0  0
   -2.5019   -0.1176   -2.1335 H   0  0  0  0  0  0  0  0  0  0  0  0
   -0.9118    0.8673   -1.1201 C   0  0  1  0  0  0  0  0  0  0  0  0
   -0.0163    0.2467   -1.0030 H   0  0  0  0  0  0  0  0  0  0  0  0
   -0.7982    1.6666   -2.4303 C   0  0  0  0  0  0  0  0  0  0  0  0
   -1.7355    2.2013   -2.6146 H   0  0  0  0  0  0  0  0  0  0  0  0
   -0.0047    2.4175   -2.3508 H   0  0  0  0  0  0  0  0  0  0  0  0
   -0.4858    0.7567   -3.5902 C   0  0  0  0  0  0  0  0  0  0  0  0
   -1.3837    0.2272   -4.4873 C   0  0  0  0  0  0  0  0  0  0  0  0
   -2.4512    0.4332   -4.5151 H   0  0  0  0  0  0  0  0  0  0  0  0
   -0.6747   -0.6020   -5.3534 N   0  0  0  0  0  0  0  0  0  0  0  0
   -1.0691   -1.1108   -6.1424 H   0  0  0  0  0  0  0  0  0  0  0  0
    0.6699   -0.6138   -5.0169 C   0  0  0  0  0  0  0  0  0  0  0  0
    1.7625   -1.2795   -5.5729 C   0  0  0  0  0  0  0  0  0  0  0  0
    1.6291   -1.9293   -6.4306 H   0  0  0  0  0  0  0  0  0  0  0  0
    3.0329   -1.0973   -5.0077 C   0  0  0  0  0  0  0  0  0  0  0  0
    3.8932   -1.6091   -5.4286 H   0  0  0  0  0  0  0  0  0  0  0  0
    3.1954   -0.2544   -3.8972 C   0  0  0  0  0  0  0  0  0  0  0  0
    4.1799   -0.1146   -3.4608 H   0  0  0  0  0  0  0  0  0  0  0  0
    2.0903    0.4101   -3.3466 C   0  0  0  0  0  0  0  0  0  0  0  0
    2.2118    1.0633   -2.4873 H   0  0  0  0  0  0  0  0  0  0  0  0
    0.8277    0.2228   -3.9185 C   0  0  0  0  0  0  0  0  0  0  0  0
   -0.9297    1.8548    0.0690 C   0  0  0  0  0  0  0  0  0  0  0  0
    0.0576    2.5410    0.3041 O   0  0  0  0  0  0  0  0  0  0  0  0
   -2.1006    2.1012    0.7624 N   0  0  0  0  0  0  0  0  0  0  0  0
   -2.8133    1.3842    0.6630 H   0  0  0  0  0  0  0  0  0  0  0  0
   -2.1523    2.9712    1.9301 C   0  0  0  0  0  0  0  0  0  0  0  0
   -1.8199    3.9821    1.6712 H   0  0  0  0  0  0  0  0  0  0  0  0
   -3.1765    3.0334    2.3095 H   0  0  0  0  0  0  0  0  0  0  0  0
   -1.5091    2.5809    2.7257 H   0  0  0  0  0  0  0  0  0  0  0  0
  1  2  1  0  0  0  0
  2  3  1  0  0  0  0
  2  4  1  0  0  0  0
  2  5  1  0  0  0  0
  5  6  2  0  0  0  0
  5  7  1  0  0  0  0
  7  8  1  0  0  0  0
  7  9  1  0  0  0  0
  9 10  1  0  0  0  0
  9 11  1  0  0  0  0
  9 29  1  0  0  0  0
 11 12  1  0  0  0  0
 11 13  1  0  0  0  0
 11 14  1  0  0  0  0
 14 15  2  0  0  0  0
 14 28  1  0  0  0  0
 15 16  1  0  0  0  0
 15 17  1  0  0  0  0
 17 18  1  0  0  0  0
 17 19  1  0  0  0  0
 19 20  1  0  0  0  0
 19 28  2  0  0  0  0
 20 21  1  0  0  0  0
 20 22  2  0  0  0  0
 22 23  1  0  0  0  0
 22 24  1  0  0  0  0
 24 25  1  0  0  0  0
 24 26  2  0  0  0  0
 26 27  1  0  0  0  0
 26 28  1  0  0  0  0
 29 30  2  0  0  0  0
 29 31  1  0  0  0  0
 31 32  1  0  0  0  0
 31 33  1  0  0  0  0
 33 34  1  0  0  0  0
 33 35  1  0  0  0  0
 33 36  1  0  0  0  0
M  END
$$$$

  -OEChem-01062216103D

 36 37  0     1  0  0  0  0  0999 V2000
   -3.3049   -2.9502   -0.0176 H   0  0  0  0  0  0  0  0  0  0  0  0
   -3.2774   -2.1724   -0.7860 C   0  0  0  0  0  0  0  0  0  0  0  0
   -4.2818   -1.7589   -0.9051 H   0  0  0  0  0  0  0  0  0  0  0  0
   -2.9606   -2.6227   -1.7299 H   0  0  0  0  0  0  0  0  0  0  0  0
   -2.3084   -1.0770   -0.3839 C   0  0  0  0  0  0  0  0  0  0  0  0
   -1.7504   -1.1177    0.6986 O   0  0  0  0  0  0  0  0  0  0  0  0
   -2.1112    0.0052   -1.2146 N   0  0  0  0  0  0  0  0  0  0  0  0
   -2.5172   -0.0897   -2.1394 H   0  0  0  0  0  0  0  0  0  0  0  0
   -0.9252    0.8813   -1.1202 C   0  0  1  0  0  0  0  0  0  0  0  0
   -0.0294    0.2608   -1.0079 H   0  0  0  0  0  0  0  0  0  0  0  0
   -0.8187    1.6719   -2.4387 C   0  0  0  0  0  0  0  0  0  0  0  0
   -1.7596    2.1996   -2.6251 H   0  0  0  0  0  0  0  0  0  0  0  0
   -0.0296    2.4284   -2.3722 H   0  0  0  0  0  0  0  0  0  0  0  0
   -0.5012    0.7544   -3.5917 C   0  0  0  0  0  0  0  0  0  0  0  0
   -1.3949    0.2104   -4.4843 C   0  0  0  0  0  0  0  0  0  0  0  0
   -2.4637    0.4084   -4.5148 H   0  0  0  0  0  0  0  0  0  0  0  0
   -0.6792   -0.6212   -5.3427 N   0  0  0  0  0  0  0  0  0  0  0  0
   -1.0690   -1.1372   -6.1293 H   0  0  0  0  0  0  0  0  0  0  0  0
    0.6648   -0.6221   -5.0041 C   0  0  0  0  0  0  0  0  0  0  0  0
    1.7623   -1.2863   -5.5520 C   0  0  0  0  0  0  0  0  0  0  0  0
    1.6349   -1.9441   -6.4044 H   0  0  0  0  0  0  0  0  0  0  0  0
    3.0304   -1.0928   -4.9854 C   0  0  0  0  0  0  0  0  0  0  0  0
    3.8942   -1.6037   -5.4007 H   0  0  0  0  0  0  0  0  0  0  0  0
    3.1859   -0.2399   -3.8816 C   0  0  0  0  0  0  0  0  0  0  0  0
    4.1688   -0.0919   -3.4442 H   0  0  0  0  0  0  0  0  0  0  0  0
    2.0760    0.4241   -3.3400 C   0  0  0  0  0  0  0  0  0  0  0  0
    2.1916    1.0861   -2.4869 H   0  0  0  0  0  0  0  0  0  0  0  0
    0.8158    0.2250   -3.9131 C   0  0  0  0  0  0  0  0  0  0  0  0
   -0.9332    1.8627    0.0789 C   0  0  0  0  0  0  0  0  0  0  0  0
   -0.0511    2.7066    0.1851 O   0  0  0  0  0  0  0  0  0  0  0  0
   -1.9881    1.8847    0.9724 N   0  0  0  0  0  0  0  0  0  0  0  0
   -2.5221    1.0181    1.0006 H   0  0  0  0  0  0  0  0  0  0  0  0
   -1.9840    2.7219    2.1650 C   0  0  0  0  0  0  0  0  0  0  0  0
   -1.8834    3.7781    1.8936 H   0  0  0  0  0  0  0  0  0  0  0  0
   -2.9206    2.5969    2.7162 H   0  0  0  0  0  0  0  0  0  0  0  0
   -1.1535    2.4459    2.8231 H   0  0  0  0  0  0  0  0  0  0  0  0
  1  2  1  0  0  0  0
  2  3  1  0  0  0  0
  2  4  1  0  0  0  0
  2  5  1  0  0  0  0
  5  6  2  0  0  0  0
  5  7  1  0  0  0  0
  7  8  1  0  0  0  0
  7  9  1  0  0  0  0
  9 10  1  0  0  0  0
  9 11  1  0  0  0  0
  9 29  1  0  0  0  0
 11 12  1  0  0  0  0
 11 13  1  0  0  0  0
 11 14  1  0  0  0  0
 14 15  2  0  0  0  0
 14 28  1  0  0  0  0
 15 16  1  0  0  0  0
 15 17  1  0  0  0  0
 17 18  1  0  0  0  0
 17 19  1  0  0  0  0
 19 20  1  0  0  0  0
 19 28  2  0  0  0  0
 20 21  1  0  0  0  0
 20 22  2  0  0  0  0
 22 23  1  0  0  0  0
 22 24  1  0  0  0  0
 24 25  1  0  0  0  0
 24 26  2  0  0  0  0
 26 27  1  0  0  0  0
 26 28  1  0  0  0  0
 29 30  2  0  0  0  0
 29 31  1  0  0  0  0
 31 32  1  0  0  0  0
 31 33  1  0  0  0  0
 33 34  1  0  0  0  0
 33 35  1  0  0  0  0
 33 36  1  0  0  0  0
M  END
$$$$

  -OEChem-01062216103D

 36 37  0     1  0  0  0  0  0999 V2000
   -3.3937   -2.9230   -0.0110 H   0  0  0  0  0  0  0  0  0  0  0  0
   -3.3620   -2.1285   -0.7620 C   0  0  0  0  0  0  0  0  0  0  0  0
   -4.3455   -1.6553   -0.8157 H   0  0  0  0  0  0  0  0  0  0  0  0
   -3.1230   -2.5713   -1.7319 H   0  0  0  0  0  0  0  0  0  0  0  0
   -2.3118   -1.1001   -0.3886 C   0  0  0  0  0  0  0  0  0  0  0  0
   -1.6978   -1.2047    0.6596 O   0  0  0  0  0  0  0  0  0  0  0  0
   -2.1013   -0.0070   -1.2018 N   0  0  0  0  0  0  0  0  0  0  0  0
   -2.5732   -0.0360   -2.0989 H   0  0  0  0  0  0  0  0  0  0  0  0
   -0.9171    0.8730   -1.1108 C   0  0  1  0  0  0  0  0  0  0  0  0
   -0.0206    0.2533   -1.0010 H   0  0  0  0  0  0  0  0  0  0  0  0
   -0.8126    1.6543   -2.4375 C   0  0  0  0  0  0  0  0  0  0  0  0
   -1.7544    2.1790   -2.6268 H   0  0  0  0  0  0  0  0  0  0  0  0
   -0.0249    2.4124   -2.3796 H   0  0  0  0  0  0  0  0  0  0  0  0
   -0.4916    0.7325   -3.5865 C   0  0  0  0  0  0  0  0  0  0  0  0
   -1.3819    0.1800   -4.4768 C   0  0  0  0  0  0  0  0  0  0  0  0
   -2.4527    0.3668   -4.5036 H   0  0  0  0  0  0  0  0  0  0  0  0
   -0.6604   -0.6424   -5.3392 N   0  0  0  0  0  0  0  0  0  0  0  0
   -1.0477   -1.1616   -6.1247 H   0  0  0  0  0  0  0  0  0  0  0  0
    0.6853   -0.6268   -5.0081 C   0  0  0  0  0  0  0  0  0  0  0  0
    1.7889   -1.2750   -5.5636 C   0  0  0  0  0  0  0  0  0  0  0  0
    1.6655   -1.9340   -6.4158 H   0  0  0  0  0  0  0  0  0  0  0  0
    3.0578   -1.0635   -5.0050 C   0  0  0  0  0  0  0  0  0  0  0  0
    3.9265   -1.5613   -5.4259 H   0  0  0  0  0  0  0  0  0  0  0  0
    3.2076   -0.2086   -3.9019 C   0  0  0  0  0  0  0  0  0  0  0  0
    4.1910   -0.0449   -3.4714 H   0  0  0  0  0  0  0  0  0  0  0  0
    2.0914    0.4382   -3.3523 C   0  0  0  0  0  0  0  0  0  0  0  0
    2.2026    1.1031   -2.5009 H   0  0  0  0  0  0  0  0  0  0  0  0
    0.8305    0.2207   -3.9167 C   0  0  0  0  0  0  0  0  0  0  0  0
   -0.9260    1.8474    0.0984 C   0  0  0  0  0  0  0  0  0  0  0  0
   -0.2123    2.8438    0.1008 O   0  0  0  0  0  0  0  0  0  0  0  0
   -1.7975    1.6615    1.1554 N   0  0  0  0  0  0  0  0  0  0  0  0
   -2.1472    0.7062    1.2411 H   0  0  0  0  0  0  0  0  0  0  0  0
   -1.7794    2.4925    2.3523 C   0  0  0  0  0  0  0  0  0  0  0  0
   -1.9361    3.5447    2.0928 H   0  0  0  0  0  0  0  0  0  0  0  0
   -2.5772    2.1856    3.0351 H   0  0  0  0  0  0  0  0  0  0  0  0
   -0.8200    2.3959    2.8708 H   0  0  0  0  0  0  0  0  0  0  0  0
  1  2  1  0  0  0  0
  2  3  1  0  0  0  0
  2  4  1  0  0  0  0
  2  5  1  0  0  0  0
  5  6  2  0  0  0  0
  5  7  1  0  0  0  0
  7  8  1  0  0  0  0
  7  9  1  0  0  0  0
  9 10  1  0  0  0  0
  9 11  1  0  0  0  0
  9 29  1  0  0  0  0
 11 12  1  0  0  0  0
 11 13  1  0  0  0  0
 11 14  1  0  0  0  0
 14 15  2  0  0  0  0
 14 28  1  0  0  0  0
 15 16  1  0  0  0  0
 15 17  1  0  0  0  0
 17 18  1  0  0  0  0
 17 19  1  0  0  0  0
 19 20  1  0  0  0  0
 19 28  2  0  0  0  0
 20 21  1  0  0  0  0
 20 22  2  0  0  0  0
 22 23  1  0  0  0  0
 22 24  1  0  0  0  0
 24 25  1  0  0  0  0
 24 26  2  0  0  0  0
 26 27  1  0  0  0  0
 26 28  1  0  0  0  0
 29 30  2  0  0  0  0
 29 31  1  0  0  0  0
 31 32  1  0  0  0  0
 31 33  1  0  0  0  0
 33 34  1  0  0  0  0
 33 35  1  0  0  0  0
 33 36  1  0  0  0  0
M  END
$$$$

  -OEChem-01062216103D

 36 37  0     1  0  0  0  0  0999 V2000
   -3.4310   -2.9003    0.0004 H   0  0  0  0  0  0  0  0  0  0  0  0
   -3.4099   -2.0903   -0.7342 C   0  0  0  0  0  0  0  0  0  0  0  0
   -4.3748   -1.5778   -0.7205 H   0  0  0  0  0  0  0  0  0  0  0  0
   -3.2449   -2.5197   -1.7253 H   0  0  0  0  0  0  0  0  0  0  0  0
   -2.2989   -1.1127   -0.4015 C   0  0  0  0  0  0  0  0  0  0  0  0
   -1.6093   -1.2868    0.5899 O   0  0  0  0  0  0  0  0  0  0  0  0
   -2.0966   -0.0073   -1.2011 N   0  0  0  0  0  0  0  0  0  0  0  0
   -2.6407    0.0273   -2.0561 H   0  0  0  0  0  0  0  0  0  0  0  0
   -0.9200    0.8832   -1.1192 C   0  0  1  0  0  0  0  0  0  0  0  0
   -0.0198    0.2682   -1.0136 H   0  0  0  0  0  0  0  0  0  0  0  0
   -0.8193    1.6581   -2.4501 C   0  0  0  0  0  0  0  0  0  0  0  0
   -1.7632    2.1780   -2.6433 H   0  0  0  0  0  0  0  0  0  0  0  0
   -0.0340    2.4190   -2.3955 H   0  0  0  0  0  0  0  0  0  0  0  0
   -0.4906    0.7304   -3.5924 C   0  0  0  0  0  0  0  0  0  0  0  0
   -1.3760    0.1656   -4.4803 C   0  0  0  0  0  0  0  0  0  0  0  0
   -2.4480    0.3443   -4.5089 H   0  0  0  0  0  0  0  0  0  0  0  0
   -0.6478   -0.6587   -5.3354 N   0  0  0  0  0  0  0  0  0  0  0  0
   -1.0313   -1.1904   -6.1143 H   0  0  0  0  0  0  0  0  0  0  0  0
    0.6972   -0.6322   -5.0018 C   0  0  0  0  0  0  0  0  0  0  0  0
    1.8063   -1.2781   -5.5488 C   0  0  0  0  0  0  0  0  0  0  0  0
    1.6893   -1.9445   -6.3959 H   0  0  0  0  0  0  0  0  0  0  0  0
    3.0724   -1.0544   -4.9890 C   0  0  0  0  0  0  0  0  0  0  0  0
    3.9446   -1.5504   -5.4042 H   0  0  0  0  0  0  0  0  0  0  0  0
    3.2150   -0.1898   -3.8927 C   0  0  0  0  0  0  0  0  0  0  0  0
    4.1967   -0.0173   -3.4618 H   0  0  0  0  0  0  0  0  0  0  0  0
    2.0938    0.4548   -3.3513 C   0  0  0  0  0  0  0  0  0  0  0  0
    2.1994    1.1265   -2.5050 H   0  0  0  0  0  0  0  0  0  0  0  0
    0.8354    0.2251   -3.9169 C   0  0  0  0  0  0  0  0  0  0  0  0
   -0.9285    1.8461    0.1009 C   0  0  0  0  0  0  0  0  0  0  0  0
   -0.4266    2.9620    0.0285 O   0  0  0  0  0  0  0  0  0  0  0  0
   -1.5459    1.4861    1.2841 N   0  0  0  0  0  0  0  0  0  0  0  0
   -1.7541    0.4889    1.3716 H   0  0  0  0  0  0  0  0  0  0  0  0
   -1.4855    2.2904    2.4975 C   0  0  0  0  0  0  0  0  0  0  0  0
   -1.9045    3.2861    2.3191 H   0  0  0  0  0  0  0  0  0  0  0  0
   -2.0624    1.8127    3.2952 H   0  0  0  0  0  0  0  0  0  0  0  0
   -0.4493    2.3981    2.8342 H   0  0  0  0  0  0  0  0  0  0  0  0
  1  2  1  0  0  0  0
  2  3  1  0  0  0  0
  2  4  1  0  0  0  0
  2  5  1  0  0  0  0
  5  6  2  0  0  0  0
  5  7  1  0  0  0  0
  7  8  1  0  0  0  0
  7  9  1  0  0  0  0
  9 10  1  0  0  0  0
  9 11  1  0  0  0  0
  9 29  1  0  0  0  0
 11 12  1  0  0  0  0
 11 13  1  0  0  0  0
 11 14  1  0  0  0  0
 14 15  2  0  0  0  0
 14 28  1  0  0  0  0
 15 16  1  0  0  0  0
 15 17  1  0  0  0  0
 17 18  1  0  0  0  0
 17 19  1  0  0  0  0
 19 20  1  0  0  0  0
 19 28  2  0  0  0  0
 20 21  1  0  0  0  0
 20 22  2  0  0  0  0
 22 23  1  0  0  0  0
 22 24  1  0  0  0  0
 24 25  1  0  0  0  0
 24 26  2  0  0  0  0
 26 27  1  0  0  0  0
 26 28  1  0  0  0  0
 29 30  2  0  0  0  0
 29 31  1  0  0  0  0
 31 32  1  0  0  0  0
 31 33  1  0  0  0  0
 33 34  1  0  0  0  0
 33 35  1  0  0  0  0
 33 36  1  0  0  0  0
M  END
$$$$

  -OEChem-01062216103D

 36 37  0     1  0  0  0  0  0999 V2000
   -3.4709   -2.8576    0.0729 H   0  0  0  0  0  0  0  0  0  0  0  0
   -3.4571   -2.0390   -0.6522 C   0  0  0  0  0  0  0  0  0  0  0  0
   -4.3901   -1.4772   -0.5656 H   0  0  0  0  0  0  0  0  0  0  0  0
   -3.3848   -2.4612   -1.6572 H   0  0  0  0  0  0  0  0  0  0  0  0
   -2.2756   -1.1254   -0.3883 C   0  0  0  0  0  0  0  0  0  0  0  0
   -1.5192   -1.3590    0.5411 O   0  0  0  0  0  0  0  0  0  0  0  0
   -2.0750   -0.0182   -1.1864 N   0  0  0  0  0  0  0  0  0  0  0  0
   -2.6976    0.0880   -1.9795 H   0  0  0  0  0  0  0  0  0  0  0  0
   -0.8982    0.8716   -1.1170 C   0  0  1  0  0  0  0  0  0  0  0  0
    0.0025    0.2566   -1.0156 H   0  0  0  0  0  0  0  0  0  0  0  0
   -0.7928    1.6475   -2.4467 C   0  0  0  0  0  0  0  0  0  0  0  0
   -1.7344    2.1709   -2.6407 H   0  0  0  0  0  0  0  0  0  0  0  0
   -0.0048    2.4055   -2.3861 H   0  0  0  0  0  0  0  0  0  0  0  0
   -0.4666    0.7225   -3.5914 C   0  0  0  0  0  0  0  0  0  0  0  0
   -1.3542    0.1646   -4.4807 C   0  0  0  0  0  0  0  0  0  0  0  0
   -2.4261    0.3442   -4.5039 H   0  0  0  0  0  0  0  0  0  0  0  0
   -0.6287   -0.6534   -5.3443 N   0  0  0  0  0  0  0  0  0  0  0  0
   -1.0154   -1.1804   -6.1247 H   0  0  0  0  0  0  0  0  0  0  0  0
    0.7175   -0.6278   -5.0156 C   0  0  0  0  0  0  0  0  0  0  0  0
    1.8247   -1.2666   -5.5745 C   0  0  0  0  0  0  0  0  0  0  0  0
    1.7039   -1.9251   -6.4273 H   0  0  0  0  0  0  0  0  0  0  0  0
    3.0935   -1.0451   -5.0199 C   0  0  0  0  0  0  0  0  0  0  0  0
    3.9648   -1.5352   -5.4444 H   0  0  0  0  0  0  0  0  0  0  0  0
    3.2400   -0.1894   -3.9170 C   0  0  0  0  0  0  0  0  0  0  0  0
    4.2235   -0.0181   -3.4897 H   0  0  0  0  0  0  0  0  0  0  0  0
    2.1204    0.4489   -3.3647 C   0  0  0  0  0  0  0  0  0  0  0  0
    2.2291    1.1154   -2.5149 H   0  0  0  0  0  0  0  0  0  0  0  0
    0.8591    0.2210   -3.9244 C   0  0  0  0  0  0  0  0  0  0  0  0
   -0.9115    1.8262    0.1084 C   0  0  0  0  0  0  0  0  0  0  0  0
   -0.6671    3.0215   -0.0098 O   0  0  0  0  0  0  0  0  0  0  0  0
   -1.2413    1.3516    1.3632 N   0  0  0  0  0  0  0  0  0  0  0  0
   -1.3426    0.3363    1.4434 H   0  0  0  0  0  0  0  0  0  0  0  0
   -1.2166    2.1608    2.5741 C   0  0  0  0  0  0  0  0  0  0  0  0
   -1.9051    3.0071    2.4826 H   0  0  0  0  0  0  0  0  0  0  0  0
   -1.5223    1.5584    3.4349 H   0  0  0  0  0  0  0  0  0  0  0  0
   -0.2077    2.5442    2.7589 H   0  0  0  0  0  0  0  0  0  0  0  0
  1  2  1  0  0  0  0
  2  3  1  0  0  0  0
  2  4  1  0  0  0  0
  2  5  1  0  0  0  0
  5  6  2  0  0  0  0
  5  7  1  0  0  0  0
  7  8  1  0  0  0  0
  7  9  1  0  0  0  0
  9 10  1  0  0  0  0
  9 11  1  0  0  0  0
  9 29  1  0  0  0  0
 11 12  1  0  0  0  0
 11 13  1  0  0  0  0
 11 14  1  0  0  0  0
 14 15  2  0  0  0  0
 14 28  1  0  0  0  0
 15 16  1  0  0  0  0
 15 17  1  0  0  0  0
 17 18  1  0  0  0  0
 17 19  1  0  0  0  0
 19 20  1  0  0  0  0
 19 28  2  0  0  0  0
 20 21  1  0  0  0  0
 20 22  2  0  0  0  0
 22 23  1  0  0  0  0
 22 24  1  0  0  0  0
 24 25  1  0  0  0  0
 24 26  2  0  0  0  0
 26 27  1  0  0  0  0
 26 28  1  0  0  0  0
 29 30  2  0  0  0  0
 29 31  1  0  0  0  0
 31 32  1  0  0  0  0
 31 33  1  0  0  0  0
 33 34  1  0  0  0  0
 33 35  1  0  0  0  0
 33 36  1  0  0  0  0
M  END
$$$$

  -OEChem-01062216103D

 36 37  0     1  0  0  0  0  0999 V2000
   -3.4557   -2.8012    0.1676 H   0  0  0  0  0  0  0  0  0  0  0  0
   -3.4510   -1.9911   -0.5672 C   0  0  0  0  0  0  0  0  0  0  0  0
   -4.3591   -1.3966   -0.4411 H   0  0  0  0  0  0  0  0  0  0  0  0
   -3.4428   -2.4255   -1.5698 H   0  0  0  0  0  0  0  0  0  0  0  0
   -2.2272   -1.1167   -0.3714 C   0  0  0  0  0  0  0  0  0  0  0  0
   -1.4234   -1.3795    0.5098 O   0  0  0  0  0  0  0  0  0  0  0  0
   -2.0380   -0.0118   -1.1756 N   0  0  0  0  0  0  0  0  0  0  0  0
   -2.7262    0.1550   -1.9014 H   0  0  0  0  0  0  0  0  0  0  0  0
   -0.8593    0.8741   -1.1214 C   0  0  1  0  0  0  0  0  0  0  0  0
    0.0428    0.2597   -1.0284 H   0  0  0  0  0  0  0  0  0  0  0  0
   -0.7564    1.6554   -2.4468 C   0  0  0  0  0  0  0  0  0  0  0  0
   -1.6970    2.1828   -2.6345 H   0  0  0  0  0  0  0  0  0  0  0  0
    0.0332    2.4113   -2.3804 H   0  0  0  0  0  0  0  0  0  0  0  0
   -0.4414    0.7322   -3.5968 C   0  0  0  0  0  0  0  0  0  0  0  0
   -1.3378    0.1832   -4.4829 C   0  0  0  0  0  0  0  0  0  0  0  0
   -2.4089    0.3675   -4.4970 H   0  0  0  0  0  0  0  0  0  0  0  0
   -0.6233   -0.6373   -5.3534 N   0  0  0  0  0  0  0  0  0  0  0  0
   -1.0193   -1.1639   -6.1294 H   0  0  0  0  0  0  0  0  0  0  0  0
    0.7247   -0.6228   -5.0320 C   0  0  0  0  0  0  0  0  0  0  0  0
    1.8225   -1.2726   -5.5965 C   0  0  0  0  0  0  0  0  0  0  0  0
    1.6904   -1.9321   -6.4469 H   0  0  0  0  0  0  0  0  0  0  0  0
    3.0965   -1.0617   -5.0499 C   0  0  0  0  0  0  0  0  0  0  0  0
    3.9605   -1.5603   -5.4792 H   0  0  0  0  0  0  0  0  0  0  0  0
    3.2573   -0.2063   -3.9489 C   0  0  0  0  0  0  0  0  0  0  0  0
    4.2452   -0.0436   -3.5282 H   0  0  0  0  0  0  0  0  0  0  0  0
    2.1462    0.4406   -3.3892 C   0  0  0  0  0  0  0  0  0  0  0  0
    2.2661    1.1042   -2.5390 H   0  0  0  0  0  0  0  0  0  0  0  0
    0.8794    0.2236   -3.9406 C   0  0  0  0  0  0  0  0  0  0  0  0
   -0.8758    1.8189    0.1075 C   0  0  0  0  0  0  0  0  0  0  0  0
   -0.9038    3.0378   -0.0193 O   0  0  0  0  0  0  0  0  0  0  0  0
   -0.8935    1.2876    1.3821 N   0  0  0  0  0  0  0  0  0  0  0  0
   -0.9368    0.2664    1.4443 H   0  0  0  0  0  0  0  0  0  0  0  0
   -0.9672    2.0812    2.6008 C   0  0  0  0  0  0  0  0  0  0  0  0
   -1.8983    2.6565    2.6274 H   0  0  0  0  0  0  0  0  0  0  0  0
   -0.9386    1.4273    3.4777 H   0  0  0  0  0  0  0  0  0  0  0  0
   -0.1210    2.7736    2.6589 H   0  0  0  0  0  0  0  0  0  0  0  0
  1  2  1  0  0  0  0
  2  3  1  0  0  0  0
  2  4  1  0  0  0  0
  2  5  1  0  0  0  0
  5  6  2  0  0  0  0
  5  7  1  0  0  0  0
  7  8  1  0  0  0  0
  7  9  1  0  0  0  0
  9 10  1  0  0  0  0
  9 11  1  0  0  0  0
  9 29  1  0  0  0  0
 11 12  1  0  0  0  0
 11 13  1  0  0  0  0
 11 14  1  0  0  0  0
 14 15  2  0  0  0  0
 14 28  1  0  0  0  0
 15 16  1  0  0  0  0
 15 17  1  0  0  0  0
 17 18  1  0  0  0  0
 17 19  1  0  0  0  0
 19 20  1  0  0  0  0
 19 28  2  0  0  0  0
 20 21  1  0  0  0  0
 20 22  2  0  0  0  0
 22 23  1  0  0  0  0
 22 24  1  0  0  0  0
 24 25  1  0  0  0  0
 24 26  2  0  0  0  0
 26 27  1  0  0  0  0
 26 28  1  0  0  0  0
 29 30  2  0  0  0  0
 29 31  1  0  0  0  0
 31 32  1  0  0  0  0
 31 33  1  0  0  0  0
 33 34  1  0  0  0  0
 33 35  1  0  0  0  0
 33 36  1  0  0  0  0
M  END
$$$$

  -OEChem-01062216103D

 36 37  0     1  0  0  0  0  0999 V2000
   -3.4086   -2.7687    0.2530 H   0  0  0  0  0  0  0  0  0  0  0  0
   -3.4214   -1.9660   -0.4899 C   0  0  0  0  0  0  0  0  0  0  0  0
   -4.3220   -1.3649   -0.3421 H   0  0  0  0  0  0  0  0  0  0  0  0
   -3.4460   -2.4110   -1.4876 H   0  0  0  0  0  0  0  0  0  0  0  0
   -2.1879   -1.0963   -0.3405 C   0  0  0  0  0  0  0  0  0  0  0  0
   -1.3655   -1.3441    0.5289 O   0  0  0  0  0  0  0  0  0  0  0  0
   -2.0091   -0.0072   -1.1682 N   0  0  0  0  0  0  0  0  0  0  0  0
   -2.7100    0.1612   -1.8814 H   0  0  0  0  0  0  0  0  0  0  0  0
   -0.8269    0.8708   -1.1249 C   0  0  1  0  0  0  0  0  0  0  0  0
    0.0764    0.2581   -1.0314 H   0  0  0  0  0  0  0  0  0  0  0  0
   -0.7237    1.6572   -2.4459 C   0  0  0  0  0  0  0  0  0  0  0  0
   -1.6625    2.1904   -2.6284 H   0  0  0  0  0  0  0  0  0  0  0  0
    0.0695    2.4090   -2.3748 H   0  0  0  0  0  0  0  0  0  0  0  0
   -0.4216    0.7399   -3.6027 C   0  0  0  0  0  0  0  0  0  0  0  0
   -1.3272    0.2045   -4.4874 C   0  0  0  0  0  0  0  0  0  0  0  0
   -2.3972    0.3970   -4.4940 H   0  0  0  0  0  0  0  0  0  0  0  0
   -0.6230   -0.6137   -5.3684 N   0  0  0  0  0  0  0  0  0  0  0  0
   -1.0275   -1.1309   -6.1464 H   0  0  0  0  0  0  0  0  0  0  0  0
    0.7267   -0.6130   -5.0534 C   0  0  0  0  0  0  0  0  0  0  0  0
    1.8175   -1.2661   -5.6281 C   0  0  0  0  0  0  0  0  0  0  0  0
    1.6766   -1.9156   -6.4849 H   0  0  0  0  0  0  0  0  0  0  0  0
    3.0948   -1.0725   -5.0825 C   0  0  0  0  0  0  0  0  0  0  0  0
    3.9533   -1.5746   -5.5184 H   0  0  0  0  0  0  0  0  0  0  0  0
    3.2660   -0.2303   -3.9728 C   0  0  0  0  0  0  0  0  0  0  0  0
    4.2557   -0.0816   -3.5516 H   0  0  0  0  0  0  0  0  0  0  0  0
    2.1628    0.4220   -3.4044 C   0  0  0  0  0  0  0  0  0  0  0  0
    2.2907    1.0761   -2.5478 H   0  0  0  0  0  0  0  0  0  0  0  0
    0.8929    0.2221   -3.9551 C   0  0  0  0  0  0  0  0  0  0  0  0
   -0.8601    1.8196    0.0964 C   0  0  0  0  0  0  0  0  0  0  0  0
   -1.1261    3.0105   -0.0220 O   0  0  0  0  0  0  0  0  0  0  0  0
   -0.5800    1.3131    1.3501 N   0  0  0  0  0  0  0  0  0  0  0  0
   -0.5631    0.2914    1.4141 H   0  0  0  0  0  0  0  0  0  0  0  0
   -0.7032    2.0898    2.5759 C   0  0  0  0  0  0  0  0  0  0  0  0
   -1.7417    2.4007    2.7299 H   0  0  0  0  0  0  0  0  0  0  0  0
   -0.3883    1.4888    3.4344 H   0  0  0  0  0  0  0  0  0  0  0  0
   -0.0705    2.9824    2.5301 H   0  0  0  0  0  0  0  0  0  0  0  0
  1  2  1  0  0  0  0
  2  3  1  0  0  0  0
  2  4  1  0  0  0  0
  2  5  1  0  0  0  0
  5  6  2  0  0  0  0
  5  7  1  0  0  0  0
  7  8  1  0  0  0  0
  7  9  1  0  0  0  0
  9 10  1  0  0  0  0
  9 11  1  0  0  0  0
  9 29  1  0  0  0  0
 11 12  1  0  0  0  0
 11 13  1  0  0  0  0
 11 14  1  0  0  0  0
 14 15  2  0  0  0  0
 14 28  1  0  0  0  0
 15 16  1  0  0  0  0
 15 17  1  0  0  0  0
 17 18  1  0  0  0  0
 17 19  1  0  0  0  0
 19 20  1  0  0  0  0
 19 28  2  0  0  0  0
 20 21  1  0  0  0  0
 20 22  2  0  0  0  0
 22 23  1  0  0  0  0
 22 24  1  0  0  0  0
 24 25  1  0  0  0  0
 24 26  2  0  0  0  0
 26 27  1  0  0  0  0
 26 28  1  0  0  0  0
 29 30  2  0  0  0  0
 29 31  1  0  0  0  0
 31 32  1  0  0  0  0
 31 33  1  0  0  0  0
 33 34  1  0  0  0  0
 33 35  1  0  0  0  0
 33 36  1  0  0  0  0
M  END
$$$$

  -OEChem-01062216103D

 36 37  0     1  0  0  0  0  0999 V2000
   -3.3905   -2.7341    0.3413 H   0  0  0  0  0  0  0  0  0  0  0  0
   -3.4219   -1.9408   -0.4110 C   0  0  0  0  0  0  0  0  0  0  0  0
   -4.3048   -1.3220   -0.2331 H   0  0  0  0  0  0  0  0  0  0  0  0
   -3.4967   -2.3976   -1.4008 H   0  0  0  0  0  0  0  0  0  0  0  0
   -2.1678   -1.0917   -0.3260 C   0  0  0  0  0  0  0  0  0  0  0  0
   -1.3153   -1.3362    0.5158 O   0  0  0  0  0  0  0  0  0  0  0  0
   -2.0006   -0.0175   -1.1754 N   0  0  0  0  0  0  0  0  0  0  0  0
   -2.7512    0.2018   -1.8213 H   0  0  0  0  0  0  0  0  0  0  0  0
   -0.8187    0.8578   -1.1346 C   0  0  1  0  0  0  0  0  0  0  0  0
    0.0863    0.2485   -1.0342 H   0  0  0  0  0  0  0  0  0  0  0  0
   -0.7049    1.6481   -2.4508 C   0  0  0  0  0  0  0  0  0  0  0  0
   -1.6401    2.1853   -2.6384 H   0  0  0  0  0  0  0  0  0  0  0  0
    0.0899    2.3969   -2.3701 H   0  0  0  0  0  0  0  0  0  0  0  0
   -0.4007    0.7345   -3.6095 C   0  0  0  0  0  0  0  0  0  0  0  0
   -1.3078    0.2091   -4.4983 C   0  0  0  0  0  0  0  0  0  0  0  0
   -2.3772    0.4040   -4.5010 H   0  0  0  0  0  0  0  0  0  0  0  0
   -0.6064   -0.6031   -5.3865 N   0  0  0  0  0  0  0  0  0  0  0  0
   -1.0128   -1.1139   -6.1675 H   0  0  0  0  0  0  0  0  0  0  0  0
    0.7437   -0.6061   -5.0734 C   0  0  0  0  0  0  0  0  0  0  0  0
    1.8314   -1.2554   -5.6574 C   0  0  0  0  0  0  0  0  0  0  0  0
    1.6864   -1.8978   -6.5187 H   0  0  0  0  0  0  0  0  0  0  0  0
    3.1111   -1.0663   -5.1159 C   0  0  0  0  0  0  0  0  0  0  0  0
    3.9674   -1.5656   -5.5594 H   0  0  0  0  0  0  0  0  0  0  0  0
    3.2876   -0.2316   -4.0014 C   0  0  0  0  0  0  0  0  0  0  0  0
    4.2796   -0.0853   -3.5848 H   0  0  0  0  0  0  0  0  0  0  0  0
    2.1868    0.4163   -3.4229 C   0  0  0  0  0  0  0  0  0  0  0  0
    2.3195    1.0645   -2.5627 H   0  0  0  0  0  0  0  0  0  0  0  0
    0.9138    0.2201   -3.9687 C   0  0  0  0  0  0  0  0  0  0  0  0
   -0.8791    1.8095    0.0791 C   0  0  0  0  0  0  0  0  0  0  0  0
   -1.3803    2.9251   -0.0087 O   0  0  0  0  0  0  0  0  0  0  0  0
   -0.3234    1.3997    1.2749 N   0  0  0  0  0  0  0  0  0  0  0  0
   -0.1712    0.3919    1.3516 H   0  0  0  0  0  0  0  0  0  0  0  0
   -0.4255    2.1776    2.5019 C   0  0  0  0  0  0  0  0  0  0  0  0
   -1.4725    2.2796    2.8053 H   0  0  0  0  0  0  0  0  0  0  0  0
    0.1244    1.6821    3.3076 H   0  0  0  0  0  0  0  0  0  0  0  0
   -0.0001    3.1765    2.3595 H   0  0  0  0  0  0  0  0  0  0  0  0
  1  2  1  0  0  0  0
  2  3  1  0  0  0  0
  2  4  1  0  0  0  0
  2  5  1  0  0  0  0
  5  6  2  0  0  0  0
  5  7  1  0  0  0  0
  7  8  1  0  0  0  0
  7  9  1  0  0  0  0
  9 10  1  0  0  0  0
  9 11  1  0  0  0  0
  9 29  1  0  0  0  0
 11 12  1  0  0  0  0
 11 13  1  0  0  0  0
 11 14  1  0  0  0  0
 14 15  2  0  0  0  0
 14 28  1  0  0  0  0
 15 16  1  0  0  0  0
 15 17  1  0  0  0  0
 17 18  1  0  0  0  0
 17 19  1  0  0  0  0
 19 20  1  0  0  0  0
 19 28  2  0  0  0  0
 20 21  1  0  0  0  0
 20 22  2  0  0  0  0
 22 23  1  0  0  0  0
 22 24  1  0  0  0  0
 24 25  1  0  0  0  0
 24 26  2  0  0  0  0
 26 27  1  0  0  0  0
 26 28  1  0  0  0  0
 29 30  2  0  0  0  0
 29 31  1  0  0  0  0
 31 32  1  0  0  0  0
 31 33  1  0  0  0  0
 33 34  1  0  0  0  0
 33 35  1  0  0  0  0
 33 36  1  0  0  0  0
M  END
$$$$

  -OEChem-01062216103D

 36 37  0     1  0  0  0  0  0999 V2000
   -3.4034   -2.6807    0.4301 H   0  0  0  0  0  0  0  0  0  0  0  0
   -3.4420   -1.8978   -0.3325 C   0  0  0  0  0  0  0  0  0  0  0  0
   -4.2794   -1.2317   -0.1112 H   0  0  0  0  0  0  0  0  0  0  0  0
   -3.6017   -2.3626   -1.3083 H   0  0  0  0  0  0  0  0  0  0  0  0
   -2.1444   -1.1133   -0.3399 C   0  0  0  0  0  0  0  0  0  0  0  0
   -1.2488   -1.3963    0.4426 O   0  0  0  0  0  0  0  0  0  0  0  0
   -1.9907   -0.0455   -1.1987 N   0  0  0  0  0  0  0  0  0  0  0  0
   -2.8080    0.2644   -1.7135 H   0  0  0  0  0  0  0  0  0  0  0  0
   -0.8134    0.8337   -1.1539 C   0  0  1  0  0  0  0  0  0  0  0  0
    0.0943    0.2282   -1.0549 H   0  0  0  0  0  0  0  0  0  0  0  0
   -0.6998    1.6327   -2.4628 C   0  0  0  0  0  0  0  0  0  0  0  0
   -1.6389    2.1643   -2.6487 H   0  0  0  0  0  0  0  0  0  0  0  0
    0.0896    2.3861   -2.3748 H   0  0  0  0  0  0  0  0  0  0  0  0
   -0.3902    0.7265   -3.6257 C   0  0  0  0  0  0  0  0  0  0  0  0
   -1.2927    0.2026   -4.5198 C   0  0  0  0  0  0  0  0  0  0  0  0
   -2.3634    0.3903   -4.5207 H   0  0  0  0  0  0  0  0  0  0  0  0
   -0.5849   -0.5982   -5.4137 N   0  0  0  0  0  0  0  0  0  0  0  0
   -0.9889   -1.1127   -6.1936 H   0  0  0  0  0  0  0  0  0  0  0  0
    0.7642   -0.5963   -5.0974 C   0  0  0  0  0  0  0  0  0  0  0  0
    1.8561   -1.2352   -5.6844 C   0  0  0  0  0  0  0  0  0  0  0  0
    1.7166   -1.8681   -6.5535 H   0  0  0  0  0  0  0  0  0  0  0  0
    3.1328   -1.0482   -5.1361 C   0  0  0  0  0  0  0  0  0  0  0  0
    3.9919   -1.5400   -5.5827 H   0  0  0  0  0  0  0  0  0  0  0  0
    3.3026   -0.2263   -4.0112 C   0  0  0  0  0  0  0  0  0  0  0  0
    4.2929   -0.0835   -3.5892 H   0  0  0  0  0  0  0  0  0  0  0  0
    2.1975    0.4123   -3.4303 C   0  0  0  0  0  0  0  0  0  0  0  0
    2.3248    1.0496   -2.5614 H   0  0  0  0  0  0  0  0  0  0  0  0
    0.9275    0.2198   -3.9844 C   0  0  0  0  0  0  0  0  0  0  0  0
   -0.8867    1.7871    0.0550 C   0  0  0  0  0  0  0  0  0  0  0  0
   -1.6238    2.7669    0.0358 O   0  0  0  0  0  0  0  0  0  0  0  0
   -0.0875    1.5480    1.1559 N   0  0  0  0  0  0  0  0  0  0  0  0
    0.2931    0.6044    1.2177 H   0  0  0  0  0  0  0  0  0  0  0  0
   -0.1827    2.3324    2.3797 C   0  0  0  0  0  0  0  0  0  0  0  0
   -1.1783    2.2300    2.8236 H   0  0  0  0  0  0  0  0  0  0  0  0
    0.5594    1.9883    3.1063 H   0  0  0  0  0  0  0  0  0  0  0  0
    0.0047    3.3912    2.1724 H   0  0  0  0  0  0  0  0  0  0  0  0
  1  2  1  0  0  0  0
  2  3  1  0  0  0  0
  2  4  1  0  0  0  0
  2  5  1  0  0  0  0
  5  6  2  0  0  0  0
  5  7  1  0  0  0  0
  7  8  1  0  0  0  0
  7  9  1  0  0  0  0
  9 10  1  0  0  0  0
  9 11  1  0  0  0  0
  9 29  1  0  0  0  0
 11 12  1  0  0  0  0
 11 13  1  0  0  0  0
 11 14  1  0  0  0  0
 14 15  2  0  0  0  0
 14 28  1  0  0  0  0
 15 16  1  0  0  0  0
 15 17  1  0  0  0  0
 17 18  1  0  0  0  0
 17 19  1  0  0  0  0
 19 20  1  0  0  0  0
 19 28  2  0  0  0  0
 20 21  1  0  0  0  0
 20 22  2  0  0  0  0
 22 23  1  0  0  0  0
 22 24  1  0  0  0  0
 24 25  1  0  0  0  0
 24 26  2  0  0  0  0
 26 27  1  0  0  0  0
 26 28  1  0  0  0  0
 29 30  2  0  0  0  0
 29 31  1  0  0  0  0
 31 32  1  0  0  0  0
 31 33  1  0  0  0  0
 33 34  1  0  0  0  0
 33 35  1  0  0  0  0
 33 36  1  0  0  0  0
M  END
$$$$

  -OEChem-01062216103D

 36 37  0     1  0  0  0  0  0999 V2000
   -3.4305   -2.6515    0.4884 H   0  0  0  0  0  0  0  0  0  0  0  0
   -3.4716   -1.8748   -0.2805 C   0  0  0  0  0  0  0  0  0  0  0  0
   -4.2771   -1.1788   -0.0340 H   0  0  0  0  0  0  0  0  0  0  0  0
   -3.6846   -2.3438   -1.2440 H   0  0  0  0  0  0  0  0  0  0  0  0
   -2.1487   -1.1353   -0.3458 C   0  0  0  0  0  0  0  0  0  0  0  0
   -1.2313   -1.4546    0.3954 O   0  0  0  0  0  0  0  0  0  0  0  0
   -1.9943   -0.0736   -1.2127 N   0  0  0  0  0  0  0  0  0  0  0  0
   -2.8361    0.2842   -1.6520 H   0  0  0  0  0  0  0  0  0  0  0  0
   -0.8167    0.8062   -1.1609 C   0  0  1  0  0  0  0  0  0  0  0  0
    0.0893    0.1996   -1.0557 H   0  0  0  0  0  0  0  0  0  0  0  0
   -0.6962    1.6113   -2.4649 C   0  0  0  0  0  0  0  0  0  0  0  0
   -1.6340    2.1445   -2.6521 H   0  0  0  0  0  0  0  0  0  0  0  0
    0.0932    2.3638   -2.3703 H   0  0  0  0  0  0  0  0  0  0  0  0
   -0.3813    0.7126   -3.6321 C   0  0  0  0  0  0  0  0  0  0  0  0
   -1.2806    0.1951   -4.5329 C   0  0  0  0  0  0  0  0  0  0  0  0
   -2.3524    0.3778   -4.5319 H   0  0  0  0  0  0  0  0  0  0  0  0
   -0.5682   -0.5930   -5.4345 N   0  0  0  0  0  0  0  0  0  0  0  0
   -0.9699   -1.1024   -6.2187 H   0  0  0  0  0  0  0  0  0  0  0  0
    0.7807   -0.5890   -5.1174 C   0  0  0  0  0  0  0  0  0  0  0  0
    1.8764   -1.2171   -5.7095 C   0  0  0  0  0  0  0  0  0  0  0  0
    1.7409   -1.8430   -6.5846 H   0  0  0  0  0  0  0  0  0  0  0  0
    3.1521   -1.0287   -5.1586 C   0  0  0  0  0  0  0  0  0  0  0  0
    4.0138   -1.5118   -5.6096 H   0  0  0  0  0  0  0  0  0  0  0  0
    3.3169   -0.2167   -4.0258 C   0  0  0  0  0  0  0  0  0  0  0  0
    4.3062   -0.0732   -3.6018 H   0  0  0  0  0  0  0  0  0  0  0  0
    2.2081    0.4106   -3.4395 C   0  0  0  0  0  0  0  0  0  0  0  0
    2.3313    1.0402   -2.5645 H   0  0  0  0  0  0  0  0  0  0  0  0
    0.9393    0.2166   -3.9958 C   0  0  0  0  0  0  0  0  0  0  0  0
   -0.8955    1.7686    0.0395 C   0  0  0  0  0  0  0  0  0  0  0  0
   -1.8057    2.5871    0.1130 O   0  0  0  0  0  0  0  0  0  0  0  0
    0.0870    1.7443    1.0109 N   0  0  0  0  0  0  0  0  0  0  0  0
    0.6881    0.9235    1.0150 H   0  0  0  0  0  0  0  0  0  0  0  0
    0.0188    2.5559    2.2189 C   0  0  0  0  0  0  0  0  0  0  0  0
   -0.8755    2.3048    2.7987 H   0  0  0  0  0  0  0  0  0  0  0  0
    0.8994    2.3771    2.8433 H   0  0  0  0  0  0  0  0  0  0  0  0
   -0.0116    3.6205    1.9644 H   0  0  0  0  0  0  0  0  0  0  0  0
  1  2  1  0  0  0  0
  2  3  1  0  0  0  0
  2  4  1  0  0  0  0
  2  5  1  0  0  0  0
  5  6  2  0  0  0  0
  5  7  1  0  0  0  0
  7  8  1  0  0  0  0
  7  9  1  0  0  0  0
  9 10  1  0  0  0  0
  9 11  1  0  0  0  0
  9 29  1  0  0  0  0
 11 12  1  0  0  0  0
 11 13  1  0  0  0  0
 11 14  1  0  0  0  0
 14 15  2  0  0  0  0
 14 28  1  0  0  0  0
 15 16  1  0  0  0  0
 15 17  1  0  0  0  0
 17 18  1  0  0  0  0
 17 19  1  0  0  0  0
 19 20  1  0  0  0  0
 19 28  2  0  0  0  0
 20 21  1  0  0  0  0
 20 22  2  0  0  0  0
 22 23  1  0  0  0  0
 22 24  1  0  0  0  0
 24 25  1  0  0  0  0
 24 26  2  0  0  0  0
 26 27  1  0  0  0  0
 26 28  1  0  0  0  0
 29 30  2  0  0  0  0
 29 31  1  0  0  0  0
 31 32  1  0  0  0  0
 31 33  1  0  0  0  0
 33 34  1  0  0  0  0
 33 35  1  0  0  0  0
 33 36  1  0  0  0  0
M  END
$$$$

  -OEChem-01062216103D

 36 37  0     1  0  0  0  0  0999 V2000
   -3.4362   -2.6571    0.4848 H   0  0  0  0  0  0  0  0  0  0  0  0
   -3.4890   -1.8550   -0.2568 C   0  0  0  0  0  0  0  0  0  0  0  0
   -4.2626   -1.1453    0.0467 H   0  0  0  0  0  0  0  0  0  0  0  0
   -3.7567   -2.2870   -1.2240 H   0  0  0  0  0  0  0  0  0  0  0  0
   -2.1503   -1.1493   -0.3575 C   0  0  0  0  0  0  0  0  0  0  0  0
   -1.2195   -1.4991    0.3524 O   0  0  0  0  0  0  0  0  0  0  0  0
   -1.9961   -0.0911   -1.2286 N   0  0  0  0  0  0  0  0  0  0  0  0
   -2.8523    0.3015   -1.6062 H   0  0  0  0  0  0  0  0  0  0  0  0
   -0.8188    0.7894   -1.1674 C   0  0  1  0  0  0  0  0  0  0  0  0
    0.0861    0.1822   -1.0569 H   0  0  0  0  0  0  0  0  0  0  0  0
   -0.6972    1.5982   -2.4681 C   0  0  0  0  0  0  0  0  0  0  0  0
   -1.6356    2.1309   -2.6539 H   0  0  0  0  0  0  0  0  0  0  0  0
    0.0910    2.3515   -2.3700 H   0  0  0  0  0  0  0  0  0  0  0  0
   -0.3782    0.7041   -3.6377 C   0  0  0  0  0  0  0  0  0  0  0  0
   -1.2743    0.1875   -4.5424 C   0  0  0  0  0  0  0  0  0  0  0  0
   -2.3471    0.3646   -4.5419 H   0  0  0  0  0  0  0  0  0  0  0  0
   -0.5583   -0.5963   -5.4449 N   0  0  0  0  0  0  0  0  0  0  0  0
   -0.9580   -1.1095   -6.2277 H   0  0  0  0  0  0  0  0  0  0  0  0
    0.7901   -0.5884   -5.1258 C   0  0  0  0  0  0  0  0  0  0  0  0
    1.8882   -1.2118   -5.7180 C   0  0  0  0  0  0  0  0  0  0  0  0
    1.7549   -1.8380   -6.5930 H   0  0  0  0  0  0  0  0  0  0  0  0
    3.1626   -1.0189   -5.1666 C   0  0  0  0  0  0  0  0  0  0  0  0
    4.0262   -1.4985   -5.6177 H   0  0  0  0  0  0  0  0  0  0  0  0
    3.3239   -0.2076   -4.0327 C   0  0  0  0  0  0  0  0  0  0  0  0
    4.3128   -0.0607   -3.6086 H   0  0  0  0  0  0  0  0  0  0  0  0
    2.2123    0.4136   -3.4452 C   0  0  0  0  0  0  0  0  0  0  0  0
    2.3327    1.0419   -2.5692 H   0  0  0  0  0  0  0  0  0  0  0  0
    0.9446    0.2151   -4.0022 C   0  0  0  0  0  0  0  0  0  0  0  0
   -0.9025    1.7573    0.0289 C   0  0  0  0  0  0  0  0  0  0  0  0
   -1.9273    2.4038    0.2196 O   0  0  0  0  0  0  0  0  0  0  0  0
    0.1989    1.9657    0.8381 N   0  0  0  0  0  0  0  0  0  0  0  0
    0.9589    1.2967    0.7483 H   0  0  0  0  0  0  0  0  0  0  0  0
    0.1542    2.8083    2.0265 C   0  0  0  0  0  0  0  0  0  0  0  0
   -0.5588    2.4062    2.7538 H   0  0  0  0  0  0  0  0  0  0  0  0
    1.1419    2.8520    2.4952 H   0  0  0  0  0  0  0  0  0  0  0  0
   -0.1469    3.8279    1.7640 H   0  0  0  0  0  0  0  0  0  0  0  0
  1  2  1  0  0  0  0
  2  3  1  0  0  0  0
  2  4  1  0  0  0  0
  2  5  1  0  0  0  0
  5  6  2  0  0  0  0
  5  7  1  0  0  0  0
  7  8  1  0  0  0  0
  7  9  1  0  0  0  0
  9 10  1  0  0  0  0
  9 11  1  0  0  0  0
  9 29  1  0  0  0  0
 11 12  1  0  0  0  0
 11 13  1  0  0  0  0
 11 14  1  0  0  0  0
 14 15  2  0  0  0  0
 14 28  1  0  0  0  0
 15 16  1  0  0  0  0
 15 17  1  0  0  0  0
 17 18  1  0  0  0  0
 17 19  1  0  0  0  0
 19 20  1  0  0  0  0
 19 28  2  0  0  0  0
 20 21  1  0  0  0  0
 20 22  2  0  0  0  0
 22 23  1  0  0  0  0
 22 24  1  0  0  0  0
 24 25  1  0  0  0  0
 24 26  2  0  0  0  0
 26 27  1  0  0  0  0
 26 28  1  0  0  0  0
 29 30  2  0  0  0  0
 29 31  1  0  0  0  0
 31 32  1  0  0  0  0
 31 33  1  0  0  0  0
 33 34  1  0  0  0  0
 33 35  1  0  0  0  0
 33 36  1  0  0  0  0
M  END
$$$$

  -OEChem-01062216103D

 36 37  0     1  0  0  0  0  0999 V2000
   -3.4614   -2.6427    0.5100 H   0  0  0  0  0  0  0  0  0  0  0  0
   -3.5084   -1.8468   -0.2386 C   0  0  0  0  0  0  0  0  0  0  0  0
   -4.2613   -1.1175    0.0702 H   0  0  0  0  0  0  0  0  0  0  0  0
   -3.8008   -2.2815   -1.1973 H   0  0  0  0  0  0  0  0  0  0  0  0
   -2.1569   -1.1707   -0.3674 C   0  0  0  0  0  0  0  0  0  0  0  0
   -1.2173   -1.5490    0.3153 O   0  0  0  0  0  0  0  0  0  0  0  0
   -2.0017   -0.1125   -1.2386 N   0  0  0  0  0  0  0  0  0  0  0  0
   -2.8646    0.2987   -1.5790 H   0  0  0  0  0  0  0  0  0  0  0  0
   -0.8258    0.7704   -1.1650 C   0  0  1  0  0  0  0  0  0  0  0  0
    0.0797    0.1651   -1.0486 H   0  0  0  0  0  0  0  0  0  0  0  0
   -0.7031    1.5825   -2.4637 C   0  0  0  0  0  0  0  0  0  0  0  0
   -1.6435    2.1111   -2.6503 H   0  0  0  0  0  0  0  0  0  0  0  0
    0.0816    2.3392   -2.3630 H   0  0  0  0  0  0  0  0  0  0  0  0
   -0.3769    0.6940   -3.6357 C   0  0  0  0  0  0  0  0  0  0  0  0
   -1.2703    0.1783   -4.5437 C   0  0  0  0  0  0  0  0  0  0  0  0
   -2.3439    0.3497   -4.5419 H   0  0  0  0  0  0  0  0  0  0  0  0
   -0.5501   -0.5947   -5.4520 N   0  0  0  0  0  0  0  0  0  0  0  0
   -0.9475   -1.1057   -6.2375 H   0  0  0  0  0  0  0  0  0  0  0  0
    0.7983   -0.5822   -5.1329 C   0  0  0  0  0  0  0  0  0  0  0  0
    1.8995   -1.1967   -5.7292 C   0  0  0  0  0  0  0  0  0  0  0  0
    1.7700   -1.8177   -6.6085 H   0  0  0  0  0  0  0  0  0  0  0  0
    3.1727   -1.0027   -5.1757 C   0  0  0  0  0  0  0  0  0  0  0  0
    4.0381   -1.4768   -5.6290 H   0  0  0  0  0  0  0  0  0  0  0  0
    3.3302   -0.1981   -4.0366 C   0  0  0  0  0  0  0  0  0  0  0  0
    4.3185   -0.0506   -3.6116 H   0  0  0  0  0  0  0  0  0  0  0  0
    2.2158    0.4144   -3.4453 C   0  0  0  0  0  0  0  0  0  0  0  0
    2.3339    1.0369   -2.5651 H   0  0  0  0  0  0  0  0  0  0  0  0
    0.9488    0.2142   -4.0034 C   0  0  0  0  0  0  0  0  0  0  0  0
   -0.9141    1.7418    0.0297 C   0  0  0  0  0  0  0  0  0  0  0  0
   -1.9978    2.2159    0.3554 O   0  0  0  0  0  0  0  0  0  0  0  0
    0.2369    2.1886    0.6527 N   0  0  0  0  0  0  0  0  0  0  0  0
    1.0986    1.6970    0.4343 H   0  0  0  0  0  0  0  0  0  0  0  0
    0.2182    3.0872    1.8001 C   0  0  0  0  0  0  0  0  0  0  0  0
   -0.3238    2.6309    2.6351 H   0  0  0  0  0  0  0  0  0  0  0  0
    1.2398    3.3042    2.1267 H   0  0  0  0  0  0  0  0  0  0  0  0
   -0.2677    4.0332    1.5389 H   0  0  0  0  0  0  0  0  0  0  0  0
  1  2  1  0  0  0  0
  2  3  1  0  0  0  0
  2  4  1  0  0  0  0
  2  5  1  0  0  0  0
  5  6  2  0  0  0  0
  5  7  1  0  0  0  0
  7  8  1  0  0  0  0
  7  9  1  0  0  0  0
  9 10  1  0  0  0  0
  9 11  1  0  0  0  0
  9 29  1  0  0  0  0
 11 12  1  0  0  0  0
 11 13  1  0  0  0  0
 11 14  1  0  0  0  0
 14 15  2  0  0  0  0
 14 28  1  0  0  0  0
 15 16  1  0  0  0  0
 15 17  1  0  0  0  0
 17 18  1  0  0  0  0
 17 19  1  0  0  0  0
 19 20  1  0  0  0  0
 19 28  2  0  0  0  0
 20 21  1  0  0  0  0
 20 22  2  0  0  0  0
 22 23  1  0  0  0  0
 22 24  1  0  0  0  0
 24 25  1  0  0  0  0
 24 26  2  0  0  0  0
 26 27  1  0  0  0  0
 26 28  1  0  0  0  0
 29 30  2  0  0  0  0
 29 31  1  0  0  0  0
 31 32  1  0  0  0  0
 31 33  1  0  0  0  0
 33 34  1  0  0  0  0
 33 35  1  0  0  0  0
 33 36  1  0  0  0  0
M  END
$$$$

  -OEChem-01062216103D

 36 37  0     1  0  0  0  0  0999 V2000
   -3.4634   -2.6513    0.4983 H   0  0  0  0  0  0  0  0  0  0  0  0
   -3.5194   -1.8363   -0.2287 C   0  0  0  0  0  0  0  0  0  0  0  0
   -4.2504   -1.1031    0.1208 H   0  0  0  0  0  0  0  0  0  0  0  0
   -3.8468   -2.2420   -1.1889 H   0  0  0  0  0  0  0  0  0  0  0  0
   -2.1609   -1.1792   -0.3800 C   0  0  0  0  0  0  0  0  0  0  0  0
   -1.2134   -1.5808    0.2781 O   0  0  0  0  0  0  0  0  0  0  0  0
   -2.0063   -0.1193   -1.2500 N   0  0  0  0  0  0  0  0  0  0  0  0
   -2.8728    0.3029   -1.5665 H   0  0  0  0  0  0  0  0  0  0  0  0
   -0.8300    0.7642   -1.1646 C   0  0  1  0  0  0  0  0  0  0  0  0
    0.0764    0.1607   -1.0447 H   0  0  0  0  0  0  0  0  0  0  0  0
   -0.7081    1.5740   -2.4663 C   0  0  0  0  0  0  0  0  0  0  0  0
   -1.6506    2.0982   -2.6551 H   0  0  0  0  0  0  0  0  0  0  0  0
    0.0728    2.3345   -2.3694 H   0  0  0  0  0  0  0  0  0  0  0  0
   -0.3768    0.6850   -3.6367 C   0  0  0  0  0  0  0  0  0  0  0  0
   -1.2682    0.1653   -4.5441 C   0  0  0  0  0  0  0  0  0  0  0  0
   -2.3429    0.3303   -4.5398 H   0  0  0  0  0  0  0  0  0  0  0  0
   -0.5451   -0.6034   -5.4537 N   0  0  0  0  0  0  0  0  0  0  0  0
   -0.9413   -1.1189   -6.2369 H   0  0  0  0  0  0  0  0  0  0  0  0
    0.8035   -0.5845   -5.1359 C   0  0  0  0  0  0  0  0  0  0  0  0
    1.9071   -1.1925   -5.7346 C   0  0  0  0  0  0  0  0  0  0  0  0
    1.7796   -1.8120   -6.6154 H   0  0  0  0  0  0  0  0  0  0  0  0
    3.1802   -0.9934   -5.1820 C   0  0  0  0  0  0  0  0  0  0  0  0
    4.0477   -1.4622   -5.6370 H   0  0  0  0  0  0  0  0  0  0  0  0
    3.3344   -0.1911   -4.0409 C   0  0  0  0  0  0  0  0  0  0  0  0
    4.3221   -0.0404   -3.6157 H   0  0  0  0  0  0  0  0  0  0  0  0
    2.2174    0.4145   -3.4475 C   0  0  0  0  0  0  0  0  0  0  0  0
    2.3328    1.0336   -2.5650 H   0  0  0  0  0  0  0  0  0  0  0  0
    0.9510    0.2109   -4.0054 C   0  0  0  0  0  0  0  0  0  0  0  0
   -0.9195    1.7363    0.0323 C   0  0  0  0  0  0  0  0  0  0  0  0
   -2.0110    2.0339    0.5070 O   0  0  0  0  0  0  0  0  0  0  0  0
    0.2054    2.4177    0.4627 N   0  0  0  0  0  0  0  0  0  0  0  0
    1.1025    2.1040    0.1044 H   0  0  0  0  0  0  0  0  0  0  0  0
    0.1872    3.3566    1.5779 C   0  0  0  0  0  0  0  0  0  0  0  0
   -0.1337    2.8544    2.4967 H   0  0  0  0  0  0  0  0  0  0  0  0
    1.1871    3.7700    1.7404 H   0  0  0  0  0  0  0  0  0  0  0  0
   -0.4983    4.1852    1.3712 H   0  0  0  0  0  0  0  0  0  0  0  0
  1  2  1  0  0  0  0
  2  3  1  0  0  0  0
  2  4  1  0  0  0  0
  2  5  1  0  0  0  0
  5  6  2  0  0  0  0
  5  7  1  0  0  0  0
  7  8  1  0  0  0  0
  7  9  1  0  0  0  0
  9 10  1  0  0  0  0
  9 11  1  0  0  0  0
  9 29  1  0  0  0  0
 11 12  1  0  0  0  0
 11 13  1  0  0  0  0
 11 14  1  0  0  0  0
 14 15  2  0  0  0  0
 14 28  1  0  0  0  0
 15 16  1  0  0  0  0
 15 17  1  0  0  0  0
 17 18  1  0  0  0  0
 17 19  1  0  0  0  0
 19 20  1  0  0  0  0
 19 28  2  0  0  0  0
 20 21  1  0  0  0  0
 20 22  2  0  0  0  0
 22 23  1  0  0  0  0
 22 24  1  0  0  0  0
 24 25  1  0  0  0  0
 24 26  2  0  0  0  0
 26 27  1  0  0  0  0
 26 28  1  0  0  0  0
 29 30  2  0  0  0  0
 29 31  1  0  0  0  0
 31 32  1  0  0  0  0
 31 33  1  0  0  0  0
 33 34  1  0  0  0  0
 33 35  1  0  0  0  0
 33 36  1  0  0  0  0
M  END
$$$$

  -OEChem-01062216103D

 36 37  0     1  0  0  0  0  0999 V2000
   -3.4442   -2.6515    0.5180 H   0  0  0  0  0  0  0  0  0  0  0  0
   -3.5270   -1.8143   -0.1805 C   0  0  0  0  0  0  0  0  0  0  0  0
   -4.1915   -1.0619    0.2514 H   0  0  0  0  0  0  0  0  0  0  0  0
   -3.9539   -2.1773   -1.1181 H   0  0  0  0  0  0  0  0  0  0  0  0
   -2.1593   -1.2092   -0.4316 C   0  0  0  0  0  0  0  0  0  0  0  0
   -1.1685   -1.6979    0.0902 O   0  0  0  0  0  0  0  0  0  0  0  0
   -2.0306   -0.1276   -1.2811 N   0  0  0  0  0  0  0  0  0  0  0  0
   -2.9091    0.3049   -1.5422 H   0  0  0  0  0  0  0  0  0  0  0  0
   -0.8614    0.7657   -1.1772 C   0  0  1  0  0  0  0  0  0  0  0  0
    0.0491    0.1773   -1.3345 H   0  0  0  0  0  0  0  0  0  0  0  0
   -0.9585    1.8339   -2.2829 C   0  0  0  0  0  0  0  0  0  0  0  0
   -1.9251    2.3429   -2.2104 H   0  0  0  0  0  0  0  0  0  0  0  0
   -0.1817    2.5939   -2.1557 H   0  0  0  0  0  0  0  0  0  0  0  0
   -0.8048    1.2220   -3.6510 C   0  0  0  0  0  0  0  0  0  0  0  0
   -1.8193    0.8589   -4.5041 C   0  0  0  0  0  0  0  0  0  0  0  0
   -2.8827    0.9731   -4.3092 H   0  0  0  0  0  0  0  0  0  0  0  0
   -1.2359    0.3233   -5.6499 N   0  0  0  0  0  0  0  0  0  0  0  0
   -1.7419   -0.0394   -6.4552 H   0  0  0  0  0  0  0  0  0  0  0  0
    0.1451    0.3340   -5.5382 C   0  0  0  0  0  0  0  0  0  0  0  0
    1.1501   -0.0939   -6.4060 C   0  0  0  0  0  0  0  0  0  0  0  0
    0.8960   -0.5271   -7.3670 H   0  0  0  0  0  0  0  0  0  0  0  0
    2.4905    0.0414   -6.0182 C   0  0  0  0  0  0  0  0  0  0  0  0
    3.2832   -0.2890   -6.6829 H   0  0  0  0  0  0  0  0  0  0  0  0
    2.8092    0.6015   -4.7716 C   0  0  0  0  0  0  0  0  0  0  0  0
    3.8486    0.7037   -4.4747 H   0  0  0  0  0  0  0  0  0  0  0  0
    1.7903    1.0275   -3.9075 C   0  0  0  0  0  0  0  0  0  0  0  0
    2.0340    1.4586   -2.9430 H   0  0  0  0  0  0  0  0  0  0  0  0
    0.4556    0.8892   -4.3022 C   0  0  0  0  0  0  0  0  0  0  0  0
   -0.7321    1.4569    0.2053 C   0  0  0  0  0  0  0  0  0  0  0  0
   -1.6727    1.4603    0.9934 O   0  0  0  0  0  0  0  0  0  0  0  0
    0.3207    2.3217    0.4532 N   0  0  0  0  0  0  0  0  0  0  0  0
    1.1018    2.3010   -0.1949 H   0  0  0  0  0  0  0  0  0  0  0  0
    0.4594    3.0760    1.6932 C   0  0  0  0  0  0  0  0  0  0  0  0
    0.5039    2.3972    2.5515 H   0  0  0  0  0  0  0  0  0  0  0  0
    1.3780    3.6700    1.6735 H   0  0  0  0  0  0  0  0  0  0  0  0
   -0.3884    3.7563    1.8249 H   0  0  0  0  0  0  0  0  0  0  0  0
  1  2  1  0  0  0  0
  2  3  1  0  0  0  0
  2  4  1  0  0  0  0
  2  5  1  0  0  0  0
  5  6  2  0  0  0  0
  5  7  1  0  0  0  0
  7  8  1  0  0  0  0
  7  9  1  0  0  0  0
  9 10  1  0  0  0  0
  9 11  1  0  0  0  0
  9 29  1  0  0  0  0
 11 12  1  0  0  0  0
 11 13  1  0  0  0  0
 11 14  1  0  0  0  0
 14 15  2  0  0  0  0
 14 28  1  0  0  0  0
 15 16  1  0  0  0  0
 15 17  1  0  0  0  0
 17 18  1  0  0  0  0
 17 19  1  0  0  0  0
 19 20  1  0  0  0  0
 19 28  2  0  0  0  0
 20 21  1  0  0  0  0
 20 22  2  0  0  0  0
 22 23  1  0  0  0  0
 22 24  1  0  0  0  0
 24 25  1  0  0  0  0
 24 26  2  0  0  0  0
 26 27  1  0  0  0  0
 26 28  1  0  0  0  0
 29 30  2  0  0  0  0
 29 31  1  0  0  0  0
 31 32  1  0  0  0  0
 31 33  1  0  0  0  0
 33 34  1  0  0  0  0
 33 35  1  0  0  0  0
 33 36  1  0  0  0  0
M  END
$$$$

  -OEChem-01062216103D

 36 37  0     1  0  0  0  0  0999 V2000
   -3.4373   -2.6656    0.4858 H   0  0  0  0  0  0  0  0  0  0  0  0
   -3.5306   -1.7979   -0.1735 C   0  0  0  0  0  0  0  0  0  0  0  0
   -4.1628   -1.0525    0.3152 H   0  0  0  0  0  0  0  0  0  0  0  0
   -4.0005   -2.1129   -1.1080 H   0  0  0  0  0  0  0  0  0  0  0  0
   -2.1612   -1.2079   -0.4520 C   0  0  0  0  0  0  0  0  0  0  0  0
   -1.1621   -1.7360    0.0119 O   0  0  0  0  0  0  0  0  0  0  0  0
   -2.0378   -0.1141   -1.2873 N   0  0  0  0  0  0  0  0  0  0  0  0
   -2.9199    0.3223   -1.5288 H   0  0  0  0  0  0  0  0  0  0  0  0
   -0.8694    0.7825   -1.1798 C   0  0  1  0  0  0  0  0  0  0  0  0
    0.0404    0.1939   -1.3408 H   0  0  0  0  0  0  0  0  0  0  0  0
   -0.9725    1.8373   -2.3005 C   0  0  0  0  0  0  0  0  0  0  0  0
   -1.9426    2.3400   -2.2343 H   0  0  0  0  0  0  0  0  0  0  0  0
   -0.2010    2.6046   -2.1907 H   0  0  0  0  0  0  0  0  0  0  0  0
   -0.8115    1.2108   -3.6615 C   0  0  0  0  0  0  0  0  0  0  0  0
   -1.8217    0.8303   -4.5122 C   0  0  0  0  0  0  0  0  0  0  0  0
   -2.8862    0.9354   -4.3182 H   0  0  0  0  0  0  0  0  0  0  0  0
   -1.2323    0.2929   -5.6542 N   0  0  0  0  0  0  0  0  0  0  0  0
   -1.7339   -0.0839   -6.4558 H   0  0  0  0  0  0  0  0  0  0  0  0
    0.1483    0.3183   -5.5417 C   0  0  0  0  0  0  0  0  0  0  0  0
    1.1575   -0.1050   -6.4069 C   0  0  0  0  0  0  0  0  0  0  0  0
    0.9069   -0.5443   -7.3662 H   0  0  0  0  0  0  0  0  0  0  0  0
    2.4967    0.0430   -6.0187 C   0  0  0  0  0  0  0  0  0  0  0  0
    3.2929   -0.2838   -6.6813 H   0  0  0  0  0  0  0  0  0  0  0  0
    2.8098    0.6092   -4.7735 C   0  0  0  0  0  0  0  0  0  0  0  0
    3.8480    0.7178   -4.4746 H   0  0  0  0  0  0  0  0  0  0  0  0
    1.7867    1.0314   -3.9124 C   0  0  0  0  0  0  0  0  0  0  0  0
    2.0280    1.4647   -2.9482 H   0  0  0  0  0  0  0  0  0  0  0  0
    0.4530    0.8832   -4.3085 C   0  0  0  0  0  0  0  0  0  0  0  0
   -0.7209    1.4677    0.2092 C   0  0  0  0  0  0  0  0  0  0  0  0
   -1.5338    1.2658    1.1049 O   0  0  0  0  0  0  0  0  0  0  0  0
    0.1292    2.5507    0.3694 N   0  0  0  0  0  0  0  0  0  0  0  0
    0.7996    2.7301   -0.3714 H   0  0  0  0  0  0  0  0  0  0  0  0
    0.2380    3.3115    1.6092 C   0  0  0  0  0  0  0  0  0  0  0  0
    0.5327    2.6565    2.4360 H   0  0  0  0  0  0  0  0  0  0  0  0
    0.9920    4.0976    1.5052 H   0  0  0  0  0  0  0  0  0  0  0  0
   -0.7191    3.7830    1.8561 H   0  0  0  0  0  0  0  0  0  0  0  0
  1  2  1  0  0  0  0
  2  3  1  0  0  0  0
  2  4  1  0  0  0  0
  2  5  1  0  0  0  0
  5  6  2  0  0  0  0
  5  7  1  0  0  0  0
  7  8  1  0  0  0  0
  7  9  1  0  0  0  0
  9 10  1  0  0  0  0
  9 11  1  0  0  0  0
  9 29  1  0  0  0  0
 11 12  1  0  0  0  0
 11 13  1  0  0  0  0
 11 14  1  0  0  0  0
 14 15  2  0  0  0  0
 14 28  1  0  0  0  0
 15 16  1  0  0  0  0
 15 17  1  0  0  0  0
 17 18  1  0  0  0  0
 17 19  1  0  0  0  0
 19 20  1  0  0  0  0
 19 28  2  0  0  0  0
 20 21  1  0  0  0  0
 20 22  2  0  0  0  0
 22 23  1  0  0  0  0
 22 24  1  0  0  0  0
 24 25  1  0  0  0  0
 24 26  2  0  0  0  0
 26 27  1  0  0  0  0
 26 28  1  0  0  0  0
 29 30  2  0  0  0  0
 29 31  1  0  0  0  0
 31 32  1  0  0  0  0
 31 33  1  0  0  0  0
 33 34  1  0  0  0  0
 33 35  1  0  0  0  0
 33 36  1  0  0  0  0
M  END
$$$$

  -OEChem-01062216103D

 36 37  0     1  0  0  0  0  0999 V2000
   -3.4356   -2.6566    0.4768 H   0  0  0  0  0  0  0  0  0  0  0  0
   -3.5309   -1.7806   -0.1712 C   0  0  0  0  0  0  0  0  0  0  0  0
   -4.1455   -1.0338    0.3372 H   0  0  0  0  0  0  0  0  0  0  0  0
   -4.0209   -2.0796   -1.1007 H   0  0  0  0  0  0  0  0  0  0  0  0
   -2.1606   -1.2030   -0.4689 C   0  0  0  0  0  0  0  0  0  0  0  0
   -1.1582   -1.7683   -0.0611 O   0  0  0  0  0  0  0  0  0  0  0  0
   -2.0430   -0.0976   -1.2899 N   0  0  0  0  0  0  0  0  0  0  0  0
   -2.9279    0.3368   -1.5229 H   0  0  0  0  0  0  0  0  0  0  0  0
   -0.8776    0.8046   -1.1876 C   0  0  1  0  0  0  0  0  0  0  0  0
    0.0321    0.2168   -1.3532 H   0  0  0  0  0  0  0  0  0  0  0  0
   -0.9885    1.8444   -2.3238 C   0  0  0  0  0  0  0  0  0  0  0  0
   -1.9598    2.3459   -2.2629 H   0  0  0  0  0  0  0  0  0  0  0  0
   -0.2172    2.6130   -2.2302 H   0  0  0  0  0  0  0  0  0  0  0  0
   -0.8237    1.2024   -3.6771 C   0  0  0  0  0  0  0  0  0  0  0  0
   -1.8282    0.8027   -4.5260 C   0  0  0  0  0  0  0  0  0  0  0  0
   -2.8943    0.8984   -4.3359 H   0  0  0  0  0  0  0  0  0  0  0  0
   -1.2307    0.2605   -5.6618 N   0  0  0  0  0  0  0  0  0  0  0  0
   -1.7266   -0.1329   -6.4591 H   0  0  0  0  0  0  0  0  0  0  0  0
    0.1495    0.2995   -5.5460 C   0  0  0  0  0  0  0  0  0  0  0  0
    1.1659   -0.1244   -6.4024 C   0  0  0  0  0  0  0  0  0  0  0  0
    0.9233   -0.5764   -7.3577 H   0  0  0  0  0  0  0  0  0  0  0  0
    2.5021    0.0379   -6.0096 C   0  0  0  0  0  0  0  0  0  0  0  0
    3.3039   -0.2892   -6.6651 H   0  0  0  0  0  0  0  0  0  0  0  0
    2.8053    0.6180   -4.7683 C   0  0  0  0  0  0  0  0  0  0  0  0
    3.8411    0.7365   -4.4647 H   0  0  0  0  0  0  0  0  0  0  0  0
    1.7753    1.0408   -3.9160 C   0  0  0  0  0  0  0  0  0  0  0  0
    2.0083    1.4836   -2.9538 H   0  0  0  0  0  0  0  0  0  0  0  0
    0.4448    0.8790   -4.3174 C   0  0  0  0  0  0  0  0  0  0  0  0
   -0.7068    1.4857    0.2055 C   0  0  0  0  0  0  0  0  0  0  0  0
   -1.3162    1.0890    1.1915 O   0  0  0  0  0  0  0  0  0  0  0  0
   -0.1181    2.7366    0.3167 N   0  0  0  0  0  0  0  0  0  0  0  0
    0.3812    3.0915   -0.4925 H   0  0  0  0  0  0  0  0  0  0  0  0
   -0.0397    3.4850    1.5670 C   0  0  0  0  0  0  0  0  0  0  0  0
    0.5023    2.9099    2.3254 H   0  0  0  0  0  0  0  0  0  0  0  0
    0.4874    4.4308    1.4086 H   0  0  0  0  0  0  0  0  0  0  0  0
   -1.0431    3.7088    1.9445 H   0  0  0  0  0  0  0  0  0  0  0  0
  1  2  1  0  0  0  0
  2  3  1  0  0  0  0
  2  4  1  0  0  0  0
  2  5  1  0  0  0  0
  5  6  2  0  0  0  0
  5  7  1  0  0  0  0
  7  8  1  0  0  0  0
  7  9  1  0  0  0  0
  9 10  1  0  0  0  0
  9 11  1  0  0  0  0
  9 29  1  0  0  0  0
 11 12  1  0  0  0  0
 11 13  1  0  0  0  0
 11 14  1  0  0  0  0
 14 15  2  0  0  0  0
 14 28  1  0  0  0  0
 15 16  1  0  0  0  0
 15 17  1  0  0  0  0
 17 18  1  0  0  0  0
 17 19  1  0  0  0  0
 19 20  1  0  0  0  0
 19 28  2  0  0  0  0
 20 21  1  0  0  0  0
 20 22  2  0  0  0  0
 22 23  1  0  0  0  0
 22 24  1  0  0  0  0
 24 25  1  0  0  0  0
 24 26  2  0  0  0  0
 26 27  1  0  0  0  0
 26 28  1  0  0  0  0
 29 30  2  0  0  0  0
 29 31  1  0  0  0  0
 31 32  1  0  0  0  0
 31 33  1  0  0  0  0
 33 34  1  0  0  0  0
 33 35  1  0  0  0  0
 33 36  1  0  0  0  0
M  END
$$$$

  -OEChem-01062216103D

 36 37  0     1  0  0  0  0  0999 V2000
   -3.4331   -2.6366    0.4941 H   0  0  0  0  0  0  0  0  0  0  0  0
   -3.5327   -1.7646   -0.1584 C   0  0  0  0  0  0  0  0  0  0  0  0
   -4.1373   -1.0121    0.3535 H   0  0  0  0  0  0  0  0  0  0  0  0
   -4.0367   -2.0678   -1.0789 H   0  0  0  0  0  0  0  0  0  0  0  0
   -2.1628   -1.1966   -0.4776 C   0  0  0  0  0  0  0  0  0  0  0  0
   -1.1595   -1.7902   -0.1167 O   0  0  0  0  0  0  0  0  0  0  0  0
   -2.0523   -0.0859   -1.2925 N   0  0  0  0  0  0  0  0  0  0  0  0
   -2.9409    0.3400   -1.5260 H   0  0  0  0  0  0  0  0  0  0  0  0
   -0.8951    0.8289   -1.2013 C   0  0  1  0  0  0  0  0  0  0  0  0
    0.0174    0.2445   -1.3637 H   0  0  0  0  0  0  0  0  0  0  0  0
   -1.0050    1.8548   -2.3496 C   0  0  0  0  0  0  0  0  0  0  0  0
   -1.9774    2.3551   -2.3014 H   0  0  0  0  0  0  0  0  0  0  0  0
   -0.2319    2.6230   -2.2598 H   0  0  0  0  0  0  0  0  0  0  0  0
   -0.8292    1.1982   -3.6941 C   0  0  0  0  0  0  0  0  0  0  0  0
   -1.8274    0.7835   -4.5434 C   0  0  0  0  0  0  0  0  0  0  0  0
   -2.8950    0.8735   -4.3595 H   0  0  0  0  0  0  0  0  0  0  0  0
   -1.2213    0.2345   -5.6710 N   0  0  0  0  0  0  0  0  0  0  0  0
   -1.7105   -0.1681   -6.4677 H   0  0  0  0  0  0  0  0  0  0  0  0
    0.1579    0.2827   -5.5490 C   0  0  0  0  0  0  0  0  0  0  0  0
    1.1799   -0.1435   -6.3971 C   0  0  0  0  0  0  0  0  0  0  0  0
    0.9435   -0.6055   -7.3492 H   0  0  0  0  0  0  0  0  0  0  0  0
    2.5134    0.0290   -6.0002 C   0  0  0  0  0  0  0  0  0  0  0  0
    3.3193   -0.3016   -6.6486 H   0  0  0  0  0  0  0  0  0  0  0  0
    2.8081    0.6226   -4.7633 C   0  0  0  0  0  0  0  0  0  0  0  0
    3.8419    0.7483   -4.4561 H   0  0  0  0  0  0  0  0  0  0  0  0
    1.7723    1.0484   -3.9194 C   0  0  0  0  0  0  0  0  0  0  0  0
    1.9992    1.5008   -2.9601 H   0  0  0  0  0  0  0  0  0  0  0  0
    0.4444    0.8758   -4.3249 C   0  0  0  0  0  0  0  0  0  0  0  0
   -0.7183    1.5118    0.1911 C   0  0  0  0  0  0  0  0  0  0  0  0
   -1.0319    0.9498    1.2316 O   0  0  0  0  0  0  0  0  0  0  0  0
   -0.4385    2.8670    0.2943 N   0  0  0  0  0  0  0  0  0  0  0  0
   -0.1901    3.3616   -0.5562 H   0  0  0  0  0  0  0  0  0  0  0  0
   -0.3541    3.5797    1.5650 C   0  0  0  0  0  0  0  0  0  0  0  0
    0.4175    3.1358    2.2029 H   0  0  0  0  0  0  0  0  0  0  0  0
   -0.0986    4.6297    1.3938 H   0  0  0  0  0  0  0  0  0  0  0  0
   -1.3131    3.5398    2.0923 H   0  0  0  0  0  0  0  0  0  0  0  0
  1  2  1  0  0  0  0
  2  3  1  0  0  0  0
  2  4  1  0  0  0  0
  2  5  1  0  0  0  0
  5  6  2  0  0  0  0
  5  7  1  0  0  0  0
  7  8  1  0  0  0  0
  7  9  1  0  0  0  0
  9 10  1  0  0  0  0
  9 11  1  0  0  0  0
  9 29  1  0  0  0  0
 11 12  1  0  0  0  0
 11 13  1  0  0  0  0
 11 14  1  0  0  0  0
 14 15  2  0  0  0  0
 14 28  1  0  0  0  0
 15 16  1  0  0  0  0
 15 17  1  0  0  0  0
 17 18  1  0  0  0  0
 17 19  1  0  0  0  0
 19 20  1  0  0  0  0
 19 28  2  0  0  0  0
 20 21  1  0  0  0  0
 20 22  2  0  0  0  0
 22 23  1  0  0  0  0
 22 24  1  0  0  0  0
 24 25  1  0  0  0  0
 24 26  2  0  0  0  0
 26 27  1  0  0  0  0
 26 28  1  0  0  0  0
 29 30  2  0  0  0  0
 29 31  1  0  0  0  0
 31 32  1  0  0  0  0
 31 33  1  0  0  0  0
 33 34  1  0  0  0  0
 33 35  1  0  0  0  0
 33 36  1  0  0  0  0
M  END
$$$$

  -OEChem-01062216103D

 36 37  0     1  0  0  0  0  0999 V2000
   -3.4525   -2.6318    0.4966 H   0  0  0  0  0  0  0  0  0  0  0  0
   -3.5449   -1.7746   -0.1764 C   0  0  0  0  0  0  0  0  0  0  0  0
   -4.1754   -1.0212    0.3016 H   0  0  0  0  0  0  0  0  0  0  0  0
   -4.0163   -2.1044   -1.1050 H   0  0  0  0  0  0  0  0  0  0  0  0
   -2.1741   -1.1946   -0.4680 C   0  0  0  0  0  0  0  0  0  0  0  0
   -1.1764   -1.7880   -0.0966 O   0  0  0  0  0  0  0  0  0  0  0  0
   -2.0611   -0.0849   -1.2833 N   0  0  0  0  0  0  0  0  0  0  0  0
   -2.9484    0.3223   -1.5528 H   0  0  0  0  0  0  0  0  0  0  0  0
   -0.9112    0.8394   -1.2044 C   0  0  1  0  0  0  0  0  0  0  0  0
    0.0043    0.2580   -1.3617 H   0  0  0  0  0  0  0  0  0  0  0  0
   -1.0175    1.8601   -2.3557 C   0  0  0  0  0  0  0  0  0  0  0  0
   -1.9917    2.3572   -2.3151 H   0  0  0  0  0  0  0  0  0  0  0  0
   -0.2455    2.6293   -2.2555 H   0  0  0  0  0  0  0  0  0  0  0  0
   -0.8356    1.2012   -3.6982 C   0  0  0  0  0  0  0  0  0  0  0  0
   -1.8292    0.7831   -4.5518 C   0  0  0  0  0  0  0  0  0  0  0  0
   -2.8980    0.8733   -4.3753 H   0  0  0  0  0  0  0  0  0  0  0  0
   -1.2166    0.2291   -5.6734 N   0  0  0  0  0  0  0  0  0  0  0  0
   -1.7012   -0.1793   -6.4700 H   0  0  0  0  0  0  0  0  0  0  0  0
    0.1620    0.2783   -5.5438 C   0  0  0  0  0  0  0  0  0  0  0  0
    1.1890   -0.1515   -6.3844 C   0  0  0  0  0  0  0  0  0  0  0  0
    0.9583   -0.6186   -7.3353 H   0  0  0  0  0  0  0  0  0  0  0  0
    2.5203    0.0250   -5.9816 C   0  0  0  0  0  0  0  0  0  0  0  0
    3.3302   -0.3072   -6.6241 H   0  0  0  0  0  0  0  0  0  0  0  0
    2.8079    0.6256   -4.7465 C   0  0  0  0  0  0  0  0  0  0  0  0
    3.8401    0.7562   -4.4355 H   0  0  0  0  0  0  0  0  0  0  0  0
    1.7672    1.0533   -3.9095 C   0  0  0  0  0  0  0  0  0  0  0  0
    1.9887    1.5111   -2.9513 H   0  0  0  0  0  0  0  0  0  0  0  0
    0.4415    0.8771   -4.3209 C   0  0  0  0  0  0  0  0  0  0  0  0
   -0.7364    1.5294    0.1816 C   0  0  0  0  0  0  0  0  0  0  0  0
   -0.6844    0.8929    1.2231 O   0  0  0  0  0  0  0  0  0  0  0  0
   -0.7794    2.9110    0.3016 N   0  0  0  0  0  0  0  0  0  0  0  0
   -0.8269    3.4564   -0.5527 H   0  0  0  0  0  0  0  0  0  0  0  0
   -0.6662    3.6140    1.5752 C   0  0  0  0  0  0  0  0  0  0  0  0
    0.2919    3.3872    2.0547 H   0  0  0  0  0  0  0  0  0  0  0  0
   -0.7263    4.6951    1.4173 H   0  0  0  0  0  0  0  0  0  0  0  0
   -1.4765    3.3183    2.2499 H   0  0  0  0  0  0  0  0  0  0  0  0
  1  2  1  0  0  0  0
  2  3  1  0  0  0  0
  2  4  1  0  0  0  0
  2  5  1  0  0  0  0
  5  6  2  0  0  0  0
  5  7  1  0  0  0  0
  7  8  1  0  0  0  0
  7  9  1  0  0  0  0
  9 10  1  0  0  0  0
  9 11  1  0  0  0  0
  9 29  1  0  0  0  0
 11 12  1  0  0  0  0
 11 13  1  0  0  0  0
 11 14  1  0  0  0  0
 14 15  2  0  0  0  0
 14 28  1  0  0  0  0
 15 16  1  0  0  0  0
 15 17  1  0  0  0  0
 17 18  1  0  0  0  0
 17 19  1  0  0  0  0
 19 20  1  0  0  0  0
 19 28  2  0  0  0  0
 20 21  1  0  0  0  0
 20 22  2  0  0  0  0
 22 23  1  0  0  0  0
 22 24  1  0  0  0  0
 24 25  1  0  0  0  0
 24 26  2  0  0  0  0
 26 27  1  0  0  0  0
 26 28  1  0  0  0  0
 29 30  2  0  0  0  0
 29 31  1  0  0  0  0
 31 32  1  0  0  0  0
 31 33  1  0  0  0  0
 33 34  1  0  0  0  0
 33 35  1  0  0  0  0
 33 36  1  0  0  0  0
M  END
$$$$

  -OEChem-01062216103D

 36 37  0     1  0  0  0  0  0999 V2000
   -3.5309   -2.7272    0.3184 H   0  0  0  0  0  0  0  0  0  0  0  0
   -3.5525   -1.9123   -0.4109 C   0  0  0  0  0  0  0  0  0  0  0  0
   -4.3559   -1.2229   -0.1414 H   0  0  0  0  0  0  0  0  0  0  0  0
   -3.7519   -2.3308   -1.4002 H   0  0  0  0  0  0  0  0  0  0  0  0
   -2.2213   -1.1842   -0.4166 C   0  0  0  0  0  0  0  0  0  0  0  0
   -1.2889   -1.6426    0.2153 O   0  0  0  0  0  0  0  0  0  0  0  0
   -2.0637   -0.0721   -1.2202 N   0  0  0  0  0  0  0  0  0  0  0  0
   -2.8812    0.2141   -1.7447 H   0  0  0  0  0  0  0  0  0  0  0  0
   -0.9209    0.8612   -1.1625 C   0  0  1  0  0  0  0  0  0  0  0  0
   -0.0044    0.2822   -1.3232 H   0  0  0  0  0  0  0  0  0  0  0  0
   -1.0426    1.8783   -2.3145 C   0  0  0  0  0  0  0  0  0  0  0  0
   -2.0204    2.3680   -2.2700 H   0  0  0  0  0  0  0  0  0  0  0  0
   -0.2764    2.6542   -2.2147 H   0  0  0  0  0  0  0  0  0  0  0  0
   -0.8712    1.2180   -3.6576 C   0  0  0  0  0  0  0  0  0  0  0  0
   -1.8663    0.7926   -4.5061 C   0  0  0  0  0  0  0  0  0  0  0  0
   -2.9352    0.8882   -4.3335 H   0  0  0  0  0  0  0  0  0  0  0  0
   -1.2550    0.2288   -5.6236 N   0  0  0  0  0  0  0  0  0  0  0  0
   -1.7397   -0.1749   -6.4228 H   0  0  0  0  0  0  0  0  0  0  0  0
    0.1238    0.2744   -5.4941 C   0  0  0  0  0  0  0  0  0  0  0  0
    1.1509   -0.1664   -6.3287 C   0  0  0  0  0  0  0  0  0  0  0  0
    0.9212   -0.6400   -7.2767 H   0  0  0  0  0  0  0  0  0  0  0  0
    2.4819    0.0055   -5.9225 C   0  0  0  0  0  0  0  0  0  0  0  0
    3.2922   -0.3359   -6.5597 H   0  0  0  0  0  0  0  0  0  0  0  0
    2.7689    0.6130   -4.6903 C   0  0  0  0  0  0  0  0  0  0  0  0
    3.8003    0.7384   -4.3745 H   0  0  0  0  0  0  0  0  0  0  0  0
    1.7283    1.0544   -3.8609 C   0  0  0  0  0  0  0  0  0  0  0  0
    1.9480    1.5187   -2.9048 H   0  0  0  0  0  0  0  0  0  0  0  0
    0.4037    0.8823   -4.2764 C   0  0  0  0  0  0  0  0  0  0  0  0
   -0.7349    1.5737    0.2063 C   0  0  0  0  0  0  0  0  0  0  0  0
   -0.1799    1.0267    1.1464 O   0  0  0  0  0  0  0  0  0  0  0  0
   -1.0879    2.9055    0.3694 N   0  0  0  0  0  0  0  0  0  0  0  0
   -1.5063    3.3827   -0.4216 H   0  0  0  0  0  0  0  0  0  0  0  0
   -0.8677    3.6509    1.6038 C   0  0  0  0  0  0  0  0  0  0  0  0
    0.1992    3.6805    1.8495 H   0  0  0  0  0  0  0  0  0  0  0  0
   -1.2254    4.6790    1.4934 H   0  0  0  0  0  0  0  0  0  0  0  0
   -1.4077    3.1842    2.4344 H   0  0  0  0  0  0  0  0  0  0  0  0
  1  2  1  0  0  0  0
  2  3  1  0  0  0  0
  2  4  1  0  0  0  0
  2  5  1  0  0  0  0
  5  6  2  0  0  0  0
  5  7  1  0  0  0  0
  7  8  1  0  0  0  0
  7  9  1  0  0  0  0
  9 10  1  0  0  0  0
  9 11  1  0  0  0  0
  9 29  1  0  0  0  0
 11 12  1  0  0  0  0
 11 13  1  0  0  0  0
 11 14  1  0  0  0  0
 14 15  2  0  0  0  0
 14 28  1  0  0  0  0
 15 16  1  0  0  0  0
 15 17  1  0  0  0  0
 17 18  1  0  0  0  0
 17 19  1  0  0  0  0
 19 20  1  0  0  0  0
 19 28  2  0  0  0  0
 20 21  1  0  0  0  0
 20 22  2  0  0  0  0
 22 23  1  0  0  0  0
 22 24  1  0  0  0  0
 24 25  1  0  0  0  0
 24 26  2  0  0  0  0
 26 27  1  0  0  0  0
 26 28  1  0  0  0  0
 29 30  2  0  0  0  0
 29 31  1  0  0  0  0
 31 32  1  0  0  0  0
 31 33  1  0  0  0  0
 33 34  1  0  0  0  0
 33 35  1  0  0  0  0
 33 36  1  0  0  0  0
M  END
$$$$

  -OEChem-01062216103D

 36 37  0     1  0  0  0  0  0999 V2000
   -3.4169   -2.9151    0.0141 H   0  0  0  0  0  0  0  0  0  0  0  0
   -3.4144   -2.0920   -0.7064 C   0  0  0  0  0  0  0  0  0  0  0  0
   -4.3858   -1.5933   -0.6735 H   0  0  0  0  0  0  0  0  0  0  0  0
   -3.2529   -2.5024   -1.7060 H   0  0  0  0  0  0  0  0  0  0  0  0
   -2.3135   -1.1050   -0.3664 C   0  0  0  0  0  0  0  0  0  0  0  0
   -1.6152   -1.3041    0.6083 O   0  0  0  0  0  0  0  0  0  0  0  0
   -2.1214   -0.0052   -1.1789 N   0  0  0  0  0  0  0  0  0  0  0  0
   -2.6234   -0.0320   -2.0593 H   0  0  0  0  0  0  0  0  0  0  0  0
   -0.9539    0.8952   -1.1141 C   0  0  1  0  0  0  0  0  0  0  0  0
   -0.0526    0.2932   -1.2773 H   0  0  0  0  0  0  0  0  0  0  0  0
   -1.0539    1.9263   -2.2538 C   0  0  0  0  0  0  0  0  0  0  0  0
   -2.0191    2.4395   -2.2025 H   0  0  0  0  0  0  0  0  0  0  0  0
   -0.2700    2.6837   -2.1452 H   0  0  0  0  0  0  0  0  0  0  0  0
   -0.9056    1.2677   -3.6006 C   0  0  0  0  0  0  0  0  0  0  0  0
   -1.9172    0.8746   -4.4453 C   0  0  0  0  0  0  0  0  0  0  0  0
   -2.9815    1.0203   -4.2764 H   0  0  0  0  0  0  0  0  0  0  0  0
   -1.3285    0.2751   -5.5564 N   0  0  0  0  0  0  0  0  0  0  0  0
   -1.8269   -0.0961   -6.3633 H   0  0  0  0  0  0  0  0  0  0  0  0
    0.0516    0.2703   -5.4283 C   0  0  0  0  0  0  0  0  0  0  0  0
    1.0622   -0.2121   -6.2604 C   0  0  0  0  0  0  0  0  0  0  0  0
    0.8157   -0.6840   -7.2049 H   0  0  0  0  0  0  0  0  0  0  0  0
    2.3991   -0.0810   -5.8582 C   0  0  0  0  0  0  0  0  0  0  0  0
    3.1967   -0.4527   -6.4945 H   0  0  0  0  0  0  0  0  0  0  0  0
    2.7089    0.5278   -4.6323 C   0  0  0  0  0  0  0  0  0  0  0  0
    3.7448    0.6253   -4.3211 H   0  0  0  0  0  0  0  0  0  0  0  0
    1.6853    1.0103   -3.8046 C   0  0  0  0  0  0  0  0  0  0  0  0
    1.9224    1.4786   -2.8543 H   0  0  0  0  0  0  0  0  0  0  0  0
    0.3549    0.8788   -4.2164 C   0  0  0  0  0  0  0  0  0  0  0  0
   -0.7482    1.6132    0.2449 C   0  0  0  0  0  0  0  0  0  0  0  0
    0.1597    1.2684    0.9885 O   0  0  0  0  0  0  0  0  0  0  0  0
   -1.3372    2.8443    0.4897 N   0  0  0  0  0  0  0  0  0  0  0  0
   -2.0859    3.1331   -0.1304 H   0  0  0  0  0  0  0  0  0  0  0  0
   -1.0672    3.6361    1.6843 C   0  0  0  0  0  0  0  0  0  0  0  0
   -0.0093    3.9166    1.7268 H   0  0  0  0  0  0  0  0  0  0  0  0
   -1.6664    4.5515    1.6754 H   0  0  0  0  0  0  0  0  0  0  0  0
   -1.3171    3.0664    2.5857 H   0  0  0  0  0  0  0  0  0  0  0  0
  1  2  1  0  0  0  0
  2  3  1  0  0  0  0
  2  4  1  0  0  0  0
  2  5  1  0  0  0  0
  5  6  2  0  0  0  0
  5  7  1  0  0  0  0
  7  8  1  0  0  0  0
  7  9  1  0  0  0  0
  9 10  1  0  0  0  0
  9 11  1  0  0  0  0
  9 29  1  0  0  0  0
 11 12  1  0  0  0  0
 11 13  1  0  0  0  0
 11 14  1  0  0  0  0
 14 15  2  0  0  0  0
 14 28  1  0  0  0  0
 15 16  1  0  0  0  0
 15 17  1  0  0  0  0
 17 18  1  0  0  0  0
 17 19  1  0  0  0  0
 19 20  1  0  0  0  0
 19 28  2  0  0  0  0
 20 21  1  0  0  0  0
 20 22  2  0  0  0  0
 22 23  1  0  0  0  0
 22 24  1  0  0  0  0
 24 25  1  0  0  0  0
 24 26  2  0  0  0  0
 26 27  1  0  0  0  0
 26 28  1  0  0  0  0
 29 30  2  0  0  0  0
 29 31  1  0  0  0  0
 31 32  1  0  0  0  0
 31 33  1  0  0  0  0
 33 34  1  0  0  0  0
 33 35  1  0  0  0  0
 33 36  1  0  0  0  0
M  END
$$$$

  -OEChem-01062216103D

 36 37  0     1  0  0  0  0  0999 V2000
   -3.3821   -2.9221    0.0182 H   0  0  0  0  0  0  0  0  0  0  0  0
   -3.3692   -2.1191   -0.7245 C   0  0  0  0  0  0  0  0  0  0  0  0
   -4.3566   -1.6528   -0.7551 H   0  0  0  0  0  0  0  0  0  0  0  0
   -3.1437   -2.5498   -1.7029 H   0  0  0  0  0  0  0  0  0  0  0  0
   -2.3185   -1.0876   -0.3581 C   0  0  0  0  0  0  0  0  0  0  0  0
   -1.6634   -1.2329    0.6564 O   0  0  0  0  0  0  0  0  0  0  0  0
   -2.1237    0.0016   -1.1838 N   0  0  0  0  0  0  0  0  0  0  0  0
   -2.5756   -0.0683   -2.0892 H   0  0  0  0  0  0  0  0  0  0  0  0
   -0.9463    0.8877   -1.1129 C   0  0  1  0  0  0  0  0  0  0  0  0
   -0.0489    0.2792   -1.2738 H   0  0  0  0  0  0  0  0  0  0  0  0
   -1.0311    1.9362   -2.2361 C   0  0  0  0  0  0  0  0  0  0  0  0
   -1.9876    2.4649   -2.1765 H   0  0  0  0  0  0  0  0  0  0  0  0
   -0.2357    2.6795   -2.1150 H   0  0  0  0  0  0  0  0  0  0  0  0
   -0.8930    1.2931   -3.5913 C   0  0  0  0  0  0  0  0  0  0  0  0
   -1.9138    0.9282   -4.4375 C   0  0  0  0  0  0  0  0  0  0  0  0
   -2.9741    1.0953   -4.2643 H   0  0  0  0  0  0  0  0  0  0  0  0
   -1.3401    0.3253   -5.5543 N   0  0  0  0  0  0  0  0  0  0  0  0
   -1.8471   -0.0240   -6.3656 H   0  0  0  0  0  0  0  0  0  0  0  0
    0.0398    0.2895   -5.4281 C   0  0  0  0  0  0  0  0  0  0  0  0
    1.0380   -0.2101   -6.2650 C   0  0  0  0  0  0  0  0  0  0  0  0
    0.7799   -0.6704   -7.2121 H   0  0  0  0  0  0  0  0  0  0  0  0
    2.3780   -0.1115   -5.8637 C   0  0  0  0  0  0  0  0  0  0  0  0
    3.1665   -0.4967   -6.5035 H   0  0  0  0  0  0  0  0  0  0  0  0
    2.7031    0.4825   -4.6344 C   0  0  0  0  0  0  0  0  0  0  0  0
    3.7413    0.5553   -4.3241 H   0  0  0  0  0  0  0  0  0  0  0  0
    1.6917    0.9827   -3.8021 C   0  0  0  0  0  0  0  0  0  0  0  0
    1.9396    1.4405   -2.8494 H   0  0  0  0  0  0  0  0  0  0  0  0
    0.3582    0.8827   -4.2123 C   0  0  0  0  0  0  0  0  0  0  0  0
   -0.7519    1.6036    0.2452 C   0  0  0  0  0  0  0  0  0  0  0  0
    0.2894    1.4480    0.8694 O   0  0  0  0  0  0  0  0  0  0  0  0
   -1.5664    2.6688    0.5938 N   0  0  0  0  0  0  0  0  0  0  0  0
   -2.4453    2.7538    0.0947 H   0  0  0  0  0  0  0  0  0  0  0  0
   -1.3670    3.4565    1.8040 C   0  0  0  0  0  0  0  0  0  0  0  0
   -0.3895    3.9500    1.7827 H   0  0  0  0  0  0  0  0  0  0  0  0
   -2.1397    4.2267    1.8861 H   0  0  0  0  0  0  0  0  0  0  0  0
   -1.4192    2.8160    2.6909 H   0  0  0  0  0  0  0  0  0  0  0  0
  1  2  1  0  0  0  0
  2  3  1  0  0  0  0
  2  4  1  0  0  0  0
  2  5  1  0  0  0  0
  5  6  2  0  0  0  0
  5  7  1  0  0  0  0
  7  8  1  0  0  0  0
  7  9  1  0  0  0  0
  9 10  1  0  0  0  0
  9 11  1  0  0  0  0
  9 29  1  0  0  0  0
 11 12  1  0  0  0  0
 11 13  1  0  0  0  0
 11 14  1  0  0  0  0
 14 15  2  0  0  0  0
 14 28  1  0  0  0  0
 15 16  1  0  0  0  0
 15 17  1  0  0  0  0
 17 18  1  0  0  0  0
 17 19  1  0  0  0  0
 19 20  1  0  0  0  0
 19 28  2  0  0  0  0
 20 21  1  0  0  0  0
 20 22  2  0  0  0  0
 22 23  1  0  0  0  0
 22 24  1  0  0  0  0
 24 25  1  0  0  0  0
 24 26  2  0  0  0  0
 26 27  1  0  0  0  0
 26 28  1  0  0  0  0
 29 30  2  0  0  0  0
 29 31  1  0  0  0  0
 31 32  1  0  0  0  0
 31 33  1  0  0  0  0
 33 34  1  0  0  0  0
 33 35  1  0  0  0  0
 33 36  1  0  0  0  0
M  END
$$$$

  -OEChem-01062216103D

 36 37  0     1  0  0  0  0  0999 V2000
   -3.3813   -2.9109    0.0409 H   0  0  0  0  0  0  0  0  0  0  0  0
   -3.3602   -2.1212   -0.7157 C   0  0  0  0  0  0  0  0  0  0  0  0
   -4.3484   -1.6579   -0.7682 H   0  0  0  0  0  0  0  0  0  0  0  0
   -3.1207   -2.5689   -1.6832 H   0  0  0  0  0  0  0  0  0  0  0  0
   -2.3175   -1.0805   -0.3538 C   0  0  0  0  0  0  0  0  0  0  0  0
   -1.6778   -1.2008    0.6743 O   0  0  0  0  0  0  0  0  0  0  0  0
   -2.1190    0.0004   -1.1893 N   0  0  0  0  0  0  0  0  0  0  0  0
   -2.5532   -0.0853   -2.1024 H   0  0  0  0  0  0  0  0  0  0  0  0
   -0.9356    0.8787   -1.1163 C   0  0  1  0  0  0  0  0  0  0  0  0
   -0.0400    0.2674   -1.2749 H   0  0  0  0  0  0  0  0  0  0  0  0
   -1.0151    1.9371   -2.2282 C   0  0  0  0  0  0  0  0  0  0  0  0
   -1.9664    2.4737   -2.1585 H   0  0  0  0  0  0  0  0  0  0  0  0
   -0.2136    2.6733   -2.1025 H   0  0  0  0  0  0  0  0  0  0  0  0
   -0.8857    1.3032   -3.5886 C   0  0  0  0  0  0  0  0  0  0  0  0
   -1.9108    0.9525   -4.4356 C   0  0  0  0  0  0  0  0  0  0  0  0
   -2.9693    1.1288   -4.2593 H   0  0  0  0  0  0  0  0  0  0  0  0
   -1.3433    0.3503   -5.5563 N   0  0  0  0  0  0  0  0  0  0  0  0
   -1.8537    0.0130   -6.3703 H   0  0  0  0  0  0  0  0  0  0  0  0
    0.0362    0.3011   -5.4314 C   0  0  0  0  0  0  0  0  0  0  0  0
    1.0302   -0.2013   -6.2715 C   0  0  0  0  0  0  0  0  0  0  0  0
    0.7679   -0.6523   -7.2220 H   0  0  0  0  0  0  0  0  0  0  0  0
    2.3709   -0.1177   -5.8691 C   0  0  0  0  0  0  0  0  0  0  0  0
    3.1558   -0.5059   -6.5114 H   0  0  0  0  0  0  0  0  0  0  0  0
    2.7009    0.4651   -4.6357 C   0  0  0  0  0  0  0  0  0  0  0  0
    3.7393    0.5260   -4.3240 H   0  0  0  0  0  0  0  0  0  0  0  0
    1.6941    0.9698   -3.8006 C   0  0  0  0  0  0  0  0  0  0  0  0
    1.9451    1.4208   -2.8451 H   0  0  0  0  0  0  0  0  0  0  0  0
    0.3604    0.8840   -4.2123 C   0  0  0  0  0  0  0  0  0  0  0  0
   -0.7458    1.5990    0.2372 C   0  0  0  0  0  0  0  0  0  0  0  0
    0.3685    1.6537    0.7415 O   0  0  0  0  0  0  0  0  0  0  0  0
   -1.7303    2.4500    0.7096 N   0  0  0  0  0  0  0  0  0  0  0  0
   -2.6593    2.3160    0.3243 H   0  0  0  0  0  0  0  0  0  0  0  0
   -1.5896    3.2025    1.9497 C   0  0  0  0  0  0  0  0  0  0  0  0
   -0.7368    3.8866    1.8879 H   0  0  0  0  0  0  0  0  0  0  0  0
   -2.4910    3.7929    2.1387 H   0  0  0  0  0  0  0  0  0  0  0  0
   -1.4356    2.5226    2.7943 H   0  0  0  0  0  0  0  0  0  0  0  0
  1  2  1  0  0  0  0
  2  3  1  0  0  0  0
  2  4  1  0  0  0  0
  2  5  1  0  0  0  0
  5  6  2  0  0  0  0
  5  7  1  0  0  0  0
  7  8  1  0  0  0  0
  7  9  1  0  0  0  0
  9 10  1  0  0  0  0
  9 11  1  0  0  0  0
  9 29  1  0  0  0  0
 11 12  1  0  0  0  0
 11 13  1  0  0  0  0
 11 14  1  0  0  0  0
 14 15  2  0  0  0  0
 14 28  1  0  0  0  0
 15 16  1  0  0  0  0
 15 17  1  0  0  0  0
 17 18  1  0  0  0  0
 17 19  1  0  0  0  0
 19 20  1  0  0  0  0
 19 28  2  0  0  0  0
 20 21  1  0  0  0  0
 20 22  2  0  0  0  0
 22 23  1  0  0  0  0
 22 24  1  0  0  0  0
 24 25  1  0  0  0  0
 24 26  2  0  0  0  0
 26 27  1  0  0  0  0
 26 28  1  0  0  0  0
 29 30  2  0  0  0  0
 29 31  1  0  0  0  0
 31 32  1  0  0  0  0
 31 33  1  0  0  0  0
 33 34  1  0  0  0  0
 33 35  1  0  0  0  0
 33 36  1  0  0  0  0
M  END
$$$$

  -OEChem-01062216103D

 36 37  0     1  0  0  0  0  0999 V2000
   -3.4114   -2.9096    0.0377 H   0  0  0  0  0  0  0  0  0  0  0  0
   -3.3856   -2.1179   -0.7167 C   0  0  0  0  0  0  0  0  0  0  0  0
   -4.3690   -1.6444   -0.7636 H   0  0  0  0  0  0  0  0  0  0  0  0
   -3.1556   -2.5650   -1.6869 H   0  0  0  0  0  0  0  0  0  0  0  0
   -2.3310   -1.0887   -0.3565 C   0  0  0  0  0  0  0  0  0  0  0  0
   -1.6959   -1.2089    0.6749 O   0  0  0  0  0  0  0  0  0  0  0  0
   -2.1187   -0.0111   -1.1923 N   0  0  0  0  0  0  0  0  0  0  0  0
   -2.5532   -0.0878   -2.1063 H   0  0  0  0  0  0  0  0  0  0  0  0
   -0.9297    0.8601   -1.1110 C   0  0  1  0  0  0  0  0  0  0  0  0
   -0.0357    0.2464   -1.2682 H   0  0  0  0  0  0  0  0  0  0  0  0
   -1.0089    1.9231   -2.2182 C   0  0  0  0  0  0  0  0  0  0  0  0
   -1.9593    2.4610   -2.1426 H   0  0  0  0  0  0  0  0  0  0  0  0
   -0.2059    2.6576   -2.0921 H   0  0  0  0  0  0  0  0  0  0  0  0
   -0.8830    1.2933   -3.5806 C   0  0  0  0  0  0  0  0  0  0  0  0
   -1.9087    0.9466   -4.4285 C   0  0  0  0  0  0  0  0  0  0  0  0
   -2.9672    1.1230   -4.2513 H   0  0  0  0  0  0  0  0  0  0  0  0
   -1.3415    0.3474   -5.5512 N   0  0  0  0  0  0  0  0  0  0  0  0
   -1.8523    0.0114   -6.3657 H   0  0  0  0  0  0  0  0  0  0  0  0
    0.0388    0.3027   -5.4292 C   0  0  0  0  0  0  0  0  0  0  0  0
    1.0334   -0.1911   -6.2739 C   0  0  0  0  0  0  0  0  0  0  0  0
    0.7706   -0.6409   -7.2250 H   0  0  0  0  0  0  0  0  0  0  0  0
    2.3752   -0.0985   -5.8763 C   0  0  0  0  0  0  0  0  0  0  0  0
    3.1611   -0.4767   -6.5234 H   0  0  0  0  0  0  0  0  0  0  0  0
    2.7054    0.4828   -4.6421 C   0  0  0  0  0  0  0  0  0  0  0  0
    3.7446    0.5523   -4.3344 H   0  0  0  0  0  0  0  0  0  0  0  0
    1.6979    0.9762   -3.8013 C   0  0  0  0  0  0  0  0  0  0  0  0
    1.9492    1.4263   -2.8453 H   0  0  0  0  0  0  0  0  0  0  0  0
    0.3634    0.8823   -4.2089 C   0  0  0  0  0  0  0  0  0  0  0  0
   -0.7390    1.5859    0.2385 C   0  0  0  0  0  0  0  0  0  0  0  0
    0.3921    1.8492    0.6272 O   0  0  0  0  0  0  0  0  0  0  0  0
   -1.8193    2.1941    0.8525 N   0  0  0  0  0  0  0  0  0  0  0  0
   -2.7329    1.8496    0.5759 H   0  0  0  0  0  0  0  0  0  0  0  0
   -1.7003    2.9254    2.1071 C   0  0  0  0  0  0  0  0  0  0  0  0
   -0.9928    3.7548    2.0025 H   0  0  0  0  0  0  0  0  0  0  0  0
   -2.6710    3.3379    2.3977 H   0  0  0  0  0  0  0  0  0  0  0  0
   -1.3501    2.2609    2.9040 H   0  0  0  0  0  0  0  0  0  0  0  0
  1  2  1  0  0  0  0
  2  3  1  0  0  0  0
  2  4  1  0  0  0  0
  2  5  1  0  0  0  0
  5  6  2  0  0  0  0
  5  7  1  0  0  0  0
  7  8  1  0  0  0  0
  7  9  1  0  0  0  0
  9 10  1  0  0  0  0
  9 11  1  0  0  0  0
  9 29  1  0  0  0  0
 11 12  1  0  0  0  0
 11 13  1  0  0  0  0
 11 14  1  0  0  0  0
 14 15  2  0  0  0  0
 14 28  1  0  0  0  0
 15 16  1  0  0  0  0
 15 17  1  0  0  0  0
 17 18  1  0  0  0  0
 17 19  1  0  0  0  0
 19 20  1  0  0  0  0
 19 28  2  0  0  0  0
 20 21  1  0  0  0  0
 20 22  2  0  0  0  0
 22 23  1  0  0  0  0
 22 24  1  0  0  0  0
 24 25  1  0  0  0  0
 24 26  2  0  0  0  0
 26 27  1  0  0  0  0
 26 28  1  0  0  0  0
 29 30  2  0  0  0  0
 29 31  1  0  0  0  0
 31 32  1  0  0  0  0
 31 33  1  0  0  0  0
 33 34  1  0  0  0  0
 33 35  1  0  0  0  0
 33 36  1  0  0  0  0
M  END
$$$$

  -OEChem-01062216103D

 36 37  0     1  0  0  0  0  0999 V2000
   -3.4281   -2.9054   -0.0002 H   0  0  0  0  0  0  0  0  0  0  0  0
   -3.3838   -2.1168   -0.7569 C   0  0  0  0  0  0  0  0  0  0  0  0
   -4.3671   -1.6466   -0.8324 H   0  0  0  0  0  0  0  0  0  0  0  0
   -3.1268   -2.5681   -1.7183 H   0  0  0  0  0  0  0  0  0  0  0  0
   -2.3408   -1.0837   -0.3743 C   0  0  0  0  0  0  0  0  0  0  0  0
   -1.7255   -1.2011    0.6696 O   0  0  0  0  0  0  0  0  0  0  0  0
   -2.1172   -0.0025   -1.2023 N   0  0  0  0  0  0  0  0  0  0  0  0
   -2.5448   -0.0719   -2.1203 H   0  0  0  0  0  0  0  0  0  0  0  0
   -0.9289    0.8706   -1.1090 C   0  0  1  0  0  0  0  0  0  0  0  0
   -0.0317    0.2615   -1.2651 H   0  0  0  0  0  0  0  0  0  0  0  0
   -1.0160    1.9325   -2.2178 C   0  0  0  0  0  0  0  0  0  0  0  0
   -1.9693    2.4652   -2.1407 H   0  0  0  0  0  0  0  0  0  0  0  0
   -0.2177    2.6726   -2.0965 H   0  0  0  0  0  0  0  0  0  0  0  0
   -0.8851    1.2999   -3.5789 C   0  0  0  0  0  0  0  0  0  0  0  0
   -1.9117    0.9454   -4.4223 C   0  0  0  0  0  0  0  0  0  0  0  0
   -2.9700    1.1211   -4.2434 H   0  0  0  0  0  0  0  0  0  0  0  0
   -1.3466    0.3369   -5.5409 N   0  0  0  0  0  0  0  0  0  0  0  0
   -1.8588   -0.0038   -6.3526 H   0  0  0  0  0  0  0  0  0  0  0  0
    0.0336    0.2931   -5.4207 C   0  0  0  0  0  0  0  0  0  0  0  0
    1.0265   -0.2089   -6.2622 C   0  0  0  0  0  0  0  0  0  0  0  0
    0.7620   -0.6679   -7.2083 H   0  0  0  0  0  0  0  0  0  0  0  0
    2.3691   -0.1125   -5.8681 C   0  0  0  0  0  0  0  0  0  0  0  0
    3.1534   -0.4983   -6.5128 H   0  0  0  0  0  0  0  0  0  0  0  0
    2.7018    0.4825   -4.6410 C   0  0  0  0  0  0  0  0  0  0  0  0
    3.7417    0.5567   -4.3375 H   0  0  0  0  0  0  0  0  0  0  0  0
    1.6957    0.9843   -3.8032 C   0  0  0  0  0  0  0  0  0  0  0  0
    1.9481    1.4465   -2.8532 H   0  0  0  0  0  0  0  0  0  0  0  0
    0.3604    0.8847   -4.2065 C   0  0  0  0  0  0  0  0  0  0  0  0
   -0.7397    1.6001    0.2410 C   0  0  0  0  0  0  0  0  0  0  0  0
    0.3577    2.0639    0.5258 O   0  0  0  0  0  0  0  0  0  0  0  0
   -1.8369    1.9440    1.0102 N   0  0  0  0  0  0  0  0  0  0  0  0
   -2.6697    1.3899    0.8369 H   0  0  0  0  0  0  0  0  0  0  0  0
   -1.7121    2.6137    2.2984 C   0  0  0  0  0  0  0  0  0  0  0  0
   -1.2042    3.5771    2.1839 H   0  0  0  0  0  0  0  0  0  0  0  0
   -2.7028    2.7971    2.7254 H   0  0  0  0  0  0  0  0  0  0  0  0
   -1.1404    1.9944    2.9977 H   0  0  0  0  0  0  0  0  0  0  0  0
  1  2  1  0  0  0  0
  2  3  1  0  0  0  0
  2  4  1  0  0  0  0
  2  5  1  0  0  0  0
  5  6  2  0  0  0  0
  5  7  1  0  0  0  0
  7  8  1  0  0  0  0
  7  9  1  0  0  0  0
  9 10  1  0  0  0  0
  9 11  1  0  0  0  0
  9 29  1  0  0  0  0
 11 12  1  0  0  0  0
 11 13  1  0  0  0  0
 11 14  1  0  0  0  0
 14 15  2  0  0  0  0
 14 28  1  0  0  0  0
 15 16  1  0  0  0  0
 15 17  1  0  0  0  0
 17 18  1  0  0  0  0
 17 19  1  0  0  0  0
 19 20  1  0  0  0  0
 19 28  2  0  0  0  0
 20 21  1  0  0  0  0
 20 22  2  0  0  0  0
 22 23  1  0  0  0  0
 22 24  1  0  0  0  0
 24 25  1  0  0  0  0
 24 26  2  0  0  0  0
 26 27  1  0  0  0  0
 26 28  1  0  0  0  0
 29 30  2  0  0  0  0
 29 31  1  0  0  0  0
 31 32  1  0  0  0  0
 31 33  1  0  0  0  0
 33 34  1  0  0  0  0
 33 35  1  0  0  0  0
 33 36  1  0  0  0  0
M  END
$$$$

  -OEChem-01062216103D

 36 37  0     1  0  0  0  0  0999 V2000
   -3.4737   -2.9164   -0.0604 H   0  0  0  0  0  0  0  0  0  0  0  0
   -3.4107   -2.1216   -0.8093 C   0  0  0  0  0  0  0  0  0  0  0  0
   -4.3893   -1.6436   -0.8978 H   0  0  0  0  0  0  0  0  0  0  0  0
   -3.1405   -2.5660   -1.7703 H   0  0  0  0  0  0  0  0  0  0  0  0
   -2.3677   -1.0991   -0.3998 C   0  0  0  0  0  0  0  0  0  0  0  0
   -1.7777   -1.2249    0.6580 O   0  0  0  0  0  0  0  0  0  0  0  0
   -2.1275   -0.0086   -1.2098 N   0  0  0  0  0  0  0  0  0  0  0  0
   -2.5555   -0.0583   -2.1288 H   0  0  0  0  0  0  0  0  0  0  0  0
   -0.9420    0.8688   -1.1030 C   0  0  1  0  0  0  0  0  0  0  0  0
   -0.0430    0.2640   -1.2623 H   0  0  0  0  0  0  0  0  0  0  0  0
   -1.0412    1.9266   -2.2176 C   0  0  0  0  0  0  0  0  0  0  0  0
   -2.0017    2.4463   -2.1414 H   0  0  0  0  0  0  0  0  0  0  0  0
   -0.2539    2.6793   -2.1033 H   0  0  0  0  0  0  0  0  0  0  0  0
   -0.9021    1.2931   -3.5779 C   0  0  0  0  0  0  0  0  0  0  0  0
   -1.9223    0.9241   -4.4230 C   0  0  0  0  0  0  0  0  0  0  0  0
   -2.9831    1.0895   -4.2489 H   0  0  0  0  0  0  0  0  0  0  0  0
   -1.3467    0.3190   -5.5381 N   0  0  0  0  0  0  0  0  0  0  0  0
   -1.8524   -0.0264   -6.3516 H   0  0  0  0  0  0  0  0  0  0  0  0
    0.0335    0.2880   -5.4123 C   0  0  0  0  0  0  0  0  0  0  0  0
    1.0350   -0.2102   -6.2463 C   0  0  0  0  0  0  0  0  0  0  0  0
    0.7797   -0.6762   -7.1915 H   0  0  0  0  0  0  0  0  0  0  0  0
    2.3747   -0.1020   -5.8456 C   0  0  0  0  0  0  0  0  0  0  0  0
    3.1652   -0.4858   -6.4836 H   0  0  0  0  0  0  0  0  0  0  0  0
    2.6964    0.5023   -4.6203 C   0  0  0  0  0  0  0  0  0  0  0  0
    3.7343    0.5859   -4.3120 H   0  0  0  0  0  0  0  0  0  0  0  0
    1.6822    1.0010   -3.7905 C   0  0  0  0  0  0  0  0  0  0  0  0
    1.9257    1.4709   -2.8421 H   0  0  0  0  0  0  0  0  0  0  0  0
    0.3496    0.8878   -4.1994 C   0  0  0  0  0  0  0  0  0  0  0  0
   -0.7422    1.6024    0.2472 C   0  0  0  0  0  0  0  0  0  0  0  0
    0.2800    2.2530    0.4307 O   0  0  0  0  0  0  0  0  0  0  0  0
   -1.7649    1.6885    1.1741 N   0  0  0  0  0  0  0  0  0  0  0  0
   -2.4396    0.9296    1.1111 H   0  0  0  0  0  0  0  0  0  0  0  0
   -1.5872    2.3282    2.4712 C   0  0  0  0  0  0  0  0  0  0  0  0
   -1.2955    3.3763    2.3462 H   0  0  0  0  0  0  0  0  0  0  0  0
   -2.5231    2.2977    3.0371 H   0  0  0  0  0  0  0  0  0  0  0  0
   -0.8126    1.8130    3.0489 H   0  0  0  0  0  0  0  0  0  0  0  0
  1  2  1  0  0  0  0
  2  3  1  0  0  0  0
  2  4  1  0  0  0  0
  2  5  1  0  0  0  0
  5  6  2  0  0  0  0
  5  7  1  0  0  0  0
  7  8  1  0  0  0  0
  7  9  1  0  0  0  0
  9 10  1  0  0  0  0
  9 11  1  0  0  0  0
  9 29  1  0  0  0  0
 11 12  1  0  0  0  0
 11 13  1  0  0  0  0
 11 14  1  0  0  0  0
 14 15  2  0  0  0  0
 14 28  1  0  0  0  0
 15 16  1  0  0  0  0
 15 17  1  0  0  0  0
 17 18  1  0  0  0  0
 17 19  1  0  0  0  0
 19 20  1  0  0  0  0
 19 28  2  0  0  0  0
 20 21  1  0  0  0  0
 20 22  2  0  0  0  0
 22 23  1  0  0  0  0
 22 24  1  0  0  0  0
 24 25  1  0  0  0  0
 24 26  2  0  0  0  0
 26 27  1  0  0  0  0
 26 28  1  0  0  0  0
 29 30  2  0  0  0  0
 29 31  1  0  0  0  0
 31 32  1  0  0  0  0
 31 33  1  0  0  0  0
 33 34  1  0  0  0  0
 33 35  1  0  0  0  0
 33 36  1  0  0  0  0
M  END
$$$$

  -OEChem-01062216103D

 36 37  0     1  0  0  0  0  0999 V2000
   -3.5514   -2.9104   -0.1029 H   0  0  0  0  0  0  0  0  0  0  0  0
   -3.4815   -2.0947   -0.8284 C   0  0  0  0  0  0  0  0  0  0  0  0
   -4.4426   -1.5763   -0.8684 H   0  0  0  0  0  0  0  0  0  0  0  0
   -3.2613   -2.5176   -1.8116 H   0  0  0  0  0  0  0  0  0  0  0  0
   -2.3858   -1.1270   -0.4238 C   0  0  0  0  0  0  0  0  0  0  0  0
   -1.7577   -1.3177    0.6026 O   0  0  0  0  0  0  0  0  0  0  0  0
   -2.1321   -0.0213   -1.2088 N   0  0  0  0  0  0  0  0  0  0  0  0
   -2.6058   -0.0138   -2.1060 H   0  0  0  0  0  0  0  0  0  0  0  0
   -0.9518    0.8640   -1.0956 C   0  0  1  0  0  0  0  0  0  0  0  0
   -0.0516    0.2618   -1.2575 H   0  0  0  0  0  0  0  0  0  0  0  0
   -1.0628    1.9113   -2.2231 C   0  0  0  0  0  0  0  0  0  0  0  0
   -2.0296    2.4202   -2.1525 H   0  0  0  0  0  0  0  0  0  0  0  0
   -0.2861    2.6765   -2.1214 H   0  0  0  0  0  0  0  0  0  0  0  0
   -0.9133    1.2672   -3.5778 C   0  0  0  0  0  0  0  0  0  0  0  0
   -1.9242    0.8759   -4.4240 C   0  0  0  0  0  0  0  0  0  0  0  0
   -2.9882    1.0234   -4.2537 H   0  0  0  0  0  0  0  0  0  0  0  0
   -1.3346    0.2770   -5.5353 N   0  0  0  0  0  0  0  0  0  0  0  0
   -1.8319   -0.0841   -6.3473 H   0  0  0  0  0  0  0  0  0  0  0  0
    0.0457    0.2745   -5.4071 C   0  0  0  0  0  0  0  0  0  0  0  0
    1.0587   -0.2042   -6.2385 C   0  0  0  0  0  0  0  0  0  0  0  0
    0.8144   -0.6766   -7.1834 H   0  0  0  0  0  0  0  0  0  0  0  0
    2.3951   -0.0671   -5.8358 C   0  0  0  0  0  0  0  0  0  0  0  0
    3.1947   -0.4347   -6.4723 H   0  0  0  0  0  0  0  0  0  0  0  0
    2.7023    0.5453   -4.6106 C   0  0  0  0  0  0  0  0  0  0  0  0
    3.7378    0.6510   -4.3005 H   0  0  0  0  0  0  0  0  0  0  0  0
    1.6764    1.0241   -3.7835 C   0  0  0  0  0  0  0  0  0  0  0  0
    1.9085    1.5005   -2.8355 H   0  0  0  0  0  0  0  0  0  0  0  0
    0.3473    0.8834   -4.1952 C   0  0  0  0  0  0  0  0  0  0  0  0
   -0.7398    1.5945    0.2592 C   0  0  0  0  0  0  0  0  0  0  0  0
    0.1618    2.4181    0.3656 O   0  0  0  0  0  0  0  0  0  0  0  0
   -1.6088    1.4317    1.3220 N   0  0  0  0  0  0  0  0  0  0  0  0
   -2.1085    0.5424    1.3054 H   0  0  0  0  0  0  0  0  0  0  0  0
   -1.3795    2.0496    2.6218 C   0  0  0  0  0  0  0  0  0  0  0  0
   -1.3205    3.1389    2.5254 H   0  0  0  0  0  0  0  0  0  0  0  0
   -2.2021    1.8097    3.3020 H   0  0  0  0  0  0  0  0  0  0  0  0
   -0.4456    1.6831    3.0605 H   0  0  0  0  0  0  0  0  0  0  0  0
  1  2  1  0  0  0  0
  2  3  1  0  0  0  0
  2  4  1  0  0  0  0
  2  5  1  0  0  0  0
  5  6  2  0  0  0  0
  5  7  1  0  0  0  0
  7  8  1  0  0  0  0
  7  9  1  0  0  0  0
  9 10  1  0  0  0  0
  9 11  1  0  0  0  0
  9 29  1  0  0  0  0
 11 12  1  0  0  0  0
 11 13  1  0  0  0  0
 11 14  1  0  0  0  0
 14 15  2  0  0  0  0
 14 28  1  0  0  0  0
 15 16  1  0  0  0  0
 15 17  1  0  0  0  0
 17 18  1  0  0  0  0
 17 19  1  0  0  0  0
 19 20  1  0  0  0  0
 19 28  2  0  0  0  0
 20 21  1  0  0  0  0
 20 22  2  0  0  0  0
 22 23  1  0  0  0  0
 22 24  1  0  0  0  0
 24 25  1  0  0  0  0
 24 26  2  0  0  0  0
 26 27  1  0  0  0  0
 26 28  1  0  0  0  0
 29 30  2  0  0  0  0
 29 31  1  0  0  0  0
 31 32  1  0  0  0  0
 31 33  1  0  0  0  0
 33 34  1  0  0  0  0
 33 35  1  0  0  0  0
 33 36  1  0  0  0  0
M  END
$$$$

  -OEChem-01062216103D

 36 37  0     1  0  0  0  0  0999 V2000
   -3.6251   -2.8774   -0.0868 H   0  0  0  0  0  0  0  0  0  0  0  0
   -3.5584   -2.0435   -0.7916 C   0  0  0  0  0  0  0  0  0  0  0  0
   -4.4840   -1.4651   -0.7406 H   0  0  0  0  0  0  0  0  0  0  0  0
   -3.4419   -2.4453   -1.8011 H   0  0  0  0  0  0  0  0  0  0  0  0
   -2.3756   -1.1597   -0.4446 C   0  0  0  0  0  0  0  0  0  0  0  0
   -1.6661   -1.4449    0.5047 O   0  0  0  0  0  0  0  0  0  0  0  0
   -2.1200   -0.0388   -1.2072 N   0  0  0  0  0  0  0  0  0  0  0  0
   -2.6779    0.0536   -2.0491 H   0  0  0  0  0  0  0  0  0  0  0  0
   -0.9491    0.8596   -1.0935 C   0  0  1  0  0  0  0  0  0  0  0  0
   -0.0445    0.2646   -1.2585 H   0  0  0  0  0  0  0  0  0  0  0  0
   -1.0707    1.8978   -2.2314 C   0  0  0  0  0  0  0  0  0  0  0  0
   -2.0428    2.3971   -2.1665 H   0  0  0  0  0  0  0  0  0  0  0  0
   -0.3025    2.6724   -2.1390 H   0  0  0  0  0  0  0  0  0  0  0  0
   -0.9098    1.2463   -3.5816 C   0  0  0  0  0  0  0  0  0  0  0  0
   -1.9134    0.8361   -4.4276 C   0  0  0  0  0  0  0  0  0  0  0  0
   -2.9798    0.9663   -4.2595 H   0  0  0  0  0  0  0  0  0  0  0  0
   -1.3137    0.2437   -5.5367 N   0  0  0  0  0  0  0  0  0  0  0  0
   -1.8046   -0.1301   -6.3465 H   0  0  0  0  0  0  0  0  0  0  0  0
    0.0661    0.2646   -5.4080 C   0  0  0  0  0  0  0  0  0  0  0  0
    1.0861   -0.1991   -6.2390 C   0  0  0  0  0  0  0  0  0  0  0  0
    0.8485   -0.6777   -7.1824 H   0  0  0  0  0  0  0  0  0  0  0  0
    2.4203   -0.0382   -5.8380 C   0  0  0  0  0  0  0  0  0  0  0  0
    3.2252   -0.3941   -6.4742 H   0  0  0  0  0  0  0  0  0  0  0  0
    2.7180    0.5831   -4.6151 C   0  0  0  0  0  0  0  0  0  0  0  0
    3.7518    0.7077   -4.3067 H   0  0  0  0  0  0  0  0  0  0  0  0
    1.6847    1.0470   -3.7883 C   0  0  0  0  0  0  0  0  0  0  0  0
    1.9100    1.5307   -2.8424 H   0  0  0  0  0  0  0  0  0  0  0  0
    0.3575    0.8821   -4.1978 C   0  0  0  0  0  0  0  0  0  0  0  0
   -0.7379    1.5801    0.2712 C   0  0  0  0  0  0  0  0  0  0  0  0
   -0.0112    2.5650    0.3367 O   0  0  0  0  0  0  0  0  0  0  0  0
   -1.3924    1.1887    1.4244 N   0  0  0  0  0  0  0  0  0  0  0  0
   -1.7456    0.2303    1.4003 H   0  0  0  0  0  0  0  0  0  0  0  0
   -1.1318    1.7845    2.7288 C   0  0  0  0  0  0  0  0  0  0  0  0
   -1.3191    2.8632    2.7042 H   0  0  0  0  0  0  0  0  0  0  0  0
   -1.7880    1.3399    3.4830 H   0  0  0  0  0  0  0  0  0  0  0  0
   -0.0924    1.6130    3.0271 H   0  0  0  0  0  0  0  0  0  0  0  0
  1  2  1  0  0  0  0
  2  3  1  0  0  0  0
  2  4  1  0  0  0  0
  2  5  1  0  0  0  0
  5  6  2  0  0  0  0
  5  7  1  0  0  0  0
  7  8  1  0  0  0  0
  7  9  1  0  0  0  0
  9 10  1  0  0  0  0
  9 11  1  0  0  0  0
  9 29  1  0  0  0  0
 11 12  1  0  0  0  0
 11 13  1  0  0  0  0
 11 14  1  0  0  0  0
 14 15  2  0  0  0  0
 14 28  1  0  0  0  0
 15 16  1  0  0  0  0
 15 17  1  0  0  0  0
 17 18  1  0  0  0  0
 17 19  1  0  0  0  0
 19 20  1  0  0  0  0
 19 28  2  0  0  0  0
 20 21  1  0  0  0  0
 20 22  2  0  0  0  0
 22 23  1  0  0  0  0
 22 24  1  0  0  0  0
 24 25  1  0  0  0  0
 24 26  2  0  0  0  0
 26 27  1  0  0  0  0
 26 28  1  0  0  0  0
 29 30  2  0  0  0  0
 29 31  1  0  0  0  0
 31 32  1  0  0  0  0
 31 33  1  0  0  0  0
 33 34  1  0  0  0  0
 33 35  1  0  0  0  0
 33 36  1  0  0  0  0
M  END
$$$$

  -OEChem-01062216103D

 36 37  0     1  0  0  0  0  0999 V2000
   -3.6548   -2.8458   -0.0324 H   0  0  0  0  0  0  0  0  0  0  0  0
   -3.6074   -1.9959   -0.7192 C   0  0  0  0  0  0  0  0  0  0  0  0
   -4.4948   -1.3757   -0.5714 H   0  0  0  0  0  0  0  0  0  0  0  0
   -3.5994   -2.3733   -1.7446 H   0  0  0  0  0  0  0  0  0  0  0  0
   -2.3549   -1.1814   -0.4570 C   0  0  0  0  0  0  0  0  0  0  0  0
   -1.5620   -1.5502    0.3931 O   0  0  0  0  0  0  0  0  0  0  0  0
   -2.1133   -0.0477   -1.2057 N   0  0  0  0  0  0  0  0  0  0  0  0
   -2.7746    0.1417   -1.9505 H   0  0  0  0  0  0  0  0  0  0  0  0
   -0.9496    0.8609   -1.0995 C   0  0  1  0  0  0  0  0  0  0  0  0
   -0.0435    0.2696   -1.2687 H   0  0  0  0  0  0  0  0  0  0  0  0
   -1.0689    1.8946   -2.2424 C   0  0  0  0  0  0  0  0  0  0  0  0
   -2.0407    2.3948   -2.1832 H   0  0  0  0  0  0  0  0  0  0  0  0
   -0.2998    2.6684   -2.1506 H   0  0  0  0  0  0  0  0  0  0  0  0
   -0.8996    1.2386   -3.5897 C   0  0  0  0  0  0  0  0  0  0  0  0
   -1.8982    0.8220   -4.4387 C   0  0  0  0  0  0  0  0  0  0  0  0
   -2.9657    0.9445   -4.2733 H   0  0  0  0  0  0  0  0  0  0  0  0
   -1.2921    0.2335   -5.5464 N   0  0  0  0  0  0  0  0  0  0  0  0
   -1.7786   -0.1444   -6.3569 H   0  0  0  0  0  0  0  0  0  0  0  0
    0.0870    0.2620   -5.4132 C   0  0  0  0  0  0  0  0  0  0  0  0
    1.1110   -0.1974   -6.2415 C   0  0  0  0  0  0  0  0  0  0  0  0
    0.8781   -0.6801   -7.1841 H   0  0  0  0  0  0  0  0  0  0  0  0
    2.4435   -0.0270   -5.8393 C   0  0  0  0  0  0  0  0  0  0  0  0
    3.2512   -0.3785   -6.4743 H   0  0  0  0  0  0  0  0  0  0  0  0
    2.7355    0.5982   -4.6171 C   0  0  0  0  0  0  0  0  0  0  0  0
    3.7683    0.7295   -4.3081 H   0  0  0  0  0  0  0  0  0  0  0  0
    1.6979    1.0563   -3.7923 C   0  0  0  0  0  0  0  0  0  0  0  0
    1.9190    1.5426   -2.8470 H   0  0  0  0  0  0  0  0  0  0  0  0
    0.3721    0.8824   -4.2030 C   0  0  0  0  0  0  0  0  0  0  0  0
   -0.7374    1.5632    0.2765 C   0  0  0  0  0  0  0  0  0  0  0  0
   -0.2479    2.6856    0.3319 O   0  0  0  0  0  0  0  0  0  0  0  0
   -1.1233    0.9835    1.4703 N   0  0  0  0  0  0  0  0  0  0  0  0
   -1.3444   -0.0135    1.4187 H   0  0  0  0  0  0  0  0  0  0  0  0
   -0.8452    1.5639    2.7777 C   0  0  0  0  0  0  0  0  0  0  0  0
   -1.2884    2.5619    2.8572 H   0  0  0  0  0  0  0  0  0  0  0  0
   -1.2706    0.9354    3.5660 H   0  0  0  0  0  0  0  0  0  0  0  0
    0.2347    1.6429    2.9399 H   0  0  0  0  0  0  0  0  0  0  0  0
  1  2  1  0  0  0  0
  2  3  1  0  0  0  0
  2  4  1  0  0  0  0
  2  5  1  0  0  0  0
  5  6  2  0  0  0  0
  5  7  1  0  0  0  0
  7  8  1  0  0  0  0
  7  9  1  0  0  0  0
  9 10  1  0  0  0  0
  9 11  1  0  0  0  0
  9 29  1  0  0  0  0
 11 12  1  0  0  0  0
 11 13  1  0  0  0  0
 11 14  1  0  0  0  0
 14 15  2  0  0  0  0
 14 28  1  0  0  0  0
 15 16  1  0  0  0  0
 15 17  1  0  0  0  0
 17 18  1  0  0  0  0
 17 19  1  0  0  0  0
 19 20  1  0  0  0  0
 19 28  2  0  0  0  0
 20 21  1  0  0  0  0
 20 22  2  0  0  0  0
 22 23  1  0  0  0  0
 22 24  1  0  0  0  0
 24 25  1  0  0  0  0
 24 26  2  0  0  0  0
 26 27  1  0  0  0  0
 26 28  1  0  0  0  0
 29 30  2  0  0  0  0
 29 31  1  0  0  0  0
 31 32  1  0  0  0  0
 31 33  1  0  0  0  0
 33 34  1  0  0  0  0
 33 35  1  0  0  0  0
 33 36  1  0  0  0  0
M  END
$$$$

  -OEChem-01062216103D

 36 37  0     1  0  0  0  0  0999 V2000
   -3.6461   -2.8097    0.0576 H   0  0  0  0  0  0  0  0  0  0  0  0
   -3.6185   -1.9539   -0.6231 C   0  0  0  0  0  0  0  0  0  0  0  0
   -4.4681   -1.3030   -0.4028 H   0  0  0  0  0  0  0  0  0  0  0  0
   -3.7022   -2.3188   -1.6496 H   0  0  0  0  0  0  0  0  0  0  0  0
   -2.3199   -1.1895   -0.4487 C   0  0  0  0  0  0  0  0  0  0  0  0
   -1.4731   -1.6071    0.3241 O   0  0  0  0  0  0  0  0  0  0  0  0
   -2.0936   -0.0540   -1.1995 N   0  0  0  0  0  0  0  0  0  0  0  0
   -2.8221    0.1984   -1.8579 H   0  0  0  0  0  0  0  0  0  0  0  0
   -0.9292    0.8539   -1.1060 C   0  0  1  0  0  0  0  0  0  0  0  0
   -0.0251    0.2614   -1.2809 H   0  0  0  0  0  0  0  0  0  0  0  0
   -1.0426    1.8899   -2.2462 C   0  0  0  0  0  0  0  0  0  0  0  0
   -2.0108    2.3970   -2.1852 H   0  0  0  0  0  0  0  0  0  0  0  0
   -0.2672    2.6567   -2.1485 H   0  0  0  0  0  0  0  0  0  0  0  0
   -0.8793    1.2372   -3.5960 C   0  0  0  0  0  0  0  0  0  0  0  0
   -1.8814    0.8302   -4.4449 C   0  0  0  0  0  0  0  0  0  0  0  0
   -2.9477    0.9543   -4.2743 H   0  0  0  0  0  0  0  0  0  0  0  0
   -1.2806    0.2477   -5.5590 N   0  0  0  0  0  0  0  0  0  0  0  0
   -1.7718   -0.1277   -6.3678 H   0  0  0  0  0  0  0  0  0  0  0  0
    0.0992    0.2711   -5.4305 C   0  0  0  0  0  0  0  0  0  0  0  0
    1.1203   -0.1851   -6.2647 C   0  0  0  0  0  0  0  0  0  0  0  0
    0.8838   -0.6593   -7.2108 H   0  0  0  0  0  0  0  0  0  0  0  0
    2.4541   -0.0231   -5.8634 C   0  0  0  0  0  0  0  0  0  0  0  0
    3.2592   -0.3731   -6.5025 H   0  0  0  0  0  0  0  0  0  0  0  0
    2.7508    0.5911   -4.6369 C   0  0  0  0  0  0  0  0  0  0  0  0
    3.7846    0.7158   -4.3287 H   0  0  0  0  0  0  0  0  0  0  0  0
    1.7165    1.0467   -3.8069 C   0  0  0  0  0  0  0  0  0  0  0  0
    1.9411    1.5243   -2.8584 H   0  0  0  0  0  0  0  0  0  0  0  0
    0.3894    0.8811   -4.2160 C   0  0  0  0  0  0  0  0  0  0  0  0
   -0.7149    1.5416    0.2759 C   0  0  0  0  0  0  0  0  0  0  0  0
   -0.4892    2.7441    0.3517 O   0  0  0  0  0  0  0  0  0  0  0  0
   -0.8074    0.8411    1.4627 N   0  0  0  0  0  0  0  0  0  0  0  0
   -0.9352   -0.1708    1.3798 H   0  0  0  0  0  0  0  0  0  0  0  0
   -0.5754    1.4201    2.7791 C   0  0  0  0  0  0  0  0  0  0  0  0
   -1.2858    2.2306    2.9719 H   0  0  0  0  0  0  0  0  0  0  0  0
   -0.7035    0.6576    3.5532 H   0  0  0  0  0  0  0  0  0  0  0  0
    0.4425    1.8175    2.8488 H   0  0  0  0  0  0  0  0  0  0  0  0
  1  2  1  0  0  0  0
  2  3  1  0  0  0  0
  2  4  1  0  0  0  0
  2  5  1  0  0  0  0
  5  6  2  0  0  0  0
  5  7  1  0  0  0  0
  7  8  1  0  0  0  0
  7  9  1  0  0  0  0
  9 10  1  0  0  0  0
  9 11  1  0  0  0  0
  9 29  1  0  0  0  0
 11 12  1  0  0  0  0
 11 13  1  0  0  0  0
 11 14  1  0  0  0  0
 14 15  2  0  0  0  0
 14 28  1  0  0  0  0
 15 16  1  0  0  0  0
 15 17  1  0  0  0  0
 17 18  1  0  0  0  0
 17 19  1  0  0  0  0
 19 20  1  0  0  0  0
 19 28  2  0  0  0  0
 20 21  1  0  0  0  0
 20 22  2  0  0  0  0
 22 23  1  0  0  0  0
 22 24  1  0  0  0  0
 24 25  1  0  0  0  0
 24 26  2  0  0  0  0
 26 27  1  0  0  0  0
 26 28  1  0  0  0  0
 29 30  2  0  0  0  0
 29 31  1  0  0  0  0
 31 32  1  0  0  0  0
 31 33  1  0  0  0  0
 33 34  1  0  0  0  0
 33 35  1  0  0  0  0
 33 36  1  0  0  0  0
M  END
$$$$

  -OEChem-01062216103D

 36 37  0     1  0  0  0  0  0999 V2000
   -3.6150   -2.7506    0.1868 H   0  0  0  0  0  0  0  0  0  0  0  0
   -3.5918   -1.9170   -0.5209 C   0  0  0  0  0  0  0  0  0  0  0  0
   -4.4172   -1.2391   -0.2908 H   0  0  0  0  0  0  0  0  0  0  0  0
   -3.7218   -2.3099   -1.5321 H   0  0  0  0  0  0  0  0  0  0  0  0
   -2.2699   -1.1802   -0.4172 C   0  0  0  0  0  0  0  0  0  0  0  0
   -1.3943   -1.6085    0.3176 O   0  0  0  0  0  0  0  0  0  0  0  0
   -2.0557   -0.0543   -1.1862 N   0  0  0  0  0  0  0  0  0  0  0  0
   -2.8226    0.2337   -1.7839 H   0  0  0  0  0  0  0  0  0  0  0  0
   -0.8853    0.8451   -1.1089 C   0  0  1  0  0  0  0  0  0  0  0  0
    0.0151    0.2482   -1.2880 H   0  0  0  0  0  0  0  0  0  0  0  0
   -0.9918    1.8856   -2.2440 C   0  0  0  0  0  0  0  0  0  0  0  0
   -1.9536    2.4041   -2.1771 H   0  0  0  0  0  0  0  0  0  0  0  0
   -0.2067    2.6419   -2.1403 H   0  0  0  0  0  0  0  0  0  0  0  0
   -0.8445    1.2370   -3.5972 C   0  0  0  0  0  0  0  0  0  0  0  0
   -1.8598    0.8476   -4.4386 C   0  0  0  0  0  0  0  0  0  0  0  0
   -2.9230    0.9798   -4.2544 H   0  0  0  0  0  0  0  0  0  0  0  0
   -1.2771    0.2677   -5.5635 N   0  0  0  0  0  0  0  0  0  0  0  0
   -1.7815   -0.1009   -6.3673 H   0  0  0  0  0  0  0  0  0  0  0  0
    0.1040    0.2808   -5.4522 C   0  0  0  0  0  0  0  0  0  0  0  0
    1.1096   -0.1747   -6.3051 C   0  0  0  0  0  0  0  0  0  0  0  0
    0.8562   -0.6384   -7.2519 H   0  0  0  0  0  0  0  0  0  0  0  0
    2.4500   -0.0232   -5.9230 C   0  0  0  0  0  0  0  0  0  0  0  0
    3.2435   -0.3732   -6.5766 H   0  0  0  0  0  0  0  0  0  0  0  0
    2.7682    0.5808   -4.6969 C   0  0  0  0  0  0  0  0  0  0  0  0
    3.8073    0.6989   -4.4046 H   0  0  0  0  0  0  0  0  0  0  0  0
    1.7491    1.0355   -3.8476 C   0  0  0  0  0  0  0  0  0  0  0  0
    1.9913    1.5062   -2.9000 H   0  0  0  0  0  0  0  0  0  0  0  0
    0.4147    0.8791   -4.2367 C   0  0  0  0  0  0  0  0  0  0  0  0
   -0.6760    1.5280    0.2727 C   0  0  0  0  0  0  0  0  0  0  0  0
   -0.7105    2.7484    0.3850 O   0  0  0  0  0  0  0  0  0  0  0  0
   -0.4737    0.7819    1.4171 N   0  0  0  0  0  0  0  0  0  0  0  0
   -0.5612   -0.2328    1.3124 H   0  0  0  0  0  0  0  0  0  0  0  0
   -0.3528    1.3477    2.7541 C   0  0  0  0  0  0  0  0  0  0  0  0
   -1.2726    1.8720    3.0332 H   0  0  0  0  0  0  0  0  0  0  0  0
   -0.1711    0.5527    3.4836 H   0  0  0  0  0  0  0  0  0  0  0  0
    0.4835    2.0531    2.7983 H   0  0  0  0  0  0  0  0  0  0  0  0
  1  2  1  0  0  0  0
  2  3  1  0  0  0  0
  2  4  1  0  0  0  0
  2  5  1  0  0  0  0
  5  6  2  0  0  0  0
  5  7  1  0  0  0  0
  7  8  1  0  0  0  0
  7  9  1  0  0  0  0
  9 10  1  0  0  0  0
  9 11  1  0  0  0  0
  9 29  1  0  0  0  0
 11 12  1  0  0  0  0
 11 13  1  0  0  0  0
 11 14  1  0  0  0  0
 14 15  2  0  0  0  0
 14 28  1  0  0  0  0
 15 16  1  0  0  0  0
 15 17  1  0  0  0  0
 17 18  1  0  0  0  0
 17 19  1  0  0  0  0
 19 20  1  0  0  0  0
 19 28  2  0  0  0  0
 20 21  1  0  0  0  0
 20 22  2  0  0  0  0
 22 23  1  0  0  0  0
 22 24  1  0  0  0  0
 24 25  1  0  0  0  0
 24 26  2  0  0  0  0
 26 27  1  0  0  0  0
 26 28  1  0  0  0  0
 29 30  2  0  0  0  0
 29 31  1  0  0  0  0
 31 32  1  0  0  0  0
 31 33  1  0  0  0  0
 33 34  1  0  0  0  0
 33 35  1  0  0  0  0
 33 36  1  0  0  0  0
M  END
$$$$

  -OEChem-01062216103D

 36 37  0     1  0  0  0  0  0999 V2000
   -3.5314   -2.7300    0.2767 H   0  0  0  0  0  0  0  0  0  0  0  0
   -3.5371   -1.9062   -0.4426 C   0  0  0  0  0  0  0  0  0  0  0  0
   -4.3602   -1.2312   -0.1964 H   0  0  0  0  0  0  0  0  0  0  0  0
   -3.6946   -2.3146   -1.4438 H   0  0  0  0  0  0  0  0  0  0  0  0
   -2.2189   -1.1578   -0.3905 C   0  0  0  0  0  0  0  0  0  0  0  0
   -1.3193   -1.5597    0.3313 O   0  0  0  0  0  0  0  0  0  0  0  0
   -2.0321   -0.0461   -1.1863 N   0  0  0  0  0  0  0  0  0  0  0  0
   -2.8231    0.2504   -1.7473 H   0  0  0  0  0  0  0  0  0  0  0  0
   -0.8632    0.8525   -1.1237 C   0  0  1  0  0  0  0  0  0  0  0  0
    0.0398    0.2594   -1.3027 H   0  0  0  0  0  0  0  0  0  0  0  0
   -0.9686    1.8980   -2.2520 C   0  0  0  0  0  0  0  0  0  0  0  0
   -1.9292    2.4182   -2.1801 H   0  0  0  0  0  0  0  0  0  0  0  0
   -0.1815    2.6513   -2.1416 H   0  0  0  0  0  0  0  0  0  0  0  0
   -0.8317    1.2555   -3.6088 C   0  0  0  0  0  0  0  0  0  0  0  0
   -1.8527    0.8765   -4.4478 C   0  0  0  0  0  0  0  0  0  0  0  0
   -2.9141    1.0162   -4.2585 H   0  0  0  0  0  0  0  0  0  0  0  0
   -1.2783    0.2967   -5.5771 N   0  0  0  0  0  0  0  0  0  0  0  0
   -1.7881   -0.0654   -6.3803 H   0  0  0  0  0  0  0  0  0  0  0  0
    0.1032    0.2947   -5.4680 C   0  0  0  0  0  0  0  0  0  0  0  0
    1.1027   -0.1704   -6.3226 C   0  0  0  0  0  0  0  0  0  0  0  0
    0.8430   -0.6288   -7.2703 H   0  0  0  0  0  0  0  0  0  0  0  0
    2.4451   -0.0382   -5.9398 C   0  0  0  0  0  0  0  0  0  0  0  0
    3.2337   -0.3974   -6.5944 H   0  0  0  0  0  0  0  0  0  0  0  0
    2.7716    0.5577   -4.7119 C   0  0  0  0  0  0  0  0  0  0  0  0
    3.8121    0.6595   -4.4186 H   0  0  0  0  0  0  0  0  0  0  0  0
    1.7586    1.0235   -3.8615 C   0  0  0  0  0  0  0  0  0  0  0  0
    2.0071    1.4870   -2.9122 H   0  0  0  0  0  0  0  0  0  0  0  0
    0.4222    0.8857   -4.2513 C   0  0  0  0  0  0  0  0  0  0  0  0
   -0.6734    1.5352    0.2564 C   0  0  0  0  0  0  0  0  0  0  0  0
   -0.9483    2.7190    0.4192 O   0  0  0  0  0  0  0  0  0  0  0  0
   -0.1805    0.8162    1.3275 N   0  0  0  0  0  0  0  0  0  0  0  0
   -0.1988   -0.2006    1.2081 H   0  0  0  0  0  0  0  0  0  0  0  0
   -0.0878    1.3536    2.6783 C   0  0  0  0  0  0  0  0  0  0  0  0
   -1.0827    1.6042    3.0605 H   0  0  0  0  0  0  0  0  0  0  0  0
    0.3659    0.6147    3.3458 H   0  0  0  0  0  0  0  0  0  0  0  0
    0.5335    2.2552    2.6908 H   0  0  0  0  0  0  0  0  0  0  0  0
  1  2  1  0  0  0  0
  2  3  1  0  0  0  0
  2  4  1  0  0  0  0
  2  5  1  0  0  0  0
  5  6  2  0  0  0  0
  5  7  1  0  0  0  0
  7  8  1  0  0  0  0
  7  9  1  0  0  0  0
  9 10  1  0  0  0  0
  9 11  1  0  0  0  0
  9 29  1  0  0  0  0
 11 12  1  0  0  0  0
 11 13  1  0  0  0  0
 11 14  1  0  0  0  0
 14 15  2  0  0  0  0
 14 28  1  0  0  0  0
 15 16  1  0  0  0  0
 15 17  1  0  0  0  0
 17 18  1  0  0  0  0
 17 19  1  0  0  0  0
 19 20  1  0  0  0  0
 19 28  2  0  0  0  0
 20 21  1  0  0  0  0
 20 22  2  0  0  0  0
 22 23  1  0  0  0  0
 22 24  1  0  0  0  0
 24 25  1  0  0  0  0
 24 26  2  0  0  0  0
 26 27  1  0  0  0  0
 26 28  1  0  0  0  0
 29 30  2  0  0  0  0
 29 31  1  0  0  0  0
 31 32  1  0  0  0  0
 31 33  1  0  0  0  0
 33 34  1  0  0  0  0
 33 35  1  0  0  0  0
 33 36  1  0  0  0  0
M  END
$$$$

  -OEChem-01062216103D

 36 37  0     1  0  0  0  0  0999 V2000
   -3.4878   -2.6691    0.4066 H   0  0  0  0  0  0  0  0  0  0  0  0
   -3.5038   -1.8887   -0.3594 C   0  0  0  0  0  0  0  0  0  0  0  0
   -4.3243   -1.2007   -0.1417 H   0  0  0  0  0  0  0  0  0  0  0  0
   -3.6743   -2.3542   -1.3332 H   0  0  0  0  0  0  0  0  0  0  0  0
   -2.1849   -1.1395   -0.3684 C   0  0  0  0  0  0  0  0  0  0  0  0
   -1.2625   -1.5153    0.3400 O   0  0  0  0  0  0  0  0  0  0  0  0
   -2.0192   -0.0469   -1.1947 N   0  0  0  0  0  0  0  0  0  0  0  0
   -2.8331    0.2689   -1.7105 H   0  0  0  0  0  0  0  0  0  0  0  0
   -0.8485    0.8454   -1.1369 C   0  0  1  0  0  0  0  0  0  0  0  0
    0.0565    0.2534   -1.3100 H   0  0  0  0  0  0  0  0  0  0  0  0
   -0.9463    1.8943   -2.2605 C   0  0  0  0  0  0  0  0  0  0  0  0
   -1.9052    2.4182   -2.1893 H   0  0  0  0  0  0  0  0  0  0  0  0
   -0.1571    2.6444   -2.1435 H   0  0  0  0  0  0  0  0  0  0  0  0
   -0.8139    1.2533   -3.6187 C   0  0  0  0  0  0  0  0  0  0  0  0
   -1.8390    0.8838   -4.4568 C   0  0  0  0  0  0  0  0  0  0  0  0
   -2.8992    1.0252   -4.2626 H   0  0  0  0  0  0  0  0  0  0  0  0
   -1.2705    0.3088   -5.5912 N   0  0  0  0  0  0  0  0  0  0  0  0
   -1.7846   -0.0475   -6.3941 H   0  0  0  0  0  0  0  0  0  0  0  0
    0.1112    0.3037   -5.4887 C   0  0  0  0  0  0  0  0  0  0  0  0
    1.1053   -0.1554   -6.3528 C   0  0  0  0  0  0  0  0  0  0  0  0
    0.8395   -0.6067   -7.3021 H   0  0  0  0  0  0  0  0  0  0  0  0
    2.4500   -0.0245   -5.9779 C   0  0  0  0  0  0  0  0  0  0  0  0
    3.2347   -0.3767   -6.6411 H   0  0  0  0  0  0  0  0  0  0  0  0
    2.7835    0.5625   -4.7473 C   0  0  0  0  0  0  0  0  0  0  0  0
    3.8258    0.6643   -4.4605 H   0  0  0  0  0  0  0  0  0  0  0  0
    1.7753    1.0203   -3.8865 C   0  0  0  0  0  0  0  0  0  0  0  0
    2.0286    1.4766   -2.9352 H   0  0  0  0  0  0  0  0  0  0  0  0
    0.4368    0.8856   -4.2692 C   0  0  0  0  0  0  0  0  0  0  0  0
   -0.6903    1.5293    0.2426 C   0  0  0  0  0  0  0  0  0  0  0  0
   -1.1849    2.6302    0.4597 O   0  0  0  0  0  0  0  0  0  0  0  0
    0.0572    0.9159    1.2290 N   0  0  0  0  0  0  0  0  0  0  0  0
    0.1708   -0.0921    1.1016 H   0  0  0  0  0  0  0  0  0  0  0  0
    0.1559    1.4457    2.5827 C   0  0  0  0  0  0  0  0  0  0  0  0
   -0.8341    1.4980    3.0475 H   0  0  0  0  0  0  0  0  0  0  0  0
    0.7933    0.7997    3.1940 H   0  0  0  0  0  0  0  0  0  0  0  0
    0.5943    2.4490    2.5710 H   0  0  0  0  0  0  0  0  0  0  0  0
  1  2  1  0  0  0  0
  2  3  1  0  0  0  0
  2  4  1  0  0  0  0
  2  5  1  0  0  0  0
  5  6  2  0  0  0  0
  5  7  1  0  0  0  0
  7  8  1  0  0  0  0
  7  9  1  0  0  0  0
  9 10  1  0  0  0  0
  9 11  1  0  0  0  0
  9 29  1  0  0  0  0
 11 12  1  0  0  0  0
 11 13  1  0  0  0  0
 11 14  1  0  0  0  0
 14 15  2  0  0  0  0
 14 28  1  0  0  0  0
 15 16  1  0  0  0  0
 15 17  1  0  0  0  0
 17 18  1  0  0  0  0
 17 19  1  0  0  0  0
 19 20  1  0  0  0  0
 19 28  2  0  0  0  0
 20 21  1  0  0  0  0
 20 22  2  0  0  0  0
 22 23  1  0  0  0  0
 22 24  1  0  0  0  0
 24 25  1  0  0  0  0
 24 26  2  0  0  0  0
 26 27  1  0  0  0  0
 26 28  1  0  0  0  0
 29 30  2  0  0  0  0
 29 31  1  0  0  0  0
 31 32  1  0  0  0  0
 31 33  1  0  0  0  0
 33 34  1  0  0  0  0
 33 35  1  0  0  0  0
 33 36  1  0  0  0  0
M  END
$$$$

  -OEChem-01062216103D

 36 37  0     1  0  0  0  0  0999 V2000
   -3.4321   -2.6470    0.4841 H   0  0  0  0  0  0  0  0  0  0  0  0
   -3.4770   -1.8763   -0.2904 C   0  0  0  0  0  0  0  0  0  0  0  0
   -4.2786   -1.1764   -0.0428 H   0  0  0  0  0  0  0  0  0  0  0  0
   -3.6986   -2.3518   -1.2487 H   0  0  0  0  0  0  0  0  0  0  0  0
   -2.1529   -1.1415   -0.3718 C   0  0  0  0  0  0  0  0  0  0  0  0
   -1.2025   -1.5116    0.3020 O   0  0  0  0  0  0  0  0  0  0  0  0
   -2.0158   -0.0597   -1.2170 N   0  0  0  0  0  0  0  0  0  0  0  0
   -2.8625    0.2900   -1.6520 H   0  0  0  0  0  0  0  0  0  0  0  0
   -0.8495    0.8362   -1.1617 C   0  0  1  0  0  0  0  0  0  0  0  0
    0.0576    0.2473   -1.3340 H   0  0  0  0  0  0  0  0  0  0  0  0
   -0.9436    1.8951   -2.2741 C   0  0  0  0  0  0  0  0  0  0  0  0
   -1.9024    2.4188   -2.1999 H   0  0  0  0  0  0  0  0  0  0  0  0
   -0.1538    2.6428   -2.1476 H   0  0  0  0  0  0  0  0  0  0  0  0
   -0.8111    1.2662   -3.6371 C   0  0  0  0  0  0  0  0  0  0  0  0
   -1.8346    0.9060   -4.4805 C   0  0  0  0  0  0  0  0  0  0  0  0
   -2.8946    1.0486   -4.2867 H   0  0  0  0  0  0  0  0  0  0  0  0
   -1.2644    0.3364   -5.6171 N   0  0  0  0  0  0  0  0  0  0  0  0
   -1.7779   -0.0163   -6.4219 H   0  0  0  0  0  0  0  0  0  0  0  0
    0.1171    0.3213   -5.5081 C   0  0  0  0  0  0  0  0  0  0  0  0
    1.1138   -0.1419   -6.3674 C   0  0  0  0  0  0  0  0  0  0  0  0
    0.8516   -0.5874   -7.3204 H   0  0  0  0  0  0  0  0  0  0  0  0
    2.4568   -0.0258   -5.9813 C   0  0  0  0  0  0  0  0  0  0  0  0
    3.2434   -0.3822   -6.6397 H   0  0  0  0  0  0  0  0  0  0  0  0
    2.7868    0.5505   -4.7449 C   0  0  0  0  0  0  0  0  0  0  0  0
    3.8277    0.6381   -4.4485 H   0  0  0  0  0  0  0  0  0  0  0  0
    1.7768    1.0140   -3.8898 C   0  0  0  0  0  0  0  0  0  0  0  0
    2.0278    1.4615   -2.9337 H   0  0  0  0  0  0  0  0  0  0  0  0
    0.4400    0.8938   -4.2833 C   0  0  0  0  0  0  0  0  0  0  0  0
   -0.7095    1.5196    0.2173 C   0  0  0  0  0  0  0  0  0  0  0  0
   -1.4198    2.4750    0.5116 O   0  0  0  0  0  0  0  0  0  0  0  0
    0.2628    1.0917    1.1007 N   0  0  0  0  0  0  0  0  0  0  0  0
    0.6044    0.1466    0.9308 H   0  0  0  0  0  0  0  0  0  0  0  0
    0.3740    1.6212    2.4535 C   0  0  0  0  0  0  0  0  0  0  0  0
   -0.5460    1.4308    3.0159 H   0  0  0  0  0  0  0  0  0  0  0  0
    1.2074    1.1438    2.9777 H   0  0  0  0  0  0  0  0  0  0  0  0
    0.5562    2.7007    2.4294 H   0  0  0  0  0  0  0  0  0  0  0  0
  1  2  1  0  0  0  0
  2  3  1  0  0  0  0
  2  4  1  0  0  0  0
  2  5  1  0  0  0  0
  5  6  2  0  0  0  0
  5  7  1  0  0  0  0
  7  8  1  0  0  0  0
  7  9  1  0  0  0  0
  9 10  1  0  0  0  0
  9 11  1  0  0  0  0
  9 29  1  0  0  0  0
 11 12  1  0  0  0  0
 11 13  1  0  0  0  0
 11 14  1  0  0  0  0
 14 15  2  0  0  0  0
 14 28  1  0  0  0  0
 15 16  1  0  0  0  0
 15 17  1  0  0  0  0
 17 18  1  0  0  0  0
 17 19  1  0  0  0  0
 19 20  1  0  0  0  0
 19 28  2  0  0  0  0
 20 21  1  0  0  0  0
 20 22  2  0  0  0  0
 22 23  1  0  0  0  0
 22 24  1  0  0  0  0
 24 25  1  0  0  0  0
 24 26  2  0  0  0  0
 26 27  1  0  0  0  0
 26 28  1  0  0  0  0
 29 30  2  0  0  0  0
 29 31  1  0  0  0  0
 31 32  1  0  0  0  0
 31 33  1  0  0  0  0
 33 34  1  0  0  0  0
 33 35  1  0  0  0  0
 33 36  1  0  0  0  0
M  END
$$$$

  -OEChem-01062216103D

 36 37  0     1  0  0  0  0  0999 V2000
   -3.4277   -2.6453    0.5098 H   0  0  0  0  0  0  0  0  0  0  0  0
   -3.4857   -1.8637   -0.2529 C   0  0  0  0  0  0  0  0  0  0  0  0
   -4.2655   -1.1530    0.0316 H   0  0  0  0  0  0  0  0  0  0  0  0
   -3.7495   -2.3226   -1.2087 H   0  0  0  0  0  0  0  0  0  0  0  0
   -2.1517   -1.1516   -0.3713 C   0  0  0  0  0  0  0  0  0  0  0  0
   -1.1936   -1.5308    0.2858 O   0  0  0  0  0  0  0  0  0  0  0  0
   -2.0156   -0.0794   -1.2291 N   0  0  0  0  0  0  0  0  0  0  0  0
   -2.8735    0.2927   -1.6213 H   0  0  0  0  0  0  0  0  0  0  0  0
   -0.8489    0.8158   -1.1700 C   0  0  1  0  0  0  0  0  0  0  0  0
    0.0578    0.2249   -1.3358 H   0  0  0  0  0  0  0  0  0  0  0  0
   -0.9369    1.8796   -2.2765 C   0  0  0  0  0  0  0  0  0  0  0  0
   -1.8944    2.4056   -2.2017 H   0  0  0  0  0  0  0  0  0  0  0  0
   -0.1451    2.6242   -2.1447 H   0  0  0  0  0  0  0  0  0  0  0  0
   -0.8021    1.2568   -3.6418 C   0  0  0  0  0  0  0  0  0  0  0  0
   -1.8261    0.9040   -4.4878 C   0  0  0  0  0  0  0  0  0  0  0  0
   -2.8861    1.0453   -4.2913 H   0  0  0  0  0  0  0  0  0  0  0  0
   -1.2565    0.3432   -5.6292 N   0  0  0  0  0  0  0  0  0  0  0  0
   -1.7708   -0.0054   -6.4356 H   0  0  0  0  0  0  0  0  0  0  0  0
    0.1250    0.3284   -5.5208 C   0  0  0  0  0  0  0  0  0  0  0  0
    1.1204   -0.1271   -6.3855 C   0  0  0  0  0  0  0  0  0  0  0  0
    0.8560   -0.5650   -7.3416 H   0  0  0  0  0  0  0  0  0  0  0  0
    2.4641   -0.0115   -6.0016 C   0  0  0  0  0  0  0  0  0  0  0  0
    3.2496   -0.3617   -6.6646 H   0  0  0  0  0  0  0  0  0  0  0  0
    2.7958    0.5564   -4.7619 C   0  0  0  0  0  0  0  0  0  0  0  0
    3.8374    0.6442   -4.4678 H   0  0  0  0  0  0  0  0  0  0  0  0
    1.7868    1.0117   -3.9012 C   0  0  0  0  0  0  0  0  0  0  0  0
    2.0400    1.4533   -2.9430 H   0  0  0  0  0  0  0  0  0  0  0  0
    0.4491    0.8919   -4.2922 C   0  0  0  0  0  0  0  0  0  0  0  0
   -0.7207    1.5095    0.2028 C   0  0  0  0  0  0  0  0  0  0  0  0
   -1.5935    2.2838    0.5807 O   0  0  0  0  0  0  0  0  0  0  0  0
    0.4106    1.3216    0.9740 N   0  0  0  0  0  0  0  0  0  0  0  0
    0.9783    0.5131    0.7319 H   0  0  0  0  0  0  0  0  0  0  0  0
    0.5413    1.8736    2.3161 C   0  0  0  0  0  0  0  0  0  0  0  0
   -0.2459    1.4829    2.9694 H   0  0  0  0  0  0  0  0  0  0  0  0
    1.5124    1.6036    2.7421 H   0  0  0  0  0  0  0  0  0  0  0  0
    0.4687    2.9659    2.2902 H   0  0  0  0  0  0  0  0  0  0  0  0
  1  2  1  0  0  0  0
  2  3  1  0  0  0  0
  2  4  1  0  0  0  0
  2  5  1  0  0  0  0
  5  6  2  0  0  0  0
  5  7  1  0  0  0  0
  7  8  1  0  0  0  0
  7  9  1  0  0  0  0
  9 10  1  0  0  0  0
  9 11  1  0  0  0  0
  9 29  1  0  0  0  0
 11 12  1  0  0  0  0
 11 13  1  0  0  0  0
 11 14  1  0  0  0  0
 14 15  2  0  0  0  0
 14 28  1  0  0  0  0
 15 16  1  0  0  0  0
 15 17  1  0  0  0  0
 17 18  1  0  0  0  0
 17 19  1  0  0  0  0
 19 20  1  0  0  0  0
 19 28  2  0  0  0  0
 20 21  1  0  0  0  0
 20 22  2  0  0  0  0
 22 23  1  0  0  0  0
 22 24  1  0  0  0  0
 24 25  1  0  0  0  0
 24 26  2  0  0  0  0
 26 27  1  0  0  0  0
 26 28  1  0  0  0  0
 29 30  2  0  0  0  0
 29 31  1  0  0  0  0
 31 32  1  0  0  0  0
 31 33  1  0  0  0  0
 33 34  1  0  0  0  0
 33 35  1  0  0  0  0
 33 36  1  0  0  0  0
M  END
$$$$

  -OEChem-01062216103D

 36 37  0     1  0  0  0  0  0999 V2000
   -3.4332   -2.6596    0.5000 H   0  0  0  0  0  0  0  0  0  0  0  0
   -3.5031   -1.8446   -0.2257 C   0  0  0  0  0  0  0  0  0  0  0  0
   -4.2471   -1.1251    0.1247 H   0  0  0  0  0  0  0  0  0  0  0  0
   -3.8242   -2.2544   -1.1862 H   0  0  0  0  0  0  0  0  0  0  0  0
   -2.1561   -1.1640   -0.3773 C   0  0  0  0  0  0  0  0  0  0  0  0
   -1.1912   -1.5637    0.2566 O   0  0  0  0  0  0  0  0  0  0  0  0
   -2.0188   -0.0976   -1.2420 N   0  0  0  0  0  0  0  0  0  0  0  0
   -2.8853    0.2976   -1.5900 H   0  0  0  0  0  0  0  0  0  0  0  0
   -0.8514    0.7972   -1.1746 C   0  0  1  0  0  0  0  0  0  0  0  0
    0.0560    0.2054   -1.3333 H   0  0  0  0  0  0  0  0  0  0  0  0
   -0.9382    1.8623   -2.2795 C   0  0  0  0  0  0  0  0  0  0  0  0
   -1.8972    2.3856   -2.2051 H   0  0  0  0  0  0  0  0  0  0  0  0
   -0.1488    2.6088   -2.1449 H   0  0  0  0  0  0  0  0  0  0  0  0
   -0.7987    1.2432   -3.6459 C   0  0  0  0  0  0  0  0  0  0  0  0
   -1.8204    0.8907   -4.4948 C   0  0  0  0  0  0  0  0  0  0  0  0
   -2.8815    1.0252   -4.2989 H   0  0  0  0  0  0  0  0  0  0  0  0
   -1.2472    0.3364   -5.6373 N   0  0  0  0  0  0  0  0  0  0  0  0
   -1.7594   -0.0173   -6.4426 H   0  0  0  0  0  0  0  0  0  0  0  0
    0.1341    0.3287   -5.5289 C   0  0  0  0  0  0  0  0  0  0  0  0
    1.1314   -0.1171   -6.3964 C   0  0  0  0  0  0  0  0  0  0  0  0
    0.8690   -0.5524   -7.3543 H   0  0  0  0  0  0  0  0  0  0  0  0
    2.4749    0.0056   -6.0139 C   0  0  0  0  0  0  0  0  0  0  0  0
    3.2617   -0.3375   -6.6796 H   0  0  0  0  0  0  0  0  0  0  0  0
    2.8041    0.5722   -4.7728 C   0  0  0  0  0  0  0  0  0  0  0  0
    3.8457    0.6666   -4.4809 H   0  0  0  0  0  0  0  0  0  0  0  0
    1.7929    1.0170   -3.9091 C   0  0  0  0  0  0  0  0  0  0  0  0
    2.0445    1.4571   -2.9502 H   0  0  0  0  0  0  0  0  0  0  0  0
    0.4553    0.8893   -4.2981 C   0  0  0  0  0  0  0  0  0  0  0  0
   -0.7307    1.4996    0.1946 C   0  0  0  0  0  0  0  0  0  0  0  0
   -1.7010    2.0824    0.6675 O   0  0  0  0  0  0  0  0  0  0  0  0
    0.4919    1.5758    0.8360 N   0  0  0  0  0  0  0  0  0  0  0  0
    1.2127    0.9409    0.5045 H   0  0  0  0  0  0  0  0  0  0  0  0
    0.6469    2.1639    2.1603 C   0  0  0  0  0  0  0  0  0  0  0  0
    0.0612    1.6046    2.8974 H   0  0  0  0  0  0  0  0  0  0  0  0
    1.6983    2.1419    2.4622 H   0  0  0  0  0  0  0  0  0  0  0  0
    0.3117    3.2064    2.1607 H   0  0  0  0  0  0  0  0  0  0  0  0
  1  2  1  0  0  0  0
  2  3  1  0  0  0  0
  2  4  1  0  0  0  0
  2  5  1  0  0  0  0
  5  6  2  0  0  0  0
  5  7  1  0  0  0  0
  7  8  1  0  0  0  0
  7  9  1  0  0  0  0
  9 10  1  0  0  0  0
  9 11  1  0  0  0  0
  9 29  1  0  0  0  0
 11 12  1  0  0  0  0
 11 13  1  0  0  0  0
 11 14  1  0  0  0  0
 14 15  2  0  0  0  0
 14 28  1  0  0  0  0
 15 16  1  0  0  0  0
 15 17  1  0  0  0  0
 17 18  1  0  0  0  0
 17 19  1  0  0  0  0
 19 20  1  0  0  0  0
 19 28  2  0  0  0  0
 20 21  1  0  0  0  0
 20 22  2  0  0  0  0
 22 23  1  0  0  0  0
 22 24  1  0  0  0  0
 24 25  1  0  0  0  0
 24 26  2  0  0  0  0
 26 27  1  0  0  0  0
 26 28  1  0  0  0  0
 29 30  2  0  0  0  0
 29 31  1  0  0  0  0
 31 32  1  0  0  0  0
 31 33  1  0  0  0  0
 33 34  1  0  0  0  0
 33 35  1  0  0  0  0
 33 36  1  0  0  0  0
M  END
$$$$

  -OEChem-01062216103D

 36 37  0     1  0  0  0  0  0999 V2000
   -3.4432   -2.6597    0.5112 H   0  0  0  0  0  0  0  0  0  0  0  0
   -3.5175   -1.8370   -0.2054 C   0  0  0  0  0  0  0  0  0  0  0  0
   -4.2376   -1.1064    0.1716 H   0  0  0  0  0  0  0  0  0  0  0  0
   -3.8719   -2.2323   -1.1602 H   0  0  0  0  0  0  0  0  0  0  0  0
   -2.1628   -1.1796   -0.3872 C   0  0  0  0  0  0  0  0  0  0  0  0
   -1.1901   -1.6015    0.2198 O   0  0  0  0  0  0  0  0  0  0  0  0
   -2.0265   -0.1144   -1.2541 N   0  0  0  0  0  0  0  0  0  0  0  0
   -2.8974    0.2945   -1.5738 H   0  0  0  0  0  0  0  0  0  0  0  0
   -0.8588    0.7804   -1.1756 C   0  0  1  0  0  0  0  0  0  0  0  0
    0.0496    0.1881   -1.3283 H   0  0  0  0  0  0  0  0  0  0  0  0
   -0.9435    1.8473   -2.2787 C   0  0  0  0  0  0  0  0  0  0  0  0
   -1.9038    2.3684   -2.2068 H   0  0  0  0  0  0  0  0  0  0  0  0
   -0.1560    2.5955   -2.1417 H   0  0  0  0  0  0  0  0  0  0  0  0
   -0.7972    1.2312   -3.6454 C   0  0  0  0  0  0  0  0  0  0  0  0
   -1.8165    0.8787   -4.4970 C   0  0  0  0  0  0  0  0  0  0  0  0
   -2.8782    1.0061   -4.3004 H   0  0  0  0  0  0  0  0  0  0  0  0
   -1.2399    0.3350   -5.6428 N   0  0  0  0  0  0  0  0  0  0  0  0
   -1.7500   -0.0176   -6.4501 H   0  0  0  0  0  0  0  0  0  0  0  0
    0.1413    0.3340   -5.5332 C   0  0  0  0  0  0  0  0  0  0  0  0
    1.1406   -0.1011   -6.4035 C   0  0  0  0  0  0  0  0  0  0  0  0
    0.8798   -0.5314   -7.3641 H   0  0  0  0  0  0  0  0  0  0  0  0
    2.4830    0.0248   -6.0194 C   0  0  0  0  0  0  0  0  0  0  0  0
    3.2713   -0.3112   -6.6865 H   0  0  0  0  0  0  0  0  0  0  0  0
    2.8095    0.5840   -4.7741 C   0  0  0  0  0  0  0  0  0  0  0  0
    3.8506    0.6803   -4.4807 H   0  0  0  0  0  0  0  0  0  0  0  0
    1.7960    1.0184   -3.9075 C   0  0  0  0  0  0  0  0  0  0  0  0
    2.0447    1.4523   -2.9453 H   0  0  0  0  0  0  0  0  0  0  0  0
    0.4592    0.8875   -4.2983 C   0  0  0  0  0  0  0  0  0  0  0  0
   -0.7424    1.4864    0.1936 C   0  0  0  0  0  0  0  0  0  0  0  0
   -1.7529    1.8777    0.7692 O   0  0  0  0  0  0  0  0  0  0  0  0
    0.4995    1.8346    0.6933 N   0  0  0  0  0  0  0  0  0  0  0  0
    1.3056    1.3982    0.2562 H   0  0  0  0  0  0  0  0  0  0  0  0
    0.6765    2.4790    1.9886 C   0  0  0  0  0  0  0  0  0  0  0  0
    0.2920    1.8393    2.7900 H   0  0  0  0  0  0  0  0  0  0  0  0
    1.7382    2.6674    2.1741 H   0  0  0  0  0  0  0  0  0  0  0  0
    0.1473    3.4372    2.0174 H   0  0  0  0  0  0  0  0  0  0  0  0
  1  2  1  0  0  0  0
  2  3  1  0  0  0  0
  2  4  1  0  0  0  0
  2  5  1  0  0  0  0
  5  6  2  0  0  0  0
  5  7  1  0  0  0  0
  7  8  1  0  0  0  0
  7  9  1  0  0  0  0
  9 10  1  0  0  0  0
  9 11  1  0  0  0  0
  9 29  1  0  0  0  0
 11 12  1  0  0  0  0
 11 13  1  0  0  0  0
 11 14  1  0  0  0  0
 14 15  2  0  0  0  0
 14 28  1  0  0  0  0
 15 16  1  0  0  0  0
 15 17  1  0  0  0  0
 17 18  1  0  0  0  0
 17 19  1  0  0  0  0
 19 20  1  0  0  0  0
 19 28  2  0  0  0  0
 20 21  1  0  0  0  0
 20 22  2  0  0  0  0
 22 23  1  0  0  0  0
 22 24  1  0  0  0  0
 24 25  1  0  0  0  0
 24 26  2  0  0  0  0
 26 27  1  0  0  0  0
 26 28  1  0  0  0  0
 29 30  2  0  0  0  0
 29 31  1  0  0  0  0
 31 32  1  0  0  0  0
 31 33  1  0  0  0  0
 33 34  1  0  0  0  0
 33 35  1  0  0  0  0
 33 36  1  0  0  0  0
M  END
$$$$

  -OEChem-01062216103D

 36 37  0     1  0  0  0  0  0999 V2000
   -3.4493   -2.6525    0.5220 H   0  0  0  0  0  0  0  0  0  0  0  0
   -3.5255   -1.8275   -0.1918 C   0  0  0  0  0  0  0  0  0  0  0  0
   -4.2176   -1.0816    0.2065 H   0  0  0  0  0  0  0  0  0  0  0  0
   -3.9157   -2.2128   -1.1367 H   0  0  0  0  0  0  0  0  0  0  0  0
   -2.1621   -1.2000   -0.4099 C   0  0  0  0  0  0  0  0  0  0  0  0
   -1.1807   -1.6542    0.1587 O   0  0  0  0  0  0  0  0  0  0  0  0
   -2.0277   -0.1286   -1.2703 N   0  0  0  0  0  0  0  0  0  0  0  0
   -2.9023    0.2947   -1.5588 H   0  0  0  0  0  0  0  0  0  0  0  0
   -0.8589    0.7646   -1.1763 C   0  0  1  0  0  0  0  0  0  0  0  0
    0.0511    0.1748   -1.3302 H   0  0  0  0  0  0  0  0  0  0  0  0
   -0.9493    1.8368   -2.2754 C   0  0  0  0  0  0  0  0  0  0  0  0
   -1.9127    2.3514   -2.2005 H   0  0  0  0  0  0  0  0  0  0  0  0
   -0.1674    2.5904   -2.1385 H   0  0  0  0  0  0  0  0  0  0  0  0
   -0.7998    1.2279   -3.6450 C   0  0  0  0  0  0  0  0  0  0  0  0
   -1.8173    0.8742   -4.4984 C   0  0  0  0  0  0  0  0  0  0  0  0
   -2.8797    0.9957   -4.3012 H   0  0  0  0  0  0  0  0  0  0  0  0
   -1.2379    0.3354   -5.6450 N   0  0  0  0  0  0  0  0  0  0  0  0
   -1.7467   -0.0204   -6.4517 H   0  0  0  0  0  0  0  0  0  0  0  0
    0.1433    0.3382   -5.5345 C   0  0  0  0  0  0  0  0  0  0  0  0
    1.1456   -0.0939   -6.4032 C   0  0  0  0  0  0  0  0  0  0  0  0
    0.8883   -0.5260   -7.3640 H   0  0  0  0  0  0  0  0  0  0  0  0
    2.4872    0.0364   -6.0174 C   0  0  0  0  0  0  0  0  0  0  0  0
    3.2776   -0.2975   -6.6831 H   0  0  0  0  0  0  0  0  0  0  0  0
    2.8102    0.5964   -4.7719 C   0  0  0  0  0  0  0  0  0  0  0  0
    3.8504    0.6958   -4.4767 H   0  0  0  0  0  0  0  0  0  0  0  0
    1.7941    1.0262   -3.9063 C   0  0  0  0  0  0  0  0  0  0  0  0
    2.0409    1.4586   -2.9430 H   0  0  0  0  0  0  0  0  0  0  0  0
    0.4581    0.8911   -4.2985 C   0  0  0  0  0  0  0  0  0  0  0  0
   -0.7412    1.4639    0.1984 C   0  0  0  0  0  0  0  0  0  0  0  0
   -1.7437    1.6681    0.8763 O   0  0  0  0  0  0  0  0  0  0  0  0
    0.4441    2.0779    0.5630 N   0  0  0  0  0  0  0  0  0  0  0  0
    1.2711    1.8422    0.0230 H   0  0  0  0  0  0  0  0  0  0  0  0
    0.6118    2.7935    1.8216 C   0  0  0  0  0  0  0  0  0  0  0  0
    0.4345    2.1234    2.6694 H   0  0  0  0  0  0  0  0  0  0  0  0
    1.6289    3.1892    1.8987 H   0  0  0  0  0  0  0  0  0  0  0  0
   -0.0894    3.6324    1.8819 H   0  0  0  0  0  0  0  0  0  0  0  0
  1  2  1  0  0  0  0
  2  3  1  0  0  0  0
  2  4  1  0  0  0  0
  2  5  1  0  0  0  0
  5  6  2  0  0  0  0
  5  7  1  0  0  0  0
  7  8  1  0  0  0  0
  7  9  1  0  0  0  0
  9 10  1  0  0  0  0
  9 11  1  0  0  0  0
  9 29  1  0  0  0  0
 11 12  1  0  0  0  0
 11 13  1  0  0  0  0
 11 14  1  0  0  0  0
 14 15  2  0  0  0  0
 14 28  1  0  0  0  0
 15 16  1  0  0  0  0
 15 17  1  0  0  0  0
 17 18  1  0  0  0  0
 17 19  1  0  0  0  0
 19 20  1  0  0  0  0
 19 28  2  0  0  0  0
 20 21  1  0  0  0  0
 20 22  2  0  0  0  0
 22 23  1  0  0  0  0
 22 24  1  0  0  0  0
 24 25  1  0  0  0  0
 24 26  2  0  0  0  0
 26 27  1  0  0  0  0
 26 28  1  0  0  0  0
 29 30  2  0  0  0  0
 29 31  1  0  0  0  0
 31 32  1  0  0  0  0
 31 33  1  0  0  0  0
 33 34  1  0  0  0  0
 33 35  1  0  0  0  0
 33 36  1  0  0  0  0
M  END
$$$$

  -OEChem-01062216103D

 36 37  0     1  0  0  0  0  0999 V2000
   -3.4793   -2.6831    0.4770 H   0  0  0  0  0  0  0  0  0  0  0  0
   -3.5607   -1.8128   -0.1803 C   0  0  0  0  0  0  0  0  0  0  0  0
   -4.1784   -1.0584    0.3132 H   0  0  0  0  0  0  0  0  0  0  0  0
   -4.0400   -2.1177   -1.1133 H   0  0  0  0  0  0  0  0  0  0  0  0
   -2.1825   -1.2465   -0.4634 C   0  0  0  0  0  0  0  0  0  0  0  0
   -1.1877   -1.8165   -0.0418 O   0  0  0  0  0  0  0  0  0  0  0  0
   -2.0412   -0.1451   -1.2854 N   0  0  0  0  0  0  0  0  0  0  0  0
   -2.9167    0.2897   -1.5503 H   0  0  0  0  0  0  0  0  0  0  0  0
   -0.8775    0.7571   -1.1656 C   0  0  1  0  0  0  0  0  0  0  0  0
   -0.0056    0.2471   -1.5879 H   0  0  0  0  0  0  0  0  0  0  0  0
   -1.1666    2.0267   -1.9910 C   0  0  0  0  0  0  0  0  0  0  0  0
   -2.1167    2.4613   -1.6631 H   0  0  0  0  0  0  0  0  0  0  0  0
   -0.3924    2.7822   -1.8265 H   0  0  0  0  0  0  0  0  0  0  0  0
   -1.2233    1.7222   -3.4658 C   0  0  0  0  0  0  0  0  0  0  0  0
   -2.3526    1.4954   -4.2160 C   0  0  0  0  0  0  0  0  0  0  0  0
   -3.3751    1.5193   -3.8473 H   0  0  0  0  0  0  0  0  0  0  0  0
   -1.9462    1.2367   -5.5232 N   0  0  0  0  0  0  0  0  0  0  0  0
   -2.5658    1.0301   -6.3042 H   0  0  0  0  0  0  0  0  0  0  0  0
   -0.5650    1.2903   -5.6189 C   0  0  0  0  0  0  0  0  0  0  0  0
    0.2998    1.1016   -6.6972 C   0  0  0  0  0  0  0  0  0  0  0  0
   -0.0937    0.8668   -7.6802 H   0  0  0  0  0  0  0  0  0  0  0  0
    1.6821    1.2189   -6.4928 C   0  0  0  0  0  0  0  0  0  0  0  0
    2.3674    1.0742   -7.3228 H   0  0  0  0  0  0  0  0  0  0  0  0
    2.1816    1.5224   -5.2171 C   0  0  0  0  0  0  0  0  0  0  0  0
    3.2527    1.6120   -5.0629 H   0  0  0  0  0  0  0  0  0  0  0  0
    1.3027    1.7094   -4.1408 C   0  0  0  0  0  0  0  0  0  0  0  0
    1.6871    1.9424   -3.1541 H   0  0  0  0  0  0  0  0  0  0  0  0
   -0.0749    1.5915   -4.3534 C   0  0  0  0  0  0  0  0  0  0  0  0
   -0.5009    1.1671    0.2856 C   0  0  0  0  0  0  0  0  0  0  0  0
   -1.3133    1.0577    1.1984 O   0  0  0  0  0  0  0  0  0  0  0  0
    0.5801    2.0060    0.5043 N   0  0  0  0  0  0  0  0  0  0  0  0
    1.2484    2.1100   -0.2526 H   0  0  0  0  0  0  0  0  0  0  0  0
    0.9186    2.5488    1.8150 C   0  0  0  0  0  0  0  0  0  0  0  0
    1.0822    1.7391    2.5342 H   0  0  0  0  0  0  0  0  0  0  0  0
    1.8332    3.1461    1.7526 H   0  0  0  0  0  0  0  0  0  0  0  0
    0.1120    3.1908    2.1842 H   0  0  0  0  0  0  0  0  0  0  0  0
  1  2  1  0  0  0  0
  2  3  1  0  0  0  0
  2  4  1  0  0  0  0
  2  5  1  0  0  0  0
  5  6  2  0  0  0  0
  5  7  1  0  0  0  0
  7  8  1  0  0  0  0
  7  9  1  0  0  0  0
  9 10  1  0  0  0  0
  9 11  1  0  0  0  0
  9 29  1  0  0  0  0
 11 12  1  0  0  0  0
 11 13  1  0  0  0  0
 11 14  1  0  0  0  0
 14 15  2  0  0  0  0
 14 28  1  0  0  0  0
 15 16  1  0  0  0  0
 15 17  1  0  0  0  0
 17 18  1  0  0  0  0
 17 19  1  0  0  0  0
 19 20  1  0  0  0  0
 19 28  2  0  0  0  0
 20 21  1  0  0  0  0
 20 22  2  0  0  0  0
 22 23  1  0  0  0  0
 22 24  1  0  0  0  0
 24 25  1  0  0  0  0
 24 26  2  0  0  0  0
 26 27  1  0  0  0  0
 26 28  1  0  0  0  0
 29 30  2  0  0  0  0
 29 31  1  0  0  0  0
 31 32  1  0  0  0  0
 31 33  1  0  0  0  0
 33 34  1  0  0  0  0
 33 35  1  0  0  0  0
 33 36  1  0  0  0  0
M  END
$$$$

  -OEChem-01062216103D

 36 37  0     1  0  0  0  0  0999 V2000
   -3.5010   -2.6771    0.4505 H   0  0  0  0  0  0  0  0  0  0  0  0
   -3.5723   -1.8006   -0.1999 C   0  0  0  0  0  0  0  0  0  0  0  0
   -4.1824   -1.0437    0.2986 H   0  0  0  0  0  0  0  0  0  0  0  0
   -4.0536   -2.0926   -1.1362 H   0  0  0  0  0  0  0  0  0  0  0  0
   -2.1882   -1.2456   -0.4774 C   0  0  0  0  0  0  0  0  0  0  0  0
   -1.1980   -1.8585   -0.1099 O   0  0  0  0  0  0  0  0  0  0  0  0
   -2.0385   -0.1299   -1.2787 N   0  0  0  0  0  0  0  0  0  0  0  0
   -2.9132    0.3107   -1.5351 H   0  0  0  0  0  0  0  0  0  0  0  0
   -0.8745    0.7734   -1.1528 C   0  0  1  0  0  0  0  0  0  0  0  0
   -0.0035    0.2647   -1.5790 H   0  0  0  0  0  0  0  0  0  0  0  0
   -1.1777    2.0314   -1.9965 C   0  0  0  0  0  0  0  0  0  0  0  0
   -2.1320    2.4602   -1.6741 H   0  0  0  0  0  0  0  0  0  0  0  0
   -0.4137    2.7998   -1.8509 H   0  0  0  0  0  0  0  0  0  0  0  0
   -1.2280    1.7107   -3.4684 C   0  0  0  0  0  0  0  0  0  0  0  0
   -2.3553    1.4630   -4.2157 C   0  0  0  0  0  0  0  0  0  0  0  0
   -3.3779    1.4758   -3.8471 H   0  0  0  0  0  0  0  0  0  0  0  0
   -1.9471    1.2003   -5.5211 N   0  0  0  0  0  0  0  0  0  0  0  0
   -2.5639    0.9751   -6.2992 H   0  0  0  0  0  0  0  0  0  0  0  0
   -0.5670    1.2714   -5.6184 C   0  0  0  0  0  0  0  0  0  0  0  0
    0.2966    1.0874   -6.6983 C   0  0  0  0  0  0  0  0  0  0  0  0
   -0.0978    0.8432   -7.6783 H   0  0  0  0  0  0  0  0  0  0  0  0
    1.6777    1.2210   -6.4993 C   0  0  0  0  0  0  0  0  0  0  0  0
    2.3617    1.0794   -7.3309 H   0  0  0  0  0  0  0  0  0  0  0  0
    2.1774    1.5345   -5.2263 C   0  0  0  0  0  0  0  0  0  0  0  0
    3.2482    1.6334   -5.0754 H   0  0  0  0  0  0  0  0  0  0  0  0
    1.2994    1.7183   -4.1483 C   0  0  0  0  0  0  0  0  0  0  0  0
    1.6856    1.9581   -3.1640 H   0  0  0  0  0  0  0  0  0  0  0  0
   -0.0780    1.5863   -4.3558 C   0  0  0  0  0  0  0  0  0  0  0  0
   -0.4749    1.1810    0.2993 C   0  0  0  0  0  0  0  0  0  0  0  0
   -1.1513    0.8506    1.2668 O   0  0  0  0  0  0  0  0  0  0  0  0
    0.3910    2.2445    0.5045 N   0  0  0  0  0  0  0  0  0  0  0  0
    0.9340    2.5614   -0.2922 H   0  0  0  0  0  0  0  0  0  0  0  0
    0.6921    2.8007    1.8193 C   0  0  0  0  0  0  0  0  0  0  0  0
    1.0941    2.0259    2.4806 H   0  0  0  0  0  0  0  0  0  0  0  0
    1.4354    3.5986    1.7303 H   0  0  0  0  0  0  0  0  0  0  0  0
   -0.2110    3.2200    2.2751 H   0  0  0  0  0  0  0  0  0  0  0  0
  1  2  1  0  0  0  0
  2  3  1  0  0  0  0
  2  4  1  0  0  0  0
  2  5  1  0  0  0  0
  5  6  2  0  0  0  0
  5  7  1  0  0  0  0
  7  8  1  0  0  0  0
  7  9  1  0  0  0  0
  9 10  1  0  0  0  0
  9 11  1  0  0  0  0
  9 29  1  0  0  0  0
 11 12  1  0  0  0  0
 11 13  1  0  0  0  0
 11 14  1  0  0  0  0
 14 15  2  0  0  0  0
 14 28  1  0  0  0  0
 15 16  1  0  0  0  0
 15 17  1  0  0  0  0
 17 18  1  0  0  0  0
 17 19  1  0  0  0  0
 19 20  1  0  0  0  0
 19 28  2  0  0  0  0
 20 21  1  0  0  0  0
 20 22  2  0  0  0  0
 22 23  1  0  0  0  0
 22 24  1  0  0  0  0
 24 25  1  0  0  0  0
 24 26  2  0  0  0  0
 26 27  1  0  0  0  0
 26 28  1  0  0  0  0
 29 30  2  0  0  0  0
 29 31  1  0  0  0  0
 31 32  1  0  0  0  0
 31 33  1  0  0  0  0
 33 34  1  0  0  0  0
 33 35  1  0  0  0  0
 33 36  1  0  0  0  0
M  END
$$$$

  -OEChem-01062216103D

 36 37  0     1  0  0  0  0  0999 V2000
   -3.4695   -2.6412    0.5027 H   0  0  0  0  0  0  0  0  0  0  0  0
   -3.5605   -1.7741   -0.1574 C   0  0  0  0  0  0  0  0  0  0  0  0
   -4.1361   -1.0019    0.3583 H   0  0  0  0  0  0  0  0  0  0  0  0
   -4.0890   -2.0740   -1.0651 H   0  0  0  0  0  0  0  0  0  0  0  0
   -2.1831   -1.2444   -0.5080 C   0  0  0  0  0  0  0  0  0  0  0  0
   -1.1907   -1.9019   -0.2383 O   0  0  0  0  0  0  0  0  0  0  0  0
   -2.0534   -0.1130   -1.2905 N   0  0  0  0  0  0  0  0  0  0  0  0
   -2.9381    0.3268   -1.5117 H   0  0  0  0  0  0  0  0  0  0  0  0
   -0.9000    0.8061   -1.1673 C   0  0  1  0  0  0  0  0  0  0  0  0
   -0.0288    0.3028   -1.6003 H   0  0  0  0  0  0  0  0  0  0  0  0
   -1.2157    2.0506   -2.0289 C   0  0  0  0  0  0  0  0  0  0  0  0
   -2.1761    2.4733   -1.7168 H   0  0  0  0  0  0  0  0  0  0  0  0
   -0.4590    2.8281   -1.8983 H   0  0  0  0  0  0  0  0  0  0  0  0
   -1.2537    1.7130   -3.4966 C   0  0  0  0  0  0  0  0  0  0  0  0
   -2.3690    1.4409   -4.2531 C   0  0  0  0  0  0  0  0  0  0  0  0
   -3.3957    1.4417   -3.8955 H   0  0  0  0  0  0  0  0  0  0  0  0
   -1.9421    1.1736   -5.5517 N   0  0  0  0  0  0  0  0  0  0  0  0
   -2.5468    0.9321   -6.3342 H   0  0  0  0  0  0  0  0  0  0  0  0
   -0.5616    1.2575   -5.6330 C   0  0  0  0  0  0  0  0  0  0  0  0
    0.3189    1.0668   -6.6979 C   0  0  0  0  0  0  0  0  0  0  0  0
   -0.0598    0.8068   -7.6801 H   0  0  0  0  0  0  0  0  0  0  0  0
    1.6966    1.2111   -6.4797 C   0  0  0  0  0  0  0  0  0  0  0  0
    2.3940    1.0622   -7.2988 H   0  0  0  0  0  0  0  0  0  0  0  0
    2.1760    1.5427   -5.2033 C   0  0  0  0  0  0  0  0  0  0  0  0
    3.2438    1.6481   -5.0366 H   0  0  0  0  0  0  0  0  0  0  0  0
    1.2813    1.7340   -4.1409 C   0  0  0  0  0  0  0  0  0  0  0  0
    1.6518    1.9851   -3.1531 H   0  0  0  0  0  0  0  0  0  0  0  0
   -0.0920    1.5906   -4.3679 C   0  0  0  0  0  0  0  0  0  0  0  0
   -0.4724    1.2103    0.2828 C   0  0  0  0  0  0  0  0  0  0  0  0
   -0.9014    0.6382    1.2764 O   0  0  0  0  0  0  0  0  0  0  0  0
    0.1162    2.4437    0.5232 N   0  0  0  0  0  0  0  0  0  0  0  0
    0.4617    2.9591   -0.2797 H   0  0  0  0  0  0  0  0  0  0  0  0
    0.4220    2.9507    1.8572 C   0  0  0  0  0  0  0  0  0  0  0  0
    1.0768    2.2537    2.3910 H   0  0  0  0  0  0  0  0  0  0  0  0
    0.9303    3.9170    1.7861 H   0  0  0  0  0  0  0  0  0  0  0  0
   -0.4967    3.0864    2.4375 H   0  0  0  0  0  0  0  0  0  0  0  0
  1  2  1  0  0  0  0
  2  3  1  0  0  0  0
  2  4  1  0  0  0  0
  2  5  1  0  0  0  0
  5  6  2  0  0  0  0
  5  7  1  0  0  0  0
  7  8  1  0  0  0  0
  7  9  1  0  0  0  0
  9 10  1  0  0  0  0
  9 11  1  0  0  0  0
  9 29  1  0  0  0  0
 11 12  1  0  0  0  0
 11 13  1  0  0  0  0
 11 14  1  0  0  0  0
 14 15  2  0  0  0  0
 14 28  1  0  0  0  0
 15 16  1  0  0  0  0
 15 17  1  0  0  0  0
 17 18  1  0  0  0  0
 17 19  1  0  0  0  0
 19 20  1  0  0  0  0
 19 28  2  0  0  0  0
 20 21  1  0  0  0  0
 20 22  2  0  0  0  0
 22 23  1  0  0  0  0
 22 24  1  0  0  0  0
 24 25  1  0  0  0  0
 24 26  2  0  0  0  0
 26 27  1  0  0  0  0
 26 28  1  0  0  0  0
 29 30  2  0  0  0  0
 29 31  1  0  0  0  0
 31 32  1  0  0  0  0
 31 33  1  0  0  0  0
 33 34  1  0  0  0  0
 33 35  1  0  0  0  0
 33 36  1  0  0  0  0
M  END
$$$$

  -OEChem-01062216103D

 36 37  0     1  0  0  0  0  0999 V2000
   -3.4925   -2.6443    0.4671 H   0  0  0  0  0  0  0  0  0  0  0  0
   -3.5740   -1.7472   -0.1532 C   0  0  0  0  0  0  0  0  0  0  0  0
   -4.1212   -0.9845    0.4059 H   0  0  0  0  0  0  0  0  0  0  0  0
   -4.1264   -1.9951   -1.0625 H   0  0  0  0  0  0  0  0  0  0  0  0
   -2.1907   -1.2355   -0.5078 C   0  0  0  0  0  0  0  0  0  0  0  0
   -1.2126   -1.9250   -0.2749 O   0  0  0  0  0  0  0  0  0  0  0  0
   -2.0568   -0.1001   -1.2830 N   0  0  0  0  0  0  0  0  0  0  0  0
   -2.9422    0.3276   -1.5238 H   0  0  0  0  0  0  0  0  0  0  0  0
   -0.9150    0.8350   -1.1675 C   0  0  1  0  0  0  0  0  0  0  0  0
   -0.0376    0.3348   -1.5916 H   0  0  0  0  0  0  0  0  0  0  0  0
   -1.2353    2.0629   -2.0502 C   0  0  0  0  0  0  0  0  0  0  0  0
   -2.2002    2.4850   -1.7513 H   0  0  0  0  0  0  0  0  0  0  0  0
   -0.4791    2.8428   -1.9257 H   0  0  0  0  0  0  0  0  0  0  0  0
   -1.2595    1.7037   -3.5136 C   0  0  0  0  0  0  0  0  0  0  0  0
   -2.3680    1.4107   -4.2726 C   0  0  0  0  0  0  0  0  0  0  0  0
   -3.3965    1.4047   -3.9207 H   0  0  0  0  0  0  0  0  0  0  0  0
   -1.9324    1.1303   -5.5657 N   0  0  0  0  0  0  0  0  0  0  0  0
   -2.5301    0.8674   -6.3468 H   0  0  0  0  0  0  0  0  0  0  0  0
   -0.5528    1.2299   -5.6425 C   0  0  0  0  0  0  0  0  0  0  0  0
    0.3347    1.0365   -6.7013 C   0  0  0  0  0  0  0  0  0  0  0  0
   -0.0349    0.7579   -7.6819 H   0  0  0  0  0  0  0  0  0  0  0  0
    1.7090    1.2027   -6.4798 C   0  0  0  0  0  0  0  0  0  0  0  0
    2.4118    1.0515   -7.2939 H   0  0  0  0  0  0  0  0  0  0  0  0
    2.1779    1.5588   -5.2061 C   0  0  0  0  0  0  0  0  0  0  0  0
    3.2433    1.6818   -5.0367 H   0  0  0  0  0  0  0  0  0  0  0  0
    1.2765    1.7510   -4.1494 C   0  0  0  0  0  0  0  0  0  0  0  0
    1.6386    2.0201   -3.1630 H   0  0  0  0  0  0  0  0  0  0  0  0
   -0.0934    1.5853   -4.3796 C   0  0  0  0  0  0  0  0  0  0  0  0
   -0.4886    1.2489    0.2804 C   0  0  0  0  0  0  0  0  0  0  0  0
   -0.5576    0.4909    1.2361 O   0  0  0  0  0  0  0  0  0  0  0  0
   -0.2108    2.5729    0.5909 N   0  0  0  0  0  0  0  0  0  0  0  0
   -0.1547    3.2336   -0.1767 H   0  0  0  0  0  0  0  0  0  0  0  0
    0.1193    3.0378    1.9345 C   0  0  0  0  0  0  0  0  0  0  0  0
    1.0179    2.5331    2.3046 H   0  0  0  0  0  0  0  0  0  0  0  0
    0.3067    4.1158    1.9261 H   0  0  0  0  0  0  0  0  0  0  0  0
   -0.7070    2.8370    2.6245 H   0  0  0  0  0  0  0  0  0  0  0  0
  1  2  1  0  0  0  0
  2  3  1  0  0  0  0
  2  4  1  0  0  0  0
  2  5  1  0  0  0  0
  5  6  2  0  0  0  0
  5  7  1  0  0  0  0
  7  8  1  0  0  0  0
  7  9  1  0  0  0  0
  9 10  1  0  0  0  0
  9 11  1  0  0  0  0
  9 29  1  0  0  0  0
 11 12  1  0  0  0  0
 11 13  1  0  0  0  0
 11 14  1  0  0  0  0
 14 15  2  0  0  0  0
 14 28  1  0  0  0  0
 15 16  1  0  0  0  0
 15 17  1  0  0  0  0
 17 18  1  0  0  0  0
 17 19  1  0  0  0  0
 19 20  1  0  0  0  0
 19 28  2  0  0  0  0
 20 21  1  0  0  0  0
 20 22  2  0  0  0  0
 22 23  1  0  0  0  0
 22 24  1  0  0  0  0
 24 25  1  0  0  0  0
 24 26  2  0  0  0  0
 26 27  1  0  0  0  0
 26 28  1  0  0  0  0
 29 30  2  0  0  0  0
 29 31  1  0  0  0  0
 31 32  1  0  0  0  0
 31 33  1  0  0  0  0
 33 34  1  0  0  0  0
 33 35  1  0  0  0  0
 33 36  1  0  0  0  0
M  END
$$$$

  -OEChem-01062216103D

 36 37  0     1  0  0  0  0  0999 V2000
   -3.5280   -2.9158   -0.2385 H   0  0  0  0  0  0  0  0  0  0  0  0
   -3.4799   -2.0334   -0.8833 C   0  0  0  0  0  0  0  0  0  0  0  0
   -4.4507   -1.5327   -0.8668 H   0  0  0  0  0  0  0  0  0  0  0  0
   -3.2583   -2.3574   -1.9030 H   0  0  0  0  0  0  0  0  0  0  0  0
   -2.3993   -1.0872   -0.3934 C   0  0  0  0  0  0  0  0  0  0  0  0
   -1.8187   -1.3532    0.6381 O   0  0  0  0  0  0  0  0  0  0  0  0
   -2.1347    0.0467   -1.1381 N   0  0  0  0  0  0  0  0  0  0  0  0
   -2.6139    0.0654   -2.0319 H   0  0  0  0  0  0  0  0  0  0  0  0
   -0.9697    0.9547   -1.0404 C   0  0  1  0  0  0  0  0  0  0  0  0
   -0.1067    0.4332   -1.4685 H   0  0  0  0  0  0  0  0  0  0  0  0
   -1.2841    2.1758   -1.9309 C   0  0  0  0  0  0  0  0  0  0  0  0
   -2.2385    2.6181   -1.6267 H   0  0  0  0  0  0  0  0  0  0  0  0
   -0.5100    2.9423   -1.8219 H   0  0  0  0  0  0  0  0  0  0  0  0
   -1.3350    1.7849   -3.3853 C   0  0  0  0  0  0  0  0  0  0  0  0
   -2.4627    1.4948   -4.1177 C   0  0  0  0  0  0  0  0  0  0  0  0
   -3.4878    1.5535   -3.7578 H   0  0  0  0  0  0  0  0  0  0  0  0
   -2.0499    1.1262   -5.3959 N   0  0  0  0  0  0  0  0  0  0  0  0
   -2.6650    0.8758   -6.1684 H   0  0  0  0  0  0  0  0  0  0  0  0
   -0.6674    1.1661   -5.4875 C   0  0  0  0  0  0  0  0  0  0  0  0
    0.2038    0.8816   -6.5393 C   0  0  0  0  0  0  0  0  0  0  0  0
   -0.1835    0.5680   -7.5023 H   0  0  0  0  0  0  0  0  0  0  0  0
    1.5856    1.0028   -6.3340 C   0  0  0  0  0  0  0  0  0  0  0  0
    2.2757    0.7818   -7.1430 H   0  0  0  0  0  0  0  0  0  0  0  0
    2.0786    1.4059   -5.0834 C   0  0  0  0  0  0  0  0  0  0  0  0
    3.1495    1.4956   -4.9261 H   0  0  0  0  0  0  0  0  0  0  0  0
    1.1938    1.6915   -4.0339 C   0  0  0  0  0  0  0  0  0  0  0  0
    1.5732    2.0002   -3.0651 H   0  0  0  0  0  0  0  0  0  0  0  0
   -0.1831    1.5707   -4.2493 C   0  0  0  0  0  0  0  0  0  0  0  0
   -0.5064    1.3967    0.3806 C   0  0  0  0  0  0  0  0  0  0  0  0
    0.2098    0.6624    1.0453 O   0  0  0  0  0  0  0  0  0  0  0  0
   -0.4923    2.7354    0.7492 N   0  0  0  0  0  0  0  0  0  0  0  0
   -1.0362    3.3797    0.1856 H   0  0  0  0  0  0  0  0  0  0  0  0
    0.1240    3.2287    1.9766 C   0  0  0  0  0  0  0  0  0  0  0  0
    1.2014    3.0323    1.9707 H   0  0  0  0  0  0  0  0  0  0  0  0
   -0.0289    4.3081    2.0695 H   0  0  0  0  0  0  0  0  0  0  0  0
   -0.3184    2.7400    2.8512 H   0  0  0  0  0  0  0  0  0  0  0  0
  1  2  1  0  0  0  0
  2  3  1  0  0  0  0
  2  4  1  0  0  0  0
  2  5  1  0  0  0  0
  5  6  2  0  0  0  0
  5  7  1  0  0  0  0
  7  8  1  0  0  0  0
  7  9  1  0  0  0  0
  9 10  1  0  0  0  0
  9 11  1  0  0  0  0
  9 29  1  0  0  0  0
 11 12  1  0  0  0  0
 11 13  1  0  0  0  0
 11 14  1  0  0  0  0
 14 15  2  0  0  0  0
 14 28  1  0  0  0  0
 15 16  1  0  0  0  0
 15 17  1  0  0  0  0
 17 18  1  0  0  0  0
 17 19  1  0  0  0  0
 19 20  1  0  0  0  0
 19 28  2  0  0  0  0
 20 21  1  0  0  0  0
 20 22  2  0  0  0  0
 22 23  1  0  0  0  0
 22 24  1  0  0  0  0
 24 25  1  0  0  0  0
 24 26  2  0  0  0  0
 26 27  1  0  0  0  0
 26 28  1  0  0  0  0
 29 30  2  0  0  0  0
 29 31  1  0  0  0  0
 31 32  1  0  0  0  0
 31 33  1  0  0  0  0
 33 34  1  0  0  0  0
 33 35  1  0  0  0  0
 33 36  1  0  0  0  0
M  END
$$$$

  -OEChem-01062216103D

 36 37  0     1  0  0  0  0  0999 V2000
   -3.5218   -2.9086   -0.1438 H   0  0  0  0  0  0  0  0  0  0  0  0
   -3.4700   -2.0609   -0.8331 C   0  0  0  0  0  0  0  0  0  0  0  0
   -4.4452   -1.5692   -0.8596 H   0  0  0  0  0  0  0  0  0  0  0  0
   -3.2286   -2.4357   -1.8305 H   0  0  0  0  0  0  0  0  0  0  0  0
   -2.4064   -1.0805   -0.3746 C   0  0  0  0  0  0  0  0  0  0  0  0
   -1.8300   -1.2877    0.6741 O   0  0  0  0  0  0  0  0  0  0  0  0
   -2.1573    0.0377   -1.1473 N   0  0  0  0  0  0  0  0  0  0  0  0
   -2.6173    0.0234   -2.0516 H   0  0  0  0  0  0  0  0  0  0  0  0
   -0.9829    0.9317   -1.0567 C   0  0  1  0  0  0  0  0  0  0  0  0
   -0.1254    0.3979   -1.4807 H   0  0  0  0  0  0  0  0  0  0  0  0
   -1.2661    2.1638   -1.9389 C   0  0  0  0  0  0  0  0  0  0  0  0
   -2.2139    2.6212   -1.6379 H   0  0  0  0  0  0  0  0  0  0  0  0
   -0.4779    2.9131   -1.8096 H   0  0  0  0  0  0  0  0  0  0  0  0
   -1.3229    1.7880   -3.3966 C   0  0  0  0  0  0  0  0  0  0  0  0
   -2.4525    1.5306   -4.1376 C   0  0  0  0  0  0  0  0  0  0  0  0
   -3.4778    1.6026   -3.7812 H   0  0  0  0  0  0  0  0  0  0  0  0
   -2.0416    1.1791   -5.4212 N   0  0  0  0  0  0  0  0  0  0  0  0
   -2.6586    0.9600   -6.2015 H   0  0  0  0  0  0  0  0  0  0  0  0
   -0.6583    1.1971   -5.5077 C   0  0  0  0  0  0  0  0  0  0  0  0
    0.2118    0.9198   -6.5622 C   0  0  0  0  0  0  0  0  0  0  0  0
   -0.1776    0.6329   -7.5328 H   0  0  0  0  0  0  0  0  0  0  0  0
    1.5946    1.0145   -6.3496 C   0  0  0  0  0  0  0  0  0  0  0  0
    2.2844    0.7989   -7.1603 H   0  0  0  0  0  0  0  0  0  0  0  0
    2.0895    1.3855   -5.0898 C   0  0  0  0  0  0  0  0  0  0  0  0
    3.1609    1.4560   -4.9271 H   0  0  0  0  0  0  0  0  0  0  0  0
    1.2056    1.6653   -4.0380 C   0  0  0  0  0  0  0  0  0  0  0  0
    1.5859    1.9512   -3.0623 H   0  0  0  0  0  0  0  0  0  0  0  0
   -0.1720    1.5696   -4.2605 C   0  0  0  0  0  0  0  0  0  0  0  0
   -0.5309    1.3702    0.3647 C   0  0  0  0  0  0  0  0  0  0  0  0
    0.3636    0.7521    0.9261 O   0  0  0  0  0  0  0  0  0  0  0  0
   -0.7899    2.6485    0.8378 N   0  0  0  0  0  0  0  0  0  0  0  0
   -1.5137    3.1799    0.3663 H   0  0  0  0  0  0  0  0  0  0  0  0
   -0.2302    3.1728    2.0785 C   0  0  0  0  0  0  0  0  0  0  0  0
    0.8615    3.2294    2.0119 H   0  0  0  0  0  0  0  0  0  0  0  0
   -0.6166    4.1778    2.2731 H   0  0  0  0  0  0  0  0  0  0  0  0
   -0.4990    2.5285    2.9224 H   0  0  0  0  0  0  0  0  0  0  0  0
  1  2  1  0  0  0  0
  2  3  1  0  0  0  0
  2  4  1  0  0  0  0
  2  5  1  0  0  0  0
  5  6  2  0  0  0  0
  5  7  1  0  0  0  0
  7  8  1  0  0  0  0
  7  9  1  0  0  0  0
  9 10  1  0  0  0  0
  9 11  1  0  0  0  0
  9 29  1  0  0  0  0
 11 12  1  0  0  0  0
 11 13  1  0  0  0  0
 11 14  1  0  0  0  0
 14 15  2  0  0  0  0
 14 28  1  0  0  0  0
 15 16  1  0  0  0  0
 15 17  1  0  0  0  0
 17 18  1  0  0  0  0
 17 19  1  0  0  0  0
 19 20  1  0  0  0  0
 19 28  2  0  0  0  0
 20 21  1  0  0  0  0
 20 22  2  0  0  0  0
 22 23  1  0  0  0  0
 22 24  1  0  0  0  0
 24 25  1  0  0  0  0
 24 26  2  0  0  0  0
 26 27  1  0  0  0  0
 26 28  1  0  0  0  0
 29 30  2  0  0  0  0
 29 31  1  0  0  0  0
 31 32  1  0  0  0  0
 31 33  1  0  0  0  0
 33 34  1  0  0  0  0
 33 35  1  0  0  0  0
 33 36  1  0  0  0  0
M  END
$$$$

  -OEChem-01062216103D

 36 37  0     1  0  0  0  0  0999 V2000
   -3.5080   -2.8969   -0.0907 H   0  0  0  0  0  0  0  0  0  0  0  0
   -3.4537   -2.0688   -0.8034 C   0  0  0  0  0  0  0  0  0  0  0  0
   -4.4285   -1.5774   -0.8460 H   0  0  0  0  0  0  0  0  0  0  0  0
   -3.2102   -2.4710   -1.7897 H   0  0  0  0  0  0  0  0  0  0  0  0
   -2.3905   -1.0764   -0.3704 C   0  0  0  0  0  0  0  0  0  0  0  0
   -1.7972   -1.2615    0.6742 O   0  0  0  0  0  0  0  0  0  0  0  0
   -2.1520    0.0325   -1.1592 N   0  0  0  0  0  0  0  0  0  0  0  0
   -2.6073    0.0028   -2.0659 H   0  0  0  0  0  0  0  0  0  0  0  0
   -0.9745    0.9214   -1.0733 C   0  0  1  0  0  0  0  0  0  0  0  0
   -0.1192    0.3841   -1.4976 H   0  0  0  0  0  0  0  0  0  0  0  0
   -1.2431    2.1651   -1.9407 C   0  0  0  0  0  0  0  0  0  0  0  0
   -2.1854    2.6311   -1.6354 H   0  0  0  0  0  0  0  0  0  0  0  0
   -0.4468    2.9036   -1.7973 H   0  0  0  0  0  0  0  0  0  0  0  0
   -1.3073    1.8033   -3.4016 C   0  0  0  0  0  0  0  0  0  0  0  0
   -2.4426    1.5676   -4.1409 C   0  0  0  0  0  0  0  0  0  0  0  0
   -3.4652    1.6527   -3.7796 H   0  0  0  0  0  0  0  0  0  0  0  0
   -2.0407    1.2172   -5.4279 N   0  0  0  0  0  0  0  0  0  0  0  0
   -2.6627    1.0125   -6.2080 H   0  0  0  0  0  0  0  0  0  0  0  0
   -0.6578    1.2156   -5.5185 C   0  0  0  0  0  0  0  0  0  0  0  0
    0.2053    0.9310   -6.5769 C   0  0  0  0  0  0  0  0  0  0  0  0
   -0.1902    0.6535   -7.5477 H   0  0  0  0  0  0  0  0  0  0  0  0
    1.5899    1.0050   -6.3680 C   0  0  0  0  0  0  0  0  0  0  0  0
    2.2741    0.7842   -7.1822 H   0  0  0  0  0  0  0  0  0  0  0  0
    2.0935    1.3615   -5.1074 C   0  0  0  0  0  0  0  0  0  0  0  0
    3.1662    1.4149   -4.9472 H   0  0  0  0  0  0  0  0  0  0  0  0
    1.2167    1.6481   -4.0514 C   0  0  0  0  0  0  0  0  0  0  0  0
    1.6030    1.9224   -3.0745 H   0  0  0  0  0  0  0  0  0  0  0  0
   -0.1626    1.5739   -4.2706 C   0  0  0  0  0  0  0  0  0  0  0  0
   -0.5327    1.3592    0.3480 C   0  0  0  0  0  0  0  0  0  0  0  0
    0.4990    0.8997    0.8205 O   0  0  0  0  0  0  0  0  0  0  0  0
   -1.0469    2.5076    0.9304 N   0  0  0  0  0  0  0  0  0  0  0  0
   -1.9199    2.8605    0.5536 H   0  0  0  0  0  0  0  0  0  0  0  0
   -0.5775    3.0261    2.2097 C   0  0  0  0  0  0  0  0  0  0  0  0
    0.4825    3.2941    2.1485 H   0  0  0  0  0  0  0  0  0  0  0  0
   -1.1429    3.9210    2.4861 H   0  0  0  0  0  0  0  0  0  0  0  0
   -0.7068    2.2760    2.9970 H   0  0  0  0  0  0  0  0  0  0  0  0
  1  2  1  0  0  0  0
  2  3  1  0  0  0  0
  2  4  1  0  0  0  0
  2  5  1  0  0  0  0
  5  6  2  0  0  0  0
  5  7  1  0  0  0  0
  7  8  1  0  0  0  0
  7  9  1  0  0  0  0
  9 10  1  0  0  0  0
  9 11  1  0  0  0  0
  9 29  1  0  0  0  0
 11 12  1  0  0  0  0
 11 13  1  0  0  0  0
 11 14  1  0  0  0  0
 14 15  2  0  0  0  0
 14 28  1  0  0  0  0
 15 16  1  0  0  0  0
 15 17  1  0  0  0  0
 17 18  1  0  0  0  0
 17 19  1  0  0  0  0
 19 20  1  0  0  0  0
 19 28  2  0  0  0  0
 20 21  1  0  0  0  0
 20 22  2  0  0  0  0
 22 23  1  0  0  0  0
 22 24  1  0  0  0  0
 24 25  1  0  0  0  0
 24 26  2  0  0  0  0
 26 27  1  0  0  0  0
 26 28  1  0  0  0  0
 29 30  2  0  0  0  0
 29 31  1  0  0  0  0
 31 32  1  0  0  0  0
 31 33  1  0  0  0  0
 33 34  1  0  0  0  0
 33 35  1  0  0  0  0
 33 36  1  0  0  0  0
M  END
$$$$

  -OEChem-01062216103D

 36 37  0     1  0  0  0  0  0999 V2000
   -3.4976   -2.8916   -0.0549 H   0  0  0  0  0  0  0  0  0  0  0  0
   -3.4474   -2.0747   -0.7809 C   0  0  0  0  0  0  0  0  0  0  0  0
   -4.4232   -1.5855   -0.8277 H   0  0  0  0  0  0  0  0  0  0  0  0
   -3.2070   -2.4916   -1.7619 H   0  0  0  0  0  0  0  0  0  0  0  0
   -2.3839   -1.0746   -0.3671 C   0  0  0  0  0  0  0  0  0  0  0  0
   -1.7770   -1.2484    0.6725 O   0  0  0  0  0  0  0  0  0  0  0  0
   -2.1476    0.0262   -1.1682 N   0  0  0  0  0  0  0  0  0  0  0  0
   -2.6017   -0.0091   -2.0755 H   0  0  0  0  0  0  0  0  0  0  0  0
   -0.9658    0.9094   -1.0846 C   0  0  1  0  0  0  0  0  0  0  0  0
   -0.1122    0.3685   -1.5079 H   0  0  0  0  0  0  0  0  0  0  0  0
   -1.2222    2.1638   -1.9374 C   0  0  0  0  0  0  0  0  0  0  0  0
   -2.1581    2.6377   -1.6248 H   0  0  0  0  0  0  0  0  0  0  0  0
   -0.4176    2.8917   -1.7873 H   0  0  0  0  0  0  0  0  0  0  0  0
   -1.2943    1.8158   -3.4006 C   0  0  0  0  0  0  0  0  0  0  0  0
   -2.4345    1.5997   -4.1382 C   0  0  0  0  0  0  0  0  0  0  0  0
   -3.4548    1.6957   -3.7735 H   0  0  0  0  0  0  0  0  0  0  0  0
   -2.0402    1.2523   -5.4282 N   0  0  0  0  0  0  0  0  0  0  0  0
   -2.6669    1.0609   -6.2079 H   0  0  0  0  0  0  0  0  0  0  0  0
   -0.6573    1.2335   -5.5219 C   0  0  0  0  0  0  0  0  0  0  0  0
    0.1999    0.9445   -6.5839 C   0  0  0  0  0  0  0  0  0  0  0  0
   -0.2020    0.6790   -7.5554 H   0  0  0  0  0  0  0  0  0  0  0  0
    1.5859    0.9998   -6.3779 C   0  0  0  0  0  0  0  0  0  0  0  0
    2.2658    0.7759   -7.1946 H   0  0  0  0  0  0  0  0  0  0  0  0
    2.0970    1.3421   -5.1164 C   0  0  0  0  0  0  0  0  0  0  0  0
    3.1706    1.3821   -4.9584 H   0  0  0  0  0  0  0  0  0  0  0  0
    1.2266    1.6327   -4.0563 C   0  0  0  0  0  0  0  0  0  0  0  0
    1.6194    1.8963   -3.0787 H   0  0  0  0  0  0  0  0  0  0  0  0
   -0.1543    1.5775   -4.2731 C   0  0  0  0  0  0  0  0  0  0  0  0
   -0.5324    1.3496    0.3350 C   0  0  0  0  0  0  0  0  0  0  0  0
    0.6009    1.0933    0.7218 O   0  0  0  0  0  0  0  0  0  0  0  0
   -1.2597    2.3074    1.0223 N   0  0  0  0  0  0  0  0  0  0  0  0
   -2.2215    2.4378    0.7273 H   0  0  0  0  0  0  0  0  0  0  0  0
   -0.8598    2.8056    2.3323 C   0  0  0  0  0  0  0  0  0  0  0  0
    0.1182    3.2950    2.2741 H   0  0  0  0  0  0  0  0  0  0  0  0
   -1.5878    3.5359    2.6980 H   0  0  0  0  0  0  0  0  0  0  0  0
   -0.8000    1.9824    3.0522 H   0  0  0  0  0  0  0  0  0  0  0  0
  1  2  1  0  0  0  0
  2  3  1  0  0  0  0
  2  4  1  0  0  0  0
  2  5  1  0  0  0  0
  5  6  2  0  0  0  0
  5  7  1  0  0  0  0
  7  8  1  0  0  0  0
  7  9  1  0  0  0  0
  9 10  1  0  0  0  0
  9 11  1  0  0  0  0
  9 29  1  0  0  0  0
 11 12  1  0  0  0  0
 11 13  1  0  0  0  0
 11 14  1  0  0  0  0
 14 15  2  0  0  0  0
 14 28  1  0  0  0  0
 15 16  1  0  0  0  0
 15 17  1  0  0  0  0
 17 18  1  0  0  0  0
 17 19  1  0  0  0  0
 19 20  1  0  0  0  0
 19 28  2  0  0  0  0
 20 21  1  0  0  0  0
 20 22  2  0  0  0  0
 22 23  1  0  0  0  0
 22 24  1  0  0  0  0
 24 25  1  0  0  0  0
 24 26  2  0  0  0  0
 26 27  1  0  0  0  0
 26 28  1  0  0  0  0
 29 30  2  0  0  0  0
 29 31  1  0  0  0  0
 31 32  1  0  0  0  0
 31 33  1  0  0  0  0
 33 34  1  0  0  0  0
 33 35  1  0  0  0  0
 33 36  1  0  0  0  0
M  END
$$$$

  -OEChem-01062216103D

 36 37  0     1  0  0  0  0  0999 V2000
   -3.5204   -2.8815   -0.0348 H   0  0  0  0  0  0  0  0  0  0  0  0
   -3.4640   -2.0700   -0.7664 C   0  0  0  0  0  0  0  0  0  0  0  0
   -4.4314   -1.5636   -0.8051 H   0  0  0  0  0  0  0  0  0  0  0  0
   -3.2421   -2.4975   -1.7473 H   0  0  0  0  0  0  0  0  0  0  0  0
   -2.3782   -1.0864   -0.3716 C   0  0  0  0  0  0  0  0  0  0  0  0
   -1.7557   -1.2663    0.6583 O   0  0  0  0  0  0  0  0  0  0  0  0
   -2.1353    0.0094   -1.1771 N   0  0  0  0  0  0  0  0  0  0  0  0
   -2.5955   -0.0175   -2.0820 H   0  0  0  0  0  0  0  0  0  0  0  0
   -0.9513    0.8896   -1.0897 C   0  0  1  0  0  0  0  0  0  0  0  0
   -0.0956    0.3508   -1.5115 H   0  0  0  0  0  0  0  0  0  0  0  0
   -1.2073    2.1525   -1.9286 C   0  0  0  0  0  0  0  0  0  0  0  0
   -2.1400    2.6255   -1.6057 H   0  0  0  0  0  0  0  0  0  0  0  0
   -0.4007    2.8775   -1.7734 H   0  0  0  0  0  0  0  0  0  0  0  0
   -1.2852    1.8177   -3.3949 C   0  0  0  0  0  0  0  0  0  0  0  0
   -2.4280    1.6110   -4.1314 C   0  0  0  0  0  0  0  0  0  0  0  0
   -3.4472    1.7096   -3.7642 H   0  0  0  0  0  0  0  0  0  0  0  0
   -2.0386    1.2687   -5.4245 N   0  0  0  0  0  0  0  0  0  0  0  0
   -2.6680    1.0856   -6.2040 H   0  0  0  0  0  0  0  0  0  0  0  0
   -0.6559    1.2451   -5.5217 C   0  0  0  0  0  0  0  0  0  0  0  0
    0.1979    0.9597   -6.5874 C   0  0  0  0  0  0  0  0  0  0  0  0
   -0.2072    0.7006   -7.5594 H   0  0  0  0  0  0  0  0  0  0  0  0
    1.5845    1.0099   -6.3839 C   0  0  0  0  0  0  0  0  0  0  0  0
    2.2615    0.7896   -7.2040 H   0  0  0  0  0  0  0  0  0  0  0  0
    2.0995    1.3422   -5.1212 C   0  0  0  0  0  0  0  0  0  0  0  0
    3.1735    1.3772   -4.9650 H   0  0  0  0  0  0  0  0  0  0  0  0
    1.2322    1.6291   -4.0576 C   0  0  0  0  0  0  0  0  0  0  0  0
    1.6266    1.8858   -3.0788 H   0  0  0  0  0  0  0  0  0  0  0  0
   -0.1489    1.5800   -4.2720 C   0  0  0  0  0  0  0  0  0  0  0  0
   -0.5276    1.3348    0.3290 C   0  0  0  0  0  0  0  0  0  0  0  0
    0.6579    1.3121    0.6355 O   0  0  0  0  0  0  0  0  0  0  0  0
   -1.4094    2.0508    1.1201 N   0  0  0  0  0  0  0  0  0  0  0  0
   -2.3924    1.9374    0.8958 H   0  0  0  0  0  0  0  0  0  0  0  0
   -1.0534    2.5372    2.4468 C   0  0  0  0  0  0  0  0  0  0  0  0
   -0.1975    3.2180    2.3899 H   0  0  0  0  0  0  0  0  0  0  0  0
   -1.8946    3.0805    2.8873 H   0  0  0  0  0  0  0  0  0  0  0  0
   -0.7955    1.7005    3.1047 H   0  0  0  0  0  0  0  0  0  0  0  0
  1  2  1  0  0  0  0
  2  3  1  0  0  0  0
  2  4  1  0  0  0  0
  2  5  1  0  0  0  0
  5  6  2  0  0  0  0
  5  7  1  0  0  0  0
  7  8  1  0  0  0  0
  7  9  1  0  0  0  0
  9 10  1  0  0  0  0
  9 11  1  0  0  0  0
  9 29  1  0  0  0  0
 11 12  1  0  0  0  0
 11 13  1  0  0  0  0
 11 14  1  0  0  0  0
 14 15  2  0  0  0  0
 14 28  1  0  0  0  0
 15 16  1  0  0  0  0
 15 17  1  0  0  0  0
 17 18  1  0  0  0  0
 17 19  1  0  0  0  0
 19 20  1  0  0  0  0
 19 28  2  0  0  0  0
 20 21  1  0  0  0  0
 20 22  2  0  0  0  0
 22 23  1  0  0  0  0
 22 24  1  0  0  0  0
 24 25  1  0  0  0  0
 24 26  2  0  0  0  0
 26 27  1  0  0  0  0
 26 28  1  0  0  0  0
 29 30  2  0  0  0  0
 29 31  1  0  0  0  0
 31 32  1  0  0  0  0
 31 33  1  0  0  0  0
 33 34  1  0  0  0  0
 33 35  1  0  0  0  0
 33 36  1  0  0  0  0
M  END
$$$$

  -OEChem-01062216103D

 36 37  0     1  0  0  0  0  0999 V2000
   -3.5485   -2.8788   -0.0418 H   0  0  0  0  0  0  0  0  0  0  0  0
   -3.4832   -2.0695   -0.7748 C   0  0  0  0  0  0  0  0  0  0  0  0
   -4.4471   -1.5571   -0.8200 H   0  0  0  0  0  0  0  0  0  0  0  0
   -3.2597   -2.5010   -1.7537 H   0  0  0  0  0  0  0  0  0  0  0  0
   -2.3933   -1.0920   -0.3769 C   0  0  0  0  0  0  0  0  0  0  0  0
   -1.7736   -1.2745    0.6543 O   0  0  0  0  0  0  0  0  0  0  0  0
   -2.1383    0.0006   -1.1825 N   0  0  0  0  0  0  0  0  0  0  0  0
   -2.6004   -0.0176   -2.0867 H   0  0  0  0  0  0  0  0  0  0  0  0
   -0.9526    0.8794   -1.0885 C   0  0  1  0  0  0  0  0  0  0  0  0
   -0.0952    0.3406   -1.5067 H   0  0  0  0  0  0  0  0  0  0  0  0
   -1.2089    2.1433   -1.9256 C   0  0  0  0  0  0  0  0  0  0  0  0
   -2.1411    2.6159   -1.5998 H   0  0  0  0  0  0  0  0  0  0  0  0
   -0.4025    2.8684   -1.7706 H   0  0  0  0  0  0  0  0  0  0  0  0
   -1.2846    1.8117   -3.3929 C   0  0  0  0  0  0  0  0  0  0  0  0
   -2.4268    1.6059   -4.1302 C   0  0  0  0  0  0  0  0  0  0  0  0
   -3.4459    1.7050   -3.7627 H   0  0  0  0  0  0  0  0  0  0  0  0
   -2.0362    1.2682   -5.4241 N   0  0  0  0  0  0  0  0  0  0  0  0
   -2.6650    1.0918   -6.2055 H   0  0  0  0  0  0  0  0  0  0  0  0
   -0.6534    1.2466   -5.5211 C   0  0  0  0  0  0  0  0  0  0  0  0
    0.2011    0.9682   -6.5881 C   0  0  0  0  0  0  0  0  0  0  0  0
   -0.2028    0.7154   -7.5621 H   0  0  0  0  0  0  0  0  0  0  0  0
    1.5875    1.0189   -6.3840 C   0  0  0  0  0  0  0  0  0  0  0  0
    2.2655    0.8050   -7.2048 H   0  0  0  0  0  0  0  0  0  0  0  0
    2.1018    1.3458   -5.1197 C   0  0  0  0  0  0  0  0  0  0  0  0
    3.1759    1.3830   -4.9636 H   0  0  0  0  0  0  0  0  0  0  0  0
    1.2340    1.6271   -4.0550 C   0  0  0  0  0  0  0  0  0  0  0  0
    1.6284    1.8818   -3.0756 H   0  0  0  0  0  0  0  0  0  0  0  0
   -0.1472    1.5769   -4.2699 C   0  0  0  0  0  0  0  0  0  0  0  0
   -0.5299    1.3369    0.3266 C   0  0  0  0  0  0  0  0  0  0  0  0
    0.6548    1.5471    0.5567 O   0  0  0  0  0  0  0  0  0  0  0  0
   -1.4812    1.7831    1.2271 N   0  0  0  0  0  0  0  0  0  0  0  0
   -2.4173    1.4216    1.0731 H   0  0  0  0  0  0  0  0  0  0  0  0
   -1.1319    2.2303    2.5694 C   0  0  0  0  0  0  0  0  0  0  0  0
   -0.4414    3.0790    2.5241 H   0  0  0  0  0  0  0  0  0  0  0  0
   -2.0305    2.5474    3.1071 H   0  0  0  0  0  0  0  0  0  0  0  0
   -0.6573    1.4186    3.1308 H   0  0  0  0  0  0  0  0  0  0  0  0
  1  2  1  0  0  0  0
  2  3  1  0  0  0  0
  2  4  1  0  0  0  0
  2  5  1  0  0  0  0
  5  6  2  0  0  0  0
  5  7  1  0  0  0  0
  7  8  1  0  0  0  0
  7  9  1  0  0  0  0
  9 10  1  0  0  0  0
  9 11  1  0  0  0  0
  9 29  1  0  0  0  0
 11 12  1  0  0  0  0
 11 13  1  0  0  0  0
 11 14  1  0  0  0  0
 14 15  2  0  0  0  0
 14 28  1  0  0  0  0
 15 16  1  0  0  0  0
 15 17  1  0  0  0  0
 17 18  1  0  0  0  0
 17 19  1  0  0  0  0
 19 20  1  0  0  0  0
 19 28  2  0  0  0  0
 20 21  1  0  0  0  0
 20 22  2  0  0  0  0
 22 23  1  0  0  0  0
 22 24  1  0  0  0  0
 24 25  1  0  0  0  0
 24 26  2  0  0  0  0
 26 27  1  0  0  0  0
 26 28  1  0  0  0  0
 29 30  2  0  0  0  0
 29 31  1  0  0  0  0
 31 32  1  0  0  0  0
 31 33  1  0  0  0  0
 33 34  1  0  0  0  0
 33 35  1  0  0  0  0
 33 36  1  0  0  0  0
M  END
$$$$

  -OEChem-01062216103D

 36 37  0     1  0  0  0  0  0999 V2000
   -3.6080   -2.8852   -0.1141 H   0  0  0  0  0  0  0  0  0  0  0  0
   -3.5206   -2.0688   -0.8369 C   0  0  0  0  0  0  0  0  0  0  0  0
   -4.4786   -1.5463   -0.8950 H   0  0  0  0  0  0  0  0  0  0  0  0
   -3.2820   -2.4919   -1.8158 H   0  0  0  0  0  0  0  0  0  0  0  0
   -2.4290   -1.1065   -0.4077 C   0  0  0  0  0  0  0  0  0  0  0  0
   -1.8322   -1.3038    0.6345 O   0  0  0  0  0  0  0  0  0  0  0  0
   -2.1500   -0.0066   -1.1940 N   0  0  0  0  0  0  0  0  0  0  0  0
   -2.6070   -0.0048   -2.1009 H   0  0  0  0  0  0  0  0  0  0  0  0
   -0.9639    0.8719   -1.0820 C   0  0  1  0  0  0  0  0  0  0  0  0
   -0.1043    0.3378   -1.5007 H   0  0  0  0  0  0  0  0  0  0  0  0
   -1.2326    2.1351   -1.9189 C   0  0  0  0  0  0  0  0  0  0  0  0
   -2.1705    2.5969   -1.5942 H   0  0  0  0  0  0  0  0  0  0  0  0
   -0.4366    2.8720   -1.7645 H   0  0  0  0  0  0  0  0  0  0  0  0
   -1.3002    1.8033   -3.3866 C   0  0  0  0  0  0  0  0  0  0  0  0
   -2.4369    1.5844   -4.1283 C   0  0  0  0  0  0  0  0  0  0  0  0
   -3.4580    1.6733   -3.7644 H   0  0  0  0  0  0  0  0  0  0  0  0
   -2.0373    1.2460   -5.4194 N   0  0  0  0  0  0  0  0  0  0  0  0
   -2.6607    1.0608   -6.2031 H   0  0  0  0  0  0  0  0  0  0  0  0
   -0.6539    1.2368   -5.5097 C   0  0  0  0  0  0  0  0  0  0  0  0
    0.2089    0.9604   -6.5704 C   0  0  0  0  0  0  0  0  0  0  0  0
   -0.1872    0.6985   -7.5452 H   0  0  0  0  0  0  0  0  0  0  0  0
    1.5937    1.0233   -6.3584 C   0  0  0  0  0  0  0  0  0  0  0  0
    2.2780    0.8094   -7.1740 H   0  0  0  0  0  0  0  0  0  0  0  0
    2.0984    1.3622   -5.0934 C   0  0  0  0  0  0  0  0  0  0  0  0
    3.1710    1.4094   -4.9309 H   0  0  0  0  0  0  0  0  0  0  0  0
    1.2223    1.6421   -4.0352 C   0  0  0  0  0  0  0  0  0  0  0  0
    1.6074    1.9058   -3.0544 H   0  0  0  0  0  0  0  0  0  0  0  0
   -0.1570    1.5773   -4.2575 C   0  0  0  0  0  0  0  0  0  0  0  0
   -0.5310    1.3377    0.3299 C   0  0  0  0  0  0  0  0  0  0  0  0
    0.6044    1.7716    0.4859 O   0  0  0  0  0  0  0  0  0  0  0  0
   -1.4570    1.5022    1.3439 N   0  0  0  0  0  0  0  0  0  0  0  0
   -2.2627    0.8865    1.2643 H   0  0  0  0  0  0  0  0  0  0  0  0
   -1.0680    1.9289    2.6816 C   0  0  0  0  0  0  0  0  0  0  0  0
   -0.5912    2.9141    2.6475 H   0  0  0  0  0  0  0  0  0  0  0  0
   -1.9487    1.9961    3.3270 H   0  0  0  0  0  0  0  0  0  0  0  0
   -0.3667    1.2127    3.1223 H   0  0  0  0  0  0  0  0  0  0  0  0
  1  2  1  0  0  0  0
  2  3  1  0  0  0  0
  2  4  1  0  0  0  0
  2  5  1  0  0  0  0
  5  6  2  0  0  0  0
  5  7  1  0  0  0  0
  7  8  1  0  0  0  0
  7  9  1  0  0  0  0
  9 10  1  0  0  0  0
  9 11  1  0  0  0  0
  9 29  1  0  0  0  0
 11 12  1  0  0  0  0
 11 13  1  0  0  0  0
 11 14  1  0  0  0  0
 14 15  2  0  0  0  0
 14 28  1  0  0  0  0
 15 16  1  0  0  0  0
 15 17  1  0  0  0  0
 17 18  1  0  0  0  0
 17 19  1  0  0  0  0
 19 20  1  0  0  0  0
 19 28  2  0  0  0  0
 20 21  1  0  0  0  0
 20 22  2  0  0  0  0
 22 23  1  0  0  0  0
 22 24  1  0  0  0  0
 24 25  1  0  0  0  0
 24 26  2  0  0  0  0
 26 27  1  0  0  0  0
 26 28  1  0  0  0  0
 29 30  2  0  0  0  0
 29 31  1  0  0  0  0
 31 32  1  0  0  0  0
 31 33  1  0  0  0  0
 33 34  1  0  0  0  0
 33 35  1  0  0  0  0
 33 36  1  0  0  0  0
M  END
$$$$

  -OEChem-01062216103D

 36 37  0     1  0  0  0  0  0999 V2000
   -3.7070   -2.8755   -0.1691 H   0  0  0  0  0  0  0  0  0  0  0  0
   -3.5997   -2.0417   -0.8688 C   0  0  0  0  0  0  0  0  0  0  0  0
   -4.5344   -1.4762   -0.8882 H   0  0  0  0  0  0  0  0  0  0  0  0
   -3.4029   -2.4438   -1.8656 H   0  0  0  0  0  0  0  0  0  0  0  0
   -2.4574   -1.1415   -0.4376 C   0  0  0  0  0  0  0  0  0  0  0  0
   -1.8370   -1.4068    0.5759 O   0  0  0  0  0  0  0  0  0  0  0  0
   -2.1520   -0.0306   -1.1979 N   0  0  0  0  0  0  0  0  0  0  0  0
   -2.6398    0.0240   -2.0866 H   0  0  0  0  0  0  0  0  0  0  0  0
   -0.9692    0.8524   -1.0704 C   0  0  1  0  0  0  0  0  0  0  0  0
   -0.1060    0.3256   -1.4908 H   0  0  0  0  0  0  0  0  0  0  0  0
   -1.2556    2.1082   -1.9172 C   0  0  0  0  0  0  0  0  0  0  0  0
   -2.2028    2.5540   -1.5970 H   0  0  0  0  0  0  0  0  0  0  0  0
   -0.4754    2.8618   -1.7670 H   0  0  0  0  0  0  0  0  0  0  0  0
   -1.3118    1.7723   -3.3854 C   0  0  0  0  0  0  0  0  0  0  0  0
   -2.4400    1.5327   -4.1342 C   0  0  0  0  0  0  0  0  0  0  0  0
   -3.4655    1.6034   -3.7785 H   0  0  0  0  0  0  0  0  0  0  0  0
   -2.0269    1.2036   -5.4233 N   0  0  0  0  0  0  0  0  0  0  0  0
   -2.6424    1.0089   -6.2108 H   0  0  0  0  0  0  0  0  0  0  0  0
   -0.6433    1.2216   -5.5067 C   0  0  0  0  0  0  0  0  0  0  0  0
    0.2303    0.9642   -6.5637 C   0  0  0  0  0  0  0  0  0  0  0  0
   -0.1561    0.6942   -7.5403 H   0  0  0  0  0  0  0  0  0  0  0  0
    1.6126    1.0581   -6.3457 C   0  0  0  0  0  0  0  0  0  0  0  0
    2.3051    0.8607   -7.1586 H   0  0  0  0  0  0  0  0  0  0  0  0
    2.1034    1.4075   -5.0779 C   0  0  0  0  0  0  0  0  0  0  0  0
    3.1739    1.4801   -4.9109 H   0  0  0  0  0  0  0  0  0  0  0  0
    1.2161    1.6659   -4.0232 C   0  0  0  0  0  0  0  0  0  0  0  0
    1.5904    1.9387   -3.0407 H   0  0  0  0  0  0  0  0  0  0  0  0
   -0.1602    1.5707   -4.2517 C   0  0  0  0  0  0  0  0  0  0  0  0
   -0.5271    1.3260    0.3411 C   0  0  0  0  0  0  0  0  0  0  0  0
    0.5201    1.9541    0.4494 O   0  0  0  0  0  0  0  0  0  0  0  0
   -1.3473    1.2154    1.4486 N   0  0  0  0  0  0  0  0  0  0  0  0
   -1.9949    0.4294    1.3915 H   0  0  0  0  0  0  0  0  0  0  0  0
   -0.9158    1.6270    2.7785 C   0  0  0  0  0  0  0  0  0  0  0  0
   -0.6542    2.6903    2.7862 H   0  0  0  0  0  0  0  0  0  0  0  0
   -1.7206    1.4667    3.5020 H   0  0  0  0  0  0  0  0  0  0  0  0
   -0.0431    1.0461    3.0945 H   0  0  0  0  0  0  0  0  0  0  0  0
  1  2  1  0  0  0  0
  2  3  1  0  0  0  0
  2  4  1  0  0  0  0
  2  5  1  0  0  0  0
  5  6  2  0  0  0  0
  5  7  1  0  0  0  0
  7  8  1  0  0  0  0
  7  9  1  0  0  0  0
  9 10  1  0  0  0  0
  9 11  1  0  0  0  0
  9 29  1  0  0  0  0
 11 12  1  0  0  0  0
 11 13  1  0  0  0  0
 11 14  1  0  0  0  0
 14 15  2  0  0  0  0
 14 28  1  0  0  0  0
 15 16  1  0  0  0  0
 15 17  1  0  0  0  0
 17 18  1  0  0  0  0
 17 19  1  0  0  0  0
 19 20  1  0  0  0  0
 19 28  2  0  0  0  0
 20 21  1  0  0  0  0
 20 22  2  0  0  0  0
 22 23  1  0  0  0  0
 22 24  1  0  0  0  0
 24 25  1  0  0  0  0
 24 26  2  0  0  0  0
 26 27  1  0  0  0  0
 26 28  1  0  0  0  0
 29 30  2  0  0  0  0
 29 31  1  0  0  0  0
 31 32  1  0  0  0  0
 31 33  1  0  0  0  0
 33 34  1  0  0  0  0
 33 35  1  0  0  0  0
 33 36  1  0  0  0  0
M  END
$$$$

  -OEChem-01062216103D

 36 37  0     1  0  0  0  0  0999 V2000
   -3.8050   -2.8428   -0.1767 H   0  0  0  0  0  0  0  0  0  0  0  0
   -3.6862   -1.9938   -0.8558 C   0  0  0  0  0  0  0  0  0  0  0  0
   -4.5821   -1.3709   -0.7988 H   0  0  0  0  0  0  0  0  0  0  0  0
   -3.5771   -2.3725   -1.8749 H   0  0  0  0  0  0  0  0  0  0  0  0
   -2.4641   -1.1822   -0.4697 C   0  0  0  0  0  0  0  0  0  0  0  0
   -1.7763   -1.5479    0.4664 O   0  0  0  0  0  0  0  0  0  0  0  0
   -2.1458   -0.0579   -1.2043 N   0  0  0  0  0  0  0  0  0  0  0  0
   -2.6953    0.0726   -2.0474 H   0  0  0  0  0  0  0  0  0  0  0  0
   -0.9697    0.8341   -1.0662 C   0  0  1  0  0  0  0  0  0  0  0  0
   -0.1032    0.3149   -1.4889 H   0  0  0  0  0  0  0  0  0  0  0  0
   -1.2760    2.0821   -1.9231 C   0  0  0  0  0  0  0  0  0  0  0  0
   -2.2314    2.5144   -1.6081 H   0  0  0  0  0  0  0  0  0  0  0  0
   -0.5108    2.8525   -1.7814 H   0  0  0  0  0  0  0  0  0  0  0  0
   -1.3212    1.7374   -3.3900 C   0  0  0  0  0  0  0  0  0  0  0  0
   -2.4389    1.4729   -4.1461 C   0  0  0  0  0  0  0  0  0  0  0  0
   -3.4680    1.5224   -3.7979 H   0  0  0  0  0  0  0  0  0  0  0  0
   -2.0102    1.1515   -5.4322 N   0  0  0  0  0  0  0  0  0  0  0  0
   -2.6157    0.9383   -6.2226 H   0  0  0  0  0  0  0  0  0  0  0  0
   -0.6269    1.2036   -5.5073 C   0  0  0  0  0  0  0  0  0  0  0  0
    0.2600    0.9706   -6.5588 C   0  0  0  0  0  0  0  0  0  0  0  0
   -0.1128    0.6922   -7.5381 H   0  0  0  0  0  0  0  0  0  0  0  0
    1.6380    1.1018   -6.3325 C   0  0  0  0  0  0  0  0  0  0  0  0
    2.3404    0.9245   -7.1415 H   0  0  0  0  0  0  0  0  0  0  0  0
    2.1119    1.4630   -5.0616 C   0  0  0  0  0  0  0  0  0  0  0  0
    3.1791    1.5650   -4.8881 H   0  0  0  0  0  0  0  0  0  0  0  0
    1.2116    1.6963   -4.0123 C   0  0  0  0  0  0  0  0  0  0  0  0
    1.5721    1.9793   -3.0276 H   0  0  0  0  0  0  0  0  0  0  0  0
   -0.1602    1.5642   -4.2494 C   0  0  0  0  0  0  0  0  0  0  0  0
   -0.5211    1.3078    0.3479 C   0  0  0  0  0  0  0  0  0  0  0  0
    0.4054    2.1056    0.4389 O   0  0  0  0  0  0  0  0  0  0  0  0
   -1.1680    0.9397    1.5127 N   0  0  0  0  0  0  0  0  0  0  0  0
   -1.6915    0.0660    1.4377 H   0  0  0  0  0  0  0  0  0  0  0  0
   -0.6930    1.3273    2.8352 C   0  0  0  0  0  0  0  0  0  0  0  0
   -0.6427    2.4179    2.9219 H   0  0  0  0  0  0  0  0  0  0  0  0
   -1.3757    0.9535    3.6042 H   0  0  0  0  0  0  0  0  0  0  0  0
    0.3029    0.9120    3.0218 H   0  0  0  0  0  0  0  0  0  0  0  0
  1  2  1  0  0  0  0
  2  3  1  0  0  0  0
  2  4  1  0  0  0  0
  2  5  1  0  0  0  0
  5  6  2  0  0  0  0
  5  7  1  0  0  0  0
  7  8  1  0  0  0  0
  7  9  1  0  0  0  0
  9 10  1  0  0  0  0
  9 11  1  0  0  0  0
  9 29  1  0  0  0  0
 11 12  1  0  0  0  0
 11 13  1  0  0  0  0
 11 14  1  0  0  0  0
 14 15  2  0  0  0  0
 14 28  1  0  0  0  0
 15 16  1  0  0  0  0
 15 17  1  0  0  0  0
 17 18  1  0  0  0  0
 17 19  1  0  0  0  0
 19 20  1  0  0  0  0
 19 28  2  0  0  0  0
 20 21  1  0  0  0  0
 20 22  2  0  0  0  0
 22 23  1  0  0  0  0
 22 24  1  0  0  0  0
 24 25  1  0  0  0  0
 24 26  2  0  0  0  0
 26 27  1  0  0  0  0
 26 28  1  0  0  0  0
 29 30  2  0  0  0  0
 29 31  1  0  0  0  0
 31 32  1  0  0  0  0
 31 33  1  0  0  0  0
 33 34  1  0  0  0  0
 33 35  1  0  0  0  0
 33 36  1  0  0  0  0
M  END
$$$$

  -OEChem-01062216103D

 36 37  0     1  0  0  0  0  0999 V2000
   -3.8546   -2.8154   -0.1748 H   0  0  0  0  0  0  0  0  0  0  0  0
   -3.7407   -1.9457   -0.8284 C   0  0  0  0  0  0  0  0  0  0  0  0
   -4.5997   -1.2856   -0.6863 H   0  0  0  0  0  0  0  0  0  0  0  0
   -3.7180   -2.2868   -1.8665 H   0  0  0  0  0  0  0  0  0  0  0  0
   -2.4578   -1.2066   -0.4975 C   0  0  0  0  0  0  0  0  0  0  0  0
   -1.7075   -1.6634    0.3466 O   0  0  0  0  0  0  0  0  0  0  0  0
   -2.1417   -0.0660   -1.2072 N   0  0  0  0  0  0  0  0  0  0  0  0
   -2.7580    0.1382   -1.9866 H   0  0  0  0  0  0  0  0  0  0  0  0
   -0.9733    0.8355   -1.0632 C   0  0  1  0  0  0  0  0  0  0  0  0
   -0.1049    0.3232   -1.4899 H   0  0  0  0  0  0  0  0  0  0  0  0
   -1.2926    2.0765   -1.9299 C   0  0  0  0  0  0  0  0  0  0  0  0
   -2.2537    2.4988   -1.6197 H   0  0  0  0  0  0  0  0  0  0  0  0
   -0.5391    2.8586   -1.7948 H   0  0  0  0  0  0  0  0  0  0  0  0
   -1.3277    1.7249   -3.3961 C   0  0  0  0  0  0  0  0  0  0  0  0
   -2.4368    1.4421   -4.1588 C   0  0  0  0  0  0  0  0  0  0  0  0
   -3.4690    1.4781   -3.8186 H   0  0  0  0  0  0  0  0  0  0  0  0
   -1.9956    1.1210   -5.4409 N   0  0  0  0  0  0  0  0  0  0  0  0
   -2.5930    0.8940   -6.2336 H   0  0  0  0  0  0  0  0  0  0  0  0
   -0.6128    1.1904   -5.5072 C   0  0  0  0  0  0  0  0  0  0  0  0
    0.2841    0.9627   -6.5513 C   0  0  0  0  0  0  0  0  0  0  0  0
   -0.0786    0.6738   -7.5315 H   0  0  0  0  0  0  0  0  0  0  0  0
    1.6588    1.1120   -6.3162 C   0  0  0  0  0  0  0  0  0  0  0  0
    2.3687    0.9384   -7.1196 H   0  0  0  0  0  0  0  0  0  0  0  0
    2.1194    1.4865   -5.0443 C   0  0  0  0  0  0  0  0  0  0  0  0
    3.1840    1.6024   -4.8645 H   0  0  0  0  0  0  0  0  0  0  0  0
    1.2091    1.7150   -4.0028 C   0  0  0  0  0  0  0  0  0  0  0  0
    1.5592    2.0085   -3.0176 H   0  0  0  0  0  0  0  0  0  0  0  0
   -0.1592    1.5636   -4.2481 C   0  0  0  0  0  0  0  0  0  0  0  0
   -0.5181    1.2944    0.3579 C   0  0  0  0  0  0  0  0  0  0  0  0
    0.2421    2.2504    0.4643 O   0  0  0  0  0  0  0  0  0  0  0  0
   -0.9359    0.6955    1.5313 N   0  0  0  0  0  0  0  0  0  0  0  0
   -1.3510   -0.2310    1.4175 H   0  0  0  0  0  0  0  0  0  0  0  0
   -0.4139    1.0519    2.8449 C   0  0  0  0  0  0  0  0  0  0  0  0
   -0.5922    2.1116    3.0552 H   0  0  0  0  0  0  0  0  0  0  0  0
   -0.9108    0.4600    3.6195 H   0  0  0  0  0  0  0  0  0  0  0  0
    0.6626    0.8578    2.8951 H   0  0  0  0  0  0  0  0  0  0  0  0
  1  2  1  0  0  0  0
  2  3  1  0  0  0  0
  2  4  1  0  0  0  0
  2  5  1  0  0  0  0
  5  6  2  0  0  0  0
  5  7  1  0  0  0  0
  7  8  1  0  0  0  0
  7  9  1  0  0  0  0
  9 10  1  0  0  0  0
  9 11  1  0  0  0  0
  9 29  1  0  0  0  0
 11 12  1  0  0  0  0
 11 13  1  0  0  0  0
 11 14  1  0  0  0  0
 14 15  2  0  0  0  0
 14 28  1  0  0  0  0
 15 16  1  0  0  0  0
 15 17  1  0  0  0  0
 17 18  1  0  0  0  0
 17 19  1  0  0  0  0
 19 20  1  0  0  0  0
 19 28  2  0  0  0  0
 20 21  1  0  0  0  0
 20 22  2  0  0  0  0
 22 23  1  0  0  0  0
 22 24  1  0  0  0  0
 24 25  1  0  0  0  0
 24 26  2  0  0  0  0
 26 27  1  0  0  0  0
 26 28  1  0  0  0  0
 29 30  2  0  0  0  0
 29 31  1  0  0  0  0
 31 32  1  0  0  0  0
 31 33  1  0  0  0  0
 33 34  1  0  0  0  0
 33 35  1  0  0  0  0
 33 36  1  0  0  0  0
M  END
$$$$

  -OEChem-01062216103D

 36 37  0     1  0  0  0  0  0999 V2000
   -3.9239   -2.7126   -0.0857 H   0  0  0  0  0  0  0  0  0  0  0  0
   -3.8080   -1.8426   -0.7386 C   0  0  0  0  0  0  0  0  0  0  0  0
   -4.6068   -1.1304   -0.5179 H   0  0  0  0  0  0  0  0  0  0  0  0
   -3.8947   -2.1689   -1.7779 H   0  0  0  0  0  0  0  0  0  0  0  0
   -2.4558   -1.1938   -0.5105 C   0  0  0  0  0  0  0  0  0  0  0  0
   -1.6451   -1.7467    0.2122 O   0  0  0  0  0  0  0  0  0  0  0  0
   -2.1394   -0.0427   -1.2037 N   0  0  0  0  0  0  0  0  0  0  0  0
   -2.8361    0.2572   -1.8766 H   0  0  0  0  0  0  0  0  0  0  0  0
   -0.9563    0.8414   -1.0681 C   0  0  1  0  0  0  0  0  0  0  0  0
   -0.1023    0.3157   -1.5071 H   0  0  0  0  0  0  0  0  0  0  0  0
   -1.2500    2.0926   -1.9311 C   0  0  0  0  0  0  0  0  0  0  0  0
   -2.1985    2.5386   -1.6157 H   0  0  0  0  0  0  0  0  0  0  0  0
   -0.4746    2.8540   -1.7996 H   0  0  0  0  0  0  0  0  0  0  0  0
   -1.2968    1.7463   -3.3985 C   0  0  0  0  0  0  0  0  0  0  0  0
   -2.4167    1.4918   -4.1552 C   0  0  0  0  0  0  0  0  0  0  0  0
   -3.4454    1.5500   -3.8081 H   0  0  0  0  0  0  0  0  0  0  0  0
   -1.9916    1.1637   -5.4407 N   0  0  0  0  0  0  0  0  0  0  0  0
   -2.5993    0.9469   -6.2283 H   0  0  0  0  0  0  0  0  0  0  0  0
   -0.6080    1.1972   -5.5145 C   0  0  0  0  0  0  0  0  0  0  0  0
    0.2750    0.9444   -6.5647 C   0  0  0  0  0  0  0  0  0  0  0  0
   -0.1020    0.6645   -7.5421 H   0  0  0  0  0  0  0  0  0  0  0  0
    1.6546    1.0551   -6.3387 C   0  0  0  0  0  0  0  0  0  0  0  0
    2.3541    0.8613   -7.1466 H   0  0  0  0  0  0  0  0  0  0  0  0
    2.1336    1.4163   -5.0698 C   0  0  0  0  0  0  0  0  0  0  0  0
    3.2024    1.5009   -4.8969 H   0  0  0  0  0  0  0  0  0  0  0  0
    1.2367    1.6698   -4.0222 C   0  0  0  0  0  0  0  0  0  0  0  0
    1.6018    1.9516   -3.0393 H   0  0  0  0  0  0  0  0  0  0  0  0
   -0.1371    1.5570   -4.2578 C   0  0  0  0  0  0  0  0  0  0  0  0
   -0.4798    1.2563    0.3622 C   0  0  0  0  0  0  0  0  0  0  0  0
    0.0674    2.3395    0.5361 O   0  0  0  0  0  0  0  0  0  0  0  0
   -0.6436    0.4660    1.4833 N   0  0  0  0  0  0  0  0  0  0  0  0
   -0.9604   -0.4906    1.3117 H   0  0  0  0  0  0  0  0  0  0  0  0
   -0.1225    0.7985    2.8031 C   0  0  0  0  0  0  0  0  0  0  0  0
   -0.5267    1.7568    3.1458 H   0  0  0  0  0  0  0  0  0  0  0  0
   -0.4083    0.0270    3.5245 H   0  0  0  0  0  0  0  0  0  0  0  0
    0.9703    0.8636    2.7784 H   0  0  0  0  0  0  0  0  0  0  0  0
  1  2  1  0  0  0  0
  2  3  1  0  0  0  0
  2  4  1  0  0  0  0
  2  5  1  0  0  0  0
  5  6  2  0  0  0  0
  5  7  1  0  0  0  0
  7  8  1  0  0  0  0
  7  9  1  0  0  0  0
  9 10  1  0  0  0  0
  9 11  1  0  0  0  0
  9 29  1  0  0  0  0
 11 12  1  0  0  0  0
 11 13  1  0  0  0  0
 11 14  1  0  0  0  0
 14 15  2  0  0  0  0
 14 28  1  0  0  0  0
 15 16  1  0  0  0  0
 15 17  1  0  0  0  0
 17 18  1  0  0  0  0
 17 19  1  0  0  0  0
 19 20  1  0  0  0  0
 19 28  2  0  0  0  0
 20 21  1  0  0  0  0
 20 22  2  0  0  0  0
 22 23  1  0  0  0  0
 22 24  1  0  0  0  0
 24 25  1  0  0  0  0
 24 26  2  0  0  0  0
 26 27  1  0  0  0  0
 26 28  1  0  0  0  0
 29 30  2  0  0  0  0
 29 31  1  0  0  0  0
 31 32  1  0  0  0  0
 31 33  1  0  0  0  0
 33 34  1  0  0  0  0
 33 35  1  0  0  0  0
 33 36  1  0  0  0  0
M  END
$$$$

  -OEChem-01062216103D

 36 37  0     1  0  0  0  0  0999 V2000
   -3.8159   -2.7615   -0.0086 H   0  0  0  0  0  0  0  0  0  0  0  0
   -3.7422   -1.8805   -0.6527 C   0  0  0  0  0  0  0  0  0  0  0  0
   -4.5300   -1.1764   -0.3741 H   0  0  0  0  0  0  0  0  0  0  0  0
   -3.8883   -2.1911   -1.6901 H   0  0  0  0  0  0  0  0  0  0  0  0
   -2.3814   -1.2289   -0.4934 C   0  0  0  0  0  0  0  0  0  0  0  0
   -1.5278   -1.7895    0.1720 O   0  0  0  0  0  0  0  0  0  0  0  0
   -2.1034   -0.0727   -1.1945 N   0  0  0  0  0  0  0  0  0  0  0  0
   -2.8473    0.2476   -1.8042 H   0  0  0  0  0  0  0  0  0  0  0  0
   -0.9365    0.8337   -1.0736 C   0  0  1  0  0  0  0  0  0  0  0  0
   -0.0768    0.3192   -1.5148 H   0  0  0  0  0  0  0  0  0  0  0  0
   -1.2422    2.0775   -1.9415 C   0  0  0  0  0  0  0  0  0  0  0  0
   -2.1936    2.5179   -1.6268 H   0  0  0  0  0  0  0  0  0  0  0  0
   -0.4711    2.8434   -1.8097 H   0  0  0  0  0  0  0  0  0  0  0  0
   -1.2868    1.7276   -3.4080 C   0  0  0  0  0  0  0  0  0  0  0  0
   -2.4050    1.4607   -4.1626 C   0  0  0  0  0  0  0  0  0  0  0  0
   -3.4331    1.5016   -3.8118 H   0  0  0  0  0  0  0  0  0  0  0  0
   -1.9797    1.1485   -5.4520 N   0  0  0  0  0  0  0  0  0  0  0  0
   -2.5872    0.9297   -6.2391 H   0  0  0  0  0  0  0  0  0  0  0  0
   -0.5973    1.2060   -5.5315 C   0  0  0  0  0  0  0  0  0  0  0  0
    0.2856    0.9799   -6.5879 C   0  0  0  0  0  0  0  0  0  0  0  0
   -0.0909    0.7037   -7.5665 H   0  0  0  0  0  0  0  0  0  0  0  0
    1.6639    1.1147   -6.3671 C   0  0  0  0  0  0  0  0  0  0  0  0
    2.3630    0.9423   -7.1799 H   0  0  0  0  0  0  0  0  0  0  0  0
    2.1419    1.4727   -5.0971 C   0  0  0  0  0  0  0  0  0  0  0  0
    3.2095    1.5765   -4.9285 H   0  0  0  0  0  0  0  0  0  0  0  0
    1.2454    1.6994   -4.0432 C   0  0  0  0  0  0  0  0  0  0  0  0
    1.6100    1.9799   -3.0599 H   0  0  0  0  0  0  0  0  0  0  0  0
   -0.1274    1.5633   -4.2734 C   0  0  0  0  0  0  0  0  0  0  0  0
   -0.4649    1.2460    0.3583 C   0  0  0  0  0  0  0  0  0  0  0  0
   -0.2045    2.4167    0.6135 O   0  0  0  0  0  0  0  0  0  0  0  0
   -0.3340    0.3464    1.3976 N   0  0  0  0  0  0  0  0  0  0  0  0
   -0.5678   -0.6274    1.1884 H   0  0  0  0  0  0  0  0  0  0  0  0
    0.0904    0.6971    2.7466 C   0  0  0  0  0  0  0  0  0  0  0  0
   -0.6146    1.4021    3.1991 H   0  0  0  0  0  0  0  0  0  0  0  0
    0.1329   -0.2000    3.3718 H   0  0  0  0  0  0  0  0  0  0  0  0
    1.0856    1.1532    2.7291 H   0  0  0  0  0  0  0  0  0  0  0  0
  1  2  1  0  0  0  0
  2  3  1  0  0  0  0
  2  4  1  0  0  0  0
  2  5  1  0  0  0  0
  5  6  2  0  0  0  0
  5  7  1  0  0  0  0
  7  8  1  0  0  0  0
  7  9  1  0  0  0  0
  9 10  1  0  0  0  0
  9 11  1  0  0  0  0
  9 29  1  0  0  0  0
 11 12  1  0  0  0  0
 11 13  1  0  0  0  0
 11 14  1  0  0  0  0
 14 15  2  0  0  0  0
 14 28  1  0  0  0  0
 15 16  1  0  0  0  0
 15 17  1  0  0  0  0
 17 18  1  0  0  0  0
 17 19  1  0  0  0  0
 19 20  1  0  0  0  0
 19 28  2  0  0  0  0
 20 21  1  0  0  0  0
 20 22  2  0  0  0  0
 22 23  1  0  0  0  0
 22 24  1  0  0  0  0
 24 25  1  0  0  0  0
 24 26  2  0  0  0  0
 26 27  1  0  0  0  0
 26 28  1  0  0  0  0
 29 30  2  0  0  0  0
 29 31  1  0  0  0  0
 31 32  1  0  0  0  0
 31 33  1  0  0  0  0
 33 34  1  0  0  0  0
 33 35  1  0  0  0  0
 33 36  1  0  0  0  0
M  END
$$$$

  -OEChem-01062216103D

 36 37  0     1  0  0  0  0  0999 V2000
   -3.7435   -2.7338    0.1037 H   0  0  0  0  0  0  0  0  0  0  0  0
   -3.6886   -1.8702   -0.5652 C   0  0  0  0  0  0  0  0  0  0  0  0
   -4.4675   -1.1584   -0.2816 H   0  0  0  0  0  0  0  0  0  0  0  0
   -3.8654   -2.2070   -1.5895 H   0  0  0  0  0  0  0  0  0  0  0  0
   -2.3240   -1.2158   -0.4622 C   0  0  0  0  0  0  0  0  0  0  0  0
   -1.4477   -1.7617    0.1863 O   0  0  0  0  0  0  0  0  0  0  0  0
   -2.0695   -0.0679   -1.1857 N   0  0  0  0  0  0  0  0  0  0  0  0
   -2.8356    0.2583   -1.7643 H   0  0  0  0  0  0  0  0  0  0  0  0
   -0.9018    0.8374   -1.0838 C   0  0  1  0  0  0  0  0  0  0  0  0
   -0.0446    0.3216   -1.5280 H   0  0  0  0  0  0  0  0  0  0  0  0
   -1.1994    2.0854   -1.9448 C   0  0  0  0  0  0  0  0  0  0  0  0
   -2.1451    2.5336   -1.6234 H   0  0  0  0  0  0  0  0  0  0  0  0
   -0.4182    2.8405   -1.8072 H   0  0  0  0  0  0  0  0  0  0  0  0
   -1.2586    1.7411   -3.4119 C   0  0  0  0  0  0  0  0  0  0  0  0
   -2.3881    1.4900   -4.1547 C   0  0  0  0  0  0  0  0  0  0  0  0
   -3.4115    1.5403   -3.7914 H   0  0  0  0  0  0  0  0  0  0  0  0
   -1.9809    1.1776   -5.4499 N   0  0  0  0  0  0  0  0  0  0  0  0
   -2.5998    0.9658   -6.2302 H   0  0  0  0  0  0  0  0  0  0  0  0
   -0.5990    1.2212   -5.5450 C   0  0  0  0  0  0  0  0  0  0  0  0
    0.2678    0.9888   -6.6132 C   0  0  0  0  0  0  0  0  0  0  0  0
   -0.1240    0.7185   -7.5874 H   0  0  0  0  0  0  0  0  0  0  0  0
    1.6500    1.1086   -6.4097 C   0  0  0  0  0  0  0  0  0  0  0  0
    2.3371    0.9313   -7.2319 H   0  0  0  0  0  0  0  0  0  0  0  0
    2.1474    1.4583   -5.1448 C   0  0  0  0  0  0  0  0  0  0  0  0
    3.2181    1.5510   -4.9896 H   0  0  0  0  0  0  0  0  0  0  0  0
    1.2666    1.6907   -4.0787 C   0  0  0  0  0  0  0  0  0  0  0  0
    1.6466    1.9642   -3.0995 H   0  0  0  0  0  0  0  0  0  0  0  0
   -0.1103    1.5692   -4.2915 C   0  0  0  0  0  0  0  0  0  0  0  0
   -0.4365    1.2441    0.3484 C   0  0  0  0  0  0  0  0  0  0  0  0
   -0.4286    2.4211    0.6930 O   0  0  0  0  0  0  0  0  0  0  0  0
   -0.0255    0.3108    1.2793 N   0  0  0  0  0  0  0  0  0  0  0  0
   -0.2148   -0.6658    1.0378 H   0  0  0  0  0  0  0  0  0  0  0  0
    0.3194    0.6321    2.6580 C   0  0  0  0  0  0  0  0  0  0  0  0
   -0.5472    1.0452    3.1843 H   0  0  0  0  0  0  0  0  0  0  0  0
    0.6471   -0.2705    3.1824 H   0  0  0  0  0  0  0  0  0  0  0  0
    1.1340    1.3631    2.6898 H   0  0  0  0  0  0  0  0  0  0  0  0
  1  2  1  0  0  0  0
  2  3  1  0  0  0  0
  2  4  1  0  0  0  0
  2  5  1  0  0  0  0
  5  6  2  0  0  0  0
  5  7  1  0  0  0  0
  7  8  1  0  0  0  0
  7  9  1  0  0  0  0
  9 10  1  0  0  0  0
  9 11  1  0  0  0  0
  9 29  1  0  0  0  0
 11 12  1  0  0  0  0
 11 13  1  0  0  0  0
 11 14  1  0  0  0  0
 14 15  2  0  0  0  0
 14 28  1  0  0  0  0
 15 16  1  0  0  0  0
 15 17  1  0  0  0  0
 17 18  1  0  0  0  0
 17 19  1  0  0  0  0
 19 20  1  0  0  0  0
 19 28  2  0  0  0  0
 20 21  1  0  0  0  0
 20 22  2  0  0  0  0
 22 23  1  0  0  0  0
 22 24  1  0  0  0  0
 24 25  1  0  0  0  0
 24 26  2  0  0  0  0
 26 27  1  0  0  0  0
 26 28  1  0  0  0  0
 29 30  2  0  0  0  0
 29 31  1  0  0  0  0
 31 32  1  0  0  0  0
 31 33  1  0  0  0  0
 33 34  1  0  0  0  0
 33 35  1  0  0  0  0
 33 36  1  0  0  0  0
M  END
$$$$

  -OEChem-01062216103D

 36 37  0     1  0  0  0  0  0999 V2000
   -3.6428   -2.7227    0.2073 H   0  0  0  0  0  0  0  0  0  0  0  0
   -3.6233   -1.8725   -0.4805 C   0  0  0  0  0  0  0  0  0  0  0  0
   -4.4060   -1.1682   -0.1889 H   0  0  0  0  0  0  0  0  0  0  0  0
   -3.8234   -2.2336   -1.4920 H   0  0  0  0  0  0  0  0  0  0  0  0
   -2.2682   -1.1926   -0.4318 C   0  0  0  0  0  0  0  0  0  0  0  0
   -1.3623   -1.7010    0.2081 O   0  0  0  0  0  0  0  0  0  0  0  0
   -2.0504   -0.0585   -1.1880 N   0  0  0  0  0  0  0  0  0  0  0  0
   -2.8411    0.2680   -1.7320 H   0  0  0  0  0  0  0  0  0  0  0  0
   -0.8872    0.8495   -1.1030 C   0  0  1  0  0  0  0  0  0  0  0  0
   -0.0276    0.3369   -1.5469 H   0  0  0  0  0  0  0  0  0  0  0  0
   -1.1801    2.1015   -1.9560 C   0  0  0  0  0  0  0  0  0  0  0  0
   -2.1227    2.5539   -1.6308 H   0  0  0  0  0  0  0  0  0  0  0  0
   -0.3935    2.8500   -1.8125 H   0  0  0  0  0  0  0  0  0  0  0  0
   -1.2498    1.7604   -3.4228 C   0  0  0  0  0  0  0  0  0  0  0  0
   -2.3831    1.5181   -4.1628 C   0  0  0  0  0  0  0  0  0  0  0  0
   -3.4052    1.5751   -3.7963 H   0  0  0  0  0  0  0  0  0  0  0  0
   -1.9808    1.2036   -5.4592 N   0  0  0  0  0  0  0  0  0  0  0  0
   -2.6032    0.9957   -6.2376 H   0  0  0  0  0  0  0  0  0  0  0  0
   -0.5987    1.2352   -5.5568 C   0  0  0  0  0  0  0  0  0  0  0  0
    0.2653    0.9951   -6.6254 C   0  0  0  0  0  0  0  0  0  0  0  0
   -0.1302    0.7297   -7.5996 H   0  0  0  0  0  0  0  0  0  0  0  0
    1.6490    1.1006   -6.4227 C   0  0  0  0  0  0  0  0  0  0  0  0
    2.3336    0.9169   -7.2455 H   0  0  0  0  0  0  0  0  0  0  0  0
    2.1514    1.4443   -5.1581 C   0  0  0  0  0  0  0  0  0  0  0  0
    3.2232    1.5256   -5.0035 H   0  0  0  0  0  0  0  0  0  0  0  0
    1.2734    1.6856   -4.0919 C   0  0  0  0  0  0  0  0  0  0  0  0
    1.6571    1.9546   -3.1131 H   0  0  0  0  0  0  0  0  0  0  0  0
   -0.1049    1.5782   -4.3040 C   0  0  0  0  0  0  0  0  0  0  0  0
   -0.4458    1.2533    0.3325 C   0  0  0  0  0  0  0  0  0  0  0  0
   -0.6620    2.3820    0.7610 O   0  0  0  0  0  0  0  0  0  0  0  0
    0.2323    0.3635    1.1425 N   0  0  0  0  0  0  0  0  0  0  0  0
    0.1196   -0.6176    0.8737 H   0  0  0  0  0  0  0  0  0  0  0  0
    0.5712    0.6530    2.5296 C   0  0  0  0  0  0  0  0  0  0  0  0
   -0.3369    0.7962    3.1239 H   0  0  0  0  0  0  0  0  0  0  0  0
    1.1408   -0.1771    2.9580 H   0  0  0  0  0  0  0  0  0  0  0  0
    1.1829    1.5587    2.5953 H   0  0  0  0  0  0  0  0  0  0  0  0
  1  2  1  0  0  0  0
  2  3  1  0  0  0  0
  2  4  1  0  0  0  0
  2  5  1  0  0  0  0
  5  6  2  0  0  0  0
  5  7  1  0  0  0  0
  7  8  1  0  0  0  0
  7  9  1  0  0  0  0
  9 10  1  0  0  0  0
  9 11  1  0  0  0  0
  9 29  1  0  0  0  0
 11 12  1  0  0  0  0
 11 13  1  0  0  0  0
 11 14  1  0  0  0  0
 14 15  2  0  0  0  0
 14 28  1  0  0  0  0
 15 16  1  0  0  0  0
 15 17  1  0  0  0  0
 17 18  1  0  0  0  0
 17 19  1  0  0  0  0
 19 20  1  0  0  0  0
 19 28  2  0  0  0  0
 20 21  1  0  0  0  0
 20 22  2  0  0  0  0
 22 23  1  0  0  0  0
 22 24  1  0  0  0  0
 24 25  1  0  0  0  0
 24 26  2  0  0  0  0
 26 27  1  0  0  0  0
 26 28  1  0  0  0  0
 29 30  2  0  0  0  0
 29 31  1  0  0  0  0
 31 32  1  0  0  0  0
 31 33  1  0  0  0  0
 33 34  1  0  0  0  0
 33 35  1  0  0  0  0
 33 36  1  0  0  0  0
M  END
$$$$

  -OEChem-01062216103D

 36 37  0     1  0  0  0  0  0999 V2000
   -3.5633   -2.6900    0.3304 H   0  0  0  0  0  0  0  0  0  0  0  0
   -3.5708   -1.8694   -0.3925 C   0  0  0  0  0  0  0  0  0  0  0  0
   -4.3528   -1.1605   -0.1094 H   0  0  0  0  0  0  0  0  0  0  0  0
   -3.7941   -2.2741   -1.3827 H   0  0  0  0  0  0  0  0  0  0  0  0
   -2.2218   -1.1758   -0.4088 C   0  0  0  0  0  0  0  0  0  0  0  0
   -1.2881   -1.6476    0.2212 O   0  0  0  0  0  0  0  0  0  0  0  0
   -2.0349   -0.0614   -1.2016 N   0  0  0  0  0  0  0  0  0  0  0  0
   -2.8481    0.2721   -1.7069 H   0  0  0  0  0  0  0  0  0  0  0  0
   -0.8730    0.8453   -1.1239 C   0  0  1  0  0  0  0  0  0  0  0  0
   -0.0091    0.3340   -1.5609 H   0  0  0  0  0  0  0  0  0  0  0  0
   -1.1592    2.1024   -1.9686 C   0  0  0  0  0  0  0  0  0  0  0  0
   -2.1005    2.5564   -1.6416 H   0  0  0  0  0  0  0  0  0  0  0  0
   -0.3694    2.8459   -1.8165 H   0  0  0  0  0  0  0  0  0  0  0  0
   -1.2346    1.7670   -3.4358 C   0  0  0  0  0  0  0  0  0  0  0  0
   -2.3719    1.5349   -4.1724 C   0  0  0  0  0  0  0  0  0  0  0  0
   -3.3921    1.5942   -3.8011 H   0  0  0  0  0  0  0  0  0  0  0  0
   -1.9758    1.2246   -5.4716 N   0  0  0  0  0  0  0  0  0  0  0  0
   -2.6021    1.0194   -6.2475 H   0  0  0  0  0  0  0  0  0  0  0  0
   -0.5939    1.2515   -5.5745 C   0  0  0  0  0  0  0  0  0  0  0  0
    0.2641    1.0143   -6.6485 C   0  0  0  0  0  0  0  0  0  0  0  0
   -0.1372    0.7559   -7.6222 H   0  0  0  0  0  0  0  0  0  0  0  0
    1.6489    1.1147   -6.4517 C   0  0  0  0  0  0  0  0  0  0  0  0
    2.3291    0.9331   -7.2784 H   0  0  0  0  0  0  0  0  0  0  0  0
    2.1579    1.4507   -5.1876 C   0  0  0  0  0  0  0  0  0  0  0  0
    3.2306    1.5283   -5.0379 H   0  0  0  0  0  0  0  0  0  0  0  0
    1.2859    1.6889   -4.1160 C   0  0  0  0  0  0  0  0  0  0  0  0
    1.6751    1.9524   -3.1378 H   0  0  0  0  0  0  0  0  0  0  0  0
   -0.0936    1.5861   -4.3221 C   0  0  0  0  0  0  0  0  0  0  0  0
   -0.4682    1.2493    0.3179 C   0  0  0  0  0  0  0  0  0  0  0  0
   -0.8952    2.2834    0.8209 O   0  0  0  0  0  0  0  0  0  0  0  0
    0.4439    0.4860    1.0211 N   0  0  0  0  0  0  0  0  0  0  0  0
    0.4838   -0.4880    0.7159 H   0  0  0  0  0  0  0  0  0  0  0  0
    0.7852    0.7661    2.4097 C   0  0  0  0  0  0  0  0  0  0  0  0
   -0.1000    0.6736    3.0474 H   0  0  0  0  0  0  0  0  0  0  0  0
    1.5428    0.0591    2.7607 H   0  0  0  0  0  0  0  0  0  0  0  0
    1.1885    1.7792    2.5098 H   0  0  0  0  0  0  0  0  0  0  0  0
  1  2  1  0  0  0  0
  2  3  1  0  0  0  0
  2  4  1  0  0  0  0
  2  5  1  0  0  0  0
  5  6  2  0  0  0  0
  5  7  1  0  0  0  0
  7  8  1  0  0  0  0
  7  9  1  0  0  0  0
  9 10  1  0  0  0  0
  9 11  1  0  0  0  0
  9 29  1  0  0  0  0
 11 12  1  0  0  0  0
 11 13  1  0  0  0  0
 11 14  1  0  0  0  0
 14 15  2  0  0  0  0
 14 28  1  0  0  0  0
 15 16  1  0  0  0  0
 15 17  1  0  0  0  0
 17 18  1  0  0  0  0
 17 19  1  0  0  0  0
 19 20  1  0  0  0  0
 19 28  2  0  0  0  0
 20 21  1  0  0  0  0
 20 22  2  0  0  0  0
 22 23  1  0  0  0  0
 22 24  1  0  0  0  0
 24 25  1  0  0  0  0
 24 26  2  0  0  0  0
 26 27  1  0  0  0  0
 26 28  1  0  0  0  0
 29 30  2  0  0  0  0
 29 31  1  0  0  0  0
 31 32  1  0  0  0  0
 31 33  1  0  0  0  0
 33 34  1  0  0  0  0
 33 35  1  0  0  0  0
 33 36  1  0  0  0  0
M  END
$$$$

  -OEChem-01062216103D

 36 37  0     1  0  0  0  0  0999 V2000
   -3.5034   -2.6560    0.4287 H   0  0  0  0  0  0  0  0  0  0  0  0
   -3.5328   -1.8641   -0.3250 C   0  0  0  0  0  0  0  0  0  0  0  0
   -4.3078   -1.1454   -0.0476 H   0  0  0  0  0  0  0  0  0  0  0  0
   -3.7820   -2.3066   -1.2924 H   0  0  0  0  0  0  0  0  0  0  0  0
   -2.1864   -1.1709   -0.4044 C   0  0  0  0  0  0  0  0  0  0  0  0
   -1.2289   -1.6254    0.2030 O   0  0  0  0  0  0  0  0  0  0  0  0
   -2.0286   -0.0688   -1.2201 N   0  0  0  0  0  0  0  0  0  0  0  0
   -2.8695    0.2858   -1.6615 H   0  0  0  0  0  0  0  0  0  0  0  0
   -0.8715    0.8412   -1.1439 C   0  0  1  0  0  0  0  0  0  0  0  0
   -0.0043    0.3323   -1.5767 H   0  0  0  0  0  0  0  0  0  0  0  0
   -1.1520    2.1038   -1.9796 C   0  0  0  0  0  0  0  0  0  0  0  0
   -2.0933    2.5573   -1.6522 H   0  0  0  0  0  0  0  0  0  0  0  0
   -0.3615    2.8444   -1.8190 H   0  0  0  0  0  0  0  0  0  0  0  0
   -1.2266    1.7774   -3.4491 C   0  0  0  0  0  0  0  0  0  0  0  0
   -2.3649    1.5539   -4.1865 C   0  0  0  0  0  0  0  0  0  0  0  0
   -3.3843    1.6127   -3.8133 H   0  0  0  0  0  0  0  0  0  0  0  0
   -1.9716    1.2472   -5.4875 N   0  0  0  0  0  0  0  0  0  0  0  0
   -2.6002    1.0455   -6.2626 H   0  0  0  0  0  0  0  0  0  0  0  0
   -0.5897    1.2669   -5.5911 C   0  0  0  0  0  0  0  0  0  0  0  0
    0.2666    1.0262   -6.6658 C   0  0  0  0  0  0  0  0  0  0  0  0
   -0.1358    0.7686   -7.6393 H   0  0  0  0  0  0  0  0  0  0  0  0
    1.6520    1.1197   -6.4697 C   0  0  0  0  0  0  0  0  0  0  0  0
    2.3312    0.9342   -7.2967 H   0  0  0  0  0  0  0  0  0  0  0  0
    2.1632    1.4529   -5.2059 C   0  0  0  0  0  0  0  0  0  0  0  0
    3.2363    1.5254   -5.0573 H   0  0  0  0  0  0  0  0  0  0  0  0
    1.2931    1.6931   -4.1330 C   0  0  0  0  0  0  0  0  0  0  0  0
    1.6848    1.9533   -3.1551 H   0  0  0  0  0  0  0  0  0  0  0  0
   -0.0871    1.5959   -4.3378 C   0  0  0  0  0  0  0  0  0  0  0  0
   -0.4918    1.2441    0.3021 C   0  0  0  0  0  0  0  0  0  0  0  0
   -1.1232    2.1187    0.8859 O   0  0  0  0  0  0  0  0  0  0  0  0
    0.6198    0.6868    0.9054 N   0  0  0  0  0  0  0  0  0  0  0  0
    0.8991   -0.2136    0.5203 H   0  0  0  0  0  0  0  0  0  0  0  0
    0.9648    0.9589    2.2947 C   0  0  0  0  0  0  0  0  0  0  0  0
    0.1636    0.6224    2.9610 H   0  0  0  0  0  0  0  0  0  0  0  0
    1.8854    0.4322    2.5641 H   0  0  0  0  0  0  0  0  0  0  0  0
    1.1247    2.0313    2.4482 H   0  0  0  0  0  0  0  0  0  0  0  0
  1  2  1  0  0  0  0
  2  3  1  0  0  0  0
  2  4  1  0  0  0  0
  2  5  1  0  0  0  0
  5  6  2  0  0  0  0
  5  7  1  0  0  0  0
  7  8  1  0  0  0  0
  7  9  1  0  0  0  0
  9 10  1  0  0  0  0
  9 11  1  0  0  0  0
  9 29  1  0  0  0  0
 11 12  1  0  0  0  0
 11 13  1  0  0  0  0
 11 14  1  0  0  0  0
 14 15  2  0  0  0  0
 14 28  1  0  0  0  0
 15 16  1  0  0  0  0
 15 17  1  0  0  0  0
 17 18  1  0  0  0  0
 17 19  1  0  0  0  0
 19 20  1  0  0  0  0
 19 28  2  0  0  0  0
 20 21  1  0  0  0  0
 20 22  2  0  0  0  0
 22 23  1  0  0  0  0
 22 24  1  0  0  0  0
 24 25  1  0  0  0  0
 24 26  2  0  0  0  0
 26 27  1  0  0  0  0
 26 28  1  0  0  0  0
 29 30  2  0  0  0  0
 29 31  1  0  0  0  0
 31 32  1  0  0  0  0
 31 33  1  0  0  0  0
 33 34  1  0  0  0  0
 33 35  1  0  0  0  0
 33 36  1  0  0  0  0
M  END
$$$$

  -OEChem-01062216103D

 36 37  0     1  0  0  0  0  0999 V2000
   -3.4780   -2.6583    0.4580 H   0  0  0  0  0  0  0  0  0  0  0  0
   -3.5250   -1.8534   -0.2808 C   0  0  0  0  0  0  0  0  0  0  0  0
   -4.2744   -1.1262    0.0407 H   0  0  0  0  0  0  0  0  0  0  0  0
   -3.8226   -2.2745   -1.2440 H   0  0  0  0  0  0  0  0  0  0  0  0
   -2.1713   -1.1811   -0.4059 C   0  0  0  0  0  0  0  0  0  0  0  0
   -1.2042   -1.6378    0.1842 O   0  0  0  0  0  0  0  0  0  0  0  0
   -2.0208   -0.0907   -1.2385 N   0  0  0  0  0  0  0  0  0  0  0  0
   -2.8738    0.2799   -1.6413 H   0  0  0  0  0  0  0  0  0  0  0  0
   -0.8650    0.8200   -1.1600 C   0  0  1  0  0  0  0  0  0  0  0  0
    0.0052    0.3115   -1.5871 H   0  0  0  0  0  0  0  0  0  0  0  0
   -1.1444    2.0873   -1.9865 C   0  0  0  0  0  0  0  0  0  0  0  0
   -2.0850    2.5390   -1.6545 H   0  0  0  0  0  0  0  0  0  0  0  0
   -0.3530    2.8258   -1.8212 H   0  0  0  0  0  0  0  0  0  0  0  0
   -1.2210    1.7723   -3.4578 C   0  0  0  0  0  0  0  0  0  0  0  0
   -2.3604    1.5559   -4.1955 C   0  0  0  0  0  0  0  0  0  0  0  0
   -3.3793    1.6120   -3.8201 H   0  0  0  0  0  0  0  0  0  0  0  0
   -1.9687    1.2594   -5.4994 N   0  0  0  0  0  0  0  0  0  0  0  0
   -2.5983    1.0625   -6.2748 H   0  0  0  0  0  0  0  0  0  0  0  0
   -0.5869    1.2782   -5.6044 C   0  0  0  0  0  0  0  0  0  0  0  0
    0.2684    1.0453   -6.6814 C   0  0  0  0  0  0  0  0  0  0  0  0
   -0.1353    0.7965   -7.6564 H   0  0  0  0  0  0  0  0  0  0  0  0
    1.6542    1.1360   -6.4855 C   0  0  0  0  0  0  0  0  0  0  0  0
    2.3326    0.9566   -7.3146 H   0  0  0  0  0  0  0  0  0  0  0  0
    2.1666    1.4589   -5.2194 C   0  0  0  0  0  0  0  0  0  0  0  0
    3.2397    1.5299   -5.0707 H   0  0  0  0  0  0  0  0  0  0  0  0
    1.2973    1.6914   -4.1444 C   0  0  0  0  0  0  0  0  0  0  0  0
    1.6887    1.9441   -3.1645 H   0  0  0  0  0  0  0  0  0  0  0  0
   -0.0828    1.5968   -4.3491 C   0  0  0  0  0  0  0  0  0  0  0  0
   -0.5043    1.2326    0.2866 C   0  0  0  0  0  0  0  0  0  0  0  0
   -1.2867    1.9167    0.9385 O   0  0  0  0  0  0  0  0  0  0  0  0
    0.7428    0.9385    0.8062 N   0  0  0  0  0  0  0  0  0  0  0  0
    1.2452    0.1889    0.3380 H   0  0  0  0  0  0  0  0  0  0  0  0
    1.0979    1.2365    2.1878 C   0  0  0  0  0  0  0  0  0  0  0  0
    0.4416    0.6941    2.8763 H   0  0  0  0  0  0  0  0  0  0  0  0
    2.1320    0.9378    2.3844 H   0  0  0  0  0  0  0  0  0  0  0  0
    1.0067    2.3097    2.3856 H   0  0  0  0  0  0  0  0  0  0  0  0
  1  2  1  0  0  0  0
  2  3  1  0  0  0  0
  2  4  1  0  0  0  0
  2  5  1  0  0  0  0
  5  6  2  0  0  0  0
  5  7  1  0  0  0  0
  7  8  1  0  0  0  0
  7  9  1  0  0  0  0
  9 10  1  0  0  0  0
  9 11  1  0  0  0  0
  9 29  1  0  0  0  0
 11 12  1  0  0  0  0
 11 13  1  0  0  0  0
 11 14  1  0  0  0  0
 14 15  2  0  0  0  0
 14 28  1  0  0  0  0
 15 16  1  0  0  0  0
 15 17  1  0  0  0  0
 17 18  1  0  0  0  0
 17 19  1  0  0  0  0
 19 20  1  0  0  0  0
 19 28  2  0  0  0  0
 20 21  1  0  0  0  0
 20 22  2  0  0  0  0
 22 23  1  0  0  0  0
 22 24  1  0  0  0  0
 24 25  1  0  0  0  0
 24 26  2  0  0  0  0
 26 27  1  0  0  0  0
 26 28  1  0  0  0  0
 29 30  2  0  0  0  0
 29 31  1  0  0  0  0
 31 32  1  0  0  0  0
 31 33  1  0  0  0  0
 33 34  1  0  0  0  0
 33 35  1  0  0  0  0
 33 36  1  0  0  0  0
M  END
$$$$

  -OEChem-01062216103D

 36 37  0     1  0  0  0  0  0999 V2000
   -3.4745   -2.6440    0.5070 H   0  0  0  0  0  0  0  0  0  0  0  0
   -3.5274   -1.8565   -0.2502 C   0  0  0  0  0  0  0  0  0  0  0  0
   -4.2671   -1.1165    0.0650 H   0  0  0  0  0  0  0  0  0  0  0  0
   -3.8416   -2.2988   -1.1986 H   0  0  0  0  0  0  0  0  0  0  0  0
   -2.1712   -1.1973   -0.4113 C   0  0  0  0  0  0  0  0  0  0  0  0
   -1.1930   -1.6675    0.1492 O   0  0  0  0  0  0  0  0  0  0  0  0
   -2.0288   -0.1111   -1.2514 N   0  0  0  0  0  0  0  0  0  0  0  0
   -2.8926    0.2754   -1.6137 H   0  0  0  0  0  0  0  0  0  0  0  0
   -0.8737    0.8009   -1.1669 C   0  0  1  0  0  0  0  0  0  0  0  0
   -0.0023    0.2906   -1.5895 H   0  0  0  0  0  0  0  0  0  0  0  0
   -1.1485    2.0721   -1.9874 C   0  0  0  0  0  0  0  0  0  0  0  0
   -2.0892    2.5231   -1.6551 H   0  0  0  0  0  0  0  0  0  0  0  0
   -0.3570    2.8090   -1.8164 H   0  0  0  0  0  0  0  0  0  0  0  0
   -1.2205    1.7656   -3.4605 C   0  0  0  0  0  0  0  0  0  0  0  0
   -2.3581    1.5549   -4.2025 C   0  0  0  0  0  0  0  0  0  0  0  0
   -3.3779    1.6054   -3.8289 H   0  0  0  0  0  0  0  0  0  0  0  0
   -1.9629    1.2724   -5.5083 N   0  0  0  0  0  0  0  0  0  0  0  0
   -2.5901    1.0814   -6.2870 H   0  0  0  0  0  0  0  0  0  0  0  0
   -0.5810    1.2920   -5.6096 C   0  0  0  0  0  0  0  0  0  0  0  0
    0.2757    1.0671   -6.6874 C   0  0  0  0  0  0  0  0  0  0  0  0
   -0.1270    0.8276   -7.6654 H   0  0  0  0  0  0  0  0  0  0  0  0
    1.6611    1.1527   -6.4879 C   0  0  0  0  0  0  0  0  0  0  0  0
    2.3401    0.9780   -7.3173 H   0  0  0  0  0  0  0  0  0  0  0  0
    2.1718    1.4649   -5.2183 C   0  0  0  0  0  0  0  0  0  0  0  0
    3.2451    1.5321   -5.0677 H   0  0  0  0  0  0  0  0  0  0  0  0
    1.3007    1.6912   -4.1430 C   0  0  0  0  0  0  0  0  0  0  0  0
    1.6909    1.9357   -3.1608 H   0  0  0  0  0  0  0  0  0  0  0  0
   -0.0794    1.5994   -4.3505 C   0  0  0  0  0  0  0  0  0  0  0  0
   -0.5183    1.2194    0.2786 C   0  0  0  0  0  0  0  0  0  0  0  0
   -1.3839    1.7022    1.0016 O   0  0  0  0  0  0  0  0  0  0  0  0
    0.7976    1.2142    0.7037 N   0  0  0  0  0  0  0  0  0  0  0  0
    1.4466    0.6643    0.1486 H   0  0  0  0  0  0  0  0  0  0  0  0
    1.1798    1.5629    2.0661 C   0  0  0  0  0  0  0  0  0  0  0  0
    0.6895    0.8967    2.7841 H   0  0  0  0  0  0  0  0  0  0  0  0
    2.2629    1.4695    2.1898 H   0  0  0  0  0  0  0  0  0  0  0  0
    0.8955    2.5961    2.2916 H   0  0  0  0  0  0  0  0  0  0  0  0
  1  2  1  0  0  0  0
  2  3  1  0  0  0  0
  2  4  1  0  0  0  0
  2  5  1  0  0  0  0
  5  6  2  0  0  0  0
  5  7  1  0  0  0  0
  7  8  1  0  0  0  0
  7  9  1  0  0  0  0
  9 10  1  0  0  0  0
  9 11  1  0  0  0  0
  9 29  1  0  0  0  0
 11 12  1  0  0  0  0
 11 13  1  0  0  0  0
 11 14  1  0  0  0  0
 14 15  2  0  0  0  0
 14 28  1  0  0  0  0
 15 16  1  0  0  0  0
 15 17  1  0  0  0  0
 17 18  1  0  0  0  0
 17 19  1  0  0  0  0
 19 20  1  0  0  0  0
 19 28  2  0  0  0  0
 20 21  1  0  0  0  0
 20 22  2  0  0  0  0
 22 23  1  0  0  0  0
 22 24  1  0  0  0  0
 24 25  1  0  0  0  0
 24 26  2  0  0  0  0
 26 27  1  0  0  0  0
 26 28  1  0  0  0  0
 29 30  2  0  0  0  0
 29 31  1  0  0  0  0
 31 32  1  0  0  0  0
 31 33  1  0  0  0  0
 33 34  1  0  0  0  0
 33 35  1  0  0  0  0
 33 36  1  0  0  0  0
M  END
$$$$

  -OEChem-01062216103D

 36 37  0     1  0  0  0  0  0999 V2000
   -3.4779   -2.6793    0.4780 H   0  0  0  0  0  0  0  0  0  0  0  0
   -3.5481   -1.8396   -0.2191 C   0  0  0  0  0  0  0  0  0  0  0  0
   -4.2406   -1.1003    0.1906 H   0  0  0  0  0  0  0  0  0  0  0  0
   -3.9338   -2.2051   -1.1736 H   0  0  0  0  0  0  0  0  0  0  0  0
   -2.1817   -1.2120   -0.4175 C   0  0  0  0  0  0  0  0  0  0  0  0
   -1.1981   -1.7074    0.1110 O   0  0  0  0  0  0  0  0  0  0  0  0
   -2.0371   -0.1286   -1.2612 N   0  0  0  0  0  0  0  0  0  0  0  0
   -2.9056    0.2770   -1.5893 H   0  0  0  0  0  0  0  0  0  0  0  0
   -0.8782    0.7788   -1.1660 C   0  0  1  0  0  0  0  0  0  0  0  0
   -0.0061    0.2648   -1.5822 H   0  0  0  0  0  0  0  0  0  0  0  0
   -1.1512    2.0486   -1.9890 C   0  0  0  0  0  0  0  0  0  0  0  0
   -2.0946    2.4974   -1.6612 H   0  0  0  0  0  0  0  0  0  0  0  0
   -0.3629    2.7885   -1.8165 H   0  0  0  0  0  0  0  0  0  0  0  0
   -1.2156    1.7406   -3.4623 C   0  0  0  0  0  0  0  0  0  0  0  0
   -2.3508    1.5273   -4.2074 C   0  0  0  0  0  0  0  0  0  0  0  0
   -3.3714    1.5688   -3.8346 H   0  0  0  0  0  0  0  0  0  0  0  0
   -1.9522    1.2558   -5.5143 N   0  0  0  0  0  0  0  0  0  0  0  0
   -2.5775    1.0604   -6.2934 H   0  0  0  0  0  0  0  0  0  0  0  0
   -0.5706    1.2905   -5.6151 C   0  0  0  0  0  0  0  0  0  0  0  0
    0.2880    1.0866   -6.6954 C   0  0  0  0  0  0  0  0  0  0  0  0
   -0.1122    0.8528   -7.6758 H   0  0  0  0  0  0  0  0  0  0  0  0
    1.6723    1.1873   -6.4961 C   0  0  0  0  0  0  0  0  0  0  0  0
    2.3526    1.0310   -7.3280 H   0  0  0  0  0  0  0  0  0  0  0  0
    2.1803    1.4908   -5.2234 C   0  0  0  0  0  0  0  0  0  0  0  0
    3.2529    1.5693   -5.0736 H   0  0  0  0  0  0  0  0  0  0  0  0
    1.3074    1.6945   -4.1451 C   0  0  0  0  0  0  0  0  0  0  0  0
    1.6963    1.9322   -3.1609 H   0  0  0  0  0  0  0  0  0  0  0  0
   -0.0721    1.5911   -4.3528 C   0  0  0  0  0  0  0  0  0  0  0  0
   -0.5250    1.2026    0.2795 C   0  0  0  0  0  0  0  0  0  0  0  0
   -1.4198    1.4963    1.0661 O   0  0  0  0  0  0  0  0  0  0  0  0
    0.7858    1.4900    0.6167 N   0  0  0  0  0  0  0  0  0  0  0  0
    1.5045    1.1459   -0.0128 H   0  0  0  0  0  0  0  0  0  0  0  0
    1.1795    1.9073    1.9566 C   0  0  0  0  0  0  0  0  0  0  0  0
    0.9225    1.1344    2.6889 H   0  0  0  0  0  0  0  0  0  0  0  0
    2.2595    2.0783    1.9969 H   0  0  0  0  0  0  0  0  0  0  0  0
    0.6737    2.8383    2.2333 H   0  0  0  0  0  0  0  0  0  0  0  0
  1  2  1  0  0  0  0
  2  3  1  0  0  0  0
  2  4  1  0  0  0  0
  2  5  1  0  0  0  0
  5  6  2  0  0  0  0
  5  7  1  0  0  0  0
  7  8  1  0  0  0  0
  7  9  1  0  0  0  0
  9 10  1  0  0  0  0
  9 11  1  0  0  0  0
  9 29  1  0  0  0  0
 11 12  1  0  0  0  0
 11 13  1  0  0  0  0
 11 14  1  0  0  0  0
 14 15  2  0  0  0  0
 14 28  1  0  0  0  0
 15 16  1  0  0  0  0
 15 17  1  0  0  0  0
 17 18  1  0  0  0  0
 17 19  1  0  0  0  0
 19 20  1  0  0  0  0
 19 28  2  0  0  0  0
 20 21  1  0  0  0  0
 20 22  2  0  0  0  0
 22 23  1  0  0  0  0
 22 24  1  0  0  0  0
 24 25  1  0  0  0  0
 24 26  2  0  0  0  0
 26 27  1  0  0  0  0
 26 28  1  0  0  0  0
 29 30  2  0  0  0  0
 29 31  1  0  0  0  0
 31 32  1  0  0  0  0
 31 33  1  0  0  0  0
 33 34  1  0  0  0  0
 33 35  1  0  0  0  0
 33 36  1  0  0  0  0
M  END
$$$$

  -OEChem-01062216103D

 36 37  0     1  0  0  0  0  0999 V2000
   -3.4911   -2.6843    0.4749 H   0  0  0  0  0  0  0  0  0  0  0  0
   -3.5605   -1.8317   -0.2064 C   0  0  0  0  0  0  0  0  0  0  0  0
   -4.2255   -1.0845    0.2333 H   0  0  0  0  0  0  0  0  0  0  0  0
   -3.9779   -2.1718   -1.1569 H   0  0  0  0  0  0  0  0  0  0  0  0
   -2.1860   -1.2305   -0.4289 C   0  0  0  0  0  0  0  0  0  0  0  0
   -1.2004   -1.7544    0.0676 O   0  0  0  0  0  0  0  0  0  0  0  0
   -2.0362   -0.1447   -1.2695 N   0  0  0  0  0  0  0  0  0  0  0  0
   -2.9049    0.2715   -1.5826 H   0  0  0  0  0  0  0  0  0  0  0  0
   -0.8743    0.7588   -1.1630 C   0  0  1  0  0  0  0  0  0  0  0  0
   -0.0009    0.2450   -1.5774 H   0  0  0  0  0  0  0  0  0  0  0  0
   -1.1530    2.0296   -1.9856 C   0  0  0  0  0  0  0  0  0  0  0  0
   -2.0983    2.4731   -1.6561 H   0  0  0  0  0  0  0  0  0  0  0  0
   -0.3693    2.7746   -1.8147 H   0  0  0  0  0  0  0  0  0  0  0  0
   -1.2156    1.7277   -3.4601 C   0  0  0  0  0  0  0  0  0  0  0  0
   -2.3498    1.5123   -4.2064 C   0  0  0  0  0  0  0  0  0  0  0  0
   -3.3708    1.5450   -3.8339 H   0  0  0  0  0  0  0  0  0  0  0  0
   -1.9496    1.2514   -5.5149 N   0  0  0  0  0  0  0  0  0  0  0  0
   -2.5736    1.0541   -6.2947 H   0  0  0  0  0  0  0  0  0  0  0  0
   -0.5681    1.2942   -5.6152 C   0  0  0  0  0  0  0  0  0  0  0  0
    0.2915    1.1008   -6.6966 C   0  0  0  0  0  0  0  0  0  0  0  0
   -0.1078    0.8695   -7.6779 H   0  0  0  0  0  0  0  0  0  0  0  0
    1.6752    1.2086   -6.4974 C   0  0  0  0  0  0  0  0  0  0  0  0
    2.3558    1.0603   -7.3306 H   0  0  0  0  0  0  0  0  0  0  0  0
    2.1814    1.5079   -5.2230 C   0  0  0  0  0  0  0  0  0  0  0  0
    3.2537    1.5901   -5.0727 H   0  0  0  0  0  0  0  0  0  0  0  0
    1.3074    1.7004   -4.1436 C   0  0  0  0  0  0  0  0  0  0  0  0
    1.6954    1.9331   -3.1584 H   0  0  0  0  0  0  0  0  0  0  0  0
   -0.0714    1.5904   -4.3513 C   0  0  0  0  0  0  0  0  0  0  0  0
   -0.5180    1.1849    0.2837 C   0  0  0  0  0  0  0  0  0  0  0  0
   -1.3992    1.2895    1.1312 O   0  0  0  0  0  0  0  0  0  0  0  0
    0.7136    1.7595    0.5472 N   0  0  0  0  0  0  0  0  0  0  0  0
    1.4407    1.6301   -0.1493 H   0  0  0  0  0  0  0  0  0  0  0  0
    1.0913    2.2506    1.8670 C   0  0  0  0  0  0  0  0  0  0  0  0
    1.0392    1.4429    2.6047 H   0  0  0  0  0  0  0  0  0  0  0  0
    2.1145    2.6377    1.8484 H   0  0  0  0  0  0  0  0  0  0  0  0
    0.4229    3.0589    2.1816 H   0  0  0  0  0  0  0  0  0  0  0  0
  1  2  1  0  0  0  0
  2  3  1  0  0  0  0
  2  4  1  0  0  0  0
  2  5  1  0  0  0  0
  5  6  2  0  0  0  0
  5  7  1  0  0  0  0
  7  8  1  0  0  0  0
  7  9  1  0  0  0  0
  9 10  1  0  0  0  0
  9 11  1  0  0  0  0
  9 29  1  0  0  0  0
 11 12  1  0  0  0  0
 11 13  1  0  0  0  0
 11 14  1  0  0  0  0
 14 15  2  0  0  0  0
 14 28  1  0  0  0  0
 15 16  1  0  0  0  0
 15 17  1  0  0  0  0
 17 18  1  0  0  0  0
 17 19  1  0  0  0  0
 19 20  1  0  0  0  0
 19 28  2  0  0  0  0
 20 21  1  0  0  0  0
 20 22  2  0  0  0  0
 22 23  1  0  0  0  0
 22 24  1  0  0  0  0
 24 25  1  0  0  0  0
 24 26  2  0  0  0  0
 26 27  1  0  0  0  0
 26 28  1  0  0  0  0
 29 30  2  0  0  0  0
 29 31  1  0  0  0  0
 31 32  1  0  0  0  0
 31 33  1  0  0  0  0
 33 34  1  0  0  0  0
 33 35  1  0  0  0  0
 33 36  1  0  0  0  0
M  END
$$$$

  -OEChem-01062216103D

 36 37  0     1  0  0  0  0  0999 V2000
   -3.5964   -2.6824    0.3828 H   0  0  0  0  0  0  0  0  0  0  0  0
   -3.6299   -1.7885   -0.2464 C   0  0  0  0  0  0  0  0  0  0  0  0
   -4.2174   -1.0226    0.2655 H   0  0  0  0  0  0  0  0  0  0  0  0
   -4.1121   -2.0404   -1.1938 H   0  0  0  0  0  0  0  0  0  0  0  0
   -2.2239   -1.2786   -0.4978 C   0  0  0  0  0  0  0  0  0  0  0  0
   -1.2622   -1.9474   -0.1540 O   0  0  0  0  0  0  0  0  0  0  0  0
   -2.0267   -0.1592   -1.2827 N   0  0  0  0  0  0  0  0  0  0  0  0
   -2.8829    0.2842   -1.5915 H   0  0  0  0  0  0  0  0  0  0  0  0
   -0.8610    0.7403   -1.1399 C   0  0  1  0  0  0  0  0  0  0  0  0
   -0.0660    0.3663   -1.7927 H   0  0  0  0  0  0  0  0  0  0  0  0
   -1.3029    2.1379   -1.6230 C   0  0  0  0  0  0  0  0  0  0  0  0
   -2.1959    2.4446   -1.0685 H   0  0  0  0  0  0  0  0  0  0  0  0
   -0.5286    2.8839   -1.4213 H   0  0  0  0  0  0  0  0  0  0  0  0
   -1.5885    2.1483   -3.1033 C   0  0  0  0  0  0  0  0  0  0  0  0
   -2.8206    2.0256   -3.7018 C   0  0  0  0  0  0  0  0  0  0  0  0
   -3.7721    1.9252   -3.1851 H   0  0  0  0  0  0  0  0  0  0  0  0
   -2.6259    2.0627   -5.0801 N   0  0  0  0  0  0  0  0  0  0  0  0
   -3.3601    1.9978   -5.7827 H   0  0  0  0  0  0  0  0  0  0  0  0
   -1.2797    2.2046   -5.3736 C   0  0  0  0  0  0  0  0  0  0  0  0
   -0.5998    2.2867   -6.5887 C   0  0  0  0  0  0  0  0  0  0  0  0
   -1.1453    2.2391   -7.5247 H   0  0  0  0  0  0  0  0  0  0  0  0
    0.7948    2.4292   -6.5828 C   0  0  0  0  0  0  0  0  0  0  0  0
    1.3365    2.4942   -7.5219 H   0  0  0  0  0  0  0  0  0  0  0  0
    1.4908    2.4866   -5.3656 C   0  0  0  0  0  0  0  0  0  0  0  0
    2.5711    2.5958   -5.3654 H   0  0  0  0  0  0  0  0  0  0  0  0
    0.7961    2.4033   -4.1502 C   0  0  0  0  0  0  0  0  0  0  0  0
    1.3317    2.4490   -3.2087 H   0  0  0  0  0  0  0  0  0  0  0  0
   -0.5958    2.2619   -4.1648 C   0  0  0  0  0  0  0  0  0  0  0  0
   -0.2393    0.8826    0.2807 C   0  0  0  0  0  0  0  0  0  0  0  0
   -0.9058    0.6525    1.2842 O   0  0  0  0  0  0  0  0  0  0  0  0
    0.8598    1.7090    0.4587 N   0  0  0  0  0  0  0  0  0  0  0  0
    1.4013    1.9440   -0.3667 H   0  0  0  0  0  0  0  0  0  0  0  0
    1.3974    2.0604    1.7688 C   0  0  0  0  0  0  0  0  0  0  0  0
    1.6623    1.1573    2.3290 H   0  0  0  0  0  0  0  0  0  0  0  0
    2.2967    2.6735    1.6568 H   0  0  0  0  0  0  0  0  0  0  0  0
    0.6614    2.6303    2.3457 H   0  0  0  0  0  0  0  0  0  0  0  0
  1  2  1  0  0  0  0
  2  3  1  0  0  0  0
  2  4  1  0  0  0  0
  2  5  1  0  0  0  0
  5  6  2  0  0  0  0
  5  7  1  0  0  0  0
  7  8  1  0  0  0  0
  7  9  1  0  0  0  0
  9 10  1  0  0  0  0
  9 11  1  0  0  0  0
  9 29  1  0  0  0  0
 11 12  1  0  0  0  0
 11 13  1  0  0  0  0
 11 14  1  0  0  0  0
 14 15  2  0  0  0  0
 14 28  1  0  0  0  0
 15 16  1  0  0  0  0
 15 17  1  0  0  0  0
 17 18  1  0  0  0  0
 17 19  1  0  0  0  0
 19 20  1  0  0  0  0
 19 28  2  0  0  0  0
 20 21  1  0  0  0  0
 20 22  2  0  0  0  0
 22 23  1  0  0  0  0
 22 24  1  0  0  0  0
 24 25  1  0  0  0  0
 24 26  2  0  0  0  0
 26 27  1  0  0  0  0
 26 28  1  0  0  0  0
 29 30  2  0  0  0  0
 29 31  1  0  0  0  0
 31 32  1  0  0  0  0
 31 33  1  0  0  0  0
 33 34  1  0  0  0  0
 33 35  1  0  0  0  0
 33 36  1  0  0  0  0
M  END
$$$$

  -OEChem-01062216103D

 36 37  0     1  0  0  0  0  0999 V2000
   -3.5937   -2.6498    0.4044 H   0  0  0  0  0  0  0  0  0  0  0  0
   -3.6291   -1.7612   -0.2320 C   0  0  0  0  0  0  0  0  0  0  0  0
   -4.1864   -0.9800    0.2899 H   0  0  0  0  0  0  0  0  0  0  0  0
   -4.1434   -2.0123   -1.1623 H   0  0  0  0  0  0  0  0  0  0  0  0
   -2.2212   -1.2811   -0.5286 C   0  0  0  0  0  0  0  0  0  0  0  0
   -1.2681   -2.0021   -0.2815 O   0  0  0  0  0  0  0  0  0  0  0  0
   -2.0261   -0.1423   -1.2853 N   0  0  0  0  0  0  0  0  0  0  0  0
   -2.8874    0.3113   -1.5623 H   0  0  0  0  0  0  0  0  0  0  0  0
   -0.8629    0.7618   -1.1347 C   0  0  1  0  0  0  0  0  0  0  0  0
   -0.0713    0.3945   -1.7955 H   0  0  0  0  0  0  0  0  0  0  0  0
   -1.3282    2.1507   -1.6311 C   0  0  0  0  0  0  0  0  0  0  0  0
   -2.2281    2.4462   -1.0811 H   0  0  0  0  0  0  0  0  0  0  0  0
   -0.5717    2.9171   -1.4434 H   0  0  0  0  0  0  0  0  0  0  0  0
   -1.6070    2.1449   -3.1129 C   0  0  0  0  0  0  0  0  0  0  0  0
   -2.8324    1.9963   -3.7195 C   0  0  0  0  0  0  0  0  0  0  0  0
   -3.7864    1.8844   -3.2101 H   0  0  0  0  0  0  0  0  0  0  0  0
   -2.6280    2.0264   -5.0965 N   0  0  0  0  0  0  0  0  0  0  0  0
   -3.3550    1.9392   -5.8041 H   0  0  0  0  0  0  0  0  0  0  0  0
   -1.2817    2.1856   -5.3815 C   0  0  0  0  0  0  0  0  0  0  0  0
   -0.5940    2.2692   -6.5921 C   0  0  0  0  0  0  0  0  0  0  0  0
   -1.1316    2.2115   -7.5321 H   0  0  0  0  0  0  0  0  0  0  0  0
    0.7989    2.4279   -6.5764 C   0  0  0  0  0  0  0  0  0  0  0  0
    1.3478    2.4940   -7.5112 H   0  0  0  0  0  0  0  0  0  0  0  0
    1.4851    2.5002   -5.3545 C   0  0  0  0  0  0  0  0  0  0  0  0
    2.5643    2.6206   -5.3471 H   0  0  0  0  0  0  0  0  0  0  0  0
    0.7827    2.4169   -4.1437 C   0  0  0  0  0  0  0  0  0  0  0  0
    1.3131    2.4718   -3.1997 H   0  0  0  0  0  0  0  0  0  0  0  0
   -0.6077    2.2612   -4.1679 C   0  0  0  0  0  0  0  0  0  0  0  0
   -0.2085    0.8986    0.2788 C   0  0  0  0  0  0  0  0  0  0  0  0
   -0.7173    0.4075    1.2789 O   0  0  0  0  0  0  0  0  0  0  0  0
    0.6695    1.9442    0.5271 N   0  0  0  0  0  0  0  0  0  0  0  0
    1.0705    2.4144   -0.2778 H   0  0  0  0  0  0  0  0  0  0  0  0
    1.1753    2.2833    1.8536 C   0  0  0  0  0  0  0  0  0  0  0  0
    1.6742    1.4201    2.3066 H   0  0  0  0  0  0  0  0  0  0  0  0
    1.8978    3.1020    1.7843 H   0  0  0  0  0  0  0  0  0  0  0  0
    0.3564    2.6009    2.5075 H   0  0  0  0  0  0  0  0  0  0  0  0
  1  2  1  0  0  0  0
  2  3  1  0  0  0  0
  2  4  1  0  0  0  0
  2  5  1  0  0  0  0
  5  6  2  0  0  0  0
  5  7  1  0  0  0  0
  7  8  1  0  0  0  0
  7  9  1  0  0  0  0
  9 10  1  0  0  0  0
  9 11  1  0  0  0  0
  9 29  1  0  0  0  0
 11 12  1  0  0  0  0
 11 13  1  0  0  0  0
 11 14  1  0  0  0  0
 14 15  2  0  0  0  0
 14 28  1  0  0  0  0
 15 16  1  0  0  0  0
 15 17  1  0  0  0  0
 17 18  1  0  0  0  0
 17 19  1  0  0  0  0
 19 20  1  0  0  0  0
 19 28  2  0  0  0  0
 20 21  1  0  0  0  0
 20 22  2  0  0  0  0
 22 23  1  0  0  0  0
 22 24  1  0  0  0  0
 24 25  1  0  0  0  0
 24 26  2  0  0  0  0
 26 27  1  0  0  0  0
 26 28  1  0  0  0  0
 29 30  2  0  0  0  0
 29 31  1  0  0  0  0
 31 32  1  0  0  0  0
 31 33  1  0  0  0  0
 33 34  1  0  0  0  0
 33 35  1  0  0  0  0
 33 36  1  0  0  0  0
M  END
$$$$

  -OEChem-01062216103D

 36 37  0     1  0  0  0  0  0999 V2000
   -3.5830   -2.6481    0.3953 H   0  0  0  0  0  0  0  0  0  0  0  0
   -3.6247   -1.7229   -0.1864 C   0  0  0  0  0  0  0  0  0  0  0  0
   -4.1178   -0.9547    0.4138 H   0  0  0  0  0  0  0  0  0  0  0  0
   -4.2059   -1.9017   -1.0938 H   0  0  0  0  0  0  0  0  0  0  0  0
   -2.2209   -1.2754   -0.5466 C   0  0  0  0  0  0  0  0  0  0  0  0
   -1.2864   -2.0450   -0.4011 O   0  0  0  0  0  0  0  0  0  0  0  0
   -2.0356   -0.1221   -1.2830 N   0  0  0  0  0  0  0  0  0  0  0  0
   -2.9061    0.3301   -1.5315 H   0  0  0  0  0  0  0  0  0  0  0  0
   -0.8872    0.8027   -1.1297 C   0  0  1  0  0  0  0  0  0  0  0  0
   -0.0906    0.4412   -1.7880 H   0  0  0  0  0  0  0  0  0  0  0  0
   -1.3723    2.1750   -1.6576 C   0  0  0  0  0  0  0  0  0  0  0  0
   -2.2824    2.4674   -1.1238 H   0  0  0  0  0  0  0  0  0  0  0  0
   -0.6299    2.9577   -1.4850 H   0  0  0  0  0  0  0  0  0  0  0  0
   -1.6300    2.1365   -3.1424 C   0  0  0  0  0  0  0  0  0  0  0  0
   -2.8432    1.9528   -3.7636 C   0  0  0  0  0  0  0  0  0  0  0  0
   -3.8013    1.8245   -3.2660 H   0  0  0  0  0  0  0  0  0  0  0  0
   -2.6198    1.9698   -5.1380 N   0  0  0  0  0  0  0  0  0  0  0  0
   -3.3337    1.8530   -5.8546 H   0  0  0  0  0  0  0  0  0  0  0  0
   -1.2735    2.1552   -5.4065 C   0  0  0  0  0  0  0  0  0  0  0  0
   -0.5706    2.2360   -6.6087 C   0  0  0  0  0  0  0  0  0  0  0  0
   -1.0933    2.1512   -7.5549 H   0  0  0  0  0  0  0  0  0  0  0  0
    0.8181    2.4253   -6.5763 C   0  0  0  0  0  0  0  0  0  0  0  0
    1.3791    2.4884   -7.5041 H   0  0  0  0  0  0  0  0  0  0  0  0
    1.4852    2.5307   -5.3464 C   0  0  0  0  0  0  0  0  0  0  0  0
    2.5614    2.6738   -5.3257 H   0  0  0  0  0  0  0  0  0  0  0  0
    0.7678    2.4493   -4.1443 C   0  0  0  0  0  0  0  0  0  0  0  0
    1.2848    2.5275   -3.1942 H   0  0  0  0  0  0  0  0  0  0  0  0
   -0.6185    2.2623   -4.1850 C   0  0  0  0  0  0  0  0  0  0  0  0
   -0.2144    0.9480    0.2789 C   0  0  0  0  0  0  0  0  0  0  0  0
   -0.4282    0.1795    1.2050 O   0  0  0  0  0  0  0  0  0  0  0  0
    0.3877    2.1432    0.6481 N   0  0  0  0  0  0  0  0  0  0  0  0
    0.5695    2.8195   -0.0859 H   0  0  0  0  0  0  0  0  0  0  0  0
    0.9211    2.4067    1.9811 C   0  0  0  0  0  0  0  0  0  0  0  0
    1.6878    1.6686    2.2400 H   0  0  0  0  0  0  0  0  0  0  0  0
    1.3736    3.4022    2.0174 H   0  0  0  0  0  0  0  0  0  0  0  0
    0.1229    2.3636    2.7298 H   0  0  0  0  0  0  0  0  0  0  0  0
  1  2  1  0  0  0  0
  2  3  1  0  0  0  0
  2  4  1  0  0  0  0
  2  5  1  0  0  0  0
  5  6  2  0  0  0  0
  5  7  1  0  0  0  0
  7  8  1  0  0  0  0
  7  9  1  0  0  0  0
  9 10  1  0  0  0  0
  9 11  1  0  0  0  0
  9 29  1  0  0  0  0
 11 12  1  0  0  0  0
 11 13  1  0  0  0  0
 11 14  1  0  0  0  0
 14 15  2  0  0  0  0
 14 28  1  0  0  0  0
 15 16  1  0  0  0  0
 15 17  1  0  0  0  0
 17 18  1  0  0  0  0
 17 19  1  0  0  0  0
 19 20  1  0  0  0  0
 19 28  2  0  0  0  0
 20 21  1  0  0  0  0
 20 22  2  0  0  0  0
 22 23  1  0  0  0  0
 22 24  1  0  0  0  0
 24 25  1  0  0  0  0
 24 26  2  0  0  0  0
 26 27  1  0  0  0  0
 26 28  1  0  0  0  0
 29 30  2  0  0  0  0
 29 31  1  0  0  0  0
 31 32  1  0  0  0  0
 31 33  1  0  0  0  0
 33 34  1  0  0  0  0
 33 35  1  0  0  0  0
 33 36  1  0  0  0  0
M  END
$$$$

  -OEChem-01062216103D

 36 37  0     1  0  0  0  0  0999 V2000
   -3.4487   -2.8884   -0.2613 H   0  0  0  0  0  0  0  0  0  0  0  0
   -3.3487   -2.0543   -0.9620 C   0  0  0  0  0  0  0  0  0  0  0  0
   -4.3456   -1.7018   -1.2367 H   0  0  0  0  0  0  0  0  0  0  0  0
   -2.8332   -2.4104   -1.8571 H   0  0  0  0  0  0  0  0  0  0  0  0
   -2.5581   -0.9289   -0.3214 C   0  0  0  0  0  0  0  0  0  0  0  0
   -2.4088   -0.9305    0.8856 O   0  0  0  0  0  0  0  0  0  0  0  0
   -2.2449    0.1814   -1.0815 N   0  0  0  0  0  0  0  0  0  0  0  0
   -2.5813    0.0992   -2.0363 H   0  0  0  0  0  0  0  0  0  0  0  0
   -1.0215    1.0110   -0.9764 C   0  0  1  0  0  0  0  0  0  0  0  0
   -0.2619    0.5728   -1.6322 H   0  0  0  0  0  0  0  0  0  0  0  0
   -1.4052    2.3963   -1.5385 C   0  0  0  0  0  0  0  0  0  0  0  0
   -2.2803    2.7798   -1.0031 H   0  0  0  0  0  0  0  0  0  0  0  0
   -0.5911    3.1154   -1.4080 H   0  0  0  0  0  0  0  0  0  0  0  0
   -1.6921    2.3075   -3.0151 C   0  0  0  0  0  0  0  0  0  0  0  0
   -2.9328    2.1903   -3.5957 C   0  0  0  0  0  0  0  0  0  0  0  0
   -3.8831    2.1888   -3.0652 H   0  0  0  0  0  0  0  0  0  0  0  0
   -2.7435    2.0789   -4.9711 N   0  0  0  0  0  0  0  0  0  0  0  0
   -3.4850    2.0066   -5.6658 H   0  0  0  0  0  0  0  0  0  0  0  0
   -1.3921    2.1145   -5.2776 C   0  0  0  0  0  0  0  0  0  0  0  0
   -0.7113    2.0346   -6.4927 C   0  0  0  0  0  0  0  0  0  0  0  0
   -1.2596    1.9278   -7.4222 H   0  0  0  0  0  0  0  0  0  0  0  0
    0.6898    2.0920   -6.4957 C   0  0  0  0  0  0  0  0  0  0  0  0
    1.2336    2.0297   -7.4338 H   0  0  0  0  0  0  0  0  0  0  0  0
    1.3916    2.2293   -5.2881 C   0  0  0  0  0  0  0  0  0  0  0  0
    2.4768    2.2721   -5.2941 H   0  0  0  0  0  0  0  0  0  0  0  0
    0.6971    2.3119   -4.0729 C   0  0  0  0  0  0  0  0  0  0  0  0
    1.2383    2.4185   -3.1383 H   0  0  0  0  0  0  0  0  0  0  0  0
   -0.7006    2.2547   -4.0799 C   0  0  0  0  0  0  0  0  0  0  0  0
   -0.3196    1.1313    0.4090 C   0  0  0  0  0  0  0  0  0  0  0  0
    0.2657    0.1506    0.8499 O   0  0  0  0  0  0  0  0  0  0  0  0
    0.1149    2.3534    0.9033 N   0  0  0  0  0  0  0  0  0  0  0  0
   -0.3310    3.1856    0.5328 H   0  0  0  0  0  0  0  0  0  0  0  0
    0.9619    2.4876    2.0838 C   0  0  0  0  0  0  0  0  0  0  0  0
    1.9516    2.0581    1.8964 H   0  0  0  0  0  0  0  0  0  0  0  0
    1.0874    3.5438    2.3405 H   0  0  0  0  0  0  0  0  0  0  0  0
    0.5115    1.9747    2.9403 H   0  0  0  0  0  0  0  0  0  0  0  0
  1  2  1  0  0  0  0
  2  3  1  0  0  0  0
  2  4  1  0  0  0  0
  2  5  1  0  0  0  0
  5  6  2  0  0  0  0
  5  7  1  0  0  0  0
  7  8  1  0  0  0  0
  7  9  1  0  0  0  0
  9 10  1  0  0  0  0
  9 11  1  0  0  0  0
  9 29  1  0  0  0  0
 11 12  1  0  0  0  0
 11 13  1  0  0  0  0
 11 14  1  0  0  0  0
 14 15  2  0  0  0  0
 14 28  1  0  0  0  0
 15 16  1  0  0  0  0
 15 17  1  0  0  0  0
 17 18  1  0  0  0  0
 17 19  1  0  0  0  0
 19 20  1  0  0  0  0
 19 28  2  0  0  0  0
 20 21  1  0  0  0  0
 20 22  2  0  0  0  0
 22 23  1  0  0  0  0
 22 24  1  0  0  0  0
 24 25  1  0  0  0  0
 24 26  2  0  0  0  0
 26 27  1  0  0  0  0
 26 28  1  0  0  0  0
 29 30  2  0  0  0  0
 29 31  1  0  0  0  0
 31 32  1  0  0  0  0
 31 33  1  0  0  0  0
 33 34  1  0  0  0  0
 33 35  1  0  0  0  0
 33 36  1  0  0  0  0
M  END
$$$$

  -OEChem-01062216103D

 36 37  0     1  0  0  0  0  0999 V2000
   -3.5437   -2.8660   -0.2221 H   0  0  0  0  0  0  0  0  0  0  0  0
   -3.4367   -2.0319   -0.9218 C   0  0  0  0  0  0  0  0  0  0  0  0
   -4.4231   -1.6028   -1.1129 H   0  0  0  0  0  0  0  0  0  0  0  0
   -3.0214   -2.4123   -1.8583 H   0  0  0  0  0  0  0  0  0  0  0  0
   -2.5160   -0.9773   -0.3370 C   0  0  0  0  0  0  0  0  0  0  0  0
   -2.1858   -1.0703    0.8294 O   0  0  0  0  0  0  0  0  0  0  0  0
   -2.2181    0.1389   -1.0958 N   0  0  0  0  0  0  0  0  0  0  0  0
   -2.6073    0.0950   -2.0328 H   0  0  0  0  0  0  0  0  0  0  0  0
   -1.0093    0.9890   -0.9962 C   0  0  1  0  0  0  0  0  0  0  0  0
   -0.2457    0.5578   -1.6522 H   0  0  0  0  0  0  0  0  0  0  0  0
   -1.3981    2.3736   -1.5544 C   0  0  0  0  0  0  0  0  0  0  0  0
   -2.2766    2.7521   -1.0214 H   0  0  0  0  0  0  0  0  0  0  0  0
   -0.5841    3.0915   -1.4118 H   0  0  0  0  0  0  0  0  0  0  0  0
   -1.6837    2.2913   -3.0313 C   0  0  0  0  0  0  0  0  0  0  0  0
   -2.9219    2.1722   -3.6170 C   0  0  0  0  0  0  0  0  0  0  0  0
   -3.8742    2.1652   -3.0903 H   0  0  0  0  0  0  0  0  0  0  0  0
   -2.7277    2.0684   -4.9925 N   0  0  0  0  0  0  0  0  0  0  0  0
   -3.4660    1.9964   -5.6905 H   0  0  0  0  0  0  0  0  0  0  0  0
   -1.3755    2.1141   -5.2942 C   0  0  0  0  0  0  0  0  0  0  0  0
   -0.6898    2.0461   -6.5071 C   0  0  0  0  0  0  0  0  0  0  0  0
   -1.2340    1.9377   -7.4387 H   0  0  0  0  0  0  0  0  0  0  0  0
    0.7104    2.1180   -6.5052 C   0  0  0  0  0  0  0  0  0  0  0  0
    1.2573    2.0661   -7.4422 H   0  0  0  0  0  0  0  0  0  0  0  0
    1.4068    2.2563   -5.2946 C   0  0  0  0  0  0  0  0  0  0  0  0
    2.4914    2.3111   -5.2968 H   0  0  0  0  0  0  0  0  0  0  0  0
    0.7078    2.3234   -4.0810 C   0  0  0  0  0  0  0  0  0  0  0  0
    1.2443    2.4290   -3.1432 H   0  0  0  0  0  0  0  0  0  0  0  0
   -0.6891    2.2525   -4.0935 C   0  0  0  0  0  0  0  0  0  0  0  0
   -0.3132    1.1172    0.3893 C   0  0  0  0  0  0  0  0  0  0  0  0
    0.4644    0.2347    0.7300 O   0  0  0  0  0  0  0  0  0  0  0  0
   -0.1717    2.3404    1.0288 N   0  0  0  0  0  0  0  0  0  0  0  0
   -0.8127    3.0779    0.7564 H   0  0  0  0  0  0  0  0  0  0  0  0
    0.6177    2.5183    2.2425 C   0  0  0  0  0  0  0  0  0  0  0  0
    1.6749    2.3098    2.0466 H   0  0  0  0  0  0  0  0  0  0  0  0
    0.5307    3.5477    2.6029 H   0  0  0  0  0  0  0  0  0  0  0  0
    0.2655    1.8440    3.0307 H   0  0  0  0  0  0  0  0  0  0  0  0
  1  2  1  0  0  0  0
  2  3  1  0  0  0  0
  2  4  1  0  0  0  0
  2  5  1  0  0  0  0
  5  6  2  0  0  0  0
  5  7  1  0  0  0  0
  7  8  1  0  0  0  0
  7  9  1  0  0  0  0
  9 10  1  0  0  0  0
  9 11  1  0  0  0  0
  9 29  1  0  0  0  0
 11 12  1  0  0  0  0
 11 13  1  0  0  0  0
 11 14  1  0  0  0  0
 14 15  2  0  0  0  0
 14 28  1  0  0  0  0
 15 16  1  0  0  0  0
 15 17  1  0  0  0  0
 17 18  1  0  0  0  0
 17 19  1  0  0  0  0
 19 20  1  0  0  0  0
 19 28  2  0  0  0  0
 20 21  1  0  0  0  0
 20 22  2  0  0  0  0
 22 23  1  0  0  0  0
 22 24  1  0  0  0  0
 24 25  1  0  0  0  0
 24 26  2  0  0  0  0
 26 27  1  0  0  0  0
 26 28  1  0  0  0  0
 29 30  2  0  0  0  0
 29 31  1  0  0  0  0
 31 32  1  0  0  0  0
 31 33  1  0  0  0  0
 33 34  1  0  0  0  0
 33 35  1  0  0  0  0
 33 36  1  0  0  0  0
M  END
$$$$

  -OEChem-01062216103D

 36 37  0     1  0  0  0  0  0999 V2000
   -3.5783   -2.8618   -0.1758 H   0  0  0  0  0  0  0  0  0  0  0  0
   -3.4843   -2.0249   -0.8738 C   0  0  0  0  0  0  0  0  0  0  0  0
   -4.4632   -1.5545   -0.9925 H   0  0  0  0  0  0  0  0  0  0  0  0
   -3.1515   -2.4116   -1.8399 H   0  0  0  0  0  0  0  0  0  0  0  0
   -2.4817   -1.0154   -0.3460 C   0  0  0  0  0  0  0  0  0  0  0  0
   -2.0362   -1.1620    0.7757 O   0  0  0  0  0  0  0  0  0  0  0  0
   -2.1960    0.0998   -1.1114 N   0  0  0  0  0  0  0  0  0  0  0  0
   -2.6246    0.0803   -2.0319 H   0  0  0  0  0  0  0  0  0  0  0  0
   -0.9974    0.9636   -1.0168 C   0  0  1  0  0  0  0  0  0  0  0  0
   -0.2307    0.5384   -1.6736 H   0  0  0  0  0  0  0  0  0  0  0  0
   -1.3875    2.3496   -1.5659 C   0  0  0  0  0  0  0  0  0  0  0  0
   -2.2679    2.7224   -1.0324 H   0  0  0  0  0  0  0  0  0  0  0  0
   -0.5738    3.0658   -1.4091 H   0  0  0  0  0  0  0  0  0  0  0  0
   -1.6760    2.2788   -3.0425 C   0  0  0  0  0  0  0  0  0  0  0  0
   -2.9134    2.1642   -3.6305 C   0  0  0  0  0  0  0  0  0  0  0  0
   -3.8662    2.1511   -3.1051 H   0  0  0  0  0  0  0  0  0  0  0  0
   -2.7174    2.0796   -5.0072 N   0  0  0  0  0  0  0  0  0  0  0  0
   -3.4546    2.0208   -5.7076 H   0  0  0  0  0  0  0  0  0  0  0  0
   -1.3647    2.1293   -5.3066 C   0  0  0  0  0  0  0  0  0  0  0  0
   -0.6762    2.0764   -6.5187 C   0  0  0  0  0  0  0  0  0  0  0  0
   -1.2177    1.9810   -7.4533 H   0  0  0  0  0  0  0  0  0  0  0  0
    0.7243    2.1458   -6.5130 C   0  0  0  0  0  0  0  0  0  0  0  0
    1.2734    2.1052   -7.4491 H   0  0  0  0  0  0  0  0  0  0  0  0
    1.4185    2.2663   -5.2993 C   0  0  0  0  0  0  0  0  0  0  0  0
    2.5032    2.3183   -5.2976 H   0  0  0  0  0  0  0  0  0  0  0  0
    0.7165    2.3193   -4.0868 C   0  0  0  0  0  0  0  0  0  0  0  0
    1.2503    2.4109   -3.1460 H   0  0  0  0  0  0  0  0  0  0  0  0
   -0.6804    2.2519   -4.1035 C   0  0  0  0  0  0  0  0  0  0  0  0
   -0.3091    1.1047    0.3689 C   0  0  0  0  0  0  0  0  0  0  0  0
    0.6276    0.3614    0.6336 O   0  0  0  0  0  0  0  0  0  0  0  0
   -0.4471    2.2511    1.1373 N   0  0  0  0  0  0  0  0  0  0  0  0
   -1.2489    2.8399    0.9392 H   0  0  0  0  0  0  0  0  0  0  0  0
    0.2753    2.4577    2.3868 C   0  0  0  0  0  0  0  0  0  0  0  0
    1.3555    2.4741    2.2074 H   0  0  0  0  0  0  0  0  0  0  0  0
   -0.0129    3.4125    2.8367 H   0  0  0  0  0  0  0  0  0  0  0  0
    0.0480    1.6558    3.0971 H   0  0  0  0  0  0  0  0  0  0  0  0
  1  2  1  0  0  0  0
  2  3  1  0  0  0  0
  2  4  1  0  0  0  0
  2  5  1  0  0  0  0
  5  6  2  0  0  0  0
  5  7  1  0  0  0  0
  7  8  1  0  0  0  0
  7  9  1  0  0  0  0
  9 10  1  0  0  0  0
  9 11  1  0  0  0  0
  9 29  1  0  0  0  0
 11 12  1  0  0  0  0
 11 13  1  0  0  0  0
 11 14  1  0  0  0  0
 14 15  2  0  0  0  0
 14 28  1  0  0  0  0
 15 16  1  0  0  0  0
 15 17  1  0  0  0  0
 17 18  1  0  0  0  0
 17 19  1  0  0  0  0
 19 20  1  0  0  0  0
 19 28  2  0  0  0  0
 20 21  1  0  0  0  0
 20 22  2  0  0  0  0
 22 23  1  0  0  0  0
 22 24  1  0  0  0  0
 24 25  1  0  0  0  0
 24 26  2  0  0  0  0
 26 27  1  0  0  0  0
 26 28  1  0  0  0  0
 29 30  2  0  0  0  0
 29 31  1  0  0  0  0
 31 32  1  0  0  0  0
 31 33  1  0  0  0  0
 33 34  1  0  0  0  0
 33 35  1  0  0  0  0
 33 36  1  0  0  0  0
M  END
$$$$

  -OEChem-01062216103D

 36 37  0     1  0  0  0  0  0999 V2000
   -3.5930   -2.8521   -0.1361 H   0  0  0  0  0  0  0  0  0  0  0  0
   -3.5029   -2.0195   -0.8398 C   0  0  0  0  0  0  0  0  0  0  0  0
   -4.4723   -1.5227   -0.9235 H   0  0  0  0  0  0  0  0  0  0  0  0
   -3.2170   -2.4171   -1.8166 H   0  0  0  0  0  0  0  0  0  0  0  0
   -2.4553   -1.0357   -0.3528 C   0  0  0  0  0  0  0  0  0  0  0  0
   -1.9344   -1.2177    0.7311 O   0  0  0  0  0  0  0  0  0  0  0  0
   -2.1796    0.0781   -1.1237 N   0  0  0  0  0  0  0  0  0  0  0  0
   -2.6362    0.0774   -2.0310 H   0  0  0  0  0  0  0  0  0  0  0  0
   -0.9881    0.9500   -1.0319 C   0  0  1  0  0  0  0  0  0  0  0  0
   -0.2194    0.5277   -1.6882 H   0  0  0  0  0  0  0  0  0  0  0  0
   -1.3751    2.3391   -1.5714 C   0  0  0  0  0  0  0  0  0  0  0  0
   -2.2555    2.7102   -1.0373 H   0  0  0  0  0  0  0  0  0  0  0  0
   -0.5602    3.0512   -1.4032 H   0  0  0  0  0  0  0  0  0  0  0  0
   -1.6656    2.2797   -3.0482 C   0  0  0  0  0  0  0  0  0  0  0  0
   -2.9043    2.1729   -3.6353 C   0  0  0  0  0  0  0  0  0  0  0  0
   -3.8566    2.1589   -3.1093 H   0  0  0  0  0  0  0  0  0  0  0  0
   -2.7110    2.0985   -5.0128 N   0  0  0  0  0  0  0  0  0  0  0  0
   -3.4496    2.0441   -5.7119 H   0  0  0  0  0  0  0  0  0  0  0  0
   -1.3586    2.1451   -5.3141 C   0  0  0  0  0  0  0  0  0  0  0  0
   -0.6727    2.0987   -6.5281 C   0  0  0  0  0  0  0  0  0  0  0  0
   -1.2179    2.0166   -7.4619 H   0  0  0  0  0  0  0  0  0  0  0  0
    0.7286    2.1566   -6.5236 C   0  0  0  0  0  0  0  0  0  0  0  0
    1.2767    2.1193   -7.4604 H   0  0  0  0  0  0  0  0  0  0  0  0
    1.4252    2.2609   -5.3095 C   0  0  0  0  0  0  0  0  0  0  0  0
    2.5104    2.3027   -5.3078 H   0  0  0  0  0  0  0  0  0  0  0  0
    0.7256    2.3110   -4.0957 C   0  0  0  0  0  0  0  0  0  0  0  0
    1.2615    2.3911   -3.1550 H   0  0  0  0  0  0  0  0  0  0  0  0
   -0.6718    2.2543   -4.1109 C   0  0  0  0  0  0  0  0  0  0  0  0
   -0.3072    1.0989    0.3534 C   0  0  0  0  0  0  0  0  0  0  0  0
    0.7645    0.5385    0.5473 O   0  0  0  0  0  0  0  0  0  0  0  0
   -0.6937    2.0923    1.2387 N   0  0  0  0  0  0  0  0  0  0  0  0
   -1.6229    2.4767    1.1053 H   0  0  0  0  0  0  0  0  0  0  0  0
   -0.0378    2.2952    2.5246 C   0  0  0  0  0  0  0  0  0  0  0  0
    1.0189    2.5442    2.3813 H   0  0  0  0  0  0  0  0  0  0  0  0
   -0.5144    3.1176    3.0663 H   0  0  0  0  0  0  0  0  0  0  0  0
   -0.1064    1.3894    3.1364 H   0  0  0  0  0  0  0  0  0  0  0  0
  1  2  1  0  0  0  0
  2  3  1  0  0  0  0
  2  4  1  0  0  0  0
  2  5  1  0  0  0  0
  5  6  2  0  0  0  0
  5  7  1  0  0  0  0
  7  8  1  0  0  0  0
  7  9  1  0  0  0  0
  9 10  1  0  0  0  0
  9 11  1  0  0  0  0
  9 29  1  0  0  0  0
 11 12  1  0  0  0  0
 11 13  1  0  0  0  0
 11 14  1  0  0  0  0
 14 15  2  0  0  0  0
 14 28  1  0  0  0  0
 15 16  1  0  0  0  0
 15 17  1  0  0  0  0
 17 18  1  0  0  0  0
 17 19  1  0  0  0  0
 19 20  1  0  0  0  0
 19 28  2  0  0  0  0
 20 21  1  0  0  0  0
 20 22  2  0  0  0  0
 22 23  1  0  0  0  0
 22 24  1  0  0  0  0
 24 25  1  0  0  0  0
 24 26  2  0  0  0  0
 26 27  1  0  0  0  0
 26 28  1  0  0  0  0
 29 30  2  0  0  0  0
 29 31  1  0  0  0  0
 31 32  1  0  0  0  0
 31 33  1  0  0  0  0
 33 34  1  0  0  0  0
 33 35  1  0  0  0  0
 33 36  1  0  0  0  0
M  END
$$$$

  -OEChem-01062216103D

 36 37  0     1  0  0  0  0  0999 V2000
   -3.6112   -2.8444   -0.1120 H   0  0  0  0  0  0  0  0  0  0  0  0
   -3.5212   -2.0159   -0.8203 C   0  0  0  0  0  0  0  0  0  0  0  0
   -4.4825   -1.5007   -0.8831 H   0  0  0  0  0  0  0  0  0  0  0  0
   -3.2650   -2.4209   -1.8024 H   0  0  0  0  0  0  0  0  0  0  0  0
   -2.4447   -1.0509   -0.3601 C   0  0  0  0  0  0  0  0  0  0  0  0
   -1.8916   -1.2452    0.7060 O   0  0  0  0  0  0  0  0  0  0  0  0
   -2.1677    0.0579   -1.1374 N   0  0  0  0  0  0  0  0  0  0  0  0
   -2.6337    0.0642   -2.0402 H   0  0  0  0  0  0  0  0  0  0  0  0
   -0.9786    0.9329   -1.0450 C   0  0  1  0  0  0  0  0  0  0  0  0
   -0.2072    0.5128   -1.6997 H   0  0  0  0  0  0  0  0  0  0  0  0
   -1.3616    2.3272   -1.5701 C   0  0  0  0  0  0  0  0  0  0  0  0
   -2.2385    2.6971   -1.0294 H   0  0  0  0  0  0  0  0  0  0  0  0
   -0.5437    3.0345   -1.3950 H   0  0  0  0  0  0  0  0  0  0  0  0
   -1.6561    2.2811   -3.0461 C   0  0  0  0  0  0  0  0  0  0  0  0
   -2.8962    2.1834   -3.6310 C   0  0  0  0  0  0  0  0  0  0  0  0
   -3.8472    2.1712   -3.1031 H   0  0  0  0  0  0  0  0  0  0  0  0
   -2.7066    2.1156   -5.0094 N   0  0  0  0  0  0  0  0  0  0  0  0
   -3.4472    2.0705   -5.7072 H   0  0  0  0  0  0  0  0  0  0  0  0
   -1.3547    2.1572   -5.3134 C   0  0  0  0  0  0  0  0  0  0  0  0
   -0.6709    2.1139   -6.5285 C   0  0  0  0  0  0  0  0  0  0  0  0
   -1.2177    2.0393   -7.4619 H   0  0  0  0  0  0  0  0  0  0  0  0
    0.7306    2.1657   -6.5260 C   0  0  0  0  0  0  0  0  0  0  0  0
    1.2773    2.1314   -7.4638 H   0  0  0  0  0  0  0  0  0  0  0  0
    1.4298    2.2602   -5.3126 C   0  0  0  0  0  0  0  0  0  0  0  0
    2.5151    2.2974   -5.3121 H   0  0  0  0  0  0  0  0  0  0  0  0
    0.7323    2.3068   -4.0974 C   0  0  0  0  0  0  0  0  0  0  0  0
    1.2701    2.3796   -3.1568 H   0  0  0  0  0  0  0  0  0  0  0  0
   -0.6652    2.2568   -4.1110 C   0  0  0  0  0  0  0  0  0  0  0  0
   -0.3081    1.0924    0.3413 C   0  0  0  0  0  0  0  0  0  0  0  0
    0.8647    0.7645    0.4739 O   0  0  0  0  0  0  0  0  0  0  0  0
   -0.8961    1.8724    1.3228 N   0  0  0  0  0  0  0  0  0  0  0  0
   -1.9008    1.9912    1.2430 H   0  0  0  0  0  0  0  0  0  0  0  0
   -0.2840    2.0625    2.6317 C   0  0  0  0  0  0  0  0  0  0  0  0
    0.6979    2.5368    2.5309 H   0  0  0  0  0  0  0  0  0  0  0  0
   -0.9140    2.7053    3.2534 H   0  0  0  0  0  0  0  0  0  0  0  0
   -0.1605    1.0999    3.1391 H   0  0  0  0  0  0  0  0  0  0  0  0
  1  2  1  0  0  0  0
  2  3  1  0  0  0  0
  2  4  1  0  0  0  0
  2  5  1  0  0  0  0
  5  6  2  0  0  0  0
  5  7  1  0  0  0  0
  7  8  1  0  0  0  0
  7  9  1  0  0  0  0
  9 10  1  0  0  0  0
  9 11  1  0  0  0  0
  9 29  1  0  0  0  0
 11 12  1  0  0  0  0
 11 13  1  0  0  0  0
 11 14  1  0  0  0  0
 14 15  2  0  0  0  0
 14 28  1  0  0  0  0
 15 16  1  0  0  0  0
 15 17  1  0  0  0  0
 17 18  1  0  0  0  0
 17 19  1  0  0  0  0
 19 20  1  0  0  0  0
 19 28  2  0  0  0  0
 20 21  1  0  0  0  0
 20 22  2  0  0  0  0
 22 23  1  0  0  0  0
 22 24  1  0  0  0  0
 24 25  1  0  0  0  0
 24 26  2  0  0  0  0
 26 27  1  0  0  0  0
 26 28  1  0  0  0  0
 29 30  2  0  0  0  0
 29 31  1  0  0  0  0
 31 32  1  0  0  0  0
 31 33  1  0  0  0  0
 33 34  1  0  0  0  0
 33 35  1  0  0  0  0
 33 36  1  0  0  0  0
M  END
$$$$

  -OEChem-01062216103D

 36 37  0     1  0  0  0  0  0999 V2000
   -3.6567   -2.8393   -0.1009 H   0  0  0  0  0  0  0  0  0  0  0  0
   -3.5619   -2.0104   -0.8084 C   0  0  0  0  0  0  0  0  0  0  0  0
   -4.5133   -1.4751   -0.8520 H   0  0  0  0  0  0  0  0  0  0  0  0
   -3.3337   -2.4178   -1.7963 H   0  0  0  0  0  0  0  0  0  0  0  0
   -2.4555   -1.0706   -0.3670 C   0  0  0  0  0  0  0  0  0  0  0  0
   -1.8753   -1.2887    0.6800 O   0  0  0  0  0  0  0  0  0  0  0  0
   -2.1655    0.0340   -1.1451 N   0  0  0  0  0  0  0  0  0  0  0  0
   -2.6490    0.0616   -2.0381 H   0  0  0  0  0  0  0  0  0  0  0  0
   -0.9748    0.9080   -1.0486 C   0  0  1  0  0  0  0  0  0  0  0  0
   -0.2016    0.4875   -1.7009 H   0  0  0  0  0  0  0  0  0  0  0  0
   -1.3544    2.3047   -1.5674 C   0  0  0  0  0  0  0  0  0  0  0  0
   -2.2282    2.6754   -1.0219 H   0  0  0  0  0  0  0  0  0  0  0  0
   -0.5337    3.0083   -1.3901 H   0  0  0  0  0  0  0  0  0  0  0  0
   -1.6483    2.2659   -3.0443 C   0  0  0  0  0  0  0  0  0  0  0  0
   -2.8886    2.1734   -3.6302 C   0  0  0  0  0  0  0  0  0  0  0  0
   -3.8398    2.1590   -3.1026 H   0  0  0  0  0  0  0  0  0  0  0  0
   -2.6988    2.1146   -5.0090 N   0  0  0  0  0  0  0  0  0  0  0  0
   -3.4389    2.0770   -5.7076 H   0  0  0  0  0  0  0  0  0  0  0  0
   -1.3469    2.1611   -5.3126 C   0  0  0  0  0  0  0  0  0  0  0  0
   -0.6639    2.1303   -6.5287 C   0  0  0  0  0  0  0  0  0  0  0  0
   -1.2104    2.0601   -7.4626 H   0  0  0  0  0  0  0  0  0  0  0  0
    0.7372    2.1904   -6.5272 C   0  0  0  0  0  0  0  0  0  0  0  0
    1.2827    2.1669   -7.4659 H   0  0  0  0  0  0  0  0  0  0  0  0
    1.4368    2.2795   -5.3137 C   0  0  0  0  0  0  0  0  0  0  0  0
    2.5218    2.3250   -5.3148 H   0  0  0  0  0  0  0  0  0  0  0  0
    0.7404    2.3108   -4.0971 C   0  0  0  0  0  0  0  0  0  0  0  0
    1.2782    2.3795   -3.1563 H   0  0  0  0  0  0  0  0  0  0  0  0
   -0.6570    2.2534   -4.1098 C   0  0  0  0  0  0  0  0  0  0  0  0
   -0.3087    1.0812    0.3371 C   0  0  0  0  0  0  0  0  0  0  0  0
    0.9115    1.0115    0.4214 O   0  0  0  0  0  0  0  0  0  0  0  0
   -1.0277    1.6035    1.3982 N   0  0  0  0  0  0  0  0  0  0  0  0
   -2.0299    1.4492    1.3480 H   0  0  0  0  0  0  0  0  0  0  0  0
   -0.4353    1.7851    2.7171 C   0  0  0  0  0  0  0  0  0  0  0  0
    0.4224    2.4638    2.6638 H   0  0  0  0  0  0  0  0  0  0  0  0
   -1.1698    2.2145    3.4048 H   0  0  0  0  0  0  0  0  0  0  0  0
   -0.1002    0.8238    3.1209 H   0  0  0  0  0  0  0  0  0  0  0  0
  1  2  1  0  0  0  0
  2  3  1  0  0  0  0
  2  4  1  0  0  0  0
  2  5  1  0  0  0  0
  5  6  2  0  0  0  0
  5  7  1  0  0  0  0
  7  8  1  0  0  0  0
  7  9  1  0  0  0  0
  9 10  1  0  0  0  0
  9 11  1  0  0  0  0
  9 29  1  0  0  0  0
 11 12  1  0  0  0  0
 11 13  1  0  0  0  0
 11 14  1  0  0  0  0
 14 15  2  0  0  0  0
 14 28  1  0  0  0  0
 15 16  1  0  0  0  0
 15 17  1  0  0  0  0
 17 18  1  0  0  0  0
 17 19  1  0  0  0  0
 19 20  1  0  0  0  0
 19 28  2  0  0  0  0
 20 21  1  0  0  0  0
 20 22  2  0  0  0  0
 22 23  1  0  0  0  0
 22 24  1  0  0  0  0
 24 25  1  0  0  0  0
 24 26  2  0  0  0  0
 26 27  1  0  0  0  0
 26 28  1  0  0  0  0
 29 30  2  0  0  0  0
 29 31  1  0  0  0  0
 31 32  1  0  0  0  0
 31 33  1  0  0  0  0
 33 34  1  0  0  0  0
 33 35  1  0  0  0  0
 33 36  1  0  0  0  0
M  END
$$$$

  -OEChem-01062216103D

 36 37  0     1  0  0  0  0  0999 V2000
   -3.7339   -2.8353   -0.1568 H   0  0  0  0  0  0  0  0  0  0  0  0
   -3.6155   -2.0003   -0.8535 C   0  0  0  0  0  0  0  0  0  0  0  0
   -4.5518   -1.4384   -0.8915 H   0  0  0  0  0  0  0  0  0  0  0  0
   -3.3972   -2.4015   -1.8463 H   0  0  0  0  0  0  0  0  0  0  0  0
   -2.4846   -1.0964   -0.3997 C   0  0  0  0  0  0  0  0  0  0  0  0
   -1.9067   -1.3443    0.6420 O   0  0  0  0  0  0  0  0  0  0  0  0
   -2.1688    0.0120   -1.1608 N   0  0  0  0  0  0  0  0  0  0  0  0
   -2.6579    0.0688   -2.0497 H   0  0  0  0  0  0  0  0  0  0  0  0
   -0.9771    0.8844   -1.0475 C   0  0  1  0  0  0  0  0  0  0  0  0
   -0.2002    0.4719   -1.7002 H   0  0  0  0  0  0  0  0  0  0  0  0
   -1.3681    2.2824   -1.5556 C   0  0  0  0  0  0  0  0  0  0  0  0
   -2.2461    2.6388   -1.0074 H   0  0  0  0  0  0  0  0  0  0  0  0
   -0.5562    2.9947   -1.3716 H   0  0  0  0  0  0  0  0  0  0  0  0
   -1.6581    2.2539   -3.0339 C   0  0  0  0  0  0  0  0  0  0  0  0
   -2.8952    2.1557   -3.6259 C   0  0  0  0  0  0  0  0  0  0  0  0
   -3.8487    2.1350   -3.1023 H   0  0  0  0  0  0  0  0  0  0  0  0
   -2.6984    2.1017   -5.0042 N   0  0  0  0  0  0  0  0  0  0  0  0
   -3.4351    2.0648   -5.7065 H   0  0  0  0  0  0  0  0  0  0  0  0
   -1.3452    2.1556   -5.3012 C   0  0  0  0  0  0  0  0  0  0  0  0
   -0.6548    2.1308   -6.5131 C   0  0  0  0  0  0  0  0  0  0  0  0
   -1.1953    2.0598   -7.4503 H   0  0  0  0  0  0  0  0  0  0  0  0
    0.7460    2.1976   -6.5029 C   0  0  0  0  0  0  0  0  0  0  0  0
    1.2977    2.1792   -7.4382 H   0  0  0  0  0  0  0  0  0  0  0  0
    1.4381    2.2881   -5.2850 C   0  0  0  0  0  0  0  0  0  0  0  0
    2.5229    2.3395   -5.2791 H   0  0  0  0  0  0  0  0  0  0  0  0
    0.7343    2.3139   -4.0728 C   0  0  0  0  0  0  0  0  0  0  0  0
    1.2655    2.3845   -3.1280 H   0  0  0  0  0  0  0  0  0  0  0  0
   -0.6624    2.2488   -4.0945 C   0  0  0  0  0  0  0  0  0  0  0  0
   -0.3063    1.0705    0.3356 C   0  0  0  0  0  0  0  0  0  0  0  0
    0.9021    1.2694    0.3789 O   0  0  0  0  0  0  0  0  0  0  0  0
   -1.0661    1.3024    1.4680 N   0  0  0  0  0  0  0  0  0  0  0  0
   -1.9762    0.8486    1.4443 H   0  0  0  0  0  0  0  0  0  0  0  0
   -0.4562    1.5034    2.7761 C   0  0  0  0  0  0  0  0  0  0  0  0
    0.2065    2.3750    2.7619 H   0  0  0  0  0  0  0  0  0  0  0  0
   -1.2305    1.6736    3.5302 H   0  0  0  0  0  0  0  0  0  0  0  0
    0.1256    0.6227    3.0672 H   0  0  0  0  0  0  0  0  0  0  0  0
  1  2  1  0  0  0  0
  2  3  1  0  0  0  0
  2  4  1  0  0  0  0
  2  5  1  0  0  0  0
  5  6  2  0  0  0  0
  5  7  1  0  0  0  0
  7  8  1  0  0  0  0
  7  9  1  0  0  0  0
  9 10  1  0  0  0  0
  9 11  1  0  0  0  0
  9 29  1  0  0  0  0
 11 12  1  0  0  0  0
 11 13  1  0  0  0  0
 11 14  1  0  0  0  0
 14 15  2  0  0  0  0
 14 28  1  0  0  0  0
 15 16  1  0  0  0  0
 15 17  1  0  0  0  0
 17 18  1  0  0  0  0
 17 19  1  0  0  0  0
 19 20  1  0  0  0  0
 19 28  2  0  0  0  0
 20 21  1  0  0  0  0
 20 22  2  0  0  0  0
 22 23  1  0  0  0  0
 22 24  1  0  0  0  0
 24 25  1  0  0  0  0
 24 26  2  0  0  0  0
 26 27  1  0  0  0  0
 26 28  1  0  0  0  0
 29 30  2  0  0  0  0
 29 31  1  0  0  0  0
 31 32  1  0  0  0  0
 31 33  1  0  0  0  0
 33 34  1  0  0  0  0
 33 35  1  0  0  0  0
 33 36  1  0  0  0  0
M  END
$$$$

  -OEChem-01062216103D

 36 37  0     1  0  0  0  0  0999 V2000
   -3.8297   -2.8260   -0.2079 H   0  0  0  0  0  0  0  0  0  0  0  0
   -3.6918   -1.9796   -0.8869 C   0  0  0  0  0  0  0  0  0  0  0  0
   -4.6040   -1.3782   -0.8888 H   0  0  0  0  0  0  0  0  0  0  0  0
   -3.5135   -2.3649   -1.8939 H   0  0  0  0  0  0  0  0  0  0  0  0
   -2.5138   -1.1355   -0.4375 C   0  0  0  0  0  0  0  0  0  0  0  0
   -1.9046   -1.4555    0.5662 O   0  0  0  0  0  0  0  0  0  0  0  0
   -2.1743   -0.0175   -1.1737 N   0  0  0  0  0  0  0  0  0  0  0  0
   -2.6913    0.0901   -2.0417 H   0  0  0  0  0  0  0  0  0  0  0  0
   -0.9873    0.8615   -1.0419 C   0  0  1  0  0  0  0  0  0  0  0  0
   -0.2049    0.4582   -1.6935 H   0  0  0  0  0  0  0  0  0  0  0  0
   -1.3973    2.2555   -1.5517 C   0  0  0  0  0  0  0  0  0  0  0  0
   -2.2857    2.5948   -1.0089 H   0  0  0  0  0  0  0  0  0  0  0  0
   -0.6014    2.9839   -1.3612 H   0  0  0  0  0  0  0  0  0  0  0  0
   -1.6751    2.2292   -3.0326 C   0  0  0  0  0  0  0  0  0  0  0  0
   -2.9043    2.1146   -3.6376 C   0  0  0  0  0  0  0  0  0  0  0  0
   -3.8627    2.0777   -3.1244 H   0  0  0  0  0  0  0  0  0  0  0  0
   -2.6929    2.0726   -5.0141 N   0  0  0  0  0  0  0  0  0  0  0  0
   -3.4218    2.0269   -5.7239 H   0  0  0  0  0  0  0  0  0  0  0  0
   -1.3379    2.1478   -5.2974 C   0  0  0  0  0  0  0  0  0  0  0  0
   -0.6348    2.1398   -6.5025 C   0  0  0  0  0  0  0  0  0  0  0  0
   -1.1647    2.0704   -7.4459 H   0  0  0  0  0  0  0  0  0  0  0  0
    0.7652    2.2209   -6.4772 C   0  0  0  0  0  0  0  0  0  0  0  0
    1.3263    2.2143   -7.4071 H   0  0  0  0  0  0  0  0  0  0  0  0
    1.4435    2.3101   -5.2516 C   0  0  0  0  0  0  0  0  0  0  0  0
    2.5275    2.3719   -5.2338 H   0  0  0  0  0  0  0  0  0  0  0  0
    0.7267    2.3213   -4.0466 C   0  0  0  0  0  0  0  0  0  0  0  0
    1.2464    2.3907   -3.0952 H   0  0  0  0  0  0  0  0  0  0  0  0
   -0.6689    2.2421   -4.0833 C   0  0  0  0  0  0  0  0  0  0  0  0
   -0.3065    1.0669    0.3370 C   0  0  0  0  0  0  0  0  0  0  0  0
    0.8412    1.4967    0.3584 O   0  0  0  0  0  0  0  0  0  0  0  0
   -1.0120    1.0022    1.5242 N   0  0  0  0  0  0  0  0  0  0  0  0
   -1.7920    0.3460    1.4896 H   0  0  0  0  0  0  0  0  0  0  0  0
   -0.3694    1.1989    2.8174 C   0  0  0  0  0  0  0  0  0  0  0  0
    0.0853    2.1935    2.8735 H   0  0  0  0  0  0  0  0  0  0  0  0
   -1.1073    1.1129    3.6206 H   0  0  0  0  0  0  0  0  0  0  0  0
    0.4090    0.4454    2.9769 H   0  0  0  0  0  0  0  0  0  0  0  0
  1  2  1  0  0  0  0
  2  3  1  0  0  0  0
  2  4  1  0  0  0  0
  2  5  1  0  0  0  0
  5  6  2  0  0  0  0
  5  7  1  0  0  0  0
  7  8  1  0  0  0  0
  7  9  1  0  0  0  0
  9 10  1  0  0  0  0
  9 11  1  0  0  0  0
  9 29  1  0  0  0  0
 11 12  1  0  0  0  0
 11 13  1  0  0  0  0
 11 14  1  0  0  0  0
 14 15  2  0  0  0  0
 14 28  1  0  0  0  0
 15 16  1  0  0  0  0
 15 17  1  0  0  0  0
 17 18  1  0  0  0  0
 17 19  1  0  0  0  0
 19 20  1  0  0  0  0
 19 28  2  0  0  0  0
 20 21  1  0  0  0  0
 20 22  2  0  0  0  0
 22 23  1  0  0  0  0
 22 24  1  0  0  0  0
 24 25  1  0  0  0  0
 24 26  2  0  0  0  0
 26 27  1  0  0  0  0
 26 28  1  0  0  0  0
 29 30  2  0  0  0  0
 29 31  1  0  0  0  0
 31 32  1  0  0  0  0
 31 33  1  0  0  0  0
 33 34  1  0  0  0  0
 33 35  1  0  0  0  0
 33 36  1  0  0  0  0
M  END
$$$$

  -OEChem-01062216103D

 36 37  0     1  0  0  0  0  0999 V2000
   -3.9337   -2.7981   -0.2599 H   0  0  0  0  0  0  0  0  0  0  0  0
   -3.7749   -1.9356   -0.9136 C   0  0  0  0  0  0  0  0  0  0  0  0
   -4.6543   -1.2893   -0.8616 H   0  0  0  0  0  0  0  0  0  0  0  0
   -3.6513   -2.2914   -1.9394 H   0  0  0  0  0  0  0  0  0  0  0  0
   -2.5398   -1.1691   -0.4789 C   0  0  0  0  0  0  0  0  0  0  0  0
   -1.8888   -1.5839    0.4619 O   0  0  0  0  0  0  0  0  0  0  0  0
   -2.1753   -0.0412   -1.1874 N   0  0  0  0  0  0  0  0  0  0  0  0
   -2.7267    0.1272   -2.0236 H   0  0  0  0  0  0  0  0  0  0  0  0
   -0.9925    0.8423   -1.0366 C   0  0  1  0  0  0  0  0  0  0  0  0
   -0.2055    0.4483   -1.6882 H   0  0  0  0  0  0  0  0  0  0  0  0
   -1.4281    2.2302   -1.5506 C   0  0  0  0  0  0  0  0  0  0  0  0
   -2.3260    2.5517   -1.0129 H   0  0  0  0  0  0  0  0  0  0  0  0
   -0.6513    2.9782   -1.3590 H   0  0  0  0  0  0  0  0  0  0  0  0
   -1.6943    2.1992   -3.0334 C   0  0  0  0  0  0  0  0  0  0  0  0
   -2.9140    2.0602   -3.6526 C   0  0  0  0  0  0  0  0  0  0  0  0
   -3.8778    2.0064   -3.1510 H   0  0  0  0  0  0  0  0  0  0  0  0
   -2.6849    2.0178   -5.0264 N   0  0  0  0  0  0  0  0  0  0  0  0
   -3.4037    1.9560   -5.7452 H   0  0  0  0  0  0  0  0  0  0  0  0
   -1.3282    2.1205   -5.2931 C   0  0  0  0  0  0  0  0  0  0  0  0
   -0.6093    2.1250   -6.4887 C   0  0  0  0  0  0  0  0  0  0  0  0
   -1.1250    2.0382   -7.4386 H   0  0  0  0  0  0  0  0  0  0  0  0
    0.7878    2.2425   -6.4455 C   0  0  0  0  0  0  0  0  0  0  0  0
    1.3611    2.2484   -7.3681 H   0  0  0  0  0  0  0  0  0  0  0  0
    1.4479    2.3533   -5.2116 C   0  0  0  0  0  0  0  0  0  0  0  0
    2.5295    2.4443   -5.1797 H   0  0  0  0  0  0  0  0  0  0  0  0
    0.7156    2.3490   -4.0163 C   0  0  0  0  0  0  0  0  0  0  0  0
    1.2202    2.4362   -3.0584 H   0  0  0  0  0  0  0  0  0  0  0  0
   -0.6767    2.2336   -4.0714 C   0  0  0  0  0  0  0  0  0  0  0  0
   -0.3044    1.0609    0.3409 C   0  0  0  0  0  0  0  0  0  0  0  0
    0.7598    1.6693    0.3634 O   0  0  0  0  0  0  0  0  0  0  0  0
   -0.8819    0.7202    1.5492 N   0  0  0  0  0  0  0  0  0  0  0  0
   -1.5659   -0.0348    1.4800 H   0  0  0  0  0  0  0  0  0  0  0  0
   -0.1892    0.8801    2.8214 C   0  0  0  0  0  0  0  0  0  0  0  0
    0.0788    1.9291    2.9847 H   0  0  0  0  0  0  0  0  0  0  0  0
   -0.8359    0.5589    3.6434 H   0  0  0  0  0  0  0  0  0  0  0  0
    0.7235    0.2756    2.8392 H   0  0  0  0  0  0  0  0  0  0  0  0
  1  2  1  0  0  0  0
  2  3  1  0  0  0  0
  2  4  1  0  0  0  0
  2  5  1  0  0  0  0
  5  6  2  0  0  0  0
  5  7  1  0  0  0  0
  7  8  1  0  0  0  0
  7  9  1  0  0  0  0
  9 10  1  0  0  0  0
  9 11  1  0  0  0  0
  9 29  1  0  0  0  0
 11 12  1  0  0  0  0
 11 13  1  0  0  0  0
 11 14  1  0  0  0  0
 14 15  2  0  0  0  0
 14 28  1  0  0  0  0
 15 16  1  0  0  0  0
 15 17  1  0  0  0  0
 17 18  1  0  0  0  0
 17 19  1  0  0  0  0
 19 20  1  0  0  0  0
 19 28  2  0  0  0  0
 20 21  1  0  0  0  0
 20 22  2  0  0  0  0
 22 23  1  0  0  0  0
 22 24  1  0  0  0  0
 24 25  1  0  0  0  0
 24 26  2  0  0  0  0
 26 27  1  0  0  0  0
 26 28  1  0  0  0  0
 29 30  2  0  0  0  0
 29 31  1  0  0  0  0
 31 32  1  0  0  0  0
 31 33  1  0  0  0  0
 33 34  1  0  0  0  0
 33 35  1  0  0  0  0
 33 36  1  0  0  0  0
M  END
$$$$

  -OEChem-01062216103D

 36 37  0     1  0  0  0  0  0999 V2000
   -4.0222   -2.7564   -0.2711 H   0  0  0  0  0  0  0  0  0  0  0  0
   -3.8477   -1.8826   -0.9058 C   0  0  0  0  0  0  0  0  0  0  0  0
   -4.6828   -1.1884   -0.7838 H   0  0  0  0  0  0  0  0  0  0  0  0
   -3.8015   -2.2091   -1.9477 H   0  0  0  0  0  0  0  0  0  0  0  0
   -2.5470   -1.2049   -0.5170 C   0  0  0  0  0  0  0  0  0  0  0  0
   -1.8487   -1.7192    0.3368 O   0  0  0  0  0  0  0  0  0  0  0  0
   -2.1666   -0.0645   -1.1966 N   0  0  0  0  0  0  0  0  0  0  0  0
   -2.7621    0.1701   -1.9848 H   0  0  0  0  0  0  0  0  0  0  0  0
   -0.9880    0.8232   -1.0297 C   0  0  1  0  0  0  0  0  0  0  0  0
   -0.1965    0.4392   -1.6815 H   0  0  0  0  0  0  0  0  0  0  0  0
   -1.4439    2.2055   -1.5507 C   0  0  0  0  0  0  0  0  0  0  0  0
   -2.3502    2.5131   -1.0194 H   0  0  0  0  0  0  0  0  0  0  0  0
   -0.6842    2.9706   -1.3598 H   0  0  0  0  0  0  0  0  0  0  0  0
   -1.6989    2.1696   -3.0363 C   0  0  0  0  0  0  0  0  0  0  0  0
   -2.9114    2.0100   -3.6652 C   0  0  0  0  0  0  0  0  0  0  0  0
   -3.8781    1.9376   -3.1721 H   0  0  0  0  0  0  0  0  0  0  0  0
   -2.6721    1.9748   -5.0372 N   0  0  0  0  0  0  0  0  0  0  0  0
   -3.3842    1.8980   -5.7609 H   0  0  0  0  0  0  0  0  0  0  0  0
   -1.3161    2.1044   -5.2945 C   0  0  0  0  0  0  0  0  0  0  0  0
   -0.5904    2.1264   -6.4857 C   0  0  0  0  0  0  0  0  0  0  0  0
   -1.0991    2.0339   -7.4388 H   0  0  0  0  0  0  0  0  0  0  0  0
    0.8039    2.2690   -6.4338 C   0  0  0  0  0  0  0  0  0  0  0  0
    1.3820    2.2873   -7.3530 H   0  0  0  0  0  0  0  0  0  0  0  0
    1.4544    2.3888   -5.1957 C   0  0  0  0  0  0  0  0  0  0  0  0
    2.5341    2.4991   -5.1579 H   0  0  0  0  0  0  0  0  0  0  0  0
    0.7150    2.3688   -4.0046 C   0  0  0  0  0  0  0  0  0  0  0  0
    1.2126    2.4643   -3.0437 H   0  0  0  0  0  0  0  0  0  0  0  0
   -0.6748    2.2262   -4.0681 C   0  0  0  0  0  0  0  0  0  0  0  0
   -0.2963    1.0377    0.3517 C   0  0  0  0  0  0  0  0  0  0  0  0
    0.6510    1.8139    0.4112 O   0  0  0  0  0  0  0  0  0  0  0  0
   -0.6961    0.4431    1.5328 N   0  0  0  0  0  0  0  0  0  0  0  0
   -1.2886   -0.3810    1.4194 H   0  0  0  0  0  0  0  0  0  0  0  0
    0.0322    0.5863    2.7873 C   0  0  0  0  0  0  0  0  0  0  0  0
    0.1131    1.6418    3.0671 H   0  0  0  0  0  0  0  0  0  0  0  0
   -0.4931    0.0584    3.5888 H   0  0  0  0  0  0  0  0  0  0  0  0
    1.0393    0.1669    2.6954 H   0  0  0  0  0  0  0  0  0  0  0  0
  1  2  1  0  0  0  0
  2  3  1  0  0  0  0
  2  4  1  0  0  0  0
  2  5  1  0  0  0  0
  5  6  2  0  0  0  0
  5  7  1  0  0  0  0
  7  8  1  0  0  0  0
  7  9  1  0  0  0  0
  9 10  1  0  0  0  0
  9 11  1  0  0  0  0
  9 29  1  0  0  0  0
 11 12  1  0  0  0  0
 11 13  1  0  0  0  0
 11 14  1  0  0  0  0
 14 15  2  0  0  0  0
 14 28  1  0  0  0  0
 15 16  1  0  0  0  0
 15 17  1  0  0  0  0
 17 18  1  0  0  0  0
 17 19  1  0  0  0  0
 19 20  1  0  0  0  0
 19 28  2  0  0  0  0
 20 21  1  0  0  0  0
 20 22  2  0  0  0  0
 22 23  1  0  0  0  0
 22 24  1  0  0  0  0
 24 25  1  0  0  0  0
 24 26  2  0  0  0  0
 26 27  1  0  0  0  0
 26 28  1  0  0  0  0
 29 30  2  0  0  0  0
 29 31  1  0  0  0  0
 31 32  1  0  0  0  0
 31 33  1  0  0  0  0
 33 34  1  0  0  0  0
 33 35  1  0  0  0  0
 33 36  1  0  0  0  0
M  END
$$$$

  -OEChem-01062216103D

 36 37  0     1  0  0  0  0  0999 V2000
   -4.1410   -2.6297   -0.1862 H   0  0  0  0  0  0  0  0  0  0  0  0
   -3.9493   -1.7509   -0.8090 C   0  0  0  0  0  0  0  0  0  0  0  0
   -4.7223   -1.0051   -0.6086 H   0  0  0  0  0  0  0  0  0  0  0  0
   -3.9998   -2.0473   -1.8597 H   0  0  0  0  0  0  0  0  0  0  0  0
   -2.5804   -1.1750   -0.4980 C   0  0  0  0  0  0  0  0  0  0  0  0
   -1.8517   -1.7764    0.2691 O   0  0  0  0  0  0  0  0  0  0  0  0
   -2.1755   -0.0396   -1.1718 N   0  0  0  0  0  0  0  0  0  0  0  0
   -2.8156    0.2590   -1.9009 H   0  0  0  0  0  0  0  0  0  0  0  0
   -0.9739    0.8213   -1.0231 C   0  0  1  0  0  0  0  0  0  0  0  0
   -0.2016    0.4145   -1.6838 H   0  0  0  0  0  0  0  0  0  0  0  0
   -1.4122    2.2050   -1.5625 C   0  0  0  0  0  0  0  0  0  0  0  0
   -2.3074    2.5363   -1.0265 H   0  0  0  0  0  0  0  0  0  0  0  0
   -0.6401    2.9621   -1.3946 H   0  0  0  0  0  0  0  0  0  0  0  0
   -1.6813    2.1543   -3.0463 C   0  0  0  0  0  0  0  0  0  0  0  0
   -2.9010    2.0072   -3.6650 C   0  0  0  0  0  0  0  0  0  0  0  0
   -3.8655    1.9554   -3.1651 H   0  0  0  0  0  0  0  0  0  0  0  0
   -2.6728    1.9547   -5.0384 N   0  0  0  0  0  0  0  0  0  0  0  0
   -3.3915    1.8797   -5.7559 H   0  0  0  0  0  0  0  0  0  0  0  0
   -1.3173    2.0633   -5.3076 C   0  0  0  0  0  0  0  0  0  0  0  0
   -0.6012    2.0655   -6.5052 C   0  0  0  0  0  0  0  0  0  0  0  0
   -1.1185    1.9707   -7.4535 H   0  0  0  0  0  0  0  0  0  0  0  0
    0.7950    2.1919   -6.4662 C   0  0  0  0  0  0  0  0  0  0  0  0
    1.3659    2.1949   -7.3901 H   0  0  0  0  0  0  0  0  0  0  0  0
    1.4568    2.3161   -5.2347 C   0  0  0  0  0  0  0  0  0  0  0  0
    2.5378    2.4157   -5.2075 H   0  0  0  0  0  0  0  0  0  0  0  0
    0.7270    2.3154   -4.0374 C   0  0  0  0  0  0  0  0  0  0  0  0
    1.2332    2.4155   -3.0817 H   0  0  0  0  0  0  0  0  0  0  0  0
   -0.6648    2.1882   -4.0873 C   0  0  0  0  0  0  0  0  0  0  0  0
   -0.2513    1.0144    0.3505 C   0  0  0  0  0  0  0  0  0  0  0  0
    0.5685    1.9189    0.4643 O   0  0  0  0  0  0  0  0  0  0  0  0
   -0.4407    0.2198    1.4640 N   0  0  0  0  0  0  0  0  0  0  0  0
   -0.9705   -0.6397    1.3104 H   0  0  0  0  0  0  0  0  0  0  0  0
    0.3376    0.3363    2.6910 C   0  0  0  0  0  0  0  0  0  0  0  0
    0.2462    1.3435    3.1105 H   0  0  0  0  0  0  0  0  0  0  0  0
   -0.0253   -0.3796    3.4345 H   0  0  0  0  0  0  0  0  0  0  0  0
    1.3948    0.1290    2.4959 H   0  0  0  0  0  0  0  0  0  0  0  0
  1  2  1  0  0  0  0
  2  3  1  0  0  0  0
  2  4  1  0  0  0  0
  2  5  1  0  0  0  0
  5  6  2  0  0  0  0
  5  7  1  0  0  0  0
  7  8  1  0  0  0  0
  7  9  1  0  0  0  0
  9 10  1  0  0  0  0
  9 11  1  0  0  0  0
  9 29  1  0  0  0  0
 11 12  1  0  0  0  0
 11 13  1  0  0  0  0
 11 14  1  0  0  0  0
 14 15  2  0  0  0  0
 14 28  1  0  0  0  0
 15 16  1  0  0  0  0
 15 17  1  0  0  0  0
 17 18  1  0  0  0  0
 17 19  1  0  0  0  0
 19 20  1  0  0  0  0
 19 28  2  0  0  0  0
 20 21  1  0  0  0  0
 20 22  2  0  0  0  0
 22 23  1  0  0  0  0
 22 24  1  0  0  0  0
 24 25  1  0  0  0  0
 24 26  2  0  0  0  0
 26 27  1  0  0  0  0
 26 28  1  0  0  0  0
 29 30  2  0  0  0  0
 29 31  1  0  0  0  0
 31 32  1  0  0  0  0
 31 33  1  0  0  0  0
 33 34  1  0  0  0  0
 33 35  1  0  0  0  0
 33 36  1  0  0  0  0
M  END
$$$$

  -OEChem-01062216103D

 36 37  0     1  0  0  0  0  0999 V2000
   -4.3068   -0.8843    0.0418 H   0  0  0  0  0  0  0  0  0  0  0  0
   -3.6691   -1.6593   -0.3899 C   0  0  0  0  0  0  0  0  0  0  0  0
   -3.7667   -2.5686    0.2104 H   0  0  0  0  0  0  0  0  0  0  0  0
   -4.0022   -1.8730   -1.4085 H   0  0  0  0  0  0  0  0  0  0  0  0
   -2.2247   -1.1956   -0.4030 C   0  0  0  0  0  0  0  0  0  0  0  0
   -1.3699   -1.9216    0.0649 O   0  0  0  0  0  0  0  0  0  0  0  0
   -1.9002   -0.0518   -1.1013 N   0  0  0  0  0  0  0  0  0  0  0  0
   -2.6642    0.3427   -1.6383 H   0  0  0  0  0  0  0  0  0  0  0  0
   -0.6676    0.7713   -1.0722 C   0  0  1  0  0  0  0  0  0  0  0  0
    0.0034    0.3558   -1.8311 H   0  0  0  0  0  0  0  0  0  0  0  0
   -1.1191    2.1823   -1.5243 C   0  0  0  0  0  0  0  0  0  0  0  0
   -1.9368    2.5247   -0.8822 H   0  0  0  0  0  0  0  0  0  0  0  0
   -0.3088    2.9115   -1.4266 H   0  0  0  0  0  0  0  0  0  0  0  0
   -1.5570    2.1846   -2.9676 C   0  0  0  0  0  0  0  0  0  0  0  0
   -2.8420    2.0933   -3.4499 C   0  0  0  0  0  0  0  0  0  0  0  0
   -3.7469    2.0551   -2.8483 H   0  0  0  0  0  0  0  0  0  0  0  0
   -2.7695    2.0750   -4.8411 N   0  0  0  0  0  0  0  0  0  0  0  0
   -3.5649    2.0330   -5.4755 H   0  0  0  0  0  0  0  0  0  0  0  0
   -1.4490    2.1431   -5.2569 C   0  0  0  0  0  0  0  0  0  0  0  0
   -0.8697    2.1489   -6.5262 C   0  0  0  0  0  0  0  0  0  0  0  0
   -1.4918    2.0964   -7.4127 H   0  0  0  0  0  0  0  0  0  0  0  0
    0.5264    2.2208   -6.6396 C   0  0  0  0  0  0  0  0  0  0  0  0
    0.9918    2.2247   -7.6208 H   0  0  0  0  0  0  0  0  0  0  0  0
    1.3244    2.2861   -5.4868 C   0  0  0  0  0  0  0  0  0  0  0  0
    2.4052    2.3401   -5.5766 H   0  0  0  0  0  0  0  0  0  0  0  0
    0.7314    2.2818   -4.2163 C   0  0  0  0  0  0  0  0  0  0  0  0
    1.3439    2.3320   -3.3207 H   0  0  0  0  0  0  0  0  0  0  0  0
   -0.6616    2.2113   -4.1144 C   0  0  0  0  0  0  0  0  0  0  0  0
    0.2376    0.9249    0.1972 C   0  0  0  0  0  0  0  0  0  0  0  0
    1.1551    1.7326    0.1618 O   0  0  0  0  0  0  0  0  0  0  0  0
    0.4637    0.0465    1.2287 N   0  0  0  0  0  0  0  0  0  0  0  0
    1.3964    0.1945    1.6039 H   0  0  0  0  0  0  0  0  0  0  0  0
   -0.5573   -0.1493    2.2505 C   0  0  0  0  0  0  0  0  0  0  0  0
   -1.5408    0.1862    1.9077 H   0  0  0  0  0  0  0  0  0  0  0  0
   -0.6239   -1.2085    2.5187 H   0  0  0  0  0  0  0  0  0  0  0  0
   -0.3003    0.4205    3.1488 H   0  0  0  0  0  0  0  0  0  0  0  0
  1  2  1  0  0  0  0
  2  3  1  0  0  0  0
  2  4  1  0  0  0  0
  2  5  1  0  0  0  0
  5  6  2  0  0  0  0
  5  7  1  0  0  0  0
  7  8  1  0  0  0  0
  7  9  1  0  0  0  0
  9 10  1  0  0  0  0
  9 11  1  0  0  0  0
  9 29  1  0  0  0  0
 11 12  1  0  0  0  0
 11 13  1  0  0  0  0
 11 14  1  0  0  0  0
 14 15  2  0  0  0  0
 14 28  1  0  0  0  0
 15 16  1  0  0  0  0
 15 17  1  0  0  0  0
 17 18  1  0  0  0  0
 17 19  1  0  0  0  0
 19 20  1  0  0  0  0
 19 28  2  0  0  0  0
 20 21  1  0  0  0  0
 20 22  2  0  0  0  0
 22 23  1  0  0  0  0
 22 24  1  0  0  0  0
 24 25  1  0  0  0  0
 24 26  2  0  0  0  0
 26 27  1  0  0  0  0
 26 28  1  0  0  0  0
 29 30  2  0  0  0  0
 29 31  1  0  0  0  0
 31 32  1  0  0  0  0
 31 33  1  0  0  0  0
 33 34  1  0  0  0  0
 33 35  1  0  0  0  0
 33 36  1  0  0  0  0
M  END
$$$$

  -OEChem-01062216103D

 36 37  0     1  0  0  0  0  0999 V2000
   -4.0094   -2.6885   -0.1634 H   0  0  0  0  0  0  0  0  0  0  0  0
   -3.8542   -1.7920   -0.7708 C   0  0  0  0  0  0  0  0  0  0  0  0
   -4.6188   -1.0563   -0.5097 H   0  0  0  0  0  0  0  0  0  0  0  0
   -3.9586   -2.0588   -1.8254 H   0  0  0  0  0  0  0  0  0  0  0  0
   -2.4724   -1.2189   -0.5159 C   0  0  0  0  0  0  0  0  0  0  0  0
   -1.6920   -1.8547    0.1680 O   0  0  0  0  0  0  0  0  0  0  0  0
   -2.1151   -0.0534   -1.1652 N   0  0  0  0  0  0  0  0  0  0  0  0
   -2.8112    0.2817   -1.8229 H   0  0  0  0  0  0  0  0  0  0  0  0
   -0.9279    0.8280   -1.0270 C   0  0  1  0  0  0  0  0  0  0  0  0
   -0.1615    0.4389   -1.7049 H   0  0  0  0  0  0  0  0  0  0  0  0
   -1.3756    2.2142   -1.5531 C   0  0  0  0  0  0  0  0  0  0  0  0
   -2.2649    2.5436   -1.0064 H   0  0  0  0  0  0  0  0  0  0  0  0
   -0.5984    2.9677   -1.3915 H   0  0  0  0  0  0  0  0  0  0  0  0
   -1.6549    2.1713   -3.0346 C   0  0  0  0  0  0  0  0  0  0  0  0
   -2.8798    2.0225   -3.6421 C   0  0  0  0  0  0  0  0  0  0  0  0
   -3.8390    1.9619   -3.1332 H   0  0  0  0  0  0  0  0  0  0  0  0
   -2.6654    1.9825   -5.0179 N   0  0  0  0  0  0  0  0  0  0  0  0
   -3.3911    1.9084   -5.7283 H   0  0  0  0  0  0  0  0  0  0  0  0
   -1.3137    2.1025   -5.2995 C   0  0  0  0  0  0  0  0  0  0  0  0
   -0.6122    2.1206   -6.5049 C   0  0  0  0  0  0  0  0  0  0  0  0
   -1.1408    2.0308   -7.4472 H   0  0  0  0  0  0  0  0  0  0  0  0
    0.7832    2.2575   -6.4810 C   0  0  0  0  0  0  0  0  0  0  0  0
    1.3427    2.2744   -7.4117 H   0  0  0  0  0  0  0  0  0  0  0  0
    1.4586    2.3747   -5.2561 C   0  0  0  0  0  0  0  0  0  0  0  0
    2.5392    2.4820   -5.2401 H   0  0  0  0  0  0  0  0  0  0  0  0
    0.7428    2.3572   -4.0505 C   0  0  0  0  0  0  0  0  0  0  0  0
    1.2597    2.4525   -3.1005 H   0  0  0  0  0  0  0  0  0  0  0  0
   -0.6487    2.2205   -4.0853 C   0  0  0  0  0  0  0  0  0  0  0  0
   -0.1893    0.9657    0.3458 C   0  0  0  0  0  0  0  0  0  0  0  0
    0.1693    2.0676    0.7470 O   0  0  0  0  0  0  0  0  0  0  0  0
    0.1299   -0.1077    1.1527 N   0  0  0  0  0  0  0  0  0  0  0  0
   -0.2781   -1.0067    0.8859 H   0  0  0  0  0  0  0  0  0  0  0  0
    0.7662    0.0069    2.4589 C   0  0  0  0  0  0  0  0  0  0  0  0
    0.1271    0.5670    3.1492 H   0  0  0  0  0  0  0  0  0  0  0  0
    0.9426   -0.9881    2.8786 H   0  0  0  0  0  0  0  0  0  0  0  0
    1.7298    0.5200    2.3734 H   0  0  0  0  0  0  0  0  0  0  0  0
  1  2  1  0  0  0  0
  2  3  1  0  0  0  0
  2  4  1  0  0  0  0
  2  5  1  0  0  0  0
  5  6  2  0  0  0  0
  5  7  1  0  0  0  0
  7  8  1  0  0  0  0
  7  9  1  0  0  0  0
  9 10  1  0  0  0  0
  9 11  1  0  0  0  0
  9 29  1  0  0  0  0
 11 12  1  0  0  0  0
 11 13  1  0  0  0  0
 11 14  1  0  0  0  0
 14 15  2  0  0  0  0
 14 28  1  0  0  0  0
 15 16  1  0  0  0  0
 15 17  1  0  0  0  0
 17 18  1  0  0  0  0
 17 19  1  0  0  0  0
 19 20  1  0  0  0  0
 19 28  2  0  0  0  0
 20 21  1  0  0  0  0
 20 22  2  0  0  0  0
 22 23  1  0  0  0  0
 22 24  1  0  0  0  0
 24 25  1  0  0  0  0
 24 26  2  0  0  0  0
 26 27  1  0  0  0  0
 26 28  1  0  0  0  0
 29 30  2  0  0  0  0
 29 31  1  0  0  0  0
 31 32  1  0  0  0  0
 31 33  1  0  0  0  0
 33 34  1  0  0  0  0
 33 35  1  0  0  0  0
 33 36  1  0  0  0  0
M  END
$$$$

  -OEChem-01062216103D

 36 37  0     1  0  0  0  0  0999 V2000
   -3.8911   -2.6961   -0.0413 H   0  0  0  0  0  0  0  0  0  0  0  0
   -3.7751   -1.8118   -0.6747 C   0  0  0  0  0  0  0  0  0  0  0  0
   -4.5426   -1.0834   -0.4022 H   0  0  0  0  0  0  0  0  0  0  0  0
   -3.9126   -2.1058   -1.7181 H   0  0  0  0  0  0  0  0  0  0  0  0
   -2.3960   -1.2089   -0.4833 C   0  0  0  0  0  0  0  0  0  0  0  0
   -1.5762   -1.8151    0.1822 O   0  0  0  0  0  0  0  0  0  0  0  0
   -2.0779   -0.0500   -1.1641 N   0  0  0  0  0  0  0  0  0  0  0  0
   -2.8019    0.2819   -1.7926 H   0  0  0  0  0  0  0  0  0  0  0  0
   -0.8976    0.8400   -1.0442 C   0  0  1  0  0  0  0  0  0  0  0  0
   -0.1292    0.4543   -1.7216 H   0  0  0  0  0  0  0  0  0  0  0  0
   -1.3370    2.2290   -1.5635 C   0  0  0  0  0  0  0  0  0  0  0  0
   -2.2199    2.5638   -1.0092 H   0  0  0  0  0  0  0  0  0  0  0  0
   -0.5487    2.9710   -1.3988 H   0  0  0  0  0  0  0  0  0  0  0  0
   -1.6294    2.1942   -3.0425 C   0  0  0  0  0  0  0  0  0  0  0  0
   -2.8630    2.0587   -3.6352 C   0  0  0  0  0  0  0  0  0  0  0  0
   -3.8159    2.0048   -3.1139 H   0  0  0  0  0  0  0  0  0  0  0  0
   -2.6668    2.0231   -5.0138 N   0  0  0  0  0  0  0  0  0  0  0  0
   -3.4026    1.9626   -5.7151 H   0  0  0  0  0  0  0  0  0  0  0  0
   -1.3175    2.1272   -5.3120 C   0  0  0  0  0  0  0  0  0  0  0  0
   -0.6313    2.1376   -6.5264 C   0  0  0  0  0  0  0  0  0  0  0  0
   -1.1728    2.0551   -7.4622 H   0  0  0  0  0  0  0  0  0  0  0  0
    0.7660    2.2553   -6.5203 C   0  0  0  0  0  0  0  0  0  0  0  0
    1.3135    2.2647   -7.4583 H   0  0  0  0  0  0  0  0  0  0  0  0
    1.4585    2.3622   -5.3041 C   0  0  0  0  0  0  0  0  0  0  0  0
    2.5406    2.4541   -5.3026 H   0  0  0  0  0  0  0  0  0  0  0  0
    0.7580    2.3536   -4.0895 C   0  0  0  0  0  0  0  0  0  0  0  0
    1.2887    2.4410   -3.1467 H   0  0  0  0  0  0  0  0  0  0  0  0
   -0.6355    2.2350   -4.1060 C   0  0  0  0  0  0  0  0  0  0  0  0
   -0.1791    0.9704    0.3363 C   0  0  0  0  0  0  0  0  0  0  0  0
   -0.0558    2.0656    0.8752 O   0  0  0  0  0  0  0  0  0  0  0  0
    0.3865   -0.1135    0.9786 N   0  0  0  0  0  0  0  0  0  0  0  0
    0.0386   -1.0229    0.6640 H   0  0  0  0  0  0  0  0  0  0  0  0
    0.9691   -0.0361    2.3122 C   0  0  0  0  0  0  0  0  0  0  0  0
    0.2132    0.2689    3.0431 H   0  0  0  0  0  0  0  0  0  0  0  0
    1.3638   -1.0130    2.6073 H   0  0  0  0  0  0  0  0  0  0  0  0
    1.7915    0.6867    2.3310 H   0  0  0  0  0  0  0  0  0  0  0  0
  1  2  1  0  0  0  0
  2  3  1  0  0  0  0
  2  4  1  0  0  0  0
  2  5  1  0  0  0  0
  5  6  2  0  0  0  0
  5  7  1  0  0  0  0
  7  8  1  0  0  0  0
  7  9  1  0  0  0  0
  9 10  1  0  0  0  0
  9 11  1  0  0  0  0
  9 29  1  0  0  0  0
 11 12  1  0  0  0  0
 11 13  1  0  0  0  0
 11 14  1  0  0  0  0
 14 15  2  0  0  0  0
 14 28  1  0  0  0  0
 15 16  1  0  0  0  0
 15 17  1  0  0  0  0
 17 18  1  0  0  0  0
 17 19  1  0  0  0  0
 19 20  1  0  0  0  0
 19 28  2  0  0  0  0
 20 21  1  0  0  0  0
 20 22  2  0  0  0  0
 22 23  1  0  0  0  0
 22 24  1  0  0  0  0
 24 25  1  0  0  0  0
 24 26  2  0  0  0  0
 26 27  1  0  0  0  0
 26 28  1  0  0  0  0
 29 30  2  0  0  0  0
 29 31  1  0  0  0  0
 31 32  1  0  0  0  0
 31 33  1  0  0  0  0
 33 34  1  0  0  0  0
 33 35  1  0  0  0  0
 33 36  1  0  0  0  0
M  END
$$$$

  -OEChem-01062216103D

 36 37  0     1  0  0  0  0  0999 V2000
   -3.7855   -2.6839    0.1049 H   0  0  0  0  0  0  0  0  0  0  0  0
   -3.7105   -1.8226   -0.5652 C   0  0  0  0  0  0  0  0  0  0  0  0
   -4.4769   -1.0954   -0.2869 H   0  0  0  0  0  0  0  0  0  0  0  0
   -3.8883   -2.1563   -1.5904 H   0  0  0  0  0  0  0  0  0  0  0  0
   -2.3343   -1.1937   -0.4557 C   0  0  0  0  0  0  0  0  0  0  0  0
   -1.4667   -1.7651    0.1814 O   0  0  0  0  0  0  0  0  0  0  0  0
   -2.0609   -0.0475   -1.1752 N   0  0  0  0  0  0  0  0  0  0  0  0
   -2.8165    0.2852   -1.7644 H   0  0  0  0  0  0  0  0  0  0  0  0
   -0.8895    0.8505   -1.0655 C   0  0  1  0  0  0  0  0  0  0  0  0
   -0.1129    0.4682   -1.7356 H   0  0  0  0  0  0  0  0  0  0  0  0
   -1.3218    2.2405   -1.5797 C   0  0  0  0  0  0  0  0  0  0  0  0
   -2.2043    2.5771   -1.0257 H   0  0  0  0  0  0  0  0  0  0  0  0
   -0.5284    2.9751   -1.4058 H   0  0  0  0  0  0  0  0  0  0  0  0
   -1.6171    2.2072   -3.0577 C   0  0  0  0  0  0  0  0  0  0  0  0
   -2.8524    2.0774   -3.6477 C   0  0  0  0  0  0  0  0  0  0  0  0
   -3.8042    2.0271   -3.1242 H   0  0  0  0  0  0  0  0  0  0  0  0
   -2.6587    2.0397   -5.0268 N   0  0  0  0  0  0  0  0  0  0  0  0
   -3.3956    1.9751   -5.7266 H   0  0  0  0  0  0  0  0  0  0  0  0
   -1.3094    2.1413   -5.3276 C   0  0  0  0  0  0  0  0  0  0  0  0
   -0.6244    2.1520   -6.5429 C   0  0  0  0  0  0  0  0  0  0  0  0
   -1.1667    2.0713   -7.4784 H   0  0  0  0  0  0  0  0  0  0  0  0
    0.7729    2.2694   -6.5389 C   0  0  0  0  0  0  0  0  0  0  0  0
    1.3187    2.2807   -7.4777 H   0  0  0  0  0  0  0  0  0  0  0  0
    1.4674    2.3740   -5.3238 C   0  0  0  0  0  0  0  0  0  0  0  0
    2.5495    2.4662   -5.3242 H   0  0  0  0  0  0  0  0  0  0  0  0
    0.7687    2.3629   -4.1081 C   0  0  0  0  0  0  0  0  0  0  0  0
    1.3014    2.4471   -3.1661 H   0  0  0  0  0  0  0  0  0  0  0  0
   -0.6251    2.2466   -4.1226 C   0  0  0  0  0  0  0  0  0  0  0  0
   -0.2074    0.9759    0.3286 C   0  0  0  0  0  0  0  0  0  0  0  0
   -0.2979    2.0108    0.9813 O   0  0  0  0  0  0  0  0  0  0  0  0
    0.5935   -0.0380    0.8184 N   0  0  0  0  0  0  0  0  0  0  0  0
    0.3510   -0.9607    0.4503 H   0  0  0  0  0  0  0  0  0  0  0  0
    1.1942    0.0114    2.1456 C   0  0  0  0  0  0  0  0  0  0  0  0
    0.4175    0.0431    2.9167 H   0  0  0  0  0  0  0  0  0  0  0  0
    1.8134   -0.8755    2.3111 H   0  0  0  0  0  0  0  0  0  0  0  0
    1.8306    0.8967    2.2478 H   0  0  0  0  0  0  0  0  0  0  0  0
  1  2  1  0  0  0  0
  2  3  1  0  0  0  0
  2  4  1  0  0  0  0
  2  5  1  0  0  0  0
  5  6  2  0  0  0  0
  5  7  1  0  0  0  0
  7  8  1  0  0  0  0
  7  9  1  0  0  0  0
  9 10  1  0  0  0  0
  9 11  1  0  0  0  0
  9 29  1  0  0  0  0
 11 12  1  0  0  0  0
 11 13  1  0  0  0  0
 11 14  1  0  0  0  0
 14 15  2  0  0  0  0
 14 28  1  0  0  0  0
 15 16  1  0  0  0  0
 15 17  1  0  0  0  0
 17 18  1  0  0  0  0
 17 19  1  0  0  0  0
 19 20  1  0  0  0  0
 19 28  2  0  0  0  0
 20 21  1  0  0  0  0
 20 22  2  0  0  0  0
 22 23  1  0  0  0  0
 22 24  1  0  0  0  0
 24 25  1  0  0  0  0
 24 26  2  0  0  0  0
 26 27  1  0  0  0  0
 26 28  1  0  0  0  0
 29 30  2  0  0  0  0
 29 31  1  0  0  0  0
 31 32  1  0  0  0  0
 31 33  1  0  0  0  0
 33 34  1  0  0  0  0
 33 35  1  0  0  0  0
 33 36  1  0  0  0  0
M  END
$$$$

  -OEChem-01062216103D

 36 37  0     1  0  0  0  0  0999 V2000
   -3.6798   -2.6760    0.2307 H   0  0  0  0  0  0  0  0  0  0  0  0
   -3.6454   -1.8331   -0.4654 C   0  0  0  0  0  0  0  0  0  0  0  0
   -4.4068   -1.1063   -0.1719 H   0  0  0  0  0  0  0  0  0  0  0  0
   -3.8653   -2.1971   -1.4719 H   0  0  0  0  0  0  0  0  0  0  0  0
   -2.2729   -1.1876   -0.4365 C   0  0  0  0  0  0  0  0  0  0  0  0
   -1.3643   -1.7301    0.1705 O   0  0  0  0  0  0  0  0  0  0  0  0
   -2.0412   -0.0571   -1.1944 N   0  0  0  0  0  0  0  0  0  0  0  0
   -2.8286    0.2808   -1.7367 H   0  0  0  0  0  0  0  0  0  0  0  0
   -0.8787    0.8491   -1.0927 C   0  0  1  0  0  0  0  0  0  0  0  0
   -0.0949    0.4710   -1.7562 H   0  0  0  0  0  0  0  0  0  0  0  0
   -1.3049    2.2422   -1.5983 C   0  0  0  0  0  0  0  0  0  0  0  0
   -2.1866    2.5786   -1.0430 H   0  0  0  0  0  0  0  0  0  0  0  0
   -0.5081    2.9708   -1.4144 H   0  0  0  0  0  0  0  0  0  0  0  0
   -1.6048    2.2185   -3.0752 C   0  0  0  0  0  0  0  0  0  0  0  0
   -2.8427    2.0983   -3.6616 C   0  0  0  0  0  0  0  0  0  0  0  0
   -3.7924    2.0477   -3.1344 H   0  0  0  0  0  0  0  0  0  0  0  0
   -2.6542    2.0689   -5.0416 N   0  0  0  0  0  0  0  0  0  0  0  0
   -3.3943    2.0108   -5.7386 H   0  0  0  0  0  0  0  0  0  0  0  0
   -1.3056    2.1648   -5.3463 C   0  0  0  0  0  0  0  0  0  0  0  0
   -0.6255    2.1791   -6.5643 C   0  0  0  0  0  0  0  0  0  0  0  0
   -1.1725    2.1072   -7.4978 H   0  0  0  0  0  0  0  0  0  0  0  0
    0.7724    2.2887   -6.5647 C   0  0  0  0  0  0  0  0  0  0  0  0
    1.3148    2.3029   -7.5052 H   0  0  0  0  0  0  0  0  0  0  0  0
    1.4719    2.3816   -5.3515 C   0  0  0  0  0  0  0  0  0  0  0  0
    2.5543    2.4672   -5.3549 H   0  0  0  0  0  0  0  0  0  0  0  0
    0.7779    2.3673   -4.1333 C   0  0  0  0  0  0  0  0  0  0  0  0
    1.3139    2.4425   -3.1926 H   0  0  0  0  0  0  0  0  0  0  0  0
   -0.6164    2.2591   -4.1433 C   0  0  0  0  0  0  0  0  0  0  0  0
   -0.2344    0.9744    0.3152 C   0  0  0  0  0  0  0  0  0  0  0  0
   -0.5446    1.8942    1.0656 O   0  0  0  0  0  0  0  0  0  0  0  0
    0.7848    0.1188    0.6896 N   0  0  0  0  0  0  0  0  0  0  0  0
    0.7465   -0.7876    0.2244 H   0  0  0  0  0  0  0  0  0  0  0  0
    1.3716    0.1540    2.0231 C   0  0  0  0  0  0  0  0  0  0  0  0
    0.6145   -0.0744    2.7805 H   0  0  0  0  0  0  0  0  0  0  0  0
    2.1749   -0.5846    2.1003 H   0  0  0  0  0  0  0  0  0  0  0  0
    1.7936    1.1425    2.2324 H   0  0  0  0  0  0  0  0  0  0  0  0
  1  2  1  0  0  0  0
  2  3  1  0  0  0  0
  2  4  1  0  0  0  0
  2  5  1  0  0  0  0
  5  6  2  0  0  0  0
  5  7  1  0  0  0  0
  7  8  1  0  0  0  0
  7  9  1  0  0  0  0
  9 10  1  0  0  0  0
  9 11  1  0  0  0  0
  9 29  1  0  0  0  0
 11 12  1  0  0  0  0
 11 13  1  0  0  0  0
 11 14  1  0  0  0  0
 14 15  2  0  0  0  0
 14 28  1  0  0  0  0
 15 16  1  0  0  0  0
 15 17  1  0  0  0  0
 17 18  1  0  0  0  0
 17 19  1  0  0  0  0
 19 20  1  0  0  0  0
 19 28  2  0  0  0  0
 20 21  1  0  0  0  0
 20 22  2  0  0  0  0
 22 23  1  0  0  0  0
 22 24  1  0  0  0  0
 24 25  1  0  0  0  0
 24 26  2  0  0  0  0
 26 27  1  0  0  0  0
 26 28  1  0  0  0  0
 29 30  2  0  0  0  0
 29 31  1  0  0  0  0
 31 32  1  0  0  0  0
 31 33  1  0  0  0  0
 33 34  1  0  0  0  0
 33 35  1  0  0  0  0
 33 36  1  0  0  0  0
M  END
$$$$

  -OEChem-01062216103D

 36 37  0     1  0  0  0  0  0999 V2000
   -3.6214   -2.6634    0.3175 H   0  0  0  0  0  0  0  0  0  0  0  0
   -3.6087   -1.8374   -0.3992 C   0  0  0  0  0  0  0  0  0  0  0  0
   -4.3657   -1.1066   -0.1045 H   0  0  0  0  0  0  0  0  0  0  0  0
   -3.8516   -2.2272   -1.3907 H   0  0  0  0  0  0  0  0  0  0  0  0
   -2.2394   -1.1848   -0.4200 C   0  0  0  0  0  0  0  0  0  0  0  0
   -1.3115   -1.7085    0.1749 O   0  0  0  0  0  0  0  0  0  0  0  0
   -2.0303   -0.0688   -1.2063 N   0  0  0  0  0  0  0  0  0  0  0  0
   -2.8387    0.2745   -1.7127 H   0  0  0  0  0  0  0  0  0  0  0  0
   -0.8723    0.8424   -1.1122 C   0  0  1  0  0  0  0  0  0  0  0  0
   -0.0854    0.4627   -1.7713 H   0  0  0  0  0  0  0  0  0  0  0  0
   -1.2922    2.2372   -1.6133 C   0  0  0  0  0  0  0  0  0  0  0  0
   -2.1734    2.5752   -1.0577 H   0  0  0  0  0  0  0  0  0  0  0  0
   -0.4927    2.9616   -1.4255 H   0  0  0  0  0  0  0  0  0  0  0  0
   -1.5957    2.2181   -3.0889 C   0  0  0  0  0  0  0  0  0  0  0  0
   -2.8359    2.1053   -3.6713 C   0  0  0  0  0  0  0  0  0  0  0  0
   -3.7839    2.0534   -3.1406 H   0  0  0  0  0  0  0  0  0  0  0  0
   -2.6519    2.0842   -5.0522 N   0  0  0  0  0  0  0  0  0  0  0  0
   -3.3944    2.0293   -5.7468 H   0  0  0  0  0  0  0  0  0  0  0  0
   -1.3041    2.1801   -5.3614 C   0  0  0  0  0  0  0  0  0  0  0  0
   -0.6280    2.2015   -6.5815 C   0  0  0  0  0  0  0  0  0  0  0  0
   -1.1789    2.1358   -7.5131 H   0  0  0  0  0  0  0  0  0  0  0  0
    0.7702    2.3098   -6.5865 C   0  0  0  0  0  0  0  0  0  0  0  0
    1.3098    2.3291   -7.5289 H   0  0  0  0  0  0  0  0  0  0  0  0
    1.4741    2.3947   -5.3753 C   0  0  0  0  0  0  0  0  0  0  0  0
    2.5567    2.4801   -5.3821 H   0  0  0  0  0  0  0  0  0  0  0  0
    0.7841    2.3732   -4.1549 C   0  0  0  0  0  0  0  0  0  0  0  0
    1.3243    2.4435   -3.2164 H   0  0  0  0  0  0  0  0  0  0  0  0
   -0.6104    2.2653   -4.1602 C   0  0  0  0  0  0  0  0  0  0  0  0
   -0.2494    0.9776    0.3012 C   0  0  0  0  0  0  0  0  0  0  0  0
   -0.7532    1.7299    1.1292 O   0  0  0  0  0  0  0  0  0  0  0  0
    0.9502    0.3543    0.5926 N   0  0  0  0  0  0  0  0  0  0  0  0
    1.1697   -0.4427    0.0004 H   0  0  0  0  0  0  0  0  0  0  0  0
    1.5218    0.3718    1.9330 C   0  0  0  0  0  0  0  0  0  0  0  0
    0.8398   -0.1046    2.6452 H   0  0  0  0  0  0  0  0  0  0  0  0
    2.4716   -0.1711    1.9445 H   0  0  0  0  0  0  0  0  0  0  0  0
    1.7095    1.4004    2.2582 H   0  0  0  0  0  0  0  0  0  0  0  0
  1  2  1  0  0  0  0
  2  3  1  0  0  0  0
  2  4  1  0  0  0  0
  2  5  1  0  0  0  0
  5  6  2  0  0  0  0
  5  7  1  0  0  0  0
  7  8  1  0  0  0  0
  7  9  1  0  0  0  0
  9 10  1  0  0  0  0
  9 11  1  0  0  0  0
  9 29  1  0  0  0  0
 11 12  1  0  0  0  0
 11 13  1  0  0  0  0
 11 14  1  0  0  0  0
 14 15  2  0  0  0  0
 14 28  1  0  0  0  0
 15 16  1  0  0  0  0
 15 17  1  0  0  0  0
 17 18  1  0  0  0  0
 17 19  1  0  0  0  0
 19 20  1  0  0  0  0
 19 28  2  0  0  0  0
 20 21  1  0  0  0  0
 20 22  2  0  0  0  0
 22 23  1  0  0  0  0
 22 24  1  0  0  0  0
 24 25  1  0  0  0  0
 24 26  2  0  0  0  0
 26 27  1  0  0  0  0
 26 28  1  0  0  0  0
 29 30  2  0  0  0  0
 29 31  1  0  0  0  0
 31 32  1  0  0  0  0
 31 33  1  0  0  0  0
 33 34  1  0  0  0  0
 33 35  1  0  0  0  0
 33 36  1  0  0  0  0
M  END
$$$$

  -OEChem-01062216103D

 36 37  0     1  0  0  0  0  0999 V2000
   -3.5886   -2.6617    0.3596 H   0  0  0  0  0  0  0  0  0  0  0  0
   -3.5968   -1.8344   -0.3557 C   0  0  0  0  0  0  0  0  0  0  0  0
   -4.3312   -1.0948   -0.0274 H   0  0  0  0  0  0  0  0  0  0  0  0
   -3.8867   -2.2184   -1.3367 H   0  0  0  0  0  0  0  0  0  0  0  0
   -2.2214   -1.1995   -0.4328 C   0  0  0  0  0  0  0  0  0  0  0  0
   -1.2754   -1.7336    0.1236 O   0  0  0  0  0  0  0  0  0  0  0  0
   -2.0269   -0.0892   -1.2307 N   0  0  0  0  0  0  0  0  0  0  0  0
   -2.8558    0.2768   -1.6848 H   0  0  0  0  0  0  0  0  0  0  0  0
   -0.8731    0.8253   -1.1286 C   0  0  1  0  0  0  0  0  0  0  0  0
   -0.0818    0.4481   -1.7835 H   0  0  0  0  0  0  0  0  0  0  0  0
   -1.2927    2.2231   -1.6188 C   0  0  0  0  0  0  0  0  0  0  0  0
   -2.1754    2.5551   -1.0620 H   0  0  0  0  0  0  0  0  0  0  0  0
   -0.4941    2.9466   -1.4232 H   0  0  0  0  0  0  0  0  0  0  0  0
   -1.5930    2.2152   -3.0955 C   0  0  0  0  0  0  0  0  0  0  0  0
   -2.8325    2.1057   -3.6803 C   0  0  0  0  0  0  0  0  0  0  0  0
   -3.7809    2.0476   -3.1516 H   0  0  0  0  0  0  0  0  0  0  0  0
   -2.6474    2.0941   -5.0609 N   0  0  0  0  0  0  0  0  0  0  0  0
   -3.3890    2.0402   -5.7565 H   0  0  0  0  0  0  0  0  0  0  0  0
   -1.2995    2.1916   -5.3682 C   0  0  0  0  0  0  0  0  0  0  0  0
   -0.6235    2.2194   -6.5884 C   0  0  0  0  0  0  0  0  0  0  0  0
   -1.1734    2.1591   -7.5210 H   0  0  0  0  0  0  0  0  0  0  0  0
    0.7745    2.3266   -6.5922 C   0  0  0  0  0  0  0  0  0  0  0  0
    1.3142    2.3499   -7.5343 H   0  0  0  0  0  0  0  0  0  0  0  0
    1.4779    2.4059   -5.3801 C   0  0  0  0  0  0  0  0  0  0  0  0
    2.5605    2.4911   -5.3870 H   0  0  0  0  0  0  0  0  0  0  0  0
    0.7878    2.3781   -4.1596 C   0  0  0  0  0  0  0  0  0  0  0  0
    1.3276    2.4431   -3.2207 H   0  0  0  0  0  0  0  0  0  0  0  0
   -0.6066    2.2697   -4.1657 C   0  0  0  0  0  0  0  0  0  0  0  0
   -0.2676    0.9637    0.2904 C   0  0  0  0  0  0  0  0  0  0  0  0
   -0.9094    1.5202    1.1758 O   0  0  0  0  0  0  0  0  0  0  0  0
    1.0523    0.6208    0.5218 N   0  0  0  0  0  0  0  0  0  0  0  0
    1.4678   -0.0109   -0.1567 H   0  0  0  0  0  0  0  0  0  0  0  0
    1.6454    0.6765    1.8520 C   0  0  0  0  0  0  0  0  0  0  0  0
    1.1129    0.0074    2.5362 H   0  0  0  0  0  0  0  0  0  0  0  0
    2.6945    0.3686    1.8105 H   0  0  0  0  0  0  0  0  0  0  0  0
    1.6020    1.6955    2.2507 H   0  0  0  0  0  0  0  0  0  0  0  0
  1  2  1  0  0  0  0
  2  3  1  0  0  0  0
  2  4  1  0  0  0  0
  2  5  1  0  0  0  0
  5  6  2  0  0  0  0
  5  7  1  0  0  0  0
  7  8  1  0  0  0  0
  7  9  1  0  0  0  0
  9 10  1  0  0  0  0
  9 11  1  0  0  0  0
  9 29  1  0  0  0  0
 11 12  1  0  0  0  0
 11 13  1  0  0  0  0
 11 14  1  0  0  0  0
 14 15  2  0  0  0  0
 14 28  1  0  0  0  0
 15 16  1  0  0  0  0
 15 17  1  0  0  0  0
 17 18  1  0  0  0  0
 17 19  1  0  0  0  0
 19 20  1  0  0  0  0
 19 28  2  0  0  0  0
 20 21  1  0  0  0  0
 20 22  2  0  0  0  0
 22 23  1  0  0  0  0
 22 24  1  0  0  0  0
 24 25  1  0  0  0  0
 24 26  2  0  0  0  0
 26 27  1  0  0  0  0
 26 28  1  0  0  0  0
 29 30  2  0  0  0  0
 29 31  1  0  0  0  0
 31 32  1  0  0  0  0
 31 33  1  0  0  0  0
 33 34  1  0  0  0  0
 33 35  1  0  0  0  0
 33 36  1  0  0  0  0
M  END
$$$$

  -OEChem-01062216103D

 36 37  0     1  0  0  0  0  0999 V2000
   -3.5780   -2.6503    0.4154 H   0  0  0  0  0  0  0  0  0  0  0  0
   -3.5981   -1.8409   -0.3198 C   0  0  0  0  0  0  0  0  0  0  0  0
   -4.3155   -1.0861    0.0110 H   0  0  0  0  0  0  0  0  0  0  0  0
   -3.9192   -2.2455   -1.2827 H   0  0  0  0  0  0  0  0  0  0  0  0
   -2.2188   -1.2232   -0.4504 C   0  0  0  0  0  0  0  0  0  0  0  0
   -1.2561   -1.7785    0.0547 O   0  0  0  0  0  0  0  0  0  0  0  0
   -2.0384   -0.1120   -1.2509 N   0  0  0  0  0  0  0  0  0  0  0  0
   -2.8846    0.2767   -1.6502 H   0  0  0  0  0  0  0  0  0  0  0  0
   -0.8860    0.8040   -1.1401 C   0  0  1  0  0  0  0  0  0  0  0  0
   -0.0942    0.4278   -1.7949 H   0  0  0  0  0  0  0  0  0  0  0  0
   -1.3023    2.2056   -1.6188 C   0  0  0  0  0  0  0  0  0  0  0  0
   -2.1851    2.5341   -1.0602 H   0  0  0  0  0  0  0  0  0  0  0  0
   -0.5033    2.9264   -1.4159 H   0  0  0  0  0  0  0  0  0  0  0  0
   -1.5984    2.2097   -3.0961 C   0  0  0  0  0  0  0  0  0  0  0  0
   -2.8345    2.1062   -3.6891 C   0  0  0  0  0  0  0  0  0  0  0  0
   -3.7863    2.0427   -3.1672 H   0  0  0  0  0  0  0  0  0  0  0  0
   -2.6411    2.1047   -5.0686 N   0  0  0  0  0  0  0  0  0  0  0  0
   -3.3787    2.0523   -5.7686 H   0  0  0  0  0  0  0  0  0  0  0  0
   -1.2914    2.2024   -5.3669 C   0  0  0  0  0  0  0  0  0  0  0  0
   -0.6072    2.2351   -6.5821 C   0  0  0  0  0  0  0  0  0  0  0  0
   -1.1524    2.1775   -7.5177 H   0  0  0  0  0  0  0  0  0  0  0  0
    0.7910    2.3422   -6.5767 C   0  0  0  0  0  0  0  0  0  0  0  0
    1.3360    2.3682   -7.5156 H   0  0  0  0  0  0  0  0  0  0  0  0
    1.4866    2.4179   -5.3602 C   0  0  0  0  0  0  0  0  0  0  0  0
    2.5690    2.5042   -5.3597 H   0  0  0  0  0  0  0  0  0  0  0  0
    0.7883    2.3844   -4.1447 C   0  0  0  0  0  0  0  0  0  0  0  0
    1.3217    2.4471   -3.2021 H   0  0  0  0  0  0  0  0  0  0  0  0
   -0.6060    2.2737   -4.1601 C   0  0  0  0  0  0  0  0  0  0  0  0
   -0.2811    0.9426    0.2783 C   0  0  0  0  0  0  0  0  0  0  0  0
   -0.9940    1.3018    1.2101 O   0  0  0  0  0  0  0  0  0  0  0  0
    1.0906    0.9054    0.4549 N   0  0  0  0  0  0  0  0  0  0  0  0
    1.6303    0.4817   -0.2936 H   0  0  0  0  0  0  0  0  0  0  0  0
    1.7133    1.0325    1.7666 C   0  0  0  0  0  0  0  0  0  0  0  0
    1.3602    0.2408    2.4359 H   0  0  0  0  0  0  0  0  0  0  0  0
    2.8008    0.9526    1.6776 H   0  0  0  0  0  0  0  0  0  0  0  0
    1.4752    2.0039    2.2125 H   0  0  0  0  0  0  0  0  0  0  0  0
  1  2  1  0  0  0  0
  2  3  1  0  0  0  0
  2  4  1  0  0  0  0
  2  5  1  0  0  0  0
  5  6  2  0  0  0  0
  5  7  1  0  0  0  0
  7  8  1  0  0  0  0
  7  9  1  0  0  0  0
  9 10  1  0  0  0  0
  9 11  1  0  0  0  0
  9 29  1  0  0  0  0
 11 12  1  0  0  0  0
 11 13  1  0  0  0  0
 11 14  1  0  0  0  0
 14 15  2  0  0  0  0
 14 28  1  0  0  0  0
 15 16  1  0  0  0  0
 15 17  1  0  0  0  0
 17 18  1  0  0  0  0
 17 19  1  0  0  0  0
 19 20  1  0  0  0  0
 19 28  2  0  0  0  0
 20 21  1  0  0  0  0
 20 22  2  0  0  0  0
 22 23  1  0  0  0  0
 22 24  1  0  0  0  0
 24 25  1  0  0  0  0
 24 26  2  0  0  0  0
 26 27  1  0  0  0  0
 26 28  1  0  0  0  0
 29 30  2  0  0  0  0
 29 31  1  0  0  0  0
 31 32  1  0  0  0  0
 31 33  1  0  0  0  0
 33 34  1  0  0  0  0
 33 35  1  0  0  0  0
 33 36  1  0  0  0  0
M  END
$$$$

  -OEChem-01062216103D

 36 37  0     1  0  0  0  0  0999 V2000
   -3.5785   -2.6900    0.3812 H   0  0  0  0  0  0  0  0  0  0  0  0
   -3.6127   -1.8238   -0.2856 C   0  0  0  0  0  0  0  0  0  0  0  0
   -4.2762   -1.0728    0.1498 H   0  0  0  0  0  0  0  0  0  0  0  0
   -4.0101   -2.1383   -1.2535 H   0  0  0  0  0  0  0  0  0  0  0  0
   -2.2213   -1.2453   -0.4575 C   0  0  0  0  0  0  0  0  0  0  0  0
   -1.2580   -1.8282    0.0148 O   0  0  0  0  0  0  0  0  0  0  0  0
   -2.0330   -0.1408   -1.2654 N   0  0  0  0  0  0  0  0  0  0  0  0
   -2.8821    0.2638   -1.6415 H   0  0  0  0  0  0  0  0  0  0  0  0
   -0.8765    0.7697   -1.1457 C   0  0  1  0  0  0  0  0  0  0  0  0
   -0.0803    0.3914   -1.7941 H   0  0  0  0  0  0  0  0  0  0  0  0
   -1.2955    2.1710   -1.6230 C   0  0  0  0  0  0  0  0  0  0  0  0
   -2.1809    2.4941   -1.0653 H   0  0  0  0  0  0  0  0  0  0  0  0
   -0.5006    2.8951   -1.4163 H   0  0  0  0  0  0  0  0  0  0  0  0
   -1.5884    2.1799   -3.1006 C   0  0  0  0  0  0  0  0  0  0  0  0
   -2.8245    2.0752   -3.6927 C   0  0  0  0  0  0  0  0  0  0  0  0
   -3.7750    1.9992   -3.1702 H   0  0  0  0  0  0  0  0  0  0  0  0
   -2.6331    2.0927   -5.0722 N   0  0  0  0  0  0  0  0  0  0  0  0
   -3.3715    2.0401   -5.7712 H   0  0  0  0  0  0  0  0  0  0  0  0
   -1.2848    2.2070   -5.3716 C   0  0  0  0  0  0  0  0  0  0  0  0
   -0.6038    2.2673   -6.5877 C   0  0  0  0  0  0  0  0  0  0  0  0
   -1.1495    2.2237   -7.5238 H   0  0  0  0  0  0  0  0  0  0  0  0
    0.7932    2.3856   -6.5833 C   0  0  0  0  0  0  0  0  0  0  0  0
    1.3363    2.4343   -7.5224 H   0  0  0  0  0  0  0  0  0  0  0  0
    1.4910    2.4431   -5.3670 C   0  0  0  0  0  0  0  0  0  0  0  0
    2.5728    2.5369   -5.3678 H   0  0  0  0  0  0  0  0  0  0  0  0
    0.7959    2.3828   -4.1507 C   0  0  0  0  0  0  0  0  0  0  0  0
    1.3314    2.4314   -3.2087 H   0  0  0  0  0  0  0  0  0  0  0  0
   -0.5976    2.2641   -4.1648 C   0  0  0  0  0  0  0  0  0  0  0  0
   -0.2806    0.9186    0.2763 C   0  0  0  0  0  0  0  0  0  0  0  0
   -1.0264    1.0974    1.2343 O   0  0  0  0  0  0  0  0  0  0  0  0
    1.0686    1.1864    0.4308 N   0  0  0  0  0  0  0  0  0  0  0  0
    1.6715    0.9677   -0.3562 H   0  0  0  0  0  0  0  0  0  0  0  0
    1.6822    1.4065    1.7346 C   0  0  0  0  0  0  0  0  0  0  0  0
    1.5428    0.5293    2.3753 H   0  0  0  0  0  0  0  0  0  0  0  0
    2.7553    1.5870    1.6215 H   0  0  0  0  0  0  0  0  0  0  0  0
    1.2370    2.2773    2.2271 H   0  0  0  0  0  0  0  0  0  0  0  0
  1  2  1  0  0  0  0
  2  3  1  0  0  0  0
  2  4  1  0  0  0  0
  2  5  1  0  0  0  0
  5  6  2  0  0  0  0
  5  7  1  0  0  0  0
  7  8  1  0  0  0  0
  7  9  1  0  0  0  0
  9 10  1  0  0  0  0
  9 11  1  0  0  0  0
  9 29  1  0  0  0  0
 11 12  1  0  0  0  0
 11 13  1  0  0  0  0
 11 14  1  0  0  0  0
 14 15  2  0  0  0  0
 14 28  1  0  0  0  0
 15 16  1  0  0  0  0
 15 17  1  0  0  0  0
 17 18  1  0  0  0  0
 17 19  1  0  0  0  0
 19 20  1  0  0  0  0
 19 28  2  0  0  0  0
 20 21  1  0  0  0  0
 20 22  2  0  0  0  0
 22 23  1  0  0  0  0
 22 24  1  0  0  0  0
 24 25  1  0  0  0  0
 24 26  2  0  0  0  0
 26 27  1  0  0  0  0
 26 28  1  0  0  0  0
 29 30  2  0  0  0  0
 29 31  1  0  0  0  0
 31 32  1  0  0  0  0
 31 33  1  0  0  0  0
 33 34  1  0  0  0  0
 33 35  1  0  0  0  0
 33 36  1  0  0  0  0
M  END
$$$$

  -OEChem-01062216103D

 36 37  0     1  0  0  0  0  0999 V2000
   -3.5852   -2.6810    0.4020 H   0  0  0  0  0  0  0  0  0  0  0  0
   -3.6204   -1.8137   -0.2632 C   0  0  0  0  0  0  0  0  0  0  0  0
   -4.2467   -1.0456    0.1967 H   0  0  0  0  0  0  0  0  0  0  0  0
   -4.0609   -2.1161   -1.2159 H   0  0  0  0  0  0  0  0  0  0  0  0
   -2.2213   -1.2728   -0.4869 C   0  0  0  0  0  0  0  0  0  0  0  0
   -1.2536   -1.8992   -0.0847 O   0  0  0  0  0  0  0  0  0  0  0  0
   -2.0339   -0.1594   -1.2828 N   0  0  0  0  0  0  0  0  0  0  0  0
   -2.8902    0.2700   -1.6114 H   0  0  0  0  0  0  0  0  0  0  0  0
   -0.8731    0.7452   -1.1479 C   0  0  1  0  0  0  0  0  0  0  0  0
   -0.0778    0.3710   -1.7999 H   0  0  0  0  0  0  0  0  0  0  0  0
   -1.2994    2.1492   -1.6168 C   0  0  0  0  0  0  0  0  0  0  0  0
   -2.1881    2.4617   -1.0582 H   0  0  0  0  0  0  0  0  0  0  0  0
   -0.5120    2.8800   -1.4062 H   0  0  0  0  0  0  0  0  0  0  0  0
   -1.5892    2.1686   -3.0957 C   0  0  0  0  0  0  0  0  0  0  0  0
   -2.8231    2.0620   -3.6932 C   0  0  0  0  0  0  0  0  0  0  0  0
   -3.7752    1.9763   -3.1751 H   0  0  0  0  0  0  0  0  0  0  0  0
   -2.6278    2.0902   -5.0721 N   0  0  0  0  0  0  0  0  0  0  0  0
   -3.3630    2.0351   -5.7746 H   0  0  0  0  0  0  0  0  0  0  0  0
   -1.2794    2.2119   -5.3662 C   0  0  0  0  0  0  0  0  0  0  0  0
   -0.5968    2.2798   -6.5807 C   0  0  0  0  0  0  0  0  0  0  0  0
   -1.1410    2.2352   -7.5175 H   0  0  0  0  0  0  0  0  0  0  0  0
    0.7995    2.4060   -6.5736 C   0  0  0  0  0  0  0  0  0  0  0  0
    1.3438    2.4605   -7.5120 H   0  0  0  0  0  0  0  0  0  0  0  0
    1.4945    2.4635   -5.3557 C   0  0  0  0  0  0  0  0  0  0  0  0
    2.5759    2.5626   -5.3543 H   0  0  0  0  0  0  0  0  0  0  0  0
    0.7972    2.3940   -4.1411 C   0  0  0  0  0  0  0  0  0  0  0  0
    1.3312    2.4411   -3.1985 H   0  0  0  0  0  0  0  0  0  0  0  0
   -0.5957    2.2664   -4.1574 C   0  0  0  0  0  0  0  0  0  0  0  0
   -0.2664    0.8851    0.2733 C   0  0  0  0  0  0  0  0  0  0  0  0
   -0.9961    0.8662    1.2597 O   0  0  0  0  0  0  0  0  0  0  0  0
    0.9906    1.4479    0.4202 N   0  0  0  0  0  0  0  0  0  0  0  0
    1.5907    1.4578   -0.3986 H   0  0  0  0  0  0  0  0  0  0  0  0
    1.5751    1.7667    1.7177 C   0  0  0  0  0  0  0  0  0  0  0  0
    1.6344    0.8692    2.3424 H   0  0  0  0  0  0  0  0  0  0  0  0
    2.5855    2.1661    1.5885 H   0  0  0  0  0  0  0  0  0  0  0  0
    0.9713    2.5186    2.2366 H   0  0  0  0  0  0  0  0  0  0  0  0
  1  2  1  0  0  0  0
  2  3  1  0  0  0  0
  2  4  1  0  0  0  0
  2  5  1  0  0  0  0
  5  6  2  0  0  0  0
  5  7  1  0  0  0  0
  7  8  1  0  0  0  0
  7  9  1  0  0  0  0
  9 10  1  0  0  0  0
  9 11  1  0  0  0  0
  9 29  1  0  0  0  0
 11 12  1  0  0  0  0
 11 13  1  0  0  0  0
 11 14  1  0  0  0  0
 14 15  2  0  0  0  0
 14 28  1  0  0  0  0
 15 16  1  0  0  0  0
 15 17  1  0  0  0  0
 17 18  1  0  0  0  0
 17 19  1  0  0  0  0
 19 20  1  0  0  0  0
 19 28  2  0  0  0  0
 20 21  1  0  0  0  0
 20 22  2  0  0  0  0
 22 23  1  0  0  0  0
 22 24  1  0  0  0  0
 24 25  1  0  0  0  0
 24 26  2  0  0  0  0
 26 27  1  0  0  0  0
 26 28  1  0  0  0  0
 29 30  2  0  0  0  0
 29 31  1  0  0  0  0
 31 32  1  0  0  0  0
 31 33  1  0  0  0  0
 33 34  1  0  0  0  0
 33 35  1  0  0  0  0
 33 36  1  0  0  0  0
M  END
$$$$

  -OEChem-01062216103D

 36 37  0     1  0  0  0  0  0999 V2000
   -3.7159   -2.6257    0.3311 H   0  0  0  0  0  0  0  0  0  0  0  0
   -3.7022   -1.7192   -0.2809 C   0  0  0  0  0  0  0  0  0  0  0  0
   -4.2304   -0.9275    0.2558 H   0  0  0  0  0  0  0  0  0  0  0  0
   -4.2153   -1.9211   -1.2240 H   0  0  0  0  0  0  0  0  0  0  0  0
   -2.2705   -1.2958   -0.5487 C   0  0  0  0  0  0  0  0  0  0  0  0
   -1.3592   -2.0730   -0.3168 O   0  0  0  0  0  0  0  0  0  0  0  0
   -2.0204   -0.1604   -1.2946 N   0  0  0  0  0  0  0  0  0  0  0  0
   -2.8594    0.3067   -1.6164 H   0  0  0  0  0  0  0  0  0  0  0  0
   -0.8458    0.7276   -1.1328 C   0  0  1  0  0  0  0  0  0  0  0  0
   -0.1660    0.5333   -1.9680 H   0  0  0  0  0  0  0  0  0  0  0  0
   -1.3785    2.1744   -1.2299 C   0  0  0  0  0  0  0  0  0  0  0  0
   -2.1778    2.3134   -0.4942 H   0  0  0  0  0  0  0  0  0  0  0  0
   -0.5949    2.8994   -0.9910 H   0  0  0  0  0  0  0  0  0  0  0  0
   -1.8917    2.4841   -2.6132 C   0  0  0  0  0  0  0  0  0  0  0  0
   -3.2004    2.4321   -3.0332 C   0  0  0  0  0  0  0  0  0  0  0  0
   -4.0593    2.1876   -2.4126 H   0  0  0  0  0  0  0  0  0  0  0  0
   -3.2224    2.7606   -4.3863 N   0  0  0  0  0  0  0  0  0  0  0  0
   -4.0563    2.8157   -4.9684 H   0  0  0  0  0  0  0  0  0  0  0  0
   -1.9399    3.0196   -4.8410 C   0  0  0  0  0  0  0  0  0  0  0  0
   -1.4579    3.3816   -6.0987 C   0  0  0  0  0  0  0  0  0  0  0  0
   -2.1411    3.5057   -6.9317 H   0  0  0  0  0  0  0  0  0  0  0  0
   -0.0809    3.5805   -6.2710 C   0  0  0  0  0  0  0  0  0  0  0  0
    0.3086    3.8626   -7.2449 H   0  0  0  0  0  0  0  0  0  0  0  0
    0.7948    3.4150   -5.1870 C   0  0  0  0  0  0  0  0  0  0  0  0
    1.8609    3.5683   -5.3249 H   0  0  0  0  0  0  0  0  0  0  0  0
    0.2979    3.0528   -3.9266 C   0  0  0  0  0  0  0  0  0  0  0  0
    0.9730    2.9276   -3.0874 H   0  0  0  0  0  0  0  0  0  0  0  0
   -1.0775    2.8566   -3.7631 C   0  0  0  0  0  0  0  0  0  0  0  0
    0.0151    0.6161    0.1617 C   0  0  0  0  0  0  0  0  0  0  0  0
   -0.4744    0.2228    1.2139 O   0  0  0  0  0  0  0  0  0  0  0  0
    1.1192    1.4441    0.3022 N   0  0  0  0  0  0  0  0  0  0  0  0
    1.5100    1.8442   -0.5444 H   0  0  0  0  0  0  0  0  0  0  0  0
    1.8573    1.6010    1.5514 C   0  0  0  0  0  0  0  0  0  0  0  0
    2.2070    0.6289    1.9154 H   0  0  0  0  0  0  0  0  0  0  0  0
    2.7279    2.2458    1.3977 H   0  0  0  0  0  0  0  0  0  0  0  0
    1.2215    2.0559    2.3182 H   0  0  0  0  0  0  0  0  0  0  0  0
  1  2  1  0  0  0  0
  2  3  1  0  0  0  0
  2  4  1  0  0  0  0
  2  5  1  0  0  0  0
  5  6  2  0  0  0  0
  5  7  1  0  0  0  0
  7  8  1  0  0  0  0
  7  9  1  0  0  0  0
  9 10  1  0  0  0  0
  9 11  1  0  0  0  0
  9 29  1  0  0  0  0
 11 12  1  0  0  0  0
 11 13  1  0  0  0  0
 11 14  1  0  0  0  0
 14 15  2  0  0  0  0
 14 28  1  0  0  0  0
 15 16  1  0  0  0  0
 15 17  1  0  0  0  0
 17 18  1  0  0  0  0
 17 19  1  0  0  0  0
 19 20  1  0  0  0  0
 19 28  2  0  0  0  0
 20 21  1  0  0  0  0
 20 22  2  0  0  0  0
 22 23  1  0  0  0  0
 22 24  1  0  0  0  0
 24 25  1  0  0  0  0
 24 26  2  0  0  0  0
 26 27  1  0  0  0  0
 26 28  1  0  0  0  0
 29 30  2  0  0  0  0
 29 31  1  0  0  0  0
 31 32  1  0  0  0  0
 31 33  1  0  0  0  0
 33 34  1  0  0  0  0
 33 35  1  0  0  0  0
 33 36  1  0  0  0  0
M  END
$$$$

  -OEChem-01062216103D

 36 37  0     1  0  0  0  0  0999 V2000
   -3.6968   -2.5986    0.3553 H   0  0  0  0  0  0  0  0  0  0  0  0
   -3.6882   -1.6774   -0.2341 C   0  0  0  0  0  0  0  0  0  0  0  0
   -4.1483   -0.8812    0.3557 H   0  0  0  0  0  0  0  0  0  0  0  0
   -4.2696   -1.8349   -1.1454 H   0  0  0  0  0  0  0  0  0  0  0  0
   -2.2614   -1.3016   -0.5851 C   0  0  0  0  0  0  0  0  0  0  0  0
   -1.3783   -2.1352   -0.4774 O   0  0  0  0  0  0  0  0  0  0  0  0
   -2.0148   -0.1471   -1.3010 N   0  0  0  0  0  0  0  0  0  0  0  0
   -2.8615    0.3309   -1.5833 H   0  0  0  0  0  0  0  0  0  0  0  0
   -0.8475    0.7509   -1.1267 C   0  0  1  0  0  0  0  0  0  0  0  0
   -0.1693    0.5682   -1.9659 H   0  0  0  0  0  0  0  0  0  0  0  0
   -1.4149    2.1874   -1.2381 C   0  0  0  0  0  0  0  0  0  0  0  0
   -2.2250    2.3118   -0.5116 H   0  0  0  0  0  0  0  0  0  0  0  0
   -0.6584    2.9404   -1.0043 H   0  0  0  0  0  0  0  0  0  0  0  0
   -1.9182    2.4777   -2.6289 C   0  0  0  0  0  0  0  0  0  0  0  0
   -3.2187    2.3939   -3.0694 C   0  0  0  0  0  0  0  0  0  0  0  0
   -4.0830    2.1334   -2.4627 H   0  0  0  0  0  0  0  0  0  0  0  0
   -3.2252    2.7150   -4.4243 N   0  0  0  0  0  0  0  0  0  0  0  0
   -4.0496    2.7428   -5.0217 H   0  0  0  0  0  0  0  0  0  0  0  0
   -1.9412    2.9972   -4.8607 C   0  0  0  0  0  0  0  0  0  0  0  0
   -1.4463    3.3586   -6.1135 C   0  0  0  0  0  0  0  0  0  0  0  0
   -2.1183    3.4644   -6.9579 H   0  0  0  0  0  0  0  0  0  0  0  0
   -0.0705    3.5804   -6.2661 C   0  0  0  0  0  0  0  0  0  0  0  0
    0.3297    3.8602   -7.2363 H   0  0  0  0  0  0  0  0  0  0  0  0
    0.7910    3.4397   -5.1673 C   0  0  0  0  0  0  0  0  0  0  0  0
    1.8562    3.6108   -5.2902 H   0  0  0  0  0  0  0  0  0  0  0  0
    0.2816    3.0779   -3.9122 C   0  0  0  0  0  0  0  0  0  0  0  0
    0.9474    2.9686   -3.0635 H   0  0  0  0  0  0  0  0  0  0  0  0
   -1.0929    2.8587   -3.7684 C   0  0  0  0  0  0  0  0  0  0  0  0
    0.0428    0.6454    0.1561 C   0  0  0  0  0  0  0  0  0  0  0  0
   -0.2596   -0.0514    1.1145 O   0  0  0  0  0  0  0  0  0  0  0  0
    0.9308    1.6704    0.4525 N   0  0  0  0  0  0  0  0  0  0  0  0
    1.1632    2.3150   -0.2959 H   0  0  0  0  0  0  0  0  0  0  0  0
    1.6492    1.7865    1.7179 C   0  0  0  0  0  0  0  0  0  0  0  0
    2.2433    0.8859    1.9059 H   0  0  0  0  0  0  0  0  0  0  0  0
    2.3247    2.6467    1.6910 H   0  0  0  0  0  0  0  0  0  0  0  0
    0.9466    1.9253    2.5464 H   0  0  0  0  0  0  0  0  0  0  0  0
  1  2  1  0  0  0  0
  2  3  1  0  0  0  0
  2  4  1  0  0  0  0
  2  5  1  0  0  0  0
  5  6  2  0  0  0  0
  5  7  1  0  0  0  0
  7  8  1  0  0  0  0
  7  9  1  0  0  0  0
  9 10  1  0  0  0  0
  9 11  1  0  0  0  0
  9 29  1  0  0  0  0
 11 12  1  0  0  0  0
 11 13  1  0  0  0  0
 11 14  1  0  0  0  0
 14 15  2  0  0  0  0
 14 28  1  0  0  0  0
 15 16  1  0  0  0  0
 15 17  1  0  0  0  0
 17 18  1  0  0  0  0
 17 19  1  0  0  0  0
 19 20  1  0  0  0  0
 19 28  2  0  0  0  0
 20 21  1  0  0  0  0
 20 22  2  0  0  0  0
 22 23  1  0  0  0  0
 22 24  1  0  0  0  0
 24 25  1  0  0  0  0
 24 26  2  0  0  0  0
 26 27  1  0  0  0  0
 26 28  1  0  0  0  0
 29 30  2  0  0  0  0
 29 31  1  0  0  0  0
 31 32  1  0  0  0  0
 31 33  1  0  0  0  0
 33 34  1  0  0  0  0
 33 35  1  0  0  0  0
 33 36  1  0  0  0  0
M  END
$$$$

  -OEChem-01062216103D

 36 37  0     1  0  0  0  0  0999 V2000
   -3.4491   -2.8351   -0.1067 H   0  0  0  0  0  0  0  0  0  0  0  0
   -3.3230   -2.0443   -0.8515 C   0  0  0  0  0  0  0  0  0  0  0  0
   -4.3061   -1.7498   -1.2265 H   0  0  0  0  0  0  0  0  0  0  0  0
   -2.7249   -2.4363   -1.6776 H   0  0  0  0  0  0  0  0  0  0  0  0
   -2.6243   -0.8513   -0.2274 C   0  0  0  0  0  0  0  0  0  0  0  0
   -2.5996   -0.7403    0.9860 O   0  0  0  0  0  0  0  0  0  0  0  0
   -2.3006    0.2351   -1.0153 N   0  0  0  0  0  0  0  0  0  0  0  0
   -2.6288    0.1276   -1.9703 H   0  0  0  0  0  0  0  0  0  0  0  0
   -1.0428    1.0158   -0.9289 C   0  0  1  0  0  0  0  0  0  0  0  0
   -0.4056    0.7230   -1.7690 H   0  0  0  0  0  0  0  0  0  0  0  0
   -1.4572    2.4896   -1.1227 C   0  0  0  0  0  0  0  0  0  0  0  0
   -2.2308    2.7495   -0.3921 H   0  0  0  0  0  0  0  0  0  0  0  0
   -0.6143    3.1681   -0.9688 H   0  0  0  0  0  0  0  0  0  0  0  0
   -1.9644    2.7122   -2.5238 C   0  0  0  0  0  0  0  0  0  0  0  0
   -3.2825    2.7200   -2.9120 C   0  0  0  0  0  0  0  0  0  0  0  0
   -4.1367    2.5980   -2.2484 H   0  0  0  0  0  0  0  0  0  0  0  0
   -3.3123    2.9086   -4.2917 N   0  0  0  0  0  0  0  0  0  0  0  0
   -4.1553    2.9823   -4.8587 H   0  0  0  0  0  0  0  0  0  0  0  0
   -2.0242    3.0133   -4.7931 C   0  0  0  0  0  0  0  0  0  0  0  0
   -1.5441    3.2006   -6.0892 C   0  0  0  0  0  0  0  0  0  0  0  0
   -2.2343    3.2968   -6.9201 H   0  0  0  0  0  0  0  0  0  0  0  0
   -0.1597    3.2609   -6.3030 C   0  0  0  0  0  0  0  0  0  0  0  0
    0.2287    3.4051   -7.3071 H   0  0  0  0  0  0  0  0  0  0  0  0
    0.7258    3.1342   -5.2216 C   0  0  0  0  0  0  0  0  0  0  0  0
    1.7974    3.1800   -5.3916 H   0  0  0  0  0  0  0  0  0  0  0  0
    0.2322    2.9494   -3.9222 C   0  0  0  0  0  0  0  0  0  0  0  0
    0.9158    2.8518   -3.0853 H   0  0  0  0  0  0  0  0  0  0  0  0
   -1.1507    2.8922   -3.7183 C   0  0  0  0  0  0  0  0  0  0  0  0
   -0.1394    0.8363    0.3278 C   0  0  0  0  0  0  0  0  0  0  0  0
    0.2467   -0.2905    0.6140 O   0  0  0  0  0  0  0  0  0  0  0  0
    0.6514    1.8724    0.8040 N   0  0  0  0  0  0  0  0  0  0  0  0
    0.3776    2.8165    0.5538 H   0  0  0  0  0  0  0  0  0  0  0  0
    1.6772    1.6958    1.8267 C   0  0  0  0  0  0  0  0  0  0  0  0
    2.4795    1.0485    1.4573 H   0  0  0  0  0  0  0  0  0  0  0  0
    2.1115    2.6629    2.0966 H   0  0  0  0  0  0  0  0  0  0  0  0
    1.2476    1.2459    2.7281 H   0  0  0  0  0  0  0  0  0  0  0  0
  1  2  1  0  0  0  0
  2  3  1  0  0  0  0
  2  4  1  0  0  0  0
  2  5  1  0  0  0  0
  5  6  2  0  0  0  0
  5  7  1  0  0  0  0
  7  8  1  0  0  0  0
  7  9  1  0  0  0  0
  9 10  1  0  0  0  0
  9 11  1  0  0  0  0
  9 29  1  0  0  0  0
 11 12  1  0  0  0  0
 11 13  1  0  0  0  0
 11 14  1  0  0  0  0
 14 15  2  0  0  0  0
 14 28  1  0  0  0  0
 15 16  1  0  0  0  0
 15 17  1  0  0  0  0
 17 18  1  0  0  0  0
 17 19  1  0  0  0  0
 19 20  1  0  0  0  0
 19 28  2  0  0  0  0
 20 21  1  0  0  0  0
 20 22  2  0  0  0  0
 22 23  1  0  0  0  0
 22 24  1  0  0  0  0
 24 25  1  0  0  0  0
 24 26  2  0  0  0  0
 26 27  1  0  0  0  0
 26 28  1  0  0  0  0
 29 30  2  0  0  0  0
 29 31  1  0  0  0  0
 31 32  1  0  0  0  0
 31 33  1  0  0  0  0
 33 34  1  0  0  0  0
 33 35  1  0  0  0  0
 33 36  1  0  0  0  0
M  END
$$$$

  -OEChem-01062216103D

 36 37  0     1  0  0  0  0  0999 V2000
   -3.5229   -2.8145   -0.1096 H   0  0  0  0  0  0  0  0  0  0  0  0
   -3.3984   -2.0125   -0.8427 C   0  0  0  0  0  0  0  0  0  0  0  0
   -4.3845   -1.6457   -1.1370 H   0  0  0  0  0  0  0  0  0  0  0  0
   -2.8885   -2.4176   -1.7200 H   0  0  0  0  0  0  0  0  0  0  0  0
   -2.5808   -0.8840   -0.2436 C   0  0  0  0  0  0  0  0  0  0  0  0
   -2.4157   -0.8446    0.9629 O   0  0  0  0  0  0  0  0  0  0  0  0
   -2.2666    0.2089   -1.0279 N   0  0  0  0  0  0  0  0  0  0  0  0
   -2.6296    0.1305   -1.9732 H   0  0  0  0  0  0  0  0  0  0  0  0
   -1.0221    1.0095   -0.9470 C   0  0  1  0  0  0  0  0  0  0  0  0
   -0.3804    0.7218   -1.7860 H   0  0  0  0  0  0  0  0  0  0  0  0
   -1.4466    2.4787   -1.1443 C   0  0  0  0  0  0  0  0  0  0  0  0
   -2.2203    2.7376   -0.4136 H   0  0  0  0  0  0  0  0  0  0  0  0
   -0.6022    3.1576   -0.9934 H   0  0  0  0  0  0  0  0  0  0  0  0
   -1.9574    2.6952   -2.5452 C   0  0  0  0  0  0  0  0  0  0  0  0
   -3.2759    2.6936   -2.9325 C   0  0  0  0  0  0  0  0  0  0  0  0
   -4.1290    2.5654   -2.2688 H   0  0  0  0  0  0  0  0  0  0  0  0
   -3.3083    2.8838   -4.3120 N   0  0  0  0  0  0  0  0  0  0  0  0
   -4.1518    2.9532   -4.8785 H   0  0  0  0  0  0  0  0  0  0  0  0
   -2.0217    3.0018   -4.8137 C   0  0  0  0  0  0  0  0  0  0  0  0
   -1.5439    3.1985   -6.1093 C   0  0  0  0  0  0  0  0  0  0  0  0
   -2.2350    3.2911   -6.9398 H   0  0  0  0  0  0  0  0  0  0  0  0
   -0.1601    3.2743   -6.3228 C   0  0  0  0  0  0  0  0  0  0  0  0
    0.2264    3.4270   -7.3263 H   0  0  0  0  0  0  0  0  0  0  0  0
    0.7267    3.1534   -5.2417 C   0  0  0  0  0  0  0  0  0  0  0  0
    1.7978    3.2122   -5.4108 H   0  0  0  0  0  0  0  0  0  0  0  0
    0.2352    2.9582   -3.9429 C   0  0  0  0  0  0  0  0  0  0  0  0
    0.9190    2.8653   -3.1051 H   0  0  0  0  0  0  0  0  0  0  0  0
   -1.1468    2.8858   -3.7396 C   0  0  0  0  0  0  0  0  0  0  0  0
   -0.1246    0.8337    0.3120 C   0  0  0  0  0  0  0  0  0  0  0  0
    0.4376   -0.2439    0.4679 O   0  0  0  0  0  0  0  0  0  0  0  0
    0.4164    1.9155    0.9909 N   0  0  0  0  0  0  0  0  0  0  0  0
   -0.0543    2.8074    0.8807 H   0  0  0  0  0  0  0  0  0  0  0  0
    1.3776    1.7699    2.0783 C   0  0  0  0  0  0  0  0  0  0  0  0
    2.3032    1.3123    1.7136 H   0  0  0  0  0  0  0  0  0  0  0  0
    1.6209    2.7492    2.5011 H   0  0  0  0  0  0  0  0  0  0  0  0
    0.9636    1.1418    2.8743 H   0  0  0  0  0  0  0  0  0  0  0  0
  1  2  1  0  0  0  0
  2  3  1  0  0  0  0
  2  4  1  0  0  0  0
  2  5  1  0  0  0  0
  5  6  2  0  0  0  0
  5  7  1  0  0  0  0
  7  8  1  0  0  0  0
  7  9  1  0  0  0  0
  9 10  1  0  0  0  0
  9 11  1  0  0  0  0
  9 29  1  0  0  0  0
 11 12  1  0  0  0  0
 11 13  1  0  0  0  0
 11 14  1  0  0  0  0
 14 15  2  0  0  0  0
 14 28  1  0  0  0  0
 15 16  1  0  0  0  0
 15 17  1  0  0  0  0
 17 18  1  0  0  0  0
 17 19  1  0  0  0  0
 19 20  1  0  0  0  0
 19 28  2  0  0  0  0
 20 21  1  0  0  0  0
 20 22  2  0  0  0  0
 22 23  1  0  0  0  0
 22 24  1  0  0  0  0
 24 25  1  0  0  0  0
 24 26  2  0  0  0  0
 26 27  1  0  0  0  0
 26 28  1  0  0  0  0
 29 30  2  0  0  0  0
 29 31  1  0  0  0  0
 31 32  1  0  0  0  0
 31 33  1  0  0  0  0
 33 34  1  0  0  0  0
 33 35  1  0  0  0  0
 33 36  1  0  0  0  0
M  END
$$$$

  -OEChem-01062216103D

 36 37  0     1  0  0  0  0  0999 V2000
   -3.5677   -2.8122   -0.1197 H   0  0  0  0  0  0  0  0  0  0  0  0
   -3.4534   -1.9966   -0.8394 C   0  0  0  0  0  0  0  0  0  0  0  0
   -4.4384   -1.5777   -1.0583 H   0  0  0  0  0  0  0  0  0  0  0  0
   -3.0210   -2.3998   -1.7582 H   0  0  0  0  0  0  0  0  0  0  0  0
   -2.5472   -0.9224   -0.2683 C   0  0  0  0  0  0  0  0  0  0  0  0
   -2.2613   -0.9578    0.9150 O   0  0  0  0  0  0  0  0  0  0  0  0
   -2.2417    0.1791   -1.0452 N   0  0  0  0  0  0  0  0  0  0  0  0
   -2.6404    0.1336   -1.9784 H   0  0  0  0  0  0  0  0  0  0  0  0
   -1.0109    0.9993   -0.9641 C   0  0  1  0  0  0  0  0  0  0  0  0
   -0.3667    0.7215   -1.8050 H   0  0  0  0  0  0  0  0  0  0  0  0
   -1.4444    2.4662   -1.1538 C   0  0  0  0  0  0  0  0  0  0  0  0
   -2.2204    2.7168   -0.4230 H   0  0  0  0  0  0  0  0  0  0  0  0
   -0.6001    3.1442   -0.9936 H   0  0  0  0  0  0  0  0  0  0  0  0
   -1.9582    2.6902   -2.5516 C   0  0  0  0  0  0  0  0  0  0  0  0
   -3.2762    2.6854   -2.9410 C   0  0  0  0  0  0  0  0  0  0  0  0
   -4.1301    2.5540   -2.2792 H   0  0  0  0  0  0  0  0  0  0  0  0
   -3.3067    2.8777   -4.3203 N   0  0  0  0  0  0  0  0  0  0  0  0
   -4.1490    2.9456   -4.8888 H   0  0  0  0  0  0  0  0  0  0  0  0
   -2.0191    2.9991   -4.8197 C   0  0  0  0  0  0  0  0  0  0  0  0
   -1.5380    3.1964   -6.1141 C   0  0  0  0  0  0  0  0  0  0  0  0
   -2.2271    3.2852   -6.9467 H   0  0  0  0  0  0  0  0  0  0  0  0
   -0.1538    3.2773   -6.3234 C   0  0  0  0  0  0  0  0  0  0  0  0
    0.2356    3.4310   -7.3256 H   0  0  0  0  0  0  0  0  0  0  0  0
    0.7306    3.1600   -5.2398 C   0  0  0  0  0  0  0  0  0  0  0  0
    1.8021    3.2221   -5.4055 H   0  0  0  0  0  0  0  0  0  0  0  0
    0.2362    2.9629   -3.9427 C   0  0  0  0  0  0  0  0  0  0  0  0
    0.9182    2.8711   -3.1032 H   0  0  0  0  0  0  0  0  0  0  0  0
   -1.1463    2.8856   -3.7438 C   0  0  0  0  0  0  0  0  0  0  0  0
   -0.1121    0.8349    0.2936 C   0  0  0  0  0  0  0  0  0  0  0  0
    0.6192   -0.1466    0.3516 O   0  0  0  0  0  0  0  0  0  0  0  0
    0.1642    1.8893    1.1507 N   0  0  0  0  0  0  0  0  0  0  0  0
   -0.4821    2.6711    1.1330 H   0  0  0  0  0  0  0  0  0  0  0  0
    1.0722    1.7680    2.2850 C   0  0  0  0  0  0  0  0  0  0  0  0
    2.0856    1.5350    1.9421 H   0  0  0  0  0  0  0  0  0  0  0  0
    1.1056    2.7080    2.8440 H   0  0  0  0  0  0  0  0  0  0  0  0
    0.7375    0.9737    2.9606 H   0  0  0  0  0  0  0  0  0  0  0  0
  1  2  1  0  0  0  0
  2  3  1  0  0  0  0
  2  4  1  0  0  0  0
  2  5  1  0  0  0  0
  5  6  2  0  0  0  0
  5  7  1  0  0  0  0
  7  8  1  0  0  0  0
  7  9  1  0  0  0  0
  9 10  1  0  0  0  0
  9 11  1  0  0  0  0
  9 29  1  0  0  0  0
 11 12  1  0  0  0  0
 11 13  1  0  0  0  0
 11 14  1  0  0  0  0
 14 15  2  0  0  0  0
 14 28  1  0  0  0  0
 15 16  1  0  0  0  0
 15 17  1  0  0  0  0
 17 18  1  0  0  0  0
 17 19  1  0  0  0  0
 19 20  1  0  0  0  0
 19 28  2  0  0  0  0
 20 21  1  0  0  0  0
 20 22  2  0  0  0  0
 22 23  1  0  0  0  0
 22 24  1  0  0  0  0
 24 25  1  0  0  0  0
 24 26  2  0  0  0  0
 26 27  1  0  0  0  0
 26 28  1  0  0  0  0
 29 30  2  0  0  0  0
 29 31  1  0  0  0  0
 31 32  1  0  0  0  0
 31 33  1  0  0  0  0
 33 34  1  0  0  0  0
 33 35  1  0  0  0  0
 33 36  1  0  0  0  0
M  END
$$$$

  -OEChem-01062216103D

 36 37  0     1  0  0  0  0  0999 V2000
   -3.6130   -2.8098   -0.1167 H   0  0  0  0  0  0  0  0  0  0  0  0
   -3.5038   -1.9836   -0.8250 C   0  0  0  0  0  0  0  0  0  0  0  0
   -4.4802   -1.5181   -0.9770 H   0  0  0  0  0  0  0  0  0  0  0  0
   -3.1441   -2.3844   -1.7757 H   0  0  0  0  0  0  0  0  0  0  0  0
   -2.5197   -0.9614   -0.2878 C   0  0  0  0  0  0  0  0  0  0  0  0
   -2.1263   -1.0665    0.8595 O   0  0  0  0  0  0  0  0  0  0  0  0
   -2.2201    0.1458   -1.0596 N   0  0  0  0  0  0  0  0  0  0  0  0
   -2.6580    0.1357   -1.9762 H   0  0  0  0  0  0  0  0  0  0  0  0
   -1.0022    0.9844   -0.9777 C   0  0  1  0  0  0  0  0  0  0  0  0
   -0.3560    0.7134   -1.8197 H   0  0  0  0  0  0  0  0  0  0  0  0
   -1.4427    2.4487   -1.1614 C   0  0  0  0  0  0  0  0  0  0  0  0
   -2.2227    2.6917   -0.4323 H   0  0  0  0  0  0  0  0  0  0  0  0
   -0.6005    3.1270   -0.9890 H   0  0  0  0  0  0  0  0  0  0  0  0
   -1.9575    2.6776   -2.5582 C   0  0  0  0  0  0  0  0  0  0  0  0
   -3.2742    2.6695   -2.9519 C   0  0  0  0  0  0  0  0  0  0  0  0
   -4.1305    2.5319   -2.2949 H   0  0  0  0  0  0  0  0  0  0  0  0
   -3.3012    2.8703   -4.3301 N   0  0  0  0  0  0  0  0  0  0  0  0
   -4.1417    2.9423   -4.9005 H   0  0  0  0  0  0  0  0  0  0  0  0
   -2.0129    2.9999   -4.8246 C   0  0  0  0  0  0  0  0  0  0  0  0
   -1.5279    3.2053   -6.1162 C   0  0  0  0  0  0  0  0  0  0  0  0
   -2.2140    3.2940   -6.9513 H   0  0  0  0  0  0  0  0  0  0  0  0
   -0.1433    3.2927   -6.3203 C   0  0  0  0  0  0  0  0  0  0  0  0
    0.2490    3.4517   -7.3205 H   0  0  0  0  0  0  0  0  0  0  0  0
    0.7373    3.1747   -5.2339 C   0  0  0  0  0  0  0  0  0  0  0  0
    1.8092    3.2421   -5.3946 H   0  0  0  0  0  0  0  0  0  0  0  0
    0.2389    2.9692   -3.9396 C   0  0  0  0  0  0  0  0  0  0  0  0
    0.9173    2.8775   -3.0971 H   0  0  0  0  0  0  0  0  0  0  0  0
   -1.1436    2.8842   -3.7466 C   0  0  0  0  0  0  0  0  0  0  0  0
   -0.1016    0.8387    0.2785 C   0  0  0  0  0  0  0  0  0  0  0  0
    0.7951    0.0042    0.2549 O   0  0  0  0  0  0  0  0  0  0  0  0
   -0.0831    1.7908    1.2858 N   0  0  0  0  0  0  0  0  0  0  0  0
   -0.8902    2.4030    1.3407 H   0  0  0  0  0  0  0  0  0  0  0  0
    0.7766    1.6754    2.4574 C   0  0  0  0  0  0  0  0  0  0  0  0
    1.8309    1.6674    2.1613 H   0  0  0  0  0  0  0  0  0  0  0  0
    0.6148    2.5237    3.1295 H   0  0  0  0  0  0  0  0  0  0  0  0
    0.5564    0.7517    3.0031 H   0  0  0  0  0  0  0  0  0  0  0  0
  1  2  1  0  0  0  0
  2  3  1  0  0  0  0
  2  4  1  0  0  0  0
  2  5  1  0  0  0  0
  5  6  2  0  0  0  0
  5  7  1  0  0  0  0
  7  8  1  0  0  0  0
  7  9  1  0  0  0  0
  9 10  1  0  0  0  0
  9 11  1  0  0  0  0
  9 29  1  0  0  0  0
 11 12  1  0  0  0  0
 11 13  1  0  0  0  0
 11 14  1  0  0  0  0
 14 15  2  0  0  0  0
 14 28  1  0  0  0  0
 15 16  1  0  0  0  0
 15 17  1  0  0  0  0
 17 18  1  0  0  0  0
 17 19  1  0  0  0  0
 19 20  1  0  0  0  0
 19 28  2  0  0  0  0
 20 21  1  0  0  0  0
 20 22  2  0  0  0  0
 22 23  1  0  0  0  0
 22 24  1  0  0  0  0
 24 25  1  0  0  0  0
 24 26  2  0  0  0  0
 26 27  1  0  0  0  0
 26 28  1  0  0  0  0
 29 30  2  0  0  0  0
 29 31  1  0  0  0  0
 31 32  1  0  0  0  0
 31 33  1  0  0  0  0
 33 34  1  0  0  0  0
 33 35  1  0  0  0  0
 33 36  1  0  0  0  0
M  END
$$$$

  -OEChem-01062216103D

 36 37  0     1  0  0  0  0  0999 V2000
   -3.6541   -2.7984   -0.1046 H   0  0  0  0  0  0  0  0  0  0  0  0
   -3.5429   -1.9707   -0.8111 C   0  0  0  0  0  0  0  0  0  0  0  0
   -4.5074   -1.4697   -0.9212 H   0  0  0  0  0  0  0  0  0  0  0  0
   -3.2355   -2.3757   -1.7783 H   0  0  0  0  0  0  0  0  0  0  0  0
   -2.5024   -0.9893   -0.3051 C   0  0  0  0  0  0  0  0  0  0  0  0
   -2.0375   -1.1439    0.8094 O   0  0  0  0  0  0  0  0  0  0  0  0
   -2.2022    0.1195   -1.0743 N   0  0  0  0  0  0  0  0  0  0  0  0
   -2.6673    0.1362   -1.9776 H   0  0  0  0  0  0  0  0  0  0  0  0
   -0.9934    0.9703   -0.9891 C   0  0  1  0  0  0  0  0  0  0  0  0
   -0.3447    0.7054   -1.8310 H   0  0  0  0  0  0  0  0  0  0  0  0
   -1.4362    2.4337   -1.1640 C   0  0  0  0  0  0  0  0  0  0  0  0
   -2.2170    2.6721   -0.4346 H   0  0  0  0  0  0  0  0  0  0  0  0
   -0.5938    3.1095   -0.9817 H   0  0  0  0  0  0  0  0  0  0  0  0
   -1.9512    2.6698   -2.5599 C   0  0  0  0  0  0  0  0  0  0  0  0
   -3.2678    2.6618   -2.9547 C   0  0  0  0  0  0  0  0  0  0  0  0
   -4.1241    2.5216   -2.2983 H   0  0  0  0  0  0  0  0  0  0  0  0
   -3.2948    2.8680   -4.3322 N   0  0  0  0  0  0  0  0  0  0  0  0
   -4.1352    2.9420   -4.9027 H   0  0  0  0  0  0  0  0  0  0  0  0
   -2.0064    3.0015   -4.8258 C   0  0  0  0  0  0  0  0  0  0  0  0
   -1.5213    3.2147   -6.1163 C   0  0  0  0  0  0  0  0  0  0  0  0
   -2.2069    3.3072   -6.9513 H   0  0  0  0  0  0  0  0  0  0  0  0
   -0.1368    3.3067   -6.3190 C   0  0  0  0  0  0  0  0  0  0  0  0
    0.2554    3.4725   -7.3181 H   0  0  0  0  0  0  0  0  0  0  0  0
    0.7437    3.1843   -5.2329 C   0  0  0  0  0  0  0  0  0  0  0  0
    1.8155    3.2556   -5.3927 H   0  0  0  0  0  0  0  0  0  0  0  0
    0.2452    2.9704   -3.9399 C   0  0  0  0  0  0  0  0  0  0  0  0
    0.9233    2.8751   -3.0973 H   0  0  0  0  0  0  0  0  0  0  0  0
   -1.1373    2.8822   -3.7477 C   0  0  0  0  0  0  0  0  0  0  0  0
   -0.0968    0.8413    0.2695 C   0  0  0  0  0  0  0  0  0  0  0  0
    0.9502    0.2112    0.1808 O   0  0  0  0  0  0  0  0  0  0  0  0
   -0.3124    1.6211    1.3941 N   0  0  0  0  0  0  0  0  0  0  0  0
   -1.2533    1.9865    1.4994 H   0  0  0  0  0  0  0  0  0  0  0  0
    0.5089    1.4965    2.5918 C   0  0  0  0  0  0  0  0  0  0  0  0
    1.5552    1.7284    2.3664 H   0  0  0  0  0  0  0  0  0  0  0  0
    0.1612    2.1915    3.3619 H   0  0  0  0  0  0  0  0  0  0  0  0
    0.4509    0.4780    2.9905 H   0  0  0  0  0  0  0  0  0  0  0  0
  1  2  1  0  0  0  0
  2  3  1  0  0  0  0
  2  4  1  0  0  0  0
  2  5  1  0  0  0  0
  5  6  2  0  0  0  0
  5  7  1  0  0  0  0
  7  8  1  0  0  0  0
  7  9  1  0  0  0  0
  9 10  1  0  0  0  0
  9 11  1  0  0  0  0
  9 29  1  0  0  0  0
 11 12  1  0  0  0  0
 11 13  1  0  0  0  0
 11 14  1  0  0  0  0
 14 15  2  0  0  0  0
 14 28  1  0  0  0  0
 15 16  1  0  0  0  0
 15 17  1  0  0  0  0
 17 18  1  0  0  0  0
 17 19  1  0  0  0  0
 19 20  1  0  0  0  0
 19 28  2  0  0  0  0
 20 21  1  0  0  0  0
 20 22  2  0  0  0  0
 22 23  1  0  0  0  0
 22 24  1  0  0  0  0
 24 25  1  0  0  0  0
 24 26  2  0  0  0  0
 26 27  1  0  0  0  0
 26 28  1  0  0  0  0
 29 30  2  0  0  0  0
 29 31  1  0  0  0  0
 31 32  1  0  0  0  0
 31 33  1  0  0  0  0
 33 34  1  0  0  0  0
 33 35  1  0  0  0  0
 33 36  1  0  0  0  0
M  END
$$$$

  -OEChem-01062216103D

 36 37  0     1  0  0  0  0  0999 V2000
   -3.7068   -2.7978   -0.1192 H   0  0  0  0  0  0  0  0  0  0  0  0
   -3.5905   -1.9627   -0.8161 C   0  0  0  0  0  0  0  0  0  0  0  0
   -4.5426   -1.4321   -0.8925 H   0  0  0  0  0  0  0  0  0  0  0  0
   -3.3212   -2.3608   -1.7974 H   0  0  0  0  0  0  0  0  0  0  0  0
   -2.5078   -1.0196   -0.3265 C   0  0  0  0  0  0  0  0  0  0  0  0
   -1.9967   -1.2187    0.7600 O   0  0  0  0  0  0  0  0  0  0  0  0
   -2.1971    0.0903   -1.0893 N   0  0  0  0  0  0  0  0  0  0  0  0
   -2.6845    0.1371   -1.9799 H   0  0  0  0  0  0  0  0  0  0  0  0
   -0.9932    0.9475   -0.9963 C   0  0  1  0  0  0  0  0  0  0  0  0
   -0.3415    0.6869   -1.8373 H   0  0  0  0  0  0  0  0  0  0  0  0
   -1.4378    2.4108   -1.1601 C   0  0  0  0  0  0  0  0  0  0  0  0
   -2.2197    2.6429   -0.4298 H   0  0  0  0  0  0  0  0  0  0  0  0
   -0.5968    3.0861   -0.9688 H   0  0  0  0  0  0  0  0  0  0  0  0
   -1.9509    2.6565   -2.5548 C   0  0  0  0  0  0  0  0  0  0  0  0
   -3.2663    2.6497   -2.9532 C   0  0  0  0  0  0  0  0  0  0  0  0
   -4.1246    2.5049   -2.3004 H   0  0  0  0  0  0  0  0  0  0  0  0
   -3.2894    2.8675   -4.3290 N   0  0  0  0  0  0  0  0  0  0  0  0
   -4.1281    2.9477   -4.9010 H   0  0  0  0  0  0  0  0  0  0  0  0
   -1.9995    3.0056   -4.8179 C   0  0  0  0  0  0  0  0  0  0  0  0
   -1.5099    3.2298   -6.1048 C   0  0  0  0  0  0  0  0  0  0  0  0
   -2.1933    3.3320   -6.9406 H   0  0  0  0  0  0  0  0  0  0  0  0
   -0.1244    3.3195   -6.3028 C   0  0  0  0  0  0  0  0  0  0  0  0
    0.2716    3.4930   -7.2991 H   0  0  0  0  0  0  0  0  0  0  0  0
    0.7526    3.1845   -5.2154 C   0  0  0  0  0  0  0  0  0  0  0  0
    1.8252    3.2527   -5.3707 H   0  0  0  0  0  0  0  0  0  0  0  0
    0.2494    2.9619   -3.9258 C   0  0  0  0  0  0  0  0  0  0  0  0
    0.9244    2.8564   -3.0818 H   0  0  0  0  0  0  0  0  0  0  0  0
   -1.1338    2.8765   -3.7386 C   0  0  0  0  0  0  0  0  0  0  0  0
   -0.0986    0.8369    0.2634 C   0  0  0  0  0  0  0  0  0  0  0  0
    1.0623    0.4684    0.1315 O   0  0  0  0  0  0  0  0  0  0  0  0
   -0.4979    1.3848    1.4706 N   0  0  0  0  0  0  0  0  0  0  0  0
   -1.5036    1.4579    1.5912 H   0  0  0  0  0  0  0  0  0  0  0  0
    0.3196    1.2781    2.6724 C   0  0  0  0  0  0  0  0  0  0  0  0
    1.2933    1.7556    2.5201 H   0  0  0  0  0  0  0  0  0  0  0  0
   -0.1776    1.7735    3.5116 H   0  0  0  0  0  0  0  0  0  0  0  0
    0.4796    0.2267    2.9332 H   0  0  0  0  0  0  0  0  0  0  0  0
  1  2  1  0  0  0  0
  2  3  1  0  0  0  0
  2  4  1  0  0  0  0
  2  5  1  0  0  0  0
  5  6  2  0  0  0  0
  5  7  1  0  0  0  0
  7  8  1  0  0  0  0
  7  9  1  0  0  0  0
  9 10  1  0  0  0  0
  9 11  1  0  0  0  0
  9 29  1  0  0  0  0
 11 12  1  0  0  0  0
 11 13  1  0  0  0  0
 11 14  1  0  0  0  0
 14 15  2  0  0  0  0
 14 28  1  0  0  0  0
 15 16  1  0  0  0  0
 15 17  1  0  0  0  0
 17 18  1  0  0  0  0
 17 19  1  0  0  0  0
 19 20  1  0  0  0  0
 19 28  2  0  0  0  0
 20 21  1  0  0  0  0
 20 22  2  0  0  0  0
 22 23  1  0  0  0  0
 22 24  1  0  0  0  0
 24 25  1  0  0  0  0
 24 26  2  0  0  0  0
 26 27  1  0  0  0  0
 26 28  1  0  0  0  0
 29 30  2  0  0  0  0
 29 31  1  0  0  0  0
 31 32  1  0  0  0  0
 31 33  1  0  0  0  0
 33 34  1  0  0  0  0
 33 35  1  0  0  0  0
 33 36  1  0  0  0  0
M  END
$$$$

  -OEChem-01062216103D

 36 37  0     1  0  0  0  0  0999 V2000
   -3.7934   -2.7971   -0.1607 H   0  0  0  0  0  0  0  0  0  0  0  0
   -3.6624   -1.9533   -0.8444 C   0  0  0  0  0  0  0  0  0  0  0  0
   -4.5972   -1.3895   -0.8903 H   0  0  0  0  0  0  0  0  0  0  0  0
   -3.4292   -2.3423   -1.8387 H   0  0  0  0  0  0  0  0  0  0  0  0
   -2.5372   -1.0576   -0.3604 C   0  0  0  0  0  0  0  0  0  0  0  0
   -2.0016   -1.3034    0.7044 O   0  0  0  0  0  0  0  0  0  0  0  0
   -2.2033    0.0553   -1.1080 N   0  0  0  0  0  0  0  0  0  0  0  0
   -2.7081    0.1399   -1.9864 H   0  0  0  0  0  0  0  0  0  0  0  0
   -1.0002    0.9137   -1.0005 C   0  0  1  0  0  0  0  0  0  0  0  0
   -0.3461    0.6600   -1.8417 H   0  0  0  0  0  0  0  0  0  0  0  0
   -1.4485    2.3764   -1.1501 C   0  0  0  0  0  0  0  0  0  0  0  0
   -2.2317    2.5980   -0.4178 H   0  0  0  0  0  0  0  0  0  0  0  0
   -0.6104    3.0526   -0.9496 H   0  0  0  0  0  0  0  0  0  0  0  0
   -1.9568    2.6356   -2.5438 C   0  0  0  0  0  0  0  0  0  0  0  0
   -3.2698    2.6300   -2.9506 C   0  0  0  0  0  0  0  0  0  0  0  0
   -4.1322    2.4779   -2.3050 H   0  0  0  0  0  0  0  0  0  0  0  0
   -3.2844    2.8618   -4.3245 N   0  0  0  0  0  0  0  0  0  0  0  0
   -4.1192    2.9466   -4.9015 H   0  0  0  0  0  0  0  0  0  0  0  0
   -1.9915    3.0060   -4.8038 C   0  0  0  0  0  0  0  0  0  0  0  0
   -1.4935    3.2438   -6.0849 C   0  0  0  0  0  0  0  0  0  0  0  0
   -2.1715    3.3569   -6.9235 H   0  0  0  0  0  0  0  0  0  0  0  0
   -0.1066    3.3324   -6.2732 C   0  0  0  0  0  0  0  0  0  0  0  0
    0.2957    3.5158   -7.2652 H   0  0  0  0  0  0  0  0  0  0  0  0
    0.7636    3.1835   -5.1819 C   0  0  0  0  0  0  0  0  0  0  0  0
    1.8372    3.2500   -5.3303 H   0  0  0  0  0  0  0  0  0  0  0  0
    0.2524    2.9497   -3.8975 C   0  0  0  0  0  0  0  0  0  0  0  0
    0.9217    2.8344   -3.0498 H   0  0  0  0  0  0  0  0  0  0  0  0
   -1.1325    2.8656   -3.7205 C   0  0  0  0  0  0  0  0  0  0  0  0
   -0.1009    0.8244    0.2569 C   0  0  0  0  0  0  0  0  0  0  0  0
    1.1134    0.7667    0.1038 O   0  0  0  0  0  0  0  0  0  0  0  0
   -0.6075    1.0955    1.5154 N   0  0  0  0  0  0  0  0  0  0  0  0
   -1.5848    0.8334    1.6237 H   0  0  0  0  0  0  0  0  0  0  0  0
    0.2305    1.0428    2.7066 C   0  0  0  0  0  0  0  0  0  0  0  0
    1.0535    1.7613    2.6307 H   0  0  0  0  0  0  0  0  0  0  0  0
   -0.3600    1.2902    3.5937 H   0  0  0  0  0  0  0  0  0  0  0  0
    0.6490    0.0390    2.8352 H   0  0  0  0  0  0  0  0  0  0  0  0
  1  2  1  0  0  0  0
  2  3  1  0  0  0  0
  2  4  1  0  0  0  0
  2  5  1  0  0  0  0
  5  6  2  0  0  0  0
  5  7  1  0  0  0  0
  7  8  1  0  0  0  0
  7  9  1  0  0  0  0
  9 10  1  0  0  0  0
  9 11  1  0  0  0  0
  9 29  1  0  0  0  0
 11 12  1  0  0  0  0
 11 13  1  0  0  0  0
 11 14  1  0  0  0  0
 14 15  2  0  0  0  0
 14 28  1  0  0  0  0
 15 16  1  0  0  0  0
 15 17  1  0  0  0  0
 17 18  1  0  0  0  0
 17 19  1  0  0  0  0
 19 20  1  0  0  0  0
 19 28  2  0  0  0  0
 20 21  1  0  0  0  0
 20 22  2  0  0  0  0
 22 23  1  0  0  0  0
 22 24  1  0  0  0  0
 24 25  1  0  0  0  0
 24 26  2  0  0  0  0
 26 27  1  0  0  0  0
 26 28  1  0  0  0  0
 29 30  2  0  0  0  0
 29 31  1  0  0  0  0
 31 32  1  0  0  0  0
 31 33  1  0  0  0  0
 33 34  1  0  0  0  0
 33 35  1  0  0  0  0
 33 36  1  0  0  0  0
M  END
$$$$

  -OEChem-01062216103D

 36 37  0     1  0  0  0  0  0999 V2000
   -3.9212   -2.7763   -0.1909 H   0  0  0  0  0  0  0  0  0  0  0  0
   -3.7648   -1.9234   -0.8577 C   0  0  0  0  0  0  0  0  0  0  0  0
   -4.6648   -1.3038   -0.8521 H   0  0  0  0  0  0  0  0  0  0  0  0
   -3.5929   -2.2976   -1.8698 H   0  0  0  0  0  0  0  0  0  0  0  0
   -2.5706   -1.1094   -0.3954 C   0  0  0  0  0  0  0  0  0  0  0  0
   -1.9948   -1.4388    0.6245 O   0  0  0  0  0  0  0  0  0  0  0  0
   -2.2022    0.0043   -1.1256 N   0  0  0  0  0  0  0  0  0  0  0  0
   -2.7365    0.1437   -1.9789 H   0  0  0  0  0  0  0  0  0  0  0  0
   -0.9995    0.8645   -1.0039 C   0  0  1  0  0  0  0  0  0  0  0  0
   -0.3402    0.6150   -1.8422 H   0  0  0  0  0  0  0  0  0  0  0  0
   -1.4616    2.3241   -1.1520 C   0  0  0  0  0  0  0  0  0  0  0  0
   -2.2503    2.5339   -0.4220 H   0  0  0  0  0  0  0  0  0  0  0  0
   -0.6331    3.0098   -0.9427 H   0  0  0  0  0  0  0  0  0  0  0  0
   -1.9633    2.5902   -2.5473 C   0  0  0  0  0  0  0  0  0  0  0  0
   -3.2723    2.5774   -2.9663 C   0  0  0  0  0  0  0  0  0  0  0  0
   -4.1391    2.4117   -2.3304 H   0  0  0  0  0  0  0  0  0  0  0  0
   -3.2769    2.8266   -4.3372 N   0  0  0  0  0  0  0  0  0  0  0  0
   -4.1074    2.9148   -4.9200 H   0  0  0  0  0  0  0  0  0  0  0  0
   -1.9814    2.9941   -4.8019 C   0  0  0  0  0  0  0  0  0  0  0  0
   -1.4740    3.2590   -6.0741 C   0  0  0  0  0  0  0  0  0  0  0  0
   -2.1446    3.3745   -6.9184 H   0  0  0  0  0  0  0  0  0  0  0  0
   -0.0868    3.3736   -6.2458 C   0  0  0  0  0  0  0  0  0  0  0  0
    0.3227    3.5795   -7.2302 H   0  0  0  0  0  0  0  0  0  0  0  0
    0.7743    3.2235   -5.1474 C   0  0  0  0  0  0  0  0  0  0  0  0
    1.8481    3.3134   -5.2824 H   0  0  0  0  0  0  0  0  0  0  0  0
    0.2533    2.9599   -3.8727 C   0  0  0  0  0  0  0  0  0  0  0  0
    0.9148    2.8439   -3.0189 H   0  0  0  0  0  0  0  0  0  0  0  0
   -1.1315    2.8494   -3.7123 C   0  0  0  0  0  0  0  0  0  0  0  0
   -0.0942    0.8073    0.2530 C   0  0  0  0  0  0  0  0  0  0  0  0
    1.1043    1.0192    0.1101 O   0  0  0  0  0  0  0  0  0  0  0  0
   -0.6199    0.7895    1.5315 N   0  0  0  0  0  0  0  0  0  0  0  0
   -1.5059    0.2868    1.5893 H   0  0  0  0  0  0  0  0  0  0  0  0
    0.2291    0.7706    2.7156 C   0  0  0  0  0  0  0  0  0  0  0  0
    0.8800    1.6510    2.7367 H   0  0  0  0  0  0  0  0  0  0  0  0
   -0.3873    0.7780    3.6195 H   0  0  0  0  0  0  0  0  0  0  0  0
    0.8522   -0.1297    2.7252 H   0  0  0  0  0  0  0  0  0  0  0  0
  1  2  1  0  0  0  0
  2  3  1  0  0  0  0
  2  4  1  0  0  0  0
  2  5  1  0  0  0  0
  5  6  2  0  0  0  0
  5  7  1  0  0  0  0
  7  8  1  0  0  0  0
  7  9  1  0  0  0  0
  9 10  1  0  0  0  0
  9 11  1  0  0  0  0
  9 29  1  0  0  0  0
 11 12  1  0  0  0  0
 11 13  1  0  0  0  0
 11 14  1  0  0  0  0
 14 15  2  0  0  0  0
 14 28  1  0  0  0  0
 15 16  1  0  0  0  0
 15 17  1  0  0  0  0
 17 18  1  0  0  0  0
 17 19  1  0  0  0  0
 19 20  1  0  0  0  0
 19 28  2  0  0  0  0
 20 21  1  0  0  0  0
 20 22  2  0  0  0  0
 22 23  1  0  0  0  0
 22 24  1  0  0  0  0
 24 25  1  0  0  0  0
 24 26  2  0  0  0  0
 26 27  1  0  0  0  0
 26 28  1  0  0  0  0
 29 30  2  0  0  0  0
 29 31  1  0  0  0  0
 31 32  1  0  0  0  0
 31 33  1  0  0  0  0
 33 34  1  0  0  0  0
 33 35  1  0  0  0  0
 33 36  1  0  0  0  0
M  END
$$$$

  -OEChem-01062216103D

 36 37  0     1  0  0  0  0  0999 V2000
   -4.0489   -2.7326   -0.2617 H   0  0  0  0  0  0  0  0  0  0  0  0
   -3.8567   -1.8682   -0.9040 C   0  0  0  0  0  0  0  0  0  0  0  0
   -4.7160   -1.1952   -0.8534 H   0  0  0  0  0  0  0  0  0  0  0  0
   -3.7344   -2.2171   -1.9324 H   0  0  0  0  0  0  0  0  0  0  0  0
   -2.6029   -1.1451   -0.4487 C   0  0  0  0  0  0  0  0  0  0  0  0
   -1.9950   -1.5761    0.5126 O   0  0  0  0  0  0  0  0  0  0  0  0
   -2.2019   -0.0211   -1.1443 N   0  0  0  0  0  0  0  0  0  0  0  0
   -2.7642    0.1820   -1.9663 H   0  0  0  0  0  0  0  0  0  0  0  0
   -1.0039    0.8435   -0.9971 C   0  0  1  0  0  0  0  0  0  0  0  0
   -0.3366    0.6070   -1.8325 H   0  0  0  0  0  0  0  0  0  0  0  0
   -1.4957    2.2960   -1.1429 C   0  0  0  0  0  0  0  0  0  0  0  0
   -2.2983    2.4831   -0.4220 H   0  0  0  0  0  0  0  0  0  0  0  0
   -0.6873    3.0011   -0.9196 H   0  0  0  0  0  0  0  0  0  0  0  0
   -1.9846    2.5625   -2.5434 C   0  0  0  0  0  0  0  0  0  0  0  0
   -3.2871    2.5266   -2.9822 C   0  0  0  0  0  0  0  0  0  0  0  0
   -4.1607    2.3463   -2.3595 H   0  0  0  0  0  0  0  0  0  0  0  0
   -3.2754    2.7762   -4.3530 N   0  0  0  0  0  0  0  0  0  0  0  0
   -4.0983    2.8515   -4.9482 H   0  0  0  0  0  0  0  0  0  0  0  0
   -1.9763    2.9655   -4.7985 C   0  0  0  0  0  0  0  0  0  0  0  0
   -1.4535    3.2387   -6.0627 C   0  0  0  0  0  0  0  0  0  0  0  0
   -2.1127    3.3415   -6.9177 H   0  0  0  0  0  0  0  0  0  0  0  0
   -0.0660    3.3781   -6.2128 C   0  0  0  0  0  0  0  0  0  0  0  0
    0.3552    3.5922   -7.1905 H   0  0  0  0  0  0  0  0  0  0  0  0
    0.7802    3.2413   -5.1012 C   0  0  0  0  0  0  0  0  0  0  0  0
    1.8544    3.3482   -5.2193 H   0  0  0  0  0  0  0  0  0  0  0  0
    0.2443    2.9687   -3.8347 C   0  0  0  0  0  0  0  0  0  0  0  0
    0.8939    2.8635   -2.9704 H   0  0  0  0  0  0  0  0  0  0  0  0
   -1.1408    2.8356   -3.6960 C   0  0  0  0  0  0  0  0  0  0  0  0
   -0.0900    0.8100    0.2587 C   0  0  0  0  0  0  0  0  0  0  0  0
    1.0513    1.2421    0.1432 O   0  0  0  0  0  0  0  0  0  0  0  0
   -0.5426    0.4966    1.5260 N   0  0  0  0  0  0  0  0  0  0  0  0
   -1.3508   -0.1282    1.5310 H   0  0  0  0  0  0  0  0  0  0  0  0
    0.3407    0.4564    2.6844 C   0  0  0  0  0  0  0  0  0  0  0  0
    0.8149    1.4312    2.8408 H   0  0  0  0  0  0  0  0  0  0  0  0
   -0.2293    0.2035    3.5835 H   0  0  0  0  0  0  0  0  0  0  0  0
    1.1218   -0.2977    2.5436 H   0  0  0  0  0  0  0  0  0  0  0  0
  1  2  1  0  0  0  0
  2  3  1  0  0  0  0
  2  4  1  0  0  0  0
  2  5  1  0  0  0  0
  5  6  2  0  0  0  0
  5  7  1  0  0  0  0
  7  8  1  0  0  0  0
  7  9  1  0  0  0  0
  9 10  1  0  0  0  0
  9 11  1  0  0  0  0
  9 29  1  0  0  0  0
 11 12  1  0  0  0  0
 11 13  1  0  0  0  0
 11 14  1  0  0  0  0
 14 15  2  0  0  0  0
 14 28  1  0  0  0  0
 15 16  1  0  0  0  0
 15 17  1  0  0  0  0
 17 18  1  0  0  0  0
 17 19  1  0  0  0  0
 19 20  1  0  0  0  0
 19 28  2  0  0  0  0
 20 21  1  0  0  0  0
 20 22  2  0  0  0  0
 22 23  1  0  0  0  0
 22 24  1  0  0  0  0
 24 25  1  0  0  0  0
 24 26  2  0  0  0  0
 26 27  1  0  0  0  0
 26 28  1  0  0  0  0
 29 30  2  0  0  0  0
 29 31  1  0  0  0  0
 31 32  1  0  0  0  0
 31 33  1  0  0  0  0
 33 34  1  0  0  0  0
 33 35  1  0  0  0  0
 33 36  1  0  0  0  0
M  END
$$$$

  -OEChem-01062216103D

 36 37  0     1  0  0  0  0  0999 V2000
   -4.1514   -2.6839   -0.3109 H   0  0  0  0  0  0  0  0  0  0  0  0
   -3.9320   -1.8108   -0.9322 C   0  0  0  0  0  0  0  0  0  0  0  0
   -4.7509   -1.0948   -0.8311 H   0  0  0  0  0  0  0  0  0  0  0  0
   -3.8619   -2.1312   -1.9746 H   0  0  0  0  0  0  0  0  0  0  0  0
   -2.6265   -1.1718   -0.4967 C   0  0  0  0  0  0  0  0  0  0  0  0
   -1.9881   -1.7016    0.3924 O   0  0  0  0  0  0  0  0  0  0  0  0
   -2.2005   -0.0366   -1.1589 N   0  0  0  0  0  0  0  0  0  0  0  0
   -2.7883    0.2246   -1.9456 H   0  0  0  0  0  0  0  0  0  0  0  0
   -1.0053    0.8300   -0.9888 C   0  0  1  0  0  0  0  0  0  0  0  0
   -0.3316    0.6058   -1.8225 H   0  0  0  0  0  0  0  0  0  0  0  0
   -1.5213    2.2773   -1.1338 C   0  0  0  0  0  0  0  0  0  0  0  0
   -2.3345    2.4474   -0.4205 H   0  0  0  0  0  0  0  0  0  0  0  0
   -0.7309    2.9988   -0.9008 H   0  0  0  0  0  0  0  0  0  0  0  0
   -1.9980    2.5444   -2.5387 C   0  0  0  0  0  0  0  0  0  0  0  0
   -3.2950    2.4890   -2.9918 C   0  0  0  0  0  0  0  0  0  0  0  0
   -4.1728    2.2961   -2.3790 H   0  0  0  0  0  0  0  0  0  0  0  0
   -3.2723    2.7374   -4.3626 N   0  0  0  0  0  0  0  0  0  0  0  0
   -4.0897    2.7997   -4.9668 H   0  0  0  0  0  0  0  0  0  0  0  0
   -1.9708    2.9423   -4.7947 C   0  0  0  0  0  0  0  0  0  0  0  0
   -1.4384    3.2158   -6.0549 C   0  0  0  0  0  0  0  0  0  0  0  0
   -2.0896    3.3051   -6.9174 H   0  0  0  0  0  0  0  0  0  0  0  0
   -0.0513    3.3721   -6.1913 C   0  0  0  0  0  0  0  0  0  0  0  0
    0.3778    3.5848   -7.1661 H   0  0  0  0  0  0  0  0  0  0  0  0
    0.7845    3.2547   -5.0696 C   0  0  0  0  0  0  0  0  0  0  0  0
    1.8582    3.3767   -5.1770 H   0  0  0  0  0  0  0  0  0  0  0  0
    0.2388    2.9815   -3.8072 C   0  0  0  0  0  0  0  0  0  0  0  0
    0.8805    2.8910   -2.9354 H   0  0  0  0  0  0  0  0  0  0  0  0
   -1.1455    2.8282   -3.6827 C   0  0  0  0  0  0  0  0  0  0  0  0
   -0.0861    0.8040    0.2683 C   0  0  0  0  0  0  0  0  0  0  0  0
    0.9783    1.4089    0.2036 O   0  0  0  0  0  0  0  0  0  0  0  0
   -0.4109    0.2181    1.4761 N   0  0  0  0  0  0  0  0  0  0  0  0
   -1.1571   -0.4776    1.4275 H   0  0  0  0  0  0  0  0  0  0  0  0
    0.5129    0.1410    2.6007 C   0  0  0  0  0  0  0  0  0  0  0  0
    0.8292    1.1430    2.9087 H   0  0  0  0  0  0  0  0  0  0  0  0
    0.0259   -0.3419    3.4531 H   0  0  0  0  0  0  0  0  0  0  0  0
    1.3990   -0.4424    2.3301 H   0  0  0  0  0  0  0  0  0  0  0  0
  1  2  1  0  0  0  0
  2  3  1  0  0  0  0
  2  4  1  0  0  0  0
  2  5  1  0  0  0  0
  5  6  2  0  0  0  0
  5  7  1  0  0  0  0
  7  8  1  0  0  0  0
  7  9  1  0  0  0  0
  9 10  1  0  0  0  0
  9 11  1  0  0  0  0
  9 29  1  0  0  0  0
 11 12  1  0  0  0  0
 11 13  1  0  0  0  0
 11 14  1  0  0  0  0
 14 15  2  0  0  0  0
 14 28  1  0  0  0  0
 15 16  1  0  0  0  0
 15 17  1  0  0  0  0
 17 18  1  0  0  0  0
 17 19  1  0  0  0  0
 19 20  1  0  0  0  0
 19 28  2  0  0  0  0
 20 21  1  0  0  0  0
 20 22  2  0  0  0  0
 22 23  1  0  0  0  0
 22 24  1  0  0  0  0
 24 25  1  0  0  0  0
 24 26  2  0  0  0  0
 26 27  1  0  0  0  0
 26 28  1  0  0  0  0
 29 30  2  0  0  0  0
 29 31  1  0  0  0  0
 31 32  1  0  0  0  0
 31 33  1  0  0  0  0
 33 34  1  0  0  0  0
 33 35  1  0  0  0  0
 33 36  1  0  0  0  0
M  END
$$$$

  -OEChem-01062216103D

 36 37  0     1  0  0  0  0  0999 V2000
   -3.9266   -2.6869   -0.1057 H   0  0  0  0  0  0  0  0  0  0  0  0
   -3.7746   -1.7895   -0.7129 C   0  0  0  0  0  0  0  0  0  0  0  0
   -4.6343   -1.1281   -0.5809 H   0  0  0  0  0  0  0  0  0  0  0  0
   -3.7057   -2.0845   -1.7628 H   0  0  0  0  0  0  0  0  0  0  0  0
   -2.5034   -1.0773   -0.2875 C   0  0  0  0  0  0  0  0  0  0  0  0
   -1.8375   -1.5794    0.5917 O   0  0  0  0  0  0  0  0  0  0  0  0
   -2.1352    0.0553   -0.9869 N   0  0  0  0  0  0  0  0  0  0  0  0
   -2.7380    0.2462   -1.7811 H   0  0  0  0  0  0  0  0  0  0  0  0
   -1.0667    1.0717   -0.8023 C   0  0  1  0  0  0  0  0  0  0  0  0
   -0.3046    0.8590   -1.5584 H   0  0  0  0  0  0  0  0  0  0  0  0
   -1.7620    2.4100   -1.1588 C   0  0  0  0  0  0  0  0  0  0  0  0
   -2.6588    2.5286   -0.5423 H   0  0  0  0  0  0  0  0  0  0  0  0
   -1.1163    3.2689   -0.9526 H   0  0  0  0  0  0  0  0  0  0  0  0
   -2.1238    2.4604   -2.6220 C   0  0  0  0  0  0  0  0  0  0  0  0
   -3.3449    2.1698   -3.1840 C   0  0  0  0  0  0  0  0  0  0  0  0
   -4.2496    1.9107   -2.6384 H   0  0  0  0  0  0  0  0  0  0  0  0
   -3.2085    2.2817   -4.5657 N   0  0  0  0  0  0  0  0  0  0  0  0
   -3.9548    2.1543   -5.2467 H   0  0  0  0  0  0  0  0  0  0  0  0
   -1.9102    2.6386   -4.8956 C   0  0  0  0  0  0  0  0  0  0  0  0
   -1.2906    2.8689   -6.1239 C   0  0  0  0  0  0  0  0  0  0  0  0
   -1.8532    2.7757   -7.0462 H   0  0  0  0  0  0  0  0  0  0  0  0
    0.0667    3.2220   -6.1488 C   0  0  0  0  0  0  0  0  0  0  0  0
    0.5627    3.4050   -7.0974 H   0  0  0  0  0  0  0  0  0  0  0  0
    0.7860    3.3410   -4.9492 C   0  0  0  0  0  0  0  0  0  0  0  0
    1.8364    3.6161   -4.9709 H   0  0  0  0  0  0  0  0  0  0  0  0
    0.1523    3.1093   -3.7201 C   0  0  0  0  0  0  0  0  0  0  0  0
    0.7027    3.2041   -2.7885 H   0  0  0  0  0  0  0  0  0  0  0  0
   -1.2014    2.7582   -3.7069 C   0  0  0  0  0  0  0  0  0  0  0  0
   -0.2345    1.2763    0.5086 C   0  0  0  0  0  0  0  0  0  0  0  0
    0.4555    2.2788    0.6328 O   0  0  0  0  0  0  0  0  0  0  0  0
   -0.3036    0.6028    1.7022 N   0  0  0  0  0  0  0  0  0  0  0  0
   -0.1387    1.2617    2.4572 H   0  0  0  0  0  0  0  0  0  0  0  0
    0.5451   -0.5772    1.8322 C   0  0  0  0  0  0  0  0  0  0  0  0
    1.5257   -0.2942    2.2276 H   0  0  0  0  0  0  0  0  0  0  0  0
    0.0859   -1.2960    2.5182 H   0  0  0  0  0  0  0  0  0  0  0  0
    0.6966   -1.0717    0.8663 H   0  0  0  0  0  0  0  0  0  0  0  0
  1  2  1  0  0  0  0
  2  3  1  0  0  0  0
  2  4  1  0  0  0  0
  2  5  1  0  0  0  0
  5  6  2  0  0  0  0
  5  7  1  0  0  0  0
  7  8  1  0  0  0  0
  7  9  1  0  0  0  0
  9 10  1  0  0  0  0
  9 11  1  0  0  0  0
  9 29  1  0  0  0  0
 11 12  1  0  0  0  0
 11 13  1  0  0  0  0
 11 14  1  0  0  0  0
 14 15  2  0  0  0  0
 14 28  1  0  0  0  0
 15 16  1  0  0  0  0
 15 17  1  0  0  0  0
 17 18  1  0  0  0  0
 17 19  1  0  0  0  0
 19 20  1  0  0  0  0
 19 28  2  0  0  0  0
 20 21  1  0  0  0  0
 20 22  2  0  0  0  0
 22 23  1  0  0  0  0
 22 24  1  0  0  0  0
 24 25  1  0  0  0  0
 24 26  2  0  0  0  0
 26 27  1  0  0  0  0
 26 28  1  0  0  0  0
 29 30  2  0  0  0  0
 29 31  1  0  0  0  0
 31 32  1  0  0  0  0
 31 33  1  0  0  0  0
 33 34  1  0  0  0  0
 33 35  1  0  0  0  0
 33 36  1  0  0  0  0
M  END
$$$$

  -OEChem-01062216103D

 36 37  0     1  0  0  0  0  0999 V2000
   -3.8502   -2.6017    0.1107 H   0  0  0  0  0  0  0  0  0  0  0  0
   -3.7117   -1.7069   -0.5033 C   0  0  0  0  0  0  0  0  0  0  0  0
   -4.3709   -0.9201   -0.1292 H   0  0  0  0  0  0  0  0  0  0  0  0
   -3.9832   -1.9433   -1.5351 H   0  0  0  0  0  0  0  0  0  0  0  0
   -2.2667   -1.2478   -0.4404 C   0  0  0  0  0  0  0  0  0  0  0  0
   -1.4494   -1.9794    0.0797 O   0  0  0  0  0  0  0  0  0  0  0  0
   -1.9140   -0.1022   -1.1240 N   0  0  0  0  0  0  0  0  0  0  0  0
   -2.6616    0.2789   -1.6950 H   0  0  0  0  0  0  0  0  0  0  0  0
   -0.6936    0.7424   -1.0921 C   0  0  1  0  0  0  0  0  0  0  0  0
   -0.1461    0.5217   -2.0142 H   0  0  0  0  0  0  0  0  0  0  0  0
   -1.2203    2.1956   -1.1532 C   0  0  0  0  0  0  0  0  0  0  0  0
   -1.9380    2.3564   -0.3423 H   0  0  0  0  0  0  0  0  0  0  0  0
   -0.4088    2.9171   -1.0117 H   0  0  0  0  0  0  0  0  0  0  0  0
   -1.8682    2.4865   -2.4834 C   0  0  0  0  0  0  0  0  0  0  0  0
   -3.2099    2.4448   -2.7831 C   0  0  0  0  0  0  0  0  0  0  0  0
   -4.0132    2.2476   -2.0769 H   0  0  0  0  0  0  0  0  0  0  0  0
   -3.3449    2.7140   -4.1436 N   0  0  0  0  0  0  0  0  0  0  0  0
   -4.2258    2.7807   -4.6504 H   0  0  0  0  0  0  0  0  0  0  0  0
   -2.1013    2.9164   -4.7222 C   0  0  0  0  0  0  0  0  0  0  0  0
   -1.7156    3.2025   -6.0323 C   0  0  0  0  0  0  0  0  0  0  0  0
   -2.4611    3.3070   -6.8126 H   0  0  0  0  0  0  0  0  0  0  0  0
   -0.3522    3.3499   -6.3265 C   0  0  0  0  0  0  0  0  0  0  0  0
   -0.0368    3.5714   -7.3419 H   0  0  0  0  0  0  0  0  0  0  0  0
    0.6069    3.2109   -5.3110 C   0  0  0  0  0  0  0  0  0  0  0  0
    1.6621    3.3242   -5.5406 H   0  0  0  0  0  0  0  0  0  0  0  0
    0.2082    2.9256   -3.9976 C   0  0  0  0  0  0  0  0  0  0  0  0
    0.9455    2.8173   -3.2073 H   0  0  0  0  0  0  0  0  0  0  0  0
   -1.1537    2.7815   -3.7154 C   0  0  0  0  0  0  0  0  0  0  0  0
    0.4100    0.7076    0.0149 C   0  0  0  0  0  0  0  0  0  0  0  0
    1.4089    1.3908   -0.1620 O   0  0  0  0  0  0  0  0  0  0  0  0
    0.6591   -0.2201    0.9951 N   0  0  0  0  0  0  0  0  0  0  0  0
    1.6427   -0.2008    1.2488 H   0  0  0  0  0  0  0  0  0  0  0  0
   -0.2493   -0.3184    2.1307 C   0  0  0  0  0  0  0  0  0  0  0  0
    0.1215    0.2915    2.9602 H   0  0  0  0  0  0  0  0  0  0  0  0
   -1.2538    0.0320    1.8739 H   0  0  0  0  0  0  0  0  0  0  0  0
   -0.3204   -1.3581    2.4657 H   0  0  0  0  0  0  0  0  0  0  0  0
  1  2  1  0  0  0  0
  2  3  1  0  0  0  0
  2  4  1  0  0  0  0
  2  5  1  0  0  0  0
  5  6  2  0  0  0  0
  5  7  1  0  0  0  0
  7  8  1  0  0  0  0
  7  9  1  0  0  0  0
  9 10  1  0  0  0  0
  9 11  1  0  0  0  0
  9 29  1  0  0  0  0
 11 12  1  0  0  0  0
 11 13  1  0  0  0  0
 11 14  1  0  0  0  0
 14 15  2  0  0  0  0
 14 28  1  0  0  0  0
 15 16  1  0  0  0  0
 15 17  1  0  0  0  0
 17 18  1  0  0  0  0
 17 19  1  0  0  0  0
 19 20  1  0  0  0  0
 19 28  2  0  0  0  0
 20 21  1  0  0  0  0
 20 22  2  0  0  0  0
 22 23  1  0  0  0  0
 22 24  1  0  0  0  0
 24 25  1  0  0  0  0
 24 26  2  0  0  0  0
 26 27  1  0  0  0  0
 26 28  1  0  0  0  0
 29 30  2  0  0  0  0
 29 31  1  0  0  0  0
 31 32  1  0  0  0  0
 31 33  1  0  0  0  0
 33 34  1  0  0  0  0
 33 35  1  0  0  0  0
 33 36  1  0  0  0  0
M  END
$$$$

  -OEChem-01062216103D

 36 37  0     1  0  0  0  0  0999 V2000
   -4.1811   -2.6357   -0.3639 H   0  0  0  0  0  0  0  0  0  0  0  0
   -3.9147   -1.7719   -0.9799 C   0  0  0  0  0  0  0  0  0  0  0  0
   -4.7059   -1.0235   -0.8925 H   0  0  0  0  0  0  0  0  0  0  0  0
   -3.8389   -2.0931   -2.0215 H   0  0  0  0  0  0  0  0  0  0  0  0
   -2.5922   -1.1865   -0.5205 C   0  0  0  0  0  0  0  0  0  0  0  0
   -1.9668   -1.7792    0.3363 O   0  0  0  0  0  0  0  0  0  0  0  0
   -2.1533   -0.0273   -1.1313 N   0  0  0  0  0  0  0  0  0  0  0  0
   -2.7596    0.2774   -1.8877 H   0  0  0  0  0  0  0  0  0  0  0  0
   -0.9458    0.8274   -0.9697 C   0  0  1  0  0  0  0  0  0  0  0  0
   -0.2940    0.6153   -1.8230 H   0  0  0  0  0  0  0  0  0  0  0  0
   -1.4904    2.2716   -1.1123 C   0  0  0  0  0  0  0  0  0  0  0  0
   -2.2957    2.4306   -0.3877 H   0  0  0  0  0  0  0  0  0  0  0  0
   -0.7180    3.0182   -0.9040 H   0  0  0  0  0  0  0  0  0  0  0  0
   -1.9868    2.5240   -2.5142 C   0  0  0  0  0  0  0  0  0  0  0  0
   -3.2886    2.4427   -2.9497 C   0  0  0  0  0  0  0  0  0  0  0  0
   -4.1549    2.2412   -2.3233 H   0  0  0  0  0  0  0  0  0  0  0  0
   -3.2886    2.6770   -4.3227 N   0  0  0  0  0  0  0  0  0  0  0  0
   -4.1153    2.7192   -4.9159 H   0  0  0  0  0  0  0  0  0  0  0  0
   -1.9972    2.9030   -4.7735 C   0  0  0  0  0  0  0  0  0  0  0  0
   -1.4878    3.1771   -6.0429 C   0  0  0  0  0  0  0  0  0  0  0  0
   -2.1525    3.2468   -6.8968 H   0  0  0  0  0  0  0  0  0  0  0  0
   -0.1063    3.3609   -6.1994 C   0  0  0  0  0  0  0  0  0  0  0  0
    0.3049    3.5751   -7.1814 H   0  0  0  0  0  0  0  0  0  0  0  0
    0.7470    3.2702   -5.0885 C   0  0  0  0  0  0  0  0  0  0  0  0
    1.8161    3.4156   -5.2117 H   0  0  0  0  0  0  0  0  0  0  0  0
    0.2241    2.9959   -3.8167 C   0  0  0  0  0  0  0  0  0  0  0  0
    0.8785    2.9290   -2.9525 H   0  0  0  0  0  0  0  0  0  0  0  0
   -1.1548    2.8143   -3.6719 C   0  0  0  0  0  0  0  0  0  0  0  0
    0.0206    0.7397    0.2597 C   0  0  0  0  0  0  0  0  0  0  0  0
    0.7035    1.7134    0.5588 O   0  0  0  0  0  0  0  0  0  0  0  0
    0.2631   -0.4074    0.9881 N   0  0  0  0  0  0  0  0  0  0  0  0
   -0.3707   -1.1903    0.8181 H   0  0  0  0  0  0  0  0  0  0  0  0
    1.1545   -0.4787    2.1390 C   0  0  0  0  0  0  0  0  0  0  0  0
    0.8165    0.1996    2.9292 H   0  0  0  0  0  0  0  0  0  0  0  0
    1.1683   -1.4971    2.5389 H   0  0  0  0  0  0  0  0  0  0  0  0
    2.1754   -0.2077    1.8512 H   0  0  0  0  0  0  0  0  0  0  0  0
  1  2  1  0  0  0  0
  2  3  1  0  0  0  0
  2  4  1  0  0  0  0
  2  5  1  0  0  0  0
  5  6  2  0  0  0  0
  5  7  1  0  0  0  0
  7  8  1  0  0  0  0
  7  9  1  0  0  0  0
  9 10  1  0  0  0  0
  9 11  1  0  0  0  0
  9 29  1  0  0  0  0
 11 12  1  0  0  0  0
 11 13  1  0  0  0  0
 11 14  1  0  0  0  0
 14 15  2  0  0  0  0
 14 28  1  0  0  0  0
 15 16  1  0  0  0  0
 15 17  1  0  0  0  0
 17 18  1  0  0  0  0
 17 19  1  0  0  0  0
 19 20  1  0  0  0  0
 19 28  2  0  0  0  0
 20 21  1  0  0  0  0
 20 22  2  0  0  0  0
 22 23  1  0  0  0  0
 22 24  1  0  0  0  0
 24 25  1  0  0  0  0
 24 26  2  0  0  0  0
 26 27  1  0  0  0  0
 26 28  1  0  0  0  0
 29 30  2  0  0  0  0
 29 31  1  0  0  0  0
 31 32  1  0  0  0  0
 31 33  1  0  0  0  0
 33 34  1  0  0  0  0
 33 35  1  0  0  0  0
 33 36  1  0  0  0  0
M  END
$$$$

  -OEChem-01062216103D

 36 37  0     1  0  0  0  0  0999 V2000
   -4.1296   -2.6127   -0.2418 H   0  0  0  0  0  0  0  0  0  0  0  0
   -3.9146   -1.7265   -0.8460 C   0  0  0  0  0  0  0  0  0  0  0  0
   -4.6934   -0.9820   -0.6638 H   0  0  0  0  0  0  0  0  0  0  0  0
   -3.9283   -2.0098   -1.9014 H   0  0  0  0  0  0  0  0  0  0  0  0
   -2.5565   -1.1575   -0.4786 C   0  0  0  0  0  0  0  0  0  0  0  0
   -1.8734   -1.7644    0.3232 O   0  0  0  0  0  0  0  0  0  0  0  0
   -2.1403   -0.0022   -1.1131 N   0  0  0  0  0  0  0  0  0  0  0  0
   -2.7856    0.3243   -1.8265 H   0  0  0  0  0  0  0  0  0  0  0  0
   -0.9203    0.8379   -0.9831 C   0  0  1  0  0  0  0  0  0  0  0  0
   -0.2855    0.6096   -1.8449 H   0  0  0  0  0  0  0  0  0  0  0  0
   -1.4247    2.2958   -1.1264 C   0  0  0  0  0  0  0  0  0  0  0  0
   -2.2098    2.4846   -0.3869 H   0  0  0  0  0  0  0  0  0  0  0  0
   -0.6228    3.0169   -0.9395 H   0  0  0  0  0  0  0  0  0  0  0  0
   -1.9396    2.5547   -2.5201 C   0  0  0  0  0  0  0  0  0  0  0  0
   -3.2510    2.5096   -2.9307 C   0  0  0  0  0  0  0  0  0  0  0  0
   -4.1107    2.3342   -2.2877 H   0  0  0  0  0  0  0  0  0  0  0  0
   -3.2702    2.7433   -4.3038 N   0  0  0  0  0  0  0  0  0  0  0  0
   -4.1066    2.8080   -4.8812 H   0  0  0  0  0  0  0  0  0  0  0  0
   -1.9820    2.9342   -4.7793 C   0  0  0  0  0  0  0  0  0  0  0  0
   -1.4898    3.1956   -6.0584 C   0  0  0  0  0  0  0  0  0  0  0  0
   -2.1683    3.2842   -6.8998 H   0  0  0  0  0  0  0  0  0  0  0  0
   -0.1071    3.3429   -6.2415 C   0  0  0  0  0  0  0  0  0  0  0  0
    0.2912    3.5470   -7.2312 H   0  0  0  0  0  0  0  0  0  0  0  0
    0.7642    3.2295   -5.1470 C   0  0  0  0  0  0  0  0  0  0  0  0
    1.8343    3.3470   -5.2908 H   0  0  0  0  0  0  0  0  0  0  0  0
    0.2583    2.9690   -3.8655 C   0  0  0  0  0  0  0  0  0  0  0  0
    0.9278    2.8863   -3.0147 H   0  0  0  0  0  0  0  0  0  0  0  0
   -1.1218    2.8227   -3.6937 C   0  0  0  0  0  0  0  0  0  0  0  0
    0.0514    0.7071    0.2365 C   0  0  0  0  0  0  0  0  0  0  0  0
    0.5606    1.7068    0.7321 O   0  0  0  0  0  0  0  0  0  0  0  0
    0.4799   -0.5083    0.7333 N   0  0  0  0  0  0  0  0  0  0  0  0
   -0.1175   -1.3024    0.4939 H   0  0  0  0  0  0  0  0  0  0  0  0
    1.3364   -0.6380    1.9056 C   0  0  0  0  0  0  0  0  0  0  0  0
    0.8505   -0.2032    2.7850 H   0  0  0  0  0  0  0  0  0  0  0  0
    1.5396   -1.6940    2.1073 H   0  0  0  0  0  0  0  0  0  0  0  0
    2.2920   -0.1292    1.7422 H   0  0  0  0  0  0  0  0  0  0  0  0
  1  2  1  0  0  0  0
  2  3  1  0  0  0  0
  2  4  1  0  0  0  0
  2  5  1  0  0  0  0
  5  6  2  0  0  0  0
  5  7  1  0  0  0  0
  7  8  1  0  0  0  0
  7  9  1  0  0  0  0
  9 10  1  0  0  0  0
  9 11  1  0  0  0  0
  9 29  1  0  0  0  0
 11 12  1  0  0  0  0
 11 13  1  0  0  0  0
 11 14  1  0  0  0  0
 14 15  2  0  0  0  0
 14 28  1  0  0  0  0
 15 16  1  0  0  0  0
 15 17  1  0  0  0  0
 17 18  1  0  0  0  0
 17 19  1  0  0  0  0
 19 20  1  0  0  0  0
 19 28  2  0  0  0  0
 20 21  1  0  0  0  0
 20 22  2  0  0  0  0
 22 23  1  0  0  0  0
 22 24  1  0  0  0  0
 24 25  1  0  0  0  0
 24 26  2  0  0  0  0
 26 27  1  0  0  0  0
 26 28  1  0  0  0  0
 29 30  2  0  0  0  0
 29 31  1  0  0  0  0
 31 32  1  0  0  0  0
 31 33  1  0  0  0  0
 33 34  1  0  0  0  0
 33 35  1  0  0  0  0
 33 36  1  0  0  0  0
M  END
$$$$

  -OEChem-01062216103D

 36 37  0     1  0  0  0  0  0999 V2000
   -4.0184   -2.6086   -0.0792 H   0  0  0  0  0  0  0  0  0  0  0  0
   -3.8466   -1.7384   -0.7194 C   0  0  0  0  0  0  0  0  0  0  0  0
   -4.6147   -0.9909   -0.5066 H   0  0  0  0  0  0  0  0  0  0  0  0
   -3.9276   -2.0487   -1.7640 H   0  0  0  0  0  0  0  0  0  0  0  0
   -2.4697   -1.1581   -0.4558 C   0  0  0  0  0  0  0  0  0  0  0  0
   -1.7091   -1.7636    0.2755 O   0  0  0  0  0  0  0  0  0  0  0  0
   -2.1034   -0.0051   -1.1228 N   0  0  0  0  0  0  0  0  0  0  0  0
   -2.7915    0.3280   -1.7913 H   0  0  0  0  0  0  0  0  0  0  0  0
   -0.8990    0.8533   -1.0023 C   0  0  1  0  0  0  0  0  0  0  0  0
   -0.2549    0.6298   -1.8583 H   0  0  0  0  0  0  0  0  0  0  0  0
   -1.4035    2.3082   -1.1474 C   0  0  0  0  0  0  0  0  0  0  0  0
   -2.1863    2.5002   -0.4064 H   0  0  0  0  0  0  0  0  0  0  0  0
   -0.5953    3.0229   -0.9604 H   0  0  0  0  0  0  0  0  0  0  0  0
   -1.9230    2.5625   -2.5401 C   0  0  0  0  0  0  0  0  0  0  0  0
   -3.2359    2.5150   -2.9457 C   0  0  0  0  0  0  0  0  0  0  0  0
   -4.0929    2.3359   -2.3000 H   0  0  0  0  0  0  0  0  0  0  0  0
   -3.2610    2.7505   -4.3185 N   0  0  0  0  0  0  0  0  0  0  0  0
   -4.0994    2.8113   -4.8935 H   0  0  0  0  0  0  0  0  0  0  0  0
   -1.9752    2.9471   -4.7980 C   0  0  0  0  0  0  0  0  0  0  0  0
   -1.4892    3.2142   -6.0781 C   0  0  0  0  0  0  0  0  0  0  0  0
   -2.1723    3.3020   -6.9157 H   0  0  0  0  0  0  0  0  0  0  0  0
   -0.1081    3.3684   -6.2662 C   0  0  0  0  0  0  0  0  0  0  0  0
    0.2846    3.5777   -7.2567 H   0  0  0  0  0  0  0  0  0  0  0  0
    0.7682    3.2551   -5.1759 C   0  0  0  0  0  0  0  0  0  0  0  0
    1.8370    3.3778   -5.3237 H   0  0  0  0  0  0  0  0  0  0  0  0
    0.2687    2.9881   -3.8933 C   0  0  0  0  0  0  0  0  0  0  0  0
    0.9420    2.9055   -3.0456 H   0  0  0  0  0  0  0  0  0  0  0  0
   -1.1102    2.8358   -3.7161 C   0  0  0  0  0  0  0  0  0  0  0  0
    0.0418    0.7140    0.2360 C   0  0  0  0  0  0  0  0  0  0  0  0
    0.3369    1.6921    0.9150 O   0  0  0  0  0  0  0  0  0  0  0  0
    0.6798   -0.4775    0.5250 N   0  0  0  0  0  0  0  0  0  0  0  0
    0.1695   -1.3003    0.1974 H   0  0  0  0  0  0  0  0  0  0  0  0
    1.5232   -0.6496    1.7015 C   0  0  0  0  0  0  0  0  0  0  0  0
    0.9432   -0.4857    2.6157 H   0  0  0  0  0  0  0  0  0  0  0  0
    1.9309   -1.6647    1.7254 H   0  0  0  0  0  0  0  0  0  0  0  0
    2.3601    0.0563    1.6823 H   0  0  0  0  0  0  0  0  0  0  0  0
  1  2  1  0  0  0  0
  2  3  1  0  0  0  0
  2  4  1  0  0  0  0
  2  5  1  0  0  0  0
  5  6  2  0  0  0  0
  5  7  1  0  0  0  0
  7  8  1  0  0  0  0
  7  9  1  0  0  0  0
  9 10  1  0  0  0  0
  9 11  1  0  0  0  0
  9 29  1  0  0  0  0
 11 12  1  0  0  0  0
 11 13  1  0  0  0  0
 11 14  1  0  0  0  0
 14 15  2  0  0  0  0
 14 28  1  0  0  0  0
 15 16  1  0  0  0  0
 15 17  1  0  0  0  0
 17 18  1  0  0  0  0
 17 19  1  0  0  0  0
 19 20  1  0  0  0  0
 19 28  2  0  0  0  0
 20 21  1  0  0  0  0
 20 22  2  0  0  0  0
 22 23  1  0  0  0  0
 22 24  1  0  0  0  0
 24 25  1  0  0  0  0
 24 26  2  0  0  0  0
 26 27  1  0  0  0  0
 26 28  1  0  0  0  0
 29 30  2  0  0  0  0
 29 31  1  0  0  0  0
 31 32  1  0  0  0  0
 31 33  1  0  0  0  0
 33 34  1  0  0  0  0
 33 35  1  0  0  0  0
 33 36  1  0  0  0  0
M  END
$$$$

  -OEChem-01062216103D

 36 37  0     1  0  0  0  0  0999 V2000
   -3.8766   -2.6404    0.0529 H   0  0  0  0  0  0  0  0  0  0  0  0
   -3.7722   -1.7676   -0.5983 C   0  0  0  0  0  0  0  0  0  0  0  0
   -4.5306   -1.0318   -0.3206 H   0  0  0  0  0  0  0  0  0  0  0  0
   -3.9345   -2.0786   -1.6332 H   0  0  0  0  0  0  0  0  0  0  0  0
   -2.3873   -1.1665   -0.4485 C   0  0  0  0  0  0  0  0  0  0  0  0
   -1.5507   -1.7647    0.2033 O   0  0  0  0  0  0  0  0  0  0  0  0
   -2.0809   -0.0142   -1.1463 N   0  0  0  0  0  0  0  0  0  0  0  0
   -2.8196    0.3322   -1.7503 H   0  0  0  0  0  0  0  0  0  0  0  0
   -0.8967    0.8678   -1.0265 C   0  0  1  0  0  0  0  0  0  0  0  0
   -0.2390    0.6548   -1.8747 H   0  0  0  0  0  0  0  0  0  0  0  0
   -1.3992    2.3213   -1.1652 C   0  0  0  0  0  0  0  0  0  0  0  0
   -2.1851    2.5089   -0.4262 H   0  0  0  0  0  0  0  0  0  0  0  0
   -0.5877    3.0291   -0.9651 H   0  0  0  0  0  0  0  0  0  0  0  0
   -1.9175    2.5823   -2.5567 C   0  0  0  0  0  0  0  0  0  0  0  0
   -3.2298    2.5380   -2.9640 C   0  0  0  0  0  0  0  0  0  0  0  0
   -4.0880    2.3590   -2.3201 H   0  0  0  0  0  0  0  0  0  0  0  0
   -3.2528    2.7776   -4.3360 N   0  0  0  0  0  0  0  0  0  0  0  0
   -4.0908    2.8409   -4.9111 H   0  0  0  0  0  0  0  0  0  0  0  0
   -1.9661    2.9697   -4.8147 C   0  0  0  0  0  0  0  0  0  0  0  0
   -1.4776    3.2339   -6.0947 C   0  0  0  0  0  0  0  0  0  0  0  0
   -2.1588    3.3236   -6.9336 H   0  0  0  0  0  0  0  0  0  0  0  0
   -0.0954    3.3814   -6.2815 C   0  0  0  0  0  0  0  0  0  0  0  0
    0.2995    3.5876   -7.2721 H   0  0  0  0  0  0  0  0  0  0  0  0
    0.7791    3.2649   -5.1897 C   0  0  0  0  0  0  0  0  0  0  0  0
    1.8488    3.3818   -5.3365 H   0  0  0  0  0  0  0  0  0  0  0  0
    0.2767    3.0009   -3.9075 C   0  0  0  0  0  0  0  0  0  0  0  0
    0.9483    2.9143   -3.0591 H   0  0  0  0  0  0  0  0  0  0  0  0
   -1.1028    2.8547   -3.7319 C   0  0  0  0  0  0  0  0  0  0  0  0
    0.0089    0.7217    0.2316 C   0  0  0  0  0  0  0  0  0  0  0  0
    0.0801    1.6176    1.0670 O   0  0  0  0  0  0  0  0  0  0  0  0
    0.8692   -0.3547    0.3453 N   0  0  0  0  0  0  0  0  0  0  0  0
    0.5207   -1.1943   -0.1174 H   0  0  0  0  0  0  0  0  0  0  0  0
    1.7064   -0.5539    1.5218 C   0  0  0  0  0  0  0  0  0  0  0  0
    1.0861   -0.6788    2.4154 H   0  0  0  0  0  0  0  0  0  0  0  0
    2.3223   -1.4496    1.3976 H   0  0  0  0  0  0  0  0  0  0  0  0
    2.3723    0.3025    1.6703 H   0  0  0  0  0  0  0  0  0  0  0  0
  1  2  1  0  0  0  0
  2  3  1  0  0  0  0
  2  4  1  0  0  0  0
  2  5  1  0  0  0  0
  5  6  2  0  0  0  0
  5  7  1  0  0  0  0
  7  8  1  0  0  0  0
  7  9  1  0  0  0  0
  9 10  1  0  0  0  0
  9 11  1  0  0  0  0
  9 29  1  0  0  0  0
 11 12  1  0  0  0  0
 11 13  1  0  0  0  0
 11 14  1  0  0  0  0
 14 15  2  0  0  0  0
 14 28  1  0  0  0  0
 15 16  1  0  0  0  0
 15 17  1  0  0  0  0
 17 18  1  0  0  0  0
 17 19  1  0  0  0  0
 19 20  1  0  0  0  0
 19 28  2  0  0  0  0
 20 21  1  0  0  0  0
 20 22  2  0  0  0  0
 22 23  1  0  0  0  0
 22 24  1  0  0  0  0
 24 25  1  0  0  0  0
 24 26  2  0  0  0  0
 26 27  1  0  0  0  0
 26 28  1  0  0  0  0
 29 30  2  0  0  0  0
 29 31  1  0  0  0  0
 31 32  1  0  0  0  0
 31 33  1  0  0  0  0
 33 34  1  0  0  0  0
 33 35  1  0  0  0  0
 33 36  1  0  0  0  0
M  END
$$$$

  -OEChem-01062216103D

 36 37  0     1  0  0  0  0  0999 V2000
   -3.8001   -2.6142    0.1855 H   0  0  0  0  0  0  0  0  0  0  0  0
   -3.7170   -1.7730   -0.5086 C   0  0  0  0  0  0  0  0  0  0  0  0
   -4.4652   -1.0236   -0.2397 H   0  0  0  0  0  0  0  0  0  0  0  0
   -3.9149   -2.1305   -1.5220 H   0  0  0  0  0  0  0  0  0  0  0  0
   -2.3275   -1.1684   -0.4336 C   0  0  0  0  0  0  0  0  0  0  0  0
   -1.4568   -1.7514    0.1881 O   0  0  0  0  0  0  0  0  0  0  0  0
   -2.0506   -0.0321   -1.1691 N   0  0  0  0  0  0  0  0  0  0  0  0
   -2.8164    0.3184   -1.7351 H   0  0  0  0  0  0  0  0  0  0  0  0
   -0.8752    0.8588   -1.0566 C   0  0  1  0  0  0  0  0  0  0  0  0
   -0.2094    0.6474   -1.8989 H   0  0  0  0  0  0  0  0  0  0  0  0
   -1.3759    2.3114   -1.1918 C   0  0  0  0  0  0  0  0  0  0  0  0
   -2.1609    2.4979   -0.4512 H   0  0  0  0  0  0  0  0  0  0  0  0
   -0.5613    3.0140   -0.9865 H   0  0  0  0  0  0  0  0  0  0  0  0
   -1.9004    2.5762   -2.5798 C   0  0  0  0  0  0  0  0  0  0  0  0
   -3.2156    2.5338   -2.9780 C   0  0  0  0  0  0  0  0  0  0  0  0
   -4.0688    2.3473   -2.3294 H   0  0  0  0  0  0  0  0  0  0  0  0
   -3.2484    2.7827   -4.3483 N   0  0  0  0  0  0  0  0  0  0  0  0
   -4.0900    2.8439   -4.9184 H   0  0  0  0  0  0  0  0  0  0  0  0
   -1.9659    2.9861   -4.8327 C   0  0  0  0  0  0  0  0  0  0  0  0
   -1.4887    3.2678   -6.1128 C   0  0  0  0  0  0  0  0  0  0  0  0
   -2.1777    3.3621   -6.9449 H   0  0  0  0  0  0  0  0  0  0  0  0
   -0.1095    3.4287   -6.3081 C   0  0  0  0  0  0  0  0  0  0  0  0
    0.2754    3.6499   -7.2992 H   0  0  0  0  0  0  0  0  0  0  0  0
    0.7740    3.3072   -5.2243 C   0  0  0  0  0  0  0  0  0  0  0  0
    1.8414    3.4351   -5.3779 H   0  0  0  0  0  0  0  0  0  0  0  0
    0.2830    3.0248   -3.9415 C   0  0  0  0  0  0  0  0  0  0  0  0
    0.9613    2.9357   -3.0988 H   0  0  0  0  0  0  0  0  0  0  0  0
   -1.0943    2.8652   -3.7572 C   0  0  0  0  0  0  0  0  0  0  0  0
   -0.0030    0.7205    0.2214 C   0  0  0  0  0  0  0  0  0  0  0  0
   -0.1547    1.4820    1.1715 O   0  0  0  0  0  0  0  0  0  0  0  0
    1.0588   -0.1657    0.2343 N   0  0  0  0  0  0  0  0  0  0  0  0
    0.9568   -0.9467   -0.4091 H   0  0  0  0  0  0  0  0  0  0  0  0
    1.8571   -0.3911    1.4326 C   0  0  0  0  0  0  0  0  0  0  0  0
    1.2302   -0.7828    2.2406 H   0  0  0  0  0  0  0  0  0  0  0  0
    2.6512   -1.1147    1.2257 H   0  0  0  0  0  0  0  0  0  0  0  0
    2.3217    0.5423    1.7674 H   0  0  0  0  0  0  0  0  0  0  0  0
  1  2  1  0  0  0  0
  2  3  1  0  0  0  0
  2  4  1  0  0  0  0
  2  5  1  0  0  0  0
  5  6  2  0  0  0  0
  5  7  1  0  0  0  0
  7  8  1  0  0  0  0
  7  9  1  0  0  0  0
  9 10  1  0  0  0  0
  9 11  1  0  0  0  0
  9 29  1  0  0  0  0
 11 12  1  0  0  0  0
 11 13  1  0  0  0  0
 11 14  1  0  0  0  0
 14 15  2  0  0  0  0
 14 28  1  0  0  0  0
 15 16  1  0  0  0  0
 15 17  1  0  0  0  0
 17 18  1  0  0  0  0
 17 19  1  0  0  0  0
 19 20  1  0  0  0  0
 19 28  2  0  0  0  0
 20 21  1  0  0  0  0
 20 22  2  0  0  0  0
 22 23  1  0  0  0  0
 22 24  1  0  0  0  0
 24 25  1  0  0  0  0
 24 26  2  0  0  0  0
 26 27  1  0  0  0  0
 26 28  1  0  0  0  0
 29 30  2  0  0  0  0
 29 31  1  0  0  0  0
 31 32  1  0  0  0  0
 31 33  1  0  0  0  0
 33 34  1  0  0  0  0
 33 35  1  0  0  0  0
 33 36  1  0  0  0  0
M  END
$$$$

  -OEChem-01062216103D

 36 37  0     1  0  0  0  0  0999 V2000
   -3.7396   -2.6291    0.2349 H   0  0  0  0  0  0  0  0  0  0  0  0
   -3.6883   -1.7826   -0.4559 C   0  0  0  0  0  0  0  0  0  0  0  0
   -4.4201   -1.0329   -0.1455 H   0  0  0  0  0  0  0  0  0  0  0  0
   -3.9347   -2.1319   -1.4613 H   0  0  0  0  0  0  0  0  0  0  0  0
   -2.2950   -1.1830   -0.4430 C   0  0  0  0  0  0  0  0  0  0  0  0
   -1.3962   -1.7736    0.1312 O   0  0  0  0  0  0  0  0  0  0  0  0
   -2.0420   -0.0513   -1.1946 N   0  0  0  0  0  0  0  0  0  0  0  0
   -2.8320    0.3124   -1.7167 H   0  0  0  0  0  0  0  0  0  0  0  0
   -0.8763    0.8499   -1.0779 C   0  0  1  0  0  0  0  0  0  0  0  0
   -0.2060    0.6432   -1.9175 H   0  0  0  0  0  0  0  0  0  0  0  0
   -1.3761    2.3020   -1.2031 C   0  0  0  0  0  0  0  0  0  0  0  0
   -2.1633    2.4821   -0.4634 H   0  0  0  0  0  0  0  0  0  0  0  0
   -0.5618    3.0019   -0.9881 H   0  0  0  0  0  0  0  0  0  0  0  0
   -1.9003    2.5770   -2.5888 C   0  0  0  0  0  0  0  0  0  0  0  0
   -3.2153    2.5383   -2.9885 C   0  0  0  0  0  0  0  0  0  0  0  0
   -4.0697    2.3480   -2.3426 H   0  0  0  0  0  0  0  0  0  0  0  0
   -3.2472    2.7997   -4.3565 N   0  0  0  0  0  0  0  0  0  0  0  0
   -4.0889    2.8660   -4.9262 H   0  0  0  0  0  0  0  0  0  0  0  0
   -1.9637    3.0023   -4.8391 C   0  0  0  0  0  0  0  0  0  0  0  0
   -1.4853    3.2903   -6.1174 C   0  0  0  0  0  0  0  0  0  0  0  0
   -2.1730    3.3936   -6.9495 H   0  0  0  0  0  0  0  0  0  0  0  0
   -0.1052    3.4450   -6.3112 C   0  0  0  0  0  0  0  0  0  0  0  0
    0.2811    3.6703   -7.3009 H   0  0  0  0  0  0  0  0  0  0  0  0
    0.7777    3.3119   -5.2283 C   0  0  0  0  0  0  0  0  0  0  0  0
    1.8455    3.4354   -5.3822 H   0  0  0  0  0  0  0  0  0  0  0  0
    0.2857    3.0241   -3.9472 C   0  0  0  0  0  0  0  0  0  0  0  0
    0.9643    2.9254   -3.1059 H   0  0  0  0  0  0  0  0  0  0  0  0
   -1.0926    2.8707   -3.7640 C   0  0  0  0  0  0  0  0  0  0  0  0
   -0.0219    0.7181    0.2104 C   0  0  0  0  0  0  0  0  0  0  0  0
   -0.3537    1.3039    1.2363 O   0  0  0  0  0  0  0  0  0  0  0  0
    1.2103    0.0909    0.1614 N   0  0  0  0  0  0  0  0  0  0  0  0
    1.3395   -0.5517   -0.6145 H   0  0  0  0  0  0  0  0  0  0  0  0
    2.0141   -0.1233    1.3582 C   0  0  0  0  0  0  0  0  0  0  0  0
    1.4687   -0.7437    2.0774 H   0  0  0  0  0  0  0  0  0  0  0  0
    2.9486   -0.6298    1.0993 H   0  0  0  0  0  0  0  0  0  0  0  0
    2.2615    0.8322    1.8325 H   0  0  0  0  0  0  0  0  0  0  0  0
  1  2  1  0  0  0  0
  2  3  1  0  0  0  0
  2  4  1  0  0  0  0
  2  5  1  0  0  0  0
  5  6  2  0  0  0  0
  5  7  1  0  0  0  0
  7  8  1  0  0  0  0
  7  9  1  0  0  0  0
  9 10  1  0  0  0  0
  9 11  1  0  0  0  0
  9 29  1  0  0  0  0
 11 12  1  0  0  0  0
 11 13  1  0  0  0  0
 11 14  1  0  0  0  0
 14 15  2  0  0  0  0
 14 28  1  0  0  0  0
 15 16  1  0  0  0  0
 15 17  1  0  0  0  0
 17 18  1  0  0  0  0
 17 19  1  0  0  0  0
 19 20  1  0  0  0  0
 19 28  2  0  0  0  0
 20 21  1  0  0  0  0
 20 22  2  0  0  0  0
 22 23  1  0  0  0  0
 22 24  1  0  0  0  0
 24 25  1  0  0  0  0
 24 26  2  0  0  0  0
 26 27  1  0  0  0  0
 26 28  1  0  0  0  0
 29 30  2  0  0  0  0
 29 31  1  0  0  0  0
 31 32  1  0  0  0  0
 31 33  1  0  0  0  0
 33 34  1  0  0  0  0
 33 35  1  0  0  0  0
 33 36  1  0  0  0  0
M  END
$$$$

  -OEChem-01062216103D

 36 37  0     1  0  0  0  0  0999 V2000
   -3.7123   -2.6425    0.2664 H   0  0  0  0  0  0  0  0  0  0  0  0
   -3.6832   -1.7858   -0.4130 C   0  0  0  0  0  0  0  0  0  0  0  0
   -4.3855   -1.0302   -0.0528 H   0  0  0  0  0  0  0  0  0  0  0  0
   -3.9884   -2.1145   -1.4094 H   0  0  0  0  0  0  0  0  0  0  0  0
   -2.2812   -1.2084   -0.4628 C   0  0  0  0  0  0  0  0  0  0  0  0
   -1.3627   -1.8191    0.0573 O   0  0  0  0  0  0  0  0  0  0  0  0
   -2.0430   -0.0787   -1.2220 N   0  0  0  0  0  0  0  0  0  0  0  0
   -2.8538    0.3046   -1.6951 H   0  0  0  0  0  0  0  0  0  0  0  0
   -0.8826    0.8275   -1.0963 C   0  0  1  0  0  0  0  0  0  0  0  0
   -0.2084    0.6243   -1.9334 H   0  0  0  0  0  0  0  0  0  0  0  0
   -1.3817    2.2800   -1.2099 C   0  0  0  0  0  0  0  0  0  0  0  0
   -2.1714    2.4524   -0.4707 H   0  0  0  0  0  0  0  0  0  0  0  0
   -0.5686    2.9781   -0.9846 H   0  0  0  0  0  0  0  0  0  0  0  0
   -1.9032    2.5683   -2.5941 C   0  0  0  0  0  0  0  0  0  0  0  0
   -3.2167    2.5347   -2.9994 C   0  0  0  0  0  0  0  0  0  0  0  0
   -4.0739    2.3386   -2.3591 H   0  0  0  0  0  0  0  0  0  0  0  0
   -3.2432    2.8085   -4.3650 N   0  0  0  0  0  0  0  0  0  0  0  0
   -4.0823    2.8773   -4.9380 H   0  0  0  0  0  0  0  0  0  0  0  0
   -1.9577    3.0133   -4.8414 C   0  0  0  0  0  0  0  0  0  0  0  0
   -1.4727    3.3108   -6.1153 C   0  0  0  0  0  0  0  0  0  0  0  0
   -2.1569    3.4217   -6.9495 H   0  0  0  0  0  0  0  0  0  0  0  0
   -0.0913    3.4644   -6.3021 C   0  0  0  0  0  0  0  0  0  0  0  0
    0.2997    3.6972   -7.2881 H   0  0  0  0  0  0  0  0  0  0  0  0
    0.7867    3.3204   -5.2167 C   0  0  0  0  0  0  0  0  0  0  0  0
    1.8556    3.4418   -5.3647 H   0  0  0  0  0  0  0  0  0  0  0  0
    0.2880    3.0234   -3.9402 C   0  0  0  0  0  0  0  0  0  0  0  0
    0.9625    2.9163   -3.0969 H   0  0  0  0  0  0  0  0  0  0  0  0
   -1.0911    2.8715   -3.7639 C   0  0  0  0  0  0  0  0  0  0  0  0
   -0.0380    0.7020    0.1974 C   0  0  0  0  0  0  0  0  0  0  0  0
   -0.4936    1.0969    1.2660 O   0  0  0  0  0  0  0  0  0  0  0  0
    1.3039    0.3723    0.1206 N   0  0  0  0  0  0  0  0  0  0  0  0
    1.6028   -0.0878   -0.7337 H   0  0  0  0  0  0  0  0  0  0  0  0
    2.1355    0.2194    1.3082 C   0  0  0  0  0  0  0  0  0  0  0  0
    1.7400   -0.5737    1.9516 H   0  0  0  0  0  0  0  0  0  0  0  0
    3.1587   -0.0424    1.0219 H   0  0  0  0  0  0  0  0  0  0  0  0
    2.1668    1.1534    1.8790 H   0  0  0  0  0  0  0  0  0  0  0  0
  1  2  1  0  0  0  0
  2  3  1  0  0  0  0
  2  4  1  0  0  0  0
  2  5  1  0  0  0  0
  5  6  2  0  0  0  0
  5  7  1  0  0  0  0
  7  8  1  0  0  0  0
  7  9  1  0  0  0  0
  9 10  1  0  0  0  0
  9 11  1  0  0  0  0
  9 29  1  0  0  0  0
 11 12  1  0  0  0  0
 11 13  1  0  0  0  0
 11 14  1  0  0  0  0
 14 15  2  0  0  0  0
 14 28  1  0  0  0  0
 15 16  1  0  0  0  0
 15 17  1  0  0  0  0
 17 18  1  0  0  0  0
 17 19  1  0  0  0  0
 19 20  1  0  0  0  0
 19 28  2  0  0  0  0
 20 21  1  0  0  0  0
 20 22  2  0  0  0  0
 22 23  1  0  0  0  0
 22 24  1  0  0  0  0
 24 25  1  0  0  0  0
 24 26  2  0  0  0  0
 26 27  1  0  0  0  0
 26 28  1  0  0  0  0
 29 30  2  0  0  0  0
 29 31  1  0  0  0  0
 31 32  1  0  0  0  0
 31 33  1  0  0  0  0
 33 34  1  0  0  0  0
 33 35  1  0  0  0  0
 33 36  1  0  0  0  0
M  END
$$$$

  -OEChem-01062216103D

 36 37  0     1  0  0  0  0  0999 V2000
   -3.7009   -2.6506    0.3000 H   0  0  0  0  0  0  0  0  0  0  0  0
   -3.6863   -1.7898   -0.3745 C   0  0  0  0  0  0  0  0  0  0  0  0
   -4.3597   -1.0255    0.0205 H   0  0  0  0  0  0  0  0  0  0  0  0
   -4.0376   -2.1064   -1.3594 H   0  0  0  0  0  0  0  0  0  0  0  0
   -2.2781   -1.2356   -0.4796 C   0  0  0  0  0  0  0  0  0  0  0  0
   -1.3471   -1.8735   -0.0173 O   0  0  0  0  0  0  0  0  0  0  0  0
   -2.0468   -0.1083   -1.2446 N   0  0  0  0  0  0  0  0  0  0  0  0
   -2.8709    0.2935   -1.6770 H   0  0  0  0  0  0  0  0  0  0  0  0
   -0.8867    0.7980   -1.1111 C   0  0  1  0  0  0  0  0  0  0  0  0
   -0.2106    0.5952   -1.9467 H   0  0  0  0  0  0  0  0  0  0  0  0
   -1.3835    2.2512   -1.2156 C   0  0  0  0  0  0  0  0  0  0  0  0
   -2.1738    2.4196   -0.4761 H   0  0  0  0  0  0  0  0  0  0  0  0
   -0.5702    2.9475   -0.9854 H   0  0  0  0  0  0  0  0  0  0  0  0
   -1.9016    2.5491   -2.5985 C   0  0  0  0  0  0  0  0  0  0  0  0
   -3.2137    2.5199   -3.0080 C   0  0  0  0  0  0  0  0  0  0  0  0
   -4.0726    2.3148   -2.3728 H   0  0  0  0  0  0  0  0  0  0  0  0
   -3.2353    2.8103   -4.3703 N   0  0  0  0  0  0  0  0  0  0  0  0
   -4.0724    2.8821   -4.9459 H   0  0  0  0  0  0  0  0  0  0  0  0
   -1.9487    3.0225   -4.8398 C   0  0  0  0  0  0  0  0  0  0  0  0
   -1.4602    3.3365   -6.1082 C   0  0  0  0  0  0  0  0  0  0  0  0
   -2.1414    3.4566   -6.9434 H   0  0  0  0  0  0  0  0  0  0  0  0
   -0.0784    3.4942   -6.2884 C   0  0  0  0  0  0  0  0  0  0  0  0
    0.3158    3.7402   -7.2699 H   0  0  0  0  0  0  0  0  0  0  0  0
    0.7962    3.3374   -5.2021 C   0  0  0  0  0  0  0  0  0  0  0  0
    1.8655    3.4616   -5.3451 H   0  0  0  0  0  0  0  0  0  0  0  0
    0.2936    3.0246   -3.9311 C   0  0  0  0  0  0  0  0  0  0  0  0
    0.9651    2.9085   -3.0869 H   0  0  0  0  0  0  0  0  0  0  0  0
   -1.0858    2.8680   -3.7614 C   0  0  0  0  0  0  0  0  0  0  0  0
   -0.0461    0.6799    0.1851 C   0  0  0  0  0  0  0  0  0  0  0  0
   -0.5724    0.8924    1.2730 O   0  0  0  0  0  0  0  0  0  0  0  0
    1.3360    0.6628    0.1096 N   0  0  0  0  0  0  0  0  0  0  0  0
    1.7386    0.3984   -0.7840 H   0  0  0  0  0  0  0  0  0  0  0  0
    2.1828    0.5992    1.2945 C   0  0  0  0  0  0  0  0  0  0  0  0
    1.9593   -0.3024    1.8746 H   0  0  0  0  0  0  0  0  0  0  0  0
    3.2376    0.5735    1.0048 H   0  0  0  0  0  0  0  0  0  0  0  0
    2.0218    1.4763    1.9302 H   0  0  0  0  0  0  0  0  0  0  0  0
  1  2  1  0  0  0  0
  2  3  1  0  0  0  0
  2  4  1  0  0  0  0
  2  5  1  0  0  0  0
  5  6  2  0  0  0  0
  5  7  1  0  0  0  0
  7  8  1  0  0  0  0
  7  9  1  0  0  0  0
  9 10  1  0  0  0  0
  9 11  1  0  0  0  0
  9 29  1  0  0  0  0
 11 12  1  0  0  0  0
 11 13  1  0  0  0  0
 11 14  1  0  0  0  0
 14 15  2  0  0  0  0
 14 28  1  0  0  0  0
 15 16  1  0  0  0  0
 15 17  1  0  0  0  0
 17 18  1  0  0  0  0
 17 19  1  0  0  0  0
 19 20  1  0  0  0  0
 19 28  2  0  0  0  0
 20 21  1  0  0  0  0
 20 22  2  0  0  0  0
 22 23  1  0  0  0  0
 22 24  1  0  0  0  0
 24 25  1  0  0  0  0
 24 26  2  0  0  0  0
 26 27  1  0  0  0  0
 26 28  1  0  0  0  0
 29 30  2  0  0  0  0
 29 31  1  0  0  0  0
 31 32  1  0  0  0  0
 31 33  1  0  0  0  0
 33 34  1  0  0  0  0
 33 35  1  0  0  0  0
 33 36  1  0  0  0  0
M  END
$$$$

  -OEChem-01062216103D

 36 37  0     1  0  0  0  0  0999 V2000
   -3.6989   -2.6720    0.2933 H   0  0  0  0  0  0  0  0  0  0  0  0
   -3.6936   -1.7771   -0.3356 C   0  0  0  0  0  0  0  0  0  0  0  0
   -4.3136   -1.0126    0.1387 H   0  0  0  0  0  0  0  0  0  0  0  0
   -4.1147   -2.0290   -1.3117 H   0  0  0  0  0  0  0  0  0  0  0  0
   -2.2752   -1.2644   -0.4983 C   0  0  0  0  0  0  0  0  0  0  0  0
   -1.3411   -1.9413   -0.1011 O   0  0  0  0  0  0  0  0  0  0  0  0
   -2.0422   -0.1405   -1.2676 N   0  0  0  0  0  0  0  0  0  0  0  0
   -2.8758    0.2861   -1.6548 H   0  0  0  0  0  0  0  0  0  0  0  0
   -0.8785    0.7604   -1.1254 C   0  0  1  0  0  0  0  0  0  0  0  0
   -0.1987    0.5569   -1.9581 H   0  0  0  0  0  0  0  0  0  0  0  0
   -1.3776    2.2135   -1.2233 C   0  0  0  0  0  0  0  0  0  0  0  0
   -2.1694    2.3746   -0.4837 H   0  0  0  0  0  0  0  0  0  0  0  0
   -0.5673    2.9111   -0.9863 H   0  0  0  0  0  0  0  0  0  0  0  0
   -1.8941    2.5231   -2.6046 C   0  0  0  0  0  0  0  0  0  0  0  0
   -3.2060    2.4962   -3.0161 C   0  0  0  0  0  0  0  0  0  0  0  0
   -4.0654    2.2811   -2.3850 H   0  0  0  0  0  0  0  0  0  0  0  0
   -3.2273    2.8053   -4.3742 N   0  0  0  0  0  0  0  0  0  0  0  0
   -4.0633    2.8803   -4.9510 H   0  0  0  0  0  0  0  0  0  0  0  0
   -1.9409    3.0287   -4.8386 C   0  0  0  0  0  0  0  0  0  0  0  0
   -1.4543    3.3644   -6.1020 C   0  0  0  0  0  0  0  0  0  0  0  0
   -2.1368    3.4952   -6.9344 H   0  0  0  0  0  0  0  0  0  0  0  0
   -0.0735    3.5310   -6.2804 C   0  0  0  0  0  0  0  0  0  0  0  0
    0.3187    3.7926   -7.2589 H   0  0  0  0  0  0  0  0  0  0  0  0
    0.8018    3.3627   -5.1963 C   0  0  0  0  0  0  0  0  0  0  0  0
    1.8702    3.4953   -5.3384 H   0  0  0  0  0  0  0  0  0  0  0  0
    0.3009    3.0273   -3.9303 C   0  0  0  0  0  0  0  0  0  0  0  0
    0.9737    2.9019   -3.0889 H   0  0  0  0  0  0  0  0  0  0  0  0
   -1.0778    2.8615   -3.7622 C   0  0  0  0  0  0  0  0  0  0  0  0
   -0.0422    0.6476    0.1749 C   0  0  0  0  0  0  0  0  0  0  0  0
   -0.6039    0.6822    1.2652 O   0  0  0  0  0  0  0  0  0  0  0  0
    1.3114    0.9373    0.1376 N   0  0  0  0  0  0  0  0  0  0  0  0
    1.7679    0.8803   -0.7670 H   0  0  0  0  0  0  0  0  0  0  0  0
    2.1437    0.9818    1.3341 C   0  0  0  0  0  0  0  0  0  0  0  0
    2.1148    0.0195    1.8561 H   0  0  0  0  0  0  0  0  0  0  0  0
    3.1816    1.1994    1.0649 H   0  0  0  0  0  0  0  0  0  0  0  0
    1.7943    1.7636    2.0166 H   0  0  0  0  0  0  0  0  0  0  0  0
  1  2  1  0  0  0  0
  2  3  1  0  0  0  0
  2  4  1  0  0  0  0
  2  5  1  0  0  0  0
  5  6  2  0  0  0  0
  5  7  1  0  0  0  0
  7  8  1  0  0  0  0
  7  9  1  0  0  0  0
  9 10  1  0  0  0  0
  9 11  1  0  0  0  0
  9 29  1  0  0  0  0
 11 12  1  0  0  0  0
 11 13  1  0  0  0  0
 11 14  1  0  0  0  0
 14 15  2  0  0  0  0
 14 28  1  0  0  0  0
 15 16  1  0  0  0  0
 15 17  1  0  0  0  0
 17 18  1  0  0  0  0
 17 19  1  0  0  0  0
 19 20  1  0  0  0  0
 19 28  2  0  0  0  0
 20 21  1  0  0  0  0
 20 22  2  0  0  0  0
 22 23  1  0  0  0  0
 22 24  1  0  0  0  0
 24 25  1  0  0  0  0
 24 26  2  0  0  0  0
 26 27  1  0  0  0  0
 26 28  1  0  0  0  0
 29 30  2  0  0  0  0
 29 31  1  0  0  0  0
 31 32  1  0  0  0  0
 31 33  1  0  0  0  0
 33 34  1  0  0  0  0
 33 35  1  0  0  0  0
 33 36  1  0  0  0  0
M  END
$$$$

  -OEChem-01062216103D

 36 37  0     1  0  0  0  0  0999 V2000
   -3.7184   -2.6400    0.3183 H   0  0  0  0  0  0  0  0  0  0  0  0
   -3.7052   -1.7459   -0.3118 C   0  0  0  0  0  0  0  0  0  0  0  0
   -4.2758   -0.9586    0.1862 H   0  0  0  0  0  0  0  0  0  0  0  0
   -4.1745   -1.9806   -1.2701 H   0  0  0  0  0  0  0  0  0  0  0  0
   -2.2763   -1.2868   -0.5317 C   0  0  0  0  0  0  0  0  0  0  0  0
   -1.3512   -2.0139   -0.2088 O   0  0  0  0  0  0  0  0  0  0  0  0
   -2.0316   -0.1593   -1.2914 N   0  0  0  0  0  0  0  0  0  0  0  0
   -2.8666    0.2920   -1.6456 H   0  0  0  0  0  0  0  0  0  0  0  0
   -0.8598    0.7304   -1.1360 C   0  0  1  0  0  0  0  0  0  0  0  0
   -0.1790    0.5319   -1.9692 H   0  0  0  0  0  0  0  0  0  0  0  0
   -1.3698    2.1823   -1.2228 C   0  0  0  0  0  0  0  0  0  0  0  0
   -2.1636    2.3304   -0.4827 H   0  0  0  0  0  0  0  0  0  0  0  0
   -0.5682    2.8875   -0.9806 H   0  0  0  0  0  0  0  0  0  0  0  0
   -1.8855    2.5008   -2.6023 C   0  0  0  0  0  0  0  0  0  0  0  0
   -3.1972    2.4674   -3.0136 C   0  0  0  0  0  0  0  0  0  0  0  0
   -4.0556    2.2395   -2.3856 H   0  0  0  0  0  0  0  0  0  0  0  0
   -3.2210    2.7856   -4.3690 N   0  0  0  0  0  0  0  0  0  0  0  0
   -4.0577    2.8517   -4.9457 H   0  0  0  0  0  0  0  0  0  0  0  0
   -1.9371    3.0246   -4.8321 C   0  0  0  0  0  0  0  0  0  0  0  0
   -1.4553    3.3736   -6.0937 C   0  0  0  0  0  0  0  0  0  0  0  0
   -2.1399    3.5008   -6.9252 H   0  0  0  0  0  0  0  0  0  0  0  0
   -0.0768    3.5580   -6.2712 C   0  0  0  0  0  0  0  0  0  0  0  0
    0.3122    3.8308   -7.2479 H   0  0  0  0  0  0  0  0  0  0  0  0
    0.8007    3.3925   -5.1885 C   0  0  0  0  0  0  0  0  0  0  0  0
    1.8674    3.5388   -5.3305 H   0  0  0  0  0  0  0  0  0  0  0  0
    0.3047    3.0417   -3.9246 C   0  0  0  0  0  0  0  0  0  0  0  0
    0.9805    2.9187   -3.0855 H   0  0  0  0  0  0  0  0  0  0  0  0
   -1.0720    2.8582   -3.7569 C   0  0  0  0  0  0  0  0  0  0  0  0
   -0.0178    0.6143    0.1636 C   0  0  0  0  0  0  0  0  0  0  0  0
   -0.5722    0.4514    1.2456 O   0  0  0  0  0  0  0  0  0  0  0  0
    1.2425    1.1902    0.1947 N   0  0  0  0  0  0  0  0  0  0  0  0
    1.6958    1.3628   -0.6968 H   0  0  0  0  0  0  0  0  0  0  0  0
    2.0277    1.3304    1.4159 C   0  0  0  0  0  0  0  0  0  0  0  0
    2.1874    0.3530    1.8835 H   0  0  0  0  0  0  0  0  0  0  0  0
    3.0042    1.7692    1.1894 H   0  0  0  0  0  0  0  0  0  0  0  0
    1.5142    1.9833    2.1295 H   0  0  0  0  0  0  0  0  0  0  0  0
  1  2  1  0  0  0  0
  2  3  1  0  0  0  0
  2  4  1  0  0  0  0
  2  5  1  0  0  0  0
  5  6  2  0  0  0  0
  5  7  1  0  0  0  0
  7  8  1  0  0  0  0
  7  9  1  0  0  0  0
  9 10  1  0  0  0  0
  9 11  1  0  0  0  0
  9 29  1  0  0  0  0
 11 12  1  0  0  0  0
 11 13  1  0  0  0  0
 11 14  1  0  0  0  0
 14 15  2  0  0  0  0
 14 28  1  0  0  0  0
 15 16  1  0  0  0  0
 15 17  1  0  0  0  0
 17 18  1  0  0  0  0
 17 19  1  0  0  0  0
 19 20  1  0  0  0  0
 19 28  2  0  0  0  0
 20 21  1  0  0  0  0
 20 22  2  0  0  0  0
 22 23  1  0  0  0  0
 22 24  1  0  0  0  0
 24 25  1  0  0  0  0
 24 26  2  0  0  0  0
 26 27  1  0  0  0  0
 26 28  1  0  0  0  0
 29 30  2  0  0  0  0
 29 31  1  0  0  0  0
 31 32  1  0  0  0  0
 31 33  1  0  0  0  0
 33 34  1  0  0  0  0
 33 35  1  0  0  0  0
 33 36  1  0  0  0  0
M  END
$$$$

  -OEChem-01062216103D

 36 37  0     1  0  0  0  0  0999 V2000
   -3.5332   -2.8252    0.0593 H   0  0  0  0  0  0  0  0  0  0  0  0
   -3.3505   -2.0851   -0.7249 C   0  0  0  0  0  0  0  0  0  0  0  0
   -4.3054   -1.7985   -1.1713 H   0  0  0  0  0  0  0  0  0  0  0  0
   -2.7156   -2.5376   -1.4903 H   0  0  0  0  0  0  0  0  0  0  0  0
   -2.6630   -0.8673   -0.1377 C   0  0  0  0  0  0  0  0  0  0  0  0
   -2.6866   -0.6862    1.0679 O   0  0  0  0  0  0  0  0  0  0  0  0
   -2.3150    0.1871   -0.9568 N   0  0  0  0  0  0  0  0  0  0  0  0
   -2.6497    0.0608   -1.9066 H   0  0  0  0  0  0  0  0  0  0  0  0
   -1.0368    0.9380   -0.8909 C   0  0  1  0  0  0  0  0  0  0  0  0
   -0.5431    0.8354   -1.8619 H   0  0  0  0  0  0  0  0  0  0  0  0
   -1.4357    2.4136   -0.6897 C   0  0  0  0  0  0  0  0  0  0  0  0
   -2.0911    2.4912    0.1851 H   0  0  0  0  0  0  0  0  0  0  0  0
   -0.5634    3.0444   -0.4981 H   0  0  0  0  0  0  0  0  0  0  0  0
   -2.1388    2.9456   -1.9116 C   0  0  0  0  0  0  0  0  0  0  0  0
   -3.4996    3.0306   -2.0788 C   0  0  0  0  0  0  0  0  0  0  0  0
   -4.2434    2.7421   -1.3381 H   0  0  0  0  0  0  0  0  0  0  0  0
   -3.7350    3.5429   -3.3526 N   0  0  0  0  0  0  0  0  0  0  0  0
   -4.6531    3.7387   -3.7472 H   0  0  0  0  0  0  0  0  0  0  0  0
   -2.5366    3.7809   -4.0067 C   0  0  0  0  0  0  0  0  0  0  0  0
   -2.2564    4.2802   -5.2788 C   0  0  0  0  0  0  0  0  0  0  0  0
   -3.0636    4.5631   -5.9455 H   0  0  0  0  0  0  0  0  0  0  0  0
   -0.9200    4.4107   -5.6821 C   0  0  0  0  0  0  0  0  0  0  0  0
   -0.6874    4.7984   -6.6696 H   0  0  0  0  0  0  0  0  0  0  0  0
    0.1172    4.0428   -4.8112 C   0  0  0  0  0  0  0  0  0  0  0  0
    1.1509    4.1466   -5.1277 H   0  0  0  0  0  0  0  0  0  0  0  0
   -0.1762    3.5450   -3.5335 C   0  0  0  0  0  0  0  0  0  0  0  0
    0.6246    3.2634   -2.8586 H   0  0  0  0  0  0  0  0  0  0  0  0
   -1.5123    3.4179   -3.1391 C   0  0  0  0  0  0  0  0  0  0  0  0
    0.0566    0.5598    0.1535 C   0  0  0  0  0  0  0  0  0  0  0  0
    0.1477   -0.5706    0.6125 O   0  0  0  0  0  0  0  0  0  0  0  0
    1.2326    1.2959    0.1790 N   0  0  0  0  0  0  0  0  0  0  0  0
    1.2273    2.2017   -0.2780 H   0  0  0  0  0  0  0  0  0  0  0  0
    2.4179    0.9026    0.9346 C   0  0  0  0  0  0  0  0  0  0  0  0
    2.8188   -0.0430    0.5548 H   0  0  0  0  0  0  0  0  0  0  0  0
    3.1954    1.6671    0.8448 H   0  0  0  0  0  0  0  0  0  0  0  0
    2.1730    0.7815    1.9951 H   0  0  0  0  0  0  0  0  0  0  0  0
  1  2  1  0  0  0  0
  2  3  1  0  0  0  0
  2  4  1  0  0  0  0
  2  5  1  0  0  0  0
  5  6  2  0  0  0  0
  5  7  1  0  0  0  0
  7  8  1  0  0  0  0
  7  9  1  0  0  0  0
  9 10  1  0  0  0  0
  9 11  1  0  0  0  0
  9 29  1  0  0  0  0
 11 12  1  0  0  0  0
 11 13  1  0  0  0  0
 11 14  1  0  0  0  0
 14 15  2  0  0  0  0
 14 28  1  0  0  0  0
 15 16  1  0  0  0  0
 15 17  1  0  0  0  0
 17 18  1  0  0  0  0
 17 19  1  0  0  0  0
 19 20  1  0  0  0  0
 19 28  2  0  0  0  0
 20 21  1  0  0  0  0
 20 22  2  0  0  0  0
 22 23  1  0  0  0  0
 22 24  1  0  0  0  0
 24 25  1  0  0  0  0
 24 26  2  0  0  0  0
 26 27  1  0  0  0  0
 26 28  1  0  0  0  0
 29 30  2  0  0  0  0
 29 31  1  0  0  0  0
 31 32  1  0  0  0  0
 31 33  1  0  0  0  0
 33 34  1  0  0  0  0
 33 35  1  0  0  0  0
 33 36  1  0  0  0  0
M  END
$$$$

  -OEChem-01062216103D

 36 37  0     1  0  0  0  0  0999 V2000
   -3.5452   -2.7940    0.0447 H   0  0  0  0  0  0  0  0  0  0  0  0
   -3.3940   -2.0328   -0.7257 C   0  0  0  0  0  0  0  0  0  0  0  0
   -4.3680   -1.7011   -1.0930 H   0  0  0  0  0  0  0  0  0  0  0  0
   -2.8303   -2.4770   -1.5495 H   0  0  0  0  0  0  0  0  0  0  0  0
   -2.6268   -0.8576   -0.1506 C   0  0  0  0  0  0  0  0  0  0  0  0
   -2.5421   -0.7258    1.0590 O   0  0  0  0  0  0  0  0  0  0  0  0
   -2.2969    0.2078   -0.9638 N   0  0  0  0  0  0  0  0  0  0  0  0
   -2.6514    0.1010   -1.9088 H   0  0  0  0  0  0  0  0  0  0  0  0
   -1.0273    0.9715   -0.8969 C   0  0  1  0  0  0  0  0  0  0  0  0
   -0.5232    0.8753   -1.8634 H   0  0  0  0  0  0  0  0  0  0  0  0
   -1.4444    2.4443   -0.7014 C   0  0  0  0  0  0  0  0  0  0  0  0
   -2.1018    2.5191    0.1718 H   0  0  0  0  0  0  0  0  0  0  0  0
   -0.5819    3.0894   -0.5173 H   0  0  0  0  0  0  0  0  0  0  0  0
   -2.1501    2.9610   -1.9279 C   0  0  0  0  0  0  0  0  0  0  0  0
   -3.5111    3.0294   -2.1020 C   0  0  0  0  0  0  0  0  0  0  0  0
   -4.2554    2.7431   -1.3612 H   0  0  0  0  0  0  0  0  0  0  0  0
   -3.7466    3.5209   -3.3839 N   0  0  0  0  0  0  0  0  0  0  0  0
   -4.6646    3.6997   -3.7868 H   0  0  0  0  0  0  0  0  0  0  0  0
   -2.5476    3.7600   -4.0365 C   0  0  0  0  0  0  0  0  0  0  0  0
   -2.2670    4.2404   -5.3153 C   0  0  0  0  0  0  0  0  0  0  0  0
   -3.0744    4.5035   -5.9900 H   0  0  0  0  0  0  0  0  0  0  0  0
   -0.9301    4.3768   -5.7156 C   0  0  0  0  0  0  0  0  0  0  0  0
   -0.6974    4.7503   -6.7085 H   0  0  0  0  0  0  0  0  0  0  0  0
    0.1071    4.0312   -4.8356 C   0  0  0  0  0  0  0  0  0  0  0  0
    1.1410    4.1372   -5.1501 H   0  0  0  0  0  0  0  0  0  0  0  0
   -0.1867    3.5504   -3.5515 C   0  0  0  0  0  0  0  0  0  0  0  0
    0.6138    3.2828   -2.8698 H   0  0  0  0  0  0  0  0  0  0  0  0
   -1.5234    3.4202   -3.1597 C   0  0  0  0  0  0  0  0  0  0  0  0
    0.0476    0.5622    0.1548 C   0  0  0  0  0  0  0  0  0  0  0  0
    0.2794   -0.6234    0.3586 O   0  0  0  0  0  0  0  0  0  0  0  0
    1.0890    1.4265    0.4612 N   0  0  0  0  0  0  0  0  0  0  0  0
    0.9642    2.4068    0.2319 H   0  0  0  0  0  0  0  0  0  0  0  0
    2.2581    1.0374    1.2432 C   0  0  0  0  0  0  0  0  0  0  0  0
    2.8420    0.2801    0.7096 H   0  0  0  0  0  0  0  0  0  0  0  0
    2.8999    1.9056    1.4210 H   0  0  0  0  0  0  0  0  0  0  0  0
    1.9525    0.6288    2.2124 H   0  0  0  0  0  0  0  0  0  0  0  0
  1  2  1  0  0  0  0
  2  3  1  0  0  0  0
  2  4  1  0  0  0  0
  2  5  1  0  0  0  0
  5  6  2  0  0  0  0
  5  7  1  0  0  0  0
  7  8  1  0  0  0  0
  7  9  1  0  0  0  0
  9 10  1  0  0  0  0
  9 11  1  0  0  0  0
  9 29  1  0  0  0  0
 11 12  1  0  0  0  0
 11 13  1  0  0  0  0
 11 14  1  0  0  0  0
 14 15  2  0  0  0  0
 14 28  1  0  0  0  0
 15 16  1  0  0  0  0
 15 17  1  0  0  0  0
 17 18  1  0  0  0  0
 17 19  1  0  0  0  0
 19 20  1  0  0  0  0
 19 28  2  0  0  0  0
 20 21  1  0  0  0  0
 20 22  2  0  0  0  0
 22 23  1  0  0  0  0
 22 24  1  0  0  0  0
 24 25  1  0  0  0  0
 24 26  2  0  0  0  0
 26 27  1  0  0  0  0
 26 28  1  0  0  0  0
 29 30  2  0  0  0  0
 29 31  1  0  0  0  0
 31 32  1  0  0  0  0
 31 33  1  0  0  0  0
 33 34  1  0  0  0  0
 33 35  1  0  0  0  0
 33 36  1  0  0  0  0
M  END
$$$$

  -OEChem-01062216103D

 36 37  0     1  0  0  0  0  0999 V2000
   -3.5136   -2.8021    0.0386 H   0  0  0  0  0  0  0  0  0  0  0  0
   -3.4043   -2.0205   -0.7186 C   0  0  0  0  0  0  0  0  0  0  0  0
   -4.3965   -1.6689   -1.0108 H   0  0  0  0  0  0  0  0  0  0  0  0
   -2.9017   -2.4467   -1.5901 H   0  0  0  0  0  0  0  0  0  0  0  0
   -2.5870   -0.8704   -0.1618 C   0  0  0  0  0  0  0  0  0  0  0  0
   -2.4083   -0.7871    1.0420 O   0  0  0  0  0  0  0  0  0  0  0  0
   -2.2837    0.2077   -0.9703 N   0  0  0  0  0  0  0  0  0  0  0  0
   -2.6628    0.1183   -1.9078 H   0  0  0  0  0  0  0  0  0  0  0  0
   -1.0261    0.9913   -0.9105 C   0  0  1  0  0  0  0  0  0  0  0  0
   -0.5219    0.8971   -1.8774 H   0  0  0  0  0  0  0  0  0  0  0  0
   -1.4474    2.4634   -0.7237 C   0  0  0  0  0  0  0  0  0  0  0  0
   -2.0977    2.5459    0.1540 H   0  0  0  0  0  0  0  0  0  0  0  0
   -0.5816    3.1092   -0.5571 H   0  0  0  0  0  0  0  0  0  0  0  0
   -2.1593    2.9702   -1.9508 C   0  0  0  0  0  0  0  0  0  0  0  0
   -3.5205    3.0345   -2.1235 C   0  0  0  0  0  0  0  0  0  0  0  0
   -4.2633    2.7495   -1.3808 H   0  0  0  0  0  0  0  0  0  0  0  0
   -3.7585    3.5225   -3.4064 N   0  0  0  0  0  0  0  0  0  0  0  0
   -4.6773    3.7002   -3.8078 H   0  0  0  0  0  0  0  0  0  0  0  0
   -2.5608    3.7631   -4.0616 C   0  0  0  0  0  0  0  0  0  0  0  0
   -2.2798    4.2411   -5.3417 C   0  0  0  0  0  0  0  0  0  0  0  0
   -3.0864    4.5018   -6.0180 H   0  0  0  0  0  0  0  0  0  0  0  0
   -0.9428    4.3779   -5.7417 C   0  0  0  0  0  0  0  0  0  0  0  0
   -0.7095    4.7484   -6.7357 H   0  0  0  0  0  0  0  0  0  0  0  0
    0.0945    4.0364   -4.8602 C   0  0  0  0  0  0  0  0  0  0  0  0
    1.1286    4.1427   -5.1742 H   0  0  0  0  0  0  0  0  0  0  0  0
   -0.1991    3.5594   -3.5750 C   0  0  0  0  0  0  0  0  0  0  0  0
    0.6009    3.2956   -2.8912 H   0  0  0  0  0  0  0  0  0  0  0  0
   -1.5356    3.4277   -3.1845 C   0  0  0  0  0  0  0  0  0  0  0  0
    0.0443    0.5646    0.1374 C   0  0  0  0  0  0  0  0  0  0  0  0
    0.4155   -0.6037    0.1480 O   0  0  0  0  0  0  0  0  0  0  0  0
    0.9081    1.4840    0.7141 N   0  0  0  0  0  0  0  0  0  0  0  0
    0.6192    2.4564    0.7082 H   0  0  0  0  0  0  0  0  0  0  0  0
    2.0356    1.1016    1.5573 C   0  0  0  0  0  0  0  0  0  0  0  0
    2.7572    0.5074    0.9868 H   0  0  0  0  0  0  0  0  0  0  0  0
    2.5456    1.9936    1.9334 H   0  0  0  0  0  0  0  0  0  0  0  0
    1.6915    0.5120    2.4139 H   0  0  0  0  0  0  0  0  0  0  0  0
  1  2  1  0  0  0  0
  2  3  1  0  0  0  0
  2  4  1  0  0  0  0
  2  5  1  0  0  0  0
  5  6  2  0  0  0  0
  5  7  1  0  0  0  0
  7  8  1  0  0  0  0
  7  9  1  0  0  0  0
  9 10  1  0  0  0  0
  9 11  1  0  0  0  0
  9 29  1  0  0  0  0
 11 12  1  0  0  0  0
 11 13  1  0  0  0  0
 11 14  1  0  0  0  0
 14 15  2  0  0  0  0
 14 28  1  0  0  0  0
 15 16  1  0  0  0  0
 15 17  1  0  0  0  0
 17 18  1  0  0  0  0
 17 19  1  0  0  0  0
 19 20  1  0  0  0  0
 19 28  2  0  0  0  0
 20 21  1  0  0  0  0
 20 22  2  0  0  0  0
 22 23  1  0  0  0  0
 22 24  1  0  0  0  0
 24 25  1  0  0  0  0
 24 26  2  0  0  0  0
 26 27  1  0  0  0  0
 26 28  1  0  0  0  0
 29 30  2  0  0  0  0
 29 31  1  0  0  0  0
 31 32  1  0  0  0  0
 31 33  1  0  0  0  0
 33 34  1  0  0  0  0
 33 35  1  0  0  0  0
 33 36  1  0  0  0  0
M  END
$$$$

  -OEChem-01062216103D

 36 37  0     1  0  0  0  0  0999 V2000
   -3.5274   -2.7963    0.0298 H   0  0  0  0  0  0  0  0  0  0  0  0
   -3.4280   -2.0040   -0.7175 C   0  0  0  0  0  0  0  0  0  0  0  0
   -4.4212   -1.6183   -0.9587 H   0  0  0  0  0  0  0  0  0  0  0  0
   -2.9777   -2.4280   -1.6183 H   0  0  0  0  0  0  0  0  0  0  0  0
   -2.5530   -0.8885   -0.1775 C   0  0  0  0  0  0  0  0  0  0  0  0
   -2.2893   -0.8576    1.0129 O   0  0  0  0  0  0  0  0  0  0  0  0
   -2.2651    0.2000   -0.9789 N   0  0  0  0  0  0  0  0  0  0  0  0
   -2.6725    0.1362   -1.9067 H   0  0  0  0  0  0  0  0  0  0  0  0
   -1.0190    1.0002   -0.9222 C   0  0  1  0  0  0  0  0  0  0  0  0
   -0.5156    0.9097   -1.8899 H   0  0  0  0  0  0  0  0  0  0  0  0
   -1.4426    2.4709   -0.7374 C   0  0  0  0  0  0  0  0  0  0  0  0
   -2.0916    2.5554    0.1412 H   0  0  0  0  0  0  0  0  0  0  0  0
   -0.5728    3.1141   -0.5750 H   0  0  0  0  0  0  0  0  0  0  0  0
   -2.1586    2.9724   -1.9642 C   0  0  0  0  0  0  0  0  0  0  0  0
   -3.5204    3.0332   -2.1344 C   0  0  0  0  0  0  0  0  0  0  0  0
   -4.2619    2.7494   -1.3900 H   0  0  0  0  0  0  0  0  0  0  0  0
   -3.7621    3.5170   -3.4182 N   0  0  0  0  0  0  0  0  0  0  0  0
   -4.6819    3.6886   -3.8202 H   0  0  0  0  0  0  0  0  0  0  0  0
   -2.5664    3.7614   -4.0753 C   0  0  0  0  0  0  0  0  0  0  0  0
   -2.2909    4.2403   -5.3560 C   0  0  0  0  0  0  0  0  0  0  0  0
   -3.1005    4.4987   -6.0297 H   0  0  0  0  0  0  0  0  0  0  0  0
   -0.9557    4.3815   -5.7601 C   0  0  0  0  0  0  0  0  0  0  0  0
   -0.7266    4.7526   -6.7548 H   0  0  0  0  0  0  0  0  0  0  0  0
    0.0851    4.0437   -4.8815 C   0  0  0  0  0  0  0  0  0  0  0  0
    1.1180    4.1534   -5.1983 H   0  0  0  0  0  0  0  0  0  0  0  0
   -0.2032    3.5658   -3.5950 C   0  0  0  0  0  0  0  0  0  0  0  0
    0.6000    3.3049   -2.9135 H   0  0  0  0  0  0  0  0  0  0  0  0
   -1.5384    3.4299   -3.2002 C   0  0  0  0  0  0  0  0  0  0  0  0
    0.0518    0.5702    0.1209 C   0  0  0  0  0  0  0  0  0  0  0  0
    0.5638   -0.5366   -0.0060 O   0  0  0  0  0  0  0  0  0  0  0  0
    0.7045    1.4822    0.9359 N   0  0  0  0  0  0  0  0  0  0  0  0
    0.2445    2.3750    1.0804 H   0  0  0  0  0  0  0  0  0  0  0  0
    1.7761    1.1017    1.8487 C   0  0  0  0  0  0  0  0  0  0  0  0
    2.6234    0.6851    1.2939 H   0  0  0  0  0  0  0  0  0  0  0  0
    2.1261    1.9763    2.4049 H   0  0  0  0  0  0  0  0  0  0  0  0
    1.4209    0.3534    2.5653 H   0  0  0  0  0  0  0  0  0  0  0  0
  1  2  1  0  0  0  0
  2  3  1  0  0  0  0
  2  4  1  0  0  0  0
  2  5  1  0  0  0  0
  5  6  2  0  0  0  0
  5  7  1  0  0  0  0
  7  8  1  0  0  0  0
  7  9  1  0  0  0  0
  9 10  1  0  0  0  0
  9 11  1  0  0  0  0
  9 29  1  0  0  0  0
 11 12  1  0  0  0  0
 11 13  1  0  0  0  0
 11 14  1  0  0  0  0
 14 15  2  0  0  0  0
 14 28  1  0  0  0  0
 15 16  1  0  0  0  0
 15 17  1  0  0  0  0
 17 18  1  0  0  0  0
 17 19  1  0  0  0  0
 19 20  1  0  0  0  0
 19 28  2  0  0  0  0
 20 21  1  0  0  0  0
 20 22  2  0  0  0  0
 22 23  1  0  0  0  0
 22 24  1  0  0  0  0
 24 25  1  0  0  0  0
 24 26  2  0  0  0  0
 26 27  1  0  0  0  0
 26 28  1  0  0  0  0
 29 30  2  0  0  0  0
 29 31  1  0  0  0  0
 31 32  1  0  0  0  0
 31 33  1  0  0  0  0
 33 34  1  0  0  0  0
 33 35  1  0  0  0  0
 33 36  1  0  0  0  0
M  END
$$$$

  -OEChem-01062216103D

 36 37  0     1  0  0  0  0  0999 V2000
   -3.5629   -2.7877    0.0186 H   0  0  0  0  0  0  0  0  0  0  0  0
   -3.4654   -1.9856   -0.7188 C   0  0  0  0  0  0  0  0  0  0  0  0
   -4.4533   -1.5612   -0.9119 H   0  0  0  0  0  0  0  0  0  0  0  0
   -3.0690   -2.4083   -1.6451 H   0  0  0  0  0  0  0  0  0  0  0  0
   -2.5293   -0.9116   -0.1976 C   0  0  0  0  0  0  0  0  0  0  0  0
   -2.1913   -0.9321    0.9737 O   0  0  0  0  0  0  0  0  0  0  0  0
   -2.2427    0.1811   -0.9938 N   0  0  0  0  0  0  0  0  0  0  0  0
   -2.6754    0.1419   -1.9119 H   0  0  0  0  0  0  0  0  0  0  0  0
   -1.0069    0.9959   -0.9362 C   0  0  1  0  0  0  0  0  0  0  0  0
   -0.5018    0.9099   -1.9037 H   0  0  0  0  0  0  0  0  0  0  0  0
   -1.4354    2.4634   -0.7480 C   0  0  0  0  0  0  0  0  0  0  0  0
   -2.0845    2.5441    0.1305 H   0  0  0  0  0  0  0  0  0  0  0  0
   -0.5634    3.1036   -0.5813 H   0  0  0  0  0  0  0  0  0  0  0  0
   -2.1554    2.9667   -1.9714 C   0  0  0  0  0  0  0  0  0  0  0  0
   -3.5178    3.0241   -2.1395 C   0  0  0  0  0  0  0  0  0  0  0  0
   -4.2575    2.7377   -1.3947 H   0  0  0  0  0  0  0  0  0  0  0  0
   -3.7629    3.5087   -3.4224 N   0  0  0  0  0  0  0  0  0  0  0  0
   -4.6838    3.6807   -3.8218 H   0  0  0  0  0  0  0  0  0  0  0  0
   -2.5686    3.7571   -4.0811 C   0  0  0  0  0  0  0  0  0  0  0  0
   -2.2955    4.2367   -5.3623 C   0  0  0  0  0  0  0  0  0  0  0  0
   -3.1060    4.4901   -6.0368 H   0  0  0  0  0  0  0  0  0  0  0  0
   -0.9609    4.3853   -5.7656 C   0  0  0  0  0  0  0  0  0  0  0  0
   -0.7332    4.7568   -6.7604 H   0  0  0  0  0  0  0  0  0  0  0  0
    0.0817    4.0546   -4.8863 C   0  0  0  0  0  0  0  0  0  0  0  0
    1.1141    4.1708   -5.2023 H   0  0  0  0  0  0  0  0  0  0  0  0
   -0.2042    3.5742   -3.6003 C   0  0  0  0  0  0  0  0  0  0  0  0
    0.5999    3.3176   -2.9180 H   0  0  0  0  0  0  0  0  0  0  0  0
   -1.5386    3.4297   -3.2065 C   0  0  0  0  0  0  0  0  0  0  0  0
    0.0643    0.5791    0.1090 C   0  0  0  0  0  0  0  0  0  0  0  0
    0.7256   -0.4273   -0.1189 O   0  0  0  0  0  0  0  0  0  0  0  0
    0.4866    1.4237    1.1236 N   0  0  0  0  0  0  0  0  0  0  0  0
   -0.1404    2.1840    1.3649 H   0  0  0  0  0  0  0  0  0  0  0  0
    1.5040    1.0372    2.0932 C   0  0  0  0  0  0  0  0  0  0  0  0
    2.4505    0.8151    1.5893 H   0  0  0  0  0  0  0  0  0  0  0  0
    1.6762    1.8508    2.8043 H   0  0  0  0  0  0  0  0  0  0  0  0
    1.1837    0.1501    2.6501 H   0  0  0  0  0  0  0  0  0  0  0  0
  1  2  1  0  0  0  0
  2  3  1  0  0  0  0
  2  4  1  0  0  0  0
  2  5  1  0  0  0  0
  5  6  2  0  0  0  0
  5  7  1  0  0  0  0
  7  8  1  0  0  0  0
  7  9  1  0  0  0  0
  9 10  1  0  0  0  0
  9 11  1  0  0  0  0
  9 29  1  0  0  0  0
 11 12  1  0  0  0  0
 11 13  1  0  0  0  0
 11 14  1  0  0  0  0
 14 15  2  0  0  0  0
 14 28  1  0  0  0  0
 15 16  1  0  0  0  0
 15 17  1  0  0  0  0
 17 18  1  0  0  0  0
 17 19  1  0  0  0  0
 19 20  1  0  0  0  0
 19 28  2  0  0  0  0
 20 21  1  0  0  0  0
 20 22  2  0  0  0  0
 22 23  1  0  0  0  0
 22 24  1  0  0  0  0
 24 25  1  0  0  0  0
 24 26  2  0  0  0  0
 26 27  1  0  0  0  0
 26 28  1  0  0  0  0
 29 30  2  0  0  0  0
 29 31  1  0  0  0  0
 31 32  1  0  0  0  0
 31 33  1  0  0  0  0
 33 34  1  0  0  0  0
 33 35  1  0  0  0  0
 33 36  1  0  0  0  0
M  END
$$$$

  -OEChem-01062216103D

 36 37  0     1  0  0  0  0  0999 V2000
   -3.5957   -2.7888    0.0019 H   0  0  0  0  0  0  0  0  0  0  0  0
   -3.5049   -1.9721   -0.7200 C   0  0  0  0  0  0  0  0  0  0  0  0
   -4.4868   -1.5141   -0.8605 H   0  0  0  0  0  0  0  0  0  0  0  0
   -3.1606   -2.3838   -1.6718 H   0  0  0  0  0  0  0  0  0  0  0  0
   -2.5160   -0.9384   -0.2155 C   0  0  0  0  0  0  0  0  0  0  0  0
   -2.1060   -1.0157    0.9297 O   0  0  0  0  0  0  0  0  0  0  0  0
   -2.2315    0.1611   -1.0032 N   0  0  0  0  0  0  0  0  0  0  0  0
   -2.6927    0.1533   -1.9082 H   0  0  0  0  0  0  0  0  0  0  0  0
   -1.0066    0.9907   -0.9419 C   0  0  1  0  0  0  0  0  0  0  0  0
   -0.5032    0.9114   -1.9110 H   0  0  0  0  0  0  0  0  0  0  0  0
   -1.4434    2.4540   -0.7507 C   0  0  0  0  0  0  0  0  0  0  0  0
   -2.0973    2.5288    0.1243 H   0  0  0  0  0  0  0  0  0  0  0  0
   -0.5730    3.0941   -0.5737 H   0  0  0  0  0  0  0  0  0  0  0  0
   -2.1647    2.9563   -1.9733 C   0  0  0  0  0  0  0  0  0  0  0  0
   -3.5262    3.0095   -2.1504 C   0  0  0  0  0  0  0  0  0  0  0  0
   -4.2709    2.7191   -1.4121 H   0  0  0  0  0  0  0  0  0  0  0  0
   -3.7636    3.4991   -3.4331 N   0  0  0  0  0  0  0  0  0  0  0  0
   -4.6817    3.6723   -3.8381 H   0  0  0  0  0  0  0  0  0  0  0  0
   -2.5656    3.7526   -4.0828 C   0  0  0  0  0  0  0  0  0  0  0  0
   -2.2836    4.2381   -5.3596 C   0  0  0  0  0  0  0  0  0  0  0  0
   -3.0901    4.4943   -6.0378 H   0  0  0  0  0  0  0  0  0  0  0  0
   -0.9460    4.3890   -5.7535 C   0  0  0  0  0  0  0  0  0  0  0  0
   -0.7114    4.7660   -6.7447 H   0  0  0  0  0  0  0  0  0  0  0  0
    0.0908    4.0537   -4.8688 C   0  0  0  0  0  0  0  0  0  0  0  0
    1.1257    4.1711   -5.1762 H   0  0  0  0  0  0  0  0  0  0  0  0
   -0.2041    3.5684   -3.5868 C   0  0  0  0  0  0  0  0  0  0  0  0
    0.5951    3.3090   -2.8996 H   0  0  0  0  0  0  0  0  0  0  0  0
   -1.5414    3.4231   -3.2030 C   0  0  0  0  0  0  0  0  0  0  0  0
    0.0733    0.5952    0.0997 C   0  0  0  0  0  0  0  0  0  0  0  0
    0.8962   -0.2559   -0.2168 O   0  0  0  0  0  0  0  0  0  0  0  0
    0.2667    1.3071    1.2724 N   0  0  0  0  0  0  0  0  0  0  0  0
   -0.5200    1.8688    1.5818 H   0  0  0  0  0  0  0  0  0  0  0  0
    1.2538    0.9079    2.2676 C   0  0  0  0  0  0  0  0  0  0  0  0
    2.2567    0.8899    1.8282 H   0  0  0  0  0  0  0  0  0  0  0  0
    1.2573    1.6159    3.1017 H   0  0  0  0  0  0  0  0  0  0  0  0
    1.0212   -0.0890    2.6568 H   0  0  0  0  0  0  0  0  0  0  0  0
  1  2  1  0  0  0  0
  2  3  1  0  0  0  0
  2  4  1  0  0  0  0
  2  5  1  0  0  0  0
  5  6  2  0  0  0  0
  5  7  1  0  0  0  0
  7  8  1  0  0  0  0
  7  9  1  0  0  0  0
  9 10  1  0  0  0  0
  9 11  1  0  0  0  0
  9 29  1  0  0  0  0
 11 12  1  0  0  0  0
 11 13  1  0  0  0  0
 11 14  1  0  0  0  0
 14 15  2  0  0  0  0
 14 28  1  0  0  0  0
 15 16  1  0  0  0  0
 15 17  1  0  0  0  0
 17 18  1  0  0  0  0
 17 19  1  0  0  0  0
 19 20  1  0  0  0  0
 19 28  2  0  0  0  0
 20 21  1  0  0  0  0
 20 22  2  0  0  0  0
 22 23  1  0  0  0  0
 22 24  1  0  0  0  0
 24 25  1  0  0  0  0
 24 26  2  0  0  0  0
 26 27  1  0  0  0  0
 26 28  1  0  0  0  0
 29 30  2  0  0  0  0
 29 31  1  0  0  0  0
 31 32  1  0  0  0  0
 31 33  1  0  0  0  0
 33 34  1  0  0  0  0
 33 35  1  0  0  0  0
 33 36  1  0  0  0  0
M  END
$$$$

  -OEChem-01062216103D

 36 37  0     1  0  0  0  0  0999 V2000
   -3.6772   -2.7716   -0.0220 H   0  0  0  0  0  0  0  0  0  0  0  0
   -3.5647   -1.9509   -0.7364 C   0  0  0  0  0  0  0  0  0  0  0  0
   -4.5275   -1.4472   -0.8492 H   0  0  0  0  0  0  0  0  0  0  0  0
   -3.2608   -2.3661   -1.7003 H   0  0  0  0  0  0  0  0  0  0  0  0
   -2.5187   -0.9685   -0.2435 C   0  0  0  0  0  0  0  0  0  0  0  0
   -2.0556   -1.1052    0.8751 O   0  0  0  0  0  0  0  0  0  0  0  0
   -2.2173    0.1351   -1.0192 N   0  0  0  0  0  0  0  0  0  0  0  0
   -2.7057    0.1685   -1.9095 H   0  0  0  0  0  0  0  0  0  0  0  0
   -0.9991    0.9738   -0.9465 C   0  0  1  0  0  0  0  0  0  0  0  0
   -0.4922    0.9012   -1.9146 H   0  0  0  0  0  0  0  0  0  0  0  0
   -1.4391    2.4343   -0.7460 C   0  0  0  0  0  0  0  0  0  0  0  0
   -2.0963    2.5035    0.1268 H   0  0  0  0  0  0  0  0  0  0  0  0
   -0.5686    3.0719   -0.5577 H   0  0  0  0  0  0  0  0  0  0  0  0
   -2.1575    2.9444   -1.9675 C   0  0  0  0  0  0  0  0  0  0  0  0
   -3.5190    2.9955   -2.1458 C   0  0  0  0  0  0  0  0  0  0  0  0
   -4.2641    2.7014   -1.4095 H   0  0  0  0  0  0  0  0  0  0  0  0
   -3.7567    3.4886   -3.4269 N   0  0  0  0  0  0  0  0  0  0  0  0
   -4.6746    3.6640   -3.8311 H   0  0  0  0  0  0  0  0  0  0  0  0
   -2.5588    3.7455   -4.0755 C   0  0  0  0  0  0  0  0  0  0  0  0
   -2.2778    4.2330   -5.3520 C   0  0  0  0  0  0  0  0  0  0  0  0
   -3.0845    4.4875   -6.0306 H   0  0  0  0  0  0  0  0  0  0  0  0
   -0.9403    4.3869   -5.7449 C   0  0  0  0  0  0  0  0  0  0  0  0
   -0.7055    4.7640   -6.7360 H   0  0  0  0  0  0  0  0  0  0  0  0
    0.0966    4.0543   -4.8590 C   0  0  0  0  0  0  0  0  0  0  0  0
    1.1316    4.1748   -5.1651 H   0  0  0  0  0  0  0  0  0  0  0  0
   -0.1975    3.5670   -3.5776 C   0  0  0  0  0  0  0  0  0  0  0  0
    0.6018    3.3094   -2.8897 H   0  0  0  0  0  0  0  0  0  0  0  0
   -1.5344    3.4168   -3.1954 C   0  0  0  0  0  0  0  0  0  0  0  0
    0.0799    0.5984    0.1014 C   0  0  0  0  0  0  0  0  0  0  0  0
    1.0621   -0.0323   -0.2709 O   0  0  0  0  0  0  0  0  0  0  0  0
    0.0571    1.1166    1.3853 N   0  0  0  0  0  0  0  0  0  0  0  0
   -0.8596    1.4092    1.7102 H   0  0  0  0  0  0  0  0  0  0  0  0
    1.0358    0.7268    2.3922 C   0  0  0  0  0  0  0  0  0  0  0  0
    2.0500    0.9698    2.0581 H   0  0  0  0  0  0  0  0  0  0  0  0
    0.8458    1.2603    3.3283 H   0  0  0  0  0  0  0  0  0  0  0  0
    0.9762   -0.3493    2.5863 H   0  0  0  0  0  0  0  0  0  0  0  0
  1  2  1  0  0  0  0
  2  3  1  0  0  0  0
  2  4  1  0  0  0  0
  2  5  1  0  0  0  0
  5  6  2  0  0  0  0
  5  7  1  0  0  0  0
  7  8  1  0  0  0  0
  7  9  1  0  0  0  0
  9 10  1  0  0  0  0
  9 11  1  0  0  0  0
  9 29  1  0  0  0  0
 11 12  1  0  0  0  0
 11 13  1  0  0  0  0
 11 14  1  0  0  0  0
 14 15  2  0  0  0  0
 14 28  1  0  0  0  0
 15 16  1  0  0  0  0
 15 17  1  0  0  0  0
 17 18  1  0  0  0  0
 17 19  1  0  0  0  0
 19 20  1  0  0  0  0
 19 28  2  0  0  0  0
 20 21  1  0  0  0  0
 20 22  2  0  0  0  0
 22 23  1  0  0  0  0
 22 24  1  0  0  0  0
 24 25  1  0  0  0  0
 24 26  2  0  0  0  0
 26 27  1  0  0  0  0
 26 28  1  0  0  0  0
 29 30  2  0  0  0  0
 29 31  1  0  0  0  0
 31 32  1  0  0  0  0
 31 33  1  0  0  0  0
 33 34  1  0  0  0  0
 33 35  1  0  0  0  0
 33 36  1  0  0  0  0
M  END
$$$$

  -OEChem-01062216103D

 36 37  0     1  0  0  0  0  0999 V2000
   -3.7792   -2.7651   -0.0639 H   0  0  0  0  0  0  0  0  0  0  0  0
   -3.6501   -1.9337   -0.7631 C   0  0  0  0  0  0  0  0  0  0  0  0
   -4.5931   -1.3868   -0.8385 H   0  0  0  0  0  0  0  0  0  0  0  0
   -3.3904   -2.3391   -1.7444 H   0  0  0  0  0  0  0  0  0  0  0  0
   -2.5501   -1.0084   -0.2771 C   0  0  0  0  0  0  0  0  0  0  0  0
   -2.0536   -1.2013    0.8181 O   0  0  0  0  0  0  0  0  0  0  0  0
   -2.2226    0.0985   -1.0365 N   0  0  0  0  0  0  0  0  0  0  0  0
   -2.7349    0.1777   -1.9107 H   0  0  0  0  0  0  0  0  0  0  0  0
   -1.0065    0.9407   -0.9501 C   0  0  1  0  0  0  0  0  0  0  0  0
   -0.4988    0.8736   -1.9182 H   0  0  0  0  0  0  0  0  0  0  0  0
   -1.4487    2.3982   -0.7382 C   0  0  0  0  0  0  0  0  0  0  0  0
   -2.1076    2.4599    0.1341 H   0  0  0  0  0  0  0  0  0  0  0  0
   -0.5787    3.0335   -0.5400 H   0  0  0  0  0  0  0  0  0  0  0  0
   -2.1624    2.9189   -1.9583 C   0  0  0  0  0  0  0  0  0  0  0  0
   -3.5227    2.9719   -2.1458 C   0  0  0  0  0  0  0  0  0  0  0  0
   -4.2733    2.6751   -1.4162 H   0  0  0  0  0  0  0  0  0  0  0  0
   -3.7510    3.4745   -3.4249 N   0  0  0  0  0  0  0  0  0  0  0  0
   -4.6657    3.6565   -3.8335 H   0  0  0  0  0  0  0  0  0  0  0  0
   -2.5483    3.7359   -4.0629 C   0  0  0  0  0  0  0  0  0  0  0  0
   -2.2569    4.2346   -5.3327 C   0  0  0  0  0  0  0  0  0  0  0  0
   -3.0580    4.4961   -6.0150 H   0  0  0  0  0  0  0  0  0  0  0  0
   -0.9165    4.3922   -5.7138 C   0  0  0  0  0  0  0  0  0  0  0  0
   -0.6737    4.7793   -6.6991 H   0  0  0  0  0  0  0  0  0  0  0  0
    0.1135    4.0505   -4.8237 C   0  0  0  0  0  0  0  0  0  0  0  0
    1.1508    4.1731   -5.1209 H   0  0  0  0  0  0  0  0  0  0  0  0
   -0.1904    3.5510   -3.5495 C   0  0  0  0  0  0  0  0  0  0  0  0
    0.6042    3.2856   -2.8588 H   0  0  0  0  0  0  0  0  0  0  0  0
   -1.5304    3.3993   -3.1783 C   0  0  0  0  0  0  0  0  0  0  0  0
    0.0789    0.5920    0.1000 C   0  0  0  0  0  0  0  0  0  0  0  0
    1.1904    0.2604   -0.2944 O   0  0  0  0  0  0  0  0  0  0  0  0
   -0.1074    0.8638    1.4441 N   0  0  0  0  0  0  0  0  0  0  0  0
   -1.0810    0.8175    1.7366 H   0  0  0  0  0  0  0  0  0  0  0  0
    0.9012    0.5335    2.4427 C   0  0  0  0  0  0  0  0  0  0  0  0
    1.8437    1.0457    2.2227 H   0  0  0  0  0  0  0  0  0  0  0  0
    0.5641    0.8473    3.4352 H   0  0  0  0  0  0  0  0  0  0  0  0
    1.0822   -0.5462    2.4609 H   0  0  0  0  0  0  0  0  0  0  0  0
  1  2  1  0  0  0  0
  2  3  1  0  0  0  0
  2  4  1  0  0  0  0
  2  5  1  0  0  0  0
  5  6  2  0  0  0  0
  5  7  1  0  0  0  0
  7  8  1  0  0  0  0
  7  9  1  0  0  0  0
  9 10  1  0  0  0  0
  9 11  1  0  0  0  0
  9 29  1  0  0  0  0
 11 12  1  0  0  0  0
 11 13  1  0  0  0  0
 11 14  1  0  0  0  0
 14 15  2  0  0  0  0
 14 28  1  0  0  0  0
 15 16  1  0  0  0  0
 15 17  1  0  0  0  0
 17 18  1  0  0  0  0
 17 19  1  0  0  0  0
 19 20  1  0  0  0  0
 19 28  2  0  0  0  0
 20 21  1  0  0  0  0
 20 22  2  0  0  0  0
 22 23  1  0  0  0  0
 22 24  1  0  0  0  0
 24 25  1  0  0  0  0
 24 26  2  0  0  0  0
 26 27  1  0  0  0  0
 26 28  1  0  0  0  0
 29 30  2  0  0  0  0
 29 31  1  0  0  0  0
 31 32  1  0  0  0  0
 31 33  1  0  0  0  0
 33 34  1  0  0  0  0
 33 35  1  0  0  0  0
 33 36  1  0  0  0  0
M  END
$$$$

  -OEChem-01062216103D

 36 37  0     1  0  0  0  0  0999 V2000
   -3.9258   -2.7376   -0.1302 H   0  0  0  0  0  0  0  0  0  0  0  0
   -3.7633   -1.8923   -0.8054 C   0  0  0  0  0  0  0  0  0  0  0  0
   -4.6728   -1.2878   -0.8369 H   0  0  0  0  0  0  0  0  0  0  0  0
   -3.5550   -2.2783   -1.8062 H   0  0  0  0  0  0  0  0  0  0  0  0
   -2.5965   -1.0515   -0.3212 C   0  0  0  0  0  0  0  0  0  0  0  0
   -2.0749   -1.3249    0.7440 O   0  0  0  0  0  0  0  0  0  0  0  0
   -2.2263    0.0576   -1.0568 N   0  0  0  0  0  0  0  0  0  0  0  0
   -2.7658    0.1969   -1.9070 H   0  0  0  0  0  0  0  0  0  0  0  0
   -1.0083    0.8979   -0.9537 C   0  0  1  0  0  0  0  0  0  0  0  0
   -0.4979    0.8385   -1.9211 H   0  0  0  0  0  0  0  0  0  0  0  0
   -1.4621    2.3495   -0.7307 C   0  0  0  0  0  0  0  0  0  0  0  0
   -2.1260    2.3967    0.1387 H   0  0  0  0  0  0  0  0  0  0  0  0
   -0.5990    2.9903   -0.5201 H   0  0  0  0  0  0  0  0  0  0  0  0
   -2.1698    2.8774   -1.9510 C   0  0  0  0  0  0  0  0  0  0  0  0
   -3.5286    2.9240   -2.1510 C   0  0  0  0  0  0  0  0  0  0  0  0
   -4.2843    2.6172   -1.4311 H   0  0  0  0  0  0  0  0  0  0  0  0
   -3.7473    3.4358   -3.4284 N   0  0  0  0  0  0  0  0  0  0  0  0
   -4.6590    3.6172   -3.8438 H   0  0  0  0  0  0  0  0  0  0  0  0
   -2.5399    3.7134   -4.0511 C   0  0  0  0  0  0  0  0  0  0  0  0
   -2.2369    4.2296   -5.3114 C   0  0  0  0  0  0  0  0  0  0  0  0
   -3.0316    4.4946   -6.0000 H   0  0  0  0  0  0  0  0  0  0  0  0
   -0.8934    4.4011   -5.6754 C   0  0  0  0  0  0  0  0  0  0  0  0
   -0.6423    4.8019   -6.6531 H   0  0  0  0  0  0  0  0  0  0  0  0
    0.1287    4.0554   -4.7778 C   0  0  0  0  0  0  0  0  0  0  0  0
    1.1686    4.1885   -5.0614 H   0  0  0  0  0  0  0  0  0  0  0  0
   -0.1865    3.5391   -3.5128 C   0  0  0  0  0  0  0  0  0  0  0  0
    0.6014    3.2710   -2.8151 H   0  0  0  0  0  0  0  0  0  0  0  0
   -1.5295    3.3744   -3.1593 C   0  0  0  0  0  0  0  0  0  0  0  0
    0.0869    0.5830    0.0971 C   0  0  0  0  0  0  0  0  0  0  0  0
    1.2548    0.5602   -0.2727 O   0  0  0  0  0  0  0  0  0  0  0  0
   -0.1844    0.5761    1.4529 N   0  0  0  0  0  0  0  0  0  0  0  0
   -1.1279    0.2503    1.6676 H   0  0  0  0  0  0  0  0  0  0  0  0
    0.8486    0.3077    2.4449 C   0  0  0  0  0  0  0  0  0  0  0  0
    1.6567    1.0425    2.3676 H   0  0  0  0  0  0  0  0  0  0  0  0
    0.4262    0.3680    3.4523 H   0  0  0  0  0  0  0  0  0  0  0  0
    1.2669   -0.6940    2.3006 H   0  0  0  0  0  0  0  0  0  0  0  0
  1  2  1  0  0  0  0
  2  3  1  0  0  0  0
  2  4  1  0  0  0  0
  2  5  1  0  0  0  0
  5  6  2  0  0  0  0
  5  7  1  0  0  0  0
  7  8  1  0  0  0  0
  7  9  1  0  0  0  0
  9 10  1  0  0  0  0
  9 11  1  0  0  0  0
  9 29  1  0  0  0  0
 11 12  1  0  0  0  0
 11 13  1  0  0  0  0
 11 14  1  0  0  0  0
 14 15  2  0  0  0  0
 14 28  1  0  0  0  0
 15 16  1  0  0  0  0
 15 17  1  0  0  0  0
 17 18  1  0  0  0  0
 17 19  1  0  0  0  0
 19 20  1  0  0  0  0
 19 28  2  0  0  0  0
 20 21  1  0  0  0  0
 20 22  2  0  0  0  0
 22 23  1  0  0  0  0
 22 24  1  0  0  0  0
 24 25  1  0  0  0  0
 24 26  2  0  0  0  0
 26 27  1  0  0  0  0
 26 28  1  0  0  0  0
 29 30  2  0  0  0  0
 29 31  1  0  0  0  0
 31 32  1  0  0  0  0
 31 33  1  0  0  0  0
 33 34  1  0  0  0  0
 33 35  1  0  0  0  0
 33 36  1  0  0  0  0
M  END
$$$$

  -OEChem-01062216103D

 36 37  0     1  0  0  0  0  0999 V2000
   -4.0772   -2.6929   -0.2039 H   0  0  0  0  0  0  0  0  0  0  0  0
   -3.8748   -1.8361   -0.8531 C   0  0  0  0  0  0  0  0  0  0  0  0
   -4.7424   -1.1720   -0.8386 H   0  0  0  0  0  0  0  0  0  0  0  0
   -3.7181   -2.1991   -1.8719 H   0  0  0  0  0  0  0  0  0  0  0  0
   -2.6423   -1.0925   -0.3721 C   0  0  0  0  0  0  0  0  0  0  0  0
   -2.0869   -1.4757    0.6399 O   0  0  0  0  0  0  0  0  0  0  0  0
   -2.2308    0.0236   -1.0747 N   0  0  0  0  0  0  0  0  0  0  0  0
   -2.7984    0.2320   -1.8921 H   0  0  0  0  0  0  0  0  0  0  0  0
   -1.0141    0.8658   -0.9490 C   0  0  1  0  0  0  0  0  0  0  0  0
   -0.4986    0.8150   -1.9141 H   0  0  0  0  0  0  0  0  0  0  0  0
   -1.4913    2.3100   -0.7206 C   0  0  0  0  0  0  0  0  0  0  0  0
   -2.1667    2.3401    0.1408 H   0  0  0  0  0  0  0  0  0  0  0  0
   -0.6416    2.9631   -0.4931 H   0  0  0  0  0  0  0  0  0  0  0  0
   -2.1890    2.8404   -1.9458 C   0  0  0  0  0  0  0  0  0  0  0  0
   -3.5449    2.8729   -2.1677 C   0  0  0  0  0  0  0  0  0  0  0  0
   -4.3089    2.5536   -1.4623 H   0  0  0  0  0  0  0  0  0  0  0  0
   -3.7488    3.3907   -3.4451 N   0  0  0  0  0  0  0  0  0  0  0  0
   -4.6555    3.5655   -3.8744 H   0  0  0  0  0  0  0  0  0  0  0  0
   -2.5347    3.6859   -4.0464 C   0  0  0  0  0  0  0  0  0  0  0  0
   -2.2169    4.2142   -5.2980 C   0  0  0  0  0  0  0  0  0  0  0  0
   -3.0028    4.4775   -5.9971 H   0  0  0  0  0  0  0  0  0  0  0  0
   -0.8693    4.3996   -5.6392 C   0  0  0  0  0  0  0  0  0  0  0  0
   -0.6064    4.8093   -6.6099 H   0  0  0  0  0  0  0  0  0  0  0  0
    0.1420    4.0566   -4.7281 C   0  0  0  0  0  0  0  0  0  0  0  0
    1.1850    4.1999   -4.9945 H   0  0  0  0  0  0  0  0  0  0  0  0
   -0.1884    3.5301   -3.4715 C   0  0  0  0  0  0  0  0  0  0  0  0
    0.5901    3.2640   -2.7623 H   0  0  0  0  0  0  0  0  0  0  0  0
   -1.5353    3.3514   -3.1407 C   0  0  0  0  0  0  0  0  0  0  0  0
    0.0954    0.5897    0.1007 C   0  0  0  0  0  0  0  0  0  0  0  0
    1.2539    0.8283   -0.2200 O   0  0  0  0  0  0  0  0  0  0  0  0
   -0.1693    0.2901    1.4231 N   0  0  0  0  0  0  0  0  0  0  0  0
   -1.0647   -0.1818    1.5663 H   0  0  0  0  0  0  0  0  0  0  0  0
    0.8866    0.0305    2.3934 C   0  0  0  0  0  0  0  0  0  0  0  0
    1.5498    0.8974    2.4821 H   0  0  0  0  0  0  0  0  0  0  0  0
    0.4517   -0.1708    3.3771 H   0  0  0  0  0  0  0  0  0  0  0  0
    1.4800   -0.8384    2.0902 H   0  0  0  0  0  0  0  0  0  0  0  0
  1  2  1  0  0  0  0
  2  3  1  0  0  0  0
  2  4  1  0  0  0  0
  2  5  1  0  0  0  0
  5  6  2  0  0  0  0
  5  7  1  0  0  0  0
  7  8  1  0  0  0  0
  7  9  1  0  0  0  0
  9 10  1  0  0  0  0
  9 11  1  0  0  0  0
  9 29  1  0  0  0  0
 11 12  1  0  0  0  0
 11 13  1  0  0  0  0
 11 14  1  0  0  0  0
 14 15  2  0  0  0  0
 14 28  1  0  0  0  0
 15 16  1  0  0  0  0
 15 17  1  0  0  0  0
 17 18  1  0  0  0  0
 17 19  1  0  0  0  0
 19 20  1  0  0  0  0
 19 28  2  0  0  0  0
 20 21  1  0  0  0  0
 20 22  2  0  0  0  0
 22 23  1  0  0  0  0
 22 24  1  0  0  0  0
 24 25  1  0  0  0  0
 24 26  2  0  0  0  0
 26 27  1  0  0  0  0
 26 28  1  0  0  0  0
 29 30  2  0  0  0  0
 29 31  1  0  0  0  0
 31 32  1  0  0  0  0
 31 33  1  0  0  0  0
 33 34  1  0  0  0  0
 33 35  1  0  0  0  0
 33 36  1  0  0  0  0
M  END
$$$$

  -OEChem-01062216103D

 36 37  0     1  0  0  0  0  0999 V2000
   -4.2110   -2.6441   -0.2628 H   0  0  0  0  0  0  0  0  0  0  0  0
   -3.9717   -1.7813   -0.8914 C   0  0  0  0  0  0  0  0  0  0  0  0
   -4.8007   -1.0712   -0.8422 H   0  0  0  0  0  0  0  0  0  0  0  0
   -3.8520   -2.1221   -1.9228 H   0  0  0  0  0  0  0  0  0  0  0  0
   -2.6917   -1.1215   -0.4119 C   0  0  0  0  0  0  0  0  0  0  0  0
   -2.1216   -1.5948    0.5518 O   0  0  0  0  0  0  0  0  0  0  0  0
   -2.2449    0.0002   -1.0838 N   0  0  0  0  0  0  0  0  0  0  0  0
   -2.8298    0.2618   -1.8731 H   0  0  0  0  0  0  0  0  0  0  0  0
   -1.0256    0.8387   -0.9406 C   0  0  1  0  0  0  0  0  0  0  0  0
   -0.5074    0.7928   -1.9044 H   0  0  0  0  0  0  0  0  0  0  0  0
   -1.5187    2.2797   -0.7114 C   0  0  0  0  0  0  0  0  0  0  0  0
   -2.2037    2.2993    0.1424 H   0  0  0  0  0  0  0  0  0  0  0  0
   -0.6801    2.9425   -0.4703 H   0  0  0  0  0  0  0  0  0  0  0  0
   -2.2064    2.8135   -1.9415 C   0  0  0  0  0  0  0  0  0  0  0  0
   -3.5596    2.8389   -2.1817 C   0  0  0  0  0  0  0  0  0  0  0  0
   -4.3314    2.5157   -1.4865 H   0  0  0  0  0  0  0  0  0  0  0  0
   -3.7494    3.3604   -3.4599 N   0  0  0  0  0  0  0  0  0  0  0  0
   -4.6512    3.5360   -3.8994 H   0  0  0  0  0  0  0  0  0  0  0  0
   -2.5290    3.6633   -4.0443 C   0  0  0  0  0  0  0  0  0  0  0  0
   -2.1970    4.1973   -5.2898 C   0  0  0  0  0  0  0  0  0  0  0  0
   -2.9750    4.4575   -5.9990 H   0  0  0  0  0  0  0  0  0  0  0  0
   -0.8459    4.3927   -5.6111 C   0  0  0  0  0  0  0  0  0  0  0  0
   -0.5722    4.8084   -6.5762 H   0  0  0  0  0  0  0  0  0  0  0  0
    0.1546    4.0517   -4.6872 C   0  0  0  0  0  0  0  0  0  0  0  0
    1.2004    4.2029   -4.9374 H   0  0  0  0  0  0  0  0  0  0  0  0
   -0.1900    3.5173   -3.4375 C   0  0  0  0  0  0  0  0  0  0  0  0
    0.5796    3.2528   -2.7175 H   0  0  0  0  0  0  0  0  0  0  0  0
   -1.5403    3.3307   -3.1264 C   0  0  0  0  0  0  0  0  0  0  0  0
    0.0975    0.5851    0.1046 C   0  0  0  0  0  0  0  0  0  0  0  0
    1.2115    1.0277   -0.1521 O   0  0  0  0  0  0  0  0  0  0  0  0
   -0.0912    0.0085    1.3447 N   0  0  0  0  0  0  0  0  0  0  0  0
   -0.9472   -0.5420    1.4389 H   0  0  0  0  0  0  0  0  0  0  0  0
    0.9990   -0.2623    2.2731 C   0  0  0  0  0  0  0  0  0  0  0  0
    1.5248    0.6635    2.5294 H   0  0  0  0  0  0  0  0  0  0  0  0
    0.6062   -0.7013    3.1952 H   0  0  0  0  0  0  0  0  0  0  0  0
    1.7137   -0.9637    1.8306 H   0  0  0  0  0  0  0  0  0  0  0  0
  1  2  1  0  0  0  0
  2  3  1  0  0  0  0
  2  4  1  0  0  0  0
  2  5  1  0  0  0  0
  5  6  2  0  0  0  0
  5  7  1  0  0  0  0
  7  8  1  0  0  0  0
  7  9  1  0  0  0  0
  9 10  1  0  0  0  0
  9 11  1  0  0  0  0
  9 29  1  0  0  0  0
 11 12  1  0  0  0  0
 11 13  1  0  0  0  0
 11 14  1  0  0  0  0
 14 15  2  0  0  0  0
 14 28  1  0  0  0  0
 15 16  1  0  0  0  0
 15 17  1  0  0  0  0
 17 18  1  0  0  0  0
 17 19  1  0  0  0  0
 19 20  1  0  0  0  0
 19 28  2  0  0  0  0
 20 21  1  0  0  0  0
 20 22  2  0  0  0  0
 22 23  1  0  0  0  0
 22 24  1  0  0  0  0
 24 25  1  0  0  0  0
 24 26  2  0  0  0  0
 26 27  1  0  0  0  0
 26 28  1  0  0  0  0
 29 30  2  0  0  0  0
 29 31  1  0  0  0  0
 31 32  1  0  0  0  0
 31 33  1  0  0  0  0
 33 34  1  0  0  0  0
 33 35  1  0  0  0  0
 33 36  1  0  0  0  0
M  END
$$$$

  -OEChem-01062216103D

 36 37  0     1  0  0  0  0  0999 V2000
   -4.1998   -2.6490   -0.2622 H   0  0  0  0  0  0  0  0  0  0  0  0
   -3.9780   -1.7557   -0.8537 C   0  0  0  0  0  0  0  0  0  0  0  0
   -4.8113   -1.0554   -0.7581 H   0  0  0  0  0  0  0  0  0  0  0  0
   -3.8737   -2.0477   -1.9016 H   0  0  0  0  0  0  0  0  0  0  0  0
   -2.6955   -1.1073   -0.3661 C   0  0  0  0  0  0  0  0  0  0  0  0
   -2.1382   -1.5888    0.6004 O   0  0  0  0  0  0  0  0  0  0  0  0
   -2.2356    0.0067   -1.0424 N   0  0  0  0  0  0  0  0  0  0  0  0
   -2.8226    0.2677   -1.8305 H   0  0  0  0  0  0  0  0  0  0  0  0
   -1.0204    0.8552   -0.9096 C   0  0  1  0  0  0  0  0  0  0  0  0
   -0.5010    0.7956   -1.8718 H   0  0  0  0  0  0  0  0  0  0  0  0
   -1.5471    2.2923   -0.7171 C   0  0  0  0  0  0  0  0  0  0  0  0
   -2.2410    2.3161    0.1297 H   0  0  0  0  0  0  0  0  0  0  0  0
   -0.7292    2.9826   -0.4847 H   0  0  0  0  0  0  0  0  0  0  0  0
   -2.2337    2.7798   -1.9672 C   0  0  0  0  0  0  0  0  0  0  0  0
   -3.5851    2.7674   -2.2184 C   0  0  0  0  0  0  0  0  0  0  0  0
   -4.3554    2.4482   -1.5198 H   0  0  0  0  0  0  0  0  0  0  0  0
   -3.7758    3.2401   -3.5150 N   0  0  0  0  0  0  0  0  0  0  0  0
   -4.6774    3.3806   -3.9669 H   0  0  0  0  0  0  0  0  0  0  0  0
   -2.5575    3.5493   -4.1003 C   0  0  0  0  0  0  0  0  0  0  0  0
   -2.2282    4.0432   -5.3628 C   0  0  0  0  0  0  0  0  0  0  0  0
   -3.0061    4.2564   -6.0875 H   0  0  0  0  0  0  0  0  0  0  0  0
   -0.8795    4.2587   -5.6814 C   0  0  0  0  0  0  0  0  0  0  0  0
   -0.6079    4.6427   -6.6603 H   0  0  0  0  0  0  0  0  0  0  0  0
    0.1210    3.9797   -4.7371 C   0  0  0  0  0  0  0  0  0  0  0  0
    1.1646    4.1482   -4.9853 H   0  0  0  0  0  0  0  0  0  0  0  0
   -0.2211    3.4847   -3.4705 C   0  0  0  0  0  0  0  0  0  0  0  0
    0.5487    3.2682   -2.7349 H   0  0  0  0  0  0  0  0  0  0  0  0
   -1.5690    3.2740   -3.1633 C   0  0  0  0  0  0  0  0  0  0  0  0
    0.1166    0.6457    0.1347 C   0  0  0  0  0  0  0  0  0  0  0  0
    1.1647    1.2537   -0.0540 O   0  0  0  0  0  0  0  0  0  0  0  0
    0.0507   -0.1471    1.2620 N   0  0  0  0  0  0  0  0  0  0  0  0
   -0.7690   -0.7516    1.3400 H   0  0  0  0  0  0  0  0  0  0  0  0
    1.1744   -0.3834    2.1591 C   0  0  0  0  0  0  0  0  0  0  0  0
    1.5411    0.5616    2.5733 H   0  0  0  0  0  0  0  0  0  0  0  0
    0.8635   -1.0253    2.9889 H   0  0  0  0  0  0  0  0  0  0  0  0
    1.9928   -0.8777    1.6255 H   0  0  0  0  0  0  0  0  0  0  0  0
  1  2  1  0  0  0  0
  2  3  1  0  0  0  0
  2  4  1  0  0  0  0
  2  5  1  0  0  0  0
  5  6  2  0  0  0  0
  5  7  1  0  0  0  0
  7  8  1  0  0  0  0
  7  9  1  0  0  0  0
  9 10  1  0  0  0  0
  9 11  1  0  0  0  0
  9 29  1  0  0  0  0
 11 12  1  0  0  0  0
 11 13  1  0  0  0  0
 11 14  1  0  0  0  0
 14 15  2  0  0  0  0
 14 28  1  0  0  0  0
 15 16  1  0  0  0  0
 15 17  1  0  0  0  0
 17 18  1  0  0  0  0
 17 19  1  0  0  0  0
 19 20  1  0  0  0  0
 19 28  2  0  0  0  0
 20 21  1  0  0  0  0
 20 22  2  0  0  0  0
 22 23  1  0  0  0  0
 22 24  1  0  0  0  0
 24 25  1  0  0  0  0
 24 26  2  0  0  0  0
 26 27  1  0  0  0  0
 26 28  1  0  0  0  0
 29 30  2  0  0  0  0
 29 31  1  0  0  0  0
 31 32  1  0  0  0  0
 31 33  1  0  0  0  0
 33 34  1  0  0  0  0
 33 35  1  0  0  0  0
 33 36  1  0  0  0  0
M  END
$$$$

  -OEChem-01062216103D

 36 37  0     1  0  0  0  0  0999 V2000
   -3.8446   -2.5563    0.1984 H   0  0  0  0  0  0  0  0  0  0  0  0
   -3.6216   -1.7662   -0.5245 C   0  0  0  0  0  0  0  0  0  0  0  0
   -4.5354   -1.1993   -0.7186 H   0  0  0  0  0  0  0  0  0  0  0  0
   -3.2814   -2.2282   -1.4546 H   0  0  0  0  0  0  0  0  0  0  0  0
   -2.5456   -0.8462    0.0216 C   0  0  0  0  0  0  0  0  0  0  0  0
   -2.2051   -0.9766    1.1796 O   0  0  0  0  0  0  0  0  0  0  0  0
   -2.1448    0.2237   -0.7514 N   0  0  0  0  0  0  0  0  0  0  0  0
   -2.6667    0.2989   -1.6202 H   0  0  0  0  0  0  0  0  0  0  0  0
   -0.9159    1.0606   -0.7408 C   0  0  1  0  0  0  0  0  0  0  0  0
   -0.4578    0.9416   -1.7272 H   0  0  0  0  0  0  0  0  0  0  0  0
   -1.4535    2.5064   -0.6211 C   0  0  0  0  0  0  0  0  0  0  0  0
   -2.1045    2.5794    0.2566 H   0  0  0  0  0  0  0  0  0  0  0  0
   -0.6444    3.2299   -0.4816 H   0  0  0  0  0  0  0  0  0  0  0  0
   -2.2074    2.8970   -1.8680 C   0  0  0  0  0  0  0  0  0  0  0  0
   -3.5690    2.8508   -2.0475 C   0  0  0  0  0  0  0  0  0  0  0  0
   -4.2955    2.5681   -1.2882 H   0  0  0  0  0  0  0  0  0  0  0  0
   -3.8331    3.2324   -3.3616 N   0  0  0  0  0  0  0  0  0  0  0  0
   -4.7597    3.3357   -3.7709 H   0  0  0  0  0  0  0  0  0  0  0  0
   -2.6512    3.5178   -4.0285 C   0  0  0  0  0  0  0  0  0  0  0  0
   -2.3923    3.9328   -5.3353 C   0  0  0  0  0  0  0  0  0  0  0  0
   -3.2082    4.0888   -6.0322 H   0  0  0  0  0  0  0  0  0  0  0  0
   -1.0646    4.1464   -5.7341 C   0  0  0  0  0  0  0  0  0  0  0  0
   -0.8481    4.4714   -6.7476 H   0  0  0  0  0  0  0  0  0  0  0  0
   -0.0146    3.9450   -4.8246 C   0  0  0  0  0  0  0  0  0  0  0  0
    1.0124    4.1151   -5.1340 H   0  0  0  0  0  0  0  0  0  0  0  0
   -0.2860    3.5294   -3.5134 C   0  0  0  0  0  0  0  0  0  0  0  0
    0.5207    3.3773   -2.8023 H   0  0  0  0  0  0  0  0  0  0  0  0
   -1.6128    3.3188   -3.1267 C   0  0  0  0  0  0  0  0  0  0  0  0
    0.2997    0.8879    0.2321 C   0  0  0  0  0  0  0  0  0  0  0  0
    1.1706    1.7460    0.2563 O   0  0  0  0  0  0  0  0  0  0  0  0
    0.5158   -0.0193    1.2401 N   0  0  0  0  0  0  0  0  0  0  0  0
    1.2301    0.3295    1.8728 H   0  0  0  0  0  0  0  0  0  0  0  0
    0.6481   -1.4346    0.9157 C   0  0  0  0  0  0  0  0  0  0  0  0
    0.2099   -2.0456    1.7113 H   0  0  0  0  0  0  0  0  0  0  0  0
    0.1478   -1.6813   -0.0259 H   0  0  0  0  0  0  0  0  0  0  0  0
    1.7058   -1.6975    0.8166 H   0  0  0  0  0  0  0  0  0  0  0  0
  1  2  1  0  0  0  0
  2  3  1  0  0  0  0
  2  4  1  0  0  0  0
  2  5  1  0  0  0  0
  5  6  2  0  0  0  0
  5  7  1  0  0  0  0
  7  8  1  0  0  0  0
  7  9  1  0  0  0  0
  9 10  1  0  0  0  0
  9 11  1  0  0  0  0
  9 29  1  0  0  0  0
 11 12  1  0  0  0  0
 11 13  1  0  0  0  0
 11 14  1  0  0  0  0
 14 15  2  0  0  0  0
 14 28  1  0  0  0  0
 15 16  1  0  0  0  0
 15 17  1  0  0  0  0
 17 18  1  0  0  0  0
 17 19  1  0  0  0  0
 19 20  1  0  0  0  0
 19 28  2  0  0  0  0
 20 21  1  0  0  0  0
 20 22  2  0  0  0  0
 22 23  1  0  0  0  0
 22 24  1  0  0  0  0
 24 25  1  0  0  0  0
 24 26  2  0  0  0  0
 26 27  1  0  0  0  0
 26 28  1  0  0  0  0
 29 30  2  0  0  0  0
 29 31  1  0  0  0  0
 31 32  1  0  0  0  0
 31 33  1  0  0  0  0
 33 34  1  0  0  0  0
 33 35  1  0  0  0  0
 33 36  1  0  0  0  0
M  END
$$$$

  -OEChem-01062216103D

 36 37  0     1  0  0  0  0  0999 V2000
   -4.1406   -2.5451   -0.0619 H   0  0  0  0  0  0  0  0  0  0  0  0
   -3.9076   -1.6873   -0.6995 C   0  0  0  0  0  0  0  0  0  0  0  0
   -4.6653   -0.9167   -0.5407 H   0  0  0  0  0  0  0  0  0  0  0  0
   -3.9369   -2.0099   -1.7430 H   0  0  0  0  0  0  0  0  0  0  0  0
   -2.5314   -1.1414   -0.3644 C   0  0  0  0  0  0  0  0  0  0  0  0
   -1.9096   -1.6757    0.5277 O   0  0  0  0  0  0  0  0  0  0  0  0
   -2.0952   -0.0310   -1.0598 N   0  0  0  0  0  0  0  0  0  0  0  0
   -2.7662    0.2917   -1.7513 H   0  0  0  0  0  0  0  0  0  0  0  0
   -0.7971    0.6904   -1.1260 C   0  0  1  0  0  0  0  0  0  0  0  0
   -0.4847    0.6461   -2.1743 H   0  0  0  0  0  0  0  0  0  0  0  0
   -1.1450    2.1526   -0.7719 C   0  0  0  0  0  0  0  0  0  0  0  0
   -1.6656    2.1795    0.1910 H   0  0  0  0  0  0  0  0  0  0  0  0
   -0.2412    2.7618   -0.6663 H   0  0  0  0  0  0  0  0  0  0  0  0
   -2.0034    2.7731   -1.8447 C   0  0  0  0  0  0  0  0  0  0  0  0
   -3.3731    2.8890   -1.8370 C   0  0  0  0  0  0  0  0  0  0  0  0
   -4.0291    2.5854   -1.0238 H   0  0  0  0  0  0  0  0  0  0  0  0
   -3.7526    3.4660   -3.0473 N   0  0  0  0  0  0  0  0  0  0  0  0
   -4.7051    3.7085   -3.3136 H   0  0  0  0  0  0  0  0  0  0  0  0
   -2.6383    3.7156   -3.8338 C   0  0  0  0  0  0  0  0  0  0  0  0
   -2.4989    4.2708   -5.1060 C   0  0  0  0  0  0  0  0  0  0  0  0
   -3.3719    4.6009   -5.6580 H   0  0  0  0  0  0  0  0  0  0  0  0
   -1.2166    4.3952   -5.6603 C   0  0  0  0  0  0  0  0  0  0  0  0
   -1.0932    4.8261   -6.6495 H   0  0  0  0  0  0  0  0  0  0  0  0
   -0.0920    3.9644   -4.9389 C   0  0  0  0  0  0  0  0  0  0  0  0
    0.8999    4.0615   -5.3700 H   0  0  0  0  0  0  0  0  0  0  0  0
   -0.2431    3.4100   -3.6598 C   0  0  0  0  0  0  0  0  0  0  0  0
    0.6229    3.0764   -3.0948 H   0  0  0  0  0  0  0  0  0  0  0  0
   -1.5260    3.2928   -3.1164 C   0  0  0  0  0  0  0  0  0  0  0  0
    0.5089    0.3286   -0.3505 C   0  0  0  0  0  0  0  0  0  0  0  0
    1.5276    0.9314   -0.6594 O   0  0  0  0  0  0  0  0  0  0  0  0
    0.8384   -0.8272    0.3105 N   0  0  0  0  0  0  0  0  0  0  0  0
    1.8048   -1.0602    0.1017 H   0  0  0  0  0  0  0  0  0  0  0  0
    0.5679   -0.8615    1.7434 C   0  0  0  0  0  0  0  0  0  0  0  0
   -0.3097   -0.2587    2.0007 H   0  0  0  0  0  0  0  0  0  0  0  0
    0.3839   -1.8911    2.0658 H   0  0  0  0  0  0  0  0  0  0  0  0
    1.4261   -0.4689    2.2978 H   0  0  0  0  0  0  0  0  0  0  0  0
  1  2  1  0  0  0  0
  2  3  1  0  0  0  0
  2  4  1  0  0  0  0
  2  5  1  0  0  0  0
  5  6  2  0  0  0  0
  5  7  1  0  0  0  0
  7  8  1  0  0  0  0
  7  9  1  0  0  0  0
  9 10  1  0  0  0  0
  9 11  1  0  0  0  0
  9 29  1  0  0  0  0
 11 12  1  0  0  0  0
 11 13  1  0  0  0  0
 11 14  1  0  0  0  0
 14 15  2  0  0  0  0
 14 28  1  0  0  0  0
 15 16  1  0  0  0  0
 15 17  1  0  0  0  0
 17 18  1  0  0  0  0
 17 19  1  0  0  0  0
 19 20  1  0  0  0  0
 19 28  2  0  0  0  0
 20 21  1  0  0  0  0
 20 22  2  0  0  0  0
 22 23  1  0  0  0  0
 22 24  1  0  0  0  0
 24 25  1  0  0  0  0
 24 26  2  0  0  0  0
 26 27  1  0  0  0  0
 26 28  1  0  0  0  0
 29 30  2  0  0  0  0
 29 31  1  0  0  0  0
 31 32  1  0  0  0  0
 31 33  1  0  0  0  0
 33 34  1  0  0  0  0
 33 35  1  0  0  0  0
 33 36  1  0  0  0  0
M  END
$$$$

  -OEChem-01062216103D

 36 37  0     1  0  0  0  0  0999 V2000
   -4.2484   -2.5468   -0.2265 H   0  0  0  0  0  0  0  0  0  0  0  0
   -3.9901   -1.6866   -0.8511 C   0  0  0  0  0  0  0  0  0  0  0  0
   -4.7849   -0.9416   -0.7664 H   0  0  0  0  0  0  0  0  0  0  0  0
   -3.9179   -2.0168   -1.8903 H   0  0  0  0  0  0  0  0  0  0  0  0
   -2.6687   -1.0904   -0.4026 C   0  0  0  0  0  0  0  0  0  0  0  0
   -2.0865   -1.6079    0.5305 O   0  0  0  0  0  0  0  0  0  0  0  0
   -2.2081    0.0368   -1.0553 N   0  0  0  0  0  0  0  0  0  0  0  0
   -2.8200    0.3484   -1.8052 H   0  0  0  0  0  0  0  0  0  0  0  0
   -0.9519    0.8272   -0.9513 C   0  0  1  0  0  0  0  0  0  0  0  0
   -0.4703    0.7837   -1.9331 H   0  0  0  0  0  0  0  0  0  0  0  0
   -1.4333    2.2777   -0.7054 C   0  0  0  0  0  0  0  0  0  0  0  0
   -2.0914    2.3004    0.1694 H   0  0  0  0  0  0  0  0  0  0  0  0
   -0.5964    2.9517   -0.4970 H   0  0  0  0  0  0  0  0  0  0  0  0
   -2.1520    2.8113   -1.9191 C   0  0  0  0  0  0  0  0  0  0  0  0
   -3.5116    2.8392   -2.1192 C   0  0  0  0  0  0  0  0  0  0  0  0
   -4.2632    2.5234   -1.3987 H   0  0  0  0  0  0  0  0  0  0  0  0
   -3.7380    3.3491   -3.3959 N   0  0  0  0  0  0  0  0  0  0  0  0
   -4.6522    3.5260   -3.8082 H   0  0  0  0  0  0  0  0  0  0  0  0
   -2.5348    3.6456   -4.0179 C   0  0  0  0  0  0  0  0  0  0  0  0
   -2.2390    4.1696   -5.2765 C   0  0  0  0  0  0  0  0  0  0  0  0
   -3.0369    4.4251   -5.9650 H   0  0  0  0  0  0  0  0  0  0  0  0
   -0.8975    4.3622   -5.6382 C   0  0  0  0  0  0  0  0  0  0  0  0
   -0.6517    4.7709   -6.6140 H   0  0  0  0  0  0  0  0  0  0  0  0
    0.1292    4.0304   -4.7401 C   0  0  0  0  0  0  0  0  0  0  0  0
    1.1670    4.1822   -5.0213 H   0  0  0  0  0  0  0  0  0  0  0  0
   -0.1795    3.5071   -3.4767 C   0  0  0  0  0  0  0  0  0  0  0  0
    0.6096    3.2536   -2.7746 H   0  0  0  0  0  0  0  0  0  0  0  0
   -1.5201    3.3201   -3.1263 C   0  0  0  0  0  0  0  0  0  0  0  0
    0.2073    0.4719    0.0357 C   0  0  0  0  0  0  0  0  0  0  0  0
    1.0217    1.3360    0.3421 O   0  0  0  0  0  0  0  0  0  0  0  0
    0.4970   -0.8148    0.4458 N   0  0  0  0  0  0  0  0  0  0  0  0
   -0.2851   -1.4691    0.3837 H   0  0  0  0  0  0  0  0  0  0  0  0
    1.5720   -1.1357    1.3769 C   0  0  0  0  0  0  0  0  0  0  0  0
    1.4160   -0.6262    2.3335 H   0  0  0  0  0  0  0  0  0  0  0  0
    1.6019   -2.2143    1.5584 H   0  0  0  0  0  0  0  0  0  0  0  0
    2.5398   -0.8292    0.9665 H   0  0  0  0  0  0  0  0  0  0  0  0
  1  2  1  0  0  0  0
  2  3  1  0  0  0  0
  2  4  1  0  0  0  0
  2  5  1  0  0  0  0
  5  6  2  0  0  0  0
  5  7  1  0  0  0  0
  7  8  1  0  0  0  0
  7  9  1  0  0  0  0
  9 10  1  0  0  0  0
  9 11  1  0  0  0  0
  9 29  1  0  0  0  0
 11 12  1  0  0  0  0
 11 13  1  0  0  0  0
 11 14  1  0  0  0  0
 14 15  2  0  0  0  0
 14 28  1  0  0  0  0
 15 16  1  0  0  0  0
 15 17  1  0  0  0  0
 17 18  1  0  0  0  0
 17 19  1  0  0  0  0
 19 20  1  0  0  0  0
 19 28  2  0  0  0  0
 20 21  1  0  0  0  0
 20 22  2  0  0  0  0
 22 23  1  0  0  0  0
 22 24  1  0  0  0  0
 24 25  1  0  0  0  0
 24 26  2  0  0  0  0
 26 27  1  0  0  0  0
 26 28  1  0  0  0  0
 29 30  2  0  0  0  0
 29 31  1  0  0  0  0
 31 32  1  0  0  0  0
 31 33  1  0  0  0  0
 33 34  1  0  0  0  0
 33 35  1  0  0  0  0
 33 36  1  0  0  0  0
M  END
$$$$

  -OEChem-01062216103D

 36 37  0     1  0  0  0  0  0999 V2000
   -4.1501   -2.5537   -0.1192 H   0  0  0  0  0  0  0  0  0  0  0  0
   -3.9363   -1.6856   -0.7496 C   0  0  0  0  0  0  0  0  0  0  0  0
   -4.7169   -0.9377   -0.5908 H   0  0  0  0  0  0  0  0  0  0  0  0
   -3.9483   -1.9999   -1.7962 H   0  0  0  0  0  0  0  0  0  0  0  0
   -2.5795   -1.1035   -0.3980 C   0  0  0  0  0  0  0  0  0  0  0  0
   -1.9066   -1.6634    0.4459 O   0  0  0  0  0  0  0  0  0  0  0  0
   -2.1633    0.0364   -1.0591 N   0  0  0  0  0  0  0  0  0  0  0  0
   -2.8202    0.3718   -1.7586 H   0  0  0  0  0  0  0  0  0  0  0  0
   -0.9246    0.8512   -0.9544 C   0  0  1  0  0  0  0  0  0  0  0  0
   -0.4343    0.8128   -1.9319 H   0  0  0  0  0  0  0  0  0  0  0  0
   -1.4151    2.2992   -0.7149 C   0  0  0  0  0  0  0  0  0  0  0  0
   -2.0720    2.3224    0.1606 H   0  0  0  0  0  0  0  0  0  0  0  0
   -0.5794    2.9763   -0.5119 H   0  0  0  0  0  0  0  0  0  0  0  0
   -2.1367    2.8253   -1.9302 C   0  0  0  0  0  0  0  0  0  0  0  0
   -3.4971    2.8432   -2.1269 C   0  0  0  0  0  0  0  0  0  0  0  0
   -4.2449    2.5266   -1.4028 H   0  0  0  0  0  0  0  0  0  0  0  0
   -3.7308    3.3457   -3.4050 N   0  0  0  0  0  0  0  0  0  0  0  0
   -4.6473    3.5144   -3.8158 H   0  0  0  0  0  0  0  0  0  0  0  0
   -2.5315    3.6472   -4.0318 C   0  0  0  0  0  0  0  0  0  0  0  0
   -2.2450    4.1652   -5.2950 C   0  0  0  0  0  0  0  0  0  0  0  0
   -3.0478    4.4087   -5.9820 H   0  0  0  0  0  0  0  0  0  0  0  0
   -0.9069    4.3677   -5.6630 C   0  0  0  0  0  0  0  0  0  0  0  0
   -0.6683    4.7707   -6.6429 H   0  0  0  0  0  0  0  0  0  0  0  0
    0.1257    4.0533   -4.7656 C   0  0  0  0  0  0  0  0  0  0  0  0
    1.1611    4.2141   -5.0516 H   0  0  0  0  0  0  0  0  0  0  0  0
   -0.1738    3.5358   -3.4972 C   0  0  0  0  0  0  0  0  0  0  0  0
    0.6208    3.2976   -2.7965 H   0  0  0  0  0  0  0  0  0  0  0  0
   -1.5112    3.3356   -3.1411 C   0  0  0  0  0  0  0  0  0  0  0  0
    0.2165    0.4772    0.0448 C   0  0  0  0  0  0  0  0  0  0  0  0
    0.8726    1.3547    0.5958 O   0  0  0  0  0  0  0  0  0  0  0  0
    0.6671   -0.8225    0.1824 N   0  0  0  0  0  0  0  0  0  0  0  0
   -0.0545   -1.5234    0.0042 H   0  0  0  0  0  0  0  0  0  0  0  0
    1.7302   -1.1909    1.1099 C   0  0  0  0  0  0  0  0  0  0  0  0
    1.4440   -0.9448    2.1377 H   0  0  0  0  0  0  0  0  0  0  0  0
    1.9236   -2.2661    1.0511 H   0  0  0  0  0  0  0  0  0  0  0  0
    2.6569   -0.6615    0.8649 H   0  0  0  0  0  0  0  0  0  0  0  0
  1  2  1  0  0  0  0
  2  3  1  0  0  0  0
  2  4  1  0  0  0  0
  2  5  1  0  0  0  0
  5  6  2  0  0  0  0
  5  7  1  0  0  0  0
  7  8  1  0  0  0  0
  7  9  1  0  0  0  0
  9 10  1  0  0  0  0
  9 11  1  0  0  0  0
  9 29  1  0  0  0  0
 11 12  1  0  0  0  0
 11 13  1  0  0  0  0
 11 14  1  0  0  0  0
 14 15  2  0  0  0  0
 14 28  1  0  0  0  0
 15 16  1  0  0  0  0
 15 17  1  0  0  0  0
 17 18  1  0  0  0  0
 17 19  1  0  0  0  0
 19 20  1  0  0  0  0
 19 28  2  0  0  0  0
 20 21  1  0  0  0  0
 20 22  2  0  0  0  0
 22 23  1  0  0  0  0
 22 24  1  0  0  0  0
 24 25  1  0  0  0  0
 24 26  2  0  0  0  0
 26 27  1  0  0  0  0
 26 28  1  0  0  0  0
 29 30  2  0  0  0  0
 29 31  1  0  0  0  0
 31 32  1  0  0  0  0
 31 33  1  0  0  0  0
 33 34  1  0  0  0  0
 33 35  1  0  0  0  0
 33 36  1  0  0  0  0
M  END
$$$$

  -OEChem-01062216103D

 36 37  0     1  0  0  0  0  0999 V2000
   -4.0500   -2.5319    0.0252 H   0  0  0  0  0  0  0  0  0  0  0  0
   -3.8675   -1.6859   -0.6439 C   0  0  0  0  0  0  0  0  0  0  0  0
   -4.6224   -0.9199   -0.4519 H   0  0  0  0  0  0  0  0  0  0  0  0
   -3.9576   -2.0279   -1.6778 H   0  0  0  0  0  0  0  0  0  0  0  0
   -2.4809   -1.1188   -0.4056 C   0  0  0  0  0  0  0  0  0  0  0  0
   -1.7229   -1.7148    0.3358 O   0  0  0  0  0  0  0  0  0  0  0  0
   -2.1115    0.0256   -1.0858 N   0  0  0  0  0  0  0  0  0  0  0  0
   -2.8181    0.3869   -1.7205 H   0  0  0  0  0  0  0  0  0  0  0  0
   -0.8940    0.8663   -0.9763 C   0  0  1  0  0  0  0  0  0  0  0  0
   -0.3888    0.8391   -1.9468 H   0  0  0  0  0  0  0  0  0  0  0  0
   -1.3974    2.3076   -0.7351 C   0  0  0  0  0  0  0  0  0  0  0  0
   -2.0547    2.3254    0.1407 H   0  0  0  0  0  0  0  0  0  0  0  0
   -0.5617    2.9850   -0.5308 H   0  0  0  0  0  0  0  0  0  0  0  0
   -2.1230    2.8283   -1.9503 C   0  0  0  0  0  0  0  0  0  0  0  0
   -3.4839    2.8319   -2.1449 C   0  0  0  0  0  0  0  0  0  0  0  0
   -4.2276    2.5064   -1.4205 H   0  0  0  0  0  0  0  0  0  0  0  0
   -3.7253    3.3324   -3.4224 N   0  0  0  0  0  0  0  0  0  0  0  0
   -4.6442    3.4888   -3.8326 H   0  0  0  0  0  0  0  0  0  0  0  0
   -2.5306    3.6509   -4.0493 C   0  0  0  0  0  0  0  0  0  0  0  0
   -2.2530    4.1777   -5.3108 C   0  0  0  0  0  0  0  0  0  0  0  0
   -3.0602    4.4122   -5.9961 H   0  0  0  0  0  0  0  0  0  0  0  0
   -0.9185    4.4006   -5.6793 C   0  0  0  0  0  0  0  0  0  0  0  0
   -0.6873    4.8111   -6.6578 H   0  0  0  0  0  0  0  0  0  0  0  0
    0.1194    4.0974   -4.7841 C   0  0  0  0  0  0  0  0  0  0  0  0
    1.1518    4.2747   -5.0704 H   0  0  0  0  0  0  0  0  0  0  0  0
   -0.1713    3.5704   -3.5176 C   0  0  0  0  0  0  0  0  0  0  0  0
    0.6268    3.3407   -2.8184 H   0  0  0  0  0  0  0  0  0  0  0  0
   -1.5052    3.3499   -3.1606 C   0  0  0  0  0  0  0  0  0  0  0  0
    0.2162    0.4811    0.0484 C   0  0  0  0  0  0  0  0  0  0  0  0
    0.6692    1.3077    0.8335 O   0  0  0  0  0  0  0  0  0  0  0  0
    0.8535   -0.7429   -0.0435 N   0  0  0  0  0  0  0  0  0  0  0  0
    0.2481   -1.4792   -0.4054 H   0  0  0  0  0  0  0  0  0  0  0  0
    1.8829   -1.1523    0.9040 C   0  0  0  0  0  0  0  0  0  0  0  0
    1.4777   -1.1775    1.9209 H   0  0  0  0  0  0  0  0  0  0  0  0
    2.2500   -2.1518    0.6519 H   0  0  0  0  0  0  0  0  0  0  0  0
    2.7294   -0.4581    0.8774 H   0  0  0  0  0  0  0  0  0  0  0  0
  1  2  1  0  0  0  0
  2  3  1  0  0  0  0
  2  4  1  0  0  0  0
  2  5  1  0  0  0  0
  5  6  2  0  0  0  0
  5  7  1  0  0  0  0
  7  8  1  0  0  0  0
  7  9  1  0  0  0  0
  9 10  1  0  0  0  0
  9 11  1  0  0  0  0
  9 29  1  0  0  0  0
 11 12  1  0  0  0  0
 11 13  1  0  0  0  0
 11 14  1  0  0  0  0
 14 15  2  0  0  0  0
 14 28  1  0  0  0  0
 15 16  1  0  0  0  0
 15 17  1  0  0  0  0
 17 18  1  0  0  0  0
 17 19  1  0  0  0  0
 19 20  1  0  0  0  0
 19 28  2  0  0  0  0
 20 21  1  0  0  0  0
 20 22  2  0  0  0  0
 22 23  1  0  0  0  0
 22 24  1  0  0  0  0
 24 25  1  0  0  0  0
 24 26  2  0  0  0  0
 26 27  1  0  0  0  0
 26 28  1  0  0  0  0
 29 30  2  0  0  0  0
 29 31  1  0  0  0  0
 31 32  1  0  0  0  0
 31 33  1  0  0  0  0
 33 34  1  0  0  0  0
 33 35  1  0  0  0  0
 33 36  1  0  0  0  0
M  END
$$$$

  -OEChem-01062216103D

 36 37  0     1  0  0  0  0  0999 V2000
   -3.9218   -2.5814    0.0920 H   0  0  0  0  0  0  0  0  0  0  0  0
   -3.7995   -1.7154   -0.5649 C   0  0  0  0  0  0  0  0  0  0  0  0
   -4.5525   -0.9688   -0.3020 H   0  0  0  0  0  0  0  0  0  0  0  0
   -3.9541   -2.0331   -1.5988 H   0  0  0  0  0  0  0  0  0  0  0  0
   -2.4089   -1.1302   -0.4045 C   0  0  0  0  0  0  0  0  0  0  0  0
   -1.5963   -1.7246    0.2791 O   0  0  0  0  0  0  0  0  0  0  0  0
   -2.0842    0.0145   -1.1082 N   0  0  0  0  0  0  0  0  0  0  0  0
   -2.8259    0.3818   -1.6971 H   0  0  0  0  0  0  0  0  0  0  0  0
   -0.8849    0.8777   -0.9973 C   0  0  1  0  0  0  0  0  0  0  0  0
   -0.3698    0.8582   -1.9626 H   0  0  0  0  0  0  0  0  0  0  0  0
   -1.3894    2.3158   -0.7536 C   0  0  0  0  0  0  0  0  0  0  0  0
   -2.0464    2.3304    0.1226 H   0  0  0  0  0  0  0  0  0  0  0  0
   -0.5504    2.9877   -0.5433 H   0  0  0  0  0  0  0  0  0  0  0  0
   -2.1184    2.8383   -1.9652 C   0  0  0  0  0  0  0  0  0  0  0  0
   -3.4794    2.8413   -2.1574 C   0  0  0  0  0  0  0  0  0  0  0  0
   -4.2214    2.5121   -1.4331 H   0  0  0  0  0  0  0  0  0  0  0  0
   -3.7231    3.3490   -3.4316 N   0  0  0  0  0  0  0  0  0  0  0  0
   -4.6431    3.5069   -3.8391 H   0  0  0  0  0  0  0  0  0  0  0  0
   -2.5296    3.6695   -4.0601 C   0  0  0  0  0  0  0  0  0  0  0  0
   -2.2534    4.2011   -5.3200 C   0  0  0  0  0  0  0  0  0  0  0  0
   -3.0616    4.4407   -6.0023 H   0  0  0  0  0  0  0  0  0  0  0  0
   -0.9190    4.4220   -5.6910 C   0  0  0  0  0  0  0  0  0  0  0  0
   -0.6892    4.8366   -6.6683 H   0  0  0  0  0  0  0  0  0  0  0  0
    0.1202    4.1107   -4.8004 C   0  0  0  0  0  0  0  0  0  0  0  0
    1.1523    4.2855   -5.0889 H   0  0  0  0  0  0  0  0  0  0  0  0
   -0.1691    3.5793   -3.5357 C   0  0  0  0  0  0  0  0  0  0  0  0
    0.6303    3.3425   -2.8407 H   0  0  0  0  0  0  0  0  0  0  0  0
   -1.5028    3.3627   -3.1753 C   0  0  0  0  0  0  0  0  0  0  0  0
    0.2024    0.4935    0.0463 C   0  0  0  0  0  0  0  0  0  0  0  0
    0.4397    1.2103    1.0134 O   0  0  0  0  0  0  0  0  0  0  0  0
    1.0473   -0.5707   -0.2135 N   0  0  0  0  0  0  0  0  0  0  0  0
    0.6404   -1.2818   -0.8157 H   0  0  0  0  0  0  0  0  0  0  0  0
    2.0438   -1.0138    0.7533 C   0  0  0  0  0  0  0  0  0  0  0  0
    1.5586   -1.3318    1.6822 H   0  0  0  0  0  0  0  0  0  0  0  0
    2.6104   -1.8582    0.3497 H   0  0  0  0  0  0  0  0  0  0  0  0
    2.7470   -0.2057    0.9805 H   0  0  0  0  0  0  0  0  0  0  0  0
  1  2  1  0  0  0  0
  2  3  1  0  0  0  0
  2  4  1  0  0  0  0
  2  5  1  0  0  0  0
  5  6  2  0  0  0  0
  5  7  1  0  0  0  0
  7  8  1  0  0  0  0
  7  9  1  0  0  0  0
  9 10  1  0  0  0  0
  9 11  1  0  0  0  0
  9 29  1  0  0  0  0
 11 12  1  0  0  0  0
 11 13  1  0  0  0  0
 11 14  1  0  0  0  0
 14 15  2  0  0  0  0
 14 28  1  0  0  0  0
 15 16  1  0  0  0  0
 15 17  1  0  0  0  0
 17 18  1  0  0  0  0
 17 19  1  0  0  0  0
 19 20  1  0  0  0  0
 19 28  2  0  0  0  0
 20 21  1  0  0  0  0
 20 22  2  0  0  0  0
 22 23  1  0  0  0  0
 22 24  1  0  0  0  0
 24 25  1  0  0  0  0
 24 26  2  0  0  0  0
 26 27  1  0  0  0  0
 26 28  1  0  0  0  0
 29 30  2  0  0  0  0
 29 31  1  0  0  0  0
 31 32  1  0  0  0  0
 31 33  1  0  0  0  0
 33 34  1  0  0  0  0
 33 35  1  0  0  0  0
 33 36  1  0  0  0  0
M  END
$$$$

  -OEChem-01062216103D

 36 37  0     1  0  0  0  0  0999 V2000
   -3.8760   -2.5656    0.1770 H   0  0  0  0  0  0  0  0  0  0  0  0
   -3.7704   -1.7179   -0.5063 C   0  0  0  0  0  0  0  0  0  0  0  0
   -4.5028   -0.9549   -0.2320 H   0  0  0  0  0  0  0  0  0  0  0  0
   -3.9709   -2.0591   -1.5248 H   0  0  0  0  0  0  0  0  0  0  0  0
   -2.3675   -1.1465   -0.4171 C   0  0  0  0  0  0  0  0  0  0  0  0
   -1.5202   -1.7552    0.2104 O   0  0  0  0  0  0  0  0  0  0  0  0
   -2.0675   -0.0048   -1.1365 N   0  0  0  0  0  0  0  0  0  0  0  0
   -2.8355    0.3753   -1.6814 H   0  0  0  0  0  0  0  0  0  0  0  0
   -0.8798    0.8713   -1.0201 C   0  0  1  0  0  0  0  0  0  0  0  0
   -0.3592    0.8585   -1.9824 H   0  0  0  0  0  0  0  0  0  0  0  0
   -1.3884    2.3053   -0.7696 C   0  0  0  0  0  0  0  0  0  0  0  0
   -2.0489    2.3123    0.1041 H   0  0  0  0  0  0  0  0  0  0  0  0
   -0.5493    2.9739   -0.5499 H   0  0  0  0  0  0  0  0  0  0  0  0
   -2.1186    2.8322   -1.9780 C   0  0  0  0  0  0  0  0  0  0  0  0
   -3.4793    2.8333   -2.1723 C   0  0  0  0  0  0  0  0  0  0  0  0
   -4.2220    2.4982   -1.4513 H   0  0  0  0  0  0  0  0  0  0  0  0
   -3.7215    3.3456   -3.4450 N   0  0  0  0  0  0  0  0  0  0  0  0
   -4.6408    3.4989   -3.8555 H   0  0  0  0  0  0  0  0  0  0  0  0
   -2.5278    3.6741   -4.0685 C   0  0  0  0  0  0  0  0  0  0  0  0
   -2.2508    4.2131   -5.3249 C   0  0  0  0  0  0  0  0  0  0  0  0
   -3.0581    4.4502   -6.0089 H   0  0  0  0  0  0  0  0  0  0  0  0
   -0.9167    4.4455   -5.6897 C   0  0  0  0  0  0  0  0  0  0  0  0
   -0.6859    4.8660   -6.6640 H   0  0  0  0  0  0  0  0  0  0  0  0
    0.1216    4.1386   -4.7963 C   0  0  0  0  0  0  0  0  0  0  0  0
    1.1537    4.3232   -5.0797 H   0  0  0  0  0  0  0  0  0  0  0  0
   -0.1686    3.5981   -3.5355 C   0  0  0  0  0  0  0  0  0  0  0  0
    0.6301    3.3661   -2.8381 H   0  0  0  0  0  0  0  0  0  0  0  0
   -1.5020    3.3687   -3.1822 C   0  0  0  0  0  0  0  0  0  0  0  0
    0.1917    0.4950    0.0391 C   0  0  0  0  0  0  0  0  0  0  0  0
    0.2313    1.0607    1.1273 O   0  0  0  0  0  0  0  0  0  0  0  0
    1.2342   -0.3421   -0.3174 N   0  0  0  0  0  0  0  0  0  0  0  0
    1.0507   -0.9427   -1.1157 H   0  0  0  0  0  0  0  0  0  0  0  0
    2.2246   -0.7936    0.6521 C   0  0  0  0  0  0  0  0  0  0  0  0
    1.7402   -1.3534    1.4592 H   0  0  0  0  0  0  0  0  0  0  0  0
    2.9573   -1.4455    0.1671 H   0  0  0  0  0  0  0  0  0  0  0  0
    2.7570    0.0598    1.0850 H   0  0  0  0  0  0  0  0  0  0  0  0
  1  2  1  0  0  0  0
  2  3  1  0  0  0  0
  2  4  1  0  0  0  0
  2  5  1  0  0  0  0
  5  6  2  0  0  0  0
  5  7  1  0  0  0  0
  7  8  1  0  0  0  0
  7  9  1  0  0  0  0
  9 10  1  0  0  0  0
  9 11  1  0  0  0  0
  9 29  1  0  0  0  0
 11 12  1  0  0  0  0
 11 13  1  0  0  0  0
 11 14  1  0  0  0  0
 14 15  2  0  0  0  0
 14 28  1  0  0  0  0
 15 16  1  0  0  0  0
 15 17  1  0  0  0  0
 17 18  1  0  0  0  0
 17 19  1  0  0  0  0
 19 20  1  0  0  0  0
 19 28  2  0  0  0  0
 20 21  1  0  0  0  0
 20 22  2  0  0  0  0
 22 23  1  0  0  0  0
 22 24  1  0  0  0  0
 24 25  1  0  0  0  0
 24 26  2  0  0  0  0
 26 27  1  0  0  0  0
 26 28  1  0  0  0  0
 29 30  2  0  0  0  0
 29 31  1  0  0  0  0
 31 32  1  0  0  0  0
 31 33  1  0  0  0  0
 33 34  1  0  0  0  0
 33 35  1  0  0  0  0
 33 36  1  0  0  0  0
M  END
$$$$

  -OEChem-01062216103D

 36 37  0     1  0  0  0  0  0999 V2000
   -3.8545   -2.5693    0.2167 H   0  0  0  0  0  0  0  0  0  0  0  0
   -3.7672   -1.7221   -0.4695 C   0  0  0  0  0  0  0  0  0  0  0  0
   -4.4759   -0.9495   -0.1624 H   0  0  0  0  0  0  0  0  0  0  0  0
   -4.0171   -2.0580   -1.4788 H   0  0  0  0  0  0  0  0  0  0  0  0
   -2.3533   -1.1718   -0.4399 C   0  0  0  0  0  0  0  0  0  0  0  0
   -1.4830   -1.8064    0.1285 O   0  0  0  0  0  0  0  0  0  0  0  0
   -2.0663   -0.0308   -1.1661 N   0  0  0  0  0  0  0  0  0  0  0  0
   -2.8524    0.3666   -1.6705 H   0  0  0  0  0  0  0  0  0  0  0  0
   -0.8855    0.8516   -1.0388 C   0  0  1  0  0  0  0  0  0  0  0  0
   -0.3609    0.8448   -1.9987 H   0  0  0  0  0  0  0  0  0  0  0  0
   -1.3938    2.2831   -0.7791 C   0  0  0  0  0  0  0  0  0  0  0  0
   -2.0588    2.2828    0.0912 H   0  0  0  0  0  0  0  0  0  0  0  0
   -0.5545    2.9473   -0.5471 H   0  0  0  0  0  0  0  0  0  0  0  0
   -2.1205    2.8208   -1.9846 C   0  0  0  0  0  0  0  0  0  0  0  0
   -3.4806    2.8253   -2.1837 C   0  0  0  0  0  0  0  0  0  0  0  0
   -4.2269    2.4840   -1.4692 H   0  0  0  0  0  0  0  0  0  0  0  0
   -3.7178    3.3496   -3.4525 N   0  0  0  0  0  0  0  0  0  0  0  0
   -4.6356    3.5045   -3.8661 H   0  0  0  0  0  0  0  0  0  0  0  0
   -2.5216    3.6819   -4.0689 C   0  0  0  0  0  0  0  0  0  0  0  0
   -2.2401    4.2301   -5.3203 C   0  0  0  0  0  0  0  0  0  0  0  0
   -3.0456    4.4719   -6.0048 H   0  0  0  0  0  0  0  0  0  0  0  0
   -0.9047    4.4648   -5.6790 C   0  0  0  0  0  0  0  0  0  0  0  0
   -0.6708    4.8932   -6.6493 H   0  0  0  0  0  0  0  0  0  0  0  0
    0.1305    4.1497   -4.7850 C   0  0  0  0  0  0  0  0  0  0  0  0
    1.1633    4.3362   -5.0637 H   0  0  0  0  0  0  0  0  0  0  0  0
   -0.1641    3.5986   -3.5299 C   0  0  0  0  0  0  0  0  0  0  0  0
    0.6326    3.3585   -2.8331 H   0  0  0  0  0  0  0  0  0  0  0  0
   -1.4989    3.3676   -3.1818 C   0  0  0  0  0  0  0  0  0  0  0  0
    0.1765    0.4844    0.0311 C   0  0  0  0  0  0  0  0  0  0  0  0
    0.0598    0.8803    1.1866 O   0  0  0  0  0  0  0  0  0  0  0  0
    1.3788   -0.0765   -0.3633 N   0  0  0  0  0  0  0  0  0  0  0  0
    1.3809   -0.5248   -1.2742 H   0  0  0  0  0  0  0  0  0  0  0  0
    2.3985   -0.4782    0.5977 C   0  0  0  0  0  0  0  0  0  0  0  0
    1.9970   -1.2265    1.2894 H   0  0  0  0  0  0  0  0  0  0  0  0
    3.2580   -0.9113    0.0775 H   0  0  0  0  0  0  0  0  0  0  0  0
    2.7451    0.3855    1.1747 H   0  0  0  0  0  0  0  0  0  0  0  0
  1  2  1  0  0  0  0
  2  3  1  0  0  0  0
  2  4  1  0  0  0  0
  2  5  1  0  0  0  0
  5  6  2  0  0  0  0
  5  7  1  0  0  0  0
  7  8  1  0  0  0  0
  7  9  1  0  0  0  0
  9 10  1  0  0  0  0
  9 11  1  0  0  0  0
  9 29  1  0  0  0  0
 11 12  1  0  0  0  0
 11 13  1  0  0  0  0
 11 14  1  0  0  0  0
 14 15  2  0  0  0  0
 14 28  1  0  0  0  0
 15 16  1  0  0  0  0
 15 17  1  0  0  0  0
 17 18  1  0  0  0  0
 17 19  1  0  0  0  0
 19 20  1  0  0  0  0
 19 28  2  0  0  0  0
 20 21  1  0  0  0  0
 20 22  2  0  0  0  0
 22 23  1  0  0  0  0
 22 24  1  0  0  0  0
 24 25  1  0  0  0  0
 24 26  2  0  0  0  0
 26 27  1  0  0  0  0
 26 28  1  0  0  0  0
 29 30  2  0  0  0  0
 29 31  1  0  0  0  0
 31 32  1  0  0  0  0
 31 33  1  0  0  0  0
 33 34  1  0  0  0  0
 33 35  1  0  0  0  0
 33 36  1  0  0  0  0
M  END
$$$$

  -OEChem-01062216103D

 36 37  0     1  0  0  0  0  0999 V2000
   -3.8342   -2.6016    0.2213 H   0  0  0  0  0  0  0  0  0  0  0  0
   -3.7705   -1.7285   -0.4346 C   0  0  0  0  0  0  0  0  0  0  0  0
   -4.4461   -0.9577   -0.0566 H   0  0  0  0  0  0  0  0  0  0  0  0
   -4.0828   -2.0196   -1.4403 H   0  0  0  0  0  0  0  0  0  0  0  0
   -2.3477   -1.2025   -0.4654 C   0  0  0  0  0  0  0  0  0  0  0  0
   -1.4589   -1.8720    0.0301 O   0  0  0  0  0  0  0  0  0  0  0  0
   -2.0707   -0.0614   -1.1950 N   0  0  0  0  0  0  0  0  0  0  0  0
   -2.8734    0.3559   -1.6545 H   0  0  0  0  0  0  0  0  0  0  0  0
   -0.8936    0.8241   -1.0573 C   0  0  1  0  0  0  0  0  0  0  0  0
   -0.3668    0.8196   -2.0159 H   0  0  0  0  0  0  0  0  0  0  0  0
   -1.3987    2.2540   -0.7887 C   0  0  0  0  0  0  0  0  0  0  0  0
   -2.0671    2.2476    0.0790 H   0  0  0  0  0  0  0  0  0  0  0  0
   -0.5588    2.9146   -0.5479 H   0  0  0  0  0  0  0  0  0  0  0  0
   -2.1210    2.8029   -1.9916 C   0  0  0  0  0  0  0  0  0  0  0  0
   -3.4805    2.8135   -2.1952 C   0  0  0  0  0  0  0  0  0  0  0  0
   -4.2300    2.4666   -1.4871 H   0  0  0  0  0  0  0  0  0  0  0  0
   -3.7121    3.3553   -3.4577 N   0  0  0  0  0  0  0  0  0  0  0  0
   -4.6282    3.5178   -3.8722 H   0  0  0  0  0  0  0  0  0  0  0  0
   -2.5129    3.6910   -4.0667 C   0  0  0  0  0  0  0  0  0  0  0  0
   -2.2251    4.2558   -5.3096 C   0  0  0  0  0  0  0  0  0  0  0  0
   -3.0269    4.5137   -5.9926 H   0  0  0  0  0  0  0  0  0  0  0  0
   -0.8875    4.4866   -5.6625 C   0  0  0  0  0  0  0  0  0  0  0  0
   -0.6487    4.9273   -6.6261 H   0  0  0  0  0  0  0  0  0  0  0  0
    0.1437    4.1515   -4.7712 C   0  0  0  0  0  0  0  0  0  0  0  0
    1.1783    4.3336   -5.0465 H   0  0  0  0  0  0  0  0  0  0  0  0
   -0.1571    3.5865   -3.5237 C   0  0  0  0  0  0  0  0  0  0  0  0
    0.6365    3.3328   -2.8284 H   0  0  0  0  0  0  0  0  0  0  0  0
   -1.4941    3.3599   -3.1813 C   0  0  0  0  0  0  0  0  0  0  0  0
    0.1642    0.4655    0.0182 C   0  0  0  0  0  0  0  0  0  0  0  0
   -0.0657    0.6838    1.2034 O   0  0  0  0  0  0  0  0  0  0  0  0
    1.4700    0.2094   -0.3638 N   0  0  0  0  0  0  0  0  0  0  0  0
    1.6127   -0.0605   -1.3319 H   0  0  0  0  0  0  0  0  0  0  0  0
    2.5178   -0.1037    0.6000 C   0  0  0  0  0  0  0  0  0  0  0  0
    2.2526   -0.9970    1.1754 H   0  0  0  0  0  0  0  0  0  0  0  0
    3.4634   -0.2915    0.0824 H   0  0  0  0  0  0  0  0  0  0  0  0
    2.6645    0.7313    1.2931 H   0  0  0  0  0  0  0  0  0  0  0  0
  1  2  1  0  0  0  0
  2  3  1  0  0  0  0
  2  4  1  0  0  0  0
  2  5  1  0  0  0  0
  5  6  2  0  0  0  0
  5  7  1  0  0  0  0
  7  8  1  0  0  0  0
  7  9  1  0  0  0  0
  9 10  1  0  0  0  0
  9 11  1  0  0  0  0
  9 29  1  0  0  0  0
 11 12  1  0  0  0  0
 11 13  1  0  0  0  0
 11 14  1  0  0  0  0
 14 15  2  0  0  0  0
 14 28  1  0  0  0  0
 15 16  1  0  0  0  0
 15 17  1  0  0  0  0
 17 18  1  0  0  0  0
 17 19  1  0  0  0  0
 19 20  1  0  0  0  0
 19 28  2  0  0  0  0
 20 21  1  0  0  0  0
 20 22  2  0  0  0  0
 22 23  1  0  0  0  0
 22 24  1  0  0  0  0
 24 25  1  0  0  0  0
 24 26  2  0  0  0  0
 26 27  1  0  0  0  0
 26 28  1  0  0  0  0
 29 30  2  0  0  0  0
 29 31  1  0  0  0  0
 31 32  1  0  0  0  0
 31 33  1  0  0  0  0
 33 34  1  0  0  0  0
 33 35  1  0  0  0  0
 33 36  1  0  0  0  0
M  END
$$$$

  -OEChem-01062216103D

 36 37  0     1  0  0  0  0  0999 V2000
   -3.8370   -2.6016    0.2353 H   0  0  0  0  0  0  0  0  0  0  0  0
   -3.7804   -1.7124   -0.3994 C   0  0  0  0  0  0  0  0  0  0  0  0
   -4.4053   -0.9302    0.0377 H   0  0  0  0  0  0  0  0  0  0  0  0
   -4.1595   -1.9631   -1.3928 H   0  0  0  0  0  0  0  0  0  0  0  0
   -2.3441   -1.2341   -0.4983 C   0  0  0  0  0  0  0  0  0  0  0  0
   -1.4502   -1.9487   -0.0803 O   0  0  0  0  0  0  0  0  0  0  0  0
   -2.0643   -0.0977   -1.2336 N   0  0  0  0  0  0  0  0  0  0  0  0
   -2.8764    0.3429   -1.6526 H   0  0  0  0  0  0  0  0  0  0  0  0
   -0.8855    0.7837   -1.0853 C   0  0  1  0  0  0  0  0  0  0  0  0
   -0.3534    0.7794   -2.0408 H   0  0  0  0  0  0  0  0  0  0  0  0
   -1.3906    2.2111   -0.8049 C   0  0  0  0  0  0  0  0  0  0  0  0
   -2.0604    2.1964    0.0619 H   0  0  0  0  0  0  0  0  0  0  0  0
   -0.5514    2.8691   -0.5549 H   0  0  0  0  0  0  0  0  0  0  0  0
   -2.1105    2.7759   -2.0015 C   0  0  0  0  0  0  0  0  0  0  0  0
   -3.4700    2.7896   -2.2034 C   0  0  0  0  0  0  0  0  0  0  0  0
   -4.2194    2.4320   -1.5005 H   0  0  0  0  0  0  0  0  0  0  0  0
   -3.7029    3.3516   -3.4564 N   0  0  0  0  0  0  0  0  0  0  0  0
   -4.6193    3.5200   -3.8676 H   0  0  0  0  0  0  0  0  0  0  0  0
   -2.5047    3.6972   -4.0610 C   0  0  0  0  0  0  0  0  0  0  0  0
   -2.2208    4.2801   -5.2960 C   0  0  0  0  0  0  0  0  0  0  0  0
   -3.0247    4.5445   -5.9743 H   0  0  0  0  0  0  0  0  0  0  0  0
   -0.8845    4.5192   -5.6470 C   0  0  0  0  0  0  0  0  0  0  0  0
   -0.6488    4.9736   -6.6049 H   0  0  0  0  0  0  0  0  0  0  0  0
    0.1487    4.1749   -4.7617 C   0  0  0  0  0  0  0  0  0  0  0  0
    1.1821    4.3643   -5.0360 H   0  0  0  0  0  0  0  0  0  0  0  0
   -0.1487    3.5905   -3.5221 C   0  0  0  0  0  0  0  0  0  0  0  0
    0.6463    3.3286   -2.8316 H   0  0  0  0  0  0  0  0  0  0  0  0
   -1.4844    3.3541   -3.1818 C   0  0  0  0  0  0  0  0  0  0  0  0
    0.1634    0.4328    0.0009 C   0  0  0  0  0  0  0  0  0  0  0  0
   -0.1474    0.4779    1.1867 O   0  0  0  0  0  0  0  0  0  0  0  0
    1.5104    0.4816   -0.3163 N   0  0  0  0  0  0  0  0  0  0  0  0
    1.7526    0.4010   -1.2988 H   0  0  0  0  0  0  0  0  0  0  0  0
    2.5606    0.2819    0.6753 C   0  0  0  0  0  0  0  0  0  0  0  0
    2.4566   -0.6994    1.1504 H   0  0  0  0  0  0  0  0  0  0  0  0
    3.5443    0.3346    0.1992 H   0  0  0  0  0  0  0  0  0  0  0  0
    2.5108    1.0552    1.4490 H   0  0  0  0  0  0  0  0  0  0  0  0
  1  2  1  0  0  0  0
  2  3  1  0  0  0  0
  2  4  1  0  0  0  0
  2  5  1  0  0  0  0
  5  6  2  0  0  0  0
  5  7  1  0  0  0  0
  7  8  1  0  0  0  0
  7  9  1  0  0  0  0
  9 10  1  0  0  0  0
  9 11  1  0  0  0  0
  9 29  1  0  0  0  0
 11 12  1  0  0  0  0
 11 13  1  0  0  0  0
 11 14  1  0  0  0  0
 14 15  2  0  0  0  0
 14 28  1  0  0  0  0
 15 16  1  0  0  0  0
 15 17  1  0  0  0  0
 17 18  1  0  0  0  0
 17 19  1  0  0  0  0
 19 20  1  0  0  0  0
 19 28  2  0  0  0  0
 20 21  1  0  0  0  0
 20 22  2  0  0  0  0
 22 23  1  0  0  0  0
 22 24  1  0  0  0  0
 24 25  1  0  0  0  0
 24 26  2  0  0  0  0
 26 27  1  0  0  0  0
 26 28  1  0  0  0  0
 29 30  2  0  0  0  0
 29 31  1  0  0  0  0
 31 32  1  0  0  0  0
 31 33  1  0  0  0  0
 33 34  1  0  0  0  0
 33 35  1  0  0  0  0
 33 36  1  0  0  0  0
M  END
$$$$

  -OEChem-01062216103D

 36 37  0     1  0  0  0  0  0999 V2000
   -3.8307   -2.5582    0.3136 H   0  0  0  0  0  0  0  0  0  0  0  0
   -3.7804   -1.6989   -0.3611 C   0  0  0  0  0  0  0  0  0  0  0  0
   -4.3661   -0.8831    0.0687 H   0  0  0  0  0  0  0  0  0  0  0  0
   -4.2087   -1.9812   -1.3258 H   0  0  0  0  0  0  0  0  0  0  0  0
   -2.3381   -1.2643   -0.5406 C   0  0  0  0  0  0  0  0  0  0  0  0
   -1.4429   -2.0298   -0.2280 O   0  0  0  0  0  0  0  0  0  0  0  0
   -2.0614   -0.1240   -1.2701 N   0  0  0  0  0  0  0  0  0  0  0  0
   -2.8834    0.3406   -1.6400 H   0  0  0  0  0  0  0  0  0  0  0  0
   -0.8807    0.7536   -1.1093 C   0  0  1  0  0  0  0  0  0  0  0  0
   -0.3472    0.7578   -2.0641 H   0  0  0  0  0  0  0  0  0  0  0  0
   -1.3886    2.1766   -0.8108 C   0  0  0  0  0  0  0  0  0  0  0  0
   -2.0580    2.1495    0.0556 H   0  0  0  0  0  0  0  0  0  0  0  0
   -0.5517    2.8337   -0.5524 H   0  0  0  0  0  0  0  0  0  0  0  0
   -2.1078    2.7562   -2.0006 C   0  0  0  0  0  0  0  0  0  0  0  0
   -3.4668    2.7718   -2.2070 C   0  0  0  0  0  0  0  0  0  0  0  0
   -4.2185    2.4046   -1.5117 H   0  0  0  0  0  0  0  0  0  0  0  0
   -3.6961    3.3477   -3.4543 N   0  0  0  0  0  0  0  0  0  0  0  0
   -4.6110    3.5148   -3.8694 H   0  0  0  0  0  0  0  0  0  0  0  0
   -2.4961    3.7003   -4.0510 C   0  0  0  0  0  0  0  0  0  0  0  0
   -2.2083    4.2961   -5.2787 C   0  0  0  0  0  0  0  0  0  0  0  0
   -3.0106    4.5671   -5.9560 H   0  0  0  0  0  0  0  0  0  0  0  0
   -0.8710    4.5387   -5.6234 C   0  0  0  0  0  0  0  0  0  0  0  0
   -0.6330    5.0025   -6.5762 H   0  0  0  0  0  0  0  0  0  0  0  0
    0.1596    4.1855   -4.7384 C   0  0  0  0  0  0  0  0  0  0  0  0
    1.1939    4.3775   -5.0079 H   0  0  0  0  0  0  0  0  0  0  0  0
   -0.1419    3.5888   -3.5059 C   0  0  0  0  0  0  0  0  0  0  0  0
    0.6508    3.3203   -2.8158 H   0  0  0  0  0  0  0  0  0  0  0  0
   -1.4785    3.3482   -3.1722 C   0  0  0  0  0  0  0  0  0  0  0  0
    0.1715    0.4047   -0.0249 C   0  0  0  0  0  0  0  0  0  0  0  0
   -0.1774    0.2596    1.1419 O   0  0  0  0  0  0  0  0  0  0  0  0
    1.4934    0.7577   -0.2433 N   0  0  0  0  0  0  0  0  0  0  0  0
    1.7815    0.8940   -1.2069 H   0  0  0  0  0  0  0  0  0  0  0  0
    2.5238    0.6570    0.7839 C   0  0  0  0  0  0  0  0  0  0  0  0
    2.5791   -0.3656    1.1721 H   0  0  0  0  0  0  0  0  0  0  0  0
    3.5002    0.9224    0.3673 H   0  0  0  0  0  0  0  0  0  0  0  0
    2.3064    1.3376    1.6138 H   0  0  0  0  0  0  0  0  0  0  0  0
  1  2  1  0  0  0  0
  2  3  1  0  0  0  0
  2  4  1  0  0  0  0
  2  5  1  0  0  0  0
  5  6  2  0  0  0  0
  5  7  1  0  0  0  0
  7  8  1  0  0  0  0
  7  9  1  0  0  0  0
  9 10  1  0  0  0  0
  9 11  1  0  0  0  0
  9 29  1  0  0  0  0
 11 12  1  0  0  0  0
 11 13  1  0  0  0  0
 11 14  1  0  0  0  0
 14 15  2  0  0  0  0
 14 28  1  0  0  0  0
 15 16  1  0  0  0  0
 15 17  1  0  0  0  0
 17 18  1  0  0  0  0
 17 19  1  0  0  0  0
 19 20  1  0  0  0  0
 19 28  2  0  0  0  0
 20 21  1  0  0  0  0
 20 22  2  0  0  0  0
 22 23  1  0  0  0  0
 22 24  1  0  0  0  0
 24 25  1  0  0  0  0
 24 26  2  0  0  0  0
 26 27  1  0  0  0  0
 26 28  1  0  0  0  0
 29 30  2  0  0  0  0
 29 31  1  0  0  0  0
 31 32  1  0  0  0  0
 31 33  1  0  0  0  0
 33 34  1  0  0  0  0
 33 35  1  0  0  0  0
 33 36  1  0  0  0  0
M  END
$$$$

  -OEChem-01062216103D

 36 37  0     1  0  0  0  0  0999 V2000
   -3.8263   -2.5547    0.3134 H   0  0  0  0  0  0  0  0  0  0  0  0
   -3.7767   -1.6518   -0.3020 C   0  0  0  0  0  0  0  0  0  0  0  0
   -4.2755   -0.8389    0.2301 H   0  0  0  0  0  0  0  0  0  0  0  0
   -4.2951   -1.8376   -1.2454 H   0  0  0  0  0  0  0  0  0  0  0  0
   -2.3296   -1.2842   -0.5690 C   0  0  0  0  0  0  0  0  0  0  0  0
   -1.4551   -2.1060   -0.3555 O   0  0  0  0  0  0  0  0  0  0  0  0
   -2.0434   -0.1484   -1.3005 N   0  0  0  0  0  0  0  0  0  0  0  0
   -2.8682    0.3386   -1.6326 H   0  0  0  0  0  0  0  0  0  0  0  0
   -0.8571    0.7219   -1.1330 C   0  0  1  0  0  0  0  0  0  0  0  0
   -0.3196    0.7289   -2.0859 H   0  0  0  0  0  0  0  0  0  0  0  0
   -1.3840    2.1393   -0.8310 C   0  0  0  0  0  0  0  0  0  0  0  0
   -2.0578    2.0982    0.0316 H   0  0  0  0  0  0  0  0  0  0  0  0
   -0.5603    2.8094   -0.5641 H   0  0  0  0  0  0  0  0  0  0  0  0
   -2.1038    2.7205   -2.0203 C   0  0  0  0  0  0  0  0  0  0  0  0
   -3.4625    2.7232   -2.2327 C   0  0  0  0  0  0  0  0  0  0  0  0
   -4.2144    2.3387   -1.5469 H   0  0  0  0  0  0  0  0  0  0  0  0
   -3.6923    3.3143   -3.4725 N   0  0  0  0  0  0  0  0  0  0  0  0
   -4.6072    3.4722   -3.8914 H   0  0  0  0  0  0  0  0  0  0  0  0
   -2.4943    3.6918   -4.0578 C   0  0  0  0  0  0  0  0  0  0  0  0
   -2.2093    4.3121   -5.2742 C   0  0  0  0  0  0  0  0  0  0  0  0
   -3.0114    4.5845   -5.9514 H   0  0  0  0  0  0  0  0  0  0  0  0
   -0.8740    4.5783   -5.6088 C   0  0  0  0  0  0  0  0  0  0  0  0
   -0.6371    5.0616   -6.5523 H   0  0  0  0  0  0  0  0  0  0  0  0
    0.1573    4.2234   -4.7256 C   0  0  0  0  0  0  0  0  0  0  0  0
    1.1900    4.4334   -4.9878 H   0  0  0  0  0  0  0  0  0  0  0  0
   -0.1415    3.6018   -3.5047 C   0  0  0  0  0  0  0  0  0  0  0  0
    0.6529    3.3327   -2.8173 H   0  0  0  0  0  0  0  0  0  0  0  0
   -1.4762    3.3383   -3.1802 C   0  0  0  0  0  0  0  0  0  0  0  0
    0.1975    0.3845   -0.0429 C   0  0  0  0  0  0  0  0  0  0  0  0
   -0.1561    0.0383    1.0783 O   0  0  0  0  0  0  0  0  0  0  0  0
    1.4356    1.0043   -0.1158 N   0  0  0  0  0  0  0  0  0  0  0  0
    1.7263    1.3534   -1.0231 H   0  0  0  0  0  0  0  0  0  0  0  0
    2.4158    0.9712    0.9642 C   0  0  0  0  0  0  0  0  0  0  0  0
    2.6531   -0.0631    1.2350 H   0  0  0  0  0  0  0  0  0  0  0  0
    3.3395    1.4673    0.6515 H   0  0  0  0  0  0  0  0  0  0  0  0
    2.0294    1.4877    1.8491 H   0  0  0  0  0  0  0  0  0  0  0  0
  1  2  1  0  0  0  0
  2  3  1  0  0  0  0
  2  4  1  0  0  0  0
  2  5  1  0  0  0  0
  5  6  2  0  0  0  0
  5  7  1  0  0  0  0
  7  8  1  0  0  0  0
  7  9  1  0  0  0  0
  9 10  1  0  0  0  0
  9 11  1  0  0  0  0
  9 29  1  0  0  0  0
 11 12  1  0  0  0  0
 11 13  1  0  0  0  0
 11 14  1  0  0  0  0
 14 15  2  0  0  0  0
 14 28  1  0  0  0  0
 15 16  1  0  0  0  0
 15 17  1  0  0  0  0
 17 18  1  0  0  0  0
 17 19  1  0  0  0  0
 19 20  1  0  0  0  0
 19 28  2  0  0  0  0
 20 21  1  0  0  0  0
 20 22  2  0  0  0  0
 22 23  1  0  0  0  0
 22 24  1  0  0  0  0
 24 25  1  0  0  0  0
 24 26  2  0  0  0  0
 26 27  1  0  0  0  0
 26 28  1  0  0  0  0
 29 30  2  0  0  0  0
 29 31  1  0  0  0  0
 31 32  1  0  0  0  0
 31 33  1  0  0  0  0
 33 34  1  0  0  0  0
 33 35  1  0  0  0  0
 33 36  1  0  0  0  0
M  END
$$$$

  -OEChem-01062216103D

 36 37  0     1  0  0  0  0  0999 V2000
   -3.5590   -2.8020    0.1851 H   0  0  0  0  0  0  0  0  0  0  0  0
   -3.4250   -2.0607   -0.6078 C   0  0  0  0  0  0  0  0  0  0  0  0
   -4.4061   -1.7086   -0.9344 H   0  0  0  0  0  0  0  0  0  0  0  0
   -2.9147   -2.5368   -1.4483 H   0  0  0  0  0  0  0  0  0  0  0  0
   -2.5984   -0.8972   -0.0948 C   0  0  0  0  0  0  0  0  0  0  0  0
   -2.4143   -0.7659    1.1046 O   0  0  0  0  0  0  0  0  0  0  0  0
   -2.2912    0.1545   -0.9349 N   0  0  0  0  0  0  0  0  0  0  0  0
   -2.6742    0.0418   -1.8678 H   0  0  0  0  0  0  0  0  0  0  0  0
   -1.0215    0.9200   -0.8897 C   0  0  1  0  0  0  0  0  0  0  0  0
   -0.6695    1.0437   -1.9184 H   0  0  0  0  0  0  0  0  0  0  0  0
   -1.3721    2.3076   -0.3173 C   0  0  0  0  0  0  0  0  0  0  0  0
   -1.8906    2.1801    0.6394 H   0  0  0  0  0  0  0  0  0  0  0  0
   -0.4748    2.9011   -0.1235 H   0  0  0  0  0  0  0  0  0  0  0  0
   -2.2438    3.0726   -1.2775 C   0  0  0  0  0  0  0  0  0  0  0  0
   -3.6130    3.1601   -1.2209 C   0  0  0  0  0  0  0  0  0  0  0  0
   -4.2402    2.7027   -0.4580 H   0  0  0  0  0  0  0  0  0  0  0  0
   -4.0296    3.9254   -2.3080 N   0  0  0  0  0  0  0  0  0  0  0  0
   -4.9945    4.1749   -2.5159 H   0  0  0  0  0  0  0  0  0  0  0  0
   -2.9391    4.3229   -3.0657 C   0  0  0  0  0  0  0  0  0  0  0  0
   -2.8443    5.0835   -4.2312 C   0  0  0  0  0  0  0  0  0  0  0  0
   -3.7387    5.4800   -4.6990 H   0  0  0  0  0  0  0  0  0  0  0  0
   -1.5807    5.3261   -4.7880 C   0  0  0  0  0  0  0  0  0  0  0  0
   -1.4925    5.9168   -5.6949 H   0  0  0  0  0  0  0  0  0  0  0  0
   -0.4297    4.8071   -4.1752 C   0  0  0  0  0  0  0  0  0  0  0  0
    0.5471    4.9977   -4.6098 H   0  0  0  0  0  0  0  0  0  0  0  0
   -0.5365    4.0450   -3.0030 C   0  0  0  0  0  0  0  0  0  0  0  0
    0.3516    3.6447   -2.5265 H   0  0  0  0  0  0  0  0  0  0  0  0
   -1.8012    3.8084   -2.4542 C   0  0  0  0  0  0  0  0  0  0  0  0
    0.1943    0.3362   -0.1112 C   0  0  0  0  0  0  0  0  0  0  0  0
    0.3189   -0.8702    0.0614 O   0  0  0  0  0  0  0  0  0  0  0  0
    1.3732    1.0658   -0.0729 N   0  0  0  0  0  0  0  0  0  0  0  0
    1.3157    2.0549   -0.2919 H   0  0  0  0  0  0  0  0  0  0  0  0
    2.6374    0.5357    0.4263 C   0  0  0  0  0  0  0  0  0  0  0  0
    2.9919   -0.2783   -0.2147 H   0  0  0  0  0  0  0  0  0  0  0  0
    3.3980    1.3221    0.4384 H   0  0  0  0  0  0  0  0  0  0  0  0
    2.5179    0.1558    1.4466 H   0  0  0  0  0  0  0  0  0  0  0  0
  1  2  1  0  0  0  0
  2  3  1  0  0  0  0
  2  4  1  0  0  0  0
  2  5  1  0  0  0  0
  5  6  2  0  0  0  0
  5  7  1  0  0  0  0
  7  8  1  0  0  0  0
  7  9  1  0  0  0  0
  9 10  1  0  0  0  0
  9 11  1  0  0  0  0
  9 29  1  0  0  0  0
 11 12  1  0  0  0  0
 11 13  1  0  0  0  0
 11 14  1  0  0  0  0
 14 15  2  0  0  0  0
 14 28  1  0  0  0  0
 15 16  1  0  0  0  0
 15 17  1  0  0  0  0
 17 18  1  0  0  0  0
 17 19  1  0  0  0  0
 19 20  1  0  0  0  0
 19 28  2  0  0  0  0
 20 21  1  0  0  0  0
 20 22  2  0  0  0  0
 22 23  1  0  0  0  0
 22 24  1  0  0  0  0
 24 25  1  0  0  0  0
 24 26  2  0  0  0  0
 26 27  1  0  0  0  0
 26 28  1  0  0  0  0
 29 30  2  0  0  0  0
 29 31  1  0  0  0  0
 31 32  1  0  0  0  0
 31 33  1  0  0  0  0
 33 34  1  0  0  0  0
 33 35  1  0  0  0  0
 33 36  1  0  0  0  0
M  END
$$$$

  -OEChem-01062216103D

 36 37  0     1  0  0  0  0  0999 V2000
   -3.5341   -2.7868    0.1799 H   0  0  0  0  0  0  0  0  0  0  0  0
   -3.4207   -2.0338   -0.6051 C   0  0  0  0  0  0  0  0  0  0  0  0
   -4.4093   -1.6652   -0.8885 H   0  0  0  0  0  0  0  0  0  0  0  0
   -2.9484   -2.5015   -1.4724 H   0  0  0  0  0  0  0  0  0  0  0  0
   -2.5603   -0.8892   -0.1050 C   0  0  0  0  0  0  0  0  0  0  0  0
   -2.3042   -0.7958    1.0851 O   0  0  0  0  0  0  0  0  0  0  0  0
   -2.2715    0.1711   -0.9414 N   0  0  0  0  0  0  0  0  0  0  0  0
   -2.6705    0.0712   -1.8692 H   0  0  0  0  0  0  0  0  0  0  0  0
   -1.0101    0.9490   -0.8987 C   0  0  1  0  0  0  0  0  0  0  0  0
   -0.6518    1.0757   -1.9245 H   0  0  0  0  0  0  0  0  0  0  0  0
   -1.3782    2.3354   -0.3313 C   0  0  0  0  0  0  0  0  0  0  0  0
   -1.8920    2.2072    0.6278 H   0  0  0  0  0  0  0  0  0  0  0  0
   -0.4891    2.9433   -0.1477 H   0  0  0  0  0  0  0  0  0  0  0  0
   -2.2588    3.0866   -1.2954 C   0  0  0  0  0  0  0  0  0  0  0  0
   -3.6292    3.1587   -1.2415 C   0  0  0  0  0  0  0  0  0  0  0  0
   -4.2534    2.6968   -0.4789 H   0  0  0  0  0  0  0  0  0  0  0  0
   -4.0534    3.9158   -2.3316 N   0  0  0  0  0  0  0  0  0  0  0  0
   -5.0209    4.1521   -2.5429 H   0  0  0  0  0  0  0  0  0  0  0  0
   -2.9661    4.3237   -3.0884 C   0  0  0  0  0  0  0  0  0  0  0  0
   -2.8780    5.0821   -4.2559 C   0  0  0  0  0  0  0  0  0  0  0  0
   -3.7755    5.4675   -4.7270 H   0  0  0  0  0  0  0  0  0  0  0  0
   -1.6160    5.3379   -4.8105 C   0  0  0  0  0  0  0  0  0  0  0  0
   -1.5324    5.9273   -5.7188 H   0  0  0  0  0  0  0  0  0  0  0  0
   -0.4604    4.8342   -4.1935 C   0  0  0  0  0  0  0  0  0  0  0  0
    0.5151    5.0349   -4.6264 H   0  0  0  0  0  0  0  0  0  0  0  0
   -0.5607    4.0739   -3.0194 C   0  0  0  0  0  0  0  0  0  0  0  0
    0.3307    3.6845   -2.5392 H   0  0  0  0  0  0  0  0  0  0  0  0
   -1.8236    3.8242   -2.4731 C   0  0  0  0  0  0  0  0  0  0  0  0
    0.1911    0.3362   -0.1194 C   0  0  0  0  0  0  0  0  0  0  0  0
    0.3980   -0.8709   -0.1803 O   0  0  0  0  0  0  0  0  0  0  0  0
    1.2799    1.1207    0.2310 N   0  0  0  0  0  0  0  0  0  0  0  0
    1.1438    2.1259    0.2463 H   0  0  0  0  0  0  0  0  0  0  0  0
    2.5173    0.5777    0.7805 C   0  0  0  0  0  0  0  0  0  0  0  0
    3.0052   -0.0781    0.0517 H   0  0  0  0  0  0  0  0  0  0  0  0
    3.2080    1.3884    1.0310 H   0  0  0  0  0  0  0  0  0  0  0  0
    2.3126    0.0037    1.6905 H   0  0  0  0  0  0  0  0  0  0  0  0
  1  2  1  0  0  0  0
  2  3  1  0  0  0  0
  2  4  1  0  0  0  0
  2  5  1  0  0  0  0
  5  6  2  0  0  0  0
  5  7  1  0  0  0  0
  7  8  1  0  0  0  0
  7  9  1  0  0  0  0
  9 10  1  0  0  0  0
  9 11  1  0  0  0  0
  9 29  1  0  0  0  0
 11 12  1  0  0  0  0
 11 13  1  0  0  0  0
 11 14  1  0  0  0  0
 14 15  2  0  0  0  0
 14 28  1  0  0  0  0
 15 16  1  0  0  0  0
 15 17  1  0  0  0  0
 17 18  1  0  0  0  0
 17 19  1  0  0  0  0
 19 20  1  0  0  0  0
 19 28  2  0  0  0  0
 20 21  1  0  0  0  0
 20 22  2  0  0  0  0
 22 23  1  0  0  0  0
 22 24  1  0  0  0  0
 24 25  1  0  0  0  0
 24 26  2  0  0  0  0
 26 27  1  0  0  0  0
 26 28  1  0  0  0  0
 29 30  2  0  0  0  0
 29 31  1  0  0  0  0
 31 32  1  0  0  0  0
 31 33  1  0  0  0  0
 33 34  1  0  0  0  0
 33 35  1  0  0  0  0
 33 36  1  0  0  0  0
M  END
$$$$

  -OEChem-01062216103D

 36 37  0     1  0  0  0  0  0999 V2000
   -3.4661   -2.8114    0.1610 H   0  0  0  0  0  0  0  0  0  0  0  0
   -3.4049   -2.0295   -0.6010 C   0  0  0  0  0  0  0  0  0  0  0  0
   -4.4110   -1.6608   -0.8125 H   0  0  0  0  0  0  0  0  0  0  0  0
   -2.9816   -2.4613   -1.5111 H   0  0  0  0  0  0  0  0  0  0  0  0
   -2.5264   -0.8942   -0.1111 C   0  0  0  0  0  0  0  0  0  0  0  0
   -2.2075   -0.8369    1.0659 O   0  0  0  0  0  0  0  0  0  0  0  0
   -2.2652    0.1793   -0.9406 N   0  0  0  0  0  0  0  0  0  0  0  0
   -2.6851    0.0929   -1.8606 H   0  0  0  0  0  0  0  0  0  0  0  0
   -1.0145    0.9736   -0.9049 C   0  0  1  0  0  0  0  0  0  0  0  0
   -0.6613    1.1023   -1.9326 H   0  0  0  0  0  0  0  0  0  0  0  0
   -1.3830    2.3617   -0.3441 C   0  0  0  0  0  0  0  0  0  0  0  0
   -1.8891    2.2402    0.6200 H   0  0  0  0  0  0  0  0  0  0  0  0
   -0.4927    2.9738   -0.1772 H   0  0  0  0  0  0  0  0  0  0  0  0
   -2.2719    3.1026   -1.3078 C   0  0  0  0  0  0  0  0  0  0  0  0
   -3.6423    3.1739   -1.2513 C   0  0  0  0  0  0  0  0  0  0  0  0
   -4.2646    2.7164   -0.4847 H   0  0  0  0  0  0  0  0  0  0  0  0
   -4.0685    3.9269   -2.3436 N   0  0  0  0  0  0  0  0  0  0  0  0
   -5.0361    4.1648   -2.5525 H   0  0  0  0  0  0  0  0  0  0  0  0
   -2.9828    4.3324   -3.1044 C   0  0  0  0  0  0  0  0  0  0  0  0
   -2.8948    5.0874   -4.2744 C   0  0  0  0  0  0  0  0  0  0  0  0
   -3.7919    5.4728   -4.7460 H   0  0  0  0  0  0  0  0  0  0  0  0
   -1.6331    5.3406   -4.8316 C   0  0  0  0  0  0  0  0  0  0  0  0
   -1.5499    5.9267   -5.7422 H   0  0  0  0  0  0  0  0  0  0  0  0
   -0.4772    4.8378   -4.2146 C   0  0  0  0  0  0  0  0  0  0  0  0
    0.4982    5.0355   -4.6491 H   0  0  0  0  0  0  0  0  0  0  0  0
   -0.5767    4.0815   -3.0381 C   0  0  0  0  0  0  0  0  0  0  0  0
    0.3152    3.6927   -2.5580 H   0  0  0  0  0  0  0  0  0  0  0  0
   -1.8395    3.8349   -2.4895 C   0  0  0  0  0  0  0  0  0  0  0  0
    0.1868    0.3448   -0.1402 C   0  0  0  0  0  0  0  0  0  0  0  0
    0.4916   -0.8178   -0.3845 O   0  0  0  0  0  0  0  0  0  0  0  0
    1.1402    1.1242    0.4969 N   0  0  0  0  0  0  0  0  0  0  0  0
    0.8790    2.0785    0.7215 H   0  0  0  0  0  0  0  0  0  0  0  0
    2.3351    0.5687    1.1213 C   0  0  0  0  0  0  0  0  0  0  0  0
    2.9554    0.0573    0.3777 H   0  0  0  0  0  0  0  0  0  0  0  0
    2.9307    1.3671    1.5742 H   0  0  0  0  0  0  0  0  0  0  0  0
    2.0599   -0.1463    1.9039 H   0  0  0  0  0  0  0  0  0  0  0  0
  1  2  1  0  0  0  0
  2  3  1  0  0  0  0
  2  4  1  0  0  0  0
  2  5  1  0  0  0  0
  5  6  2  0  0  0  0
  5  7  1  0  0  0  0
  7  8  1  0  0  0  0
  7  9  1  0  0  0  0
  9 10  1  0  0  0  0
  9 11  1  0  0  0  0
  9 29  1  0  0  0  0
 11 12  1  0  0  0  0
 11 13  1  0  0  0  0
 11 14  1  0  0  0  0
 14 15  2  0  0  0  0
 14 28  1  0  0  0  0
 15 16  1  0  0  0  0
 15 17  1  0  0  0  0
 17 18  1  0  0  0  0
 17 19  1  0  0  0  0
 19 20  1  0  0  0  0
 19 28  2  0  0  0  0
 20 21  1  0  0  0  0
 20 22  2  0  0  0  0
 22 23  1  0  0  0  0
 22 24  1  0  0  0  0
 24 25  1  0  0  0  0
 24 26  2  0  0  0  0
 26 27  1  0  0  0  0
 26 28  1  0  0  0  0
 29 30  2  0  0  0  0
 29 31  1  0  0  0  0
 31 32  1  0  0  0  0
 31 33  1  0  0  0  0
 33 34  1  0  0  0  0
 33 35  1  0  0  0  0
 33 36  1  0  0  0  0
M  END
$$$$

  -OEChem-01062216103D

 36 37  0     1  0  0  0  0  0999 V2000
   -3.4823   -2.7973    0.1563 H   0  0  0  0  0  0  0  0  0  0  0  0
   -3.4212   -2.0092   -0.5996 C   0  0  0  0  0  0  0  0  0  0  0  0
   -4.4226   -1.6095   -0.7759 H   0  0  0  0  0  0  0  0  0  0  0  0
   -3.0385   -2.4435   -1.5264 H   0  0  0  0  0  0  0  0  0  0  0  0
   -2.4957   -0.9045   -0.1260 C   0  0  0  0  0  0  0  0  0  0  0  0
   -2.1225   -0.8848    1.0362 O   0  0  0  0  0  0  0  0  0  0  0  0
   -2.2414    0.1748   -0.9504 N   0  0  0  0  0  0  0  0  0  0  0  0
   -2.6805    0.1079   -1.8632 H   0  0  0  0  0  0  0  0  0  0  0  0
   -1.0016    0.9842   -0.9148 C   0  0  1  0  0  0  0  0  0  0  0  0
   -0.6472    1.1143   -1.9421 H   0  0  0  0  0  0  0  0  0  0  0  0
   -1.3769    2.3711   -0.3578 C   0  0  0  0  0  0  0  0  0  0  0  0
   -1.8797    2.2513    0.6080 H   0  0  0  0  0  0  0  0  0  0  0  0
   -0.4855    2.9844   -0.1975 H   0  0  0  0  0  0  0  0  0  0  0  0
   -2.2715    3.1054   -1.3213 C   0  0  0  0  0  0  0  0  0  0  0  0
   -3.6421    3.1697   -1.2621 C   0  0  0  0  0  0  0  0  0  0  0  0
   -4.2612    2.7092   -0.4948 H   0  0  0  0  0  0  0  0  0  0  0  0
   -4.0750    3.9207   -2.3528 N   0  0  0  0  0  0  0  0  0  0  0  0
   -5.0441    4.1555   -2.5587 H   0  0  0  0  0  0  0  0  0  0  0  0
   -2.9930    4.3323   -3.1153 C   0  0  0  0  0  0  0  0  0  0  0  0
   -2.9131    5.0877   -4.2852 C   0  0  0  0  0  0  0  0  0  0  0  0
   -3.8144    5.4667   -4.7542 H   0  0  0  0  0  0  0  0  0  0  0  0
   -1.6543    5.3480   -4.8460 C   0  0  0  0  0  0  0  0  0  0  0  0
   -1.5770    5.9341   -5.7570 H   0  0  0  0  0  0  0  0  0  0  0  0
   -0.4936    4.8524   -4.2323 C   0  0  0  0  0  0  0  0  0  0  0  0
    0.4797    5.0559   -4.6692 H   0  0  0  0  0  0  0  0  0  0  0  0
   -0.5856    4.0957   -3.0554 C   0  0  0  0  0  0  0  0  0  0  0  0
    0.3105    3.7124   -2.5781 H   0  0  0  0  0  0  0  0  0  0  0  0
   -1.8455    3.8411   -2.5035 C   0  0  0  0  0  0  0  0  0  0  0  0
    0.1968    0.3565   -0.1486 C   0  0  0  0  0  0  0  0  0  0  0  0
    0.6178   -0.7301   -0.5300 O   0  0  0  0  0  0  0  0  0  0  0  0
    0.9751    1.0771    0.7434 N   0  0  0  0  0  0  0  0  0  0  0  0
    0.5648    1.9253    1.1205 H   0  0  0  0  0  0  0  0  0  0  0  0
    2.1184    0.4970    1.4376 C   0  0  0  0  0  0  0  0  0  0  0  0
    2.8687    0.1501    0.7192 H   0  0  0  0  0  0  0  0  0  0  0  0
    2.5845    1.2443    2.0869 H   0  0  0  0  0  0  0  0  0  0  0  0
    1.8014   -0.3508    2.0542 H   0  0  0  0  0  0  0  0  0  0  0  0
  1  2  1  0  0  0  0
  2  3  1  0  0  0  0
  2  4  1  0  0  0  0
  2  5  1  0  0  0  0
  5  6  2  0  0  0  0
  5  7  1  0  0  0  0
  7  8  1  0  0  0  0
  7  9  1  0  0  0  0
  9 10  1  0  0  0  0
  9 11  1  0  0  0  0
  9 29  1  0  0  0  0
 11 12  1  0  0  0  0
 11 13  1  0  0  0  0
 11 14  1  0  0  0  0
 14 15  2  0  0  0  0
 14 28  1  0  0  0  0
 15 16  1  0  0  0  0
 15 17  1  0  0  0  0
 17 18  1  0  0  0  0
 17 19  1  0  0  0  0
 19 20  1  0  0  0  0
 19 28  2  0  0  0  0
 20 21  1  0  0  0  0
 20 22  2  0  0  0  0
 22 23  1  0  0  0  0
 22 24  1  0  0  0  0
 24 25  1  0  0  0  0
 24 26  2  0  0  0  0
 26 27  1  0  0  0  0
 26 28  1  0  0  0  0
 29 30  2  0  0  0  0
 29 31  1  0  0  0  0
 31 32  1  0  0  0  0
 31 33  1  0  0  0  0
 33 34  1  0  0  0  0
 33 35  1  0  0  0  0
 33 36  1  0  0  0  0
M  END
$$$$

  -OEChem-01062216103D

 36 37  0     1  0  0  0  0  0999 V2000
   -3.5041   -2.7908    0.1396 H   0  0  0  0  0  0  0  0  0  0  0  0
   -3.4402   -1.9954   -0.6085 C   0  0  0  0  0  0  0  0  0  0  0  0
   -4.4357   -1.5721   -0.7608 H   0  0  0  0  0  0  0  0  0  0  0  0
   -3.0856   -2.4269   -1.5478 H   0  0  0  0  0  0  0  0  0  0  0  0
   -2.4814   -0.9168   -0.1412 C   0  0  0  0  0  0  0  0  0  0  0  0
   -2.0636   -0.9362    1.0053 O   0  0  0  0  0  0  0  0  0  0  0  0
   -2.2289    0.1697   -0.9565 N   0  0  0  0  0  0  0  0  0  0  0  0
   -2.6880    0.1274   -1.8612 H   0  0  0  0  0  0  0  0  0  0  0  0
   -0.9975    0.9904   -0.9164 C   0  0  1  0  0  0  0  0  0  0  0  0
   -0.6436    1.1230   -1.9437 H   0  0  0  0  0  0  0  0  0  0  0  0
   -1.3754    2.3754   -0.3587 C   0  0  0  0  0  0  0  0  0  0  0  0
   -1.8805    2.2543    0.6056 H   0  0  0  0  0  0  0  0  0  0  0  0
   -0.4811    2.9846   -0.1948 H   0  0  0  0  0  0  0  0  0  0  0  0
   -2.2717    3.1083   -1.3219 C   0  0  0  0  0  0  0  0  0  0  0  0
   -3.6427    3.1699   -1.2632 C   0  0  0  0  0  0  0  0  0  0  0  0
   -4.2614    2.7095   -0.4955 H   0  0  0  0  0  0  0  0  0  0  0  0
   -4.0767    3.9173   -2.3560 N   0  0  0  0  0  0  0  0  0  0  0  0
   -5.0462    4.1487   -2.5639 H   0  0  0  0  0  0  0  0  0  0  0  0
   -2.9953    4.3292   -3.1195 C   0  0  0  0  0  0  0  0  0  0  0  0
   -2.9166    5.0814   -4.2917 C   0  0  0  0  0  0  0  0  0  0  0  0
   -3.8183    5.4577   -4.7621 H   0  0  0  0  0  0  0  0  0  0  0  0
   -1.6582    5.3426   -4.8528 C   0  0  0  0  0  0  0  0  0  0  0  0
   -1.5815    5.9259   -5.7657 H   0  0  0  0  0  0  0  0  0  0  0  0
   -0.4968    4.8518   -4.2365 C   0  0  0  0  0  0  0  0  0  0  0  0
    0.4761    5.0564   -4.6732 H   0  0  0  0  0  0  0  0  0  0  0  0
   -0.5874    4.0982   -3.0575 C   0  0  0  0  0  0  0  0  0  0  0  0
    0.3092    3.7185   -2.5782 H   0  0  0  0  0  0  0  0  0  0  0  0
   -1.8470    3.8423   -2.5056 C   0  0  0  0  0  0  0  0  0  0  0  0
    0.2044    0.3717   -0.1521 C   0  0  0  0  0  0  0  0  0  0  0  0
    0.7589   -0.6035   -0.6459 O   0  0  0  0  0  0  0  0  0  0  0  0
    0.7849    0.9791    0.9495 N   0  0  0  0  0  0  0  0  0  0  0  0
    0.2189    1.6749    1.4245 H   0  0  0  0  0  0  0  0  0  0  0  0
    1.8863    0.3728    1.6869 C   0  0  0  0  0  0  0  0  0  0  0  0
    2.7463    0.2095    1.0291 H   0  0  0  0  0  0  0  0  0  0  0  0
    2.1998    1.0289    2.5044 H   0  0  0  0  0  0  0  0  0  0  0  0
    1.5783   -0.5891    2.1107 H   0  0  0  0  0  0  0  0  0  0  0  0
  1  2  1  0  0  0  0
  2  3  1  0  0  0  0
  2  4  1  0  0  0  0
  2  5  1  0  0  0  0
  5  6  2  0  0  0  0
  5  7  1  0  0  0  0
  7  8  1  0  0  0  0
  7  9  1  0  0  0  0
  9 10  1  0  0  0  0
  9 11  1  0  0  0  0
  9 29  1  0  0  0  0
 11 12  1  0  0  0  0
 11 13  1  0  0  0  0
 11 14  1  0  0  0  0
 14 15  2  0  0  0  0
 14 28  1  0  0  0  0
 15 16  1  0  0  0  0
 15 17  1  0  0  0  0
 17 18  1  0  0  0  0
 17 19  1  0  0  0  0
 19 20  1  0  0  0  0
 19 28  2  0  0  0  0
 20 21  1  0  0  0  0
 20 22  2  0  0  0  0
 22 23  1  0  0  0  0
 22 24  1  0  0  0  0
 24 25  1  0  0  0  0
 24 26  2  0  0  0  0
 26 27  1  0  0  0  0
 26 28  1  0  0  0  0
 29 30  2  0  0  0  0
 29 31  1  0  0  0  0
 31 32  1  0  0  0  0
 31 33  1  0  0  0  0
 33 34  1  0  0  0  0
 33 35  1  0  0  0  0
 33 36  1  0  0  0  0
M  END
$$$$

  -OEChem-01062216103D

 36 37  0     1  0  0  0  0  0999 V2000
   -3.5598   -2.7802    0.1266 H   0  0  0  0  0  0  0  0  0  0  0  0
   -3.4866   -1.9776   -0.6128 C   0  0  0  0  0  0  0  0  0  0  0  0
   -4.4699   -1.5168   -0.7325 H   0  0  0  0  0  0  0  0  0  0  0  0
   -3.1735   -2.4088   -1.5668 H   0  0  0  0  0  0  0  0  0  0  0  0
   -2.4777   -0.9397   -0.1582 C   0  0  0  0  0  0  0  0  0  0  0  0
   -2.0172   -1.0020    0.9699 O   0  0  0  0  0  0  0  0  0  0  0  0
   -2.2153    0.1508   -0.9649 N   0  0  0  0  0  0  0  0  0  0  0  0
   -2.6986    0.1418   -1.8581 H   0  0  0  0  0  0  0  0  0  0  0  0
   -0.9916    0.9820   -0.9177 C   0  0  1  0  0  0  0  0  0  0  0  0
   -0.6370    1.1180   -1.9446 H   0  0  0  0  0  0  0  0  0  0  0  0
   -1.3750    2.3644   -0.3602 C   0  0  0  0  0  0  0  0  0  0  0  0
   -1.8847    2.2416    0.6014 H   0  0  0  0  0  0  0  0  0  0  0  0
   -0.4789    2.9699   -0.1887 H   0  0  0  0  0  0  0  0  0  0  0  0
   -2.2711    3.0977   -1.3236 C   0  0  0  0  0  0  0  0  0  0  0  0
   -3.6426    3.1573   -1.2691 C   0  0  0  0  0  0  0  0  0  0  0  0
   -4.2640    2.6970   -0.5037 H   0  0  0  0  0  0  0  0  0  0  0  0
   -4.0747    3.9060   -2.3618 N   0  0  0  0  0  0  0  0  0  0  0  0
   -5.0435    4.1391   -2.5707 H   0  0  0  0  0  0  0  0  0  0  0  0
   -2.9917    4.3213   -3.1208 C   0  0  0  0  0  0  0  0  0  0  0  0
   -2.9107    5.0771   -4.2904 C   0  0  0  0  0  0  0  0  0  0  0  0
   -3.8115    5.4533   -4.7623 H   0  0  0  0  0  0  0  0  0  0  0  0
   -1.6511    5.3424   -4.8465 C   0  0  0  0  0  0  0  0  0  0  0  0
   -1.5726    5.9292   -5.7569 H   0  0  0  0  0  0  0  0  0  0  0  0
   -0.4909    4.8515   -4.2282 C   0  0  0  0  0  0  0  0  0  0  0  0
    0.4832    5.0596   -4.6608 H   0  0  0  0  0  0  0  0  0  0  0  0
   -0.5836    4.0938   -3.0520 C   0  0  0  0  0  0  0  0  0  0  0  0
    0.3120    3.7136   -2.5712 H   0  0  0  0  0  0  0  0  0  0  0  0
   -1.8444    3.8345   -2.5046 C   0  0  0  0  0  0  0  0  0  0  0  0
    0.2161    0.3849   -0.1483 C   0  0  0  0  0  0  0  0  0  0  0  0
    0.9315   -0.4217   -0.7306 O   0  0  0  0  0  0  0  0  0  0  0  0
    0.5880    0.8309    1.1090 N   0  0  0  0  0  0  0  0  0  0  0  0
   -0.1428    1.3023    1.6336 H   0  0  0  0  0  0  0  0  0  0  0  0
    1.6673    0.2075    1.8640 C   0  0  0  0  0  0  0  0  0  0  0  0
    2.6051    0.2487    1.3002 H   0  0  0  0  0  0  0  0  0  0  0  0
    1.8151    0.7310    2.8134 H   0  0  0  0  0  0  0  0  0  0  0  0
    1.4281   -0.8398    2.0764 H   0  0  0  0  0  0  0  0  0  0  0  0
  1  2  1  0  0  0  0
  2  3  1  0  0  0  0
  2  4  1  0  0  0  0
  2  5  1  0  0  0  0
  5  6  2  0  0  0  0
  5  7  1  0  0  0  0
  7  8  1  0  0  0  0
  7  9  1  0  0  0  0
  9 10  1  0  0  0  0
  9 11  1  0  0  0  0
  9 29  1  0  0  0  0
 11 12  1  0  0  0  0
 11 13  1  0  0  0  0
 11 14  1  0  0  0  0
 14 15  2  0  0  0  0
 14 28  1  0  0  0  0
 15 16  1  0  0  0  0
 15 17  1  0  0  0  0
 17 18  1  0  0  0  0
 17 19  1  0  0  0  0
 19 20  1  0  0  0  0
 19 28  2  0  0  0  0
 20 21  1  0  0  0  0
 20 22  2  0  0  0  0
 22 23  1  0  0  0  0
 22 24  1  0  0  0  0
 24 25  1  0  0  0  0
 24 26  2  0  0  0  0
 26 27  1  0  0  0  0
 26 28  1  0  0  0  0
 29 30  2  0  0  0  0
 29 31  1  0  0  0  0
 31 32  1  0  0  0  0
 31 33  1  0  0  0  0
 33 34  1  0  0  0  0
 33 35  1  0  0  0  0
 33 36  1  0  0  0  0
M  END
$$$$

  -OEChem-01062216103D

 36 37  0     1  0  0  0  0  0999 V2000
   -3.6520   -2.7654    0.0859 H   0  0  0  0  0  0  0  0  0  0  0  0
   -3.5541   -1.9572   -0.6442 C   0  0  0  0  0  0  0  0  0  0  0  0
   -4.5217   -1.4622   -0.7549 H   0  0  0  0  0  0  0  0  0  0  0  0
   -3.2594   -2.3871   -1.6047 H   0  0  0  0  0  0  0  0  0  0  0  0
   -2.5089   -0.9599   -0.1815 C   0  0  0  0  0  0  0  0  0  0  0  0
   -2.0295   -1.0659    0.9348 O   0  0  0  0  0  0  0  0  0  0  0  0
   -2.2232    0.1358   -0.9721 N   0  0  0  0  0  0  0  0  0  0  0  0
   -2.7260    0.1669   -1.8544 H   0  0  0  0  0  0  0  0  0  0  0  0
   -1.0012    0.9687   -0.9113 C   0  0  1  0  0  0  0  0  0  0  0  0
   -0.6463    1.1118   -1.9373 H   0  0  0  0  0  0  0  0  0  0  0  0
   -1.3850    2.3463   -0.3446 C   0  0  0  0  0  0  0  0  0  0  0  0
   -1.9001    2.2183    0.6130 H   0  0  0  0  0  0  0  0  0  0  0  0
   -0.4875    2.9463   -0.1616 H   0  0  0  0  0  0  0  0  0  0  0  0
   -2.2758    3.0864   -1.3072 C   0  0  0  0  0  0  0  0  0  0  0  0
   -3.6475    3.1483   -1.2611 C   0  0  0  0  0  0  0  0  0  0  0  0
   -4.2737    2.6890   -0.4993 H   0  0  0  0  0  0  0  0  0  0  0  0
   -4.0712    3.8984   -2.3565 N   0  0  0  0  0  0  0  0  0  0  0  0
   -5.0381    4.1349   -2.5712 H   0  0  0  0  0  0  0  0  0  0  0  0
   -2.9825    4.3095   -3.1100 C   0  0  0  0  0  0  0  0  0  0  0  0
   -2.8911    5.0626   -4.2806 C   0  0  0  0  0  0  0  0  0  0  0  0
   -3.7876    5.4429   -4.7579 H   0  0  0  0  0  0  0  0  0  0  0  0
   -1.6269    5.3190   -4.8311 C   0  0  0  0  0  0  0  0  0  0  0  0
   -1.5406    5.9031   -5.7427 H   0  0  0  0  0  0  0  0  0  0  0  0
   -0.4724    4.8217   -4.2064 C   0  0  0  0  0  0  0  0  0  0  0  0
    0.5052    5.0208   -4.6352 H   0  0  0  0  0  0  0  0  0  0  0  0
   -0.5758    4.0685   -3.0284 C   0  0  0  0  0  0  0  0  0  0  0  0
    0.3144    3.6828   -2.5415 H   0  0  0  0  0  0  0  0  0  0  0  0
   -1.8410    3.8192   -2.4871 C   0  0  0  0  0  0  0  0  0  0  0  0
    0.2137    0.3927   -0.1387 C   0  0  0  0  0  0  0  0  0  0  0  0
    1.0969   -0.1680   -0.7765 O   0  0  0  0  0  0  0  0  0  0  0  0
    0.3960    0.6196    1.2146 N   0  0  0  0  0  0  0  0  0  0  0  0
   -0.4674    0.7853    1.7263 H   0  0  0  0  0  0  0  0  0  0  0  0
    1.5052    0.0283    1.9519 C   0  0  0  0  0  0  0  0  0  0  0  0
    2.4629    0.3328    1.5167 H   0  0  0  0  0  0  0  0  0  0  0  0
    1.4830    0.3584    2.9948 H   0  0  0  0  0  0  0  0  0  0  0  0
    1.4391   -1.0646    1.9299 H   0  0  0  0  0  0  0  0  0  0  0  0
  1  2  1  0  0  0  0
  2  3  1  0  0  0  0
  2  4  1  0  0  0  0
  2  5  1  0  0  0  0
  5  6  2  0  0  0  0
  5  7  1  0  0  0  0
  7  8  1  0  0  0  0
  7  9  1  0  0  0  0
  9 10  1  0  0  0  0
  9 11  1  0  0  0  0
  9 29  1  0  0  0  0
 11 12  1  0  0  0  0
 11 13  1  0  0  0  0
 11 14  1  0  0  0  0
 14 15  2  0  0  0  0
 14 28  1  0  0  0  0
 15 16  1  0  0  0  0
 15 17  1  0  0  0  0
 17 18  1  0  0  0  0
 17 19  1  0  0  0  0
 19 20  1  0  0  0  0
 19 28  2  0  0  0  0
 20 21  1  0  0  0  0
 20 22  2  0  0  0  0
 22 23  1  0  0  0  0
 22 24  1  0  0  0  0
 24 25  1  0  0  0  0
 24 26  2  0  0  0  0
 26 27  1  0  0  0  0
 26 28  1  0  0  0  0
 29 30  2  0  0  0  0
 29 31  1  0  0  0  0
 31 32  1  0  0  0  0
 31 33  1  0  0  0  0
 33 34  1  0  0  0  0
 33 35  1  0  0  0  0
 33 36  1  0  0  0  0
M  END
$$$$

  -OEChem-01062216103D

 36 37  0     1  0  0  0  0  0999 V2000
   -3.8018   -2.7423    0.0333 H   0  0  0  0  0  0  0  0  0  0  0  0
   -3.6726   -1.9217   -0.6782 C   0  0  0  0  0  0  0  0  0  0  0  0
   -4.6135   -1.3716   -0.7562 H   0  0  0  0  0  0  0  0  0  0  0  0
   -3.4214   -2.3426   -1.6549 H   0  0  0  0  0  0  0  0  0  0  0  0
   -2.5648   -0.9955   -0.2123 C   0  0  0  0  0  0  0  0  0  0  0  0
   -2.0750   -1.1593    0.8917 O   0  0  0  0  0  0  0  0  0  0  0  0
   -2.2316    0.0984   -0.9863 N   0  0  0  0  0  0  0  0  0  0  0  0
   -2.7585    0.1828   -1.8512 H   0  0  0  0  0  0  0  0  0  0  0  0
   -1.0042    0.9258   -0.9147 C   0  0  1  0  0  0  0  0  0  0  0  0
   -0.6492    1.0710   -1.9407 H   0  0  0  0  0  0  0  0  0  0  0  0
   -1.3866    2.2998   -0.3405 C   0  0  0  0  0  0  0  0  0  0  0  0
   -1.9030    2.1675    0.6158 H   0  0  0  0  0  0  0  0  0  0  0  0
   -0.4874    2.8954   -0.1503 H   0  0  0  0  0  0  0  0  0  0  0  0
   -2.2707    3.0482   -1.3032 C   0  0  0  0  0  0  0  0  0  0  0  0
   -3.6424    3.1119   -1.2622 C   0  0  0  0  0  0  0  0  0  0  0  0
   -4.2720    2.6501   -0.5048 H   0  0  0  0  0  0  0  0  0  0  0  0
   -4.0615    3.8659   -2.3564 N   0  0  0  0  0  0  0  0  0  0  0  0
   -5.0268    4.1064   -2.5729 H   0  0  0  0  0  0  0  0  0  0  0  0
   -2.9693    4.2841   -3.1005 C   0  0  0  0  0  0  0  0  0  0  0  0
   -2.8730    5.0486   -4.2633 C   0  0  0  0  0  0  0  0  0  0  0  0
   -3.7676    5.4297   -4.7432 H   0  0  0  0  0  0  0  0  0  0  0  0
   -1.6062    5.3166   -4.8015 C   0  0  0  0  0  0  0  0  0  0  0  0
   -1.5160    5.9109   -5.7059 H   0  0  0  0  0  0  0  0  0  0  0  0
   -0.4541    4.8188   -4.1730 C   0  0  0  0  0  0  0  0  0  0  0  0
    0.5257    5.0284   -4.5915 H   0  0  0  0  0  0  0  0  0  0  0  0
   -0.5623    4.0522   -3.0039 C   0  0  0  0  0  0  0  0  0  0  0  0
    0.3262    3.6665   -2.5130 H   0  0  0  0  0  0  0  0  0  0  0  0
   -1.8303    3.7914   -2.4745 C   0  0  0  0  0  0  0  0  0  0  0  0
    0.2194    0.3811   -0.1335 C   0  0  0  0  0  0  0  0  0  0  0  0
    1.2380    0.1145   -0.7597 O   0  0  0  0  0  0  0  0  0  0  0  0
    0.2554    0.3605    1.2489 N   0  0  0  0  0  0  0  0  0  0  0  0
   -0.6652    0.2290    1.6700 H   0  0  0  0  0  0  0  0  0  0  0  0
    1.4006   -0.1613    1.9833 C   0  0  0  0  0  0  0  0  0  0  0  0
    2.3103    0.3881    1.7191 H   0  0  0  0  0  0  0  0  0  0  0  0
    1.2368   -0.0560    3.0599 H   0  0  0  0  0  0  0  0  0  0  0  0
    1.5498   -1.2217    1.7554 H   0  0  0  0  0  0  0  0  0  0  0  0
  1  2  1  0  0  0  0
  2  3  1  0  0  0  0
  2  4  1  0  0  0  0
  2  5  1  0  0  0  0
  5  6  2  0  0  0  0
  5  7  1  0  0  0  0
  7  8  1  0  0  0  0
  7  9  1  0  0  0  0
  9 10  1  0  0  0  0
  9 11  1  0  0  0  0
  9 29  1  0  0  0  0
 11 12  1  0  0  0  0
 11 13  1  0  0  0  0
 11 14  1  0  0  0  0
 14 15  2  0  0  0  0
 14 28  1  0  0  0  0
 15 16  1  0  0  0  0
 15 17  1  0  0  0  0
 17 18  1  0  0  0  0
 17 19  1  0  0  0  0
 19 20  1  0  0  0  0
 19 28  2  0  0  0  0
 20 21  1  0  0  0  0
 20 22  2  0  0  0  0
 22 23  1  0  0  0  0
 22 24  1  0  0  0  0
 24 25  1  0  0  0  0
 24 26  2  0  0  0  0
 26 27  1  0  0  0  0
 26 28  1  0  0  0  0
 29 30  2  0  0  0  0
 29 31  1  0  0  0  0
 31 32  1  0  0  0  0
 31 33  1  0  0  0  0
 33 34  1  0  0  0  0
 33 35  1  0  0  0  0
 33 36  1  0  0  0  0
M  END
$$$$

  -OEChem-01062216103D

 36 37  0     1  0  0  0  0  0999 V2000
   -3.9795   -2.6936   -0.0522 H   0  0  0  0  0  0  0  0  0  0  0  0
   -3.7954   -1.8637   -0.7405 C   0  0  0  0  0  0  0  0  0  0  0  0
   -4.6954   -1.2467   -0.7966 H   0  0  0  0  0  0  0  0  0  0  0  0
   -3.5790   -2.2726   -1.7305 H   0  0  0  0  0  0  0  0  0  0  0  0
   -2.6225   -1.0316   -0.2561 C   0  0  0  0  0  0  0  0  0  0  0  0
   -2.1152   -1.2955    0.8189 O   0  0  0  0  0  0  0  0  0  0  0  0
   -2.2398    0.0703   -0.9951 N   0  0  0  0  0  0  0  0  0  0  0  0
   -2.7976    0.2301   -1.8295 H   0  0  0  0  0  0  0  0  0  0  0  0
   -1.0108    0.8967   -0.9058 C   0  0  1  0  0  0  0  0  0  0  0  0
   -0.6581    1.0505   -1.9313 H   0  0  0  0  0  0  0  0  0  0  0  0
   -1.4076    2.2616   -0.3210 C   0  0  0  0  0  0  0  0  0  0  0  0
   -1.9318    2.1146    0.6291 H   0  0  0  0  0  0  0  0  0  0  0  0
   -0.5153    2.8629   -0.1149 H   0  0  0  0  0  0  0  0  0  0  0  0
   -2.2864    3.0140   -1.2856 C   0  0  0  0  0  0  0  0  0  0  0  0
   -3.6589    3.0719   -1.2628 C   0  0  0  0  0  0  0  0  0  0  0  0
   -4.2973    2.6053   -0.5157 H   0  0  0  0  0  0  0  0  0  0  0  0
   -4.0657    3.8303   -2.3589 N   0  0  0  0  0  0  0  0  0  0  0  0
   -5.0288    4.0704   -2.5863 H   0  0  0  0  0  0  0  0  0  0  0  0
   -2.9650    4.2530   -3.0886 C   0  0  0  0  0  0  0  0  0  0  0  0
   -2.8535    5.0207   -4.2483 C   0  0  0  0  0  0  0  0  0  0  0  0
   -3.7409    5.4058   -4.7381 H   0  0  0  0  0  0  0  0  0  0  0  0
   -1.5800    5.2872   -4.7718 C   0  0  0  0  0  0  0  0  0  0  0  0
   -1.4776    5.8831   -5.6739 H   0  0  0  0  0  0  0  0  0  0  0  0
   -0.4360    4.7846   -4.1325 C   0  0  0  0  0  0  0  0  0  0  0  0
    0.5490    4.9916   -4.5400 H   0  0  0  0  0  0  0  0  0  0  0  0
   -0.5588    4.0164   -2.9661 C   0  0  0  0  0  0  0  0  0  0  0  0
    0.3236    3.6263   -2.4675 H   0  0  0  0  0  0  0  0  0  0  0  0
   -1.8333    3.7588   -2.4506 C   0  0  0  0  0  0  0  0  0  0  0  0
    0.2344    0.3961   -0.1277 C   0  0  0  0  0  0  0  0  0  0  0  0
    1.3174    0.4170   -0.7002 O   0  0  0  0  0  0  0  0  0  0  0  0
    0.2054    0.0949    1.2204 N   0  0  0  0  0  0  0  0  0  0  0  0
   -0.7137   -0.2046    1.5546 H   0  0  0  0  0  0  0  0  0  0  0  0
    1.3741   -0.3982    1.9373 C   0  0  0  0  0  0  0  0  0  0  0  0
    2.1948    0.3241    1.8773 H   0  0  0  0  0  0  0  0  0  0  0  0
    1.1296   -0.5533    2.9922 H   0  0  0  0  0  0  0  0  0  0  0  0
    1.7099   -1.3502    1.5136 H   0  0  0  0  0  0  0  0  0  0  0  0
  1  2  1  0  0  0  0
  2  3  1  0  0  0  0
  2  4  1  0  0  0  0
  2  5  1  0  0  0  0
  5  6  2  0  0  0  0
  5  7  1  0  0  0  0
  7  8  1  0  0  0  0
  7  9  1  0  0  0  0
  9 10  1  0  0  0  0
  9 11  1  0  0  0  0
  9 29  1  0  0  0  0
 11 12  1  0  0  0  0
 11 13  1  0  0  0  0
 11 14  1  0  0  0  0
 14 15  2  0  0  0  0
 14 28  1  0  0  0  0
 15 16  1  0  0  0  0
 15 17  1  0  0  0  0
 17 18  1  0  0  0  0
 17 19  1  0  0  0  0
 19 20  1  0  0  0  0
 19 28  2  0  0  0  0
 20 21  1  0  0  0  0
 20 22  2  0  0  0  0
 22 23  1  0  0  0  0
 22 24  1  0  0  0  0
 24 25  1  0  0  0  0
 24 26  2  0  0  0  0
 26 27  1  0  0  0  0
 26 28  1  0  0  0  0
 29 30  2  0  0  0  0
 29 31  1  0  0  0  0
 31 32  1  0  0  0  0
 31 33  1  0  0  0  0
 33 34  1  0  0  0  0
 33 35  1  0  0  0  0
 33 36  1  0  0  0  0
M  END
$$$$

  -OEChem-01062216103D

 36 37  0     1  0  0  0  0  0999 V2000
   -4.1387   -2.6455   -0.1158 H   0  0  0  0  0  0  0  0  0  0  0  0
   -3.9106   -1.8101   -0.7839 C   0  0  0  0  0  0  0  0  0  0  0  0
   -4.7719   -1.1386   -0.8146 H   0  0  0  0  0  0  0  0  0  0  0  0
   -3.7277   -2.2039   -1.7867 H   0  0  0  0  0  0  0  0  0  0  0  0
   -2.6864   -1.0629   -0.2893 C   0  0  0  0  0  0  0  0  0  0  0  0
   -2.1769   -1.4048    0.7613 O   0  0  0  0  0  0  0  0  0  0  0  0
   -2.2566    0.0382   -1.0035 N   0  0  0  0  0  0  0  0  0  0  0  0
   -2.8295    0.2508   -1.8158 H   0  0  0  0  0  0  0  0  0  0  0  0
   -1.0210    0.8564   -0.9015 C   0  0  1  0  0  0  0  0  0  0  0  0
   -0.6673    1.0113   -1.9265 H   0  0  0  0  0  0  0  0  0  0  0  0
   -1.4287    2.2184   -0.3162 C   0  0  0  0  0  0  0  0  0  0  0  0
   -1.9617    2.0643    0.6278 H   0  0  0  0  0  0  0  0  0  0  0  0
   -0.5409    2.8216   -0.0965 H   0  0  0  0  0  0  0  0  0  0  0  0
   -2.2985    2.9770   -1.2853 C   0  0  0  0  0  0  0  0  0  0  0  0
   -3.6712    3.0339   -1.2772 C   0  0  0  0  0  0  0  0  0  0  0  0
   -4.3175    2.5639   -0.5391 H   0  0  0  0  0  0  0  0  0  0  0  0
   -4.0664    3.8004   -2.3718 N   0  0  0  0  0  0  0  0  0  0  0  0
   -5.0263    4.0483   -2.6036 H   0  0  0  0  0  0  0  0  0  0  0  0
   -2.9585    4.2288   -3.0864 C   0  0  0  0  0  0  0  0  0  0  0  0
   -2.8355    5.0058   -4.2385 C   0  0  0  0  0  0  0  0  0  0  0  0
   -3.7187    5.3931   -4.7345 H   0  0  0  0  0  0  0  0  0  0  0  0
   -1.5566    5.2781   -4.7457 C   0  0  0  0  0  0  0  0  0  0  0  0
   -1.4456    5.8824   -5.6412 H   0  0  0  0  0  0  0  0  0  0  0  0
   -0.4192    4.7714   -4.0973 C   0  0  0  0  0  0  0  0  0  0  0  0
    0.5702    4.9833   -4.4915 H   0  0  0  0  0  0  0  0  0  0  0  0
   -0.5541    3.9935   -2.9386 C   0  0  0  0  0  0  0  0  0  0  0  0
    0.3223    3.5999   -2.4320 H   0  0  0  0  0  0  0  0  0  0  0  0
   -1.8338    3.7306   -2.4399 C   0  0  0  0  0  0  0  0  0  0  0  0
    0.2395    0.3904   -0.1219 C   0  0  0  0  0  0  0  0  0  0  0  0
    1.3325    0.6478   -0.6122 O   0  0  0  0  0  0  0  0  0  0  0  0
    0.2146   -0.1810    1.1349 N   0  0  0  0  0  0  0  0  0  0  0  0
   -0.6886   -0.5694    1.4164 H   0  0  0  0  0  0  0  0  0  0  0  0
    1.4093   -0.6546    1.8216 C   0  0  0  0  0  0  0  0  0  0  0  0
    2.1307    0.1600    1.9442 H   0  0  0  0  0  0  0  0  0  0  0  0
    1.1471   -1.0328    2.8143 H   0  0  0  0  0  0  0  0  0  0  0  0
    1.8817   -1.4628    1.2541 H   0  0  0  0  0  0  0  0  0  0  0  0
  1  2  1  0  0  0  0
  2  3  1  0  0  0  0
  2  4  1  0  0  0  0
  2  5  1  0  0  0  0
  5  6  2  0  0  0  0
  5  7  1  0  0  0  0
  7  8  1  0  0  0  0
  7  9  1  0  0  0  0
  9 10  1  0  0  0  0
  9 11  1  0  0  0  0
  9 29  1  0  0  0  0
 11 12  1  0  0  0  0
 11 13  1  0  0  0  0
 11 14  1  0  0  0  0
 14 15  2  0  0  0  0
 14 28  1  0  0  0  0
 15 16  1  0  0  0  0
 15 17  1  0  0  0  0
 17 18  1  0  0  0  0
 17 19  1  0  0  0  0
 19 20  1  0  0  0  0
 19 28  2  0  0  0  0
 20 21  1  0  0  0  0
 20 22  2  0  0  0  0
 22 23  1  0  0  0  0
 22 24  1  0  0  0  0
 24 25  1  0  0  0  0
 24 26  2  0  0  0  0
 26 27  1  0  0  0  0
 26 28  1  0  0  0  0
 29 30  2  0  0  0  0
 29 31  1  0  0  0  0
 31 32  1  0  0  0  0
 31 33  1  0  0  0  0
 33 34  1  0  0  0  0
 33 35  1  0  0  0  0
 33 36  1  0  0  0  0
M  END
$$$$

  -OEChem-01062216103D

 36 37  0     1  0  0  0  0  0999 V2000
   -4.2739   -2.5733   -0.0795 H   0  0  0  0  0  0  0  0  0  0  0  0
   -4.0360   -1.7263   -0.7297 C   0  0  0  0  0  0  0  0  0  0  0  0
   -4.8689   -1.0194   -0.7048 H   0  0  0  0  0  0  0  0  0  0  0  0
   -3.9082   -2.0940   -1.7509 H   0  0  0  0  0  0  0  0  0  0  0  0
   -2.7633   -1.0465   -0.2605 C   0  0  0  0  0  0  0  0  0  0  0  0
   -2.2474   -1.4289    0.7722 O   0  0  0  0  0  0  0  0  0  0  0  0
   -2.3007    0.0400   -0.9771 N   0  0  0  0  0  0  0  0  0  0  0  0
   -2.8932    0.2876   -1.7652 H   0  0  0  0  0  0  0  0  0  0  0  0
   -1.0377    0.8223   -0.9077 C   0  0  1  0  0  0  0  0  0  0  0  0
   -0.7088    0.9639   -1.9428 H   0  0  0  0  0  0  0  0  0  0  0  0
   -1.4080    2.1955   -0.3194 C   0  0  0  0  0  0  0  0  0  0  0  0
   -1.9259    2.0551    0.6352 H   0  0  0  0  0  0  0  0  0  0  0  0
   -0.5076    2.7861   -0.1185 H   0  0  0  0  0  0  0  0  0  0  0  0
   -2.2809    2.9661   -1.2761 C   0  0  0  0  0  0  0  0  0  0  0  0
   -3.6520    3.0501   -1.2444 C   0  0  0  0  0  0  0  0  0  0  0  0
   -4.2944    2.5985   -0.4915 H   0  0  0  0  0  0  0  0  0  0  0  0
   -4.0516    3.8151   -2.3386 N   0  0  0  0  0  0  0  0  0  0  0  0
   -5.0105    4.0796   -2.5558 H   0  0  0  0  0  0  0  0  0  0  0  0
   -2.9481    4.2164   -3.0762 C   0  0  0  0  0  0  0  0  0  0  0  0
   -2.8296    4.9808   -4.2374 C   0  0  0  0  0  0  0  0  0  0  0  0
   -3.7130    5.3811   -4.7222 H   0  0  0  0  0  0  0  0  0  0  0  0
   -1.5546    5.2236   -4.7687 C   0  0  0  0  0  0  0  0  0  0  0  0
   -1.4467    5.8165   -5.6719 H   0  0  0  0  0  0  0  0  0  0  0  0
   -0.4162    4.7018   -4.1348 C   0  0  0  0  0  0  0  0  0  0  0  0
    0.5704    4.8913   -4.5473 H   0  0  0  0  0  0  0  0  0  0  0  0
   -0.5459    3.9367   -2.9668 C   0  0  0  0  0  0  0  0  0  0  0  0
    0.3317    3.5315   -2.4710 H   0  0  0  0  0  0  0  0  0  0  0  0
   -1.8220    3.7019   -2.4447 C   0  0  0  0  0  0  0  0  0  0  0  0
    0.2449    0.3481   -0.1660 C   0  0  0  0  0  0  0  0  0  0  0  0
    1.3164    0.7767   -0.5784 O   0  0  0  0  0  0  0  0  0  0  0  0
    0.2773   -0.4662    0.9476 N   0  0  0  0  0  0  0  0  0  0  0  0
   -0.6109   -0.8882    1.2261 H   0  0  0  0  0  0  0  0  0  0  0  0
    1.5013   -0.9244    1.5914 C   0  0  0  0  0  0  0  0  0  0  0  0
    2.1002   -0.0720    1.9285 H   0  0  0  0  0  0  0  0  0  0  0  0
    1.2585   -1.5406    2.4625 H   0  0  0  0  0  0  0  0  0  0  0  0
    2.0983   -1.5243    0.8968 H   0  0  0  0  0  0  0  0  0  0  0  0
  1  2  1  0  0  0  0
  2  3  1  0  0  0  0
  2  4  1  0  0  0  0
  2  5  1  0  0  0  0
  5  6  2  0  0  0  0
  5  7  1  0  0  0  0
  7  8  1  0  0  0  0
  7  9  1  0  0  0  0
  9 10  1  0  0  0  0
  9 11  1  0  0  0  0
  9 29  1  0  0  0  0
 11 12  1  0  0  0  0
 11 13  1  0  0  0  0
 11 14  1  0  0  0  0
 14 15  2  0  0  0  0
 14 28  1  0  0  0  0
 15 16  1  0  0  0  0
 15 17  1  0  0  0  0
 17 18  1  0  0  0  0
 17 19  1  0  0  0  0
 19 20  1  0  0  0  0
 19 28  2  0  0  0  0
 20 21  1  0  0  0  0
 20 22  2  0  0  0  0
 22 23  1  0  0  0  0
 22 24  1  0  0  0  0
 24 25  1  0  0  0  0
 24 26  2  0  0  0  0
 26 27  1  0  0  0  0
 26 28  1  0  0  0  0
 29 30  2  0  0  0  0
 29 31  1  0  0  0  0
 31 32  1  0  0  0  0
 31 33  1  0  0  0  0
 33 34  1  0  0  0  0
 33 35  1  0  0  0  0
 33 36  1  0  0  0  0
M  END
$$$$

  -OEChem-01062216103D

 36 37  0     1  0  0  0  0  0999 V2000
   -3.6468   -2.6687    0.3132 H   0  0  0  0  0  0  0  0  0  0  0  0
   -3.5145   -1.8617   -0.4131 C   0  0  0  0  0  0  0  0  0  0  0  0
   -4.4680   -1.3440   -0.5422 H   0  0  0  0  0  0  0  0  0  0  0  0
   -3.2099   -2.2963   -1.3681 H   0  0  0  0  0  0  0  0  0  0  0  0
   -2.4589   -0.8880    0.0754 C   0  0  0  0  0  0  0  0  0  0  0  0
   -2.0916   -0.9515    1.2322 O   0  0  0  0  0  0  0  0  0  0  0  0
   -2.1072    0.1718   -0.7325 N   0  0  0  0  0  0  0  0  0  0  0  0
   -2.6504    0.2263   -1.5893 H   0  0  0  0  0  0  0  0  0  0  0  0
   -0.8903    1.0235   -0.7378 C   0  0  1  0  0  0  0  0  0  0  0  0
   -0.5883    1.1209   -1.7853 H   0  0  0  0  0  0  0  0  0  0  0  0
   -1.3718    2.4032   -0.2395 C   0  0  0  0  0  0  0  0  0  0  0  0
   -1.8765    2.2843    0.7251 H   0  0  0  0  0  0  0  0  0  0  0  0
   -0.5316    3.0870   -0.0817 H   0  0  0  0  0  0  0  0  0  0  0  0
   -2.3050    3.0311   -1.2438 C   0  0  0  0  0  0  0  0  0  0  0  0
   -3.6782    3.0033   -1.2106 C   0  0  0  0  0  0  0  0  0  0  0  0
   -4.2792    2.5506   -0.4244 H   0  0  0  0  0  0  0  0  0  0  0  0
   -4.1392    3.6527   -2.3545 N   0  0  0  0  0  0  0  0  0  0  0  0
   -5.1168    3.8194   -2.5843 H   0  0  0  0  0  0  0  0  0  0  0  0
   -3.0724    4.0951   -3.1216 C   0  0  0  0  0  0  0  0  0  0  0  0
   -3.0167    4.7868   -4.3316 C   0  0  0  0  0  0  0  0  0  0  0  0
   -3.9302    5.0751   -4.8396 H   0  0  0  0  0  0  0  0  0  0  0  0
   -1.7655    5.1052   -4.8798 C   0  0  0  0  0  0  0  0  0  0  0  0
   -1.7066    5.6449   -5.8203 H   0  0  0  0  0  0  0  0  0  0  0  0
   -0.5879    4.7305   -4.2137 C   0  0  0  0  0  0  0  0  0  0  0  0
    0.3797    4.9814   -4.6380 H   0  0  0  0  0  0  0  0  0  0  0  0
   -0.6553    4.0366   -2.9972 C   0  0  0  0  0  0  0  0  0  0  0  0
    0.2515    3.7484   -2.4730 H   0  0  0  0  0  0  0  0  0  0  0  0
   -1.9080    3.7240   -2.4600 C   0  0  0  0  0  0  0  0  0  0  0  0
    0.4500    0.6804   -0.0088 C   0  0  0  0  0  0  0  0  0  0  0  0
    1.3888    1.4539   -0.1330 O   0  0  0  0  0  0  0  0  0  0  0  0
    0.7331   -0.2514    0.9608 N   0  0  0  0  0  0  0  0  0  0  0  0
    1.5693    0.0249    1.4678 H   0  0  0  0  0  0  0  0  0  0  0  0
    0.6815   -1.6722    0.6390 C   0  0  0  0  0  0  0  0  0  0  0  0
    0.2277   -2.2297    1.4647 H   0  0  0  0  0  0  0  0  0  0  0  0
    0.1015   -1.8602   -0.2696 H   0  0  0  0  0  0  0  0  0  0  0  0
    1.6940   -2.0546    0.4768 H   0  0  0  0  0  0  0  0  0  0  0  0
  1  2  1  0  0  0  0
  2  3  1  0  0  0  0
  2  4  1  0  0  0  0
  2  5  1  0  0  0  0
  5  6  2  0  0  0  0
  5  7  1  0  0  0  0
  7  8  1  0  0  0  0
  7  9  1  0  0  0  0
  9 10  1  0  0  0  0
  9 11  1  0  0  0  0
  9 29  1  0  0  0  0
 11 12  1  0  0  0  0
 11 13  1  0  0  0  0
 11 14  1  0  0  0  0
 14 15  2  0  0  0  0
 14 28  1  0  0  0  0
 15 16  1  0  0  0  0
 15 17  1  0  0  0  0
 17 18  1  0  0  0  0
 17 19  1  0  0  0  0
 19 20  1  0  0  0  0
 19 28  2  0  0  0  0
 20 21  1  0  0  0  0
 20 22  2  0  0  0  0
 22 23  1  0  0  0  0
 22 24  1  0  0  0  0
 24 25  1  0  0  0  0
 24 26  2  0  0  0  0
 26 27  1  0  0  0  0
 26 28  1  0  0  0  0
 29 30  2  0  0  0  0
 29 31  1  0  0  0  0
 31 32  1  0  0  0  0
 31 33  1  0  0  0  0
 33 34  1  0  0  0  0
 33 35  1  0  0  0  0
 33 36  1  0  0  0  0
M  END
$$$$

  -OEChem-01062216103D

 36 37  0     1  0  0  0  0  0999 V2000
   -3.8729   -2.7495    0.0826 H   0  0  0  0  0  0  0  0  0  0  0  0
   -3.7444   -1.9325   -0.6332 C   0  0  0  0  0  0  0  0  0  0  0  0
   -4.6689   -1.3519   -0.6756 H   0  0  0  0  0  0  0  0  0  0  0  0
   -3.5434   -2.3600   -1.6186 H   0  0  0  0  0  0  0  0  0  0  0  0
   -2.5906   -1.0433   -0.2091 C   0  0  0  0  0  0  0  0  0  0  0  0
   -2.1356   -1.1662    0.9108 O   0  0  0  0  0  0  0  0  0  0  0  0
   -2.2538    0.0348   -0.9988 N   0  0  0  0  0  0  0  0  0  0  0  0
   -2.8750    0.1513   -1.7938 H   0  0  0  0  0  0  0  0  0  0  0  0
   -0.9425    0.7088   -1.1726 C   0  0  1  0  0  0  0  0  0  0  0  0
   -0.8209    0.8747   -2.2480 H   0  0  0  0  0  0  0  0  0  0  0  0
   -1.0642    2.0778   -0.4797 C   0  0  0  0  0  0  0  0  0  0  0  0
   -1.3875    1.9319    0.5563 H   0  0  0  0  0  0  0  0  0  0  0  0
   -0.0951    2.5871   -0.4510 H   0  0  0  0  0  0  0  0  0  0  0  0
   -2.0446    2.9588   -1.2092 C   0  0  0  0  0  0  0  0  0  0  0  0
   -3.3662    3.1445   -0.8849 C   0  0  0  0  0  0  0  0  0  0  0  0
   -3.8725    2.6995   -0.0306 H   0  0  0  0  0  0  0  0  0  0  0  0
   -3.9177    3.9951   -1.8416 N   0  0  0  0  0  0  0  0  0  0  0  0
   -4.8764    4.3371   -1.8436 H   0  0  0  0  0  0  0  0  0  0  0  0
   -2.9625    4.3463   -2.7834 C   0  0  0  0  0  0  0  0  0  0  0  0
   -3.0250    5.1550   -3.9183 C   0  0  0  0  0  0  0  0  0  0  0  0
   -3.9529    5.6458   -4.1894 H   0  0  0  0  0  0  0  0  0  0  0  0
   -1.8747    5.3223   -4.7028 C   0  0  0  0  0  0  0  0  0  0  0  0
   -1.9091    5.9481   -5.5896 H   0  0  0  0  0  0  0  0  0  0  0  0
   -0.6783    4.6818   -4.3440 C   0  0  0  0  0  0  0  0  0  0  0  0
    0.2113    4.8126   -4.9528 H   0  0  0  0  0  0  0  0  0  0  0  0
   -0.6252    3.8738   -3.1992 C   0  0  0  0  0  0  0  0  0  0  0  0
    0.2979    3.3768   -2.9151 H   0  0  0  0  0  0  0  0  0  0  0  0
   -1.7779    3.7148   -2.4236 C   0  0  0  0  0  0  0  0  0  0  0  0
    0.4181    0.0952   -0.7253 C   0  0  0  0  0  0  0  0  0  0  0  0
    1.4261    0.5109   -1.2778 O   0  0  0  0  0  0  0  0  0  0  0  0
    0.6629   -1.1127   -0.1188 N   0  0  0  0  0  0  0  0  0  0  0  0
    1.5058   -1.5118   -0.5223 H   0  0  0  0  0  0  0  0  0  0  0  0
    0.7077   -1.1233    1.3393 C   0  0  0  0  0  0  0  0  0  0  0  0
    0.1318   -0.2947    1.7661 H   0  0  0  0  0  0  0  0  0  0  0  0
    0.2973   -2.0631    1.7220 H   0  0  0  0  0  0  0  0  0  0  0  0
    1.7424   -1.0292    1.6834 H   0  0  0  0  0  0  0  0  0  0  0  0
  1  2  1  0  0  0  0
  2  3  1  0  0  0  0
  2  4  1  0  0  0  0
  2  5  1  0  0  0  0
  5  6  2  0  0  0  0
  5  7  1  0  0  0  0
  7  8  1  0  0  0  0
  7  9  1  0  0  0  0
  9 10  1  0  0  0  0
  9 11  1  0  0  0  0
  9 29  1  0  0  0  0
 11 12  1  0  0  0  0
 11 13  1  0  0  0  0
 11 14  1  0  0  0  0
 14 15  2  0  0  0  0
 14 28  1  0  0  0  0
 15 16  1  0  0  0  0
 15 17  1  0  0  0  0
 17 18  1  0  0  0  0
 17 19  1  0  0  0  0
 19 20  1  0  0  0  0
 19 28  2  0  0  0  0
 20 21  1  0  0  0  0
 20 22  2  0  0  0  0
 22 23  1  0  0  0  0
 22 24  1  0  0  0  0
 24 25  1  0  0  0  0
 24 26  2  0  0  0  0
 26 27  1  0  0  0  0
 26 28  1  0  0  0  0
 29 30  2  0  0  0  0
 29 31  1  0  0  0  0
 31 32  1  0  0  0  0
 31 33  1  0  0  0  0
 33 34  1  0  0  0  0
 33 35  1  0  0  0  0
 33 36  1  0  0  0  0
M  END
$$$$

  -OEChem-01062216103D

 36 37  0     1  0  0  0  0  0999 V2000
   -4.2583   -2.5338   -0.0512 H   0  0  0  0  0  0  0  0  0  0  0  0
   -4.0106   -1.7103   -0.7274 C   0  0  0  0  0  0  0  0  0  0  0  0
   -4.8176   -0.9743   -0.6941 H   0  0  0  0  0  0  0  0  0  0  0  0
   -3.9263   -2.1039   -1.7433 H   0  0  0  0  0  0  0  0  0  0  0  0
   -2.7020   -1.0656   -0.3108 C   0  0  0  0  0  0  0  0  0  0  0  0
   -2.1279   -1.4901    0.6742 O   0  0  0  0  0  0  0  0  0  0  0  0
   -2.2562    0.0349   -1.0154 N   0  0  0  0  0  0  0  0  0  0  0  0
   -2.8806    0.3253   -1.7634 H   0  0  0  0  0  0  0  0  0  0  0  0
   -0.9857    0.8053   -0.9529 C   0  0  1  0  0  0  0  0  0  0  0  0
   -0.6624    0.9668   -1.9861 H   0  0  0  0  0  0  0  0  0  0  0  0
   -1.3761    2.1680   -0.3387 C   0  0  0  0  0  0  0  0  0  0  0  0
   -1.8876    2.0034    0.6155 H   0  0  0  0  0  0  0  0  0  0  0  0
   -0.4937    2.7809   -0.1297 H   0  0  0  0  0  0  0  0  0  0  0  0
   -2.2643    2.9392   -1.2812 C   0  0  0  0  0  0  0  0  0  0  0  0
   -3.6365    3.0040   -1.2482 C   0  0  0  0  0  0  0  0  0  0  0  0
   -4.2723    2.5342   -0.5008 H   0  0  0  0  0  0  0  0  0  0  0  0
   -4.0468    3.7785   -2.3317 N   0  0  0  0  0  0  0  0  0  0  0  0
   -5.0087    4.0375   -2.5420 H   0  0  0  0  0  0  0  0  0  0  0  0
   -2.9485    4.2086   -3.0610 C   0  0  0  0  0  0  0  0  0  0  0  0
   -2.8384    4.9960   -4.2076 C   0  0  0  0  0  0  0  0  0  0  0  0
   -3.7264    5.3918   -4.6875 H   0  0  0  0  0  0  0  0  0  0  0  0
   -1.5654    5.2699   -4.7290 C   0  0  0  0  0  0  0  0  0  0  0  0
   -1.4637    5.8834   -5.6195 H   0  0  0  0  0  0  0  0  0  0  0  0
   -0.4206    4.7551   -4.1005 C   0  0  0  0  0  0  0  0  0  0  0  0
    0.5642    4.9703   -4.5040 H   0  0  0  0  0  0  0  0  0  0  0  0
   -0.5422    3.9664   -2.9478 C   0  0  0  0  0  0  0  0  0  0  0  0
    0.3398    3.5689   -2.4534 H   0  0  0  0  0  0  0  0  0  0  0  0
   -1.8160    3.7012   -2.4359 C   0  0  0  0  0  0  0  0  0  0  0  0
    0.2996    0.2785   -0.2431 C   0  0  0  0  0  0  0  0  0  0  0  0
    1.2686    1.0260   -0.1649 O   0  0  0  0  0  0  0  0  0  0  0  0
    0.4975   -1.0363    0.1313 N   0  0  0  0  0  0  0  0  0  0  0  0
   -0.3598   -1.5722    0.2752 H   0  0  0  0  0  0  0  0  0  0  0  0
    1.7056   -1.5009    0.8017 C   0  0  0  0  0  0  0  0  0  0  0  0
    1.8490   -0.9663    1.7464 H   0  0  0  0  0  0  0  0  0  0  0  0
    1.6281   -2.5709    1.0157 H   0  0  0  0  0  0  0  0  0  0  0  0
    2.5837   -1.3400    0.1676 H   0  0  0  0  0  0  0  0  0  0  0  0
  1  2  1  0  0  0  0
  2  3  1  0  0  0  0
  2  4  1  0  0  0  0
  2  5  1  0  0  0  0
  5  6  2  0  0  0  0
  5  7  1  0  0  0  0
  7  8  1  0  0  0  0
  7  9  1  0  0  0  0
  9 10  1  0  0  0  0
  9 11  1  0  0  0  0
  9 29  1  0  0  0  0
 11 12  1  0  0  0  0
 11 13  1  0  0  0  0
 11 14  1  0  0  0  0
 14 15  2  0  0  0  0
 14 28  1  0  0  0  0
 15 16  1  0  0  0  0
 15 17  1  0  0  0  0
 17 18  1  0  0  0  0
 17 19  1  0  0  0  0
 19 20  1  0  0  0  0
 19 28  2  0  0  0  0
 20 21  1  0  0  0  0
 20 22  2  0  0  0  0
 22 23  1  0  0  0  0
 22 24  1  0  0  0  0
 24 25  1  0  0  0  0
 24 26  2  0  0  0  0
 26 27  1  0  0  0  0
 26 28  1  0  0  0  0
 29 30  2  0  0  0  0
 29 31  1  0  0  0  0
 31 32  1  0  0  0  0
 31 33  1  0  0  0  0
 33 34  1  0  0  0  0
 33 35  1  0  0  0  0
 33 36  1  0  0  0  0
M  END
$$$$

  -OEChem-01062216103D

 36 37  0     1  0  0  0  0  0999 V2000
   -4.1825   -2.5288   -0.0050 H   0  0  0  0  0  0  0  0  0  0  0  0
   -3.9688   -1.6837   -0.6660 C   0  0  0  0  0  0  0  0  0  0  0  0
   -4.7597   -0.9388   -0.5489 H   0  0  0  0  0  0  0  0  0  0  0  0
   -3.9619   -2.0396   -1.6993 H   0  0  0  0  0  0  0  0  0  0  0  0
   -2.6235   -1.0734   -0.3188 C   0  0  0  0  0  0  0  0  0  0  0  0
   -1.9712   -1.5655    0.5823 O   0  0  0  0  0  0  0  0  0  0  0  0
   -2.2053    0.0436   -1.0150 N   0  0  0  0  0  0  0  0  0  0  0  0
   -2.8699    0.3769   -1.7086 H   0  0  0  0  0  0  0  0  0  0  0  0
   -0.9480    0.8333   -0.9417 C   0  0  1  0  0  0  0  0  0  0  0  0
   -0.6149    1.0019   -1.9703 H   0  0  0  0  0  0  0  0  0  0  0  0
   -1.3582    2.1934   -0.3317 C   0  0  0  0  0  0  0  0  0  0  0  0
   -1.8717    2.0255    0.6207 H   0  0  0  0  0  0  0  0  0  0  0  0
   -0.4850    2.8189   -0.1227 H   0  0  0  0  0  0  0  0  0  0  0  0
   -2.2494    2.9527   -1.2820 C   0  0  0  0  0  0  0  0  0  0  0  0
   -3.6226    2.9968   -1.2517 C   0  0  0  0  0  0  0  0  0  0  0  0
   -4.2527    2.5238   -0.5015 H   0  0  0  0  0  0  0  0  0  0  0  0
   -4.0432    3.7554   -2.3420 N   0  0  0  0  0  0  0  0  0  0  0  0
   -5.0089    3.9968   -2.5562 H   0  0  0  0  0  0  0  0  0  0  0  0
   -2.9511    4.1955   -3.0739 C   0  0  0  0  0  0  0  0  0  0  0  0
   -2.8550    4.9720   -4.2288 C   0  0  0  0  0  0  0  0  0  0  0  0
   -3.7501    5.3465   -4.7129 H   0  0  0  0  0  0  0  0  0  0  0  0
   -1.5872    5.2613   -4.7540 C   0  0  0  0  0  0  0  0  0  0  0  0
   -1.4966    5.8652   -5.6520 H   0  0  0  0  0  0  0  0  0  0  0  0
   -0.4338    4.7744   -4.1190 C   0  0  0  0  0  0  0  0  0  0  0  0
    0.5470    5.0023   -4.5257 H   0  0  0  0  0  0  0  0  0  0  0  0
   -0.5419    3.9972   -2.9569 C   0  0  0  0  0  0  0  0  0  0  0  0
    0.3470    3.6232   -2.4574 H   0  0  0  0  0  0  0  0  0  0  0  0
   -1.8109    3.7131   -2.4427 C   0  0  0  0  0  0  0  0  0  0  0  0
    0.3248    0.2818   -0.2265 C   0  0  0  0  0  0  0  0  0  0  0  0
    1.2162    1.0569    0.1030 O   0  0  0  0  0  0  0  0  0  0  0  0
    0.6122   -1.0691   -0.1615 N   0  0  0  0  0  0  0  0  0  0  0  0
   -0.2181   -1.6627   -0.1418 H   0  0  0  0  0  0  0  0  0  0  0  0
    1.8136   -1.5874    0.4821 C   0  0  0  0  0  0  0  0  0  0  0  0
    1.8364   -1.3011    1.5388 H   0  0  0  0  0  0  0  0  0  0  0  0
    1.8339   -2.6793    0.4164 H   0  0  0  0  0  0  0  0  0  0  0  0
    2.7115   -1.1979   -0.0090 H   0  0  0  0  0  0  0  0  0  0  0  0
  1  2  1  0  0  0  0
  2  3  1  0  0  0  0
  2  4  1  0  0  0  0
  2  5  1  0  0  0  0
  5  6  2  0  0  0  0
  5  7  1  0  0  0  0
  7  8  1  0  0  0  0
  7  9  1  0  0  0  0
  9 10  1  0  0  0  0
  9 11  1  0  0  0  0
  9 29  1  0  0  0  0
 11 12  1  0  0  0  0
 11 13  1  0  0  0  0
 11 14  1  0  0  0  0
 14 15  2  0  0  0  0
 14 28  1  0  0  0  0
 15 16  1  0  0  0  0
 15 17  1  0  0  0  0
 17 18  1  0  0  0  0
 17 19  1  0  0  0  0
 19 20  1  0  0  0  0
 19 28  2  0  0  0  0
 20 21  1  0  0  0  0
 20 22  2  0  0  0  0
 22 23  1  0  0  0  0
 22 24  1  0  0  0  0
 24 25  1  0  0  0  0
 24 26  2  0  0  0  0
 26 27  1  0  0  0  0
 26 28  1  0  0  0  0
 29 30  2  0  0  0  0
 29 31  1  0  0  0  0
 31 32  1  0  0  0  0
 31 33  1  0  0  0  0
 33 34  1  0  0  0  0
 33 35  1  0  0  0  0
 33 36  1  0  0  0  0
M  END
$$$$

  -OEChem-01062216103D

 36 37  0     1  0  0  0  0  0999 V2000
   -4.0840   -2.5201    0.0860 H   0  0  0  0  0  0  0  0  0  0  0  0
   -3.9046   -1.6759   -0.5861 C   0  0  0  0  0  0  0  0  0  0  0  0
   -4.6746   -0.9208   -0.4117 H   0  0  0  0  0  0  0  0  0  0  0  0
   -3.9740   -2.0275   -1.6185 H   0  0  0  0  0  0  0  0  0  0  0  0
   -2.5302   -1.0859   -0.3302 C   0  0  0  0  0  0  0  0  0  0  0  0
   -1.8013   -1.6238    0.4812 O   0  0  0  0  0  0  0  0  0  0  0  0
   -2.1516    0.0427   -1.0314 N   0  0  0  0  0  0  0  0  0  0  0  0
   -2.8586    0.4055   -1.6656 H   0  0  0  0  0  0  0  0  0  0  0  0
   -0.9125    0.8573   -0.9508 C   0  0  1  0  0  0  0  0  0  0  0  0
   -0.5702    1.0335   -1.9753 H   0  0  0  0  0  0  0  0  0  0  0  0
   -1.3412    2.2115   -0.3419 C   0  0  0  0  0  0  0  0  0  0  0  0
   -1.8521    2.0383    0.6109 H   0  0  0  0  0  0  0  0  0  0  0  0
   -0.4743    2.8473   -0.1361 H   0  0  0  0  0  0  0  0  0  0  0  0
   -2.2401    2.9571   -1.2950 C   0  0  0  0  0  0  0  0  0  0  0  0
   -3.6137    2.9819   -1.2673 C   0  0  0  0  0  0  0  0  0  0  0  0
   -4.2386    2.5016   -0.5176 H   0  0  0  0  0  0  0  0  0  0  0  0
   -4.0427    3.7317   -2.3604 N   0  0  0  0  0  0  0  0  0  0  0  0
   -5.0113    3.9581   -2.5785 H   0  0  0  0  0  0  0  0  0  0  0  0
   -2.9551    4.1879   -3.0893 C   0  0  0  0  0  0  0  0  0  0  0  0
   -2.8668    4.9651   -4.2445 C   0  0  0  0  0  0  0  0  0  0  0  0
   -3.7659    5.3243   -4.7329 H   0  0  0  0  0  0  0  0  0  0  0  0
   -1.6016    5.2754   -4.7643 C   0  0  0  0  0  0  0  0  0  0  0  0
   -1.5172    5.8806   -5.6623 H   0  0  0  0  0  0  0  0  0  0  0  0
   -0.4429    4.8081   -4.1242 C   0  0  0  0  0  0  0  0  0  0  0  0
    0.5357    5.0539   -4.5257 H   0  0  0  0  0  0  0  0  0  0  0  0
   -0.5433    4.0287   -2.9630 C   0  0  0  0  0  0  0  0  0  0  0  0
    0.3493    3.6691   -2.4600 H   0  0  0  0  0  0  0  0  0  0  0  0
   -1.8095    3.7240   -2.4540 C   0  0  0  0  0  0  0  0  0  0  0  0
    0.3433    0.2887   -0.2231 C   0  0  0  0  0  0  0  0  0  0  0  0
    1.1121    1.0337    0.3752 O   0  0  0  0  0  0  0  0  0  0  0  0
    0.7547   -1.0127   -0.4472 N   0  0  0  0  0  0  0  0  0  0  0  0
   -0.0200   -1.6487   -0.6305 H   0  0  0  0  0  0  0  0  0  0  0  0
    1.9267   -1.5795    0.2089 C   0  0  0  0  0  0  0  0  0  0  0  0
    1.8056   -1.5557    1.2970 H   0  0  0  0  0  0  0  0  0  0  0  0
    2.0650   -2.6190   -0.1028 H   0  0  0  0  0  0  0  0  0  0  0  0
    2.8281   -1.0183   -0.0590 H   0  0  0  0  0  0  0  0  0  0  0  0
  1  2  1  0  0  0  0
  2  3  1  0  0  0  0
  2  4  1  0  0  0  0
  2  5  1  0  0  0  0
  5  6  2  0  0  0  0
  5  7  1  0  0  0  0
  7  8  1  0  0  0  0
  7  9  1  0  0  0  0
  9 10  1  0  0  0  0
  9 11  1  0  0  0  0
  9 29  1  0  0  0  0
 11 12  1  0  0  0  0
 11 13  1  0  0  0  0
 11 14  1  0  0  0  0
 14 15  2  0  0  0  0
 14 28  1  0  0  0  0
 15 16  1  0  0  0  0
 15 17  1  0  0  0  0
 17 18  1  0  0  0  0
 17 19  1  0  0  0  0
 19 20  1  0  0  0  0
 19 28  2  0  0  0  0
 20 21  1  0  0  0  0
 20 22  2  0  0  0  0
 22 23  1  0  0  0  0
 22 24  1  0  0  0  0
 24 25  1  0  0  0  0
 24 26  2  0  0  0  0
 26 27  1  0  0  0  0
 26 28  1  0  0  0  0
 29 30  2  0  0  0  0
 29 31  1  0  0  0  0
 31 32  1  0  0  0  0
 31 33  1  0  0  0  0
 33 34  1  0  0  0  0
 33 35  1  0  0  0  0
 33 36  1  0  0  0  0
M  END
$$$$

  -OEChem-01062216103D

 36 37  0     1  0  0  0  0  0999 V2000
   -3.9730   -2.5444    0.1315 H   0  0  0  0  0  0  0  0  0  0  0  0
   -3.8334   -1.6874   -0.5340 C   0  0  0  0  0  0  0  0  0  0  0  0
   -4.5986   -0.9409   -0.3084 H   0  0  0  0  0  0  0  0  0  0  0  0
   -3.9520   -2.0215   -1.5676 H   0  0  0  0  0  0  0  0  0  0  0  0
   -2.4517   -1.0923   -0.3368 C   0  0  0  0  0  0  0  0  0  0  0  0
   -1.6750   -1.6450    0.4184 O   0  0  0  0  0  0  0  0  0  0  0  0
   -2.1115    0.0446   -1.0455 N   0  0  0  0  0  0  0  0  0  0  0  0
   -2.8498    0.4206   -1.6343 H   0  0  0  0  0  0  0  0  0  0  0  0
   -0.8905    0.8815   -0.9562 C   0  0  1  0  0  0  0  0  0  0  0  0
   -0.5393    1.0662   -1.9759 H   0  0  0  0  0  0  0  0  0  0  0  0
   -1.3283    2.2304   -0.3462 C   0  0  0  0  0  0  0  0  0  0  0  0
   -1.8377    2.0541    0.6069 H   0  0  0  0  0  0  0  0  0  0  0  0
   -0.4614    2.8669   -0.1407 H   0  0  0  0  0  0  0  0  0  0  0  0
   -2.2321    2.9692   -1.2998 C   0  0  0  0  0  0  0  0  0  0  0  0
   -3.6060    2.9829   -1.2720 C   0  0  0  0  0  0  0  0  0  0  0  0
   -4.2270    2.4993   -0.5211 H   0  0  0  0  0  0  0  0  0  0  0  0
   -4.0415    3.7264   -2.3668 N   0  0  0  0  0  0  0  0  0  0  0  0
   -5.0121    3.9454   -2.5842 H   0  0  0  0  0  0  0  0  0  0  0  0
   -2.9579    4.1885   -3.0977 C   0  0  0  0  0  0  0  0  0  0  0  0
   -2.8768    4.9619   -4.2556 C   0  0  0  0  0  0  0  0  0  0  0  0
   -3.7792    5.3125   -4.7439 H   0  0  0  0  0  0  0  0  0  0  0  0
   -1.6148    5.2799   -4.7782 C   0  0  0  0  0  0  0  0  0  0  0  0
   -1.5367    5.8821   -5.6787 H   0  0  0  0  0  0  0  0  0  0  0  0
   -0.4520    4.8245   -4.1374 C   0  0  0  0  0  0  0  0  0  0  0  0
    0.5241    5.0757   -4.5417 H   0  0  0  0  0  0  0  0  0  0  0  0
   -0.5450    4.0493   -2.9728 C   0  0  0  0  0  0  0  0  0  0  0  0
    0.3511    3.6996   -2.4693 H   0  0  0  0  0  0  0  0  0  0  0  0
   -1.8083    3.7360   -2.4615 C   0  0  0  0  0  0  0  0  0  0  0  0
    0.3486    0.3020   -0.2152 C   0  0  0  0  0  0  0  0  0  0  0  0
    0.9475    0.9499    0.6367 O   0  0  0  0  0  0  0  0  0  0  0  0
    0.9264   -0.8675   -0.6768 N   0  0  0  0  0  0  0  0  0  0  0  0
    0.2808   -1.4850   -1.1610 H   0  0  0  0  0  0  0  0  0  0  0  0
    2.0601   -1.4869   -0.0020 C   0  0  0  0  0  0  0  0  0  0  0  0
    1.7913   -1.7568    1.0248 H   0  0  0  0  0  0  0  0  0  0  0  0
    2.3642   -2.3942   -0.5321 H   0  0  0  0  0  0  0  0  0  0  0  0
    2.9143   -0.8023    0.0243 H   0  0  0  0  0  0  0  0  0  0  0  0
  1  2  1  0  0  0  0
  2  3  1  0  0  0  0
  2  4  1  0  0  0  0
  2  5  1  0  0  0  0
  5  6  2  0  0  0  0
  5  7  1  0  0  0  0
  7  8  1  0  0  0  0
  7  9  1  0  0  0  0
  9 10  1  0  0  0  0
  9 11  1  0  0  0  0
  9 29  1  0  0  0  0
 11 12  1  0  0  0  0
 11 13  1  0  0  0  0
 11 14  1  0  0  0  0
 14 15  2  0  0  0  0
 14 28  1  0  0  0  0
 15 16  1  0  0  0  0
 15 17  1  0  0  0  0
 17 18  1  0  0  0  0
 17 19  1  0  0  0  0
 19 20  1  0  0  0  0
 19 28  2  0  0  0  0
 20 21  1  0  0  0  0
 20 22  2  0  0  0  0
 22 23  1  0  0  0  0
 22 24  1  0  0  0  0
 24 25  1  0  0  0  0
 24 26  2  0  0  0  0
 26 27  1  0  0  0  0
 26 28  1  0  0  0  0
 29 30  2  0  0  0  0
 29 31  1  0  0  0  0
 31 32  1  0  0  0  0
 31 33  1  0  0  0  0
 33 34  1  0  0  0  0
 33 35  1  0  0  0  0
 33 36  1  0  0  0  0
M  END
$$$$

  -OEChem-01062216103D

 36 37  0     1  0  0  0  0  0999 V2000
   -3.9233   -2.5496    0.1689 H   0  0  0  0  0  0  0  0  0  0  0  0
   -3.8010   -1.6915   -0.4985 C   0  0  0  0  0  0  0  0  0  0  0  0
   -4.5515   -0.9399   -0.2430 H   0  0  0  0  0  0  0  0  0  0  0  0
   -3.9593   -2.0214   -1.5280 H   0  0  0  0  0  0  0  0  0  0  0  0
   -2.4092   -1.1065   -0.3485 C   0  0  0  0  0  0  0  0  0  0  0  0
   -1.6060   -1.6752    0.3665 O   0  0  0  0  0  0  0  0  0  0  0  0
   -2.0871    0.0297   -1.0675 N   0  0  0  0  0  0  0  0  0  0  0  0
   -2.8423    0.4120   -1.6297 H   0  0  0  0  0  0  0  0  0  0  0  0
   -0.8787    0.8811   -0.9687 C   0  0  1  0  0  0  0  0  0  0  0  0
   -0.5177    1.0713   -1.9839 H   0  0  0  0  0  0  0  0  0  0  0  0
   -1.3237    2.2267   -0.3600 C   0  0  0  0  0  0  0  0  0  0  0  0
   -1.8368    2.0464    0.5905 H   0  0  0  0  0  0  0  0  0  0  0  0
   -0.4557    2.8600   -0.1482 H   0  0  0  0  0  0  0  0  0  0  0  0
   -2.2279    2.9656   -1.3134 C   0  0  0  0  0  0  0  0  0  0  0  0
   -3.6020    2.9732   -1.2856 C   0  0  0  0  0  0  0  0  0  0  0  0
   -4.2211    2.4833   -0.5368 H   0  0  0  0  0  0  0  0  0  0  0  0
   -4.0405    3.7214   -2.3759 N   0  0  0  0  0  0  0  0  0  0  0  0
   -5.0121    3.9362   -2.5927 H   0  0  0  0  0  0  0  0  0  0  0  0
   -2.9592    4.1931   -3.1040 C   0  0  0  0  0  0  0  0  0  0  0  0
   -2.8823    4.9755   -4.2566 C   0  0  0  0  0  0  0  0  0  0  0  0
   -3.7865    5.3263   -4.7415 H   0  0  0  0  0  0  0  0  0  0  0  0
   -1.6222    5.3026   -4.7779 C   0  0  0  0  0  0  0  0  0  0  0  0
   -1.5466    5.9121   -5.6737 H   0  0  0  0  0  0  0  0  0  0  0  0
   -0.4573    4.8463   -4.1417 C   0  0  0  0  0  0  0  0  0  0  0  0
    0.5174    5.1042   -4.5451 H   0  0  0  0  0  0  0  0  0  0  0  0
   -0.5463    4.0624   -2.9825 C   0  0  0  0  0  0  0  0  0  0  0  0
    0.3516    3.7134   -2.4827 H   0  0  0  0  0  0  0  0  0  0  0  0
   -1.8073    3.7407   -2.4714 C   0  0  0  0  0  0  0  0  0  0  0  0
    0.3458    0.3046   -0.2058 C   0  0  0  0  0  0  0  0  0  0  0  0
    0.7644    0.8218    0.8247 O   0  0  0  0  0  0  0  0  0  0  0  0
    1.1156   -0.6683   -0.8185 N   0  0  0  0  0  0  0  0  0  0  0  0
    0.6419   -1.1983   -1.5432 H   0  0  0  0  0  0  0  0  0  0  0  0
    2.2425   -1.3013   -0.1452 C   0  0  0  0  0  0  0  0  0  0  0  0
    1.9054   -1.8122    0.7629 H   0  0  0  0  0  0  0  0  0  0  0  0
    2.7115   -2.0368   -0.8057 H   0  0  0  0  0  0  0  0  0  0  0  0
    2.9965   -0.5558    0.1282 H   0  0  0  0  0  0  0  0  0  0  0  0
  1  2  1  0  0  0  0
  2  3  1  0  0  0  0
  2  4  1  0  0  0  0
  2  5  1  0  0  0  0
  5  6  2  0  0  0  0
  5  7  1  0  0  0  0
  7  8  1  0  0  0  0
  7  9  1  0  0  0  0
  9 10  1  0  0  0  0
  9 11  1  0  0  0  0
  9 29  1  0  0  0  0
 11 12  1  0  0  0  0
 11 13  1  0  0  0  0
 11 14  1  0  0  0  0
 14 15  2  0  0  0  0
 14 28  1  0  0  0  0
 15 16  1  0  0  0  0
 15 17  1  0  0  0  0
 17 18  1  0  0  0  0
 17 19  1  0  0  0  0
 19 20  1  0  0  0  0
 19 28  2  0  0  0  0
 20 21  1  0  0  0  0
 20 22  2  0  0  0  0
 22 23  1  0  0  0  0
 22 24  1  0  0  0  0
 24 25  1  0  0  0  0
 24 26  2  0  0  0  0
 26 27  1  0  0  0  0
 26 28  1  0  0  0  0
 29 30  2  0  0  0  0
 29 31  1  0  0  0  0
 31 32  1  0  0  0  0
 31 33  1  0  0  0  0
 33 34  1  0  0  0  0
 33 35  1  0  0  0  0
 33 36  1  0  0  0  0
M  END
$$$$

  -OEChem-01062216103D

 36 37  0     1  0  0  0  0  0999 V2000
   -3.9322   -2.5168    0.2239 H   0  0  0  0  0  0  0  0  0  0  0  0
   -3.8071   -1.6834   -0.4734 C   0  0  0  0  0  0  0  0  0  0  0  0
   -4.5327   -0.9062   -0.2225 H   0  0  0  0  0  0  0  0  0  0  0  0
   -3.9995   -2.0409   -1.4878 H   0  0  0  0  0  0  0  0  0  0  0  0
   -2.3980   -1.1289   -0.3781 C   0  0  0  0  0  0  0  0  0  0  0  0
   -1.5697   -1.7362    0.2738 O   0  0  0  0  0  0  0  0  0  0  0  0
   -2.0833    0.0089   -1.0982 N   0  0  0  0  0  0  0  0  0  0  0  0
   -2.8570    0.4153   -1.6162 H   0  0  0  0  0  0  0  0  0  0  0  0
   -0.8806    0.8656   -0.9868 C   0  0  1  0  0  0  0  0  0  0  0  0
   -0.5167    1.0639   -1.9993 H   0  0  0  0  0  0  0  0  0  0  0  0
   -1.3276    2.2058   -0.3700 C   0  0  0  0  0  0  0  0  0  0  0  0
   -1.8455    2.0181    0.5767 H   0  0  0  0  0  0  0  0  0  0  0  0
   -0.4582    2.8335   -0.1473 H   0  0  0  0  0  0  0  0  0  0  0  0
   -2.2292    2.9527   -1.3190 C   0  0  0  0  0  0  0  0  0  0  0  0
   -3.6031    2.9605   -1.2945 C   0  0  0  0  0  0  0  0  0  0  0  0
   -4.2240    2.4663   -0.5502 H   0  0  0  0  0  0  0  0  0  0  0  0
   -4.0386    3.7147   -2.3818 N   0  0  0  0  0  0  0  0  0  0  0  0
   -5.0095    3.9300   -2.6006 H   0  0  0  0  0  0  0  0  0  0  0  0
   -2.9552    4.1910   -3.1036 C   0  0  0  0  0  0  0  0  0  0  0  0
   -2.8759    4.9803   -4.2509 C   0  0  0  0  0  0  0  0  0  0  0  0
   -3.7796    5.3323   -4.7361 H   0  0  0  0  0  0  0  0  0  0  0  0
   -1.6145    5.3128   -4.7655 C   0  0  0  0  0  0  0  0  0  0  0  0
   -1.5379    5.9282   -5.6570 H   0  0  0  0  0  0  0  0  0  0  0  0
   -0.4507    4.8548   -4.1283 C   0  0  0  0  0  0  0  0  0  0  0  0
    0.5248    5.1176   -4.5265 H   0  0  0  0  0  0  0  0  0  0  0  0
   -0.5423    4.0632   -2.9745 C   0  0  0  0  0  0  0  0  0  0  0  0
    0.3543    3.7128   -2.4730 H   0  0  0  0  0  0  0  0  0  0  0  0
   -1.8049    3.7359   -2.4701 C   0  0  0  0  0  0  0  0  0  0  0  0
    0.3397    0.2981   -0.2123 C   0  0  0  0  0  0  0  0  0  0  0  0
    0.5919    0.6605    0.9323 O   0  0  0  0  0  0  0  0  0  0  0  0
    1.2991   -0.4233   -0.9013 N   0  0  0  0  0  0  0  0  0  0  0  0
    1.0028   -0.8233   -1.7858 H   0  0  0  0  0  0  0  0  0  0  0  0
    2.4501   -1.0173   -0.2326 C   0  0  0  0  0  0  0  0  0  0  0  0
    2.1213   -1.7116    0.5480 H   0  0  0  0  0  0  0  0  0  0  0  0
    3.0628   -1.5684   -0.9524 H   0  0  0  0  0  0  0  0  0  0  0  0
    3.0719   -0.2407    0.2252 H   0  0  0  0  0  0  0  0  0  0  0  0
  1  2  1  0  0  0  0
  2  3  1  0  0  0  0
  2  4  1  0  0  0  0
  2  5  1  0  0  0  0
  5  6  2  0  0  0  0
  5  7  1  0  0  0  0
  7  8  1  0  0  0  0
  7  9  1  0  0  0  0
  9 10  1  0  0  0  0
  9 11  1  0  0  0  0
  9 29  1  0  0  0  0
 11 12  1  0  0  0  0
 11 13  1  0  0  0  0
 11 14  1  0  0  0  0
 14 15  2  0  0  0  0
 14 28  1  0  0  0  0
 15 16  1  0  0  0  0
 15 17  1  0  0  0  0
 17 18  1  0  0  0  0
 17 19  1  0  0  0  0
 19 20  1  0  0  0  0
 19 28  2  0  0  0  0
 20 21  1  0  0  0  0
 20 22  2  0  0  0  0
 22 23  1  0  0  0  0
 22 24  1  0  0  0  0
 24 25  1  0  0  0  0
 24 26  2  0  0  0  0
 26 27  1  0  0  0  0
 26 28  1  0  0  0  0
 29 30  2  0  0  0  0
 29 31  1  0  0  0  0
 31 32  1  0  0  0  0
 31 33  1  0  0  0  0
 33 34  1  0  0  0  0
 33 35  1  0  0  0  0
 33 36  1  0  0  0  0
M  END
$$$$

  -OEChem-01062216103D

 36 37  0     1  0  0  0  0  0999 V2000
   -3.9360   -2.5408    0.2150 H   0  0  0  0  0  0  0  0  0  0  0  0
   -3.8257   -1.6856   -0.4581 C   0  0  0  0  0  0  0  0  0  0  0  0
   -4.5297   -0.9081   -0.1530 H   0  0  0  0  0  0  0  0  0  0  0  0
   -4.0617   -2.0057   -1.4759 H   0  0  0  0  0  0  0  0  0  0  0  0
   -2.4055   -1.1545   -0.3979 C   0  0  0  0  0  0  0  0  0  0  0  0
   -1.5645   -1.7966    0.2023 O   0  0  0  0  0  0  0  0  0  0  0  0
   -2.0915   -0.0163   -1.1178 N   0  0  0  0  0  0  0  0  0  0  0  0
   -2.8739    0.4058   -1.6091 H   0  0  0  0  0  0  0  0  0  0  0  0
   -0.8908    0.8413   -0.9978 C   0  0  1  0  0  0  0  0  0  0  0  0
   -0.5269    1.0426   -2.0097 H   0  0  0  0  0  0  0  0  0  0  0  0
   -1.3326    2.1805   -0.3765 C   0  0  0  0  0  0  0  0  0  0  0  0
   -1.8543    1.9916    0.5678 H   0  0  0  0  0  0  0  0  0  0  0  0
   -0.4593    2.8007   -0.1476 H   0  0  0  0  0  0  0  0  0  0  0  0
   -2.2294    2.9358   -1.3234 C   0  0  0  0  0  0  0  0  0  0  0  0
   -3.6034    2.9504   -1.3017 C   0  0  0  0  0  0  0  0  0  0  0  0
   -4.2284    2.4542   -0.5624 H   0  0  0  0  0  0  0  0  0  0  0  0
   -4.0330    3.7154   -2.3840 N   0  0  0  0  0  0  0  0  0  0  0  0
   -5.0027    3.9360   -2.6039 H   0  0  0  0  0  0  0  0  0  0  0  0
   -2.9460    4.1921   -3.1001 C   0  0  0  0  0  0  0  0  0  0  0  0
   -2.8595    4.9898   -4.2413 C   0  0  0  0  0  0  0  0  0  0  0  0
   -3.7595    5.3514   -4.7263 H   0  0  0  0  0  0  0  0  0  0  0  0
   -1.5949    5.3182   -4.7508 C   0  0  0  0  0  0  0  0  0  0  0  0
   -1.5122    5.9395   -5.6378 H   0  0  0  0  0  0  0  0  0  0  0  0
   -0.4350    4.8494   -4.1141 C   0  0  0  0  0  0  0  0  0  0  0  0
    0.5429    5.1098   -4.5084 H   0  0  0  0  0  0  0  0  0  0  0  0
   -0.5339    4.0503   -2.9662 C   0  0  0  0  0  0  0  0  0  0  0  0
    0.3596    3.6919   -2.4652 H   0  0  0  0  0  0  0  0  0  0  0  0
   -1.7994    3.7259   -2.4677 C   0  0  0  0  0  0  0  0  0  0  0  0
    0.3293    0.2839   -0.2164 C   0  0  0  0  0  0  0  0  0  0  0  0
    0.4516    0.4893    0.9868 O   0  0  0  0  0  0  0  0  0  0  0  0
    1.4389   -0.1527   -0.9200 N   0  0  0  0  0  0  0  0  0  0  0  0
    1.2867   -0.4003   -1.8923 H   0  0  0  0  0  0  0  0  0  0  0  0
    2.6346   -0.6607   -0.2584 C   0  0  0  0  0  0  0  0  0  0  0  0
    2.3851   -1.5172    0.3770 H   0  0  0  0  0  0  0  0  0  0  0  0
    3.3698   -0.9825   -1.0021 H   0  0  0  0  0  0  0  0  0  0  0  0
    3.0905    0.1176    0.3622 H   0  0  0  0  0  0  0  0  0  0  0  0
  1  2  1  0  0  0  0
  2  3  1  0  0  0  0
  2  4  1  0  0  0  0
  2  5  1  0  0  0  0
  5  6  2  0  0  0  0
  5  7  1  0  0  0  0
  7  8  1  0  0  0  0
  7  9  1  0  0  0  0
  9 10  1  0  0  0  0
  9 11  1  0  0  0  0
  9 29  1  0  0  0  0
 11 12  1  0  0  0  0
 11 13  1  0  0  0  0
 11 14  1  0  0  0  0
 14 15  2  0  0  0  0
 14 28  1  0  0  0  0
 15 16  1  0  0  0  0
 15 17  1  0  0  0  0
 17 18  1  0  0  0  0
 17 19  1  0  0  0  0
 19 20  1  0  0  0  0
 19 28  2  0  0  0  0
 20 21  1  0  0  0  0
 20 22  2  0  0  0  0
 22 23  1  0  0  0  0
 22 24  1  0  0  0  0
 24 25  1  0  0  0  0
 24 26  2  0  0  0  0
 26 27  1  0  0  0  0
 26 28  1  0  0  0  0
 29 30  2  0  0  0  0
 29 31  1  0  0  0  0
 31 32  1  0  0  0  0
 31 33  1  0  0  0  0
 33 34  1  0  0  0  0
 33 35  1  0  0  0  0
 33 36  1  0  0  0  0
M  END
$$$$

  -OEChem-01062216103D

 36 37  0     1  0  0  0  0  0999 V2000
   -3.9610   -2.5231    0.2339 H   0  0  0  0  0  0  0  0  0  0  0  0
   -3.8543   -1.6621   -0.4325 C   0  0  0  0  0  0  0  0  0  0  0  0
   -4.5095   -0.8631   -0.0783 H   0  0  0  0  0  0  0  0  0  0  0  0
   -4.1574   -1.9561   -1.4403 H   0  0  0  0  0  0  0  0  0  0  0  0
   -2.4133   -1.1864   -0.4432 C   0  0  0  0  0  0  0  0  0  0  0  0
   -1.5601   -1.8861    0.0688 O   0  0  0  0  0  0  0  0  0  0  0  0
   -2.0966   -0.0447   -1.1556 N   0  0  0  0  0  0  0  0  0  0  0  0
   -2.8906    0.4065   -1.5996 H   0  0  0  0  0  0  0  0  0  0  0  0
   -0.8951    0.8092   -1.0211 C   0  0  1  0  0  0  0  0  0  0  0  0
   -0.5325    1.0187   -2.0316 H   0  0  0  0  0  0  0  0  0  0  0  0
   -1.3370    2.1401   -0.3840 C   0  0  0  0  0  0  0  0  0  0  0  0
   -1.8633    1.9391    0.5553 H   0  0  0  0  0  0  0  0  0  0  0  0
   -0.4638    2.7555   -0.1421 H   0  0  0  0  0  0  0  0  0  0  0  0
   -2.2295    2.9081   -1.3242 C   0  0  0  0  0  0  0  0  0  0  0  0
   -3.6038    2.9258   -1.3096 C   0  0  0  0  0  0  0  0  0  0  0  0
   -4.2353    2.4223   -0.5804 H   0  0  0  0  0  0  0  0  0  0  0  0
   -4.0252    3.7032   -2.3862 N   0  0  0  0  0  0  0  0  0  0  0  0
   -4.9933    3.9263   -2.6112 H   0  0  0  0  0  0  0  0  0  0  0  0
   -2.9328    4.1834   -3.0916 C   0  0  0  0  0  0  0  0  0  0  0  0
   -2.8391    4.9907   -4.2251 C   0  0  0  0  0  0  0  0  0  0  0  0
   -3.7362    5.3576   -4.7112 H   0  0  0  0  0  0  0  0  0  0  0  0
   -1.5716    5.3213   -4.7260 C   0  0  0  0  0  0  0  0  0  0  0  0
   -1.4836    5.9495   -5.6078 H   0  0  0  0  0  0  0  0  0  0  0  0
   -0.4159    4.8446   -4.0878 C   0  0  0  0  0  0  0  0  0  0  0  0
    0.5642    5.1056   -4.4756 H   0  0  0  0  0  0  0  0  0  0  0  0
   -0.5219    4.0358   -2.9473 C   0  0  0  0  0  0  0  0  0  0  0  0
    0.3685    3.6714   -2.4452 H   0  0  0  0  0  0  0  0  0  0  0  0
   -1.7906    3.7090   -2.4577 C   0  0  0  0  0  0  0  0  0  0  0  0
    0.3276    0.2620   -0.2377 C   0  0  0  0  0  0  0  0  0  0  0  0
    0.3432    0.2906    0.9884 O   0  0  0  0  0  0  0  0  0  0  0  0
    1.5421    0.1320   -0.8911 N   0  0  0  0  0  0  0  0  0  0  0  0
    1.5131    0.0712   -1.9038 H   0  0  0  0  0  0  0  0  0  0  0  0
    2.7674   -0.2652   -0.2075 C   0  0  0  0  0  0  0  0  0  0  0  0
    2.6355   -1.2367    0.2803 H   0  0  0  0  0  0  0  0  0  0  0  0
    3.5908   -0.3456   -0.9235 H   0  0  0  0  0  0  0  0  0  0  0  0
    3.0417    0.4758    0.5505 H   0  0  0  0  0  0  0  0  0  0  0  0
  1  2  1  0  0  0  0
  2  3  1  0  0  0  0
  2  4  1  0  0  0  0
  2  5  1  0  0  0  0
  5  6  2  0  0  0  0
  5  7  1  0  0  0  0
  7  8  1  0  0  0  0
  7  9  1  0  0  0  0
  9 10  1  0  0  0  0
  9 11  1  0  0  0  0
  9 29  1  0  0  0  0
 11 12  1  0  0  0  0
 11 13  1  0  0  0  0
 11 14  1  0  0  0  0
 14 15  2  0  0  0  0
 14 28  1  0  0  0  0
 15 16  1  0  0  0  0
 15 17  1  0  0  0  0
 17 18  1  0  0  0  0
 17 19  1  0  0  0  0
 19 20  1  0  0  0  0
 19 28  2  0  0  0  0
 20 21  1  0  0  0  0
 20 22  2  0  0  0  0
 22 23  1  0  0  0  0
 22 24  1  0  0  0  0
 24 25  1  0  0  0  0
 24 26  2  0  0  0  0
 26 27  1  0  0  0  0
 26 28  1  0  0  0  0
 29 30  2  0  0  0  0
 29 31  1  0  0  0  0
 31 32  1  0  0  0  0
 31 33  1  0  0  0  0
 33 34  1  0  0  0  0
 33 35  1  0  0  0  0
 33 36  1  0  0  0  0
M  END
$$$$

  -OEChem-01062216103D

 36 37  0     1  0  0  0  0  0999 V2000
   -3.9611   -2.5433    0.2234 H   0  0  0  0  0  0  0  0  0  0  0  0
   -3.8703   -1.6378   -0.3834 C   0  0  0  0  0  0  0  0  0  0  0  0
   -4.4560   -0.8434    0.0848 H   0  0  0  0  0  0  0  0  0  0  0  0
   -4.2691   -1.8403   -1.3802 H   0  0  0  0  0  0  0  0  0  0  0  0
   -2.4145   -1.2206   -0.4812 C   0  0  0  0  0  0  0  0  0  0  0  0
   -1.5574   -1.9794   -0.0694 O   0  0  0  0  0  0  0  0  0  0  0  0
   -2.0950   -0.0823   -1.1972 N   0  0  0  0  0  0  0  0  0  0  0  0
   -2.8986    0.3925   -1.5966 H   0  0  0  0  0  0  0  0  0  0  0  0
   -0.8919    0.7690   -1.0547 C   0  0  1  0  0  0  0  0  0  0  0  0
   -0.5273    0.9776   -2.0646 H   0  0  0  0  0  0  0  0  0  0  0  0
   -1.3318    2.0963   -0.4091 C   0  0  0  0  0  0  0  0  0  0  0  0
   -1.8587    1.8892    0.5284 H   0  0  0  0  0  0  0  0  0  0  0  0
   -0.4575    2.7077   -0.1615 H   0  0  0  0  0  0  0  0  0  0  0  0
   -2.2212    2.8755   -1.3428 C   0  0  0  0  0  0  0  0  0  0  0  0
   -3.5953    2.8967   -1.3279 C   0  0  0  0  0  0  0  0  0  0  0  0
   -4.2285    2.3858   -0.6053 H   0  0  0  0  0  0  0  0  0  0  0  0
   -4.0145    3.6891   -2.3941 N   0  0  0  0  0  0  0  0  0  0  0  0
   -4.9822    3.9150   -2.6176 H   0  0  0  0  0  0  0  0  0  0  0  0
   -2.9209    4.1791   -3.0909 C   0  0  0  0  0  0  0  0  0  0  0  0
   -2.8259    5.0046   -4.2112 C   0  0  0  0  0  0  0  0  0  0  0  0
   -3.7226    5.3782   -4.6933 H   0  0  0  0  0  0  0  0  0  0  0  0
   -1.5578    5.3456   -4.7032 C   0  0  0  0  0  0  0  0  0  0  0  0
   -1.4694    5.9885   -5.5741 H   0  0  0  0  0  0  0  0  0  0  0  0
   -0.4029    4.8614   -4.0695 C   0  0  0  0  0  0  0  0  0  0  0  0
    0.5772    5.1326   -4.4504 H   0  0  0  0  0  0  0  0  0  0  0  0
   -0.5102    4.0331   -2.9430 C   0  0  0  0  0  0  0  0  0  0  0  0
    0.3803    3.6638   -2.4449 H   0  0  0  0  0  0  0  0  0  0  0  0
   -1.7796    3.6948   -2.4625 C   0  0  0  0  0  0  0  0  0  0  0  0
    0.3314    0.2373   -0.2625 C   0  0  0  0  0  0  0  0  0  0  0  0
    0.2653    0.0916    0.9530 O   0  0  0  0  0  0  0  0  0  0  0  0
    1.5959    0.4054   -0.8037 N   0  0  0  0  0  0  0  0  0  0  0  0
    1.6542    0.5370   -1.8083 H   0  0  0  0  0  0  0  0  0  0  0  0
    2.8211    0.1143   -0.0679 C   0  0  0  0  0  0  0  0  0  0  0  0
    2.8287   -0.9290    0.2651 H   0  0  0  0  0  0  0  0  0  0  0  0
    3.6941    0.2807   -0.7061 H   0  0  0  0  0  0  0  0  0  0  0  0
    2.9066    0.7648    0.8089 H   0  0  0  0  0  0  0  0  0  0  0  0
  1  2  1  0  0  0  0
  2  3  1  0  0  0  0
  2  4  1  0  0  0  0
  2  5  1  0  0  0  0
  5  6  2  0  0  0  0
  5  7  1  0  0  0  0
  7  8  1  0  0  0  0
  7  9  1  0  0  0  0
  9 10  1  0  0  0  0
  9 11  1  0  0  0  0
  9 29  1  0  0  0  0
 11 12  1  0  0  0  0
 11 13  1  0  0  0  0
 11 14  1  0  0  0  0
 14 15  2  0  0  0  0
 14 28  1  0  0  0  0
 15 16  1  0  0  0  0
 15 17  1  0  0  0  0
 17 18  1  0  0  0  0
 17 19  1  0  0  0  0
 19 20  1  0  0  0  0
 19 28  2  0  0  0  0
 20 21  1  0  0  0  0
 20 22  2  0  0  0  0
 22 23  1  0  0  0  0
 22 24  1  0  0  0  0
 24 25  1  0  0  0  0
 24 26  2  0  0  0  0
 26 27  1  0  0  0  0
 26 28  1  0  0  0  0
 29 30  2  0  0  0  0
 29 31  1  0  0  0  0
 31 32  1  0  0  0  0
 31 33  1  0  0  0  0
 33 34  1  0  0  0  0
 33 35  1  0  0  0  0
 33 36  1  0  0  0  0
M  END
$$$$

  -OEChem-01062216103D

 36 37  0     1  0  0  0  0  0999 V2000
   -3.9414   -2.5146    0.2808 H   0  0  0  0  0  0  0  0  0  0  0  0
   -3.8596   -1.5938   -0.3041 C   0  0  0  0  0  0  0  0  0  0  0  0
   -4.3540   -0.7879    0.2430 H   0  0  0  0  0  0  0  0  0  0  0  0
   -4.3615   -1.7400   -1.2634 H   0  0  0  0  0  0  0  0  0  0  0  0
   -2.3988   -1.2492   -0.5283 C   0  0  0  0  0  0  0  0  0  0  0  0
   -1.5506   -2.0775   -0.2543 O   0  0  0  0  0  0  0  0  0  0  0  0
   -2.0801   -0.1158   -1.2519 N   0  0  0  0  0  0  0  0  0  0  0  0
   -2.8931    0.3849   -1.5955 H   0  0  0  0  0  0  0  0  0  0  0  0
   -0.8769    0.7345   -1.0992 C   0  0  1  0  0  0  0  0  0  0  0  0
   -0.5052    0.9462   -2.1060 H   0  0  0  0  0  0  0  0  0  0  0  0
   -1.3303    2.0530   -0.4444 C   0  0  0  0  0  0  0  0  0  0  0  0
   -1.8613    1.8309    0.4876 H   0  0  0  0  0  0  0  0  0  0  0  0
   -0.4634    2.6690   -0.1831 H   0  0  0  0  0  0  0  0  0  0  0  0
   -2.2200    2.8388   -1.3720 C   0  0  0  0  0  0  0  0  0  0  0  0
   -3.5945    2.8532   -1.3640 C   0  0  0  0  0  0  0  0  0  0  0  0
   -4.2299    2.3271   -0.6547 H   0  0  0  0  0  0  0  0  0  0  0  0
   -4.0120    3.6648   -2.4161 N   0  0  0  0  0  0  0  0  0  0  0  0
   -4.9797    3.8895   -2.6412 H   0  0  0  0  0  0  0  0  0  0  0  0
   -2.9173    4.1744   -3.0969 C   0  0  0  0  0  0  0  0  0  0  0  0
   -2.8206    5.0241   -4.1989 C   0  0  0  0  0  0  0  0  0  0  0  0
   -3.7166    5.4031   -4.6776 H   0  0  0  0  0  0  0  0  0  0  0  0
   -1.5520    5.3822   -4.6768 C   0  0  0  0  0  0  0  0  0  0  0  0
   -1.4621    6.0438   -5.5334 H   0  0  0  0  0  0  0  0  0  0  0  0
   -0.3980    4.8909   -4.0474 C   0  0  0  0  0  0  0  0  0  0  0  0
    0.5824    5.1759   -4.4172 H   0  0  0  0  0  0  0  0  0  0  0  0
   -0.5070    4.0379   -2.9398 C   0  0  0  0  0  0  0  0  0  0  0  0
    0.3828    3.6633   -2.4454 H   0  0  0  0  0  0  0  0  0  0  0  0
   -1.7768    3.6826   -2.4728 C   0  0  0  0  0  0  0  0  0  0  0  0
    0.3452    0.2205   -0.2929 C   0  0  0  0  0  0  0  0  0  0  0  0
    0.2191   -0.1145    0.8790 O   0  0  0  0  0  0  0  0  0  0  0  0
    1.6051    0.6651   -0.6626 N   0  0  0  0  0  0  0  0  0  0  0  0
    1.7193    0.9932   -1.6161 H   0  0  0  0  0  0  0  0  0  0  0  0
    2.7996    0.4419    0.1447 C   0  0  0  0  0  0  0  0  0  0  0  0
    2.9418   -0.6281    0.3304 H   0  0  0  0  0  0  0  0  0  0  0  0
    3.6838    0.8234   -0.3747 H   0  0  0  0  0  0  0  0  0  0  0  0
    2.7150    0.9585    1.1066 H   0  0  0  0  0  0  0  0  0  0  0  0
  1  2  1  0  0  0  0
  2  3  1  0  0  0  0
  2  4  1  0  0  0  0
  2  5  1  0  0  0  0
  5  6  2  0  0  0  0
  5  7  1  0  0  0  0
  7  8  1  0  0  0  0
  7  9  1  0  0  0  0
  9 10  1  0  0  0  0
  9 11  1  0  0  0  0
  9 29  1  0  0  0  0
 11 12  1  0  0  0  0
 11 13  1  0  0  0  0
 11 14  1  0  0  0  0
 14 15  2  0  0  0  0
 14 28  1  0  0  0  0
 15 16  1  0  0  0  0
 15 17  1  0  0  0  0
 17 18  1  0  0  0  0
 17 19  1  0  0  0  0
 19 20  1  0  0  0  0
 19 28  2  0  0  0  0
 20 21  1  0  0  0  0
 20 22  2  0  0  0  0
 22 23  1  0  0  0  0
 22 24  1  0  0  0  0
 24 25  1  0  0  0  0
 24 26  2  0  0  0  0
 26 27  1  0  0  0  0
 26 28  1  0  0  0  0
 29 30  2  0  0  0  0
 29 31  1  0  0  0  0
 31 32  1  0  0  0  0
 31 33  1  0  0  0  0
 33 34  1  0  0  0  0
 33 35  1  0  0  0  0
 33 36  1  0  0  0  0
M  END
$$$$

  -OEChem-01062216103D

 36 37  0     1  0  0  0  0  0999 V2000
   -3.5276   -2.8429    0.1657 H   0  0  0  0  0  0  0  0  0  0  0  0
   -3.4020   -2.0927   -0.6202 C   0  0  0  0  0  0  0  0  0  0  0  0
   -4.3870   -1.7769   -0.9714 H   0  0  0  0  0  0  0  0  0  0  0  0
   -2.8515   -2.5450   -1.4484 H   0  0  0  0  0  0  0  0  0  0  0  0
   -2.6351   -0.9009   -0.0800 C   0  0  0  0  0  0  0  0  0  0  0  0
   -2.5461   -0.7351    1.1251 O   0  0  0  0  0  0  0  0  0  0  0  0
   -2.3105    0.1459   -0.9186 N   0  0  0  0  0  0  0  0  0  0  0  0
   -2.6815    0.0244   -1.8549 H   0  0  0  0  0  0  0  0  0  0  0  0
   -1.0347    0.9017   -0.8763 C   0  0  1  0  0  0  0  0  0  0  0  0
   -0.6954    1.0171   -1.9100 H   0  0  0  0  0  0  0  0  0  0  0  0
   -1.3607    2.2942   -0.3066 C   0  0  0  0  0  0  0  0  0  0  0  0
   -1.8767    2.1775    0.6529 H   0  0  0  0  0  0  0  0  0  0  0  0
   -0.4486    2.8681   -0.1177 H   0  0  0  0  0  0  0  0  0  0  0  0
   -2.2247    3.0697   -1.2656 C   0  0  0  0  0  0  0  0  0  0  0  0
   -3.5921    3.1750   -1.1995 C   0  0  0  0  0  0  0  0  0  0  0  0
   -4.2192    2.7269   -0.4307 H   0  0  0  0  0  0  0  0  0  0  0  0
   -4.0073    3.9410   -2.2867 N   0  0  0  0  0  0  0  0  0  0  0  0
   -4.9708    4.2005   -2.4888 H   0  0  0  0  0  0  0  0  0  0  0  0
   -2.9168    4.3252   -3.0510 C   0  0  0  0  0  0  0  0  0  0  0  0
   -2.8217    5.0830   -4.2180 C   0  0  0  0  0  0  0  0  0  0  0  0
   -3.7151    5.4867   -4.6816 H   0  0  0  0  0  0  0  0  0  0  0  0
   -1.5588    5.3148   -4.7813 C   0  0  0  0  0  0  0  0  0  0  0  0
   -1.4706    5.9033   -5.6899 H   0  0  0  0  0  0  0  0  0  0  0  0
   -0.4088    4.7900   -4.1717 C   0  0  0  0  0  0  0  0  0  0  0  0
    0.5675    4.9752   -4.6098 H   0  0  0  0  0  0  0  0  0  0  0  0
   -0.5164    4.0307   -2.9978 C   0  0  0  0  0  0  0  0  0  0  0  0
    0.3713    3.6292   -2.5225 H   0  0  0  0  0  0  0  0  0  0  0  0
   -1.7804    3.8014   -2.4444 C   0  0  0  0  0  0  0  0  0  0  0  0
    0.1978    0.3436   -0.1062 C   0  0  0  0  0  0  0  0  0  0  0  0
    0.2404   -0.7837    0.3662 O   0  0  0  0  0  0  0  0  0  0  0  0
    1.4288    0.9288   -0.3613 N   0  0  0  0  0  0  0  0  0  0  0  0
    1.4294    1.8323   -0.8233 H   0  0  0  0  0  0  0  0  0  0  0  0
    2.6976    0.3855    0.1119 C   0  0  0  0  0  0  0  0  0  0  0  0
    2.8881   -0.5934   -0.3406 H   0  0  0  0  0  0  0  0  0  0  0  0
    3.5194    1.0561   -0.1563 H   0  0  0  0  0  0  0  0  0  0  0  0
    2.6838    0.2737    1.2013 H   0  0  0  0  0  0  0  0  0  0  0  0
  1  2  1  0  0  0  0
  2  3  1  0  0  0  0
  2  4  1  0  0  0  0
  2  5  1  0  0  0  0
  5  6  2  0  0  0  0
  5  7  1  0  0  0  0
  7  8  1  0  0  0  0
  7  9  1  0  0  0  0
  9 10  1  0  0  0  0
  9 11  1  0  0  0  0
  9 29  1  0  0  0  0
 11 12  1  0  0  0  0
 11 13  1  0  0  0  0
 11 14  1  0  0  0  0
 14 15  2  0  0  0  0
 14 28  1  0  0  0  0
 15 16  1  0  0  0  0
 15 17  1  0  0  0  0
 17 18  1  0  0  0  0
 17 19  1  0  0  0  0
 19 20  1  0  0  0  0
 19 28  2  0  0  0  0
 20 21  1  0  0  0  0
 20 22  2  0  0  0  0
 22 23  1  0  0  0  0
 22 24  1  0  0  0  0
 24 25  1  0  0  0  0
 24 26  2  0  0  0  0
 26 27  1  0  0  0  0
 26 28  1  0  0  0  0
 29 30  2  0  0  0  0
 29 31  1  0  0  0  0
 31 32  1  0  0  0  0
 31 33  1  0  0  0  0
 33 34  1  0  0  0  0
 33 35  1  0  0  0  0
 33 36  1  0  0  0  0
M  END
$$$$

  -OEChem-01062216103D

 36 37  0     1  0  0  0  0  0999 V2000
   -3.4863   -2.8403    0.2382 H   0  0  0  0  0  0  0  0  0  0  0  0
   -3.4190   -2.0748   -0.5399 C   0  0  0  0  0  0  0  0  0  0  0  0
   -4.4205   -1.6920   -0.7487 H   0  0  0  0  0  0  0  0  0  0  0  0
   -3.0118   -2.5321   -1.4448 H   0  0  0  0  0  0  0  0  0  0  0  0
   -2.5154   -0.9465   -0.0814 C   0  0  0  0  0  0  0  0  0  0  0  0
   -2.1592   -0.8874    1.0851 O   0  0  0  0  0  0  0  0  0  0  0  0
   -2.2587    0.1158   -0.9267 N   0  0  0  0  0  0  0  0  0  0  0  0
   -2.6796    0.0172   -1.8444 H   0  0  0  0  0  0  0  0  0  0  0  0
   -1.0078    0.9090   -0.8897 C   0  0  1  0  0  0  0  0  0  0  0  0
   -0.8054    1.2635   -1.9044 H   0  0  0  0  0  0  0  0  0  0  0  0
   -1.2554    2.1353    0.0116 C   0  0  0  0  0  0  0  0  0  0  0  0
   -1.6209    1.8001    0.9882 H   0  0  0  0  0  0  0  0  0  0  0  0
   -0.3321    2.6940    0.1862 H   0  0  0  0  0  0  0  0  0  0  0  0
   -2.2572    3.0646   -0.6211 C   0  0  0  0  0  0  0  0  0  0  0  0
   -3.6007    3.1037   -0.3407 C   0  0  0  0  0  0  0  0  0  0  0  0
   -4.1078    2.4758    0.3893 H   0  0  0  0  0  0  0  0  0  0  0  0
   -4.1720    4.0781   -1.1565 N   0  0  0  0  0  0  0  0  0  0  0  0
   -5.1556    4.3400   -1.1581 H   0  0  0  0  0  0  0  0  0  0  0  0
   -3.2064    4.6595   -1.9633 C   0  0  0  0  0  0  0  0  0  0  0  0
   -3.2840    5.6619   -2.9304 C   0  0  0  0  0  0  0  0  0  0  0  0
   -4.2347    6.1331   -3.1545 H   0  0  0  0  0  0  0  0  0  0  0  0
   -2.1187    6.0511   -3.6061 C   0  0  0  0  0  0  0  0  0  0  0  0
   -2.1648    6.8303   -4.3614 H   0  0  0  0  0  0  0  0  0  0  0  0
   -0.8930    5.4358   -3.3075 C   0  0  0  0  0  0  0  0  0  0  0  0
    0.0068    5.7401   -3.8337 H   0  0  0  0  0  0  0  0  0  0  0  0
   -0.8261    4.4319   -2.3308 C   0  0  0  0  0  0  0  0  0  0  0  0
    0.1205    3.9576   -2.0966 H   0  0  0  0  0  0  0  0  0  0  0  0
   -1.9934    4.0504   -1.6610 C   0  0  0  0  0  0  0  0  0  0  0  0
    0.2890    0.1770   -0.4396 C   0  0  0  0  0  0  0  0  0  0  0  0
    0.3874   -1.0420   -0.5258 O   0  0  0  0  0  0  0  0  0  0  0  0
    1.4807    0.8835   -0.3865 N   0  0  0  0  0  0  0  0  0  0  0  0
    1.4207    1.8963   -0.3670 H   0  0  0  0  0  0  0  0  0  0  0  0
    2.7786    0.2573   -0.1609 C   0  0  0  0  0  0  0  0  0  0  0  0
    3.0135   -0.4423   -0.9698 H   0  0  0  0  0  0  0  0  0  0  0  0
    3.5637    1.0187   -0.1252 H   0  0  0  0  0  0  0  0  0  0  0  0
    2.7808   -0.2881    0.7888 H   0  0  0  0  0  0  0  0  0  0  0  0
  1  2  1  0  0  0  0
  2  3  1  0  0  0  0
  2  4  1  0  0  0  0
  2  5  1  0  0  0  0
  5  6  2  0  0  0  0
  5  7  1  0  0  0  0
  7  8  1  0  0  0  0
  7  9  1  0  0  0  0
  9 10  1  0  0  0  0
  9 11  1  0  0  0  0
  9 29  1  0  0  0  0
 11 12  1  0  0  0  0
 11 13  1  0  0  0  0
 11 14  1  0  0  0  0
 14 15  2  0  0  0  0
 14 28  1  0  0  0  0
 15 16  1  0  0  0  0
 15 17  1  0  0  0  0
 17 18  1  0  0  0  0
 17 19  1  0  0  0  0
 19 20  1  0  0  0  0
 19 28  2  0  0  0  0
 20 21  1  0  0  0  0
 20 22  2  0  0  0  0
 22 23  1  0  0  0  0
 22 24  1  0  0  0  0
 24 25  1  0  0  0  0
 24 26  2  0  0  0  0
 26 27  1  0  0  0  0
 26 28  1  0  0  0  0
 29 30  2  0  0  0  0
 29 31  1  0  0  0  0
 31 32  1  0  0  0  0
 31 33  1  0  0  0  0
 33 34  1  0  0  0  0
 33 35  1  0  0  0  0
 33 36  1  0  0  0  0
M  END
$$$$

  -OEChem-01062216103D

 36 37  0     1  0  0  0  0  0999 V2000
   -3.4531   -2.8266    0.2392 H   0  0  0  0  0  0  0  0  0  0  0  0
   -3.4084   -2.0497   -0.5291 C   0  0  0  0  0  0  0  0  0  0  0  0
   -4.4137   -1.6551   -0.6931 H   0  0  0  0  0  0  0  0  0  0  0  0
   -3.0407   -2.4963   -1.4561 H   0  0  0  0  0  0  0  0  0  0  0  0
   -2.4776   -0.9355   -0.0896 C   0  0  0  0  0  0  0  0  0  0  0  0
   -2.0623   -0.9058    1.0587 O   0  0  0  0  0  0  0  0  0  0  0  0
   -2.2389    0.1333   -0.9329 N   0  0  0  0  0  0  0  0  0  0  0  0
   -2.6764    0.0453   -1.8441 H   0  0  0  0  0  0  0  0  0  0  0  0
   -0.9954    0.9377   -0.9008 C   0  0  1  0  0  0  0  0  0  0  0  0
   -0.7911    1.2948   -1.9143 H   0  0  0  0  0  0  0  0  0  0  0  0
   -1.2568    2.1629   -0.0008 C   0  0  0  0  0  0  0  0  0  0  0  0
   -1.6153    1.8258    0.9778 H   0  0  0  0  0  0  0  0  0  0  0  0
   -0.3423    2.7372    0.1666 H   0  0  0  0  0  0  0  0  0  0  0  0
   -2.2702    3.0790   -0.6345 C   0  0  0  0  0  0  0  0  0  0  0  0
   -3.6143    3.1041   -0.3550 C   0  0  0  0  0  0  0  0  0  0  0  0
   -4.1158    2.4710    0.3746 H   0  0  0  0  0  0  0  0  0  0  0  0
   -4.1950    4.0726   -1.1714 N   0  0  0  0  0  0  0  0  0  0  0  0
   -5.1812    4.3246   -1.1742 H   0  0  0  0  0  0  0  0  0  0  0  0
   -3.2349    4.6643   -1.9771 C   0  0  0  0  0  0  0  0  0  0  0  0
   -3.3216    5.6653   -2.9449 C   0  0  0  0  0  0  0  0  0  0  0  0
   -4.2769    6.1253   -3.1724 H   0  0  0  0  0  0  0  0  0  0  0  0
   -2.1592    6.0679   -3.6177 C   0  0  0  0  0  0  0  0  0  0  0  0
   -2.2127    6.8463   -4.3731 H   0  0  0  0  0  0  0  0  0  0  0  0
   -0.9272    5.4674   -3.3156 C   0  0  0  0  0  0  0  0  0  0  0  0
   -0.0292    5.7826   -3.8386 H   0  0  0  0  0  0  0  0  0  0  0  0
   -0.8513    4.4634   -2.3394 C   0  0  0  0  0  0  0  0  0  0  0  0
    0.0997    3.9986   -2.1024 H   0  0  0  0  0  0  0  0  0  0  0  0
   -2.0159    4.0685   -1.6729 C   0  0  0  0  0  0  0  0  0  0  0  0
    0.2905    0.1823   -0.4577 C   0  0  0  0  0  0  0  0  0  0  0  0
    0.4334   -0.9985   -0.7572 O   0  0  0  0  0  0  0  0  0  0  0  0
    1.4330    0.8758   -0.0898 N   0  0  0  0  0  0  0  0  0  0  0  0
    1.3248    1.8563    0.1478 H   0  0  0  0  0  0  0  0  0  0  0  0
    2.7020    0.2233    0.2120 C   0  0  0  0  0  0  0  0  0  0  0  0
    3.0676   -0.3294   -0.6599 H   0  0  0  0  0  0  0  0  0  0  0  0
    3.4541    0.9692    0.4864 H   0  0  0  0  0  0  0  0  0  0  0  0
    2.5839   -0.4740    1.0483 H   0  0  0  0  0  0  0  0  0  0  0  0
  1  2  1  0  0  0  0
  2  3  1  0  0  0  0
  2  4  1  0  0  0  0
  2  5  1  0  0  0  0
  5  6  2  0  0  0  0
  5  7  1  0  0  0  0
  7  8  1  0  0  0  0
  7  9  1  0  0  0  0
  9 10  1  0  0  0  0
  9 11  1  0  0  0  0
  9 29  1  0  0  0  0
 11 12  1  0  0  0  0
 11 13  1  0  0  0  0
 11 14  1  0  0  0  0
 14 15  2  0  0  0  0
 14 28  1  0  0  0  0
 15 16  1  0  0  0  0
 15 17  1  0  0  0  0
 17 18  1  0  0  0  0
 17 19  1  0  0  0  0
 19 20  1  0  0  0  0
 19 28  2  0  0  0  0
 20 21  1  0  0  0  0
 20 22  2  0  0  0  0
 22 23  1  0  0  0  0
 22 24  1  0  0  0  0
 24 25  1  0  0  0  0
 24 26  2  0  0  0  0
 26 27  1  0  0  0  0
 26 28  1  0  0  0  0
 29 30  2  0  0  0  0
 29 31  1  0  0  0  0
 31 32  1  0  0  0  0
 31 33  1  0  0  0  0
 33 34  1  0  0  0  0
 33 35  1  0  0  0  0
 33 36  1  0  0  0  0
M  END
$$$$

  -OEChem-01062216103D

 36 37  0     1  0  0  0  0  0999 V2000
   -3.4214   -2.8202    0.2335 H   0  0  0  0  0  0  0  0  0  0  0  0
   -3.3888   -2.0365   -0.5285 C   0  0  0  0  0  0  0  0  0  0  0  0
   -4.3955   -1.6360   -0.6678 H   0  0  0  0  0  0  0  0  0  0  0  0
   -3.0435   -2.4762   -1.4672 H   0  0  0  0  0  0  0  0  0  0  0  0
   -2.4429   -0.9315   -0.0989 C   0  0  0  0  0  0  0  0  0  0  0  0
   -1.9834   -0.9291    1.0328 O   0  0  0  0  0  0  0  0  0  0  0  0
   -2.2223    0.1464   -0.9349 N   0  0  0  0  0  0  0  0  0  0  0  0
   -2.6733    0.0702   -1.8407 H   0  0  0  0  0  0  0  0  0  0  0  0
   -0.9896    0.9652   -0.9028 C   0  0  1  0  0  0  0  0  0  0  0  0
   -0.7861    1.3238   -1.9162 H   0  0  0  0  0  0  0  0  0  0  0  0
   -1.2596    2.1906   -0.0058 C   0  0  0  0  0  0  0  0  0  0  0  0
   -1.6113    1.8545    0.9755 H   0  0  0  0  0  0  0  0  0  0  0  0
   -0.3486    2.7738    0.1511 H   0  0  0  0  0  0  0  0  0  0  0  0
   -2.2819    3.0963   -0.6401 C   0  0  0  0  0  0  0  0  0  0  0  0
   -3.6265    3.1145   -0.3613 C   0  0  0  0  0  0  0  0  0  0  0  0
   -4.1249    2.4816    0.3702 H   0  0  0  0  0  0  0  0  0  0  0  0
   -4.2132    4.0764   -1.1814 N   0  0  0  0  0  0  0  0  0  0  0  0
   -5.2011    4.3221   -1.1862 H   0  0  0  0  0  0  0  0  0  0  0  0
   -3.2560    4.6708   -1.9890 C   0  0  0  0  0  0  0  0  0  0  0  0
   -3.3472    5.6676   -2.9607 C   0  0  0  0  0  0  0  0  0  0  0  0
   -4.3051    6.1206   -3.1913 H   0  0  0  0  0  0  0  0  0  0  0  0
   -2.1859    6.0742   -3.6335 C   0  0  0  0  0  0  0  0  0  0  0  0
   -2.2422    6.8492   -4.3924 H   0  0  0  0  0  0  0  0  0  0  0  0
   -0.9508    5.4814   -3.3278 C   0  0  0  0  0  0  0  0  0  0  0  0
   -0.0535    5.7987   -3.8508 H   0  0  0  0  0  0  0  0  0  0  0  0
   -0.8706    4.4814   -2.3481 C   0  0  0  0  0  0  0  0  0  0  0  0
    0.0825    4.0219   -2.1082 H   0  0  0  0  0  0  0  0  0  0  0  0
   -2.0340    4.0833   -1.6817 C   0  0  0  0  0  0  0  0  0  0  0  0
    0.2917    0.1981   -0.4681 C   0  0  0  0  0  0  0  0  0  0  0  0
    0.5055   -0.9101   -0.9487 O   0  0  0  0  0  0  0  0  0  0  0  0
    1.3369    0.8230    0.1934 N   0  0  0  0  0  0  0  0  0  0  0  0
    1.1332    1.7138    0.6348 H   0  0  0  0  0  0  0  0  0  0  0  0
    2.5662    0.1317    0.5638 C   0  0  0  0  0  0  0  0  0  0  0  0
    3.0714   -0.2585   -0.3259 H   0  0  0  0  0  0  0  0  0  0  0  0
    3.2481    0.8202    1.0715 H   0  0  0  0  0  0  0  0  0  0  0  0
    2.3477   -0.7022    1.2391 H   0  0  0  0  0  0  0  0  0  0  0  0
  1  2  1  0  0  0  0
  2  3  1  0  0  0  0
  2  4  1  0  0  0  0
  2  5  1  0  0  0  0
  5  6  2  0  0  0  0
  5  7  1  0  0  0  0
  7  8  1  0  0  0  0
  7  9  1  0  0  0  0
  9 10  1  0  0  0  0
  9 11  1  0  0  0  0
  9 29  1  0  0  0  0
 11 12  1  0  0  0  0
 11 13  1  0  0  0  0
 11 14  1  0  0  0  0
 14 15  2  0  0  0  0
 14 28  1  0  0  0  0
 15 16  1  0  0  0  0
 15 17  1  0  0  0  0
 17 18  1  0  0  0  0
 17 19  1  0  0  0  0
 19 20  1  0  0  0  0
 19 28  2  0  0  0  0
 20 21  1  0  0  0  0
 20 22  2  0  0  0  0
 22 23  1  0  0  0  0
 22 24  1  0  0  0  0
 24 25  1  0  0  0  0
 24 26  2  0  0  0  0
 26 27  1  0  0  0  0
 26 28  1  0  0  0  0
 29 30  2  0  0  0  0
 29 31  1  0  0  0  0
 31 32  1  0  0  0  0
 31 33  1  0  0  0  0
 33 34  1  0  0  0  0
 33 35  1  0  0  0  0
 33 36  1  0  0  0  0
M  END
$$$$

  -OEChem-01062216103D

 36 37  0     1  0  0  0  0  0999 V2000
   -3.4325   -2.8026    0.2355 H   0  0  0  0  0  0  0  0  0  0  0  0
   -3.3959   -2.0181   -0.5255 C   0  0  0  0  0  0  0  0  0  0  0  0
   -4.3964   -1.5964   -0.6470 H   0  0  0  0  0  0  0  0  0  0  0  0
   -3.0758   -2.4629   -1.4710 H   0  0  0  0  0  0  0  0  0  0  0  0
   -2.4205   -0.9336   -0.1090 C   0  0  0  0  0  0  0  0  0  0  0  0
   -1.9317   -0.9521    1.0102 O   0  0  0  0  0  0  0  0  0  0  0  0
   -2.2024    0.1473   -0.9413 N   0  0  0  0  0  0  0  0  0  0  0  0
   -2.6655    0.0852   -1.8423 H   0  0  0  0  0  0  0  0  0  0  0  0
   -0.9781    0.9772   -0.9057 C   0  0  1  0  0  0  0  0  0  0  0  0
   -0.7720    1.3353   -1.9191 H   0  0  0  0  0  0  0  0  0  0  0  0
   -1.2540    2.2032   -0.0133 C   0  0  0  0  0  0  0  0  0  0  0  0
   -1.6039    1.8696    0.9695 H   0  0  0  0  0  0  0  0  0  0  0  0
   -0.3426    2.7886    0.1382 H   0  0  0  0  0  0  0  0  0  0  0  0
   -2.2799    3.1016   -0.6513 C   0  0  0  0  0  0  0  0  0  0  0  0
   -3.6243    3.1113   -0.3708 C   0  0  0  0  0  0  0  0  0  0  0  0
   -4.1180    2.4758    0.3618 H   0  0  0  0  0  0  0  0  0  0  0  0
   -4.2179    4.0677   -1.1918 N   0  0  0  0  0  0  0  0  0  0  0  0
   -5.2069    4.3086   -1.1947 H   0  0  0  0  0  0  0  0  0  0  0  0
   -3.2652    4.6682   -1.9998 C   0  0  0  0  0  0  0  0  0  0  0  0
   -3.3651    5.6640   -2.9713 C   0  0  0  0  0  0  0  0  0  0  0  0
   -4.3272    6.1081   -3.2018 H   0  0  0  0  0  0  0  0  0  0  0  0
   -2.2076    6.0818   -3.6435 C   0  0  0  0  0  0  0  0  0  0  0  0
   -2.2709    6.8569   -4.4015 H   0  0  0  0  0  0  0  0  0  0  0  0
   -0.9673    5.5007   -3.3375 C   0  0  0  0  0  0  0  0  0  0  0  0
   -0.0729    5.8276   -3.8595 H   0  0  0  0  0  0  0  0  0  0  0  0
   -0.8782    4.5006   -2.3584 C   0  0  0  0  0  0  0  0  0  0  0  0
    0.0798    4.0509   -2.1186 H   0  0  0  0  0  0  0  0  0  0  0  0
   -2.0383    4.0908   -1.6926 C   0  0  0  0  0  0  0  0  0  0  0  0
    0.2997    0.2105   -0.4660 C   0  0  0  0  0  0  0  0  0  0  0  0
    0.6099   -0.8010   -1.0860 O   0  0  0  0  0  0  0  0  0  0  0  0
    1.2033    0.7238    0.4504 N   0  0  0  0  0  0  0  0  0  0  0  0
    0.8662    1.4756    1.0433 H   0  0  0  0  0  0  0  0  0  0  0  0
    2.3919   -0.0057    0.8739 C   0  0  0  0  0  0  0  0  0  0  0  0
    3.0327   -0.2285    0.0141 H   0  0  0  0  0  0  0  0  0  0  0  0
    2.9688    0.5921    1.5858 H   0  0  0  0  0  0  0  0  0  0  0  0
    2.1095   -0.9468    1.3574 H   0  0  0  0  0  0  0  0  0  0  0  0
  1  2  1  0  0  0  0
  2  3  1  0  0  0  0
  2  4  1  0  0  0  0
  2  5  1  0  0  0  0
  5  6  2  0  0  0  0
  5  7  1  0  0  0  0
  7  8  1  0  0  0  0
  7  9  1  0  0  0  0
  9 10  1  0  0  0  0
  9 11  1  0  0  0  0
  9 29  1  0  0  0  0
 11 12  1  0  0  0  0
 11 13  1  0  0  0  0
 11 14  1  0  0  0  0
 14 15  2  0  0  0  0
 14 28  1  0  0  0  0
 15 16  1  0  0  0  0
 15 17  1  0  0  0  0
 17 18  1  0  0  0  0
 17 19  1  0  0  0  0
 19 20  1  0  0  0  0
 19 28  2  0  0  0  0
 20 21  1  0  0  0  0
 20 22  2  0  0  0  0
 22 23  1  0  0  0  0
 22 24  1  0  0  0  0
 24 25  1  0  0  0  0
 24 26  2  0  0  0  0
 26 27  1  0  0  0  0
 26 28  1  0  0  0  0
 29 30  2  0  0  0  0
 29 31  1  0  0  0  0
 31 32  1  0  0  0  0
 31 33  1  0  0  0  0
 33 34  1  0  0  0  0
 33 35  1  0  0  0  0
 33 36  1  0  0  0  0
M  END
$$$$

  -OEChem-01062216103D

 36 37  0     1  0  0  0  0  0999 V2000
   -3.4449   -2.8023    0.2218 H   0  0  0  0  0  0  0  0  0  0  0  0
   -3.4094   -2.0087   -0.5298 C   0  0  0  0  0  0  0  0  0  0  0  0
   -4.4050   -1.5696   -0.6273 H   0  0  0  0  0  0  0  0  0  0  0  0
   -3.1141   -2.4457   -1.4869 H   0  0  0  0  0  0  0  0  0  0  0  0
   -2.4096   -0.9450   -0.1179 C   0  0  0  0  0  0  0  0  0  0  0  0
   -1.8918   -0.9930    0.9871 O   0  0  0  0  0  0  0  0  0  0  0  0
   -2.1912    0.1423   -0.9414 N   0  0  0  0  0  0  0  0  0  0  0  0
   -2.6752    0.1059   -1.8331 H   0  0  0  0  0  0  0  0  0  0  0  0
   -0.9752    0.9827   -0.9014 C   0  0  1  0  0  0  0  0  0  0  0  0
   -0.7710    1.3423   -1.9149 H   0  0  0  0  0  0  0  0  0  0  0  0
   -1.2550    2.2086   -0.0116 C   0  0  0  0  0  0  0  0  0  0  0  0
   -1.6070    1.8771    0.9710 H   0  0  0  0  0  0  0  0  0  0  0  0
   -0.3406    2.7905    0.1393 H   0  0  0  0  0  0  0  0  0  0  0  0
   -2.2839    3.1040   -0.6496 C   0  0  0  0  0  0  0  0  0  0  0  0
   -3.6288    3.1138   -0.3713 C   0  0  0  0  0  0  0  0  0  0  0  0
   -4.1235    2.4815    0.3631 H   0  0  0  0  0  0  0  0  0  0  0  0
   -4.2215    4.0679   -1.1959 N   0  0  0  0  0  0  0  0  0  0  0  0
   -5.2103    4.3090   -1.2014 H   0  0  0  0  0  0  0  0  0  0  0  0
   -3.2680    4.6674   -2.0037 C   0  0  0  0  0  0  0  0  0  0  0  0
   -3.3650    5.6618   -2.9771 C   0  0  0  0  0  0  0  0  0  0  0  0
   -4.3257    6.1073   -3.2104 H   0  0  0  0  0  0  0  0  0  0  0  0
   -2.2056    6.0764   -3.6483 C   0  0  0  0  0  0  0  0  0  0  0  0
   -2.2661    6.8501   -4.4082 H   0  0  0  0  0  0  0  0  0  0  0  0
   -0.9666    5.4935   -3.3395 C   0  0  0  0  0  0  0  0  0  0  0  0
   -0.0708    5.8163   -3.8612 H   0  0  0  0  0  0  0  0  0  0  0  0
   -0.8802    4.4959   -2.3579 C   0  0  0  0  0  0  0  0  0  0  0  0
    0.0761    4.0445   -2.1143 H   0  0  0  0  0  0  0  0  0  0  0  0
   -2.0420    4.0900   -1.6933 C   0  0  0  0  0  0  0  0  0  0  0  0
    0.3079    0.2281   -0.4623 C   0  0  0  0  0  0  0  0  0  0  0  0
    0.7412   -0.6507   -1.1988 O   0  0  0  0  0  0  0  0  0  0  0  0
    1.0418    0.5866    0.6563 N   0  0  0  0  0  0  0  0  0  0  0  0
    0.5565    1.1645    1.3358 H   0  0  0  0  0  0  0  0  0  0  0  0
    2.1959   -0.1783    1.1114 C   0  0  0  0  0  0  0  0  0  0  0  0
    2.9577   -0.2303    0.3265 H   0  0  0  0  0  0  0  0  0  0  0  0
    2.6410    0.2980    1.9902 H   0  0  0  0  0  0  0  0  0  0  0  0
    1.8967   -1.1968    1.3804 H   0  0  0  0  0  0  0  0  0  0  0  0
  1  2  1  0  0  0  0
  2  3  1  0  0  0  0
  2  4  1  0  0  0  0
  2  5  1  0  0  0  0
  5  6  2  0  0  0  0
  5  7  1  0  0  0  0
  7  8  1  0  0  0  0
  7  9  1  0  0  0  0
  9 10  1  0  0  0  0
  9 11  1  0  0  0  0
  9 29  1  0  0  0  0
 11 12  1  0  0  0  0
 11 13  1  0  0  0  0
 11 14  1  0  0  0  0
 14 15  2  0  0  0  0
 14 28  1  0  0  0  0
 15 16  1  0  0  0  0
 15 17  1  0  0  0  0
 17 18  1  0  0  0  0
 17 19  1  0  0  0  0
 19 20  1  0  0  0  0
 19 28  2  0  0  0  0
 20 21  1  0  0  0  0
 20 22  2  0  0  0  0
 22 23  1  0  0  0  0
 22 24  1  0  0  0  0
 24 25  1  0  0  0  0
 24 26  2  0  0  0  0
 26 27  1  0  0  0  0
 26 28  1  0  0  0  0
 29 30  2  0  0  0  0
 29 31  1  0  0  0  0
 31 32  1  0  0  0  0
 31 33  1  0  0  0  0
 33 34  1  0  0  0  0
 33 35  1  0  0  0  0
 33 36  1  0  0  0  0
M  END
$$$$

  -OEChem-01062216103D

 36 37  0     1  0  0  0  0  0999 V2000
   -3.4958   -2.7929    0.2060 H   0  0  0  0  0  0  0  0  0  0  0  0
   -3.4441   -1.9964   -0.5418 C   0  0  0  0  0  0  0  0  0  0  0  0
   -4.4301   -1.5356   -0.6360 H   0  0  0  0  0  0  0  0  0  0  0  0
   -3.1599   -2.4354   -1.5013 H   0  0  0  0  0  0  0  0  0  0  0  0
   -2.4220   -0.9557   -0.1268 C   0  0  0  0  0  0  0  0  0  0  0  0
   -1.8905   -1.0299    0.9701 O   0  0  0  0  0  0  0  0  0  0  0  0
   -2.1918    0.1359   -0.9406 N   0  0  0  0  0  0  0  0  0  0  0  0
   -2.6921    0.1280   -1.8244 H   0  0  0  0  0  0  0  0  0  0  0  0
   -0.9795    0.9804   -0.8909 C   0  0  1  0  0  0  0  0  0  0  0  0
   -0.7748    1.3429   -1.9034 H   0  0  0  0  0  0  0  0  0  0  0  0
   -1.2590    2.2034    0.0010 C   0  0  0  0  0  0  0  0  0  0  0  0
   -1.6167    1.8697    0.9805 H   0  0  0  0  0  0  0  0  0  0  0  0
   -0.3408    2.7781    0.1595 H   0  0  0  0  0  0  0  0  0  0  0  0
   -2.2853    3.1016   -0.6371 C   0  0  0  0  0  0  0  0  0  0  0  0
   -3.6312    3.1149   -0.3636 C   0  0  0  0  0  0  0  0  0  0  0  0
   -4.1302    2.4860    0.3708 H   0  0  0  0  0  0  0  0  0  0  0  0
   -4.2192    4.0678   -1.1932 N   0  0  0  0  0  0  0  0  0  0  0  0
   -5.2075    4.3115   -1.2019 H   0  0  0  0  0  0  0  0  0  0  0  0
   -3.2622    4.6616   -2.0015 C   0  0  0  0  0  0  0  0  0  0  0  0
   -3.3534    5.6505   -2.9816 C   0  0  0  0  0  0  0  0  0  0  0  0
   -4.3116    6.0979   -3.2212 H   0  0  0  0  0  0  0  0  0  0  0  0
   -2.1910    6.0568   -3.6525 C   0  0  0  0  0  0  0  0  0  0  0  0
   -2.2468    6.8252   -4.4180 H   0  0  0  0  0  0  0  0  0  0  0  0
   -0.9548    5.4720   -3.3366 C   0  0  0  0  0  0  0  0  0  0  0  0
   -0.0566    5.7885   -3.8584 H   0  0  0  0  0  0  0  0  0  0  0  0
   -0.8742    4.4807   -2.3484 C   0  0  0  0  0  0  0  0  0  0  0  0
    0.0800    4.0274   -2.0999 H   0  0  0  0  0  0  0  0  0  0  0  0
   -2.0388    4.0825   -1.6845 C   0  0  0  0  0  0  0  0  0  0  0  0
    0.3098    0.2421   -0.4471 C   0  0  0  0  0  0  0  0  0  0  0  0
    0.8983   -0.4433   -1.2749 O   0  0  0  0  0  0  0  0  0  0  0  0
    0.8603    0.4007    0.8134 N   0  0  0  0  0  0  0  0  0  0  0  0
    0.2114    0.7294    1.5234 H   0  0  0  0  0  0  0  0  0  0  0  0
    2.0117   -0.3733    1.2593 C   0  0  0  0  0  0  0  0  0  0  0  0
    2.8644   -0.2146    0.5908 H   0  0  0  0  0  0  0  0  0  0  0  0
    2.3049   -0.0660    2.2675 H   0  0  0  0  0  0  0  0  0  0  0  0
    1.7707   -1.4414    1.2767 H   0  0  0  0  0  0  0  0  0  0  0  0
  1  2  1  0  0  0  0
  2  3  1  0  0  0  0
  2  4  1  0  0  0  0
  2  5  1  0  0  0  0
  5  6  2  0  0  0  0
  5  7  1  0  0  0  0
  7  8  1  0  0  0  0
  7  9  1  0  0  0  0
  9 10  1  0  0  0  0
  9 11  1  0  0  0  0
  9 29  1  0  0  0  0
 11 12  1  0  0  0  0
 11 13  1  0  0  0  0
 11 14  1  0  0  0  0
 14 15  2  0  0  0  0
 14 28  1  0  0  0  0
 15 16  1  0  0  0  0
 15 17  1  0  0  0  0
 17 18  1  0  0  0  0
 17 19  1  0  0  0  0
 19 20  1  0  0  0  0
 19 28  2  0  0  0  0
 20 21  1  0  0  0  0
 20 22  2  0  0  0  0
 22 23  1  0  0  0  0
 22 24  1  0  0  0  0
 24 25  1  0  0  0  0
 24 26  2  0  0  0  0
 26 27  1  0  0  0  0
 26 28  1  0  0  0  0
 29 30  2  0  0  0  0
 29 31  1  0  0  0  0
 31 32  1  0  0  0  0
 31 33  1  0  0  0  0
 33 34  1  0  0  0  0
 33 35  1  0  0  0  0
 33 36  1  0  0  0  0
M  END
$$$$

  -OEChem-01062216103D

 36 37  0     1  0  0  0  0  0999 V2000
   -3.6050   -2.7744    0.1868 H   0  0  0  0  0  0  0  0  0  0  0  0
   -3.5291   -1.9739   -0.5546 C   0  0  0  0  0  0  0  0  0  0  0  0
   -4.4976   -1.4744   -0.6344 H   0  0  0  0  0  0  0  0  0  0  0  0
   -3.2728   -2.4150   -1.5209 H   0  0  0  0  0  0  0  0  0  0  0  0
   -2.4622   -0.9779   -0.1408 C   0  0  0  0  0  0  0  0  0  0  0  0
   -1.9257   -1.0843    0.9507 O   0  0  0  0  0  0  0  0  0  0  0  0
   -2.1991    0.1125   -0.9460 N   0  0  0  0  0  0  0  0  0  0  0  0
   -2.7223    0.1455   -1.8161 H   0  0  0  0  0  0  0  0  0  0  0  0
   -0.9835    0.9535   -0.8891 C   0  0  1  0  0  0  0  0  0  0  0  0
   -0.7785    1.3176   -1.9011 H   0  0  0  0  0  0  0  0  0  0  0  0
   -1.2617    2.1744    0.0054 C   0  0  0  0  0  0  0  0  0  0  0  0
   -1.6238    1.8393    0.9828 H   0  0  0  0  0  0  0  0  0  0  0  0
   -0.3400    2.7422    0.1706 H   0  0  0  0  0  0  0  0  0  0  0  0
   -2.2829    3.0791   -0.6327 C   0  0  0  0  0  0  0  0  0  0  0  0
   -3.6298    3.0969   -0.3635 C   0  0  0  0  0  0  0  0  0  0  0  0
   -4.1332    2.4688    0.3686 H   0  0  0  0  0  0  0  0  0  0  0  0
   -4.2121    4.0542   -1.1923 N   0  0  0  0  0  0  0  0  0  0  0  0
   -5.1986    4.3051   -1.2006 H   0  0  0  0  0  0  0  0  0  0  0  0
   -3.2500    4.6464   -1.9958 C   0  0  0  0  0  0  0  0  0  0  0  0
   -3.3338    5.6384   -2.9734 C   0  0  0  0  0  0  0  0  0  0  0  0
   -4.2896    6.0904   -3.2141 H   0  0  0  0  0  0  0  0  0  0  0  0
   -2.1676    6.0420   -3.6395 C   0  0  0  0  0  0  0  0  0  0  0  0
   -2.2183    6.8125   -4.4031 H   0  0  0  0  0  0  0  0  0  0  0  0
   -0.9346    5.4523   -3.3208 C   0  0  0  0  0  0  0  0  0  0  0  0
   -0.0335    5.7671   -3.8383 H   0  0  0  0  0  0  0  0  0  0  0  0
   -0.8612    4.4580   -2.3350 C   0  0  0  0  0  0  0  0  0  0  0  0
    0.0905    4.0004   -2.0842 H   0  0  0  0  0  0  0  0  0  0  0  0
   -2.0297    4.0619   -1.6765 C   0  0  0  0  0  0  0  0  0  0  0  0
    0.3141    0.2388   -0.4337 C   0  0  0  0  0  0  0  0  0  0  0  0
    1.0727   -0.1958   -1.2918 O   0  0  0  0  0  0  0  0  0  0  0  0
    0.6870    0.1711    0.8969 N   0  0  0  0  0  0  0  0  0  0  0  0
   -0.1005    0.2107    1.5430 H   0  0  0  0  0  0  0  0  0  0  0  0
    1.8684   -0.5629    1.3316 C   0  0  0  0  0  0  0  0  0  0  0  0
    2.7654   -0.1769    0.8362 H   0  0  0  0  0  0  0  0  0  0  0  0
    2.0013   -0.4563    2.4124 H   0  0  0  0  0  0  0  0  0  0  0  0
    1.7655   -1.6272    1.0956 H   0  0  0  0  0  0  0  0  0  0  0  0
  1  2  1  0  0  0  0
  2  3  1  0  0  0  0
  2  4  1  0  0  0  0
  2  5  1  0  0  0  0
  5  6  2  0  0  0  0
  5  7  1  0  0  0  0
  7  8  1  0  0  0  0
  7  9  1  0  0  0  0
  9 10  1  0  0  0  0
  9 11  1  0  0  0  0
  9 29  1  0  0  0  0
 11 12  1  0  0  0  0
 11 13  1  0  0  0  0
 11 14  1  0  0  0  0
 14 15  2  0  0  0  0
 14 28  1  0  0  0  0
 15 16  1  0  0  0  0
 15 17  1  0  0  0  0
 17 18  1  0  0  0  0
 17 19  1  0  0  0  0
 19 20  1  0  0  0  0
 19 28  2  0  0  0  0
 20 21  1  0  0  0  0
 20 22  2  0  0  0  0
 22 23  1  0  0  0  0
 22 24  1  0  0  0  0
 24 25  1  0  0  0  0
 24 26  2  0  0  0  0
 26 27  1  0  0  0  0
 26 28  1  0  0  0  0
 29 30  2  0  0  0  0
 29 31  1  0  0  0  0
 31 32  1  0  0  0  0
 31 33  1  0  0  0  0
 33 34  1  0  0  0  0
 33 35  1  0  0  0  0
 33 36  1  0  0  0  0
M  END
$$$$

  -OEChem-01062216103D

 36 37  0     1  0  0  0  0  0999 V2000
   -3.7606   -2.7401    0.1358 H   0  0  0  0  0  0  0  0  0  0  0  0
   -3.6398   -1.9346   -0.5942 C   0  0  0  0  0  0  0  0  0  0  0  0
   -4.5807   -1.3846   -0.6711 H   0  0  0  0  0  0  0  0  0  0  0  0
   -3.4016   -2.3751   -1.5655 H   0  0  0  0  0  0  0  0  0  0  0  0
   -2.5258   -1.0002   -0.1618 C   0  0  0  0  0  0  0  0  0  0  0  0
   -1.9985   -1.1579    0.9269 O   0  0  0  0  0  0  0  0  0  0  0  0
   -2.2142    0.0901   -0.9491 N   0  0  0  0  0  0  0  0  0  0  0  0
   -2.7612    0.1762   -1.8010 H   0  0  0  0  0  0  0  0  0  0  0  0
   -0.9904    0.9222   -0.8860 C   0  0  1  0  0  0  0  0  0  0  0  0
   -0.7895    1.2897   -1.8980 H   0  0  0  0  0  0  0  0  0  0  0  0
   -1.2649    2.1373    0.0159 C   0  0  0  0  0  0  0  0  0  0  0  0
   -1.6284    1.7976    0.9913 H   0  0  0  0  0  0  0  0  0  0  0  0
   -0.3407    2.6996    0.1861 H   0  0  0  0  0  0  0  0  0  0  0  0
   -2.2802    3.0501   -0.6197 C   0  0  0  0  0  0  0  0  0  0  0  0
   -3.6277    3.0719   -0.3543 C   0  0  0  0  0  0  0  0  0  0  0  0
   -4.1350    2.4452    0.3760 H   0  0  0  0  0  0  0  0  0  0  0  0
   -4.2045    4.0311   -1.1845 N   0  0  0  0  0  0  0  0  0  0  0  0
   -5.1900    4.2865   -1.1949 H   0  0  0  0  0  0  0  0  0  0  0  0
   -3.2379    4.6202   -1.9848 C   0  0  0  0  0  0  0  0  0  0  0  0
   -3.3163    5.6120   -2.9626 C   0  0  0  0  0  0  0  0  0  0  0  0
   -4.2705    6.0658   -3.2062 H   0  0  0  0  0  0  0  0  0  0  0  0
   -2.1469    6.0125   -3.6249 C   0  0  0  0  0  0  0  0  0  0  0  0
   -2.1928    6.7834   -4.3884 H   0  0  0  0  0  0  0  0  0  0  0  0
   -0.9163    5.4194   -3.3024 C   0  0  0  0  0  0  0  0  0  0  0  0
   -0.0122    5.7313   -3.8166 H   0  0  0  0  0  0  0  0  0  0  0  0
   -0.8485    4.4247   -2.3166 C   0  0  0  0  0  0  0  0  0  0  0  0
    0.1012    3.9639   -2.0628 H   0  0  0  0  0  0  0  0  0  0  0  0
   -2.0203    4.0324   -1.6619 C   0  0  0  0  0  0  0  0  0  0  0  0
    0.3223    0.2388   -0.4244 C   0  0  0  0  0  0  0  0  0  0  0  0
    1.2143    0.0747   -1.2476 O   0  0  0  0  0  0  0  0  0  0  0  0
    0.5639   -0.0828    0.8982 N   0  0  0  0  0  0  0  0  0  0  0  0
   -0.2872   -0.2401    1.4427 H   0  0  0  0  0  0  0  0  0  0  0  0
    1.7726   -0.7748    1.3257 C   0  0  0  0  0  0  0  0  0  0  0  0
    2.6626   -0.2020    1.0447 H   0  0  0  0  0  0  0  0  0  0  0  0
    1.7719   -0.8956    2.4133 H   0  0  0  0  0  0  0  0  0  0  0  0
    1.8306   -1.7661    0.8641 H   0  0  0  0  0  0  0  0  0  0  0  0
  1  2  1  0  0  0  0
  2  3  1  0  0  0  0
  2  4  1  0  0  0  0
  2  5  1  0  0  0  0
  5  6  2  0  0  0  0
  5  7  1  0  0  0  0
  7  8  1  0  0  0  0
  7  9  1  0  0  0  0
  9 10  1  0  0  0  0
  9 11  1  0  0  0  0
  9 29  1  0  0  0  0
 11 12  1  0  0  0  0
 11 13  1  0  0  0  0
 11 14  1  0  0  0  0
 14 15  2  0  0  0  0
 14 28  1  0  0  0  0
 15 16  1  0  0  0  0
 15 17  1  0  0  0  0
 17 18  1  0  0  0  0
 17 19  1  0  0  0  0
 19 20  1  0  0  0  0
 19 28  2  0  0  0  0
 20 21  1  0  0  0  0
 20 22  2  0  0  0  0
 22 23  1  0  0  0  0
 22 24  1  0  0  0  0
 24 25  1  0  0  0  0
 24 26  2  0  0  0  0
 26 27  1  0  0  0  0
 26 28  1  0  0  0  0
 29 30  2  0  0  0  0
 29 31  1  0  0  0  0
 31 32  1  0  0  0  0
 31 33  1  0  0  0  0
 33 34  1  0  0  0  0
 33 35  1  0  0  0  0
 33 36  1  0  0  0  0
M  END
$$$$

  -OEChem-01062216103D

 36 37  0     1  0  0  0  0  0999 V2000
   -3.9230   -2.6976    0.0863 H   0  0  0  0  0  0  0  0  0  0  0  0
   -3.7545   -1.8890   -0.6306 C   0  0  0  0  0  0  0  0  0  0  0  0
   -4.6627   -1.2855   -0.6994 H   0  0  0  0  0  0  0  0  0  0  0  0
   -3.5405   -2.3272   -1.6085 H   0  0  0  0  0  0  0  0  0  0  0  0
   -2.5893   -1.0267   -0.1830 C   0  0  0  0  0  0  0  0  0  0  0  0
   -2.0736   -1.2426    0.8998 O   0  0  0  0  0  0  0  0  0  0  0  0
   -2.2263    0.0609   -0.9524 N   0  0  0  0  0  0  0  0  0  0  0  0
   -2.7919    0.1974   -1.7855 H   0  0  0  0  0  0  0  0  0  0  0  0
   -0.9956    0.8863   -0.8848 C   0  0  1  0  0  0  0  0  0  0  0  0
   -0.7980    1.2547   -1.8972 H   0  0  0  0  0  0  0  0  0  0  0  0
   -1.2768    2.0974    0.0190 C   0  0  0  0  0  0  0  0  0  0  0  0
   -1.6445    1.7515    0.9908 H   0  0  0  0  0  0  0  0  0  0  0  0
   -0.3548    2.6603    0.1986 H   0  0  0  0  0  0  0  0  0  0  0  0
   -2.2876    3.0153   -0.6167 C   0  0  0  0  0  0  0  0  0  0  0  0
   -3.6367    3.0392   -0.3602 C   0  0  0  0  0  0  0  0  0  0  0  0
   -4.1513    2.4110    0.3636 H   0  0  0  0  0  0  0  0  0  0  0  0
   -4.2044    4.0073   -1.1861 N   0  0  0  0  0  0  0  0  0  0  0  0
   -5.1876    4.2707   -1.1953 H   0  0  0  0  0  0  0  0  0  0  0  0
   -3.2315    4.5973   -1.9783 C   0  0  0  0  0  0  0  0  0  0  0  0
   -3.2998    5.5964   -2.9496 C   0  0  0  0  0  0  0  0  0  0  0  0
   -4.2498    6.0587   -3.1934 H   0  0  0  0  0  0  0  0  0  0  0  0
   -2.1256    5.9927   -3.6062 C   0  0  0  0  0  0  0  0  0  0  0  0
   -2.1637    6.7686   -4.3652 H   0  0  0  0  0  0  0  0  0  0  0  0
   -0.9003    5.3881   -3.2846 C   0  0  0  0  0  0  0  0  0  0  0  0
    0.0076    5.6961   -3.7948 H   0  0  0  0  0  0  0  0  0  0  0  0
   -0.8423    4.3874   -2.3041 C   0  0  0  0  0  0  0  0  0  0  0  0
    0.1035    3.9178   -2.0508 H   0  0  0  0  0  0  0  0  0  0  0  0
   -2.0188    4.0004   -1.6541 C   0  0  0  0  0  0  0  0  0  0  0  0
    0.3361    0.2435   -0.4147 C   0  0  0  0  0  0  0  0  0  0  0  0
    1.3077    0.3221   -1.1561 O   0  0  0  0  0  0  0  0  0  0  0  0
    0.5041   -0.3325    0.8294 N   0  0  0  0  0  0  0  0  0  0  0  0
   -0.3667   -0.5851    1.3040 H   0  0  0  0  0  0  0  0  0  0  0  0
    1.7273   -1.0111    1.2361 C   0  0  0  0  0  0  0  0  0  0  0  0
    2.5837   -0.3318    1.1730 H   0  0  0  0  0  0  0  0  0  0  0  0
    1.6383   -1.3560    2.2708 H   0  0  0  0  0  0  0  0  0  0  0  0
    1.9157   -1.8783    0.5947 H   0  0  0  0  0  0  0  0  0  0  0  0
  1  2  1  0  0  0  0
  2  3  1  0  0  0  0
  2  4  1  0  0  0  0
  2  5  1  0  0  0  0
  5  6  2  0  0  0  0
  5  7  1  0  0  0  0
  7  8  1  0  0  0  0
  7  9  1  0  0  0  0
  9 10  1  0  0  0  0
  9 11  1  0  0  0  0
  9 29  1  0  0  0  0
 11 12  1  0  0  0  0
 11 13  1  0  0  0  0
 11 14  1  0  0  0  0
 14 15  2  0  0  0  0
 14 28  1  0  0  0  0
 15 16  1  0  0  0  0
 15 17  1  0  0  0  0
 17 18  1  0  0  0  0
 17 19  1  0  0  0  0
 19 20  1  0  0  0  0
 19 28  2  0  0  0  0
 20 21  1  0  0  0  0
 20 22  2  0  0  0  0
 22 23  1  0  0  0  0
 22 24  1  0  0  0  0
 24 25  1  0  0  0  0
 24 26  2  0  0  0  0
 26 27  1  0  0  0  0
 26 28  1  0  0  0  0
 29 30  2  0  0  0  0
 29 31  1  0  0  0  0
 31 32  1  0  0  0  0
 31 33  1  0  0  0  0
 33 34  1  0  0  0  0
 33 35  1  0  0  0  0
 33 36  1  0  0  0  0
M  END
$$$$

  -OEChem-01062216103D

 36 37  0     1  0  0  0  0  0999 V2000
   -4.0584   -2.6670    0.0512 H   0  0  0  0  0  0  0  0  0  0  0  0
   -3.8570   -1.8602   -0.6592 C   0  0  0  0  0  0  0  0  0  0  0  0
   -4.7434   -1.2255   -0.7318 H   0  0  0  0  0  0  0  0  0  0  0  0
   -3.6496   -2.2993   -1.6381 H   0  0  0  0  0  0  0  0  0  0  0  0
   -2.6673   -1.0401   -0.1971 C   0  0  0  0  0  0  0  0  0  0  0  0
   -2.1631   -1.2874    0.8839 O   0  0  0  0  0  0  0  0  0  0  0  0
   -2.2710    0.0442   -0.9542 N   0  0  0  0  0  0  0  0  0  0  0  0
   -2.8454    0.2116   -1.7756 H   0  0  0  0  0  0  0  0  0  0  0  0
   -1.0240    0.8481   -0.8924 C   0  0  1  0  0  0  0  0  0  0  0  0
   -0.8355    1.2184   -1.9056 H   0  0  0  0  0  0  0  0  0  0  0  0
   -1.2882    2.0562    0.0209 C   0  0  0  0  0  0  0  0  0  0  0  0
   -1.6565    1.7068    0.9912 H   0  0  0  0  0  0  0  0  0  0  0  0
   -0.3599    2.6086    0.2020 H   0  0  0  0  0  0  0  0  0  0  0  0
   -2.2908    2.9890   -0.6067 C   0  0  0  0  0  0  0  0  0  0  0  0
   -3.6397    3.0294   -0.3490 C   0  0  0  0  0  0  0  0  0  0  0  0
   -4.1617    2.4071    0.3748 H   0  0  0  0  0  0  0  0  0  0  0  0
   -4.1962    4.0042   -1.1755 N   0  0  0  0  0  0  0  0  0  0  0  0
   -5.1757    4.2813   -1.1840 H   0  0  0  0  0  0  0  0  0  0  0  0
   -3.2158    4.5830   -1.9668 C   0  0  0  0  0  0  0  0  0  0  0  0
   -3.2719    5.5827   -2.9380 C   0  0  0  0  0  0  0  0  0  0  0  0
   -4.2166    6.0543   -3.1843 H   0  0  0  0  0  0  0  0  0  0  0  0
   -2.0920    5.9687   -3.5906 C   0  0  0  0  0  0  0  0  0  0  0  0
   -2.1202    6.7459   -4.3486 H   0  0  0  0  0  0  0  0  0  0  0  0
   -0.8733    5.3526   -3.2654 C   0  0  0  0  0  0  0  0  0  0  0  0
    0.0394    5.6536   -3.7712 H   0  0  0  0  0  0  0  0  0  0  0  0
   -0.8278    4.3495   -2.2867 C   0  0  0  0  0  0  0  0  0  0  0  0
    0.1125    3.8703   -2.0306 H   0  0  0  0  0  0  0  0  0  0  0  0
   -2.0101    3.9731   -1.6413 C   0  0  0  0  0  0  0  0  0  0  0  0
    0.3205    0.2168   -0.4382 C   0  0  0  0  0  0  0  0  0  0  0  0
    1.3282    0.5144   -1.0677 O   0  0  0  0  0  0  0  0  0  0  0  0
    0.4675   -0.6111    0.6563 N   0  0  0  0  0  0  0  0  0  0  0  0
   -0.3970   -0.9218    1.1061 H   0  0  0  0  0  0  0  0  0  0  0  0
    1.7276   -1.2227    1.0562 C   0  0  0  0  0  0  0  0  0  0  0  0
    2.4897   -0.4553    1.2277 H   0  0  0  0  0  0  0  0  0  0  0  0
    1.5928   -1.7869    1.9840 H   0  0  0  0  0  0  0  0  0  0  0  0
    2.0842   -1.9083    0.2806 H   0  0  0  0  0  0  0  0  0  0  0  0
  1  2  1  0  0  0  0
  2  3  1  0  0  0  0
  2  4  1  0  0  0  0
  2  5  1  0  0  0  0
  5  6  2  0  0  0  0
  5  7  1  0  0  0  0
  7  8  1  0  0  0  0
  7  9  1  0  0  0  0
  9 10  1  0  0  0  0
  9 11  1  0  0  0  0
  9 29  1  0  0  0  0
 11 12  1  0  0  0  0
 11 13  1  0  0  0  0
 11 14  1  0  0  0  0
 14 15  2  0  0  0  0
 14 28  1  0  0  0  0
 15 16  1  0  0  0  0
 15 17  1  0  0  0  0
 17 18  1  0  0  0  0
 17 19  1  0  0  0  0
 19 20  1  0  0  0  0
 19 28  2  0  0  0  0
 20 21  1  0  0  0  0
 20 22  2  0  0  0  0
 22 23  1  0  0  0  0
 22 24  1  0  0  0  0
 24 25  1  0  0  0  0
 24 26  2  0  0  0  0
 26 27  1  0  0  0  0
 26 28  1  0  0  0  0
 29 30  2  0  0  0  0
 29 31  1  0  0  0  0
 31 32  1  0  0  0  0
 31 33  1  0  0  0  0
 33 34  1  0  0  0  0
 33 35  1  0  0  0  0
 33 36  1  0  0  0  0
M  END
$$$$

  -OEChem-01062216103D

 36 37  0     1  0  0  0  0  0999 V2000
   -3.5884   -2.6950    0.3544 H   0  0  0  0  0  0  0  0  0  0  0  0
   -3.3908   -1.9622   -0.4334 C   0  0  0  0  0  0  0  0  0  0  0  0
   -4.3250   -1.4518   -0.6794 H   0  0  0  0  0  0  0  0  0  0  0  0
   -3.0255   -2.4883   -1.3187 H   0  0  0  0  0  0  0  0  0  0  0  0
   -2.3565   -0.9564    0.0364 C   0  0  0  0  0  0  0  0  0  0  0  0
   -1.9509   -1.0123    1.1818 O   0  0  0  0  0  0  0  0  0  0  0  0
   -2.0420    0.1132   -0.7735 N   0  0  0  0  0  0  0  0  0  0  0  0
   -2.5833    0.1595   -1.6315 H   0  0  0  0  0  0  0  0  0  0  0  0
   -0.8517    0.9984   -0.7397 C   0  0  1  0  0  0  0  0  0  0  0  0
   -0.6867    1.3385   -1.7671 H   0  0  0  0  0  0  0  0  0  0  0  0
   -1.2484    2.2194    0.1142 C   0  0  0  0  0  0  0  0  0  0  0  0
   -1.6113    1.8788    1.0898 H   0  0  0  0  0  0  0  0  0  0  0  0
   -0.3850    2.8671    0.2987 H   0  0  0  0  0  0  0  0  0  0  0  0
   -2.3103    3.0301   -0.5825 C   0  0  0  0  0  0  0  0  0  0  0  0
   -3.6635    2.9577   -0.3602 C   0  0  0  0  0  0  0  0  0  0  0  0
   -4.1443    2.3237    0.3821 H   0  0  0  0  0  0  0  0  0  0  0  0
   -4.2831    3.8340   -1.2500 N   0  0  0  0  0  0  0  0  0  0  0  0
   -5.2831    4.0184   -1.2947 H   0  0  0  0  0  0  0  0  0  0  0  0
   -3.3374    4.4602   -2.0479 C   0  0  0  0  0  0  0  0  0  0  0  0
   -3.4544    5.3995   -3.0729 C   0  0  0  0  0  0  0  0  0  0  0  0
   -4.4301    5.7705   -3.3665 H   0  0  0  0  0  0  0  0  0  0  0  0
   -2.2951    5.8560   -3.7172 C   0  0  0  0  0  0  0  0  0  0  0  0
   -2.3707    6.5873   -4.5164 H   0  0  0  0  0  0  0  0  0  0  0  0
   -1.0359    5.3708   -3.3297 C   0  0  0  0  0  0  0  0  0  0  0  0
   -0.1392    5.7266   -3.8285 H   0  0  0  0  0  0  0  0  0  0  0  0
   -0.9293    4.4291   -2.2963 C   0  0  0  0  0  0  0  0  0  0  0  0
    0.0415    4.0515   -1.9882 H   0  0  0  0  0  0  0  0  0  0  0  0
   -2.0913    3.9812   -1.6610 C   0  0  0  0  0  0  0  0  0  0  0  0
    0.5612    0.5345   -0.2643 C   0  0  0  0  0  0  0  0  0  0  0  0
    1.5082    1.2666   -0.5128 O   0  0  0  0  0  0  0  0  0  0  0  0
    0.9273   -0.4220    0.6535 N   0  0  0  0  0  0  0  0  0  0  0  0
    1.8415   -0.1949    1.0351 H   0  0  0  0  0  0  0  0  0  0  0  0
    0.7559   -1.8370    0.3487 C   0  0  0  0  0  0  0  0  0  0  0  0
    1.7301   -2.2940    0.1491 H   0  0  0  0  0  0  0  0  0  0  0  0
    0.2993   -2.3552    1.1978 H   0  0  0  0  0  0  0  0  0  0  0  0
    0.1277   -1.9868   -0.5347 H   0  0  0  0  0  0  0  0  0  0  0  0
  1  2  1  0  0  0  0
  2  3  1  0  0  0  0
  2  4  1  0  0  0  0
  2  5  1  0  0  0  0
  5  6  2  0  0  0  0
  5  7  1  0  0  0  0
  7  8  1  0  0  0  0
  7  9  1  0  0  0  0
  9 10  1  0  0  0  0
  9 11  1  0  0  0  0
  9 29  1  0  0  0  0
 11 12  1  0  0  0  0
 11 13  1  0  0  0  0
 11 14  1  0  0  0  0
 14 15  2  0  0  0  0
 14 28  1  0  0  0  0
 15 16  1  0  0  0  0
 15 17  1  0  0  0  0
 17 18  1  0  0  0  0
 17 19  1  0  0  0  0
 19 20  1  0  0  0  0
 19 28  2  0  0  0  0
 20 21  1  0  0  0  0
 20 22  2  0  0  0  0
 22 23  1  0  0  0  0
 22 24  1  0  0  0  0
 24 25  1  0  0  0  0
 24 26  2  0  0  0  0
 26 27  1  0  0  0  0
 26 28  1  0  0  0  0
 29 30  2  0  0  0  0
 29 31  1  0  0  0  0
 31 32  1  0  0  0  0
 31 33  1  0  0  0  0
 33 34  1  0  0  0  0
 33 35  1  0  0  0  0
 33 36  1  0  0  0  0
M  END
$$$$

  -OEChem-01062216103D

 36 37  0     1  0  0  0  0  0999 V2000
   -3.8376   -2.7936    0.1125 H   0  0  0  0  0  0  0  0  0  0  0  0
   -3.7346   -1.9815   -0.6127 C   0  0  0  0  0  0  0  0  0  0  0  0
   -4.6649   -1.4089   -0.6352 H   0  0  0  0  0  0  0  0  0  0  0  0
   -3.5557   -2.4146   -1.5997 H   0  0  0  0  0  0  0  0  0  0  0  0
   -2.5783   -1.0791   -0.2254 C   0  0  0  0  0  0  0  0  0  0  0  0
   -2.0791   -1.1999    0.8766 O   0  0  0  0  0  0  0  0  0  0  0  0
   -2.2812    0.0065   -1.0205 N   0  0  0  0  0  0  0  0  0  0  0  0
   -2.9092    0.1085   -1.8117 H   0  0  0  0  0  0  0  0  0  0  0  0
   -0.9941    0.7282   -1.1762 C   0  0  1  0  0  0  0  0  0  0  0  0
   -0.9830    1.1294   -2.1951 H   0  0  0  0  0  0  0  0  0  0  0  0
   -1.0128    1.9124   -0.1946 C   0  0  0  0  0  0  0  0  0  0  0  0
   -1.2199    1.5467    0.8166 H   0  0  0  0  0  0  0  0  0  0  0  0
   -0.0362    2.4077   -0.1706 H   0  0  0  0  0  0  0  0  0  0  0  0
   -2.0548    2.9217   -0.6011 C   0  0  0  0  0  0  0  0  0  0  0  0
   -3.3275    3.0176   -0.0942 C   0  0  0  0  0  0  0  0  0  0  0  0
   -3.7400    2.3857    0.6898 H   0  0  0  0  0  0  0  0  0  0  0  0
   -3.9710    4.0551   -0.7666 N   0  0  0  0  0  0  0  0  0  0  0  0
   -4.9206    4.3737   -0.5865 H   0  0  0  0  0  0  0  0  0  0  0  0
   -3.1221    4.6212   -1.7052 C   0  0  0  0  0  0  0  0  0  0  0  0
   -3.2996    5.6677   -2.6104 C   0  0  0  0  0  0  0  0  0  0  0  0
   -4.2452    6.1965   -2.6564 H   0  0  0  0  0  0  0  0  0  0  0  0
   -2.2409    6.0253   -3.4577 C   0  0  0  0  0  0  0  0  0  0  0  0
   -2.3646    6.8386   -4.1665 H   0  0  0  0  0  0  0  0  0  0  0  0
   -1.0210    5.3341   -3.3908 C   0  0  0  0  0  0  0  0  0  0  0  0
   -0.2025    5.6127   -4.0477 H   0  0  0  0  0  0  0  0  0  0  0  0
   -0.8528    4.2844   -2.4763 C   0  0  0  0  0  0  0  0  0  0  0  0
    0.0890    3.7469   -2.4192 H   0  0  0  0  0  0  0  0  0  0  0  0
   -1.9140    3.9374   -1.6341 C   0  0  0  0  0  0  0  0  0  0  0  0
    0.3834    0.0207   -1.0127 C   0  0  0  0  0  0  0  0  0  0  0  0
    1.2874    0.3840   -1.7501 O   0  0  0  0  0  0  0  0  0  0  0  0
    0.6749   -1.2012   -0.4550 N   0  0  0  0  0  0  0  0  0  0  0  0
    1.4786   -1.5981   -0.9343 H   0  0  0  0  0  0  0  0  0  0  0  0
    0.7903   -1.2879    0.9962 C   0  0  0  0  0  0  0  0  0  0  0  0
    0.2976   -0.4456    1.4937 H   0  0  0  0  0  0  0  0  0  0  0  0
    0.3374   -2.2173    1.3559 H   0  0  0  0  0  0  0  0  0  0  0  0
    1.8453   -1.2797    1.2867 H   0  0  0  0  0  0  0  0  0  0  0  0
  1  2  1  0  0  0  0
  2  3  1  0  0  0  0
  2  4  1  0  0  0  0
  2  5  1  0  0  0  0
  5  6  2  0  0  0  0
  5  7  1  0  0  0  0
  7  8  1  0  0  0  0
  7  9  1  0  0  0  0
  9 10  1  0  0  0  0
  9 11  1  0  0  0  0
  9 29  1  0  0  0  0
 11 12  1  0  0  0  0
 11 13  1  0  0  0  0
 11 14  1  0  0  0  0
 14 15  2  0  0  0  0
 14 28  1  0  0  0  0
 15 16  1  0  0  0  0
 15 17  1  0  0  0  0
 17 18  1  0  0  0  0
 17 19  1  0  0  0  0
 19 20  1  0  0  0  0
 19 28  2  0  0  0  0
 20 21  1  0  0  0  0
 20 22  2  0  0  0  0
 22 23  1  0  0  0  0
 22 24  1  0  0  0  0
 24 25  1  0  0  0  0
 24 26  2  0  0  0  0
 26 27  1  0  0  0  0
 26 28  1  0  0  0  0
 29 30  2  0  0  0  0
 29 31  1  0  0  0  0
 31 32  1  0  0  0  0
 31 33  1  0  0  0  0
 33 34  1  0  0  0  0
 33 35  1  0  0  0  0
 33 36  1  0  0  0  0
M  END
$$$$

  -OEChem-01062216103D

 36 37  0     1  0  0  0  0  0999 V2000
   -4.1843   -2.5572    0.1185 H   0  0  0  0  0  0  0  0  0  0  0  0
   -3.9791   -1.7528   -0.5939 C   0  0  0  0  0  0  0  0  0  0  0  0
   -4.8030   -1.0359   -0.5600 H   0  0  0  0  0  0  0  0  0  0  0  0
   -3.9173   -2.1803   -1.5976 H   0  0  0  0  0  0  0  0  0  0  0  0
   -2.6745   -1.0628   -0.2429 C   0  0  0  0  0  0  0  0  0  0  0  0
   -2.0576   -1.4281    0.7417 O   0  0  0  0  0  0  0  0  0  0  0  0
   -2.2714    0.0238   -0.9928 N   0  0  0  0  0  0  0  0  0  0  0  0
   -2.9214    0.2968   -1.7249 H   0  0  0  0  0  0  0  0  0  0  0  0
   -1.0055    0.8011   -0.9564 C   0  0  1  0  0  0  0  0  0  0  0  0
   -0.8321    1.1815   -1.9682 H   0  0  0  0  0  0  0  0  0  0  0  0
   -1.2620    1.9967   -0.0172 C   0  0  0  0  0  0  0  0  0  0  0  0
   -1.6194    1.6288    0.9503 H   0  0  0  0  0  0  0  0  0  0  0  0
   -0.3387    2.5548    0.1697 H   0  0  0  0  0  0  0  0  0  0  0  0
   -2.2727    2.9378   -0.6209 C   0  0  0  0  0  0  0  0  0  0  0  0
   -3.6199    2.9765   -0.3539 C   0  0  0  0  0  0  0  0  0  0  0  0
   -4.1375    2.3481    0.3678 H   0  0  0  0  0  0  0  0  0  0  0  0
   -4.1811    3.9603   -1.1667 N   0  0  0  0  0  0  0  0  0  0  0  0
   -5.1594    4.2421   -1.1627 H   0  0  0  0  0  0  0  0  0  0  0  0
   -3.2048    4.5496   -1.9554 C   0  0  0  0  0  0  0  0  0  0  0  0
   -3.2630    5.5642   -2.9111 C   0  0  0  0  0  0  0  0  0  0  0  0
   -4.2078    6.0417   -3.1458 H   0  0  0  0  0  0  0  0  0  0  0  0
   -2.0848    5.9584   -3.5620 C   0  0  0  0  0  0  0  0  0  0  0  0
   -2.1144    6.7481   -4.3070 H   0  0  0  0  0  0  0  0  0  0  0  0
   -0.8657    5.3357   -3.2509 C   0  0  0  0  0  0  0  0  0  0  0  0
    0.0458    5.6436   -3.7542 H   0  0  0  0  0  0  0  0  0  0  0  0
   -0.8180    4.3183   -2.2874 C   0  0  0  0  0  0  0  0  0  0  0  0
    0.1226    3.8353   -2.0385 H   0  0  0  0  0  0  0  0  0  0  0  0
   -1.9985    3.9344   -1.6440 C   0  0  0  0  0  0  0  0  0  0  0  0
    0.3496    0.1506   -0.5524 C   0  0  0  0  0  0  0  0  0  0  0  0
    1.3671    0.8215   -0.6849 O   0  0  0  0  0  0  0  0  0  0  0  0
    0.5050   -1.1754   -0.1974 N   0  0  0  0  0  0  0  0  0  0  0  0
   -0.3476   -1.6329    0.1298 H   0  0  0  0  0  0  0  0  0  0  0  0
    1.7823   -1.7466    0.2103 C   0  0  0  0  0  0  0  0  0  0  0  0
    2.1651   -1.2342    1.0990 H   0  0  0  0  0  0  0  0  0  0  0  0
    1.6601   -2.8079    0.4461 H   0  0  0  0  0  0  0  0  0  0  0  0
    2.5189   -1.6559   -0.5948 H   0  0  0  0  0  0  0  0  0  0  0  0
  1  2  1  0  0  0  0
  2  3  1  0  0  0  0
  2  4  1  0  0  0  0
  2  5  1  0  0  0  0
  5  6  2  0  0  0  0
  5  7  1  0  0  0  0
  7  8  1  0  0  0  0
  7  9  1  0  0  0  0
  9 10  1  0  0  0  0
  9 11  1  0  0  0  0
  9 29  1  0  0  0  0
 11 12  1  0  0  0  0
 11 13  1  0  0  0  0
 11 14  1  0  0  0  0
 14 15  2  0  0  0  0
 14 28  1  0  0  0  0
 15 16  1  0  0  0  0
 15 17  1  0  0  0  0
 17 18  1  0  0  0  0
 17 19  1  0  0  0  0
 19 20  1  0  0  0  0
 19 28  2  0  0  0  0
 20 21  1  0  0  0  0
 20 22  2  0  0  0  0
 22 23  1  0  0  0  0
 22 24  1  0  0  0  0
 24 25  1  0  0  0  0
 24 26  2  0  0  0  0
 26 27  1  0  0  0  0
 26 28  1  0  0  0  0
 29 30  2  0  0  0  0
 29 31  1  0  0  0  0
 31 32  1  0  0  0  0
 31 33  1  0  0  0  0
 33 34  1  0  0  0  0
 33 35  1  0  0  0  0
 33 36  1  0  0  0  0
M  END
$$$$

  -OEChem-01062216103D

 36 37  0     1  0  0  0  0  0999 V2000
   -4.1459   -2.5256    0.1597 H   0  0  0  0  0  0  0  0  0  0  0  0
   -3.9597   -1.7081   -0.5431 C   0  0  0  0  0  0  0  0  0  0  0  0
   -4.7556   -0.9671   -0.4371 H   0  0  0  0  0  0  0  0  0  0  0  0
   -3.9765   -2.1084   -1.5597 H   0  0  0  0  0  0  0  0  0  0  0  0
   -2.6128   -1.0697   -0.2597 C   0  0  0  0  0  0  0  0  0  0  0  0
   -1.9244   -1.5120    0.6417 O   0  0  0  0  0  0  0  0  0  0  0  0
   -2.2263    0.0309   -0.9980 N   0  0  0  0  0  0  0  0  0  0  0  0
   -2.9184    0.3624   -1.6646 H   0  0  0  0  0  0  0  0  0  0  0  0
   -0.9683    0.8197   -0.9505 C   0  0  1  0  0  0  0  0  0  0  0  0
   -0.7885    1.2061   -1.9585 H   0  0  0  0  0  0  0  0  0  0  0  0
   -1.2477    2.0102   -0.0090 C   0  0  0  0  0  0  0  0  0  0  0  0
   -1.6081    1.6357    0.9548 H   0  0  0  0  0  0  0  0  0  0  0  0
   -0.3361    2.5840    0.1867 H   0  0  0  0  0  0  0  0  0  0  0  0
   -2.2648    2.9380   -0.6223 C   0  0  0  0  0  0  0  0  0  0  0  0
   -3.6145    2.9550   -0.3664 C   0  0  0  0  0  0  0  0  0  0  0  0
   -4.1271    2.3204    0.3534 H   0  0  0  0  0  0  0  0  0  0  0  0
   -4.1862    3.9245   -1.1887 N   0  0  0  0  0  0  0  0  0  0  0  0
   -5.1695    4.1890   -1.1940 H   0  0  0  0  0  0  0  0  0  0  0  0
   -3.2135    4.5281   -1.9714 C   0  0  0  0  0  0  0  0  0  0  0  0
   -3.2809    5.5367   -2.9331 C   0  0  0  0  0  0  0  0  0  0  0  0
   -4.2319    5.9954   -3.1801 H   0  0  0  0  0  0  0  0  0  0  0  0
   -2.1039    5.9492   -3.5749 C   0  0  0  0  0  0  0  0  0  0  0  0
   -2.1410    6.7335   -4.3252 H   0  0  0  0  0  0  0  0  0  0  0  0
   -0.8761    5.3525   -3.2477 C   0  0  0  0  0  0  0  0  0  0  0  0
    0.0345    5.6758   -3.7434 H   0  0  0  0  0  0  0  0  0  0  0  0
   -0.8188    4.3412   -2.2783 C   0  0  0  0  0  0  0  0  0  0  0  0
    0.1285    3.8785   -2.0167 H   0  0  0  0  0  0  0  0  0  0  0  0
   -1.9986    3.9367   -1.6458 C   0  0  0  0  0  0  0  0  0  0  0  0
    0.3808    0.1529   -0.5504 C   0  0  0  0  0  0  0  0  0  0  0  0
    1.3800    0.8574   -0.4584 O   0  0  0  0  0  0  0  0  0  0  0  0
    0.5618   -1.2171   -0.5129 N   0  0  0  0  0  0  0  0  0  0  0  0
   -0.2898   -1.7380   -0.3000 H   0  0  0  0  0  0  0  0  0  0  0  0
    1.8311   -1.8332   -0.1467 C   0  0  0  0  0  0  0  0  0  0  0  0
    2.1214   -1.5405    0.8676 H   0  0  0  0  0  0  0  0  0  0  0  0
    1.7438   -2.9232   -0.1824 H   0  0  0  0  0  0  0  0  0  0  0  0
    2.6208   -1.5294   -0.8415 H   0  0  0  0  0  0  0  0  0  0  0  0
  1  2  1  0  0  0  0
  2  3  1  0  0  0  0
  2  4  1  0  0  0  0
  2  5  1  0  0  0  0
  5  6  2  0  0  0  0
  5  7  1  0  0  0  0
  7  8  1  0  0  0  0
  7  9  1  0  0  0  0
  9 10  1  0  0  0  0
  9 11  1  0  0  0  0
  9 29  1  0  0  0  0
 11 12  1  0  0  0  0
 11 13  1  0  0  0  0
 11 14  1  0  0  0  0
 14 15  2  0  0  0  0
 14 28  1  0  0  0  0
 15 16  1  0  0  0  0
 15 17  1  0  0  0  0
 17 18  1  0  0  0  0
 17 19  1  0  0  0  0
 19 20  1  0  0  0  0
 19 28  2  0  0  0  0
 20 21  1  0  0  0  0
 20 22  2  0  0  0  0
 22 23  1  0  0  0  0
 22 24  1  0  0  0  0
 24 25  1  0  0  0  0
 24 26  2  0  0  0  0
 26 27  1  0  0  0  0
 26 28  1  0  0  0  0
 29 30  2  0  0  0  0
 29 31  1  0  0  0  0
 31 32  1  0  0  0  0
 31 33  1  0  0  0  0
 33 34  1  0  0  0  0
 33 35  1  0  0  0  0
 33 36  1  0  0  0  0
M  END
$$$$

  -OEChem-01062216103D

 36 37  0     1  0  0  0  0  0999 V2000
   -4.0780   -2.4935    0.2295 H   0  0  0  0  0  0  0  0  0  0  0  0
   -3.9128   -1.6801   -0.4829 C   0  0  0  0  0  0  0  0  0  0  0  0
   -4.6783   -0.9163   -0.3261 H   0  0  0  0  0  0  0  0  0  0  0  0
   -4.0047   -2.0765   -1.4970 H   0  0  0  0  0  0  0  0  0  0  0  0
   -2.5332   -1.0817   -0.2831 C   0  0  0  0  0  0  0  0  0  0  0  0
   -1.7803   -1.5833    0.5306 O   0  0  0  0  0  0  0  0  0  0  0  0
   -2.1735    0.0305   -1.0176 N   0  0  0  0  0  0  0  0  0  0  0  0
   -2.9034    0.4038   -1.6187 H   0  0  0  0  0  0  0  0  0  0  0  0
   -0.9291    0.8372   -0.9555 C   0  0  1  0  0  0  0  0  0  0  0  0
   -0.7386    1.2295   -1.9591 H   0  0  0  0  0  0  0  0  0  0  0  0
   -1.2333    2.0224   -0.0129 C   0  0  0  0  0  0  0  0  0  0  0  0
   -1.5935    1.6410    0.9484 H   0  0  0  0  0  0  0  0  0  0  0  0
   -0.3330    2.6116    0.1885 H   0  0  0  0  0  0  0  0  0  0  0  0
   -2.2584    2.9378   -0.6326 C   0  0  0  0  0  0  0  0  0  0  0  0
   -3.6105    2.9345   -0.3870 C   0  0  0  0  0  0  0  0  0  0  0  0
   -4.1199    2.2928    0.3288 H   0  0  0  0  0  0  0  0  0  0  0  0
   -4.1904    3.8965   -1.2118 N   0  0  0  0  0  0  0  0  0  0  0  0
   -5.1763    4.1510   -1.2199 H   0  0  0  0  0  0  0  0  0  0  0  0
   -3.2211    4.5146   -1.9870 C   0  0  0  0  0  0  0  0  0  0  0  0
   -3.2989    5.5221   -2.9489 C   0  0  0  0  0  0  0  0  0  0  0  0
   -4.2560    5.9638   -3.2034 H   0  0  0  0  0  0  0  0  0  0  0  0
   -2.1243    5.9553   -3.5810 C   0  0  0  0  0  0  0  0  0  0  0  0
   -2.1691    6.7395   -4.3309 H   0  0  0  0  0  0  0  0  0  0  0  0
   -0.8892    5.3795   -3.2439 C   0  0  0  0  0  0  0  0  0  0  0  0
    0.0195    5.7192   -3.7320 H   0  0  0  0  0  0  0  0  0  0  0  0
   -0.8222    4.3684   -2.2747 C   0  0  0  0  0  0  0  0  0  0  0  0
    0.1310    3.9232   -2.0049 H   0  0  0  0  0  0  0  0  0  0  0  0
   -1.9996    3.9425   -1.6525 C   0  0  0  0  0  0  0  0  0  0  0  0
    0.4080    0.1519   -0.5471 C   0  0  0  0  0  0  0  0  0  0  0  0
    1.3626    0.8372   -0.1969 O   0  0  0  0  0  0  0  0  0  0  0  0
    0.6433   -1.1829   -0.8224 N   0  0  0  0  0  0  0  0  0  0  0  0
   -0.2007   -1.7531   -0.7905 H   0  0  0  0  0  0  0  0  0  0  0  0
    1.8972   -1.8380   -0.4708 C   0  0  0  0  0  0  0  0  0  0  0  0
    2.0647   -1.7885    0.6102 H   0  0  0  0  0  0  0  0  0  0  0  0
    1.8694   -2.8895   -0.7710 H   0  0  0  0  0  0  0  0  0  0  0  0
    2.7387   -1.3577   -0.9810 H   0  0  0  0  0  0  0  0  0  0  0  0
  1  2  1  0  0  0  0
  2  3  1  0  0  0  0
  2  4  1  0  0  0  0
  2  5  1  0  0  0  0
  5  6  2  0  0  0  0
  5  7  1  0  0  0  0
  7  8  1  0  0  0  0
  7  9  1  0  0  0  0
  9 10  1  0  0  0  0
  9 11  1  0  0  0  0
  9 29  1  0  0  0  0
 11 12  1  0  0  0  0
 11 13  1  0  0  0  0
 11 14  1  0  0  0  0
 14 15  2  0  0  0  0
 14 28  1  0  0  0  0
 15 16  1  0  0  0  0
 15 17  1  0  0  0  0
 17 18  1  0  0  0  0
 17 19  1  0  0  0  0
 19 20  1  0  0  0  0
 19 28  2  0  0  0  0
 20 21  1  0  0  0  0
 20 22  2  0  0  0  0
 22 23  1  0  0  0  0
 22 24  1  0  0  0  0
 24 25  1  0  0  0  0
 24 26  2  0  0  0  0
 26 27  1  0  0  0  0
 26 28  1  0  0  0  0
 29 30  2  0  0  0  0
 29 31  1  0  0  0  0
 31 32  1  0  0  0  0
 31 33  1  0  0  0  0
 33 34  1  0  0  0  0
 33 35  1  0  0  0  0
 33 36  1  0  0  0  0
M  END
$$$$

  -OEChem-01062216103D

 36 37  0     1  0  0  0  0  0999 V2000
   -3.9498   -2.5205    0.2603 H   0  0  0  0  0  0  0  0  0  0  0  0
   -3.8183   -1.7005   -0.4516 C   0  0  0  0  0  0  0  0  0  0  0  0
   -4.5943   -0.9530   -0.2709 H   0  0  0  0  0  0  0  0  0  0  0  0
   -3.9282   -2.0938   -1.4651 H   0  0  0  0  0  0  0  0  0  0  0  0
   -2.4452   -1.0775   -0.2833 C   0  0  0  0  0  0  0  0  0  0  0  0
   -1.6609   -1.5730    0.5034 O   0  0  0  0  0  0  0  0  0  0  0  0
   -2.1214    0.0411   -1.0264 N   0  0  0  0  0  0  0  0  0  0  0  0
   -2.8758    0.4201   -1.5925 H   0  0  0  0  0  0  0  0  0  0  0  0
   -0.8913    0.8672   -0.9620 C   0  0  1  0  0  0  0  0  0  0  0  0
   -0.6967    1.2615   -1.9640 H   0  0  0  0  0  0  0  0  0  0  0  0
   -1.2048    2.0524   -0.0232 C   0  0  0  0  0  0  0  0  0  0  0  0
   -1.5570    1.6721    0.9413 H   0  0  0  0  0  0  0  0  0  0  0  0
   -0.3082    2.6500    0.1699 H   0  0  0  0  0  0  0  0  0  0  0  0
   -2.2401    2.9552   -0.6441 C   0  0  0  0  0  0  0  0  0  0  0  0
   -3.5902    2.9340   -0.3910 C   0  0  0  0  0  0  0  0  0  0  0  0
   -4.0855    2.2868    0.3295 H   0  0  0  0  0  0  0  0  0  0  0  0
   -4.1880    3.8854   -1.2149 N   0  0  0  0  0  0  0  0  0  0  0  0
   -5.1776    4.1249   -1.2187 H   0  0  0  0  0  0  0  0  0  0  0  0
   -3.2313    4.5173   -1.9947 C   0  0  0  0  0  0  0  0  0  0  0  0
   -3.3276    5.5249   -2.9550 C   0  0  0  0  0  0  0  0  0  0  0  0
   -4.2919    5.9542   -3.2032 H   0  0  0  0  0  0  0  0  0  0  0  0
   -2.1619    5.9752   -3.5919 C   0  0  0  0  0  0  0  0  0  0  0  0
   -2.2212    6.7599   -4.3405 H   0  0  0  0  0  0  0  0  0  0  0  0
   -0.9172    5.4167   -3.2605 C   0  0  0  0  0  0  0  0  0  0  0  0
   -0.0152    5.7706   -3.7508 H   0  0  0  0  0  0  0  0  0  0  0  0
   -0.8320    4.4059   -2.2926 C   0  0  0  0  0  0  0  0  0  0  0  0
    0.1281    3.9750   -2.0254 H   0  0  0  0  0  0  0  0  0  0  0  0
   -2.0002    3.9626   -1.6659 C   0  0  0  0  0  0  0  0  0  0  0  0
    0.4307    0.1585   -0.5483 C   0  0  0  0  0  0  0  0  0  0  0  0
    1.2944    0.7483    0.0919 O   0  0  0  0  0  0  0  0  0  0  0  0
    0.7548   -1.0666   -1.1047 N   0  0  0  0  0  0  0  0  0  0  0  0
   -0.0470   -1.6105   -1.4092 H   0  0  0  0  0  0  0  0  0  0  0  0
    1.9530   -1.8004   -0.7163 C   0  0  0  0  0  0  0  0  0  0  0  0
    1.9322   -2.0248    0.3554 H   0  0  0  0  0  0  0  0  0  0  0  0
    2.0130   -2.7434   -1.2679 H   0  0  0  0  0  0  0  0  0  0  0  0
    2.8518   -1.2152   -0.9373 H   0  0  0  0  0  0  0  0  0  0  0  0
  1  2  1  0  0  0  0
  2  3  1  0  0  0  0
  2  4  1  0  0  0  0
  2  5  1  0  0  0  0
  5  6  2  0  0  0  0
  5  7  1  0  0  0  0
  7  8  1  0  0  0  0
  7  9  1  0  0  0  0
  9 10  1  0  0  0  0
  9 11  1  0  0  0  0
  9 29  1  0  0  0  0
 11 12  1  0  0  0  0
 11 13  1  0  0  0  0
 11 14  1  0  0  0  0
 14 15  2  0  0  0  0
 14 28  1  0  0  0  0
 15 16  1  0  0  0  0
 15 17  1  0  0  0  0
 17 18  1  0  0  0  0
 17 19  1  0  0  0  0
 19 20  1  0  0  0  0
 19 28  2  0  0  0  0
 20 21  1  0  0  0  0
 20 22  2  0  0  0  0
 22 23  1  0  0  0  0
 22 24  1  0  0  0  0
 24 25  1  0  0  0  0
 24 26  2  0  0  0  0
 26 27  1  0  0  0  0
 26 28  1  0  0  0  0
 29 30  2  0  0  0  0
 29 31  1  0  0  0  0
 31 32  1  0  0  0  0
 31 33  1  0  0  0  0
 33 34  1  0  0  0  0
 33 35  1  0  0  0  0
 33 36  1  0  0  0  0
M  END
$$$$

  -OEChem-01062216103D

 36 37  0     1  0  0  0  0  0999 V2000
   -3.8946   -2.5302    0.2708 H   0  0  0  0  0  0  0  0  0  0  0  0
   -3.7785   -1.7027   -0.4351 C   0  0  0  0  0  0  0  0  0  0  0  0
   -4.5483   -0.9556   -0.2284 H   0  0  0  0  0  0  0  0  0  0  0  0
   -3.9128   -2.0840   -1.4502 H   0  0  0  0  0  0  0  0  0  0  0  0
   -2.4008   -1.0838   -0.2919 C   0  0  0  0  0  0  0  0  0  0  0  0
   -1.5998   -1.5925    0.4690 O   0  0  0  0  0  0  0  0  0  0  0  0
   -2.0946    0.0430   -1.0314 N   0  0  0  0  0  0  0  0  0  0  0  0
   -2.8642    0.4324   -1.5692 H   0  0  0  0  0  0  0  0  0  0  0  0
   -0.8769    0.8831   -0.9513 C   0  0  1  0  0  0  0  0  0  0  0  0
   -0.6740    1.2839   -1.9487 H   0  0  0  0  0  0  0  0  0  0  0  0
   -1.2008    2.0641   -0.0131 C   0  0  0  0  0  0  0  0  0  0  0  0
   -1.5560    1.6816    0.9495 H   0  0  0  0  0  0  0  0  0  0  0  0
   -0.3054    2.6625    0.1833 H   0  0  0  0  0  0  0  0  0  0  0  0
   -2.2376    2.9610   -0.6394 C   0  0  0  0  0  0  0  0  0  0  0  0
   -3.5890    2.9311   -0.3932 C   0  0  0  0  0  0  0  0  0  0  0  0
   -4.0839    2.2835    0.3272 H   0  0  0  0  0  0  0  0  0  0  0  0
   -4.1887    3.8748   -1.2246 N   0  0  0  0  0  0  0  0  0  0  0  0
   -5.1797    4.1084   -1.2340 H   0  0  0  0  0  0  0  0  0  0  0  0
   -3.2325    4.5098   -2.0024 C   0  0  0  0  0  0  0  0  0  0  0  0
   -3.3317    5.5123   -2.9675 C   0  0  0  0  0  0  0  0  0  0  0  0
   -4.2979    5.9335   -3.2217 H   0  0  0  0  0  0  0  0  0  0  0  0
   -2.1669    5.9677   -3.6020 C   0  0  0  0  0  0  0  0  0  0  0  0
   -2.2289    6.7487   -4.3541 H   0  0  0  0  0  0  0  0  0  0  0  0
   -0.9200    5.4192   -3.2633 C   0  0  0  0  0  0  0  0  0  0  0  0
   -0.0187    5.7768   -3.7525 H   0  0  0  0  0  0  0  0  0  0  0  0
   -0.8316    4.4140   -2.2897 C   0  0  0  0  0  0  0  0  0  0  0  0
    0.1306    3.9916   -2.0169 H   0  0  0  0  0  0  0  0  0  0  0  0
   -1.9993    3.9652   -1.6653 C   0  0  0  0  0  0  0  0  0  0  0  0
    0.4355    0.1670   -0.5277 C   0  0  0  0  0  0  0  0  0  0  0  0
    1.1676    0.6203    0.3455 O   0  0  0  0  0  0  0  0  0  0  0  0
    0.9079   -0.8758   -1.3054 N   0  0  0  0  0  0  0  0  0  0  0  0
    0.2161   -1.3253   -1.8964 H   0  0  0  0  0  0  0  0  0  0  0  0
    2.0964   -1.6384   -0.9433 C   0  0  0  0  0  0  0  0  0  0  0  0
    1.9610   -2.1147    0.0337 H   0  0  0  0  0  0  0  0  0  0  0  0
    2.2868   -2.4178   -1.6871 H   0  0  0  0  0  0  0  0  0  0  0  0
    2.9741   -0.9851   -0.8984 H   0  0  0  0  0  0  0  0  0  0  0  0
  1  2  1  0  0  0  0
  2  3  1  0  0  0  0
  2  4  1  0  0  0  0
  2  5  1  0  0  0  0
  5  6  2  0  0  0  0
  5  7  1  0  0  0  0
  7  8  1  0  0  0  0
  7  9  1  0  0  0  0
  9 10  1  0  0  0  0
  9 11  1  0  0  0  0
  9 29  1  0  0  0  0
 11 12  1  0  0  0  0
 11 13  1  0  0  0  0
 11 14  1  0  0  0  0
 14 15  2  0  0  0  0
 14 28  1  0  0  0  0
 15 16  1  0  0  0  0
 15 17  1  0  0  0  0
 17 18  1  0  0  0  0
 17 19  1  0  0  0  0
 19 20  1  0  0  0  0
 19 28  2  0  0  0  0
 20 21  1  0  0  0  0
 20 22  2  0  0  0  0
 22 23  1  0  0  0  0
 22 24  1  0  0  0  0
 24 25  1  0  0  0  0
 24 26  2  0  0  0  0
 26 27  1  0  0  0  0
 26 28  1  0  0  0  0
 29 30  2  0  0  0  0
 29 31  1  0  0  0  0
 31 32  1  0  0  0  0
 31 33  1  0  0  0  0
 33 34  1  0  0  0  0
 33 35  1  0  0  0  0
 33 36  1  0  0  0  0
M  END
$$$$

  -OEChem-01062216103D

 36 37  0     1  0  0  0  0  0999 V2000
   -3.8830   -2.5588    0.2535 H   0  0  0  0  0  0  0  0  0  0  0  0
   -3.7790   -1.7102   -0.4287 C   0  0  0  0  0  0  0  0  0  0  0  0
   -4.5412   -0.9675   -0.1822 H   0  0  0  0  0  0  0  0  0  0  0  0
   -3.9365   -2.0606   -1.4515 H   0  0  0  0  0  0  0  0  0  0  0  0
   -2.3963   -1.0998   -0.2961 C   0  0  0  0  0  0  0  0  0  0  0  0
   -1.5869   -1.6278    0.4421 O   0  0  0  0  0  0  0  0  0  0  0  0
   -2.0935    0.0303   -1.0324 N   0  0  0  0  0  0  0  0  0  0  0  0
   -2.8690    0.4255   -1.5568 H   0  0  0  0  0  0  0  0  0  0  0  0
   -0.8815    0.8757   -0.9421 C   0  0  1  0  0  0  0  0  0  0  0  0
   -0.6756    1.2797   -1.9375 H   0  0  0  0  0  0  0  0  0  0  0  0
   -1.2073    2.0582   -0.0077 C   0  0  0  0  0  0  0  0  0  0  0  0
   -1.5680    1.6770    0.9537 H   0  0  0  0  0  0  0  0  0  0  0  0
   -0.3083    2.6506    0.1919 H   0  0  0  0  0  0  0  0  0  0  0  0
   -2.2402    2.9569   -0.6383 C   0  0  0  0  0  0  0  0  0  0  0  0
   -3.5926    2.9309   -0.3975 C   0  0  0  0  0  0  0  0  0  0  0  0
   -4.0922    2.2851    0.3214 H   0  0  0  0  0  0  0  0  0  0  0  0
   -4.1864    3.8773   -1.2303 N   0  0  0  0  0  0  0  0  0  0  0  0
   -5.1767    4.1137   -1.2434 H   0  0  0  0  0  0  0  0  0  0  0  0
   -3.2259    4.5086   -2.0052 C   0  0  0  0  0  0  0  0  0  0  0  0
   -3.3202    5.5107   -2.9710 C   0  0  0  0  0  0  0  0  0  0  0  0
   -4.2847    5.9349   -3.2270 H   0  0  0  0  0  0  0  0  0  0  0  0
   -2.1528    5.9621   -3.6035 C   0  0  0  0  0  0  0  0  0  0  0  0
   -2.2109    6.7429   -4.3562 H   0  0  0  0  0  0  0  0  0  0  0  0
   -0.9084    5.4096   -3.2621 C   0  0  0  0  0  0  0  0  0  0  0  0
   -0.0053    5.7642   -3.7501 H   0  0  0  0  0  0  0  0  0  0  0  0
   -0.8252    4.4046   -2.2877 C   0  0  0  0  0  0  0  0  0  0  0  0
    0.1353    3.9798   -2.0139 H   0  0  0  0  0  0  0  0  0  0  0  0
   -1.9953    3.9599   -1.6644 C   0  0  0  0  0  0  0  0  0  0  0  0
    0.4293    0.1639   -0.5105 C   0  0  0  0  0  0  0  0  0  0  0  0
    1.0285    0.4734    0.5138 O   0  0  0  0  0  0  0  0  0  0  0  0
    1.0749   -0.6455   -1.4288 N   0  0  0  0  0  0  0  0  0  0  0  0
    0.5108   -0.9749   -2.2055 H   0  0  0  0  0  0  0  0  0  0  0  0
    2.2960   -1.3730   -1.1062 C   0  0  0  0  0  0  0  0  0  0  0  0
    2.1243   -2.0524   -0.2645 H   0  0  0  0  0  0  0  0  0  0  0  0
    2.6232   -1.9624   -1.9679 H   0  0  0  0  0  0  0  0  0  0  0  0
    3.0991   -0.6776   -0.8400 H   0  0  0  0  0  0  0  0  0  0  0  0
  1  2  1  0  0  0  0
  2  3  1  0  0  0  0
  2  4  1  0  0  0  0
  2  5  1  0  0  0  0
  5  6  2  0  0  0  0
  5  7  1  0  0  0  0
  7  8  1  0  0  0  0
  7  9  1  0  0  0  0
  9 10  1  0  0  0  0
  9 11  1  0  0  0  0
  9 29  1  0  0  0  0
 11 12  1  0  0  0  0
 11 13  1  0  0  0  0
 11 14  1  0  0  0  0
 14 15  2  0  0  0  0
 14 28  1  0  0  0  0
 15 16  1  0  0  0  0
 15 17  1  0  0  0  0
 17 18  1  0  0  0  0
 17 19  1  0  0  0  0
 19 20  1  0  0  0  0
 19 28  2  0  0  0  0
 20 21  1  0  0  0  0
 20 22  2  0  0  0  0
 22 23  1  0  0  0  0
 22 24  1  0  0  0  0
 24 25  1  0  0  0  0
 24 26  2  0  0  0  0
 26 27  1  0  0  0  0
 26 28  1  0  0  0  0
 29 30  2  0  0  0  0
 29 31  1  0  0  0  0
 31 32  1  0  0  0  0
 31 33  1  0  0  0  0
 33 34  1  0  0  0  0
 33 35  1  0  0  0  0
 33 36  1  0  0  0  0
M  END
$$$$

  -OEChem-01062216103D

 36 37  0     1  0  0  0  0  0999 V2000
   -3.9160   -2.5564    0.2450 H   0  0  0  0  0  0  0  0  0  0  0  0
   -3.8098   -1.6987   -0.4257 C   0  0  0  0  0  0  0  0  0  0  0  0
   -4.5560   -0.9477   -0.1557 H   0  0  0  0  0  0  0  0  0  0  0  0
   -3.9881   -2.0305   -1.4514 H   0  0  0  0  0  0  0  0  0  0  0  0
   -2.4155   -1.1126   -0.3064 C   0  0  0  0  0  0  0  0  0  0  0  0
   -1.6045   -1.6640    0.4116 O   0  0  0  0  0  0  0  0  0  0  0  0
   -2.1037    0.0147   -1.0430 N   0  0  0  0  0  0  0  0  0  0  0  0
   -2.8817    0.4228   -1.5531 H   0  0  0  0  0  0  0  0  0  0  0  0
   -0.8890    0.8552   -0.9496 C   0  0  1  0  0  0  0  0  0  0  0  0
   -0.6843    1.2623   -1.9441 H   0  0  0  0  0  0  0  0  0  0  0  0
   -1.2098    2.0353   -0.0119 C   0  0  0  0  0  0  0  0  0  0  0  0
   -1.5743    1.6520    0.9473 H   0  0  0  0  0  0  0  0  0  0  0  0
   -0.3062    2.6196    0.1917 H   0  0  0  0  0  0  0  0  0  0  0  0
   -2.2389    2.9404   -0.6393 C   0  0  0  0  0  0  0  0  0  0  0  0
   -3.5914    2.9196   -0.3988 C   0  0  0  0  0  0  0  0  0  0  0  0
   -4.0942    2.2737    0.3178 H   0  0  0  0  0  0  0  0  0  0  0  0
   -4.1811    3.8706   -1.2296 N   0  0  0  0  0  0  0  0  0  0  0  0
   -5.1707    4.1110   -1.2424 H   0  0  0  0  0  0  0  0  0  0  0  0
   -3.2173    4.5001   -2.0026 C   0  0  0  0  0  0  0  0  0  0  0  0
   -3.3055    5.5044   -2.9669 C   0  0  0  0  0  0  0  0  0  0  0  0
   -4.2677    5.9326   -3.2248 H   0  0  0  0  0  0  0  0  0  0  0  0
   -2.1347    5.9529   -3.5953 C   0  0  0  0  0  0  0  0  0  0  0  0
   -2.1876    6.7352   -4.3469 H   0  0  0  0  0  0  0  0  0  0  0  0
   -0.8929    5.3959   -3.2513 C   0  0  0  0  0  0  0  0  0  0  0  0
    0.0129    5.7493   -3.7352 H   0  0  0  0  0  0  0  0  0  0  0  0
   -0.8157    4.3883   -2.2795 C   0  0  0  0  0  0  0  0  0  0  0  0
    0.1426    3.9599   -2.0034 H   0  0  0  0  0  0  0  0  0  0  0  0
   -1.9892    3.9459   -1.6613 C   0  0  0  0  0  0  0  0  0  0  0  0
    0.4240    0.1513   -0.5116 C   0  0  0  0  0  0  0  0  0  0  0  0
    0.8988    0.3118    0.6077 O   0  0  0  0  0  0  0  0  0  0  0  0
    1.2388   -0.3956   -1.4883 N   0  0  0  0  0  0  0  0  0  0  0  0
    0.8056   -0.5851   -2.3862 H   0  0  0  0  0  0  0  0  0  0  0  0
    2.5111   -1.0384   -1.1828 C   0  0  0  0  0  0  0  0  0  0  0  0
    2.3594   -1.8814   -0.5003 H   0  0  0  0  0  0  0  0  0  0  0  0
    2.9751   -1.4129   -2.1002 H   0  0  0  0  0  0  0  0  0  0  0  0
    3.1989   -0.3259   -0.7154 H   0  0  0  0  0  0  0  0  0  0  0  0
  1  2  1  0  0  0  0
  2  3  1  0  0  0  0
  2  4  1  0  0  0  0
  2  5  1  0  0  0  0
  5  6  2  0  0  0  0
  5  7  1  0  0  0  0
  7  8  1  0  0  0  0
  7  9  1  0  0  0  0
  9 10  1  0  0  0  0
  9 11  1  0  0  0  0
  9 29  1  0  0  0  0
 11 12  1  0  0  0  0
 11 13  1  0  0  0  0
 11 14  1  0  0  0  0
 14 15  2  0  0  0  0
 14 28  1  0  0  0  0
 15 16  1  0  0  0  0
 15 17  1  0  0  0  0
 17 18  1  0  0  0  0
 17 19  1  0  0  0  0
 19 20  1  0  0  0  0
 19 28  2  0  0  0  0
 20 21  1  0  0  0  0
 20 22  2  0  0  0  0
 22 23  1  0  0  0  0
 22 24  1  0  0  0  0
 24 25  1  0  0  0  0
 24 26  2  0  0  0  0
 26 27  1  0  0  0  0
 26 28  1  0  0  0  0
 29 30  2  0  0  0  0
 29 31  1  0  0  0  0
 31 32  1  0  0  0  0
 31 33  1  0  0  0  0
 33 34  1  0  0  0  0
 33 35  1  0  0  0  0
 33 36  1  0  0  0  0
M  END
$$$$

  -OEChem-01062216103D

 36 37  0     1  0  0  0  0  0999 V2000
   -4.0039   -2.4793    0.2882 H   0  0  0  0  0  0  0  0  0  0  0  0
   -3.8553   -1.6779   -0.4415 C   0  0  0  0  0  0  0  0  0  0  0  0
   -4.5808   -0.8855   -0.2431 H   0  0  0  0  0  0  0  0  0  0  0  0
   -4.0255   -2.0776   -1.4441 H   0  0  0  0  0  0  0  0  0  0  0  0
   -2.4435   -1.1315   -0.3356 C   0  0  0  0  0  0  0  0  0  0  0  0
   -1.6372   -1.7204    0.3564 O   0  0  0  0  0  0  0  0  0  0  0  0
   -2.1133   -0.0061   -1.0664 N   0  0  0  0  0  0  0  0  0  0  0  0
   -2.8896    0.4182   -1.5655 H   0  0  0  0  0  0  0  0  0  0  0  0
   -0.8931    0.8261   -0.9678 C   0  0  1  0  0  0  0  0  0  0  0  0
   -0.6918    1.2376   -1.9610 H   0  0  0  0  0  0  0  0  0  0  0  0
   -1.2013    2.0013   -0.0208 C   0  0  0  0  0  0  0  0  0  0  0  0
   -1.5664    1.6138    0.9366 H   0  0  0  0  0  0  0  0  0  0  0  0
   -0.2910    2.5744    0.1850 H   0  0  0  0  0  0  0  0  0  0  0  0
   -2.2242    2.9202   -0.6366 C   0  0  0  0  0  0  0  0  0  0  0  0
   -3.5752    2.9046   -0.3872 C   0  0  0  0  0  0  0  0  0  0  0  0
   -4.0767    2.2565    0.3287 H   0  0  0  0  0  0  0  0  0  0  0  0
   -4.1653    3.8636   -1.2074 N   0  0  0  0  0  0  0  0  0  0  0  0
   -5.1535    4.1096   -1.2111 H   0  0  0  0  0  0  0  0  0  0  0  0
   -3.2039    4.4912   -1.9843 C   0  0  0  0  0  0  0  0  0  0  0  0
   -3.2961    5.5004   -2.9426 C   0  0  0  0  0  0  0  0  0  0  0  0
   -4.2586    5.9344   -3.1894 H   0  0  0  0  0  0  0  0  0  0  0  0
   -2.1292    5.9463   -3.5794 C   0  0  0  0  0  0  0  0  0  0  0  0
   -2.1860    6.7327   -4.3263 H   0  0  0  0  0  0  0  0  0  0  0  0
   -0.8872    5.3815   -3.2502 C   0  0  0  0  0  0  0  0  0  0  0  0
    0.0149    5.7328   -3.7420 H   0  0  0  0  0  0  0  0  0  0  0  0
   -0.8057    4.3687   -2.2839 C   0  0  0  0  0  0  0  0  0  0  0  0
    0.1531    3.9338   -2.0203 H   0  0  0  0  0  0  0  0  0  0  0  0
   -1.9756    3.9291   -1.6559 C   0  0  0  0  0  0  0  0  0  0  0  0
    0.4243    0.1327   -0.5247 C   0  0  0  0  0  0  0  0  0  0  0  0
    0.7823    0.1301    0.6481 O   0  0  0  0  0  0  0  0  0  0  0  0
    1.3895   -0.1304   -1.4826 N   0  0  0  0  0  0  0  0  0  0  0  0
    1.0837   -0.1541   -2.4498 H   0  0  0  0  0  0  0  0  0  0  0  0
    2.7054   -0.6661   -1.1540 C   0  0  0  0  0  0  0  0  0  0  0  0
    2.6082   -1.6092   -0.6057 H   0  0  0  0  0  0  0  0  0  0  0  0
    3.2768   -0.8538   -2.0678 H   0  0  0  0  0  0  0  0  0  0  0  0
    3.2653    0.0446   -0.5369 H   0  0  0  0  0  0  0  0  0  0  0  0
  1  2  1  0  0  0  0
  2  3  1  0  0  0  0
  2  4  1  0  0  0  0
  2  5  1  0  0  0  0
  5  6  2  0  0  0  0
  5  7  1  0  0  0  0
  7  8  1  0  0  0  0
  7  9  1  0  0  0  0
  9 10  1  0  0  0  0
  9 11  1  0  0  0  0
  9 29  1  0  0  0  0
 11 12  1  0  0  0  0
 11 13  1  0  0  0  0
 11 14  1  0  0  0  0
 14 15  2  0  0  0  0
 14 28  1  0  0  0  0
 15 16  1  0  0  0  0
 15 17  1  0  0  0  0
 17 18  1  0  0  0  0
 17 19  1  0  0  0  0
 19 20  1  0  0  0  0
 19 28  2  0  0  0  0
 20 21  1  0  0  0  0
 20 22  2  0  0  0  0
 22 23  1  0  0  0  0
 22 24  1  0  0  0  0
 24 25  1  0  0  0  0
 24 26  2  0  0  0  0
 26 27  1  0  0  0  0
 26 28  1  0  0  0  0
 29 30  2  0  0  0  0
 29 31  1  0  0  0  0
 31 32  1  0  0  0  0
 31 33  1  0  0  0  0
 33 34  1  0  0  0  0
 33 35  1  0  0  0  0
 33 36  1  0  0  0  0
M  END
$$$$

  -OEChem-01062216103D

 36 37  0     1  0  0  0  0  0999 V2000
   -4.0201   -2.5327    0.2296 H   0  0  0  0  0  0  0  0  0  0  0  0
   -3.8938   -1.6629   -0.4217 C   0  0  0  0  0  0  0  0  0  0  0  0
   -4.5839   -0.8801   -0.0983 H   0  0  0  0  0  0  0  0  0  0  0  0
   -4.1347   -1.9538   -1.4471 H   0  0  0  0  0  0  0  0  0  0  0  0
   -2.4645   -1.1587   -0.3471 C   0  0  0  0  0  0  0  0  0  0  0  0
   -1.6570   -1.7884    0.3052 O   0  0  0  0  0  0  0  0  0  0  0  0
   -2.1234   -0.0346   -1.0753 N   0  0  0  0  0  0  0  0  0  0  0  0
   -2.9024    0.4034   -1.5579 H   0  0  0  0  0  0  0  0  0  0  0  0
   -0.8991    0.7935   -0.9813 C   0  0  1  0  0  0  0  0  0  0  0  0
   -0.7100    1.2033   -1.9775 H   0  0  0  0  0  0  0  0  0  0  0  0
   -1.2011    1.9689   -0.0330 C   0  0  0  0  0  0  0  0  0  0  0  0
   -1.5668    1.5823    0.9246 H   0  0  0  0  0  0  0  0  0  0  0  0
   -0.2882    2.5377    0.1732 H   0  0  0  0  0  0  0  0  0  0  0  0
   -2.2230    2.8912   -0.6462 C   0  0  0  0  0  0  0  0  0  0  0  0
   -3.5744    2.8840   -0.3979 C   0  0  0  0  0  0  0  0  0  0  0  0
   -4.0810    2.2359    0.3143 H   0  0  0  0  0  0  0  0  0  0  0  0
   -4.1570    3.8498   -1.2162 N   0  0  0  0  0  0  0  0  0  0  0  0
   -5.1442    4.1001   -1.2235 H   0  0  0  0  0  0  0  0  0  0  0  0
   -3.1898    4.4776   -1.9858 C   0  0  0  0  0  0  0  0  0  0  0  0
   -3.2719    5.4945   -2.9371 C   0  0  0  0  0  0  0  0  0  0  0  0
   -4.2310    5.9350   -3.1863 H   0  0  0  0  0  0  0  0  0  0  0  0
   -2.0992    5.9400   -3.5637 C   0  0  0  0  0  0  0  0  0  0  0  0
   -2.1481    6.7324   -4.3048 H   0  0  0  0  0  0  0  0  0  0  0  0
   -0.8615    5.3673   -3.2312 C   0  0  0  0  0  0  0  0  0  0  0  0
    0.0451    5.7194   -3.7141 H   0  0  0  0  0  0  0  0  0  0  0  0
   -0.7905    4.3465   -2.2728 C   0  0  0  0  0  0  0  0  0  0  0  0
    0.1650    3.9068   -2.0053 H   0  0  0  0  0  0  0  0  0  0  0  0
   -1.9661    3.9068   -1.6564 C   0  0  0  0  0  0  0  0  0  0  0  0
    0.4318    0.1233   -0.5428 C   0  0  0  0  0  0  0  0  0  0  0  0
    0.7004   -0.0473    0.6405 O   0  0  0  0  0  0  0  0  0  0  0  0
    1.5031    0.1555   -1.4216 N   0  0  0  0  0  0  0  0  0  0  0  0
    1.2931    0.3146   -2.4015 H   0  0  0  0  0  0  0  0  0  0  0  0
    2.8475   -0.2786   -1.0583 C   0  0  0  0  0  0  0  0  0  0  0  0
    2.8338   -1.3177   -0.7129 H   0  0  0  0  0  0  0  0  0  0  0  0
    3.5141   -0.2098   -1.9232 H   0  0  0  0  0  0  0  0  0  0  0  0
    3.2523    0.3530   -0.2605 H   0  0  0  0  0  0  0  0  0  0  0  0
  1  2  1  0  0  0  0
  2  3  1  0  0  0  0
  2  4  1  0  0  0  0
  2  5  1  0  0  0  0
  5  6  2  0  0  0  0
  5  7  1  0  0  0  0
  7  8  1  0  0  0  0
  7  9  1  0  0  0  0
  9 10  1  0  0  0  0
  9 11  1  0  0  0  0
  9 29  1  0  0  0  0
 11 12  1  0  0  0  0
 11 13  1  0  0  0  0
 11 14  1  0  0  0  0
 14 15  2  0  0  0  0
 14 28  1  0  0  0  0
 15 16  1  0  0  0  0
 15 17  1  0  0  0  0
 17 18  1  0  0  0  0
 17 19  1  0  0  0  0
 19 20  1  0  0  0  0
 19 28  2  0  0  0  0
 20 21  1  0  0  0  0
 20 22  2  0  0  0  0
 22 23  1  0  0  0  0
 22 24  1  0  0  0  0
 24 25  1  0  0  0  0
 24 26  2  0  0  0  0
 26 27  1  0  0  0  0
 26 28  1  0  0  0  0
 29 30  2  0  0  0  0
 29 31  1  0  0  0  0
 31 32  1  0  0  0  0
 31 33  1  0  0  0  0
 33 34  1  0  0  0  0
 33 35  1  0  0  0  0
 33 36  1  0  0  0  0
M  END
$$$$

  -OEChem-01062216103D

 36 37  0     1  0  0  0  0  0999 V2000
   -4.1079   -2.4880    0.2166 H   0  0  0  0  0  0  0  0  0  0  0  0
   -3.9400   -1.6412   -0.4551 C   0  0  0  0  0  0  0  0  0  0  0  0
   -4.6233   -0.8349   -0.1790 H   0  0  0  0  0  0  0  0  0  0  0  0
   -4.1521   -1.9575   -1.4790 H   0  0  0  0  0  0  0  0  0  0  0  0
   -2.5028   -1.1661   -0.3478 C   0  0  0  0  0  0  0  0  0  0  0  0
   -1.7296   -1.8116    0.3284 O   0  0  0  0  0  0  0  0  0  0  0  0
   -2.1293   -0.0523   -1.0760 N   0  0  0  0  0  0  0  0  0  0  0  0
   -2.8955    0.3876   -1.5768 H   0  0  0  0  0  0  0  0  0  0  0  0
   -0.8930    0.7612   -0.9959 C   0  0  1  0  0  0  0  0  0  0  0  0
   -0.7157    1.1666   -1.9961 H   0  0  0  0  0  0  0  0  0  0  0  0
   -1.1786    1.9341   -0.0405 C   0  0  0  0  0  0  0  0  0  0  0  0
   -1.5373    1.5441    0.9183 H   0  0  0  0  0  0  0  0  0  0  0  0
   -0.2609    2.4968    0.1612 H   0  0  0  0  0  0  0  0  0  0  0  0
   -2.1996    2.8655   -0.6406 C   0  0  0  0  0  0  0  0  0  0  0  0
   -3.5482    2.8635   -0.3780 C   0  0  0  0  0  0  0  0  0  0  0  0
   -4.0504    2.2135    0.3357 H   0  0  0  0  0  0  0  0  0  0  0  0
   -4.1343    3.8366   -1.1848 N   0  0  0  0  0  0  0  0  0  0  0  0
   -5.1202    4.0922   -1.1793 H   0  0  0  0  0  0  0  0  0  0  0  0
   -3.1723    4.4617   -1.9630 C   0  0  0  0  0  0  0  0  0  0  0  0
   -3.2606    5.4818   -2.9104 C   0  0  0  0  0  0  0  0  0  0  0  0
   -4.2206    5.9274   -3.1467 H   0  0  0  0  0  0  0  0  0  0  0  0
   -2.0934    5.9226   -3.5507 C   0  0  0  0  0  0  0  0  0  0  0  0
   -2.1475    6.7165   -4.2897 H   0  0  0  0  0  0  0  0  0  0  0  0
   -0.8546    5.3432   -3.2347 C   0  0  0  0  0  0  0  0  0  0  0  0
    0.0476    5.6923   -3.7286 H   0  0  0  0  0  0  0  0  0  0  0  0
   -0.7773    4.3200   -2.2788 C   0  0  0  0  0  0  0  0  0  0  0  0
    0.1795    3.8762   -2.0234 H   0  0  0  0  0  0  0  0  0  0  0  0
   -1.9477    3.8836   -1.6498 C   0  0  0  0  0  0  0  0  0  0  0  0
    0.4507    0.1141   -0.5619 C   0  0  0  0  0  0  0  0  0  0  0  0
    0.6534   -0.2458    0.5900 O   0  0  0  0  0  0  0  0  0  0  0  0
    1.5812    0.4202   -1.3039 N   0  0  0  0  0  0  0  0  0  0  0  0
    1.4410    0.7822   -2.2414 H   0  0  0  0  0  0  0  0  0  0  0  0
    2.9372    0.0943   -0.8761 C   0  0  0  0  0  0  0  0  0  0  0  0
    3.0321   -0.9806   -0.6887 H   0  0  0  0  0  0  0  0  0  0  0  0
    3.6558    0.3754   -1.6517 H   0  0  0  0  0  0  0  0  0  0  0  0
    3.1899    0.6358    0.0416 H   0  0  0  0  0  0  0  0  0  0  0  0
  1  2  1  0  0  0  0
  2  3  1  0  0  0  0
  2  4  1  0  0  0  0
  2  5  1  0  0  0  0
  5  6  2  0  0  0  0
  5  7  1  0  0  0  0
  7  8  1  0  0  0  0
  7  9  1  0  0  0  0
  9 10  1  0  0  0  0
  9 11  1  0  0  0  0
  9 29  1  0  0  0  0
 11 12  1  0  0  0  0
 11 13  1  0  0  0  0
 11 14  1  0  0  0  0
 14 15  2  0  0  0  0
 14 28  1  0  0  0  0
 15 16  1  0  0  0  0
 15 17  1  0  0  0  0
 17 18  1  0  0  0  0
 17 19  1  0  0  0  0
 19 20  1  0  0  0  0
 19 28  2  0  0  0  0
 20 21  1  0  0  0  0
 20 22  2  0  0  0  0
 22 23  1  0  0  0  0
 22 24  1  0  0  0  0
 24 25  1  0  0  0  0
 24 26  2  0  0  0  0
 26 27  1  0  0  0  0
 26 28  1  0  0  0  0
 29 30  2  0  0  0  0
 29 31  1  0  0  0  0
 31 32  1  0  0  0  0
 31 33  1  0  0  0  0
 33 34  1  0  0  0  0
 33 35  1  0  0  0  0
 33 36  1  0  0  0  0
M  END
$$$$

  -OEChem-01062216103D

 36 37  0     1  0  0  0  0  0999 V2000
   -3.5012   -2.8746    0.2193 H   0  0  0  0  0  0  0  0  0  0  0  0
   -3.4066   -2.1170   -0.5638 C   0  0  0  0  0  0  0  0  0  0  0  0
   -4.4040   -1.7720   -0.8464 H   0  0  0  0  0  0  0  0  0  0  0  0
   -2.9223   -2.5713   -1.4315 H   0  0  0  0  0  0  0  0  0  0  0  0
   -2.5759   -0.9524   -0.0601 C   0  0  0  0  0  0  0  0  0  0  0  0
   -2.3729   -0.8300    1.1363 O   0  0  0  0  0  0  0  0  0  0  0  0
   -2.2855    0.0988   -0.9075 N   0  0  0  0  0  0  0  0  0  0  0  0
   -2.6896   -0.0152   -1.8307 H   0  0  0  0  0  0  0  0  0  0  0  0
   -1.0226    0.8756   -0.8836 C   0  0  1  0  0  0  0  0  0  0  0  0
   -0.8457    1.2227   -1.9057 H   0  0  0  0  0  0  0  0  0  0  0  0
   -1.2294    2.1073    0.0142 C   0  0  0  0  0  0  0  0  0  0  0  0
   -1.5861    1.7854    0.9988 H   0  0  0  0  0  0  0  0  0  0  0  0
   -0.2852    2.6384    0.1689 H   0  0  0  0  0  0  0  0  0  0  0  0
   -2.2206    3.0530   -0.6099 C   0  0  0  0  0  0  0  0  0  0  0  0
   -3.5579    3.1146   -0.3063 C   0  0  0  0  0  0  0  0  0  0  0  0
   -4.0609    2.4969    0.4356 H   0  0  0  0  0  0  0  0  0  0  0  0
   -4.1291    4.0880   -1.1232 N   0  0  0  0  0  0  0  0  0  0  0  0
   -5.1085    4.3650   -1.1090 H   0  0  0  0  0  0  0  0  0  0  0  0
   -3.1675    4.6511   -1.9476 C   0  0  0  0  0  0  0  0  0  0  0  0
   -3.2477    5.6463   -2.9214 C   0  0  0  0  0  0  0  0  0  0  0  0
   -4.1977    6.1207   -3.1405 H   0  0  0  0  0  0  0  0  0  0  0  0
   -2.0860    6.0251   -3.6087 C   0  0  0  0  0  0  0  0  0  0  0  0
   -2.1346    6.7996   -4.3684 H   0  0  0  0  0  0  0  0  0  0  0  0
   -0.8602    5.4089   -3.3128 C   0  0  0  0  0  0  0  0  0  0  0  0
    0.0380    5.7108   -3.8435 H   0  0  0  0  0  0  0  0  0  0  0  0
   -0.7911    4.4096   -2.3314 C   0  0  0  0  0  0  0  0  0  0  0  0
    0.1561    3.9380   -2.0951 H   0  0  0  0  0  0  0  0  0  0  0  0
   -1.9563    4.0338   -1.6546 C   0  0  0  0  0  0  0  0  0  0  0  0
    0.2990    0.1862   -0.4396 C   0  0  0  0  0  0  0  0  0  0  0  0
    0.3537   -0.9077    0.1034 O   0  0  0  0  0  0  0  0  0  0  0  0
    1.4803    0.6571   -0.9907 N   0  0  0  0  0  0  0  0  0  0  0  0
    1.4441    1.5368   -1.4955 H   0  0  0  0  0  0  0  0  0  0  0  0
    2.7760    0.0164   -0.7934 C   0  0  0  0  0  0  0  0  0  0  0  0
    2.7679   -0.9998   -1.2011 H   0  0  0  0  0  0  0  0  0  0  0  0
    3.5601    0.5857   -1.3013 H   0  0  0  0  0  0  0  0  0  0  0  0
    3.0203   -0.0330    0.2729 H   0  0  0  0  0  0  0  0  0  0  0  0
  1  2  1  0  0  0  0
  2  3  1  0  0  0  0
  2  4  1  0  0  0  0
  2  5  1  0  0  0  0
  5  6  2  0  0  0  0
  5  7  1  0  0  0  0
  7  8  1  0  0  0  0
  7  9  1  0  0  0  0
  9 10  1  0  0  0  0
  9 11  1  0  0  0  0
  9 29  1  0  0  0  0
 11 12  1  0  0  0  0
 11 13  1  0  0  0  0
 11 14  1  0  0  0  0
 14 15  2  0  0  0  0
 14 28  1  0  0  0  0
 15 16  1  0  0  0  0
 15 17  1  0  0  0  0
 17 18  1  0  0  0  0
 17 19  1  0  0  0  0
 19 20  1  0  0  0  0
 19 28  2  0  0  0  0
 20 21  1  0  0  0  0
 20 22  2  0  0  0  0
 22 23  1  0  0  0  0
 22 24  1  0  0  0  0
 24 25  1  0  0  0  0
 24 26  2  0  0  0  0
 26 27  1  0  0  0  0
 26 28  1  0  0  0  0
 29 30  2  0  0  0  0
 29 31  1  0  0  0  0
 31 32  1  0  0  0  0
 31 33  1  0  0  0  0
 33 34  1  0  0  0  0
 33 35  1  0  0  0  0
 33 36  1  0  0  0  0
M  END
$$$$

  -OEChem-01062216103D

 36 37  0     1  0  0  0  0  0999 V2000
   -3.5315   -2.8403    0.2525 H   0  0  0  0  0  0  0  0  0  0  0  0
   -3.4197   -2.1000   -0.5447 C   0  0  0  0  0  0  0  0  0  0  0  0
   -4.4082   -1.7303   -0.8264 H   0  0  0  0  0  0  0  0  0  0  0  0
   -2.9560   -2.5832   -1.4080 H   0  0  0  0  0  0  0  0  0  0  0  0
   -2.5498   -0.9528   -0.0673 C   0  0  0  0  0  0  0  0  0  0  0  0
   -2.2668   -0.8582    1.1163 O   0  0  0  0  0  0  0  0  0  0  0  0
   -2.2741    0.1024   -0.9153 N   0  0  0  0  0  0  0  0  0  0  0  0
   -2.6787   -0.0097   -1.8387 H   0  0  0  0  0  0  0  0  0  0  0  0
   -1.0167    0.8868   -0.8786 C   0  0  1  0  0  0  0  0  0  0  0  0
   -0.8219    1.2355   -1.8970 H   0  0  0  0  0  0  0  0  0  0  0  0
   -1.2475    2.1169    0.0188 C   0  0  0  0  0  0  0  0  0  0  0  0
   -1.6153    1.7899    0.9975 H   0  0  0  0  0  0  0  0  0  0  0  0
   -0.3131    2.6597    0.1895 H   0  0  0  0  0  0  0  0  0  0  0  0
   -2.2399    3.0552   -0.6150 C   0  0  0  0  0  0  0  0  0  0  0  0
   -3.5817    3.1058   -0.3283 C   0  0  0  0  0  0  0  0  0  0  0  0
   -4.0904    2.4819    0.4047 H   0  0  0  0  0  0  0  0  0  0  0  0
   -4.1488    4.0834   -1.1433 N   0  0  0  0  0  0  0  0  0  0  0  0
   -5.1299    4.3551   -1.1390 H   0  0  0  0  0  0  0  0  0  0  0  0
   -3.1820    4.6555   -1.9550 C   0  0  0  0  0  0  0  0  0  0  0  0
   -3.2570    5.6554   -2.9245 C   0  0  0  0  0  0  0  0  0  0  0  0
   -4.2062    6.1295   -3.1482 H   0  0  0  0  0  0  0  0  0  0  0  0
   -2.0918    6.0375   -3.6041 C   0  0  0  0  0  0  0  0  0  0  0  0
   -2.1364    6.8150   -4.3611 H   0  0  0  0  0  0  0  0  0  0  0  0
   -0.8684    5.4176   -3.3066 C   0  0  0  0  0  0  0  0  0  0  0  0
    0.0317    5.7178   -3.8345 H   0  0  0  0  0  0  0  0  0  0  0  0
   -0.8042    4.4147   -2.3286 C   0  0  0  0  0  0  0  0  0  0  0  0
    0.1408    3.9379   -2.0942 H   0  0  0  0  0  0  0  0  0  0  0  0
   -1.9718    4.0390   -1.6559 C   0  0  0  0  0  0  0  0  0  0  0  0
    0.2935    0.1813   -0.4238 C   0  0  0  0  0  0  0  0  0  0  0  0
    0.3599   -1.0275   -0.2398 O   0  0  0  0  0  0  0  0  0  0  0  0
    1.4968    0.8181   -0.6863 N   0  0  0  0  0  0  0  0  0  0  0  0
    1.4610    1.8060   -0.9155 H   0  0  0  0  0  0  0  0  0  0  0  0
    2.8014    0.1876   -0.5136 C   0  0  0  0  0  0  0  0  0  0  0  0
    2.9153   -0.6546   -1.2042 H   0  0  0  0  0  0  0  0  0  0  0  0
    3.5992    0.9090   -0.7147 H   0  0  0  0  0  0  0  0  0  0  0  0
    2.9175   -0.1784    0.5121 H   0  0  0  0  0  0  0  0  0  0  0  0
  1  2  1  0  0  0  0
  2  3  1  0  0  0  0
  2  4  1  0  0  0  0
  2  5  1  0  0  0  0
  5  6  2  0  0  0  0
  5  7  1  0  0  0  0
  7  8  1  0  0  0  0
  7  9  1  0  0  0  0
  9 10  1  0  0  0  0
  9 11  1  0  0  0  0
  9 29  1  0  0  0  0
 11 12  1  0  0  0  0
 11 13  1  0  0  0  0
 11 14  1  0  0  0  0
 14 15  2  0  0  0  0
 14 28  1  0  0  0  0
 15 16  1  0  0  0  0
 15 17  1  0  0  0  0
 17 18  1  0  0  0  0
 17 19  1  0  0  0  0
 19 20  1  0  0  0  0
 19 28  2  0  0  0  0
 20 21  1  0  0  0  0
 20 22  2  0  0  0  0
 22 23  1  0  0  0  0
 22 24  1  0  0  0  0
 24 25  1  0  0  0  0
 24 26  2  0  0  0  0
 26 27  1  0  0  0  0
 26 28  1  0  0  0  0
 29 30  2  0  0  0  0
 29 31  1  0  0  0  0
 31 32  1  0  0  0  0
 31 33  1  0  0  0  0
 33 34  1  0  0  0  0
 33 35  1  0  0  0  0
 33 36  1  0  0  0  0
M  END
$$$$

  -OEChem-01062216103D

 36 37  0     1  0  0  0  0  0999 V2000
   -3.4946   -2.8628    0.2240 H   0  0  0  0  0  0  0  0  0  0  0  0
   -3.4347   -2.0763   -0.5335 C   0  0  0  0  0  0  0  0  0  0  0  0
   -4.4246   -1.6327   -0.6623 H   0  0  0  0  0  0  0  0  0  0  0  0
   -3.1153   -2.5239   -1.4778 H   0  0  0  0  0  0  0  0  0  0  0  0
   -2.4398   -1.0145   -0.1043 C   0  0  0  0  0  0  0  0  0  0  0  0
   -1.9268   -1.0794    1.0019 O   0  0  0  0  0  0  0  0  0  0  0  0
   -2.2155    0.0786   -0.9213 N   0  0  0  0  0  0  0  0  0  0  0  0
   -2.6789    0.0272   -1.8224 H   0  0  0  0  0  0  0  0  0  0  0  0
   -0.9872    0.9040   -0.8701 C   0  0  1  0  0  0  0  0  0  0  0  0
   -0.9356    1.4781   -1.7997 H   0  0  0  0  0  0  0  0  0  0  0  0
   -1.0769    1.9103    0.2965 C   0  0  0  0  0  0  0  0  0  0  0  0
   -1.2801    1.3831    1.2334 H   0  0  0  0  0  0  0  0  0  0  0  0
   -0.1320    2.4441    0.4282 H   0  0  0  0  0  0  0  0  0  0  0  0
   -2.1573    2.9244    0.0339 C   0  0  0  0  0  0  0  0  0  0  0  0
   -3.4383    2.8666    0.5241 C   0  0  0  0  0  0  0  0  0  0  0  0
   -3.8255    2.0852    1.1752 H   0  0  0  0  0  0  0  0  0  0  0  0
   -4.1262    3.9744    0.0336 N   0  0  0  0  0  0  0  0  0  0  0  0
   -5.0960    4.2027    0.2416 H   0  0  0  0  0  0  0  0  0  0  0  0
   -3.2978    4.7382   -0.7735 C   0  0  0  0  0  0  0  0  0  0  0  0
   -3.5233    5.9183   -1.4821 C   0  0  0  0  0  0  0  0  0  0  0  0
   -4.4953    6.3979   -1.4496 H   0  0  0  0  0  0  0  0  0  0  0  0
   -2.4788    6.4740   -2.2342 C   0  0  0  0  0  0  0  0  0  0  0  0
   -2.6409    7.3922   -2.7911 H   0  0  0  0  0  0  0  0  0  0  0  0
   -1.2243    5.8459   -2.2680 C   0  0  0  0  0  0  0  0  0  0  0  0
   -0.4182    6.2798   -2.8519 H   0  0  0  0  0  0  0  0  0  0  0  0
   -1.0078    4.6616   -1.5490 C   0  0  0  0  0  0  0  0  0  0  0  0
   -0.0385    4.1761   -1.5716 H   0  0  0  0  0  0  0  0  0  0  0  0
   -2.0555    4.1139   -0.8013 C   0  0  0  0  0  0  0  0  0  0  0  0
    0.3426    0.1038   -0.8012 C   0  0  0  0  0  0  0  0  0  0  0  0
    0.3827   -1.0780   -1.1262 O   0  0  0  0  0  0  0  0  0  0  0  0
    1.5500    0.7821   -0.7463 N   0  0  0  0  0  0  0  0  0  0  0  0
    1.5203    1.7664   -0.5003 H   0  0  0  0  0  0  0  0  0  0  0  0
    2.8471    0.1188   -0.8131 C   0  0  0  0  0  0  0  0  0  0  0  0
    2.9618   -0.4063   -1.7671 H   0  0  0  0  0  0  0  0  0  0  0  0
    3.6523    0.8547   -0.7266 H   0  0  0  0  0  0  0  0  0  0  0  0
    2.9493   -0.6046    0.0028 H   0  0  0  0  0  0  0  0  0  0  0  0
  1  2  1  0  0  0  0
  2  3  1  0  0  0  0
  2  4  1  0  0  0  0
  2  5  1  0  0  0  0
  5  6  2  0  0  0  0
  5  7  1  0  0  0  0
  7  8  1  0  0  0  0
  7  9  1  0  0  0  0
  9 10  1  0  0  0  0
  9 11  1  0  0  0  0
  9 29  1  0  0  0  0
 11 12  1  0  0  0  0
 11 13  1  0  0  0  0
 11 14  1  0  0  0  0
 14 15  2  0  0  0  0
 14 28  1  0  0  0  0
 15 16  1  0  0  0  0
 15 17  1  0  0  0  0
 17 18  1  0  0  0  0
 17 19  1  0  0  0  0
 19 20  1  0  0  0  0
 19 28  2  0  0  0  0
 20 21  1  0  0  0  0
 20 22  2  0  0  0  0
 22 23  1  0  0  0  0
 22 24  1  0  0  0  0
 24 25  1  0  0  0  0
 24 26  2  0  0  0  0
 26 27  1  0  0  0  0
 26 28  1  0  0  0  0
 29 30  2  0  0  0  0
 29 31  1  0  0  0  0
 31 32  1  0  0  0  0
 31 33  1  0  0  0  0
 33 34  1  0  0  0  0
 33 35  1  0  0  0  0
 33 36  1  0  0  0  0
M  END
$$$$

  -OEChem-01062216103D

 36 37  0     1  0  0  0  0  0999 V2000
   -3.4357   -2.8595    0.2095 H   0  0  0  0  0  0  0  0  0  0  0  0
   -3.4062   -2.0555   -0.5313 C   0  0  0  0  0  0  0  0  0  0  0  0
   -4.4023   -1.6151   -0.6153 H   0  0  0  0  0  0  0  0  0  0  0  0
   -3.1178   -2.4791   -1.4965 H   0  0  0  0  0  0  0  0  0  0  0  0
   -2.4028   -0.9976   -0.1131 C   0  0  0  0  0  0  0  0  0  0  0  0
   -1.8500   -1.0823    0.9728 O   0  0  0  0  0  0  0  0  0  0  0  0
   -2.1953    0.1024   -0.9244 N   0  0  0  0  0  0  0  0  0  0  0  0
   -2.6656    0.0574   -1.8223 H   0  0  0  0  0  0  0  0  0  0  0  0
   -0.9757    0.9387   -0.8696 C   0  0  1  0  0  0  0  0  0  0  0  0
   -0.9193    1.5160   -1.7969 H   0  0  0  0  0  0  0  0  0  0  0  0
   -1.0823    1.9419    0.2992 C   0  0  0  0  0  0  0  0  0  0  0  0
   -1.2814    1.4103    1.2346 H   0  0  0  0  0  0  0  0  0  0  0  0
   -0.1469    2.4914    0.4320 H   0  0  0  0  0  0  0  0  0  0  0  0
   -2.1741    2.9432    0.0327 C   0  0  0  0  0  0  0  0  0  0  0  0
   -3.4577    2.8722    0.5146 C   0  0  0  0  0  0  0  0  0  0  0  0
   -3.8415    2.0873    1.1634 H   0  0  0  0  0  0  0  0  0  0  0  0
   -4.1544    3.9726    0.0196 N   0  0  0  0  0  0  0  0  0  0  0  0
   -5.1273    4.1922    0.2230 H   0  0  0  0  0  0  0  0  0  0  0  0
   -3.3291    4.7442   -0.7834 C   0  0  0  0  0  0  0  0  0  0  0  0
   -3.5618    5.9207   -1.4955 C   0  0  0  0  0  0  0  0  0  0  0  0
   -4.5394    6.3893   -1.4720 H   0  0  0  0  0  0  0  0  0  0  0  0
   -2.5173    6.4868   -2.2400 C   0  0  0  0  0  0  0  0  0  0  0  0
   -2.6853    7.4028   -2.7990 H   0  0  0  0  0  0  0  0  0  0  0  0
   -1.2553    5.8727   -2.2625 C   0  0  0  0  0  0  0  0  0  0  0  0
   -0.4489    6.3152   -2.8398 H   0  0  0  0  0  0  0  0  0  0  0  0
   -1.0318    4.6913   -1.5411 C   0  0  0  0  0  0  0  0  0  0  0  0
   -0.0574    4.2154   -1.5547 H   0  0  0  0  0  0  0  0  0  0  0  0
   -2.0800    4.1334   -0.8019 C   0  0  0  0  0  0  0  0  0  0  0  0
    0.3429    0.1190   -0.8088 C   0  0  0  0  0  0  0  0  0  0  0  0
    0.3991   -0.9829   -1.3451 O   0  0  0  0  0  0  0  0  0  0  0  0
    1.5408    0.7131   -0.4452 N   0  0  0  0  0  0  0  0  0  0  0  0
    1.4888    1.6128    0.0212 H   0  0  0  0  0  0  0  0  0  0  0  0
    2.8167    0.0067   -0.4542 C   0  0  0  0  0  0  0  0  0  0  0  0
    3.0400   -0.3717   -1.4572 H   0  0  0  0  0  0  0  0  0  0  0  0
    3.6239    0.6817   -0.1545 H   0  0  0  0  0  0  0  0  0  0  0  0
    2.7923   -0.8372    0.2433 H   0  0  0  0  0  0  0  0  0  0  0  0
  1  2  1  0  0  0  0
  2  3  1  0  0  0  0
  2  4  1  0  0  0  0
  2  5  1  0  0  0  0
  5  6  2  0  0  0  0
  5  7  1  0  0  0  0
  7  8  1  0  0  0  0
  7  9  1  0  0  0  0
  9 10  1  0  0  0  0
  9 11  1  0  0  0  0
  9 29  1  0  0  0  0
 11 12  1  0  0  0  0
 11 13  1  0  0  0  0
 11 14  1  0  0  0  0
 14 15  2  0  0  0  0
 14 28  1  0  0  0  0
 15 16  1  0  0  0  0
 15 17  1  0  0  0  0
 17 18  1  0  0  0  0
 17 19  1  0  0  0  0
 19 20  1  0  0  0  0
 19 28  2  0  0  0  0
 20 21  1  0  0  0  0
 20 22  2  0  0  0  0
 22 23  1  0  0  0  0
 22 24  1  0  0  0  0
 24 25  1  0  0  0  0
 24 26  2  0  0  0  0
 26 27  1  0  0  0  0
 26 28  1  0  0  0  0
 29 30  2  0  0  0  0
 29 31  1  0  0  0  0
 31 32  1  0  0  0  0
 31 33  1  0  0  0  0
 33 34  1  0  0  0  0
 33 35  1  0  0  0  0
 33 36  1  0  0  0  0
M  END
$$$$

  -OEChem-01062216103D

 36 37  0     1  0  0  0  0  0999 V2000
   -3.4077   -2.8456    0.2181 H   0  0  0  0  0  0  0  0  0  0  0  0
   -3.3892   -2.0380   -0.5189 C   0  0  0  0  0  0  0  0  0  0  0  0
   -4.3836   -1.5895   -0.5768 H   0  0  0  0  0  0  0  0  0  0  0  0
   -3.1271   -2.4588   -1.4927 H   0  0  0  0  0  0  0  0  0  0  0  0
   -2.3689   -0.9898   -0.1189 C   0  0  0  0  0  0  0  0  0  0  0  0
   -1.7807   -1.0925    0.9467 O   0  0  0  0  0  0  0  0  0  0  0  0
   -2.1741    0.1147   -0.9265 N   0  0  0  0  0  0  0  0  0  0  0  0
   -2.6581    0.0810   -1.8178 H   0  0  0  0  0  0  0  0  0  0  0  0
   -0.9638    0.9626   -0.8702 C   0  0  1  0  0  0  0  0  0  0  0  0
   -0.9074    1.5409   -1.7972 H   0  0  0  0  0  0  0  0  0  0  0  0
   -1.0845    1.9661    0.2969 C   0  0  0  0  0  0  0  0  0  0  0  0
   -1.2808    1.4339    1.2328 H   0  0  0  0  0  0  0  0  0  0  0  0
   -0.1551    2.5265    0.4275 H   0  0  0  0  0  0  0  0  0  0  0  0
   -2.1858    2.9556    0.0253 C   0  0  0  0  0  0  0  0  0  0  0  0
   -3.4711    2.8740    0.5018 C   0  0  0  0  0  0  0  0  0  0  0  0
   -3.8521    2.0861    1.1487 H   0  0  0  0  0  0  0  0  0  0  0  0
   -4.1746    3.9681    0.0018 N   0  0  0  0  0  0  0  0  0  0  0  0
   -5.1510    4.1790    0.1973 H   0  0  0  0  0  0  0  0  0  0  0  0
   -3.3514    4.7479   -0.7955 C   0  0  0  0  0  0  0  0  0  0  0  0
   -3.5904    5.9225   -1.5093 C   0  0  0  0  0  0  0  0  0  0  0  0
   -4.5728    6.3815   -1.4946 H   0  0  0  0  0  0  0  0  0  0  0  0
   -2.5455    6.4998   -2.2447 C   0  0  0  0  0  0  0  0  0  0  0  0
   -2.7176    7.4143   -2.8045 H   0  0  0  0  0  0  0  0  0  0  0  0
   -1.2775    5.8981   -2.2577 C   0  0  0  0  0  0  0  0  0  0  0  0
   -0.4704    6.3490   -2.8275 H   0  0  0  0  0  0  0  0  0  0  0  0
   -1.0484    4.7172   -1.5366 C   0  0  0  0  0  0  0  0  0  0  0  0
   -0.0692    4.2501   -1.5433 H   0  0  0  0  0  0  0  0  0  0  0  0
   -2.0969    4.1484   -0.8061 C   0  0  0  0  0  0  0  0  0  0  0  0
    0.3505    0.1369   -0.8137 C   0  0  0  0  0  0  0  0  0  0  0  0
    0.4541   -0.8608   -1.5201 O   0  0  0  0  0  0  0  0  0  0  0  0
    1.4877    0.6021   -0.1733 N   0  0  0  0  0  0  0  0  0  0  0  0
    1.3653    1.3742    0.4740 H   0  0  0  0  0  0  0  0  0  0  0  0
    2.7307   -0.1579   -0.1175 C   0  0  0  0  0  0  0  0  0  0  0  0
    3.0964   -0.3740   -1.1269 H   0  0  0  0  0  0  0  0  0  0  0  0
    3.4995    0.4143    0.4102 H   0  0  0  0  0  0  0  0  0  0  0  0
    2.5763   -1.1042    0.4116 H   0  0  0  0  0  0  0  0  0  0  0  0
  1  2  1  0  0  0  0
  2  3  1  0  0  0  0
  2  4  1  0  0  0  0
  2  5  1  0  0  0  0
  5  6  2  0  0  0  0
  5  7  1  0  0  0  0
  7  8  1  0  0  0  0
  7  9  1  0  0  0  0
  9 10  1  0  0  0  0
  9 11  1  0  0  0  0
  9 29  1  0  0  0  0
 11 12  1  0  0  0  0
 11 13  1  0  0  0  0
 11 14  1  0  0  0  0
 14 15  2  0  0  0  0
 14 28  1  0  0  0  0
 15 16  1  0  0  0  0
 15 17  1  0  0  0  0
 17 18  1  0  0  0  0
 17 19  1  0  0  0  0
 19 20  1  0  0  0  0
 19 28  2  0  0  0  0
 20 21  1  0  0  0  0
 20 22  2  0  0  0  0
 22 23  1  0  0  0  0
 22 24  1  0  0  0  0
 24 25  1  0  0  0  0
 24 26  2  0  0  0  0
 26 27  1  0  0  0  0
 26 28  1  0  0  0  0
 29 30  2  0  0  0  0
 29 31  1  0  0  0  0
 31 32  1  0  0  0  0
 31 33  1  0  0  0  0
 33 34  1  0  0  0  0
 33 35  1  0  0  0  0
 33 36  1  0  0  0  0
M  END
$$$$

  -OEChem-01062216103D

 36 37  0     1  0  0  0  0  0999 V2000
   -3.4007   -2.8373    0.2177 H   0  0  0  0  0  0  0  0  0  0  0  0
   -3.3821   -2.0286   -0.5184 C   0  0  0  0  0  0  0  0  0  0  0  0
   -4.3728   -1.5705   -0.5655 H   0  0  0  0  0  0  0  0  0  0  0  0
   -3.1336   -2.4500   -1.4957 H   0  0  0  0  0  0  0  0  0  0  0  0
   -2.3480   -0.9905   -0.1271 C   0  0  0  0  0  0  0  0  0  0  0  0
   -1.7342   -1.1108    0.9221 O   0  0  0  0  0  0  0  0  0  0  0  0
   -2.1591    0.1193   -0.9279 N   0  0  0  0  0  0  0  0  0  0  0  0
   -2.6586    0.1035   -1.8114 H   0  0  0  0  0  0  0  0  0  0  0  0
   -0.9579    0.9776   -0.8646 C   0  0  1  0  0  0  0  0  0  0  0  0
   -0.9023    1.5569   -1.7914 H   0  0  0  0  0  0  0  0  0  0  0  0
   -1.0864    1.9804    0.3007 C   0  0  0  0  0  0  0  0  0  0  0  0
   -1.2823    1.4472    1.2363 H   0  0  0  0  0  0  0  0  0  0  0  0
   -0.1580    2.5440    0.4298 H   0  0  0  0  0  0  0  0  0  0  0  0
   -2.1927    2.9637    0.0283 C   0  0  0  0  0  0  0  0  0  0  0  0
   -3.4791    2.8796    0.5014 C   0  0  0  0  0  0  0  0  0  0  0  0
   -3.8602    2.0923    1.1490 H   0  0  0  0  0  0  0  0  0  0  0  0
   -4.1834    3.9719   -0.0018 N   0  0  0  0  0  0  0  0  0  0  0  0
   -5.1603    4.1823    0.1918 H   0  0  0  0  0  0  0  0  0  0  0  0
   -3.3604    4.7512   -0.7997 C   0  0  0  0  0  0  0  0  0  0  0  0
   -3.5999    5.9233   -1.5173 C   0  0  0  0  0  0  0  0  0  0  0  0
   -4.5827    6.3816   -1.5051 H   0  0  0  0  0  0  0  0  0  0  0  0
   -2.5548    6.4988   -2.2542 C   0  0  0  0  0  0  0  0  0  0  0  0
   -2.7270    7.4111   -2.8180 H   0  0  0  0  0  0  0  0  0  0  0  0
   -1.2864    5.8977   -2.2647 C   0  0  0  0  0  0  0  0  0  0  0  0
   -0.4795    6.3464   -2.8363 H   0  0  0  0  0  0  0  0  0  0  0  0
   -1.0567    4.7201   -1.5389 C   0  0  0  0  0  0  0  0  0  0  0  0
   -0.0773    4.2533   -1.5442 H   0  0  0  0  0  0  0  0  0  0  0  0
   -2.1052    4.1535   -0.8068 C   0  0  0  0  0  0  0  0  0  0  0  0
    0.3581    0.1578   -0.8077 C   0  0  0  0  0  0  0  0  0  0  0  0
    0.5454   -0.7069   -1.6568 O   0  0  0  0  0  0  0  0  0  0  0  0
    1.3861    0.4576    0.0707 N   0  0  0  0  0  0  0  0  0  0  0  0
    1.1491    1.0630    0.8506 H   0  0  0  0  0  0  0  0  0  0  0  0
    2.5955   -0.3500    0.1696 C   0  0  0  0  0  0  0  0  0  0  0  0
    3.1090   -0.3942   -0.7967 H   0  0  0  0  0  0  0  0  0  0  0  0
    3.2809    0.0855    0.9029 H   0  0  0  0  0  0  0  0  0  0  0  0
    2.3487   -1.3692    0.4849 H   0  0  0  0  0  0  0  0  0  0  0  0
  1  2  1  0  0  0  0
  2  3  1  0  0  0  0
  2  4  1  0  0  0  0
  2  5  1  0  0  0  0
  5  6  2  0  0  0  0
  5  7  1  0  0  0  0
  7  8  1  0  0  0  0
  7  9  1  0  0  0  0
  9 10  1  0  0  0  0
  9 11  1  0  0  0  0
  9 29  1  0  0  0  0
 11 12  1  0  0  0  0
 11 13  1  0  0  0  0
 11 14  1  0  0  0  0
 14 15  2  0  0  0  0
 14 28  1  0  0  0  0
 15 16  1  0  0  0  0
 15 17  1  0  0  0  0
 17 18  1  0  0  0  0
 17 19  1  0  0  0  0
 19 20  1  0  0  0  0
 19 28  2  0  0  0  0
 20 21  1  0  0  0  0
 20 22  2  0  0  0  0
 22 23  1  0  0  0  0
 22 24  1  0  0  0  0
 24 25  1  0  0  0  0
 24 26  2  0  0  0  0
 26 27  1  0  0  0  0
 26 28  1  0  0  0  0
 29 30  2  0  0  0  0
 29 31  1  0  0  0  0
 31 32  1  0  0  0  0
 31 33  1  0  0  0  0
 33 34  1  0  0  0  0
 33 35  1  0  0  0  0
 33 36  1  0  0  0  0
M  END
$$$$

  -OEChem-01062216103D

 36 37  0     1  0  0  0  0  0999 V2000
   -3.4165   -2.8249    0.2234 H   0  0  0  0  0  0  0  0  0  0  0  0
   -3.3941   -2.0141   -0.5100 C   0  0  0  0  0  0  0  0  0  0  0  0
   -4.3781   -1.5407   -0.5437 H   0  0  0  0  0  0  0  0  0  0  0  0
   -3.1644   -2.4357   -1.4916 H   0  0  0  0  0  0  0  0  0  0  0  0
   -2.3397   -0.9934   -0.1278 C   0  0  0  0  0  0  0  0  0  0  0  0
   -1.7080   -1.1315    0.9086 O   0  0  0  0  0  0  0  0  0  0  0  0
   -2.1470    0.1188   -0.9239 N   0  0  0  0  0  0  0  0  0  0  0  0
   -2.6651    0.1275   -1.7971 H   0  0  0  0  0  0  0  0  0  0  0  0
   -0.9511    0.9827   -0.8539 C   0  0  1  0  0  0  0  0  0  0  0  0
   -0.8937    1.5619   -1.7808 H   0  0  0  0  0  0  0  0  0  0  0  0
   -1.0871    1.9858    0.3091 C   0  0  0  0  0  0  0  0  0  0  0  0
   -1.2888    1.4531    1.2438 H   0  0  0  0  0  0  0  0  0  0  0  0
   -0.1563    2.5459    0.4421 H   0  0  0  0  0  0  0  0  0  0  0  0
   -2.1961    2.9649    0.0293 C   0  0  0  0  0  0  0  0  0  0  0  0
   -3.4854    2.8790    0.4951 C   0  0  0  0  0  0  0  0  0  0  0  0
   -3.8687    2.0933    1.1432 H   0  0  0  0  0  0  0  0  0  0  0  0
   -4.1907    3.9665   -0.0170 N   0  0  0  0  0  0  0  0  0  0  0  0
   -5.1703    4.1724    0.1671 H   0  0  0  0  0  0  0  0  0  0  0  0
   -3.3645    4.7471   -0.8103 C   0  0  0  0  0  0  0  0  0  0  0  0
   -3.6014    5.9184   -1.5301 C   0  0  0  0  0  0  0  0  0  0  0  0
   -4.5851    6.3747   -1.5236 H   0  0  0  0  0  0  0  0  0  0  0  0
   -2.5527    6.4959   -2.2601 C   0  0  0  0  0  0  0  0  0  0  0  0
   -2.7229    7.4080   -2.8244 H   0  0  0  0  0  0  0  0  0  0  0  0
   -1.2833    5.8974   -2.2626 C   0  0  0  0  0  0  0  0  0  0  0  0
   -0.4735    6.3473   -2.8290 H   0  0  0  0  0  0  0  0  0  0  0  0
   -1.0559    4.7206   -1.5349 C   0  0  0  0  0  0  0  0  0  0  0  0
   -0.0754    4.2558   -1.5335 H   0  0  0  0  0  0  0  0  0  0  0  0
   -2.1077    4.1527   -0.8083 C   0  0  0  0  0  0  0  0  0  0  0  0
    0.3674    0.1708   -0.7908 C   0  0  0  0  0  0  0  0  0  0  0  0
    0.6674   -0.5257   -1.7537 O   0  0  0  0  0  0  0  0  0  0  0  0
    1.2525    0.2679    0.2695 N   0  0  0  0  0  0  0  0  0  0  0  0
    0.8706    0.6610    1.1250 H   0  0  0  0  0  0  0  0  0  0  0  0
    2.4370   -0.5750    0.3760 C   0  0  0  0  0  0  0  0  0  0  0  0
    3.0800   -0.4491   -0.5015 H   0  0  0  0  0  0  0  0  0  0  0  0
    3.0143   -0.3042    1.2650 H   0  0  0  0  0  0  0  0  0  0  0  0
    2.1503   -1.6290    0.4544 H   0  0  0  0  0  0  0  0  0  0  0  0
  1  2  1  0  0  0  0
  2  3  1  0  0  0  0
  2  4  1  0  0  0  0
  2  5  1  0  0  0  0
  5  6  2  0  0  0  0
  5  7  1  0  0  0  0
  7  8  1  0  0  0  0
  7  9  1  0  0  0  0
  9 10  1  0  0  0  0
  9 11  1  0  0  0  0
  9 29  1  0  0  0  0
 11 12  1  0  0  0  0
 11 13  1  0  0  0  0
 11 14  1  0  0  0  0
 14 15  2  0  0  0  0
 14 28  1  0  0  0  0
 15 16  1  0  0  0  0
 15 17  1  0  0  0  0
 17 18  1  0  0  0  0
 17 19  1  0  0  0  0
 19 20  1  0  0  0  0
 19 28  2  0  0  0  0
 20 21  1  0  0  0  0
 20 22  2  0  0  0  0
 22 23  1  0  0  0  0
 22 24  1  0  0  0  0
 24 25  1  0  0  0  0
 24 26  2  0  0  0  0
 26 27  1  0  0  0  0
 26 28  1  0  0  0  0
 29 30  2  0  0  0  0
 29 31  1  0  0  0  0
 31 32  1  0  0  0  0
 31 33  1  0  0  0  0
 33 34  1  0  0  0  0
 33 35  1  0  0  0  0
 33 36  1  0  0  0  0
M  END
$$$$

  -OEChem-01062216103D

 36 37  0     1  0  0  0  0  0999 V2000
   -3.4715   -2.8099    0.2232 H   0  0  0  0  0  0  0  0  0  0  0  0
   -3.4350   -1.9992   -0.5098 C   0  0  0  0  0  0  0  0  0  0  0  0
   -4.4075   -1.5021   -0.5345 H   0  0  0  0  0  0  0  0  0  0  0  0
   -3.2248   -2.4250   -1.4940 H   0  0  0  0  0  0  0  0  0  0  0  0
   -2.3522   -1.0054   -0.1356 C   0  0  0  0  0  0  0  0  0  0  0  0
   -1.7122   -1.1623    0.8932 O   0  0  0  0  0  0  0  0  0  0  0  0
   -2.1430    0.1068   -0.9272 N   0  0  0  0  0  0  0  0  0  0  0  0
   -2.6841    0.1488   -1.7856 H   0  0  0  0  0  0  0  0  0  0  0  0
   -0.9493    0.9727   -0.8488 C   0  0  1  0  0  0  0  0  0  0  0  0
   -0.8898    1.5531   -1.7752 H   0  0  0  0  0  0  0  0  0  0  0  0
   -1.0883    1.9743    0.3139 C   0  0  0  0  0  0  0  0  0  0  0  0
   -1.2959    1.4405    1.2466 H   0  0  0  0  0  0  0  0  0  0  0  0
   -0.1543    2.5282    0.4514 H   0  0  0  0  0  0  0  0  0  0  0  0
   -2.1953    2.9553    0.0341 C   0  0  0  0  0  0  0  0  0  0  0  0
   -3.4857    2.8722    0.4965 C   0  0  0  0  0  0  0  0  0  0  0  0
   -3.8723    2.0878    1.1438 H   0  0  0  0  0  0  0  0  0  0  0  0
   -4.1865    3.9632   -0.0143 N   0  0  0  0  0  0  0  0  0  0  0  0
   -5.1636    4.1764    0.1746 H   0  0  0  0  0  0  0  0  0  0  0  0
   -3.3575    4.7401   -0.8085 C   0  0  0  0  0  0  0  0  0  0  0  0
   -3.5887    5.9112   -1.5304 C   0  0  0  0  0  0  0  0  0  0  0  0
   -4.5696    6.3731   -1.5241 H   0  0  0  0  0  0  0  0  0  0  0  0
   -2.5378    6.4814   -2.2633 C   0  0  0  0  0  0  0  0  0  0  0  0
   -2.7033    7.3928   -2.8302 H   0  0  0  0  0  0  0  0  0  0  0  0
   -1.2717    5.8760   -2.2660 C   0  0  0  0  0  0  0  0  0  0  0  0
   -0.4600    6.3188   -2.8352 H   0  0  0  0  0  0  0  0  0  0  0  0
   -1.0496    4.7005   -1.5349 C   0  0  0  0  0  0  0  0  0  0  0  0
   -0.0718    4.2297   -1.5337 H   0  0  0  0  0  0  0  0  0  0  0  0
   -2.1034    4.1406   -0.8058 C   0  0  0  0  0  0  0  0  0  0  0  0
    0.3761    0.1765   -0.7712 C   0  0  0  0  0  0  0  0  0  0  0  0
    0.8277   -0.3078   -1.8020 O   0  0  0  0  0  0  0  0  0  0  0  0
    1.0911    0.0502    0.4068 N   0  0  0  0  0  0  0  0  0  0  0  0
    0.5440    0.1981    1.2518 H   0  0  0  0  0  0  0  0  0  0  0  0
    2.2748   -0.7936    0.5088 C   0  0  0  0  0  0  0  0  0  0  0  0
    3.0327   -0.4839   -0.2185 H   0  0  0  0  0  0  0  0  0  0  0  0
    2.7089   -0.7146    1.5100 H   0  0  0  0  0  0  0  0  0  0  0  0
    2.0146   -1.8409    0.3233 H   0  0  0  0  0  0  0  0  0  0  0  0
  1  2  1  0  0  0  0
  2  3  1  0  0  0  0
  2  4  1  0  0  0  0
  2  5  1  0  0  0  0
  5  6  2  0  0  0  0
  5  7  1  0  0  0  0
  7  8  1  0  0  0  0
  7  9  1  0  0  0  0
  9 10  1  0  0  0  0
  9 11  1  0  0  0  0
  9 29  1  0  0  0  0
 11 12  1  0  0  0  0
 11 13  1  0  0  0  0
 11 14  1  0  0  0  0
 14 15  2  0  0  0  0
 14 28  1  0  0  0  0
 15 16  1  0  0  0  0
 15 17  1  0  0  0  0
 17 18  1  0  0  0  0
 17 19  1  0  0  0  0
 19 20  1  0  0  0  0
 19 28  2  0  0  0  0
 20 21  1  0  0  0  0
 20 22  2  0  0  0  0
 22 23  1  0  0  0  0
 22 24  1  0  0  0  0
 24 25  1  0  0  0  0
 24 26  2  0  0  0  0
 26 27  1  0  0  0  0
 26 28  1  0  0  0  0
 29 30  2  0  0  0  0
 29 31  1  0  0  0  0
 31 32  1  0  0  0  0
 31 33  1  0  0  0  0
 33 34  1  0  0  0  0
 33 35  1  0  0  0  0
 33 36  1  0  0  0  0
M  END
$$$$

  -OEChem-01062216103D

 36 37  0     1  0  0  0  0  0999 V2000
   -3.5741   -2.7872    0.2210 H   0  0  0  0  0  0  0  0  0  0  0  0
   -3.5121   -1.9764   -0.5101 C   0  0  0  0  0  0  0  0  0  0  0  0
   -4.4650   -1.4420   -0.5254 H   0  0  0  0  0  0  0  0  0  0  0  0
   -3.3269   -2.4076   -1.4971 H   0  0  0  0  0  0  0  0  0  0  0  0
   -2.3899   -1.0247   -0.1417 C   0  0  0  0  0  0  0  0  0  0  0  0
   -1.7524   -1.2069    0.8843 O   0  0  0  0  0  0  0  0  0  0  0  0
   -2.1507    0.0841   -0.9294 N   0  0  0  0  0  0  0  0  0  0  0  0
   -2.7176    0.1648   -1.7682 H   0  0  0  0  0  0  0  0  0  0  0  0
   -0.9531    0.9461   -0.8496 C   0  0  1  0  0  0  0  0  0  0  0  0
   -0.8951    1.5259   -1.7768 H   0  0  0  0  0  0  0  0  0  0  0  0
   -1.0872    1.9472    0.3129 C   0  0  0  0  0  0  0  0  0  0  0  0
   -1.2965    1.4136    1.2455 H   0  0  0  0  0  0  0  0  0  0  0  0
   -0.1484    2.4934    0.4505 H   0  0  0  0  0  0  0  0  0  0  0  0
   -2.1896    2.9342    0.0355 C   0  0  0  0  0  0  0  0  0  0  0  0
   -3.4801    2.8571    0.4992 C   0  0  0  0  0  0  0  0  0  0  0  0
   -3.8695    2.0766    1.1497 H   0  0  0  0  0  0  0  0  0  0  0  0
   -4.1772    3.9494   -0.0140 N   0  0  0  0  0  0  0  0  0  0  0  0
   -5.1537    4.1664    0.1741 H   0  0  0  0  0  0  0  0  0  0  0  0
   -3.3449    4.7237   -0.8076 C   0  0  0  0  0  0  0  0  0  0  0  0
   -3.5717    5.8965   -1.5288 C   0  0  0  0  0  0  0  0  0  0  0  0
   -4.5515    6.3610   -1.5232 H   0  0  0  0  0  0  0  0  0  0  0  0
   -2.5173    6.4649   -2.2584 C   0  0  0  0  0  0  0  0  0  0  0  0
   -2.6783    7.3784   -2.8233 H   0  0  0  0  0  0  0  0  0  0  0  0
   -1.2529    5.8556   -2.2594 C   0  0  0  0  0  0  0  0  0  0  0  0
   -0.4379    6.2971   -2.8251 H   0  0  0  0  0  0  0  0  0  0  0  0
   -1.0359    4.6780   -1.5301 C   0  0  0  0  0  0  0  0  0  0  0  0
   -0.0591    4.2049   -1.5271 H   0  0  0  0  0  0  0  0  0  0  0  0
   -2.0928    4.1199   -0.8039 C   0  0  0  0  0  0  0  0  0  0  0  0
    0.3823    0.1692   -0.7572 C   0  0  0  0  0  0  0  0  0  0  0  0
    0.9971   -0.0696   -1.7892 O   0  0  0  0  0  0  0  0  0  0  0  0
    0.9290   -0.1957    0.4594 N   0  0  0  0  0  0  0  0  0  0  0  0
    0.2407   -0.2827    1.2082 H   0  0  0  0  0  0  0  0  0  0  0  0
    2.1344   -1.0083    0.5575 C   0  0  0  0  0  0  0  0  0  0  0  0
    2.9674   -0.5260    0.0353 H   0  0  0  0  0  0  0  0  0  0  0  0
    2.4166   -1.1374    1.6069 H   0  0  0  0  0  0  0  0  0  0  0  0
    1.9663   -1.9965    0.1170 H   0  0  0  0  0  0  0  0  0  0  0  0
  1  2  1  0  0  0  0
  2  3  1  0  0  0  0
  2  4  1  0  0  0  0
  2  5  1  0  0  0  0
  5  6  2  0  0  0  0
  5  7  1  0  0  0  0
  7  8  1  0  0  0  0
  7  9  1  0  0  0  0
  9 10  1  0  0  0  0
  9 11  1  0  0  0  0
  9 29  1  0  0  0  0
 11 12  1  0  0  0  0
 11 13  1  0  0  0  0
 11 14  1  0  0  0  0
 14 15  2  0  0  0  0
 14 28  1  0  0  0  0
 15 16  1  0  0  0  0
 15 17  1  0  0  0  0
 17 18  1  0  0  0  0
 17 19  1  0  0  0  0
 19 20  1  0  0  0  0
 19 28  2  0  0  0  0
 20 21  1  0  0  0  0
 20 22  2  0  0  0  0
 22 23  1  0  0  0  0
 22 24  1  0  0  0  0
 24 25  1  0  0  0  0
 24 26  2  0  0  0  0
 26 27  1  0  0  0  0
 26 28  1  0  0  0  0
 29 30  2  0  0  0  0
 29 31  1  0  0  0  0
 31 32  1  0  0  0  0
 31 33  1  0  0  0  0
 33 34  1  0  0  0  0
 33 35  1  0  0  0  0
 33 36  1  0  0  0  0
M  END
$$$$

  -OEChem-01062216103D

 36 37  0     1  0  0  0  0  0999 V2000
   -3.7085   -2.7560    0.2022 H   0  0  0  0  0  0  0  0  0  0  0  0
   -3.6104   -1.9436   -0.5235 C   0  0  0  0  0  0  0  0  0  0  0  0
   -4.5407   -1.3709   -0.5380 H   0  0  0  0  0  0  0  0  0  0  0  0
   -3.4406   -2.3759   -1.5126 H   0  0  0  0  0  0  0  0  0  0  0  0
   -2.4499   -1.0421   -0.1472 C   0  0  0  0  0  0  0  0  0  0  0  0
   -1.8295   -1.2575    0.8819 O   0  0  0  0  0  0  0  0  0  0  0  0
   -2.1659    0.0588   -0.9309 N   0  0  0  0  0  0  0  0  0  0  0  0
   -2.7565    0.1811   -1.7485 H   0  0  0  0  0  0  0  0  0  0  0  0
   -0.9590    0.9123   -0.8569 C   0  0  1  0  0  0  0  0  0  0  0  0
   -0.9044    1.4901   -1.7855 H   0  0  0  0  0  0  0  0  0  0  0  0
   -1.0894    1.9107    0.3068 C   0  0  0  0  0  0  0  0  0  0  0  0
   -1.2980    1.3746    1.2379 H   0  0  0  0  0  0  0  0  0  0  0  0
   -0.1484    2.4529    0.4454 H   0  0  0  0  0  0  0  0  0  0  0  0
   -2.1879    2.9033    0.0329 C   0  0  0  0  0  0  0  0  0  0  0  0
   -3.4786    2.8316    0.4966 C   0  0  0  0  0  0  0  0  0  0  0  0
   -3.8704    2.0513    1.1454 H   0  0  0  0  0  0  0  0  0  0  0  0
   -4.1702    3.9297   -0.0121 N   0  0  0  0  0  0  0  0  0  0  0  0
   -5.1439    4.1547    0.1813 H   0  0  0  0  0  0  0  0  0  0  0  0
   -3.3335    4.7023   -0.8029 C   0  0  0  0  0  0  0  0  0  0  0  0
   -3.5532    5.8798   -1.5183 C   0  0  0  0  0  0  0  0  0  0  0  0
   -4.5298    6.3510   -1.5099 H   0  0  0  0  0  0  0  0  0  0  0  0
   -2.4956    6.4447   -2.2458 C   0  0  0  0  0  0  0  0  0  0  0  0
   -2.6515    7.3619   -2.8059 H   0  0  0  0  0  0  0  0  0  0  0  0
   -1.2350    5.8276   -2.2504 C   0  0  0  0  0  0  0  0  0  0  0  0
   -0.4179    6.2671   -2.8146 H   0  0  0  0  0  0  0  0  0  0  0  0
   -1.0247    4.6454   -1.5265 C   0  0  0  0  0  0  0  0  0  0  0  0
   -0.0507    4.1662   -1.5260 H   0  0  0  0  0  0  0  0  0  0  0  0
   -2.0850    4.0911   -0.8022 C   0  0  0  0  0  0  0  0  0  0  0  0
    0.3925    0.1643   -0.7476 C   0  0  0  0  0  0  0  0  0  0  0  0
    1.1410    0.1564   -1.7168 O   0  0  0  0  0  0  0  0  0  0  0  0
    0.8054   -0.4391    0.4250 N   0  0  0  0  0  0  0  0  0  0  0  0
    0.0458   -0.6512    1.0766 H   0  0  0  0  0  0  0  0  0  0  0  0
    2.0248   -1.2302    0.5190 C   0  0  0  0  0  0  0  0  0  0  0  0
    2.8927   -0.6376    0.2113 H   0  0  0  0  0  0  0  0  0  0  0  0
    2.1818   -1.5572    1.5513 H   0  0  0  0  0  0  0  0  0  0  0  0
    1.9568   -2.1157   -0.1212 H   0  0  0  0  0  0  0  0  0  0  0  0
  1  2  1  0  0  0  0
  2  3  1  0  0  0  0
  2  4  1  0  0  0  0
  2  5  1  0  0  0  0
  5  6  2  0  0  0  0
  5  7  1  0  0  0  0
  7  8  1  0  0  0  0
  7  9  1  0  0  0  0
  9 10  1  0  0  0  0
  9 11  1  0  0  0  0
  9 29  1  0  0  0  0
 11 12  1  0  0  0  0
 11 13  1  0  0  0  0
 11 14  1  0  0  0  0
 14 15  2  0  0  0  0
 14 28  1  0  0  0  0
 15 16  1  0  0  0  0
 15 17  1  0  0  0  0
 17 18  1  0  0  0  0
 17 19  1  0  0  0  0
 19 20  1  0  0  0  0
 19 28  2  0  0  0  0
 20 21  1  0  0  0  0
 20 22  2  0  0  0  0
 22 23  1  0  0  0  0
 22 24  1  0  0  0  0
 24 25  1  0  0  0  0
 24 26  2  0  0  0  0
 26 27  1  0  0  0  0
 26 28  1  0  0  0  0
 29 30  2  0  0  0  0
 29 31  1  0  0  0  0
 31 32  1  0  0  0  0
 31 33  1  0  0  0  0
 33 34  1  0  0  0  0
 33 35  1  0  0  0  0
 33 36  1  0  0  0  0
M  END
$$$$

  -OEChem-01062216103D

 36 37  0     1  0  0  0  0  0999 V2000
   -3.8323   -2.7369    0.1796 H   0  0  0  0  0  0  0  0  0  0  0  0
   -3.7054   -1.9241   -0.5413 C   0  0  0  0  0  0  0  0  0  0  0  0
   -4.6182   -1.3237   -0.5597 H   0  0  0  0  0  0  0  0  0  0  0  0
   -3.5414   -2.3575   -1.5310 H   0  0  0  0  0  0  0  0  0  0  0  0
   -2.5222   -1.0584   -0.1517 C   0  0  0  0  0  0  0  0  0  0  0  0
   -1.9268   -1.2925    0.8870 O   0  0  0  0  0  0  0  0  0  0  0  0
   -2.1987    0.0336   -0.9326 N   0  0  0  0  0  0  0  0  0  0  0  0
   -2.7970    0.1802   -1.7405 H   0  0  0  0  0  0  0  0  0  0  0  0
   -0.9793    0.8743   -0.8683 C   0  0  1  0  0  0  0  0  0  0  0  0
   -0.9298    1.4502   -1.7985 H   0  0  0  0  0  0  0  0  0  0  0  0
   -1.1002    1.8712    0.2971 C   0  0  0  0  0  0  0  0  0  0  0  0
   -1.3091    1.3333    1.2272 H   0  0  0  0  0  0  0  0  0  0  0  0
   -0.1554    2.4074    0.4355 H   0  0  0  0  0  0  0  0  0  0  0  0
   -2.1916    2.8731    0.0291 C   0  0  0  0  0  0  0  0  0  0  0  0
   -3.4822    2.8124    0.4951 C   0  0  0  0  0  0  0  0  0  0  0  0
   -3.8814    2.0334    1.1410 H   0  0  0  0  0  0  0  0  0  0  0  0
   -4.1626    3.9206   -0.0068 N   0  0  0  0  0  0  0  0  0  0  0  0
   -5.1322    4.1575    0.1933 H   0  0  0  0  0  0  0  0  0  0  0  0
   -3.3192    4.6883   -0.7954 C   0  0  0  0  0  0  0  0  0  0  0  0
   -3.5275    5.8716   -1.5044 C   0  0  0  0  0  0  0  0  0  0  0  0
   -4.4992    6.3528   -1.4920 H   0  0  0  0  0  0  0  0  0  0  0  0
   -2.4654    6.4283   -2.2318 C   0  0  0  0  0  0  0  0  0  0  0  0
   -2.6129    7.3491   -2.7883 H   0  0  0  0  0  0  0  0  0  0  0  0
   -1.2113    5.7980   -2.2417 C   0  0  0  0  0  0  0  0  0  0  0  0
   -0.3905    6.2311   -2.8055 H   0  0  0  0  0  0  0  0  0  0  0  0
   -1.0121    4.6103   -1.5235 C   0  0  0  0  0  0  0  0  0  0  0  0
   -0.0431    4.1205   -1.5261 H   0  0  0  0  0  0  0  0  0  0  0  0
   -2.0773    4.0637   -0.8003 C   0  0  0  0  0  0  0  0  0  0  0  0
    0.3856    0.1500   -0.7509 C   0  0  0  0  0  0  0  0  0  0  0  0
    1.2307    0.3550   -1.6130 O   0  0  0  0  0  0  0  0  0  0  0  0
    0.7049   -0.6856    0.3011 N   0  0  0  0  0  0  0  0  0  0  0  0
   -0.0787   -0.9606    0.8995 H   0  0  0  0  0  0  0  0  0  0  0  0
    1.9502   -1.4358    0.3896 C   0  0  0  0  0  0  0  0  0  0  0  0
    2.8107   -0.7647    0.2978 H   0  0  0  0  0  0  0  0  0  0  0  0
    2.0139   -1.9442    1.3563 H   0  0  0  0  0  0  0  0  0  0  0  0
    2.0012   -2.1880   -0.4042 H   0  0  0  0  0  0  0  0  0  0  0  0
  1  2  1  0  0  0  0
  2  3  1  0  0  0  0
  2  4  1  0  0  0  0
  2  5  1  0  0  0  0
  5  6  2  0  0  0  0
  5  7  1  0  0  0  0
  7  8  1  0  0  0  0
  7  9  1  0  0  0  0
  9 10  1  0  0  0  0
  9 11  1  0  0  0  0
  9 29  1  0  0  0  0
 11 12  1  0  0  0  0
 11 13  1  0  0  0  0
 11 14  1  0  0  0  0
 14 15  2  0  0  0  0
 14 28  1  0  0  0  0
 15 16  1  0  0  0  0
 15 17  1  0  0  0  0
 17 18  1  0  0  0  0
 17 19  1  0  0  0  0
 19 20  1  0  0  0  0
 19 28  2  0  0  0  0
 20 21  1  0  0  0  0
 20 22  2  0  0  0  0
 22 23  1  0  0  0  0
 22 24  1  0  0  0  0
 24 25  1  0  0  0  0
 24 26  2  0  0  0  0
 26 27  1  0  0  0  0
 26 28  1  0  0  0  0
 29 30  2  0  0  0  0
 29 31  1  0  0  0  0
 31 32  1  0  0  0  0
 31 33  1  0  0  0  0
 33 34  1  0  0  0  0
 33 35  1  0  0  0  0
 33 36  1  0  0  0  0
M  END
$$$$

  -OEChem-01062216103D

 36 37  0     1  0  0  0  0  0999 V2000
   -3.9939   -2.6641    0.1715 H   0  0  0  0  0  0  0  0  0  0  0  0
   -3.8233   -1.8606   -0.5507 C   0  0  0  0  0  0  0  0  0  0  0  0
   -4.6987   -1.2067   -0.5626 H   0  0  0  0  0  0  0  0  0  0  0  0
   -3.6925   -2.3017   -1.5418 H   0  0  0  0  0  0  0  0  0  0  0  0
   -2.5872   -1.0672   -0.1706 C   0  0  0  0  0  0  0  0  0  0  0  0
   -1.9812   -1.3571    0.8473 O   0  0  0  0  0  0  0  0  0  0  0  0
   -2.2329    0.0263   -0.9357 N   0  0  0  0  0  0  0  0  0  0  0  0
   -2.8558    0.2246   -1.7134 H   0  0  0  0  0  0  0  0  0  0  0  0
   -0.9974    0.8454   -0.8776 C   0  0  1  0  0  0  0  0  0  0  0  0
   -0.9541    1.4291   -1.8033 H   0  0  0  0  0  0  0  0  0  0  0  0
   -1.0977    1.8289    0.3007 C   0  0  0  0  0  0  0  0  0  0  0  0
   -1.3057    1.2813    1.2254 H   0  0  0  0  0  0  0  0  0  0  0  0
   -0.1464    2.3537    0.4390 H   0  0  0  0  0  0  0  0  0  0  0  0
   -2.1792    2.8457    0.0479 C   0  0  0  0  0  0  0  0  0  0  0  0
   -3.4680    2.7943    0.5199 C   0  0  0  0  0  0  0  0  0  0  0  0
   -3.8685    2.0196    1.1704 H   0  0  0  0  0  0  0  0  0  0  0  0
   -4.1453    3.9030    0.0151 N   0  0  0  0  0  0  0  0  0  0  0  0
   -5.1133    4.1448    0.2170 H   0  0  0  0  0  0  0  0  0  0  0  0
   -3.3026    4.6603   -0.7842 C   0  0  0  0  0  0  0  0  0  0  0  0
   -3.5086    5.8374   -1.5041 C   0  0  0  0  0  0  0  0  0  0  0  0
   -4.4776    6.3238   -1.4920 H   0  0  0  0  0  0  0  0  0  0  0  0
   -2.4474    6.3818   -2.2420 C   0  0  0  0  0  0  0  0  0  0  0  0
   -2.5930    7.2975   -2.8074 H   0  0  0  0  0  0  0  0  0  0  0  0
   -1.1962    5.7455   -2.2513 C   0  0  0  0  0  0  0  0  0  0  0  0
   -0.3757    6.1685   -2.8232 H   0  0  0  0  0  0  0  0  0  0  0  0
   -0.9993    4.5639   -1.5226 C   0  0  0  0  0  0  0  0  0  0  0  0
   -0.0334    4.0677   -1.5246 H   0  0  0  0  0  0  0  0  0  0  0  0
   -2.0638    4.0301   -0.7895 C   0  0  0  0  0  0  0  0  0  0  0  0
    0.3736    0.1272   -0.7795 C   0  0  0  0  0  0  0  0  0  0  0  0
    1.2904    0.5376   -1.4801 O   0  0  0  0  0  0  0  0  0  0  0  0
    0.6284   -0.9301    0.0707 N   0  0  0  0  0  0  0  0  0  0  0  0
   -0.1570   -1.2576    0.6389 H   0  0  0  0  0  0  0  0  0  0  0  0
    1.9151   -1.6034    0.1794 C   0  0  0  0  0  0  0  0  0  0  0  0
    2.6955   -0.8940    0.4743 H   0  0  0  0  0  0  0  0  0  0  0  0
    1.8633   -2.3935    0.9344 H   0  0  0  0  0  0  0  0  0  0  0  0
    2.1921   -2.0565   -0.7780 H   0  0  0  0  0  0  0  0  0  0  0  0
  1  2  1  0  0  0  0
  2  3  1  0  0  0  0
  2  4  1  0  0  0  0
  2  5  1  0  0  0  0
  5  6  2  0  0  0  0
  5  7  1  0  0  0  0
  7  8  1  0  0  0  0
  7  9  1  0  0  0  0
  9 10  1  0  0  0  0
  9 11  1  0  0  0  0
  9 29  1  0  0  0  0
 11 12  1  0  0  0  0
 11 13  1  0  0  0  0
 11 14  1  0  0  0  0
 14 15  2  0  0  0  0
 14 28  1  0  0  0  0
 15 16  1  0  0  0  0
 15 17  1  0  0  0  0
 17 18  1  0  0  0  0
 17 19  1  0  0  0  0
 19 20  1  0  0  0  0
 19 28  2  0  0  0  0
 20 21  1  0  0  0  0
 20 22  2  0  0  0  0
 22 23  1  0  0  0  0
 22 24  1  0  0  0  0
 24 25  1  0  0  0  0
 24 26  2  0  0  0  0
 26 27  1  0  0  0  0
 26 28  1  0  0  0  0
 29 30  2  0  0  0  0
 29 31  1  0  0  0  0
 31 32  1  0  0  0  0
 31 33  1  0  0  0  0
 33 34  1  0  0  0  0
 33 35  1  0  0  0  0
 33 36  1  0  0  0  0
M  END
$$$$

  -OEChem-01062216103D

 36 37  0     1  0  0  0  0  0999 V2000
   -4.0413   -2.6623    0.1183 H   0  0  0  0  0  0  0  0  0  0  0  0
   -3.8709   -1.8466   -0.5898 C   0  0  0  0  0  0  0  0  0  0  0  0
   -4.7329   -1.1754   -0.5663 H   0  0  0  0  0  0  0  0  0  0  0  0
   -3.7730   -2.2680   -1.5933 H   0  0  0  0  0  0  0  0  0  0  0  0
   -2.6101   -1.0874   -0.2218 C   0  0  0  0  0  0  0  0  0  0  0  0
   -1.9864   -1.4123    0.7744 O   0  0  0  0  0  0  0  0  0  0  0  0
   -2.2452    0.0105   -0.9750 N   0  0  0  0  0  0  0  0  0  0  0  0
   -2.8845    0.2459   -1.7288 H   0  0  0  0  0  0  0  0  0  0  0  0
   -1.0048    0.8226   -0.9068 C   0  0  1  0  0  0  0  0  0  0  0  0
   -0.9579    1.4157   -1.8260 H   0  0  0  0  0  0  0  0  0  0  0  0
   -1.1144    1.7913    0.2838 C   0  0  0  0  0  0  0  0  0  0  0  0
   -1.3296    1.2313    1.1995 H   0  0  0  0  0  0  0  0  0  0  0  0
   -0.1652    2.3154    0.4380 H   0  0  0  0  0  0  0  0  0  0  0  0
   -2.1937    2.8117    0.0352 C   0  0  0  0  0  0  0  0  0  0  0  0
   -3.4870    2.7574    0.4945 C   0  0  0  0  0  0  0  0  0  0  0  0
   -3.8962    1.9760    1.1312 H   0  0  0  0  0  0  0  0  0  0  0  0
   -4.1564    3.8746   -0.0019 N   0  0  0  0  0  0  0  0  0  0  0  0
   -5.1246    4.1181    0.1960 H   0  0  0  0  0  0  0  0  0  0  0  0
   -3.3035    4.6412   -0.7810 C   0  0  0  0  0  0  0  0  0  0  0  0
   -3.4988    5.8302   -1.4837 C   0  0  0  0  0  0  0  0  0  0  0  0
   -4.4663    6.3194   -1.4724 H   0  0  0  0  0  0  0  0  0  0  0  0
   -2.4289    6.3822   -2.2029 C   0  0  0  0  0  0  0  0  0  0  0  0
   -2.5663    7.3078   -2.7541 H   0  0  0  0  0  0  0  0  0  0  0  0
   -1.1799    5.7412   -2.2113 C   0  0  0  0  0  0  0  0  0  0  0  0
   -0.3527    6.1705   -2.7687 H   0  0  0  0  0  0  0  0  0  0  0  0
   -0.9938    4.5477   -1.4993 C   0  0  0  0  0  0  0  0  0  0  0  0
   -0.0294    4.0481   -1.4997 H   0  0  0  0  0  0  0  0  0  0  0  0
   -2.0669    4.0070   -0.7843 C   0  0  0  0  0  0  0  0  0  0  0  0
    0.3722    0.1133   -0.8109 C   0  0  0  0  0  0  0  0  0  0  0  0
    1.3397    0.6746   -1.3104 O   0  0  0  0  0  0  0  0  0  0  0  0
    0.5743   -1.1135   -0.2105 N   0  0  0  0  0  0  0  0  0  0  0  0
   -0.2174   -1.4890    0.3167 H   0  0  0  0  0  0  0  0  0  0  0  0
    1.8838   -1.7304   -0.0454 C   0  0  0  0  0  0  0  0  0  0  0  0
    2.5325   -1.0954    0.5669 H   0  0  0  0  0  0  0  0  0  0  0  0
    1.7819   -2.7015    0.4482 H   0  0  0  0  0  0  0  0  0  0  0  0
    2.3594   -1.8867   -1.0193 H   0  0  0  0  0  0  0  0  0  0  0  0
  1  2  1  0  0  0  0
  2  3  1  0  0  0  0
  2  4  1  0  0  0  0
  2  5  1  0  0  0  0
  5  6  2  0  0  0  0
  5  7  1  0  0  0  0
  7  8  1  0  0  0  0
  7  9  1  0  0  0  0
  9 10  1  0  0  0  0
  9 11  1  0  0  0  0
  9 29  1  0  0  0  0
 11 12  1  0  0  0  0
 11 13  1  0  0  0  0
 11 14  1  0  0  0  0
 14 15  2  0  0  0  0
 14 28  1  0  0  0  0
 15 16  1  0  0  0  0
 15 17  1  0  0  0  0
 17 18  1  0  0  0  0
 17 19  1  0  0  0  0
 19 20  1  0  0  0  0
 19 28  2  0  0  0  0
 20 21  1  0  0  0  0
 20 22  2  0  0  0  0
 22 23  1  0  0  0  0
 22 24  1  0  0  0  0
 24 25  1  0  0  0  0
 24 26  2  0  0  0  0
 26 27  1  0  0  0  0
 26 28  1  0  0  0  0
 29 30  2  0  0  0  0
 29 31  1  0  0  0  0
 31 32  1  0  0  0  0
 31 33  1  0  0  0  0
 33 34  1  0  0  0  0
 33 35  1  0  0  0  0
 33 36  1  0  0  0  0
M  END
$$$$

  -OEChem-01062216103D

 36 37  0     1  0  0  0  0  0999 V2000
   -4.0827   -2.5949    0.2345 H   0  0  0  0  0  0  0  0  0  0  0  0
   -3.9209   -1.7938   -0.4926 C   0  0  0  0  0  0  0  0  0  0  0  0
   -4.7500   -1.0853   -0.4245 H   0  0  0  0  0  0  0  0  0  0  0  0
   -3.9018   -2.2279   -1.4953 H   0  0  0  0  0  0  0  0  0  0  0  0
   -2.6088   -1.0876   -0.2088 C   0  0  0  0  0  0  0  0  0  0  0  0
   -1.9208   -1.4603    0.7259 O   0  0  0  0  0  0  0  0  0  0  0  0
   -2.2528    0.0040   -0.9752 N   0  0  0  0  0  0  0  0  0  0  0  0
   -2.9370    0.2839   -1.6724 H   0  0  0  0  0  0  0  0  0  0  0  0
   -1.0054    0.8076   -0.9364 C   0  0  1  0  0  0  0  0  0  0  0  0
   -0.9707    1.3960   -1.8591 H   0  0  0  0  0  0  0  0  0  0  0  0
   -1.0958    1.7791    0.2553 C   0  0  0  0  0  0  0  0  0  0  0  0
   -1.2993    1.2192    1.1741 H   0  0  0  0  0  0  0  0  0  0  0  0
   -0.1444    2.3023    0.3987 H   0  0  0  0  0  0  0  0  0  0  0  0
   -2.1763    2.8021    0.0225 C   0  0  0  0  0  0  0  0  0  0  0  0
   -3.4632    2.7539    0.5004 C   0  0  0  0  0  0  0  0  0  0  0  0
   -3.8660    1.9766    1.1462 H   0  0  0  0  0  0  0  0  0  0  0  0
   -4.1348    3.8734    0.0117 N   0  0  0  0  0  0  0  0  0  0  0  0
   -5.0978    4.1237    0.2264 H   0  0  0  0  0  0  0  0  0  0  0  0
   -3.2897    4.6359   -0.7800 C   0  0  0  0  0  0  0  0  0  0  0  0
   -3.4875    5.8265   -1.4797 C   0  0  0  0  0  0  0  0  0  0  0  0
   -4.4517    6.3219   -1.4553 H   0  0  0  0  0  0  0  0  0  0  0  0
   -2.4242    6.3734   -2.2129 C   0  0  0  0  0  0  0  0  0  0  0  0
   -2.5632    7.3007   -2.7609 H   0  0  0  0  0  0  0  0  0  0  0  0
   -1.1793    5.7253   -2.2388 C   0  0  0  0  0  0  0  0  0  0  0  0
   -0.3571    6.1506   -2.8064 H   0  0  0  0  0  0  0  0  0  0  0  0
   -0.9903    4.5303   -1.5301 C   0  0  0  0  0  0  0  0  0  0  0  0
   -0.0284    4.0259   -1.5429 H   0  0  0  0  0  0  0  0  0  0  0  0
   -2.0565    3.9956   -0.8003 C   0  0  0  0  0  0  0  0  0  0  0  0
    0.3713    0.0929   -0.8648 C   0  0  0  0  0  0  0  0  0  0  0  0
    1.3650    0.7307   -1.1923 O   0  0  0  0  0  0  0  0  0  0  0  0
    0.5353   -1.2388   -0.5364 N   0  0  0  0  0  0  0  0  0  0  0  0
   -0.2599   -1.6652   -0.0567 H   0  0  0  0  0  0  0  0  0  0  0  0
    1.8410   -1.8703   -0.3972 C   0  0  0  0  0  0  0  0  0  0  0  0
    2.4230   -1.3778    0.3888 H   0  0  0  0  0  0  0  0  0  0  0  0
    1.7219   -2.9253   -0.1328 H   0  0  0  0  0  0  0  0  0  0  0  0
    2.3981   -1.8122   -1.3383 H   0  0  0  0  0  0  0  0  0  0  0  0
  1  2  1  0  0  0  0
  2  3  1  0  0  0  0
  2  4  1  0  0  0  0
  2  5  1  0  0  0  0
  5  6  2  0  0  0  0
  5  7  1  0  0  0  0
  7  8  1  0  0  0  0
  7  9  1  0  0  0  0
  9 10  1  0  0  0  0
  9 11  1  0  0  0  0
  9 29  1  0  0  0  0
 11 12  1  0  0  0  0
 11 13  1  0  0  0  0
 11 14  1  0  0  0  0
 14 15  2  0  0  0  0
 14 28  1  0  0  0  0
 15 16  1  0  0  0  0
 15 17  1  0  0  0  0
 17 18  1  0  0  0  0
 17 19  1  0  0  0  0
 19 20  1  0  0  0  0
 19 28  2  0  0  0  0
 20 21  1  0  0  0  0
 20 22  2  0  0  0  0
 22 23  1  0  0  0  0
 22 24  1  0  0  0  0
 24 25  1  0  0  0  0
 24 26  2  0  0  0  0
 26 27  1  0  0  0  0
 26 28  1  0  0  0  0
 29 30  2  0  0  0  0
 29 31  1  0  0  0  0
 31 32  1  0  0  0  0
 31 33  1  0  0  0  0
 33 34  1  0  0  0  0
 33 35  1  0  0  0  0
 33 36  1  0  0  0  0
M  END
$$$$

  -OEChem-01062216103D

 36 37  0     1  0  0  0  0  0999 V2000
   -4.0726   -2.5405    0.2952 H   0  0  0  0  0  0  0  0  0  0  0  0
   -3.9242   -1.7397   -0.4349 C   0  0  0  0  0  0  0  0  0  0  0  0
   -4.7154   -0.9969   -0.3065 H   0  0  0  0  0  0  0  0  0  0  0  0
   -3.9907   -2.1635   -1.4401 H   0  0  0  0  0  0  0  0  0  0  0  0
   -2.5666   -1.0934   -0.2330 C   0  0  0  0  0  0  0  0  0  0  0  0
   -1.8163   -1.5334    0.6203 O   0  0  0  0  0  0  0  0  0  0  0  0
   -2.2225    0.0065   -0.9929 N   0  0  0  0  0  0  0  0  0  0  0  0
   -2.9495    0.3498   -1.6144 H   0  0  0  0  0  0  0  0  0  0  0  0
   -0.9779    0.8139   -0.9456 C   0  0  1  0  0  0  0  0  0  0  0  0
   -0.9381    1.4080   -1.8641 H   0  0  0  0  0  0  0  0  0  0  0  0
   -1.0886    1.7756    0.2541 C   0  0  0  0  0  0  0  0  0  0  0  0
   -1.2966    1.2062    1.1657 H   0  0  0  0  0  0  0  0  0  0  0  0
   -0.1454    2.3085    0.4136 H   0  0  0  0  0  0  0  0  0  0  0  0
   -2.1766    2.7896    0.0149 C   0  0  0  0  0  0  0  0  0  0  0  0
   -3.4689    2.7270    0.4768 C   0  0  0  0  0  0  0  0  0  0  0  0
   -3.8721    1.9447    1.1161 H   0  0  0  0  0  0  0  0  0  0  0  0
   -4.1468    3.8394   -0.0194 N   0  0  0  0  0  0  0  0  0  0  0  0
   -5.1142    4.0810    0.1854 H   0  0  0  0  0  0  0  0  0  0  0  0
   -3.2998    4.6127   -0.7983 C   0  0  0  0  0  0  0  0  0  0  0  0
   -3.5025    5.8019   -1.4987 C   0  0  0  0  0  0  0  0  0  0  0  0
   -4.4734    6.2845   -1.4874 H   0  0  0  0  0  0  0  0  0  0  0  0
   -2.4353    6.3638   -2.2147 C   0  0  0  0  0  0  0  0  0  0  0  0
   -2.5782    7.2901   -2.7631 H   0  0  0  0  0  0  0  0  0  0  0  0
   -1.1815    5.7324   -2.2218 C   0  0  0  0  0  0  0  0  0  0  0  0
   -0.3558    6.1701   -2.7748 H   0  0  0  0  0  0  0  0  0  0  0  0
   -0.9880    4.5382   -1.5126 C   0  0  0  0  0  0  0  0  0  0  0  0
   -0.0192    4.0470   -1.5096 H   0  0  0  0  0  0  0  0  0  0  0  0
   -2.0589    3.9874   -0.8020 C   0  0  0  0  0  0  0  0  0  0  0  0
    0.3970    0.0942   -0.8800 C   0  0  0  0  0  0  0  0  0  0  0  0
    1.4127    0.7703   -0.9968 O   0  0  0  0  0  0  0  0  0  0  0  0
    0.5311   -1.2812   -0.8611 N   0  0  0  0  0  0  0  0  0  0  0  0
   -0.2815   -1.7722   -0.4850 H   0  0  0  0  0  0  0  0  0  0  0  0
    1.8255   -1.9433   -0.7625 C   0  0  0  0  0  0  0  0  0  0  0  0
    2.3329   -1.6581    0.1647 H   0  0  0  0  0  0  0  0  0  0  0  0
    1.6933   -3.0293   -0.7668 H   0  0  0  0  0  0  0  0  0  0  0  0
    2.4617   -1.6712   -1.6111 H   0  0  0  0  0  0  0  0  0  0  0  0
  1  2  1  0  0  0  0
  2  3  1  0  0  0  0
  2  4  1  0  0  0  0
  2  5  1  0  0  0  0
  5  6  2  0  0  0  0
  5  7  1  0  0  0  0
  7  8  1  0  0  0  0
  7  9  1  0  0  0  0
  9 10  1  0  0  0  0
  9 11  1  0  0  0  0
  9 29  1  0  0  0  0
 11 12  1  0  0  0  0
 11 13  1  0  0  0  0
 11 14  1  0  0  0  0
 14 15  2  0  0  0  0
 14 28  1  0  0  0  0
 15 16  1  0  0  0  0
 15 17  1  0  0  0  0
 17 18  1  0  0  0  0
 17 19  1  0  0  0  0
 19 20  1  0  0  0  0
 19 28  2  0  0  0  0
 20 21  1  0  0  0  0
 20 22  2  0  0  0  0
 22 23  1  0  0  0  0
 22 24  1  0  0  0  0
 24 25  1  0  0  0  0
 24 26  2  0  0  0  0
 26 27  1  0  0  0  0
 26 28  1  0  0  0  0
 29 30  2  0  0  0  0
 29 31  1  0  0  0  0
 31 32  1  0  0  0  0
 31 33  1  0  0  0  0
 33 34  1  0  0  0  0
 33 35  1  0  0  0  0
 33 36  1  0  0  0  0
M  END
$$$$

  -OEChem-01062216103D

 36 37  0     1  0  0  0  0  0999 V2000
   -4.0136   -2.5162    0.3370 H   0  0  0  0  0  0  0  0  0  0  0  0
   -3.8875   -1.7053   -0.3861 C   0  0  0  0  0  0  0  0  0  0  0  0
   -4.6503   -0.9461   -0.1977 H   0  0  0  0  0  0  0  0  0  0  0  0
   -4.0229   -2.1072   -1.3930 H   0  0  0  0  0  0  0  0  0  0  0  0
   -2.5048   -1.0965   -0.2537 C   0  0  0  0  0  0  0  0  0  0  0  0
   -1.7036   -1.5891    0.5199 O   0  0  0  0  0  0  0  0  0  0  0  0
   -2.1789    0.0103   -1.0110 N   0  0  0  0  0  0  0  0  0  0  0  0
   -2.9387    0.3984   -1.5632 H   0  0  0  0  0  0  0  0  0  0  0  0
   -0.9417    0.8269   -0.9505 C   0  0  1  0  0  0  0  0  0  0  0  0
   -0.8915    1.4238   -1.8663 H   0  0  0  0  0  0  0  0  0  0  0  0
   -1.0764    1.7838    0.2520 C   0  0  0  0  0  0  0  0  0  0  0  0
   -1.2863    1.2086    1.1597 H   0  0  0  0  0  0  0  0  0  0  0  0
   -0.1434    2.3297    0.4245 H   0  0  0  0  0  0  0  0  0  0  0  0
   -2.1726    2.7875    0.0030 C   0  0  0  0  0  0  0  0  0  0  0  0
   -3.4687    2.7065    0.4510 C   0  0  0  0  0  0  0  0  0  0  0  0
   -3.8676    1.9173    1.0843 H   0  0  0  0  0  0  0  0  0  0  0  0
   -4.1566    3.8109   -0.0481 N   0  0  0  0  0  0  0  0  0  0  0  0
   -5.1280    4.0410    0.1512 H   0  0  0  0  0  0  0  0  0  0  0  0
   -3.3118    4.5985   -0.8151 C   0  0  0  0  0  0  0  0  0  0  0  0
   -3.5236    5.7886   -1.5114 C   0  0  0  0  0  0  0  0  0  0  0  0
   -4.5007    6.2584   -1.5070 H   0  0  0  0  0  0  0  0  0  0  0  0
   -2.4570    6.3686   -2.2135 C   0  0  0  0  0  0  0  0  0  0  0  0
   -2.6060    7.2968   -2.7570 H   0  0  0  0  0  0  0  0  0  0  0  0
   -1.1951    5.7537   -2.2121 C   0  0  0  0  0  0  0  0  0  0  0  0
   -0.3699    6.2056   -2.7544 H   0  0  0  0  0  0  0  0  0  0  0  0
   -0.9927    4.5584   -1.5074 C   0  0  0  0  0  0  0  0  0  0  0  0
   -0.0175    4.0801   -1.4979 H   0  0  0  0  0  0  0  0  0  0  0  0
   -2.0625    3.9897   -0.8092 C   0  0  0  0  0  0  0  0  0  0  0  0
    0.4251    0.0911   -0.8810 C   0  0  0  0  0  0  0  0  0  0  0  0
    1.4528    0.7495   -0.7673 O   0  0  0  0  0  0  0  0  0  0  0  0
    0.5438   -1.2547   -1.1752 N   0  0  0  0  0  0  0  0  0  0  0  0
   -0.2942   -1.7912   -0.9543 H   0  0  0  0  0  0  0  0  0  0  0  0
    1.8202   -1.9562   -1.1180 C   0  0  0  0  0  0  0  0  0  0  0  0
    2.2409   -1.9045   -0.1084 H   0  0  0  0  0  0  0  0  0  0  0  0
    1.6835   -3.0085   -1.3847 H   0  0  0  0  0  0  0  0  0  0  0  0
    2.5339   -1.5139   -1.8209 H   0  0  0  0  0  0  0  0  0  0  0  0
  1  2  1  0  0  0  0
  2  3  1  0  0  0  0
  2  4  1  0  0  0  0
  2  5  1  0  0  0  0
  5  6  2  0  0  0  0
  5  7  1  0  0  0  0
  7  8  1  0  0  0  0
  7  9  1  0  0  0  0
  9 10  1  0  0  0  0
  9 11  1  0  0  0  0
  9 29  1  0  0  0  0
 11 12  1  0  0  0  0
 11 13  1  0  0  0  0
 11 14  1  0  0  0  0
 14 15  2  0  0  0  0
 14 28  1  0  0  0  0
 15 16  1  0  0  0  0
 15 17  1  0  0  0  0
 17 18  1  0  0  0  0
 17 19  1  0  0  0  0
 19 20  1  0  0  0  0
 19 28  2  0  0  0  0
 20 21  1  0  0  0  0
 20 22  2  0  0  0  0
 22 23  1  0  0  0  0
 22 24  1  0  0  0  0
 24 25  1  0  0  0  0
 24 26  2  0  0  0  0
 26 27  1  0  0  0  0
 26 28  1  0  0  0  0
 29 30  2  0  0  0  0
 29 31  1  0  0  0  0
 31 32  1  0  0  0  0
 31 33  1  0  0  0  0
 33 34  1  0  0  0  0
 33 35  1  0  0  0  0
 33 36  1  0  0  0  0
M  END
$$$$

  -OEChem-01062216103D

 36 37  0     1  0  0  0  0  0999 V2000
   -3.9186   -2.5158    0.3715 H   0  0  0  0  0  0  0  0  0  0  0  0
   -3.8169   -1.7074   -0.3582 C   0  0  0  0  0  0  0  0  0  0  0  0
   -4.5788   -0.9519   -0.1520 H   0  0  0  0  0  0  0  0  0  0  0  0
   -3.9784   -2.1143   -1.3592 H   0  0  0  0  0  0  0  0  0  0  0  0
   -2.4333   -1.0920   -0.2658 C   0  0  0  0  0  0  0  0  0  0  0  0
   -1.6044   -1.5889    0.4736 O   0  0  0  0  0  0  0  0  0  0  0  0
   -2.1348    0.0218   -1.0251 N   0  0  0  0  0  0  0  0  0  0  0  0
   -2.9155    0.4246   -1.5365 H   0  0  0  0  0  0  0  0  0  0  0  0
   -0.9070    0.8501   -0.9556 C   0  0  1  0  0  0  0  0  0  0  0  0
   -0.8507    1.4497   -1.8689 H   0  0  0  0  0  0  0  0  0  0  0  0
   -1.0558    1.8045    0.2487 C   0  0  0  0  0  0  0  0  0  0  0  0
   -1.2634    1.2257    1.1546 H   0  0  0  0  0  0  0  0  0  0  0  0
   -0.1303    2.3618    0.4252 H   0  0  0  0  0  0  0  0  0  0  0  0
   -2.1603    2.7984   -0.0031 C   0  0  0  0  0  0  0  0  0  0  0  0
   -3.4562    2.7000    0.4422 C   0  0  0  0  0  0  0  0  0  0  0  0
   -3.8451    1.9054    1.0751 H   0  0  0  0  0  0  0  0  0  0  0  0
   -4.1579    3.7952   -0.0578 N   0  0  0  0  0  0  0  0  0  0  0  0
   -5.1324    4.0130    0.1417 H   0  0  0  0  0  0  0  0  0  0  0  0
   -3.3220    4.5946   -0.8227 C   0  0  0  0  0  0  0  0  0  0  0  0
   -3.5480    5.7816   -1.5201 C   0  0  0  0  0  0  0  0  0  0  0  0
   -4.5317    6.2378   -1.5190 H   0  0  0  0  0  0  0  0  0  0  0  0
   -2.4872    6.3761   -2.2190 C   0  0  0  0  0  0  0  0  0  0  0  0
   -2.6478    7.3007   -2.7656 H   0  0  0  0  0  0  0  0  0  0  0  0
   -1.2159    5.7809   -2.2101 C   0  0  0  0  0  0  0  0  0  0  0  0
   -0.3946    6.2457   -2.7477 H   0  0  0  0  0  0  0  0  0  0  0  0
   -0.9991    4.5894   -1.5036 C   0  0  0  0  0  0  0  0  0  0  0  0
   -0.0164    4.1277   -1.4864 H   0  0  0  0  0  0  0  0  0  0  0  0
   -2.0640    4.0036   -0.8125 C   0  0  0  0  0  0  0  0  0  0  0  0
    0.4474    0.0909   -0.8877 C   0  0  0  0  0  0  0  0  0  0  0  0
    1.4622    0.6647   -0.5086 O   0  0  0  0  0  0  0  0  0  0  0  0
    0.5846   -1.1508   -1.4825 N   0  0  0  0  0  0  0  0  0  0  0  0
   -0.2824   -1.6761   -1.5499 H   0  0  0  0  0  0  0  0  0  0  0  0
    1.8287   -1.9088   -1.4242 C   0  0  0  0  0  0  0  0  0  0  0  0
    2.0959   -2.1262   -0.3846 H   0  0  0  0  0  0  0  0  0  0  0  0
    1.7180   -2.8561   -1.9603 H   0  0  0  0  0  0  0  0  0  0  0  0
    2.6450   -1.3453   -1.8882 H   0  0  0  0  0  0  0  0  0  0  0  0
  1  2  1  0  0  0  0
  2  3  1  0  0  0  0
  2  4  1  0  0  0  0
  2  5  1  0  0  0  0
  5  6  2  0  0  0  0
  5  7  1  0  0  0  0
  7  8  1  0  0  0  0
  7  9  1  0  0  0  0
  9 10  1  0  0  0  0
  9 11  1  0  0  0  0
  9 29  1  0  0  0  0
 11 12  1  0  0  0  0
 11 13  1  0  0  0  0
 11 14  1  0  0  0  0
 14 15  2  0  0  0  0
 14 28  1  0  0  0  0
 15 16  1  0  0  0  0
 15 17  1  0  0  0  0
 17 18  1  0  0  0  0
 17 19  1  0  0  0  0
 19 20  1  0  0  0  0
 19 28  2  0  0  0  0
 20 21  1  0  0  0  0
 20 22  2  0  0  0  0
 22 23  1  0  0  0  0
 22 24  1  0  0  0  0
 24 25  1  0  0  0  0
 24 26  2  0  0  0  0
 26 27  1  0  0  0  0
 26 28  1  0  0  0  0
 29 30  2  0  0  0  0
 29 31  1  0  0  0  0
 31 32  1  0  0  0  0
 31 33  1  0  0  0  0
 33 34  1  0  0  0  0
 33 35  1  0  0  0  0
 33 36  1  0  0  0  0
M  END
$$$$

  -OEChem-01062216103D

 36 37  0     1  0  0  0  0  0999 V2000
   -3.8448   -2.5283    0.3734 H   0  0  0  0  0  0  0  0  0  0  0  0
   -3.7528   -1.7173   -0.3549 C   0  0  0  0  0  0  0  0  0  0  0  0
   -4.5193   -0.9679   -0.1435 H   0  0  0  0  0  0  0  0  0  0  0  0
   -3.9149   -2.1234   -1.3563 H   0  0  0  0  0  0  0  0  0  0  0  0
   -2.3744   -1.0904   -0.2666 C   0  0  0  0  0  0  0  0  0  0  0  0
   -1.5414   -1.5769    0.4750 O   0  0  0  0  0  0  0  0  0  0  0  0
   -2.0948    0.0317   -1.0219 N   0  0  0  0  0  0  0  0  0  0  0  0
   -2.8870    0.4383   -1.5116 H   0  0  0  0  0  0  0  0  0  0  0  0
   -0.8778    0.8716   -0.9385 C   0  0  1  0  0  0  0  0  0  0  0  0
   -0.8140    1.4748   -1.8490 H   0  0  0  0  0  0  0  0  0  0  0  0
   -1.0396    1.8250    0.2646 C   0  0  0  0  0  0  0  0  0  0  0  0
   -1.2463    1.2453    1.1703 H   0  0  0  0  0  0  0  0  0  0  0  0
   -0.1182    2.3884    0.4427 H   0  0  0  0  0  0  0  0  0  0  0  0
   -2.1502    2.8098    0.0034 C   0  0  0  0  0  0  0  0  0  0  0  0
   -3.4477    2.6990    0.4413 C   0  0  0  0  0  0  0  0  0  0  0  0
   -3.8322    1.9024    1.0748 H   0  0  0  0  0  0  0  0  0  0  0  0
   -4.1585    3.7837   -0.0688 N   0  0  0  0  0  0  0  0  0  0  0  0
   -5.1367    3.9907    0.1227 H   0  0  0  0  0  0  0  0  0  0  0  0
   -3.3270    4.5889   -0.8318 C   0  0  0  0  0  0  0  0  0  0  0  0
   -3.5649    5.7694   -1.5365 C   0  0  0  0  0  0  0  0  0  0  0  0
   -4.5543    6.2134   -1.5442 H   0  0  0  0  0  0  0  0  0  0  0  0
   -2.5085    6.3739   -2.2329 C   0  0  0  0  0  0  0  0  0  0  0  0
   -2.6789    7.2929   -2.7860 H   0  0  0  0  0  0  0  0  0  0  0  0
   -1.2300    5.7955   -2.2136 C   0  0  0  0  0  0  0  0  0  0  0  0
   -0.4131    6.2689   -2.7497 H   0  0  0  0  0  0  0  0  0  0  0  0
   -1.0012    4.6105   -1.4995 C   0  0  0  0  0  0  0  0  0  0  0  0
   -0.0122    4.1632   -1.4745 H   0  0  0  0  0  0  0  0  0  0  0  0
   -2.0619    4.0131   -0.8111 C   0  0  0  0  0  0  0  0  0  0  0  0
    0.4636    0.0926   -0.8695 C   0  0  0  0  0  0  0  0  0  0  0  0
    1.4224    0.5203   -0.2367 O   0  0  0  0  0  0  0  0  0  0  0  0
    0.6667   -0.9746   -1.7267 N   0  0  0  0  0  0  0  0  0  0  0  0
   -0.1771   -1.3929   -2.1044 H   0  0  0  0  0  0  0  0  0  0  0  0
    1.8809   -1.7806   -1.7001 C   0  0  0  0  0  0  0  0  0  0  0  0
    1.9990   -2.2599   -0.7225 H   0  0  0  0  0  0  0  0  0  0  0  0
    1.8332   -2.5598   -2.4667 H   0  0  0  0  0  0  0  0  0  0  0  0
    2.7606   -1.1587   -1.8968 H   0  0  0  0  0  0  0  0  0  0  0  0
  1  2  1  0  0  0  0
  2  3  1  0  0  0  0
  2  4  1  0  0  0  0
  2  5  1  0  0  0  0
  5  6  2  0  0  0  0
  5  7  1  0  0  0  0
  7  8  1  0  0  0  0
  7  9  1  0  0  0  0
  9 10  1  0  0  0  0
  9 11  1  0  0  0  0
  9 29  1  0  0  0  0
 11 12  1  0  0  0  0
 11 13  1  0  0  0  0
 11 14  1  0  0  0  0
 14 15  2  0  0  0  0
 14 28  1  0  0  0  0
 15 16  1  0  0  0  0
 15 17  1  0  0  0  0
 17 18  1  0  0  0  0
 17 19  1  0  0  0  0
 19 20  1  0  0  0  0
 19 28  2  0  0  0  0
 20 21  1  0  0  0  0
 20 22  2  0  0  0  0
 22 23  1  0  0  0  0
 22 24  1  0  0  0  0
 24 25  1  0  0  0  0
 24 26  2  0  0  0  0
 26 27  1  0  0  0  0
 26 28  1  0  0  0  0
 29 30  2  0  0  0  0
 29 31  1  0  0  0  0
 31 32  1  0  0  0  0
 31 33  1  0  0  0  0
 33 34  1  0  0  0  0
 33 35  1  0  0  0  0
 33 36  1  0  0  0  0
M  END
$$$$

  -OEChem-01062216103D

 36 37  0     1  0  0  0  0  0999 V2000
   -3.8220   -2.5297    0.3834 H   0  0  0  0  0  0  0  0  0  0  0  0
   -3.7257   -1.7329   -0.3598 C   0  0  0  0  0  0  0  0  0  0  0  0
   -4.5008   -0.9856   -0.1747 H   0  0  0  0  0  0  0  0  0  0  0  0
   -3.8696   -2.1607   -1.3547 H   0  0  0  0  0  0  0  0  0  0  0  0
   -2.3532   -1.0942   -0.2649 C   0  0  0  0  0  0  0  0  0  0  0  0
   -1.5230   -1.5728    0.4846 O   0  0  0  0  0  0  0  0  0  0  0  0
   -2.0788    0.0265   -1.0248 N   0  0  0  0  0  0  0  0  0  0  0  0
   -2.8724    0.4250   -1.5185 H   0  0  0  0  0  0  0  0  0  0  0  0
   -0.8679    0.8735   -0.9388 C   0  0  1  0  0  0  0  0  0  0  0  0
   -0.8007    1.4758   -1.8495 H   0  0  0  0  0  0  0  0  0  0  0  0
   -1.0340    1.8319    0.2590 C   0  0  0  0  0  0  0  0  0  0  0  0
   -1.2412    1.2553    1.1666 H   0  0  0  0  0  0  0  0  0  0  0  0
   -0.1120    2.3958    0.4345 H   0  0  0  0  0  0  0  0  0  0  0  0
   -2.1472    2.8133   -0.0053 C   0  0  0  0  0  0  0  0  0  0  0  0
   -3.4439    2.6991    0.4342 C   0  0  0  0  0  0  0  0  0  0  0  0
   -3.8257    1.9021    1.0687 H   0  0  0  0  0  0  0  0  0  0  0  0
   -4.1578    3.7826   -0.0739 N   0  0  0  0  0  0  0  0  0  0  0  0
   -5.1353    3.9890    0.1219 H   0  0  0  0  0  0  0  0  0  0  0  0
   -3.3291    4.5914   -0.8358 C   0  0  0  0  0  0  0  0  0  0  0  0
   -3.5701    5.7741   -1.5354 C   0  0  0  0  0  0  0  0  0  0  0  0
   -4.5609    6.2146   -1.5411 H   0  0  0  0  0  0  0  0  0  0  0  0
   -2.5145    6.3856   -2.2268 C   0  0  0  0  0  0  0  0  0  0  0  0
   -2.6862    7.3086   -2.7731 H   0  0  0  0  0  0  0  0  0  0  0  0
   -1.2344    5.8097   -2.2100 C   0  0  0  0  0  0  0  0  0  0  0  0
   -0.4178    6.2885   -2.7419 H   0  0  0  0  0  0  0  0  0  0  0  0
   -1.0032    4.6212   -1.5026 C   0  0  0  0  0  0  0  0  0  0  0  0
   -0.0132    4.1765   -1.4787 H   0  0  0  0  0  0  0  0  0  0  0  0
   -2.0626    4.0185   -0.8174 C   0  0  0  0  0  0  0  0  0  0  0  0
    0.4682    0.0874   -0.8602 C   0  0  0  0  0  0  0  0  0  0  0  0
    1.3356    0.3586   -0.0374 O   0  0  0  0  0  0  0  0  0  0  0  0
    0.7961   -0.7645   -1.9006 N   0  0  0  0  0  0  0  0  0  0  0  0
    0.0271   -1.0524   -2.4966 H   0  0  0  0  0  0  0  0  0  0  0  0
    2.0115   -1.5697   -1.9015 C   0  0  0  0  0  0  0  0  0  0  0  0
    2.0285   -2.2356   -1.0322 H   0  0  0  0  0  0  0  0  0  0  0  0
    2.0596   -2.1803   -2.8081 H   0  0  0  0  0  0  0  0  0  0  0  0
    2.8984   -0.9282   -1.8715 H   0  0  0  0  0  0  0  0  0  0  0  0
  1  2  1  0  0  0  0
  2  3  1  0  0  0  0
  2  4  1  0  0  0  0
  2  5  1  0  0  0  0
  5  6  2  0  0  0  0
  5  7  1  0  0  0  0
  7  8  1  0  0  0  0
  7  9  1  0  0  0  0
  9 10  1  0  0  0  0
  9 11  1  0  0  0  0
  9 29  1  0  0  0  0
 11 12  1  0  0  0  0
 11 13  1  0  0  0  0
 11 14  1  0  0  0  0
 14 15  2  0  0  0  0
 14 28  1  0  0  0  0
 15 16  1  0  0  0  0
 15 17  1  0  0  0  0
 17 18  1  0  0  0  0
 17 19  1  0  0  0  0
 19 20  1  0  0  0  0
 19 28  2  0  0  0  0
 20 21  1  0  0  0  0
 20 22  2  0  0  0  0
 22 23  1  0  0  0  0
 22 24  1  0  0  0  0
 24 25  1  0  0  0  0
 24 26  2  0  0  0  0
 26 27  1  0  0  0  0
 26 28  1  0  0  0  0
 29 30  2  0  0  0  0
 29 31  1  0  0  0  0
 31 32  1  0  0  0  0
 31 33  1  0  0  0  0
 33 34  1  0  0  0  0
 33 35  1  0  0  0  0
 33 36  1  0  0  0  0
M  END
$$$$

  -OEChem-01062216103D

 36 37  0     1  0  0  0  0  0999 V2000
   -3.8516   -2.5457    0.3534 H   0  0  0  0  0  0  0  0  0  0  0  0
   -3.7534   -1.7304   -0.3691 C   0  0  0  0  0  0  0  0  0  0  0  0
   -4.5211   -0.9820   -0.1595 H   0  0  0  0  0  0  0  0  0  0  0  0
   -3.9073   -2.1305   -1.3741 H   0  0  0  0  0  0  0  0  0  0  0  0
   -2.3750   -1.1051   -0.2655 C   0  0  0  0  0  0  0  0  0  0  0  0
   -1.5534   -1.5967    0.4839 O   0  0  0  0  0  0  0  0  0  0  0  0
   -2.0914    0.0202   -1.0150 N   0  0  0  0  0  0  0  0  0  0  0  0
   -2.8830    0.4264   -1.5054 H   0  0  0  0  0  0  0  0  0  0  0  0
   -0.8780    0.8612   -0.9207 C   0  0  1  0  0  0  0  0  0  0  0  0
   -0.8110    1.4695   -1.8274 H   0  0  0  0  0  0  0  0  0  0  0  0
   -1.0384    1.8166    0.2788 C   0  0  0  0  0  0  0  0  0  0  0  0
   -1.2502    1.2392    1.1852 H   0  0  0  0  0  0  0  0  0  0  0  0
   -0.1108    2.3708    0.4551 H   0  0  0  0  0  0  0  0  0  0  0  0
   -2.1448    2.8051    0.0137 C   0  0  0  0  0  0  0  0  0  0  0  0
   -3.4431    2.6992    0.4500 C   0  0  0  0  0  0  0  0  0  0  0  0
   -3.8303    1.9056    1.0859 H   0  0  0  0  0  0  0  0  0  0  0  0
   -4.1498    3.7845   -0.0647 N   0  0  0  0  0  0  0  0  0  0  0  0
   -5.1270    3.9964    0.1275 H   0  0  0  0  0  0  0  0  0  0  0  0
   -3.3163    4.5827   -0.8329 C   0  0  0  0  0  0  0  0  0  0  0  0
   -3.5498    5.7596   -1.5452 C   0  0  0  0  0  0  0  0  0  0  0  0
   -4.5372    6.2080   -1.5546 H   0  0  0  0  0  0  0  0  0  0  0  0
   -2.4917    6.3548   -2.2471 C   0  0  0  0  0  0  0  0  0  0  0  0
   -2.6586    7.2711   -2.8059 H   0  0  0  0  0  0  0  0  0  0  0  0
   -1.2157    5.7705   -2.2259 C   0  0  0  0  0  0  0  0  0  0  0  0
   -0.3974    6.2364   -2.7668 H   0  0  0  0  0  0  0  0  0  0  0  0
   -0.9913    4.5898   -1.5034 C   0  0  0  0  0  0  0  0  0  0  0  0
   -0.0046    4.1382   -1.4765 H   0  0  0  0  0  0  0  0  0  0  0  0
   -2.0535    4.0024   -0.8092 C   0  0  0  0  0  0  0  0  0  0  0  0
    0.4601    0.0786   -0.8441 C   0  0  0  0  0  0  0  0  0  0  0  0
    1.2216    0.1776    0.1114 O   0  0  0  0  0  0  0  0  0  0  0  0
    0.9439   -0.5093   -2.0001 N   0  0  0  0  0  0  0  0  0  0  0  0
    0.2803   -0.6369   -2.7570 H   0  0  0  0  0  0  0  0  0  0  0  0
    2.2079   -1.2342   -2.0496 C   0  0  0  0  0  0  0  0  0  0  0  0
    2.1939   -2.0740   -1.3468 H   0  0  0  0  0  0  0  0  0  0  0  0
    2.3794   -1.6263   -3.0565 H   0  0  0  0  0  0  0  0  0  0  0  0
    3.0411   -0.5722   -1.7911 H   0  0  0  0  0  0  0  0  0  0  0  0
  1  2  1  0  0  0  0
  2  3  1  0  0  0  0
  2  4  1  0  0  0  0
  2  5  1  0  0  0  0
  5  6  2  0  0  0  0
  5  7  1  0  0  0  0
  7  8  1  0  0  0  0
  7  9  1  0  0  0  0
  9 10  1  0  0  0  0
  9 11  1  0  0  0  0
  9 29  1  0  0  0  0
 11 12  1  0  0  0  0
 11 13  1  0  0  0  0
 11 14  1  0  0  0  0
 14 15  2  0  0  0  0
 14 28  1  0  0  0  0
 15 16  1  0  0  0  0
 15 17  1  0  0  0  0
 17 18  1  0  0  0  0
 17 19  1  0  0  0  0
 19 20  1  0  0  0  0
 19 28  2  0  0  0  0
 20 21  1  0  0  0  0
 20 22  2  0  0  0  0
 22 23  1  0  0  0  0
 22 24  1  0  0  0  0
 24 25  1  0  0  0  0
 24 26  2  0  0  0  0
 26 27  1  0  0  0  0
 26 28  1  0  0  0  0
 29 30  2  0  0  0  0
 29 31  1  0  0  0  0
 31 32  1  0  0  0  0
 31 33  1  0  0  0  0
 33 34  1  0  0  0  0
 33 35  1  0  0  0  0
 33 36  1  0  0  0  0
M  END
$$$$

  -OEChem-01062216103D

 36 37  0     1  0  0  0  0  0999 V2000
   -3.8945   -2.5430    0.3489 H   0  0  0  0  0  0  0  0  0  0  0  0
   -3.7739   -1.7455   -0.3902 C   0  0  0  0  0  0  0  0  0  0  0  0
   -4.5525   -0.9964   -0.2279 H   0  0  0  0  0  0  0  0  0  0  0  0
   -3.8884   -2.1719   -1.3896 H   0  0  0  0  0  0  0  0  0  0  0  0
   -2.4031   -1.1099   -0.2539 C   0  0  0  0  0  0  0  0  0  0  0  0
   -1.6023   -1.5894    0.5243 O   0  0  0  0  0  0  0  0  0  0  0  0
   -2.1081    0.0084   -1.0091 N   0  0  0  0  0  0  0  0  0  0  0  0
   -2.8885    0.3993   -1.5286 H   0  0  0  0  0  0  0  0  0  0  0  0
   -0.8896    0.8435   -0.9272 C   0  0  1  0  0  0  0  0  0  0  0  0
   -0.8309    1.4499   -1.8357 H   0  0  0  0  0  0  0  0  0  0  0  0
   -1.0329    1.8042    0.2693 C   0  0  0  0  0  0  0  0  0  0  0  0
   -1.2438    1.2315    1.1789 H   0  0  0  0  0  0  0  0  0  0  0  0
   -0.0975    2.3488    0.4364 H   0  0  0  0  0  0  0  0  0  0  0  0
   -2.1348    2.7989    0.0108 C   0  0  0  0  0  0  0  0  0  0  0  0
   -3.4292    2.7011    0.4602 C   0  0  0  0  0  0  0  0  0  0  0  0
   -3.8142    1.9098    1.1000 H   0  0  0  0  0  0  0  0  0  0  0  0
   -4.1348    3.7894   -0.0492 N   0  0  0  0  0  0  0  0  0  0  0  0
   -5.1094    4.0059    0.1511 H   0  0  0  0  0  0  0  0  0  0  0  0
   -3.3032    4.5828   -0.8245 C   0  0  0  0  0  0  0  0  0  0  0  0
   -3.5365    5.7605   -1.5348 C   0  0  0  0  0  0  0  0  0  0  0  0
   -4.5226    6.2115   -1.5370 H   0  0  0  0  0  0  0  0  0  0  0  0
   -2.4804    6.3520   -2.2430 C   0  0  0  0  0  0  0  0  0  0  0  0
   -2.6474    7.2695   -2.7994 H   0  0  0  0  0  0  0  0  0  0  0  0
   -1.2062    5.7632   -2.2298 C   0  0  0  0  0  0  0  0  0  0  0  0
   -0.3893    6.2268   -2.7747 H   0  0  0  0  0  0  0  0  0  0  0  0
   -0.9820    4.5812   -1.5098 C   0  0  0  0  0  0  0  0  0  0  0  0
    0.0033    4.1266   -1.4877 H   0  0  0  0  0  0  0  0  0  0  0  0
   -2.0427    3.9968   -0.8107 C   0  0  0  0  0  0  0  0  0  0  0  0
    0.4517    0.0657   -0.8499 C   0  0  0  0  0  0  0  0  0  0  0  0
    1.1050   -0.0095    0.1843 O   0  0  0  0  0  0  0  0  0  0  0  0
    1.0919   -0.2578   -2.0346 N   0  0  0  0  0  0  0  0  0  0  0  0
    0.5410   -0.2088   -2.8852 H   0  0  0  0  0  0  0  0  0  0  0  0
    2.4008   -0.8988   -2.0842 C   0  0  0  0  0  0  0  0  0  0  0  0
    2.3789   -1.8561   -1.5526 H   0  0  0  0  0  0  0  0  0  0  0  0
    2.6915   -1.0857   -3.1223 H   0  0  0  0  0  0  0  0  0  0  0  0
    3.1600   -0.2576   -1.6242 H   0  0  0  0  0  0  0  0  0  0  0  0
  1  2  1  0  0  0  0
  2  3  1  0  0  0  0
  2  4  1  0  0  0  0
  2  5  1  0  0  0  0
  5  6  2  0  0  0  0
  5  7  1  0  0  0  0
  7  8  1  0  0  0  0
  7  9  1  0  0  0  0
  9 10  1  0  0  0  0
  9 11  1  0  0  0  0
  9 29  1  0  0  0  0
 11 12  1  0  0  0  0
 11 13  1  0  0  0  0
 11 14  1  0  0  0  0
 14 15  2  0  0  0  0
 14 28  1  0  0  0  0
 15 16  1  0  0  0  0
 15 17  1  0  0  0  0
 17 18  1  0  0  0  0
 17 19  1  0  0  0  0
 19 20  1  0  0  0  0
 19 28  2  0  0  0  0
 20 21  1  0  0  0  0
 20 22  2  0  0  0  0
 22 23  1  0  0  0  0
 22 24  1  0  0  0  0
 24 25  1  0  0  0  0
 24 26  2  0  0  0  0
 26 27  1  0  0  0  0
 26 28  1  0  0  0  0
 29 30  2  0  0  0  0
 29 31  1  0  0  0  0
 31 32  1  0  0  0  0
 31 33  1  0  0  0  0
 33 34  1  0  0  0  0
 33 35  1  0  0  0  0
 33 36  1  0  0  0  0
M  END
$$$$

  -OEChem-01062216103D

 36 37  0     1  0  0  0  0  0999 V2000
   -3.9307   -2.5827    0.2972 H   0  0  0  0  0  0  0  0  0  0  0  0
   -3.7919   -1.7861   -0.4395 C   0  0  0  0  0  0  0  0  0  0  0  0
   -4.5979   -1.0577   -0.3244 H   0  0  0  0  0  0  0  0  0  0  0  0
   -3.8403   -2.2208   -1.4408 H   0  0  0  0  0  0  0  0  0  0  0  0
   -2.4472   -1.1142   -0.2335 C   0  0  0  0  0  0  0  0  0  0  0  0
   -1.6909   -1.5560    0.6078 O   0  0  0  0  0  0  0  0  0  0  0  0
   -2.1366   -0.0016   -0.9909 N   0  0  0  0  0  0  0  0  0  0  0  0
   -2.8911    0.3520   -1.5708 H   0  0  0  0  0  0  0  0  0  0  0  0
   -0.9106    0.8246   -0.9277 C   0  0  1  0  0  0  0  0  0  0  0  0
   -0.8691    1.4280   -1.8389 H   0  0  0  0  0  0  0  0  0  0  0  0
   -1.0236    1.7912    0.2662 C   0  0  0  0  0  0  0  0  0  0  0  0
   -1.2274    1.2241    1.1810 H   0  0  0  0  0  0  0  0  0  0  0  0
   -0.0787    2.3230    0.4175 H   0  0  0  0  0  0  0  0  0  0  0  0
   -2.1183    2.7971    0.0231 C   0  0  0  0  0  0  0  0  0  0  0  0
   -3.4056    2.7165    0.4945 C   0  0  0  0  0  0  0  0  0  0  0  0
   -3.7888    1.9312    1.1431 H   0  0  0  0  0  0  0  0  0  0  0  0
   -4.1065    3.8111   -0.0080 N   0  0  0  0  0  0  0  0  0  0  0  0
   -5.0756    4.0379    0.2062 H   0  0  0  0  0  0  0  0  0  0  0  0
   -3.2795    4.5903   -0.8025 C   0  0  0  0  0  0  0  0  0  0  0  0
   -3.5115    5.7656   -1.5175 C   0  0  0  0  0  0  0  0  0  0  0  0
   -4.4924    6.2278   -1.5061 H   0  0  0  0  0  0  0  0  0  0  0  0
   -2.4612    6.3400   -2.2481 C   0  0  0  0  0  0  0  0  0  0  0  0
   -2.6278    7.2550   -2.8090 H   0  0  0  0  0  0  0  0  0  0  0  0
   -1.1937    5.7366   -2.2524 C   0  0  0  0  0  0  0  0  0  0  0  0
   -0.3811    6.1869   -2.8148 H   0  0  0  0  0  0  0  0  0  0  0  0
   -0.9708    4.5570   -1.5277 C   0  0  0  0  0  0  0  0  0  0  0  0
    0.0094    4.0911   -1.5195 H   0  0  0  0  0  0  0  0  0  0  0  0
   -2.0259    3.9897   -0.8063 C   0  0  0  0  0  0  0  0  0  0  0  0
    0.4388    0.0597   -0.8597 C   0  0  0  0  0  0  0  0  0  0  0  0
    0.9882   -0.2102    0.2007 O   0  0  0  0  0  0  0  0  0  0  0  0
    1.2214    0.0094   -2.0022 N   0  0  0  0  0  0  0  0  0  0  0  0
    0.7811    0.2601   -2.8813 H   0  0  0  0  0  0  0  0  0  0  0  0
    2.5748   -0.5347   -2.0252 C   0  0  0  0  0  0  0  0  0  0  0  0
    2.5753   -1.5760   -1.6859 H   0  0  0  0  0  0  0  0  0  0  0  0
    2.9779   -0.5019   -3.0419 H   0  0  0  0  0  0  0  0  0  0  0  0
    3.2337    0.0487   -1.3732 H   0  0  0  0  0  0  0  0  0  0  0  0
  1  2  1  0  0  0  0
  2  3  1  0  0  0  0
  2  4  1  0  0  0  0
  2  5  1  0  0  0  0
  5  6  2  0  0  0  0
  5  7  1  0  0  0  0
  7  8  1  0  0  0  0
  7  9  1  0  0  0  0
  9 10  1  0  0  0  0
  9 11  1  0  0  0  0
  9 29  1  0  0  0  0
 11 12  1  0  0  0  0
 11 13  1  0  0  0  0
 11 14  1  0  0  0  0
 14 15  2  0  0  0  0
 14 28  1  0  0  0  0
 15 16  1  0  0  0  0
 15 17  1  0  0  0  0
 17 18  1  0  0  0  0
 17 19  1  0  0  0  0
 19 20  1  0  0  0  0
 19 28  2  0  0  0  0
 20 21  1  0  0  0  0
 20 22  2  0  0  0  0
 22 23  1  0  0  0  0
 22 24  1  0  0  0  0
 24 25  1  0  0  0  0
 24 26  2  0  0  0  0
 26 27  1  0  0  0  0
 26 28  1  0  0  0  0
 29 30  2  0  0  0  0
 29 31  1  0  0  0  0
 31 32  1  0  0  0  0
 31 33  1  0  0  0  0
 33 34  1  0  0  0  0
 33 35  1  0  0  0  0
 33 36  1  0  0  0  0
M  END
$$$$

  -OEChem-01062216103D

 36 37  0     1  0  0  0  0  0999 V2000
   -3.8309   -2.7311    0.1975 H   0  0  0  0  0  0  0  0  0  0  0  0
   -3.7043   -1.9190   -0.5242 C   0  0  0  0  0  0  0  0  0  0  0  0
   -4.6055   -1.3014   -0.5212 H   0  0  0  0  0  0  0  0  0  0  0  0
   -3.5681   -2.3520   -1.5179 H   0  0  0  0  0  0  0  0  0  0  0  0
   -2.4964   -1.0777   -0.1567 C   0  0  0  0  0  0  0  0  0  0  0  0
   -1.9075   -1.3180    0.8784 O   0  0  0  0  0  0  0  0  0  0  0  0
   -2.1804    0.0092   -0.9495 N   0  0  0  0  0  0  0  0  0  0  0  0
   -2.8191    0.1756   -1.7203 H   0  0  0  0  0  0  0  0  0  0  0  0
   -0.9439    0.8251   -0.9291 C   0  0  1  0  0  0  0  0  0  0  0  0
   -0.9232    1.4092   -1.8534 H   0  0  0  0  0  0  0  0  0  0  0  0
   -1.0094    1.8152    0.2475 C   0  0  0  0  0  0  0  0  0  0  0  0
   -1.1949    1.2714    1.1801 H   0  0  0  0  0  0  0  0  0  0  0  0
   -0.0529    2.3355    0.3616 H   0  0  0  0  0  0  0  0  0  0  0  0
   -2.0961    2.8314    0.0160 C   0  0  0  0  0  0  0  0  0  0  0  0
   -3.3676    2.7684    0.5292 C   0  0  0  0  0  0  0  0  0  0  0  0
   -3.7377    1.9866    1.1899 H   0  0  0  0  0  0  0  0  0  0  0  0
   -4.0710    3.8701    0.0461 N   0  0  0  0  0  0  0  0  0  0  0  0
   -5.0328    4.1033    0.2841 H   0  0  0  0  0  0  0  0  0  0  0  0
   -3.2586    4.6397   -0.7723 C   0  0  0  0  0  0  0  0  0  0  0  0
   -3.4986    5.8197   -1.4762 C   0  0  0  0  0  0  0  0  0  0  0  0
   -4.4735    6.2927   -1.4340 H   0  0  0  0  0  0  0  0  0  0  0  0
   -2.4635    6.3854   -2.2343 C   0  0  0  0  0  0  0  0  0  0  0  0
   -2.6363    7.3055   -2.7847 H   0  0  0  0  0  0  0  0  0  0  0  0
   -1.2036    5.7682   -2.2780 C   0  0  0  0  0  0  0  0  0  0  0  0
   -0.4029    6.2131   -2.8610 H   0  0  0  0  0  0  0  0  0  0  0  0
   -0.9730    4.5828   -1.5651 C   0  0  0  0  0  0  0  0  0  0  0  0
    0.0015    4.1065   -1.5862 H   0  0  0  0  0  0  0  0  0  0  0  0
   -2.0127    4.0240   -0.8153 C   0  0  0  0  0  0  0  0  0  0  0  0
    0.4089    0.0662   -0.8611 C   0  0  0  0  0  0  0  0  0  0  0  0
    0.8152   -0.5013    0.1417 O   0  0  0  0  0  0  0  0  0  0  0  0
    1.3155    0.2460   -1.8937 N   0  0  0  0  0  0  0  0  0  0  0  0
    1.0084    0.7722   -2.7051 H   0  0  0  0  0  0  0  0  0  0  0  0
    2.6729   -0.2888   -1.8755 C   0  0  0  0  0  0  0  0  0  0  0  0
    2.6546   -1.3778   -1.7617 H   0  0  0  0  0  0  0  0  0  0  0  0
    3.1869   -0.0483   -2.8109 H   0  0  0  0  0  0  0  0  0  0  0  0
    3.2441    0.1429   -1.0468 H   0  0  0  0  0  0  0  0  0  0  0  0
  1  2  1  0  0  0  0
  2  3  1  0  0  0  0
  2  4  1  0  0  0  0
  2  5  1  0  0  0  0
  5  6  2  0  0  0  0
  5  7  1  0  0  0  0
  7  8  1  0  0  0  0
  7  9  1  0  0  0  0
  9 10  1  0  0  0  0
  9 11  1  0  0  0  0
  9 29  1  0  0  0  0
 11 12  1  0  0  0  0
 11 13  1  0  0  0  0
 11 14  1  0  0  0  0
 14 15  2  0  0  0  0
 14 28  1  0  0  0  0
 15 16  1  0  0  0  0
 15 17  1  0  0  0  0
 17 18  1  0  0  0  0
 17 19  1  0  0  0  0
 19 20  1  0  0  0  0
 19 28  2  0  0  0  0
 20 21  1  0  0  0  0
 20 22  2  0  0  0  0
 22 23  1  0  0  0  0
 22 24  1  0  0  0  0
 24 25  1  0  0  0  0
 24 26  2  0  0  0  0
 26 27  1  0  0  0  0
 26 28  1  0  0  0  0
 29 30  2  0  0  0  0
 29 31  1  0  0  0  0
 31 32  1  0  0  0  0
 31 33  1  0  0  0  0
 33 34  1  0  0  0  0
 33 35  1  0  0  0  0
 33 36  1  0  0  0  0
M  END
$$$$

  -OEChem-01062216103D

 36 37  0     1  0  0  0  0  0999 V2000
   -3.5400   -2.8971    0.1838 H   0  0  0  0  0  0  0  0  0  0  0  0
   -3.4459   -2.1140   -0.5738 C   0  0  0  0  0  0  0  0  0  0  0  0
   -4.4343   -1.6934   -0.7726 H   0  0  0  0  0  0  0  0  0  0  0  0
   -3.0528   -2.5606   -1.4900 H   0  0  0  0  0  0  0  0  0  0  0  0
   -2.5071   -1.0276   -0.0844 C   0  0  0  0  0  0  0  0  0  0  0  0
   -2.1534   -1.0292    1.0819 O   0  0  0  0  0  0  0  0  0  0  0  0
   -2.2417    0.0534   -0.9047 N   0  0  0  0  0  0  0  0  0  0  0  0
   -2.7074    0.0020   -1.8040 H   0  0  0  0  0  0  0  0  0  0  0  0
   -1.0017    0.8650   -0.8792 C   0  0  1  0  0  0  0  0  0  0  0  0
   -0.9814    1.4350   -1.8123 H   0  0  0  0  0  0  0  0  0  0  0  0
   -1.0428    1.8754    0.2809 C   0  0  0  0  0  0  0  0  0  0  0  0
   -1.2287    1.3564    1.2263 H   0  0  0  0  0  0  0  0  0  0  0  0
   -0.0786    2.3841    0.3777 H   0  0  0  0  0  0  0  0  0  0  0  0
   -2.1133    2.9049    0.0374 C   0  0  0  0  0  0  0  0  0  0  0  0
   -3.3818    2.8673    0.5601 C   0  0  0  0  0  0  0  0  0  0  0  0
   -3.7602    2.0947    1.2276 H   0  0  0  0  0  0  0  0  0  0  0  0
   -4.0712    3.9746    0.0696 N   0  0  0  0  0  0  0  0  0  0  0  0
   -5.0324    4.2164    0.3010 H   0  0  0  0  0  0  0  0  0  0  0  0
   -3.2528    4.7229   -0.7623 C   0  0  0  0  0  0  0  0  0  0  0  0
   -3.4810    5.8975   -1.4791 C   0  0  0  0  0  0  0  0  0  0  0  0
   -4.4500    6.3825   -1.4384 H   0  0  0  0  0  0  0  0  0  0  0  0
   -2.4425    6.4416   -2.2483 C   0  0  0  0  0  0  0  0  0  0  0  0
   -2.6072    7.3568   -2.8096 H   0  0  0  0  0  0  0  0  0  0  0  0
   -1.1901    5.8090   -2.2887 C   0  0  0  0  0  0  0  0  0  0  0  0
   -0.3863    6.2377   -2.8798 H   0  0  0  0  0  0  0  0  0  0  0  0
   -0.9717    4.6288   -1.5632 C   0  0  0  0  0  0  0  0  0  0  0  0
   -0.0028    4.1422   -1.5824 H   0  0  0  0  0  0  0  0  0  0  0  0
   -2.0156    4.0895   -0.8047 C   0  0  0  0  0  0  0  0  0  0  0  0
    0.3493    0.1033   -0.8119 C   0  0  0  0  0  0  0  0  0  0  0  0
    0.5163   -0.9380   -0.1951 O   0  0  0  0  0  0  0  0  0  0  0  0
    1.3751    0.5158   -1.6465 N   0  0  0  0  0  0  0  0  0  0  0  0
    1.2355    1.3686   -2.1788 H   0  0  0  0  0  0  0  0  0  0  0  0
    2.6648   -0.1604   -1.7306 C   0  0  0  0  0  0  0  0  0  0  0  0
    2.5339   -1.1983   -2.0548 H   0  0  0  0  0  0  0  0  0  0  0  0
    3.3110    0.3475   -2.4528 H   0  0  0  0  0  0  0  0  0  0  0  0
    3.1640   -0.1557   -0.7558 H   0  0  0  0  0  0  0  0  0  0  0  0
  1  2  1  0  0  0  0
  2  3  1  0  0  0  0
  2  4  1  0  0  0  0
  2  5  1  0  0  0  0
  5  6  2  0  0  0  0
  5  7  1  0  0  0  0
  7  8  1  0  0  0  0
  7  9  1  0  0  0  0
  9 10  1  0  0  0  0
  9 11  1  0  0  0  0
  9 29  1  0  0  0  0
 11 12  1  0  0  0  0
 11 13  1  0  0  0  0
 11 14  1  0  0  0  0
 14 15  2  0  0  0  0
 14 28  1  0  0  0  0
 15 16  1  0  0  0  0
 15 17  1  0  0  0  0
 17 18  1  0  0  0  0
 17 19  1  0  0  0  0
 19 20  1  0  0  0  0
 19 28  2  0  0  0  0
 20 21  1  0  0  0  0
 20 22  2  0  0  0  0
 22 23  1  0  0  0  0
 22 24  1  0  0  0  0
 24 25  1  0  0  0  0
 24 26  2  0  0  0  0
 26 27  1  0  0  0  0
 26 28  1  0  0  0  0
 29 30  2  0  0  0  0
 29 31  1  0  0  0  0
 31 32  1  0  0  0  0
 31 33  1  0  0  0  0
 33 34  1  0  0  0  0
 33 35  1  0  0  0  0
 33 36  1  0  0  0  0
M  END
$$$$

  -OEChem-01062216103D

 36 37  0     1  0  0  0  0  0999 V2000
   -3.5071   -2.9089    0.2006 H   0  0  0  0  0  0  0  0  0  0  0  0
   -3.4283   -2.1259   -0.5589 C   0  0  0  0  0  0  0  0  0  0  0  0
   -4.4230   -1.7169   -0.7499 H   0  0  0  0  0  0  0  0  0  0  0  0
   -3.0384   -2.5696   -1.4781 H   0  0  0  0  0  0  0  0  0  0  0  0
   -2.4970   -1.0283   -0.0800 C   0  0  0  0  0  0  0  0  0  0  0  0
   -2.1112   -1.0318    1.0776 O   0  0  0  0  0  0  0  0  0  0  0  0
   -2.2450    0.0556   -0.9012 N   0  0  0  0  0  0  0  0  0  0  0  0
   -2.6895   -0.0127   -1.8101 H   0  0  0  0  0  0  0  0  0  0  0  0
   -1.0065    0.8688   -0.8598 C   0  0  1  0  0  0  0  0  0  0  0  0
   -0.9735    1.4358   -1.7945 H   0  0  0  0  0  0  0  0  0  0  0  0
   -1.0615    1.8827    0.2981 C   0  0  0  0  0  0  0  0  0  0  0  0
   -1.2589    1.3667    1.2426 H   0  0  0  0  0  0  0  0  0  0  0  0
   -0.0996    2.3934    0.4071 H   0  0  0  0  0  0  0  0  0  0  0  0
   -2.1284    2.9123    0.0401 C   0  0  0  0  0  0  0  0  0  0  0  0
   -3.4027    2.8752    0.5488 C   0  0  0  0  0  0  0  0  0  0  0  0
   -3.7895    2.1032    1.2119 H   0  0  0  0  0  0  0  0  0  0  0  0
   -4.0845    3.9854    0.0544 N   0  0  0  0  0  0  0  0  0  0  0  0
   -5.0482    4.2280    0.2746 H   0  0  0  0  0  0  0  0  0  0  0  0
   -3.2566    4.7329   -0.7686 C   0  0  0  0  0  0  0  0  0  0  0  0
   -3.4770    5.9088   -1.4856 C   0  0  0  0  0  0  0  0  0  0  0  0
   -4.4450    6.3962   -1.4513 H   0  0  0  0  0  0  0  0  0  0  0  0
   -2.4325    6.4500   -2.2482 C   0  0  0  0  0  0  0  0  0  0  0  0
   -2.5910    7.3655   -2.8104 H   0  0  0  0  0  0  0  0  0  0  0  0
   -1.1825    5.8125   -2.2831 C   0  0  0  0  0  0  0  0  0  0  0  0
   -0.3751    6.2376   -2.8719 H   0  0  0  0  0  0  0  0  0  0  0  0
   -0.9719    4.6314   -1.5569 C   0  0  0  0  0  0  0  0  0  0  0  0
   -0.0054    4.1406   -1.5755 H   0  0  0  0  0  0  0  0  0  0  0  0
   -2.0208    4.0961   -0.8022 C   0  0  0  0  0  0  0  0  0  0  0  0
    0.3431    0.1040   -0.7850 C   0  0  0  0  0  0  0  0  0  0  0  0
    0.4203   -1.0944   -0.5503 O   0  0  0  0  0  0  0  0  0  0  0  0
    1.4590    0.6976   -1.3532 N   0  0  0  0  0  0  0  0  0  0  0  0
    1.3941    1.6811   -1.5957 H   0  0  0  0  0  0  0  0  0  0  0  0
    2.7476    0.0267   -1.4887 C   0  0  0  0  0  0  0  0  0  0  0  0
    2.6524   -0.8640   -2.1186 H   0  0  0  0  0  0  0  0  0  0  0  0
    3.4775    0.6984   -1.9506 H   0  0  0  0  0  0  0  0  0  0  0  0
    3.1278   -0.2748   -0.5069 H   0  0  0  0  0  0  0  0  0  0  0  0
  1  2  1  0  0  0  0
  2  3  1  0  0  0  0
  2  4  1  0  0  0  0
  2  5  1  0  0  0  0
  5  6  2  0  0  0  0
  5  7  1  0  0  0  0
  7  8  1  0  0  0  0
  7  9  1  0  0  0  0
  9 10  1  0  0  0  0
  9 11  1  0  0  0  0
  9 29  1  0  0  0  0
 11 12  1  0  0  0  0
 11 13  1  0  0  0  0
 11 14  1  0  0  0  0
 14 15  2  0  0  0  0
 14 28  1  0  0  0  0
 15 16  1  0  0  0  0
 15 17  1  0  0  0  0
 17 18  1  0  0  0  0
 17 19  1  0  0  0  0
 19 20  1  0  0  0  0
 19 28  2  0  0  0  0
 20 21  1  0  0  0  0
 20 22  2  0  0  0  0
 22 23  1  0  0  0  0
 22 24  1  0  0  0  0
 24 25  1  0  0  0  0
 24 26  2  0  0  0  0
 26 27  1  0  0  0  0
 26 28  1  0  0  0  0
 29 30  2  0  0  0  0
 29 31  1  0  0  0  0
 31 32  1  0  0  0  0
 31 33  1  0  0  0  0
 33 34  1  0  0  0  0
 33 35  1  0  0  0  0
 33 36  1  0  0  0  0
M  END
$$$$

  -OEChem-01062216103D

 36 37  0     1  0  0  0  0  0999 V2000
   -3.5162   -2.8849    0.2194 H   0  0  0  0  0  0  0  0  0  0  0  0
   -3.4367   -2.1057   -0.5439 C   0  0  0  0  0  0  0  0  0  0  0  0
   -4.4262   -1.6758   -0.7154 H   0  0  0  0  0  0  0  0  0  0  0  0
   -3.0750   -2.5589   -1.4701 H   0  0  0  0  0  0  0  0  0  0  0  0
   -2.4726   -1.0271   -0.0883 C   0  0  0  0  0  0  0  0  0  0  0  0
   -2.0199   -1.0631    1.0449 O   0  0  0  0  0  0  0  0  0  0  0  0
   -2.2321    0.0604   -0.9083 N   0  0  0  0  0  0  0  0  0  0  0  0
   -2.6824   -0.0011   -1.8153 H   0  0  0  0  0  0  0  0  0  0  0  0
   -0.9978    0.8780   -0.8571 C   0  0  1  0  0  0  0  0  0  0  0  0
   -0.9506    1.4464   -1.7903 H   0  0  0  0  0  0  0  0  0  0  0  0
   -1.0726    1.8913    0.3025 C   0  0  0  0  0  0  0  0  0  0  0  0
   -1.2786    1.3715    1.2430 H   0  0  0  0  0  0  0  0  0  0  0  0
   -0.1174    2.4096    0.4266 H   0  0  0  0  0  0  0  0  0  0  0  0
   -2.1427    2.9165    0.0378 C   0  0  0  0  0  0  0  0  0  0  0  0
   -3.4216    2.8720    0.5346 C   0  0  0  0  0  0  0  0  0  0  0  0
   -3.8118    2.0962    1.1910 H   0  0  0  0  0  0  0  0  0  0  0  0
   -4.1032    3.9828    0.0415 N   0  0  0  0  0  0  0  0  0  0  0  0
   -5.0697    4.2206    0.2539 H   0  0  0  0  0  0  0  0  0  0  0  0
   -3.2722    4.7367   -0.7719 C   0  0  0  0  0  0  0  0  0  0  0  0
   -3.4923    5.9161   -1.4834 C   0  0  0  0  0  0  0  0  0  0  0  0
   -4.4605    6.4030   -1.4482 H   0  0  0  0  0  0  0  0  0  0  0  0
   -2.4466    6.4623   -2.2407 C   0  0  0  0  0  0  0  0  0  0  0  0
   -2.6044    7.3804   -2.7992 H   0  0  0  0  0  0  0  0  0  0  0  0
   -1.1964    5.8257   -2.2762 C   0  0  0  0  0  0  0  0  0  0  0  0
   -0.3894    6.2537   -2.8632 H   0  0  0  0  0  0  0  0  0  0  0  0
   -0.9855    4.6419   -1.5544 C   0  0  0  0  0  0  0  0  0  0  0  0
   -0.0191    4.1513   -1.5772 H   0  0  0  0  0  0  0  0  0  0  0  0
   -2.0345    4.1029   -0.8020 C   0  0  0  0  0  0  0  0  0  0  0  0
    0.3427    0.0971   -0.7790 C   0  0  0  0  0  0  0  0  0  0  0  0
    0.3887   -1.1250   -0.8557 O   0  0  0  0  0  0  0  0  0  0  0  0
    1.5200    0.7798   -1.0401 N   0  0  0  0  0  0  0  0  0  0  0  0
    1.4844    1.7940   -1.0249 H   0  0  0  0  0  0  0  0  0  0  0  0
    2.8171    0.1269   -1.1787 C   0  0  0  0  0  0  0  0  0  0  0  0
    2.8108   -0.5644   -2.0280 H   0  0  0  0  0  0  0  0  0  0  0  0
    3.5989    0.8733   -1.3481 H   0  0  0  0  0  0  0  0  0  0  0  0
    3.0637   -0.4325   -0.2702 H   0  0  0  0  0  0  0  0  0  0  0  0
  1  2  1  0  0  0  0
  2  3  1  0  0  0  0
  2  4  1  0  0  0  0
  2  5  1  0  0  0  0
  5  6  2  0  0  0  0
  5  7  1  0  0  0  0
  7  8  1  0  0  0  0
  7  9  1  0  0  0  0
  9 10  1  0  0  0  0
  9 11  1  0  0  0  0
  9 29  1  0  0  0  0
 11 12  1  0  0  0  0
 11 13  1  0  0  0  0
 11 14  1  0  0  0  0
 14 15  2  0  0  0  0
 14 28  1  0  0  0  0
 15 16  1  0  0  0  0
 15 17  1  0  0  0  0
 17 18  1  0  0  0  0
 17 19  1  0  0  0  0
 19 20  1  0  0  0  0
 19 28  2  0  0  0  0
 20 21  1  0  0  0  0
 20 22  2  0  0  0  0
 22 23  1  0  0  0  0
 22 24  1  0  0  0  0
 24 25  1  0  0  0  0
 24 26  2  0  0  0  0
 26 27  1  0  0  0  0
 26 28  1  0  0  0  0
 29 30  2  0  0  0  0
 29 31  1  0  0  0  0
 31 32  1  0  0  0  0
 31 33  1  0  0  0  0
 33 34  1  0  0  0  0
 33 35  1  0  0  0  0
 33 36  1  0  0  0  0
M  END
$$$$

  -OEChem-01062216103D

 36 37  0     1  0  0  0  0  0999 V2000
   -3.5421   -2.8907    0.1371 H   0  0  0  0  0  0  0  0  0  0  0  0
   -3.4741   -2.0641   -0.5758 C   0  0  0  0  0  0  0  0  0  0  0  0
   -4.4398   -1.5553   -0.6200 H   0  0  0  0  0  0  0  0  0  0  0  0
   -3.2362   -2.4708   -1.5618 H   0  0  0  0  0  0  0  0  0  0  0  0
   -2.3931   -1.0907   -0.1458 C   0  0  0  0  0  0  0  0  0  0  0  0
   -1.7734   -1.3022    0.8841 O   0  0  0  0  0  0  0  0  0  0  0  0
   -2.1685    0.0414   -0.9072 N   0  0  0  0  0  0  0  0  0  0  0  0
   -2.6759    0.0656   -1.7853 H   0  0  0  0  0  0  0  0  0  0  0  0
   -0.9573    0.8882   -0.8246 C   0  0  1  0  0  0  0  0  0  0  0  0
   -1.0463    1.6517   -1.6029 H   0  0  0  0  0  0  0  0  0  0  0  0
   -0.8485    1.6354    0.5238 C   0  0  0  0  0  0  0  0  0  0  0  0
   -0.8886    0.9370    1.3632 H   0  0  0  0  0  0  0  0  0  0  0  0
    0.1071    2.1610    0.5975 H   0  0  0  0  0  0  0  0  0  0  0  0
   -1.9505    2.6522    0.6447 C   0  0  0  0  0  0  0  0  0  0  0  0
   -3.1360    2.4593    1.3094 C   0  0  0  0  0  0  0  0  0  0  0  0
   -3.4159    1.5513    1.8409 H   0  0  0  0  0  0  0  0  0  0  0  0
   -3.8896    3.6229    1.1695 N   0  0  0  0  0  0  0  0  0  0  0  0
   -4.8123    3.7766    1.5705 H   0  0  0  0  0  0  0  0  0  0  0  0
   -3.1993    4.5570    0.4133 C   0  0  0  0  0  0  0  0  0  0  0  0
   -3.5326    5.8479    0.0033 C   0  0  0  0  0  0  0  0  0  0  0  0
   -4.4856    6.2819    0.2848 H   0  0  0  0  0  0  0  0  0  0  0  0
   -2.6209    6.5743   -0.7754 C   0  0  0  0  0  0  0  0  0  0  0  0
   -2.8681    7.5803   -1.1014 H   0  0  0  0  0  0  0  0  0  0  0  0
   -1.3895    6.0039   -1.1328 C   0  0  0  0  0  0  0  0  0  0  0  0
   -0.6864    6.5708   -1.7355 H   0  0  0  0  0  0  0  0  0  0  0  0
   -1.0636    4.7060   -0.7127 C   0  0  0  0  0  0  0  0  0  0  0  0
   -0.1116    4.2638   -0.9851 H   0  0  0  0  0  0  0  0  0  0  0  0
   -1.9796    3.9879    0.0634 C   0  0  0  0  0  0  0  0  0  0  0  0
    0.3487    0.1190   -1.1549 C   0  0  0  0  0  0  0  0  0  0  0  0
    0.3098   -0.9809   -1.6958 O   0  0  0  0  0  0  0  0  0  0  0  0
    1.5696    0.7727   -1.1190 N   0  0  0  0  0  0  0  0  0  0  0  0
    1.5984    1.6826   -0.6702 H   0  0  0  0  0  0  0  0  0  0  0  0
    2.8272    0.1427   -1.5037 C   0  0  0  0  0  0  0  0  0  0  0  0
    2.7930   -0.1776   -2.5505 H   0  0  0  0  0  0  0  0  0  0  0  0
    3.6545    0.8493   -1.3873 H   0  0  0  0  0  0  0  0  0  0  0  0
    3.0258   -0.7308   -0.8737 H   0  0  0  0  0  0  0  0  0  0  0  0
  1  2  1  0  0  0  0
  2  3  1  0  0  0  0
  2  4  1  0  0  0  0
  2  5  1  0  0  0  0
  5  6  2  0  0  0  0
  5  7  1  0  0  0  0
  7  8  1  0  0  0  0
  7  9  1  0  0  0  0
  9 10  1  0  0  0  0
  9 11  1  0  0  0  0
  9 29  1  0  0  0  0
 11 12  1  0  0  0  0
 11 13  1  0  0  0  0
 11 14  1  0  0  0  0
 14 15  2  0  0  0  0
 14 28  1  0  0  0  0
 15 16  1  0  0  0  0
 15 17  1  0  0  0  0
 17 18  1  0  0  0  0
 17 19  1  0  0  0  0
 19 20  1  0  0  0  0
 19 28  2  0  0  0  0
 20 21  1  0  0  0  0
 20 22  2  0  0  0  0
 22 23  1  0  0  0  0
 22 24  1  0  0  0  0
 24 25  1  0  0  0  0
 24 26  2  0  0  0  0
 26 27  1  0  0  0  0
 26 28  1  0  0  0  0
 29 30  2  0  0  0  0
 29 31  1  0  0  0  0
 31 32  1  0  0  0  0
 31 33  1  0  0  0  0
 33 34  1  0  0  0  0
 33 35  1  0  0  0  0
 33 36  1  0  0  0  0
M  END
$$$$

  -OEChem-01062216103D

 36 37  0     1  0  0  0  0  0999 V2000
   -3.5106   -2.8759    0.1351 H   0  0  0  0  0  0  0  0  0  0  0  0
   -3.4577   -2.0397   -0.5676 C   0  0  0  0  0  0  0  0  0  0  0  0
   -4.4208   -1.5241   -0.5765 H   0  0  0  0  0  0  0  0  0  0  0  0
   -3.2512   -2.4331   -1.5660 H   0  0  0  0  0  0  0  0  0  0  0  0
   -2.3589   -1.0786   -0.1558 C   0  0  0  0  0  0  0  0  0  0  0  0
   -1.7011   -1.3124    0.8455 O   0  0  0  0  0  0  0  0  0  0  0  0
   -2.1451    0.0593   -0.9106 N   0  0  0  0  0  0  0  0  0  0  0  0
   -2.6644    0.0966   -1.7817 H   0  0  0  0  0  0  0  0  0  0  0  0
   -0.9420    0.9157   -0.8212 C   0  0  1  0  0  0  0  0  0  0  0  0
   -1.0278    1.6810   -1.5982 H   0  0  0  0  0  0  0  0  0  0  0  0
   -0.8533    1.6608    0.5308 C   0  0  0  0  0  0  0  0  0  0  0  0
   -0.8945    0.9588    1.3671 H   0  0  0  0  0  0  0  0  0  0  0  0
    0.0937    2.1996    0.6152 H   0  0  0  0  0  0  0  0  0  0  0  0
   -1.9661    2.6664    0.6461 C   0  0  0  0  0  0  0  0  0  0  0  0
   -3.1556    2.4614    1.2998 C   0  0  0  0  0  0  0  0  0  0  0  0
   -3.4319    1.5501    1.8271 H   0  0  0  0  0  0  0  0  0  0  0  0
   -3.9180    3.6190    1.1569 N   0  0  0  0  0  0  0  0  0  0  0  0
   -4.8456    3.7638    1.5501 H   0  0  0  0  0  0  0  0  0  0  0  0
   -3.2291    4.5614    0.4092 C   0  0  0  0  0  0  0  0  0  0  0  0
   -3.5694    5.8503   -0.0016 C   0  0  0  0  0  0  0  0  0  0  0  0
   -4.5294    6.2751    0.2705 H   0  0  0  0  0  0  0  0  0  0  0  0
   -2.6561    6.5861   -0.7698 C   0  0  0  0  0  0  0  0  0  0  0  0
   -2.9086    7.5906   -1.0964 H   0  0  0  0  0  0  0  0  0  0  0  0
   -1.4170    6.0266   -1.1175 C   0  0  0  0  0  0  0  0  0  0  0  0
   -0.7131    6.6001   -1.7131 H   0  0  0  0  0  0  0  0  0  0  0  0
   -1.0847    4.7302   -0.6982 C   0  0  0  0  0  0  0  0  0  0  0  0
   -0.1271    4.2959   -0.9649 H   0  0  0  0  0  0  0  0  0  0  0  0
   -2.0016    4.0035    0.0687 C   0  0  0  0  0  0  0  0  0  0  0  0
    0.3580    0.1381   -1.1576 C   0  0  0  0  0  0  0  0  0  0  0  0
    0.3114   -0.8410   -1.8951 O   0  0  0  0  0  0  0  0  0  0  0  0
    1.6061    0.6499   -0.8414 N   0  0  0  0  0  0  0  0  0  0  0  0
    1.6369    1.4347   -0.1986 H   0  0  0  0  0  0  0  0  0  0  0  0
    2.8535   -0.0292   -1.1723 C   0  0  0  0  0  0  0  0  0  0  0  0
    2.9321   -0.1846   -2.2536 H   0  0  0  0  0  0  0  0  0  0  0  0
    3.7086    0.5723   -0.8492 H   0  0  0  0  0  0  0  0  0  0  0  0
    2.9036   -1.0018   -0.6714 H   0  0  0  0  0  0  0  0  0  0  0  0
  1  2  1  0  0  0  0
  2  3  1  0  0  0  0
  2  4  1  0  0  0  0
  2  5  1  0  0  0  0
  5  6  2  0  0  0  0
  5  7  1  0  0  0  0
  7  8  1  0  0  0  0
  7  9  1  0  0  0  0
  9 10  1  0  0  0  0
  9 11  1  0  0  0  0
  9 29  1  0  0  0  0
 11 12  1  0  0  0  0
 11 13  1  0  0  0  0
 11 14  1  0  0  0  0
 14 15  2  0  0  0  0
 14 28  1  0  0  0  0
 15 16  1  0  0  0  0
 15 17  1  0  0  0  0
 17 18  1  0  0  0  0
 17 19  1  0  0  0  0
 19 20  1  0  0  0  0
 19 28  2  0  0  0  0
 20 21  1  0  0  0  0
 20 22  2  0  0  0  0
 22 23  1  0  0  0  0
 22 24  1  0  0  0  0
 24 25  1  0  0  0  0
 24 26  2  0  0  0  0
 26 27  1  0  0  0  0
 26 28  1  0  0  0  0
 29 30  2  0  0  0  0
 29 31  1  0  0  0  0
 31 32  1  0  0  0  0
 31 33  1  0  0  0  0
 33 34  1  0  0  0  0
 33 35  1  0  0  0  0
 33 36  1  0  0  0  0
M  END
$$$$

  -OEChem-01062216103D

 36 37  0     1  0  0  0  0  0999 V2000
   -3.4757   -2.8653    0.1385 H   0  0  0  0  0  0  0  0  0  0  0  0
   -3.4330   -2.0256   -0.5606 C   0  0  0  0  0  0  0  0  0  0  0  0
   -4.3956   -1.5092   -0.5516 H   0  0  0  0  0  0  0  0  0  0  0  0
   -3.2425   -2.4136   -1.5643 H   0  0  0  0  0  0  0  0  0  0  0  0
   -2.3264   -1.0687   -0.1612 C   0  0  0  0  0  0  0  0  0  0  0  0
   -1.6378   -1.3187    0.8154 O   0  0  0  0  0  0  0  0  0  0  0  0
   -2.1235    0.0760   -0.9073 N   0  0  0  0  0  0  0  0  0  0  0  0
   -2.6558    0.1305   -1.7698 H   0  0  0  0  0  0  0  0  0  0  0  0
   -0.9294    0.9414   -0.8073 C   0  0  1  0  0  0  0  0  0  0  0  0
   -1.0123    1.7092   -1.5825 H   0  0  0  0  0  0  0  0  0  0  0  0
   -0.8575    1.6845    0.5461 C   0  0  0  0  0  0  0  0  0  0  0  0
   -0.8995    0.9807    1.3813 H   0  0  0  0  0  0  0  0  0  0  0  0
    0.0838    2.2333    0.6344 H   0  0  0  0  0  0  0  0  0  0  0  0
   -1.9806    2.6800    0.6520 C   0  0  0  0  0  0  0  0  0  0  0  0
   -3.1758    2.4682    1.2937 C   0  0  0  0  0  0  0  0  0  0  0  0
   -3.4533    1.5561    1.8188 H   0  0  0  0  0  0  0  0  0  0  0  0
   -3.9443    3.6206    1.1411 N   0  0  0  0  0  0  0  0  0  0  0  0
   -4.8772    3.7601    1.5235 H   0  0  0  0  0  0  0  0  0  0  0  0
   -3.2535    4.5667    0.3999 C   0  0  0  0  0  0  0  0  0  0  0  0
   -3.5971    5.8532   -0.0160 C   0  0  0  0  0  0  0  0  0  0  0  0
   -4.5621    6.2728    0.2458 H   0  0  0  0  0  0  0  0  0  0  0  0
   -2.6802    6.5936   -0.7754 C   0  0  0  0  0  0  0  0  0  0  0  0
   -2.9351    7.5960   -1.1062 H   0  0  0  0  0  0  0  0  0  0  0  0
   -1.4340    6.0412   -1.1090 C   0  0  0  0  0  0  0  0  0  0  0  0
   -0.7270    6.6179   -1.6976 H   0  0  0  0  0  0  0  0  0  0  0  0
   -1.0982    4.7476   -0.6844 C   0  0  0  0  0  0  0  0  0  0  0  0
   -0.1350    4.3185   -0.9398 H   0  0  0  0  0  0  0  0  0  0  0  0
   -2.0191    4.0164    0.0733 C   0  0  0  0  0  0  0  0  0  0  0  0
    0.3659    0.1599   -1.1484 C   0  0  0  0  0  0  0  0  0  0  0  0
    0.3445   -0.6638   -2.0570 O   0  0  0  0  0  0  0  0  0  0  0  0
    1.5899    0.4790   -0.5838 N   0  0  0  0  0  0  0  0  0  0  0  0
    1.5747    1.0815    0.2330 H   0  0  0  0  0  0  0  0  0  0  0  0
    2.8139   -0.2561   -0.8799 C   0  0  0  0  0  0  0  0  0  0  0  0
    3.0272   -0.2321   -1.9539 H   0  0  0  0  0  0  0  0  0  0  0  0
    3.6613    0.1920   -0.3522 H   0  0  0  0  0  0  0  0  0  0  0  0
    2.7190   -1.3000   -0.5626 H   0  0  0  0  0  0  0  0  0  0  0  0
  1  2  1  0  0  0  0
  2  3  1  0  0  0  0
  2  4  1  0  0  0  0
  2  5  1  0  0  0  0
  5  6  2  0  0  0  0
  5  7  1  0  0  0  0
  7  8  1  0  0  0  0
  7  9  1  0  0  0  0
  9 10  1  0  0  0  0
  9 11  1  0  0  0  0
  9 29  1  0  0  0  0
 11 12  1  0  0  0  0
 11 13  1  0  0  0  0
 11 14  1  0  0  0  0
 14 15  2  0  0  0  0
 14 28  1  0  0  0  0
 15 16  1  0  0  0  0
 15 17  1  0  0  0  0
 17 18  1  0  0  0  0
 17 19  1  0  0  0  0
 19 20  1  0  0  0  0
 19 28  2  0  0  0  0
 20 21  1  0  0  0  0
 20 22  2  0  0  0  0
 22 23  1  0  0  0  0
 22 24  1  0  0  0  0
 24 25  1  0  0  0  0
 24 26  2  0  0  0  0
 26 27  1  0  0  0  0
 26 28  1  0  0  0  0
 29 30  2  0  0  0  0
 29 31  1  0  0  0  0
 31 32  1  0  0  0  0
 31 33  1  0  0  0  0
 33 34  1  0  0  0  0
 33 35  1  0  0  0  0
 33 36  1  0  0  0  0
M  END
$$$$

  -OEChem-01062216103D

 36 37  0     1  0  0  0  0  0999 V2000
   -3.4700   -2.8498    0.1562 H   0  0  0  0  0  0  0  0  0  0  0  0
   -3.4313   -2.0101   -0.5435 C   0  0  0  0  0  0  0  0  0  0  0  0
   -4.3867   -1.4810   -0.5134 H   0  0  0  0  0  0  0  0  0  0  0  0
   -3.2687   -2.4000   -1.5513 H   0  0  0  0  0  0  0  0  0  0  0  0
   -2.3037   -1.0680   -0.1672 C   0  0  0  0  0  0  0  0  0  0  0  0
   -1.5914   -1.3311    0.7888 O   0  0  0  0  0  0  0  0  0  0  0  0
   -2.1026    0.0779   -0.9114 N   0  0  0  0  0  0  0  0  0  0  0  0
   -2.6549    0.1546   -1.7597 H   0  0  0  0  0  0  0  0  0  0  0  0
   -0.9166    0.9515   -0.8031 C   0  0  1  0  0  0  0  0  0  0  0  0
   -0.9976    1.7180   -1.5799 H   0  0  0  0  0  0  0  0  0  0  0  0
   -0.8585    1.6964    0.5492 C   0  0  0  0  0  0  0  0  0  0  0  0
   -0.9032    0.9927    1.3845 H   0  0  0  0  0  0  0  0  0  0  0  0
    0.0814    2.2488    0.6401 H   0  0  0  0  0  0  0  0  0  0  0  0
   -1.9892    2.6846    0.6465 C   0  0  0  0  0  0  0  0  0  0  0  0
   -3.1878    2.4678    1.2800 C   0  0  0  0  0  0  0  0  0  0  0  0
   -3.4652    1.5549    1.8033 H   0  0  0  0  0  0  0  0  0  0  0  0
   -3.9609    3.6164    1.1216 N   0  0  0  0  0  0  0  0  0  0  0  0
   -4.8973    3.7516    1.4968 H   0  0  0  0  0  0  0  0  0  0  0  0
   -3.2680    4.5666    0.3879 C   0  0  0  0  0  0  0  0  0  0  0  0
   -3.6121    5.8532   -0.0269 C   0  0  0  0  0  0  0  0  0  0  0  0
   -4.5807    6.2688    0.2284 H   0  0  0  0  0  0  0  0  0  0  0  0
   -2.6908    6.5992   -0.7760 C   0  0  0  0  0  0  0  0  0  0  0  0
   -2.9453    7.6023   -1.1053 H   0  0  0  0  0  0  0  0  0  0  0  0
   -1.4399    6.0519   -1.1005 C   0  0  0  0  0  0  0  0  0  0  0  0
   -0.7285    6.6324   -1.6800 H   0  0  0  0  0  0  0  0  0  0  0  0
   -1.1039    4.7579   -0.6774 C   0  0  0  0  0  0  0  0  0  0  0  0
   -0.1370    4.3325   -0.9252 H   0  0  0  0  0  0  0  0  0  0  0  0
   -2.0291    4.0216    0.0700 C   0  0  0  0  0  0  0  0  0  0  0  0
    0.3809    0.1734   -1.1351 C   0  0  0  0  0  0  0  0  0  0  0  0
    0.4276   -0.4794   -2.1720 O   0  0  0  0  0  0  0  0  0  0  0  0
    1.5261    0.2768   -0.3635 N   0  0  0  0  0  0  0  0  0  0  0  0
    1.4108    0.6809    0.5611 H   0  0  0  0  0  0  0  0  0  0  0  0
    2.7261   -0.5077   -0.6281 C   0  0  0  0  0  0  0  0  0  0  0  0
    3.0885   -0.3262   -1.6454 H   0  0  0  0  0  0  0  0  0  0  0  0
    3.5200   -0.2319    0.0723 H   0  0  0  0  0  0  0  0  0  0  0  0
    2.5163   -1.5764   -0.5137 H   0  0  0  0  0  0  0  0  0  0  0  0
  1  2  1  0  0  0  0
  2  3  1  0  0  0  0
  2  4  1  0  0  0  0
  2  5  1  0  0  0  0
  5  6  2  0  0  0  0
  5  7  1  0  0  0  0
  7  8  1  0  0  0  0
  7  9  1  0  0  0  0
  9 10  1  0  0  0  0
  9 11  1  0  0  0  0
  9 29  1  0  0  0  0
 11 12  1  0  0  0  0
 11 13  1  0  0  0  0
 11 14  1  0  0  0  0
 14 15  2  0  0  0  0
 14 28  1  0  0  0  0
 15 16  1  0  0  0  0
 15 17  1  0  0  0  0
 17 18  1  0  0  0  0
 17 19  1  0  0  0  0
 19 20  1  0  0  0  0
 19 28  2  0  0  0  0
 20 21  1  0  0  0  0
 20 22  2  0  0  0  0
 22 23  1  0  0  0  0
 22 24  1  0  0  0  0
 24 25  1  0  0  0  0
 24 26  2  0  0  0  0
 26 27  1  0  0  0  0
 26 28  1  0  0  0  0
 29 30  2  0  0  0  0
 29 31  1  0  0  0  0
 31 32  1  0  0  0  0
 31 33  1  0  0  0  0
 33 34  1  0  0  0  0
 33 35  1  0  0  0  0
 33 36  1  0  0  0  0
M  END
$$$$

  -OEChem-01062216103D

 36 37  0     1  0  0  0  0  0999 V2000
   -3.4838   -2.8334    0.1663 H   0  0  0  0  0  0  0  0  0  0  0  0
   -3.4436   -1.9938   -0.5331 C   0  0  0  0  0  0  0  0  0  0  0  0
   -4.3903   -1.4506   -0.4866 H   0  0  0  0  0  0  0  0  0  0  0  0
   -3.3033   -2.3843   -1.5440 H   0  0  0  0  0  0  0  0  0  0  0  0
   -2.2955   -1.0699   -0.1745 C   0  0  0  0  0  0  0  0  0  0  0  0
   -1.5659   -1.3477    0.7647 O   0  0  0  0  0  0  0  0  0  0  0  0
   -2.0899    0.0763   -0.9164 N   0  0  0  0  0  0  0  0  0  0  0  0
   -2.6687    0.1846   -1.7437 H   0  0  0  0  0  0  0  0  0  0  0  0
   -0.9090    0.9541   -0.7985 C   0  0  1  0  0  0  0  0  0  0  0  0
   -0.9873    1.7215   -1.5749 H   0  0  0  0  0  0  0  0  0  0  0  0
   -0.8590    1.6961    0.5544 C   0  0  0  0  0  0  0  0  0  0  0  0
   -0.9089    0.9904    1.3880 H   0  0  0  0  0  0  0  0  0  0  0  0
    0.0833    2.2444    0.6488 H   0  0  0  0  0  0  0  0  0  0  0  0
   -1.9919    2.6812    0.6511 C   0  0  0  0  0  0  0  0  0  0  0  0
   -3.1934    2.4642    1.2793 C   0  0  0  0  0  0  0  0  0  0  0  0
   -3.4731    1.5520    1.8025 H   0  0  0  0  0  0  0  0  0  0  0  0
   -3.9652    3.6130    1.1169 N   0  0  0  0  0  0  0  0  0  0  0  0
   -4.9016    3.7503    1.4912 H   0  0  0  0  0  0  0  0  0  0  0  0
   -3.2701    4.5623    0.3832 C   0  0  0  0  0  0  0  0  0  0  0  0
   -3.6123    5.8476   -0.0379 C   0  0  0  0  0  0  0  0  0  0  0  0
   -4.5817    6.2647    0.2110 H   0  0  0  0  0  0  0  0  0  0  0  0
   -2.6880    6.5902   -0.7866 C   0  0  0  0  0  0  0  0  0  0  0  0
   -2.9418    7.5913   -1.1225 H   0  0  0  0  0  0  0  0  0  0  0  0
   -1.4353    6.0420   -1.1034 C   0  0  0  0  0  0  0  0  0  0  0  0
   -0.7222    6.6203   -1.6832 H   0  0  0  0  0  0  0  0  0  0  0  0
   -1.1008    4.7500   -0.6735 C   0  0  0  0  0  0  0  0  0  0  0  0
   -0.1329    4.3234   -0.9156 H   0  0  0  0  0  0  0  0  0  0  0  0
   -2.0297    4.0166    0.0720 C   0  0  0  0  0  0  0  0  0  0  0  0
    0.3940    0.1841   -1.1175 C   0  0  0  0  0  0  0  0  0  0  0  0
    0.5466   -0.2727   -2.2445 O   0  0  0  0  0  0  0  0  0  0  0  0
    1.4156    0.0499   -0.1931 N   0  0  0  0  0  0  0  0  0  0  0  0
    1.1624    0.2393    0.7727 H   0  0  0  0  0  0  0  0  0  0  0  0
    2.5967   -0.7666   -0.4433 C   0  0  0  0  0  0  0  0  0  0  0  0
    3.1142   -0.4288   -1.3472 H   0  0  0  0  0  0  0  0  0  0  0  0
    3.2922   -0.6912    0.3980 H   0  0  0  0  0  0  0  0  0  0  0  0
    2.3150   -1.8170   -0.5702 H   0  0  0  0  0  0  0  0  0  0  0  0
  1  2  1  0  0  0  0
  2  3  1  0  0  0  0
  2  4  1  0  0  0  0
  2  5  1  0  0  0  0
  5  6  2  0  0  0  0
  5  7  1  0  0  0  0
  7  8  1  0  0  0  0
  7  9  1  0  0  0  0
  9 10  1  0  0  0  0
  9 11  1  0  0  0  0
  9 29  1  0  0  0  0
 11 12  1  0  0  0  0
 11 13  1  0  0  0  0
 11 14  1  0  0  0  0
 14 15  2  0  0  0  0
 14 28  1  0  0  0  0
 15 16  1  0  0  0  0
 15 17  1  0  0  0  0
 17 18  1  0  0  0  0
 17 19  1  0  0  0  0
 19 20  1  0  0  0  0
 19 28  2  0  0  0  0
 20 21  1  0  0  0  0
 20 22  2  0  0  0  0
 22 23  1  0  0  0  0
 22 24  1  0  0  0  0
 24 25  1  0  0  0  0
 24 26  2  0  0  0  0
 26 27  1  0  0  0  0
 26 28  1  0  0  0  0
 29 30  2  0  0  0  0
 29 31  1  0  0  0  0
 31 32  1  0  0  0  0
 31 33  1  0  0  0  0
 33 34  1  0  0  0  0
 33 35  1  0  0  0  0
 33 36  1  0  0  0  0
M  END
$$$$

  -OEChem-01062216103D

 36 37  0     1  0  0  0  0  0999 V2000
   -3.5252   -2.8085    0.1928 H   0  0  0  0  0  0  0  0  0  0  0  0
   -3.4778   -1.9720   -0.5103 C   0  0  0  0  0  0  0  0  0  0  0  0
   -4.4075   -1.4020   -0.4429 H   0  0  0  0  0  0  0  0  0  0  0  0
   -3.3733   -2.3690   -1.5231 H   0  0  0  0  0  0  0  0  0  0  0  0
   -2.2964   -1.0797   -0.1814 C   0  0  0  0  0  0  0  0  0  0  0  0
   -1.5498   -1.3767    0.7388 O   0  0  0  0  0  0  0  0  0  0  0  0
   -2.0796    0.0637   -0.9242 N   0  0  0  0  0  0  0  0  0  0  0  0
   -2.6952    0.2154   -1.7176 H   0  0  0  0  0  0  0  0  0  0  0  0
   -0.9011    0.9428   -0.7980 C   0  0  1  0  0  0  0  0  0  0  0  0
   -0.9750    1.7097   -1.5758 H   0  0  0  0  0  0  0  0  0  0  0  0
   -0.8584    1.6847    0.5541 C   0  0  0  0  0  0  0  0  0  0  0  0
   -0.9155    0.9787    1.3867 H   0  0  0  0  0  0  0  0  0  0  0  0
    0.0869    2.2275    0.6533 H   0  0  0  0  0  0  0  0  0  0  0  0
   -1.9920    2.6703    0.6468 C   0  0  0  0  0  0  0  0  0  0  0  0
   -3.1968    2.4548    1.2697 C   0  0  0  0  0  0  0  0  0  0  0  0
   -3.4798    1.5435    1.7927 H   0  0  0  0  0  0  0  0  0  0  0  0
   -3.9665    3.6047    1.1050 N   0  0  0  0  0  0  0  0  0  0  0  0
   -4.9032    3.7444    1.4775 H   0  0  0  0  0  0  0  0  0  0  0  0
   -3.2670    4.5535    0.3754 C   0  0  0  0  0  0  0  0  0  0  0  0
   -3.6053    5.8402   -0.0444 C   0  0  0  0  0  0  0  0  0  0  0  0
   -4.5746    6.2590    0.2025 H   0  0  0  0  0  0  0  0  0  0  0  0
   -2.6770    6.5822   -0.7889 C   0  0  0  0  0  0  0  0  0  0  0  0
   -2.9267    7.5848   -1.1230 H   0  0  0  0  0  0  0  0  0  0  0  0
   -1.4253    6.0309   -1.1039 C   0  0  0  0  0  0  0  0  0  0  0  0
   -0.7088    6.6075   -1.6811 H   0  0  0  0  0  0  0  0  0  0  0  0
   -1.0949    4.7375   -0.6751 C   0  0  0  0  0  0  0  0  0  0  0  0
   -0.1273    4.3085   -0.9153 H   0  0  0  0  0  0  0  0  0  0  0  0
   -2.0269    4.0057    0.0677 C   0  0  0  0  0  0  0  0  0  0  0  0
    0.4086    0.1796   -1.0982 C   0  0  0  0  0  0  0  0  0  0  0  0
    0.7064   -0.0495   -2.2642 O   0  0  0  0  0  0  0  0  0  0  0  0
    1.2718   -0.2045   -0.0878 N   0  0  0  0  0  0  0  0  0  0  0  0
    0.8489   -0.2534    0.8369 H   0  0  0  0  0  0  0  0  0  0  0  0
    2.4503   -1.0242   -0.3392 C   0  0  0  0  0  0  0  0  0  0  0  0
    3.1051   -0.5423   -1.0729 H   0  0  0  0  0  0  0  0  0  0  0  0
    3.0171   -1.1632    0.5864 H   0  0  0  0  0  0  0  0  0  0  0  0
    2.1577   -2.0081   -0.7206 H   0  0  0  0  0  0  0  0  0  0  0  0
  1  2  1  0  0  0  0
  2  3  1  0  0  0  0
  2  4  1  0  0  0  0
  2  5  1  0  0  0  0
  5  6  2  0  0  0  0
  5  7  1  0  0  0  0
  7  8  1  0  0  0  0
  7  9  1  0  0  0  0
  9 10  1  0  0  0  0
  9 11  1  0  0  0  0
  9 29  1  0  0  0  0
 11 12  1  0  0  0  0
 11 13  1  0  0  0  0
 11 14  1  0  0  0  0
 14 15  2  0  0  0  0
 14 28  1  0  0  0  0
 15 16  1  0  0  0  0
 15 17  1  0  0  0  0
 17 18  1  0  0  0  0
 17 19  1  0  0  0  0
 19 20  1  0  0  0  0
 19 28  2  0  0  0  0
 20 21  1  0  0  0  0
 20 22  2  0  0  0  0
 22 23  1  0  0  0  0
 22 24  1  0  0  0  0
 24 25  1  0  0  0  0
 24 26  2  0  0  0  0
 26 27  1  0  0  0  0
 26 28  1  0  0  0  0
 29 30  2  0  0  0  0
 29 31  1  0  0  0  0
 31 32  1  0  0  0  0
 31 33  1  0  0  0  0
 33 34  1  0  0  0  0
 33 35  1  0  0  0  0
 33 36  1  0  0  0  0
M  END
$$$$

  -OEChem-01062216103D

 36 37  0     1  0  0  0  0  0999 V2000
   -3.5996   -2.7782    0.2080 H   0  0  0  0  0  0  0  0  0  0  0  0
   -3.5348   -1.9439   -0.4962 C   0  0  0  0  0  0  0  0  0  0  0  0
   -4.4441   -1.3436   -0.4149 H   0  0  0  0  0  0  0  0  0  0  0  0
   -3.4598   -2.3448   -1.5100 H   0  0  0  0  0  0  0  0  0  0  0  0
   -2.3192   -1.0910   -0.1871 C   0  0  0  0  0  0  0  0  0  0  0  0
   -1.5664   -1.4144    0.7195 O   0  0  0  0  0  0  0  0  0  0  0  0
   -2.0817    0.0488   -0.9299 N   0  0  0  0  0  0  0  0  0  0  0  0
   -2.7329    0.2470   -1.6838 H   0  0  0  0  0  0  0  0  0  0  0  0
   -0.9000    0.9248   -0.8019 C   0  0  1  0  0  0  0  0  0  0  0  0
   -0.9732    1.6922   -1.5794 H   0  0  0  0  0  0  0  0  0  0  0  0
   -0.8551    1.6622    0.5515 C   0  0  0  0  0  0  0  0  0  0  0  0
   -0.9155    0.9524    1.3808 H   0  0  0  0  0  0  0  0  0  0  0  0
    0.0940    2.1983    0.6534 H   0  0  0  0  0  0  0  0  0  0  0  0
   -1.9857    2.6511    0.6483 C   0  0  0  0  0  0  0  0  0  0  0  0
   -3.1913    2.4392    1.2711 C   0  0  0  0  0  0  0  0  0  0  0  0
   -3.4762    1.5298    1.7961 H   0  0  0  0  0  0  0  0  0  0  0  0
   -3.9582    3.5911    1.1057 N   0  0  0  0  0  0  0  0  0  0  0  0
   -4.8926    3.7361    1.4823 H   0  0  0  0  0  0  0  0  0  0  0  0
   -3.2566    4.5366    0.3738 C   0  0  0  0  0  0  0  0  0  0  0  0
   -3.5918    5.8233   -0.0483 C   0  0  0  0  0  0  0  0  0  0  0  0
   -4.5596    6.2458    0.1981 H   0  0  0  0  0  0  0  0  0  0  0  0
   -2.6623    6.5615   -0.7949 C   0  0  0  0  0  0  0  0  0  0  0  0
   -2.9097    7.5640   -1.1309 H   0  0  0  0  0  0  0  0  0  0  0  0
   -1.4122    6.0067   -1.1096 C   0  0  0  0  0  0  0  0  0  0  0  0
   -0.6946    6.5806   -1.6882 H   0  0  0  0  0  0  0  0  0  0  0  0
   -1.0848    4.7132   -0.6788 C   0  0  0  0  0  0  0  0  0  0  0  0
   -0.1186    4.2807   -0.9187 H   0  0  0  0  0  0  0  0  0  0  0  0
   -2.0181    3.9852    0.0664 C   0  0  0  0  0  0  0  0  0  0  0  0
    0.4193    0.1730   -1.0851 C   0  0  0  0  0  0  0  0  0  0  0  0
    0.8806    0.1800   -2.2196 O   0  0  0  0  0  0  0  0  0  0  0  0
    1.1119   -0.4589   -0.0691 N   0  0  0  0  0  0  0  0  0  0  0  0
    0.5371   -0.6952    0.7413 H   0  0  0  0  0  0  0  0  0  0  0  0
    2.2983   -1.2669   -0.3182 C   0  0  0  0  0  0  0  0  0  0  0  0
    3.0672   -0.6756   -0.8262 H   0  0  0  0  0  0  0  0  0  0  0  0
    2.7133   -1.6276    0.6278 H   0  0  0  0  0  0  0  0  0  0  0  0
    2.0489   -2.1310   -0.9425 H   0  0  0  0  0  0  0  0  0  0  0  0
  1  2  1  0  0  0  0
  2  3  1  0  0  0  0
  2  4  1  0  0  0  0
  2  5  1  0  0  0  0
  5  6  2  0  0  0  0
  5  7  1  0  0  0  0
  7  8  1  0  0  0  0
  7  9  1  0  0  0  0
  9 10  1  0  0  0  0
  9 11  1  0  0  0  0
  9 29  1  0  0  0  0
 11 12  1  0  0  0  0
 11 13  1  0  0  0  0
 11 14  1  0  0  0  0
 14 15  2  0  0  0  0
 14 28  1  0  0  0  0
 15 16  1  0  0  0  0
 15 17  1  0  0  0  0
 17 18  1  0  0  0  0
 17 19  1  0  0  0  0
 19 20  1  0  0  0  0
 19 28  2  0  0  0  0
 20 21  1  0  0  0  0
 20 22  2  0  0  0  0
 22 23  1  0  0  0  0
 22 24  1  0  0  0  0
 24 25  1  0  0  0  0
 24 26  2  0  0  0  0
 26 27  1  0  0  0  0
 26 28  1  0  0  0  0
 29 30  2  0  0  0  0
 29 31  1  0  0  0  0
 31 32  1  0  0  0  0
 31 33  1  0  0  0  0
 33 34  1  0  0  0  0
 33 35  1  0  0  0  0
 33 36  1  0  0  0  0
M  END
$$$$

  -OEChem-01062216103D

 36 37  0     1  0  0  0  0  0999 V2000
   -3.7088   -2.7437    0.2135 H   0  0  0  0  0  0  0  0  0  0  0  0
   -3.6146   -1.9135   -0.4922 C   0  0  0  0  0  0  0  0  0  0  0  0
   -4.5020   -1.2812   -0.4122 H   0  0  0  0  0  0  0  0  0  0  0  0
   -3.5548   -2.3188   -1.5052 H   0  0  0  0  0  0  0  0  0  0  0  0
   -2.3694   -1.1036   -0.1847 C   0  0  0  0  0  0  0  0  0  0  0  0
   -1.6318   -1.4530    0.7239 O   0  0  0  0  0  0  0  0  0  0  0  0
   -2.0970    0.0278   -0.9285 N   0  0  0  0  0  0  0  0  0  0  0  0
   -2.7656    0.2581   -1.6581 H   0  0  0  0  0  0  0  0  0  0  0  0
   -0.9063    0.8967   -0.8097 C   0  0  1  0  0  0  0  0  0  0  0  0
   -0.9821    1.6622   -1.5890 H   0  0  0  0  0  0  0  0  0  0  0  0
   -0.8547    1.6323    0.5432 C   0  0  0  0  0  0  0  0  0  0  0  0
   -0.9152    0.9201    1.3709 H   0  0  0  0  0  0  0  0  0  0  0  0
    0.0974    2.1636    0.6433 H   0  0  0  0  0  0  0  0  0  0  0  0
   -1.9798    2.6271    0.6440 C   0  0  0  0  0  0  0  0  0  0  0  0
   -3.1844    2.4200    1.2700 C   0  0  0  0  0  0  0  0  0  0  0  0
   -3.4704    1.5124    1.7973 H   0  0  0  0  0  0  0  0  0  0  0  0
   -3.9482    3.5740    1.1059 N   0  0  0  0  0  0  0  0  0  0  0  0
   -4.8802    3.7230    1.4866 H   0  0  0  0  0  0  0  0  0  0  0  0
   -3.2450    4.5175    0.3731 C   0  0  0  0  0  0  0  0  0  0  0  0
   -3.5764    5.8062   -0.0464 C   0  0  0  0  0  0  0  0  0  0  0  0
   -4.5420    6.2318    0.2030 H   0  0  0  0  0  0  0  0  0  0  0  0
   -2.6453    6.5418   -0.7934 C   0  0  0  0  0  0  0  0  0  0  0  0
   -2.8891    7.5464   -1.1262 H   0  0  0  0  0  0  0  0  0  0  0  0
   -1.3983    5.9820   -1.1122 C   0  0  0  0  0  0  0  0  0  0  0  0
   -0.6794    6.5540   -1.6913 H   0  0  0  0  0  0  0  0  0  0  0  0
   -1.0751    4.6862   -0.6844 C   0  0  0  0  0  0  0  0  0  0  0  0
   -0.1117    4.2493   -0.9277 H   0  0  0  0  0  0  0  0  0  0  0  0
   -2.0092    3.9616    0.0625 C   0  0  0  0  0  0  0  0  0  0  0  0
    0.4271    0.1623   -1.0748 C   0  0  0  0  0  0  0  0  0  0  0  0
    1.0302    0.3739   -2.1193 O   0  0  0  0  0  0  0  0  0  0  0  0
    0.9701   -0.6980   -0.1399 N   0  0  0  0  0  0  0  0  0  0  0  0
    0.3121   -1.0226    0.5736 H   0  0  0  0  0  0  0  0  0  0  0  0
    2.1642   -1.4931   -0.3917 C   0  0  0  0  0  0  0  0  0  0  0  0
    3.0041   -0.8474   -0.6682 H   0  0  0  0  0  0  0  0  0  0  0  0
    2.4416   -2.0497    0.5084 H   0  0  0  0  0  0  0  0  0  0  0  0
    1.9853   -2.2065   -1.2026 H   0  0  0  0  0  0  0  0  0  0  0  0
  1  2  1  0  0  0  0
  2  3  1  0  0  0  0
  2  4  1  0  0  0  0
  2  5  1  0  0  0  0
  5  6  2  0  0  0  0
  5  7  1  0  0  0  0
  7  8  1  0  0  0  0
  7  9  1  0  0  0  0
  9 10  1  0  0  0  0
  9 11  1  0  0  0  0
  9 29  1  0  0  0  0
 11 12  1  0  0  0  0
 11 13  1  0  0  0  0
 11 14  1  0  0  0  0
 14 15  2  0  0  0  0
 14 28  1  0  0  0  0
 15 16  1  0  0  0  0
 15 17  1  0  0  0  0
 17 18  1  0  0  0  0
 17 19  1  0  0  0  0
 19 20  1  0  0  0  0
 19 28  2  0  0  0  0
 20 21  1  0  0  0  0
 20 22  2  0  0  0  0
 22 23  1  0  0  0  0
 22 24  1  0  0  0  0
 24 25  1  0  0  0  0
 24 26  2  0  0  0  0
 26 27  1  0  0  0  0
 26 28  1  0  0  0  0
 29 30  2  0  0  0  0
 29 31  1  0  0  0  0
 31 32  1  0  0  0  0
 31 33  1  0  0  0  0
 33 34  1  0  0  0  0
 33 35  1  0  0  0  0
 33 36  1  0  0  0  0
M  END
$$$$

  -OEChem-01062216103D

 36 37  0     1  0  0  0  0  0999 V2000
   -3.8354   -2.6918    0.2207 H   0  0  0  0  0  0  0  0  0  0  0  0
   -3.7122   -1.8636   -0.4831 C   0  0  0  0  0  0  0  0  0  0  0  0
   -4.5695   -1.1926   -0.3896 H   0  0  0  0  0  0  0  0  0  0  0  0
   -3.6823   -2.2670   -1.4982 H   0  0  0  0  0  0  0  0  0  0  0  0
   -2.4289   -1.1108   -0.1874 C   0  0  0  0  0  0  0  0  0  0  0  0
   -1.7063   -1.4911    0.7201 O   0  0  0  0  0  0  0  0  0  0  0  0
   -2.1209    0.0124   -0.9298 N   0  0  0  0  0  0  0  0  0  0  0  0
   -2.8016    0.2746   -1.6370 H   0  0  0  0  0  0  0  0  0  0  0  0
   -0.9171    0.8682   -0.8207 C   0  0  1  0  0  0  0  0  0  0  0  0
   -0.9931    1.6354   -1.5985 H   0  0  0  0  0  0  0  0  0  0  0  0
   -0.8577    1.5947    0.5360 C   0  0  0  0  0  0  0  0  0  0  0  0
   -0.9203    0.8765    1.3584 H   0  0  0  0  0  0  0  0  0  0  0  0
    0.0980    2.1193    0.6380 H   0  0  0  0  0  0  0  0  0  0  0  0
   -1.9753    2.5974    0.6445 C   0  0  0  0  0  0  0  0  0  0  0  0
   -3.1803    2.3948    1.2713 C   0  0  0  0  0  0  0  0  0  0  0  0
   -3.4698    1.4874    1.7972 H   0  0  0  0  0  0  0  0  0  0  0  0
   -3.9387    3.5528    1.1093 N   0  0  0  0  0  0  0  0  0  0  0  0
   -4.8686    3.7070    1.4935 H   0  0  0  0  0  0  0  0  0  0  0  0
   -3.2329    4.4929    0.3741 C   0  0  0  0  0  0  0  0  0  0  0  0
   -3.5599    5.7817   -0.0486 C   0  0  0  0  0  0  0  0  0  0  0  0
   -4.5232    6.2121    0.2016 H   0  0  0  0  0  0  0  0  0  0  0  0
   -2.6278    6.5108   -0.8011 C   0  0  0  0  0  0  0  0  0  0  0  0
   -2.8684    7.5147   -1.1382 H   0  0  0  0  0  0  0  0  0  0  0  0
   -1.3832    5.9453   -1.1200 C   0  0  0  0  0  0  0  0  0  0  0  0
   -0.6632    6.5121   -1.7027 H   0  0  0  0  0  0  0  0  0  0  0  0
   -1.0637    4.6503   -0.6877 C   0  0  0  0  0  0  0  0  0  0  0  0
   -0.1019    4.2095   -0.9312 H   0  0  0  0  0  0  0  0  0  0  0  0
   -1.9998    3.9315    0.0624 C   0  0  0  0  0  0  0  0  0  0  0  0
    0.4273    0.1476   -1.0748 C   0  0  0  0  0  0  0  0  0  0  0  0
    1.1529    0.5431   -1.9783 O   0  0  0  0  0  0  0  0  0  0  0  0
    0.8443   -0.9171   -0.3004 N   0  0  0  0  0  0  0  0  0  0  0  0
    0.1512   -1.2909    0.3539 H   0  0  0  0  0  0  0  0  0  0  0  0
    2.0588   -1.6788   -0.5557 C   0  0  0  0  0  0  0  0  0  0  0  0
    2.9348   -1.0221   -0.5345 H   0  0  0  0  0  0  0  0  0  0  0  0
    2.1873   -2.4493    0.2103 H   0  0  0  0  0  0  0  0  0  0  0  0
    2.0056   -2.1669   -1.5343 H   0  0  0  0  0  0  0  0  0  0  0  0
  1  2  1  0  0  0  0
  2  3  1  0  0  0  0
  2  4  1  0  0  0  0
  2  5  1  0  0  0  0
  5  6  2  0  0  0  0
  5  7  1  0  0  0  0
  7  8  1  0  0  0  0
  7  9  1  0  0  0  0
  9 10  1  0  0  0  0
  9 11  1  0  0  0  0
  9 29  1  0  0  0  0
 11 12  1  0  0  0  0
 11 13  1  0  0  0  0
 11 14  1  0  0  0  0
 14 15  2  0  0  0  0
 14 28  1  0  0  0  0
 15 16  1  0  0  0  0
 15 17  1  0  0  0  0
 17 18  1  0  0  0  0
 17 19  1  0  0  0  0
 19 20  1  0  0  0  0
 19 28  2  0  0  0  0
 20 21  1  0  0  0  0
 20 22  2  0  0  0  0
 22 23  1  0  0  0  0
 22 24  1  0  0  0  0
 24 25  1  0  0  0  0
 24 26  2  0  0  0  0
 26 27  1  0  0  0  0
 26 28  1  0  0  0  0
 29 30  2  0  0  0  0
 29 31  1  0  0  0  0
 31 32  1  0  0  0  0
 31 33  1  0  0  0  0
 33 34  1  0  0  0  0
 33 35  1  0  0  0  0
 33 36  1  0  0  0  0
M  END
$$$$

  -OEChem-01062216103D

 36 37  0     1  0  0  0  0  0999 V2000
   -3.9382   -2.6621    0.2449 H   0  0  0  0  0  0  0  0  0  0  0  0
   -3.8038   -1.8401   -0.4638 C   0  0  0  0  0  0  0  0  0  0  0  0
   -4.6382   -1.1430   -0.3555 H   0  0  0  0  0  0  0  0  0  0  0  0
   -3.8062   -2.2464   -1.4783 H   0  0  0  0  0  0  0  0  0  0  0  0
   -2.4924   -1.1264   -0.1959 C   0  0  0  0  0  0  0  0  0  0  0  0
   -1.7562   -1.5375    0.6862 O   0  0  0  0  0  0  0  0  0  0  0  0
   -2.1725   -0.0071   -0.9389 N   0  0  0  0  0  0  0  0  0  0  0  0
   -2.8752    0.2874   -1.6109 H   0  0  0  0  0  0  0  0  0  0  0  0
   -0.9547    0.8334   -0.8504 C   0  0  1  0  0  0  0  0  0  0  0  0
   -1.0394    1.6031   -1.6247 H   0  0  0  0  0  0  0  0  0  0  0  0
   -0.8690    1.5522    0.5081 C   0  0  0  0  0  0  0  0  0  0  0  0
   -0.9282    0.8293    1.3267 H   0  0  0  0  0  0  0  0  0  0  0  0
    0.0935    2.0663    0.6010 H   0  0  0  0  0  0  0  0  0  0  0  0
   -1.9744    2.5658    0.6344 C   0  0  0  0  0  0  0  0  0  0  0  0
   -3.1743    2.3767    1.2745 C   0  0  0  0  0  0  0  0  0  0  0  0
   -3.4677    1.4725    1.8037 H   0  0  0  0  0  0  0  0  0  0  0  0
   -3.9218    3.5428    1.1189 N   0  0  0  0  0  0  0  0  0  0  0  0
   -4.8459    3.7072    1.5125 H   0  0  0  0  0  0  0  0  0  0  0  0
   -3.2118    4.4757    0.3783 C   0  0  0  0  0  0  0  0  0  0  0  0
   -3.5257    5.7689   -0.0402 C   0  0  0  0  0  0  0  0  0  0  0  0
   -4.4819    6.2104    0.2177 H   0  0  0  0  0  0  0  0  0  0  0  0
   -2.5894    6.4888   -0.7969 C   0  0  0  0  0  0  0  0  0  0  0  0
   -2.8195    7.4971   -1.1281 H   0  0  0  0  0  0  0  0  0  0  0  0
   -1.3541    5.9095   -1.1260 C   0  0  0  0  0  0  0  0  0  0  0  0
   -0.6300    6.4690   -1.7107 H   0  0  0  0  0  0  0  0  0  0  0  0
   -1.0483    4.6092   -0.6998 C   0  0  0  0  0  0  0  0  0  0  0  0
   -0.0936    4.1565   -0.9503 H   0  0  0  0  0  0  0  0  0  0  0  0
   -1.9882    3.9008    0.0556 C   0  0  0  0  0  0  0  0  0  0  0  0
    0.3919    0.1211   -1.1219 C   0  0  0  0  0  0  0  0  0  0  0  0
    1.2194    0.6776   -1.8325 O   0  0  0  0  0  0  0  0  0  0  0  0
    0.7056   -1.1090   -0.5784 N   0  0  0  0  0  0  0  0  0  0  0  0
    0.0094   -1.5180    0.0504 H   0  0  0  0  0  0  0  0  0  0  0  0
    1.9801   -1.7869   -0.7693 C   0  0  0  0  0  0  0  0  0  0  0  0
    2.8037   -1.1650   -0.4038 H   0  0  0  0  0  0  0  0  0  0  0  0
    1.9890   -2.7322   -0.2185 H   0  0  0  0  0  0  0  0  0  0  0  0
    2.1437   -2.0025   -1.8302 H   0  0  0  0  0  0  0  0  0  0  0  0
  1  2  1  0  0  0  0
  2  3  1  0  0  0  0
  2  4  1  0  0  0  0
  2  5  1  0  0  0  0
  5  6  2  0  0  0  0
  5  7  1  0  0  0  0
  7  8  1  0  0  0  0
  7  9  1  0  0  0  0
  9 10  1  0  0  0  0
  9 11  1  0  0  0  0
  9 29  1  0  0  0  0
 11 12  1  0  0  0  0
 11 13  1  0  0  0  0
 11 14  1  0  0  0  0
 14 15  2  0  0  0  0
 14 28  1  0  0  0  0
 15 16  1  0  0  0  0
 15 17  1  0  0  0  0
 17 18  1  0  0  0  0
 17 19  1  0  0  0  0
 19 20  1  0  0  0  0
 19 28  2  0  0  0  0
 20 21  1  0  0  0  0
 20 22  2  0  0  0  0
 22 23  1  0  0  0  0
 22 24  1  0  0  0  0
 24 25  1  0  0  0  0
 24 26  2  0  0  0  0
 26 27  1  0  0  0  0
 26 28  1  0  0  0  0
 29 30  2  0  0  0  0
 29 31  1  0  0  0  0
 31 32  1  0  0  0  0
 31 33  1  0  0  0  0
 33 34  1  0  0  0  0
 33 35  1  0  0  0  0
 33 36  1  0  0  0  0
M  END
$$$$

  -OEChem-01062216103D

 36 37  0     1  0  0  0  0  0999 V2000
   -3.9889   -2.6211    0.2927 H   0  0  0  0  0  0  0  0  0  0  0  0
   -3.8593   -1.8006   -0.4189 C   0  0  0  0  0  0  0  0  0  0  0  0
   -4.6627   -1.0754   -0.2683 H   0  0  0  0  0  0  0  0  0  0  0  0
   -3.9246   -2.2015   -1.4334 H   0  0  0  0  0  0  0  0  0  0  0  0
   -2.5123   -1.1347   -0.2115 C   0  0  0  0  0  0  0  0  0  0  0  0
   -1.7410   -1.5875    0.6181 O   0  0  0  0  0  0  0  0  0  0  0  0
   -2.1926   -0.0164   -0.9558 N   0  0  0  0  0  0  0  0  0  0  0  0
   -2.9251    0.3195   -1.5745 H   0  0  0  0  0  0  0  0  0  0  0  0
   -0.9669    0.8148   -0.8796 C   0  0  1  0  0  0  0  0  0  0  0  0
   -1.0550    1.5872   -1.6507 H   0  0  0  0  0  0  0  0  0  0  0  0
   -0.8732    1.5241    0.4840 C   0  0  0  0  0  0  0  0  0  0  0  0
   -0.9318    0.7945    1.2970 H   0  0  0  0  0  0  0  0  0  0  0  0
    0.0908    2.0353    0.5781 H   0  0  0  0  0  0  0  0  0  0  0  0
   -1.9751    2.5409    0.6201 C   0  0  0  0  0  0  0  0  0  0  0  0
   -3.1751    2.3553    1.2620 C   0  0  0  0  0  0  0  0  0  0  0  0
   -3.4730    1.4516    1.7895 H   0  0  0  0  0  0  0  0  0  0  0  0
   -3.9179    3.5250    1.1111 N   0  0  0  0  0  0  0  0  0  0  0  0
   -4.8396    3.6934    1.5089 H   0  0  0  0  0  0  0  0  0  0  0  0
   -3.2049    4.4575    0.3730 C   0  0  0  0  0  0  0  0  0  0  0  0
   -3.5129    5.7544   -0.0391 C   0  0  0  0  0  0  0  0  0  0  0  0
   -4.4672    6.1990    0.2206 H   0  0  0  0  0  0  0  0  0  0  0  0
   -2.5732    6.4740   -0.7917 C   0  0  0  0  0  0  0  0  0  0  0  0
   -2.7989    7.4850   -1.1178 H   0  0  0  0  0  0  0  0  0  0  0  0
   -1.3402    5.8904   -1.1229 C   0  0  0  0  0  0  0  0  0  0  0  0
   -0.6133    6.4500   -1.7042 H   0  0  0  0  0  0  0  0  0  0  0  0
   -1.0408    4.5862   -0.7039 C   0  0  0  0  0  0  0  0  0  0  0  0
   -0.0879    4.1298   -0.9551 H   0  0  0  0  0  0  0  0  0  0  0  0
   -1.9844    3.8782    0.0469 C   0  0  0  0  0  0  0  0  0  0  0  0
    0.3808    0.1077   -1.1657 C   0  0  0  0  0  0  0  0  0  0  0  0
    1.2862    0.7586   -1.6724 O   0  0  0  0  0  0  0  0  0  0  0  0
    0.5997   -1.2285   -0.8929 N   0  0  0  0  0  0  0  0  0  0  0  0
   -0.1090   -1.6792   -0.3094 H   0  0  0  0  0  0  0  0  0  0  0  0
    1.8923   -1.8807   -1.0528 C   0  0  0  0  0  0  0  0  0  0  0  0
    2.6390   -1.4158   -0.4009 H   0  0  0  0  0  0  0  0  0  0  0  0
    1.8141   -2.9401   -0.7912 H   0  0  0  0  0  0  0  0  0  0  0  0
    2.2335   -1.8065   -2.0906 H   0  0  0  0  0  0  0  0  0  0  0  0
  1  2  1  0  0  0  0
  2  3  1  0  0  0  0
  2  4  1  0  0  0  0
  2  5  1  0  0  0  0
  5  6  2  0  0  0  0
  5  7  1  0  0  0  0
  7  8  1  0  0  0  0
  7  9  1  0  0  0  0
  9 10  1  0  0  0  0
  9 11  1  0  0  0  0
  9 29  1  0  0  0  0
 11 12  1  0  0  0  0
 11 13  1  0  0  0  0
 11 14  1  0  0  0  0
 14 15  2  0  0  0  0
 14 28  1  0  0  0  0
 15 16  1  0  0  0  0
 15 17  1  0  0  0  0
 17 18  1  0  0  0  0
 17 19  1  0  0  0  0
 19 20  1  0  0  0  0
 19 28  2  0  0  0  0
 20 21  1  0  0  0  0
 20 22  2  0  0  0  0
 22 23  1  0  0  0  0
 22 24  1  0  0  0  0
 24 25  1  0  0  0  0
 24 26  2  0  0  0  0
 26 27  1  0  0  0  0
 26 28  1  0  0  0  0
 29 30  2  0  0  0  0
 29 31  1  0  0  0  0
 31 32  1  0  0  0  0
 31 33  1  0  0  0  0
 33 34  1  0  0  0  0
 33 35  1  0  0  0  0
 33 36  1  0  0  0  0
M  END
$$$$

  -OEChem-01062216103D

 36 37  0     1  0  0  0  0  0999 V2000
   -3.9915   -2.5797    0.3484 H   0  0  0  0  0  0  0  0  0  0  0  0
   -3.8750   -1.7611   -0.3678 C   0  0  0  0  0  0  0  0  0  0  0  0
   -4.6472   -1.0126   -0.1742 H   0  0  0  0  0  0  0  0  0  0  0  0
   -4.0058   -2.1563   -1.3781 H   0  0  0  0  0  0  0  0  0  0  0  0
   -2.4992   -1.1372   -0.2307 C   0  0  0  0  0  0  0  0  0  0  0  0
   -1.6859   -1.6346    0.5295 O   0  0  0  0  0  0  0  0  0  0  0  0
   -2.1861   -0.0211   -0.9803 N   0  0  0  0  0  0  0  0  0  0  0  0
   -2.9476    0.3563   -1.5372 H   0  0  0  0  0  0  0  0  0  0  0  0
   -0.9593    0.8090   -0.9050 C   0  0  1  0  0  0  0  0  0  0  0  0
   -1.0431    1.5820   -1.6758 H   0  0  0  0  0  0  0  0  0  0  0  0
   -0.8746    1.5115    0.4638 C   0  0  0  0  0  0  0  0  0  0  0  0
   -0.9347    0.7761    1.2717 H   0  0  0  0  0  0  0  0  0  0  0  0
    0.0868    2.0257    0.5674 H   0  0  0  0  0  0  0  0  0  0  0  0
   -1.9794    2.5255    0.6011 C   0  0  0  0  0  0  0  0  0  0  0  0
   -3.1824    2.3346    1.2364 C   0  0  0  0  0  0  0  0  0  0  0  0
   -3.4813    1.4280    1.7583 H   0  0  0  0  0  0  0  0  0  0  0  0
   -3.9255    3.5047    1.0902 N   0  0  0  0  0  0  0  0  0  0  0  0
   -4.8472    3.6720    1.4884 H   0  0  0  0  0  0  0  0  0  0  0  0
   -3.2091    4.4432    0.3633 C   0  0  0  0  0  0  0  0  0  0  0  0
   -3.5165    5.7434   -0.0378 C   0  0  0  0  0  0  0  0  0  0  0  0
   -4.4717    6.1853    0.2231 H   0  0  0  0  0  0  0  0  0  0  0  0
   -2.5741    6.4700   -0.7800 C   0  0  0  0  0  0  0  0  0  0  0  0
   -2.7986    7.4841   -1.0970 H   0  0  0  0  0  0  0  0  0  0  0  0
   -1.3396    5.8899   -1.1120 C   0  0  0  0  0  0  0  0  0  0  0  0
   -0.6107    6.4554   -1.6847 H   0  0  0  0  0  0  0  0  0  0  0  0
   -1.0406    4.5822   -0.7033 C   0  0  0  0  0  0  0  0  0  0  0  0
   -0.0858    4.1291   -0.9539 H   0  0  0  0  0  0  0  0  0  0  0  0
   -1.9868    3.8672    0.0377 C   0  0  0  0  0  0  0  0  0  0  0  0
    0.3901    0.1028   -1.1887 C   0  0  0  0  0  0  0  0  0  0  0  0
    1.3571    0.7893   -1.4963 O   0  0  0  0  0  0  0  0  0  0  0  0
    0.5242   -1.2723   -1.2004 N   0  0  0  0  0  0  0  0  0  0  0  0
   -0.2112   -1.7729   -0.6975 H   0  0  0  0  0  0  0  0  0  0  0  0
    1.8057   -1.9406   -1.3859 C   0  0  0  0  0  0  0  0  0  0  0  0
    2.5012   -1.6658   -0.5861 H   0  0  0  0  0  0  0  0  0  0  0  0
    1.6695   -3.0261   -1.3711 H   0  0  0  0  0  0  0  0  0  0  0  0
    2.2474   -1.6624   -2.3485 H   0  0  0  0  0  0  0  0  0  0  0  0
  1  2  1  0  0  0  0
  2  3  1  0  0  0  0
  2  4  1  0  0  0  0
  2  5  1  0  0  0  0
  5  6  2  0  0  0  0
  5  7  1  0  0  0  0
  7  8  1  0  0  0  0
  7  9  1  0  0  0  0
  9 10  1  0  0  0  0
  9 11  1  0  0  0  0
  9 29  1  0  0  0  0
 11 12  1  0  0  0  0
 11 13  1  0  0  0  0
 11 14  1  0  0  0  0
 14 15  2  0  0  0  0
 14 28  1  0  0  0  0
 15 16  1  0  0  0  0
 15 17  1  0  0  0  0
 17 18  1  0  0  0  0
 17 19  1  0  0  0  0
 19 20  1  0  0  0  0
 19 28  2  0  0  0  0
 20 21  1  0  0  0  0
 20 22  2  0  0  0  0
 22 23  1  0  0  0  0
 22 24  1  0  0  0  0
 24 25  1  0  0  0  0
 24 26  2  0  0  0  0
 26 27  1  0  0  0  0
 26 28  1  0  0  0  0
 29 30  2  0  0  0  0
 29 31  1  0  0  0  0
 31 32  1  0  0  0  0
 31 33  1  0  0  0  0
 33 34  1  0  0  0  0
 33 35  1  0  0  0  0
 33 36  1  0  0  0  0
M  END
$$$$

  -OEChem-01062216103D

 36 37  0     1  0  0  0  0  0999 V2000
   -3.9507   -2.5408    0.4078 H   0  0  0  0  0  0  0  0  0  0  0  0
   -3.8567   -1.7207   -0.3098 C   0  0  0  0  0  0  0  0  0  0  0  0
   -4.5930   -0.9521   -0.0621 H   0  0  0  0  0  0  0  0  0  0  0  0
   -4.0620   -2.1039   -1.3123 H   0  0  0  0  0  0  0  0  0  0  0  0
   -2.4581   -1.1370   -0.2561 C   0  0  0  0  0  0  0  0  0  0  0  0
   -1.6026   -1.6803    0.4207 O   0  0  0  0  0  0  0  0  0  0  0  0
   -2.1613   -0.0159   -1.0041 N   0  0  0  0  0  0  0  0  0  0  0  0
   -2.9516    0.4060   -1.4839 H   0  0  0  0  0  0  0  0  0  0  0  0
   -0.9367    0.8157   -0.9159 C   0  0  1  0  0  0  0  0  0  0  0  0
   -1.0123    1.5938   -1.6819 H   0  0  0  0  0  0  0  0  0  0  0  0
   -0.8745    1.5071    0.4611 C   0  0  0  0  0  0  0  0  0  0  0  0
   -0.9427    0.7626    1.2604 H   0  0  0  0  0  0  0  0  0  0  0  0
    0.0811    2.0261    0.5867 H   0  0  0  0  0  0  0  0  0  0  0  0
   -1.9863    2.5149    0.5921 C   0  0  0  0  0  0  0  0  0  0  0  0
   -3.1973    2.3141    1.2088 C   0  0  0  0  0  0  0  0  0  0  0  0
   -3.4987    1.4034    1.7217 H   0  0  0  0  0  0  0  0  0  0  0  0
   -3.9439    3.4816    1.0597 N   0  0  0  0  0  0  0  0  0  0  0  0
   -4.8712    3.6429    1.4474 H   0  0  0  0  0  0  0  0  0  0  0  0
   -3.2223    4.4278    0.3480 C   0  0  0  0  0  0  0  0  0  0  0  0
   -3.5295    5.7292   -0.0501 C   0  0  0  0  0  0  0  0  0  0  0  0
   -4.4891    6.1664    0.2020 H   0  0  0  0  0  0  0  0  0  0  0  0
   -2.5817    6.4630   -0.7778 C   0  0  0  0  0  0  0  0  0  0  0  0
   -2.8059    7.4777   -1.0929 H   0  0  0  0  0  0  0  0  0  0  0  0
   -1.3412    5.8897   -1.0981 C   0  0  0  0  0  0  0  0  0  0  0  0
   -0.6080    6.4609   -1.6599 H   0  0  0  0  0  0  0  0  0  0  0  0
   -1.0413    4.5818   -0.6912 C   0  0  0  0  0  0  0  0  0  0  0  0
   -0.0813    4.1347   -0.9321 H   0  0  0  0  0  0  0  0  0  0  0  0
   -1.9932    3.8592    0.0351 C   0  0  0  0  0  0  0  0  0  0  0  0
    0.4107    0.1036   -1.2006 C   0  0  0  0  0  0  0  0  0  0  0  0
    1.4307    0.7768   -1.2901 O   0  0  0  0  0  0  0  0  0  0  0  0
    0.4735   -1.2403   -1.5184 N   0  0  0  0  0  0  0  0  0  0  0  0
   -0.3057   -1.7850   -1.1485 H   0  0  0  0  0  0  0  0  0  0  0  0
    1.7339   -1.9344   -1.7494 C   0  0  0  0  0  0  0  0  0  0  0  0
    2.3654   -1.8895   -0.8562 H   0  0  0  0  0  0  0  0  0  0  0  0
    1.5455   -2.9852   -1.9900 H   0  0  0  0  0  0  0  0  0  0  0  0
    2.2744   -1.4819   -2.5874 H   0  0  0  0  0  0  0  0  0  0  0  0
  1  2  1  0  0  0  0
  2  3  1  0  0  0  0
  2  4  1  0  0  0  0
  2  5  1  0  0  0  0
  5  6  2  0  0  0  0
  5  7  1  0  0  0  0
  7  8  1  0  0  0  0
  7  9  1  0  0  0  0
  9 10  1  0  0  0  0
  9 11  1  0  0  0  0
  9 29  1  0  0  0  0
 11 12  1  0  0  0  0
 11 13  1  0  0  0  0
 11 14  1  0  0  0  0
 14 15  2  0  0  0  0
 14 28  1  0  0  0  0
 15 16  1  0  0  0  0
 15 17  1  0  0  0  0
 17 18  1  0  0  0  0
 17 19  1  0  0  0  0
 19 20  1  0  0  0  0
 19 28  2  0  0  0  0
 20 21  1  0  0  0  0
 20 22  2  0  0  0  0
 22 23  1  0  0  0  0
 22 24  1  0  0  0  0
 24 25  1  0  0  0  0
 24 26  2  0  0  0  0
 26 27  1  0  0  0  0
 26 28  1  0  0  0  0
 29 30  2  0  0  0  0
 29 31  1  0  0  0  0
 31 32  1  0  0  0  0
 31 33  1  0  0  0  0
 33 34  1  0  0  0  0
 33 35  1  0  0  0  0
 33 36  1  0  0  0  0
M  END
$$$$

  -OEChem-01062216103D

 36 37  0     1  0  0  0  0  0999 V2000
   -3.8798   -2.5287    0.4557 H   0  0  0  0  0  0  0  0  0  0  0  0
   -3.8063   -1.7175   -0.2744 C   0  0  0  0  0  0  0  0  0  0  0  0
   -4.5350   -0.9458   -0.0154 H   0  0  0  0  0  0  0  0  0  0  0  0
   -4.0406   -2.1130   -1.2655 H   0  0  0  0  0  0  0  0  0  0  0  0
   -2.4061   -1.1348   -0.2674 C   0  0  0  0  0  0  0  0  0  0  0  0
   -1.5253   -1.6871    0.3665 O   0  0  0  0  0  0  0  0  0  0  0  0
   -2.1318   -0.0096   -1.0181 N   0  0  0  0  0  0  0  0  0  0  0  0
   -2.9400    0.4302   -1.4497 H   0  0  0  0  0  0  0  0  0  0  0  0
   -0.9119    0.8277   -0.9231 C   0  0  1  0  0  0  0  0  0  0  0  0
   -0.9823    1.6063   -1.6888 H   0  0  0  0  0  0  0  0  0  0  0  0
   -0.8631    1.5177    0.4572 C   0  0  0  0  0  0  0  0  0  0  0  0
   -0.9313    0.7718    1.2549 H   0  0  0  0  0  0  0  0  0  0  0  0
    0.0868    2.0448    0.5917 H   0  0  0  0  0  0  0  0  0  0  0  0
   -1.9826    2.5181    0.5802 C   0  0  0  0  0  0  0  0  0  0  0  0
   -3.1961    2.3057    1.1876 C   0  0  0  0  0  0  0  0  0  0  0  0
   -3.4932    1.3914    1.6961 H   0  0  0  0  0  0  0  0  0  0  0  0
   -3.9530    3.4657    1.0339 N   0  0  0  0  0  0  0  0  0  0  0  0
   -4.8842    3.6178    1.4160 H   0  0  0  0  0  0  0  0  0  0  0  0
   -3.2331    4.4213    0.3334 C   0  0  0  0  0  0  0  0  0  0  0  0
   -3.5483    5.7219   -0.0611 C   0  0  0  0  0  0  0  0  0  0  0  0
   -4.5153    6.1484    0.1814 H   0  0  0  0  0  0  0  0  0  0  0  0
   -2.5986    6.4695   -0.7724 C   0  0  0  0  0  0  0  0  0  0  0  0
   -2.8291    7.4837   -1.0849 H   0  0  0  0  0  0  0  0  0  0  0  0
   -1.3480    5.9104   -1.0788 C   0  0  0  0  0  0  0  0  0  0  0  0
   -0.6125    6.4925   -1.6261 H   0  0  0  0  0  0  0  0  0  0  0  0
   -1.0410    4.6028   -0.6763 C   0  0  0  0  0  0  0  0  0  0  0  0
   -0.0727    4.1674   -0.9044 H   0  0  0  0  0  0  0  0  0  0  0  0
   -1.9955    3.8656    0.0314 C   0  0  0  0  0  0  0  0  0  0  0  0
    0.4257    0.0993   -1.2138 C   0  0  0  0  0  0  0  0  0  0  0  0
    1.4868    0.6970   -1.0765 O   0  0  0  0  0  0  0  0  0  0  0  0
    0.4401   -1.1405   -1.8264 N   0  0  0  0  0  0  0  0  0  0  0  0
   -0.4062   -1.6844   -1.6763 H   0  0  0  0  0  0  0  0  0  0  0  0
    1.6752   -1.8683   -2.0881 C   0  0  0  0  0  0  0  0  0  0  0  0
    2.2061   -2.0710   -1.1521 H   0  0  0  0  0  0  0  0  0  0  0  0
    1.4536   -2.8222   -2.5757 H   0  0  0  0  0  0  0  0  0  0  0  0
    2.3305   -1.2897   -2.7475 H   0  0  0  0  0  0  0  0  0  0  0  0
  1  2  1  0  0  0  0
  2  3  1  0  0  0  0
  2  4  1  0  0  0  0
  2  5  1  0  0  0  0
  5  6  2  0  0  0  0
  5  7  1  0  0  0  0
  7  8  1  0  0  0  0
  7  9  1  0  0  0  0
  9 10  1  0  0  0  0
  9 11  1  0  0  0  0
  9 29  1  0  0  0  0
 11 12  1  0  0  0  0
 11 13  1  0  0  0  0
 11 14  1  0  0  0  0
 14 15  2  0  0  0  0
 14 28  1  0  0  0  0
 15 16  1  0  0  0  0
 15 17  1  0  0  0  0
 17 18  1  0  0  0  0
 17 19  1  0  0  0  0
 19 20  1  0  0  0  0
 19 28  2  0  0  0  0
 20 21  1  0  0  0  0
 20 22  2  0  0  0  0
 22 23  1  0  0  0  0
 22 24  1  0  0  0  0
 24 25  1  0  0  0  0
 24 26  2  0  0  0  0
 26 27  1  0  0  0  0
 26 28  1  0  0  0  0
 29 30  2  0  0  0  0
 29 31  1  0  0  0  0
 31 32  1  0  0  0  0
 31 33  1  0  0  0  0
 33 34  1  0  0  0  0
 33 35  1  0  0  0  0
 33 36  1  0  0  0  0
M  END
$$$$

  -OEChem-01062216103D

 36 37  0     1  0  0  0  0  0999 V2000
   -3.8061   -2.5553    0.4371 H   0  0  0  0  0  0  0  0  0  0  0  0
   -3.7498   -1.7245   -0.2720 C   0  0  0  0  0  0  0  0  0  0  0  0
   -4.4805   -0.9658    0.0177 H   0  0  0  0  0  0  0  0  0  0  0  0
   -3.9958   -2.0955   -1.2699 H   0  0  0  0  0  0  0  0  0  0  0  0
   -2.3543   -1.1304   -0.2692 C   0  0  0  0  0  0  0  0  0  0  0  0
   -1.4702   -1.6685    0.3718 O   0  0  0  0  0  0  0  0  0  0  0  0
   -2.0986    0.0050   -1.0120 N   0  0  0  0  0  0  0  0  0  0  0  0
   -2.9175    0.4520   -1.4150 H   0  0  0  0  0  0  0  0  0  0  0  0
   -0.8839    0.8463   -0.9042 C   0  0  1  0  0  0  0  0  0  0  0  0
   -0.9502    1.6296   -1.6648 H   0  0  0  0  0  0  0  0  0  0  0  0
   -0.8434    1.5314    0.4796 C   0  0  0  0  0  0  0  0  0  0  0  0
   -0.9116    0.7831    1.2750 H   0  0  0  0  0  0  0  0  0  0  0  0
    0.1019    2.0648    0.6209 H   0  0  0  0  0  0  0  0  0  0  0  0
   -1.9691    2.5259    0.5948 C   0  0  0  0  0  0  0  0  0  0  0  0
   -3.1854    2.3038    1.1932 C   0  0  0  0  0  0  0  0  0  0  0  0
   -3.4767    1.3888    1.7042 H   0  0  0  0  0  0  0  0  0  0  0  0
   -3.9536    3.4543    1.0251 N   0  0  0  0  0  0  0  0  0  0  0  0
   -4.8891    3.5990    1.3998 H   0  0  0  0  0  0  0  0  0  0  0  0
   -3.2385    4.4126    0.3231 C   0  0  0  0  0  0  0  0  0  0  0  0
   -3.5658    5.7054   -0.0858 C   0  0  0  0  0  0  0  0  0  0  0  0
   -4.5404    6.1218    0.1432 H   0  0  0  0  0  0  0  0  0  0  0  0
   -2.6184    6.4589   -0.7939 C   0  0  0  0  0  0  0  0  0  0  0  0
   -2.8587    7.4677   -1.1159 H   0  0  0  0  0  0  0  0  0  0  0  0
   -1.3581    5.9134   -1.0840 C   0  0  0  0  0  0  0  0  0  0  0  0
   -0.6249    6.5010   -1.6285 H   0  0  0  0  0  0  0  0  0  0  0  0
   -1.0392    4.6127   -0.6682 C   0  0  0  0  0  0  0  0  0  0  0  0
   -0.0637    4.1872   -0.8839 H   0  0  0  0  0  0  0  0  0  0  0  0
   -1.9916    3.8696    0.0365 C   0  0  0  0  0  0  0  0  0  0  0  0
    0.4412    0.1010   -1.2088 C   0  0  0  0  0  0  0  0  0  0  0  0
    1.5170    0.5518   -0.8331 O   0  0  0  0  0  0  0  0  0  0  0  0
    0.4462   -0.9593   -2.0974 N   0  0  0  0  0  0  0  0  0  0  0  0
   -0.4558   -1.4004   -2.2464 H   0  0  0  0  0  0  0  0  0  0  0  0
    1.6478   -1.7280   -2.3966 C   0  0  0  0  0  0  0  0  0  0  0  0
    2.0313   -2.2063   -1.4892 H   0  0  0  0  0  0  0  0  0  0  0  0
    1.4245   -2.5060   -3.1327 H   0  0  0  0  0  0  0  0  0  0  0  0
    2.4272   -1.0790   -2.8094 H   0  0  0  0  0  0  0  0  0  0  0  0
  1  2  1  0  0  0  0
  2  3  1  0  0  0  0
  2  4  1  0  0  0  0
  2  5  1  0  0  0  0
  5  6  2  0  0  0  0
  5  7  1  0  0  0  0
  7  8  1  0  0  0  0
  7  9  1  0  0  0  0
  9 10  1  0  0  0  0
  9 11  1  0  0  0  0
  9 29  1  0  0  0  0
 11 12  1  0  0  0  0
 11 13  1  0  0  0  0
 11 14  1  0  0  0  0
 14 15  2  0  0  0  0
 14 28  1  0  0  0  0
 15 16  1  0  0  0  0
 15 17  1  0  0  0  0
 17 18  1  0  0  0  0
 17 19  1  0  0  0  0
 19 20  1  0  0  0  0
 19 28  2  0  0  0  0
 20 21  1  0  0  0  0
 20 22  2  0  0  0  0
 22 23  1  0  0  0  0
 22 24  1  0  0  0  0
 24 25  1  0  0  0  0
 24 26  2  0  0  0  0
 26 27  1  0  0  0  0
 26 28  1  0  0  0  0
 29 30  2  0  0  0  0
 29 31  1  0  0  0  0
 31 32  1  0  0  0  0
 31 33  1  0  0  0  0
 33 34  1  0  0  0  0
 33 35  1  0  0  0  0
 33 36  1  0  0  0  0
M  END
$$$$

  -OEChem-01062216103D

 36 37  0     1  0  0  0  0  0999 V2000
   -3.7790   -2.5479    0.4475 H   0  0  0  0  0  0  0  0  0  0  0  0
   -3.7146   -1.7371   -0.2838 C   0  0  0  0  0  0  0  0  0  0  0  0
   -4.4560   -0.9760   -0.0293 H   0  0  0  0  0  0  0  0  0  0  0  0
   -3.9389   -2.1382   -1.2751 H   0  0  0  0  0  0  0  0  0  0  0  0
   -2.3233   -1.1329   -0.2718 C   0  0  0  0  0  0  0  0  0  0  0  0
   -1.4446   -1.6584    0.3864 O   0  0  0  0  0  0  0  0  0  0  0  0
   -2.0726    0.0044   -1.0141 N   0  0  0  0  0  0  0  0  0  0  0  0
   -2.8937    0.4466   -1.4177 H   0  0  0  0  0  0  0  0  0  0  0  0
   -0.8643    0.8518   -0.8976 C   0  0  1  0  0  0  0  0  0  0  0  0
   -0.9248    1.6351   -1.6589 H   0  0  0  0  0  0  0  0  0  0  0  0
   -0.8336    1.5408    0.4844 C   0  0  0  0  0  0  0  0  0  0  0  0
   -0.9010    0.7943    1.2820 H   0  0  0  0  0  0  0  0  0  0  0  0
    0.1091    2.0793    0.6260 H   0  0  0  0  0  0  0  0  0  0  0  0
   -1.9637    2.5313    0.5930 C   0  0  0  0  0  0  0  0  0  0  0  0
   -3.1808    2.3031    1.1876 C   0  0  0  0  0  0  0  0  0  0  0  0
   -3.4692    1.3862    1.6977 H   0  0  0  0  0  0  0  0  0  0  0  0
   -3.9533    3.4508    1.0192 N   0  0  0  0  0  0  0  0  0  0  0  0
   -4.8894    3.5918    1.3938 H   0  0  0  0  0  0  0  0  0  0  0  0
   -3.2414    4.4130    0.3195 C   0  0  0  0  0  0  0  0  0  0  0  0
   -3.5744    5.7050   -0.0889 C   0  0  0  0  0  0  0  0  0  0  0  0
   -4.5508    6.1178    0.1396 H   0  0  0  0  0  0  0  0  0  0  0  0
   -2.6296    6.4626   -0.7963 C   0  0  0  0  0  0  0  0  0  0  0  0
   -2.8742    7.4701   -1.1199 H   0  0  0  0  0  0  0  0  0  0  0  0
   -1.3657    5.9232   -1.0829 C   0  0  0  0  0  0  0  0  0  0  0  0
   -0.6343    6.5145   -1.6256 H   0  0  0  0  0  0  0  0  0  0  0  0
   -1.0408    4.6245   -0.6656 C   0  0  0  0  0  0  0  0  0  0  0  0
   -0.0621    4.2047   -0.8771 H   0  0  0  0  0  0  0  0  0  0  0  0
   -1.9911    3.8757    0.0355 C   0  0  0  0  0  0  0  0  0  0  0  0
    0.4529    0.0918   -1.1981 C   0  0  0  0  0  0  0  0  0  0  0  0
    1.4997    0.3628   -0.6216 O   0  0  0  0  0  0  0  0  0  0  0  0
    0.5067   -0.7447   -2.2990 N   0  0  0  0  0  0  0  0  0  0  0  0
   -0.3898   -1.0402   -2.6713 H   0  0  0  0  0  0  0  0  0  0  0  0
    1.6924   -1.5188   -2.6450 C   0  0  0  0  0  0  0  0  0  0  0  0
    1.9486   -2.2089   -1.8342 H   0  0  0  0  0  0  0  0  0  0  0  0
    1.5110   -2.1012   -3.5534 H   0  0  0  0  0  0  0  0  0  0  0  0
    2.5450   -0.8559   -2.8264 H   0  0  0  0  0  0  0  0  0  0  0  0
  1  2  1  0  0  0  0
  2  3  1  0  0  0  0
  2  4  1  0  0  0  0
  2  5  1  0  0  0  0
  5  6  2  0  0  0  0
  5  7  1  0  0  0  0
  7  8  1  0  0  0  0
  7  9  1  0  0  0  0
  9 10  1  0  0  0  0
  9 11  1  0  0  0  0
  9 29  1  0  0  0  0
 11 12  1  0  0  0  0
 11 13  1  0  0  0  0
 11 14  1  0  0  0  0
 14 15  2  0  0  0  0
 14 28  1  0  0  0  0
 15 16  1  0  0  0  0
 15 17  1  0  0  0  0
 17 18  1  0  0  0  0
 17 19  1  0  0  0  0
 19 20  1  0  0  0  0
 19 28  2  0  0  0  0
 20 21  1  0  0  0  0
 20 22  2  0  0  0  0
 22 23  1  0  0  0  0
 22 24  1  0  0  0  0
 24 25  1  0  0  0  0
 24 26  2  0  0  0  0
 26 27  1  0  0  0  0
 26 28  1  0  0  0  0
 29 30  2  0  0  0  0
 29 31  1  0  0  0  0
 31 32  1  0  0  0  0
 31 33  1  0  0  0  0
 33 34  1  0  0  0  0
 33 35  1  0  0  0  0
 33 36  1  0  0  0  0
M  END
$$$$

  -OEChem-01062216103D

 36 37  0     1  0  0  0  0  0999 V2000
   -3.7843   -2.5654    0.4238 H   0  0  0  0  0  0  0  0  0  0  0  0
   -3.7122   -1.7498   -0.3016 C   0  0  0  0  0  0  0  0  0  0  0  0
   -4.4616   -0.9939   -0.0553 H   0  0  0  0  0  0  0  0  0  0  0  0
   -3.9170   -2.1465   -1.2988 H   0  0  0  0  0  0  0  0  0  0  0  0
   -2.3245   -1.1381   -0.2630 C   0  0  0  0  0  0  0  0  0  0  0  0
   -1.4594   -1.6560    0.4183 O   0  0  0  0  0  0  0  0  0  0  0  0
   -2.0682   -0.0005   -1.0031 N   0  0  0  0  0  0  0  0  0  0  0  0
   -2.8855    0.4357   -1.4201 H   0  0  0  0  0  0  0  0  0  0  0  0
   -0.8602    0.8457   -0.8861 C   0  0  1  0  0  0  0  0  0  0  0  0
   -0.9184    1.6291   -1.6476 H   0  0  0  0  0  0  0  0  0  0  0  0
   -0.8274    1.5398    0.4925 C   0  0  0  0  0  0  0  0  0  0  0  0
   -0.8962    0.7966    1.2933 H   0  0  0  0  0  0  0  0  0  0  0  0
    0.1182    2.0740    0.6297 H   0  0  0  0  0  0  0  0  0  0  0  0
   -1.9553    2.5330    0.5975 C   0  0  0  0  0  0  0  0  0  0  0  0
   -3.1715    2.3063    1.1941 C   0  0  0  0  0  0  0  0  0  0  0  0
   -3.4584    1.3907    1.7073 H   0  0  0  0  0  0  0  0  0  0  0  0
   -3.9456    3.4518    1.0199 N   0  0  0  0  0  0  0  0  0  0  0  0
   -4.8819    3.5930    1.3938 H   0  0  0  0  0  0  0  0  0  0  0  0
   -3.2348    4.4115    0.3159 C   0  0  0  0  0  0  0  0  0  0  0  0
   -3.5702    5.7008   -0.0980 C   0  0  0  0  0  0  0  0  0  0  0  0
   -4.5480    6.1114    0.1283 H   0  0  0  0  0  0  0  0  0  0  0  0
   -2.6269    6.4574   -0.8080 C   0  0  0  0  0  0  0  0  0  0  0  0
   -2.8739    7.4627   -1.1363 H   0  0  0  0  0  0  0  0  0  0  0  0
   -1.3618    5.9195   -1.0913 C   0  0  0  0  0  0  0  0  0  0  0  0
   -0.6313    6.5104   -1.6357 H   0  0  0  0  0  0  0  0  0  0  0  0
   -1.0344    4.6232   -0.6686 C   0  0  0  0  0  0  0  0  0  0  0  0
   -0.0542    4.2058   -0.8770 H   0  0  0  0  0  0  0  0  0  0  0  0
   -1.9836    3.8750    0.0345 C   0  0  0  0  0  0  0  0  0  0  0  0
    0.4521    0.0778   -1.1868 C   0  0  0  0  0  0  0  0  0  0  0  0
    1.4348    0.1547   -0.4589 O   0  0  0  0  0  0  0  0  0  0  0  0
    0.6065   -0.5008   -2.4345 N   0  0  0  0  0  0  0  0  0  0  0  0
   -0.2400   -0.6275   -2.9795 H   0  0  0  0  0  0  0  0  0  0  0  0
    1.8066   -1.2294   -2.8268 C   0  0  0  0  0  0  0  0  0  0  0  0
    1.9646   -2.0885   -2.1663 H   0  0  0  0  0  0  0  0  0  0  0  0
    1.7086   -1.5936   -3.8539 H   0  0  0  0  0  0  0  0  0  0  0  0
    2.6858   -0.5784   -2.7754 H   0  0  0  0  0  0  0  0  0  0  0  0
  1  2  1  0  0  0  0
  2  3  1  0  0  0  0
  2  4  1  0  0  0  0
  2  5  1  0  0  0  0
  5  6  2  0  0  0  0
  5  7  1  0  0  0  0
  7  8  1  0  0  0  0
  7  9  1  0  0  0  0
  9 10  1  0  0  0  0
  9 11  1  0  0  0  0
  9 29  1  0  0  0  0
 11 12  1  0  0  0  0
 11 13  1  0  0  0  0
 11 14  1  0  0  0  0
 14 15  2  0  0  0  0
 14 28  1  0  0  0  0
 15 16  1  0  0  0  0
 15 17  1  0  0  0  0
 17 18  1  0  0  0  0
 17 19  1  0  0  0  0
 19 20  1  0  0  0  0
 19 28  2  0  0  0  0
 20 21  1  0  0  0  0
 20 22  2  0  0  0  0
 22 23  1  0  0  0  0
 22 24  1  0  0  0  0
 24 25  1  0  0  0  0
 24 26  2  0  0  0  0
 26 27  1  0  0  0  0
 26 28  1  0  0  0  0
 29 30  2  0  0  0  0
 29 31  1  0  0  0  0
 31 32  1  0  0  0  0
 31 33  1  0  0  0  0
 33 34  1  0  0  0  0
 33 35  1  0  0  0  0
 33 36  1  0  0  0  0
M  END
$$$$

  -OEChem-01062216103D

 36 37  0     1  0  0  0  0  0999 V2000
   -3.8067   -2.5942    0.3861 H   0  0  0  0  0  0  0  0  0  0  0  0
   -3.7261   -1.7720   -0.3311 C   0  0  0  0  0  0  0  0  0  0  0  0
   -4.4914   -1.0277   -0.0989 H   0  0  0  0  0  0  0  0  0  0  0  0
   -3.8996   -2.1636   -1.3363 H   0  0  0  0  0  0  0  0  0  0  0  0
   -2.3471   -1.1444   -0.2521 C   0  0  0  0  0  0  0  0  0  0  0  0
   -1.5026   -1.6477    0.4640 O   0  0  0  0  0  0  0  0  0  0  0  0
   -2.0812   -0.0096   -0.9935 N   0  0  0  0  0  0  0  0  0  0  0  0
   -2.8891    0.4122   -1.4412 H   0  0  0  0  0  0  0  0  0  0  0  0
   -0.8708    0.8337   -0.8860 C   0  0  1  0  0  0  0  0  0  0  0  0
   -0.9350    1.6169   -1.6472 H   0  0  0  0  0  0  0  0  0  0  0  0
   -0.8229    1.5345    0.4882 C   0  0  0  0  0  0  0  0  0  0  0  0
   -0.8891    0.7952    1.2926 H   0  0  0  0  0  0  0  0  0  0  0  0
    0.1282    2.0620    0.6133 H   0  0  0  0  0  0  0  0  0  0  0  0
   -1.9452    2.5333    0.5988 C   0  0  0  0  0  0  0  0  0  0  0  0
   -3.1560    2.3129    1.2081 C   0  0  0  0  0  0  0  0  0  0  0  0
   -3.4411    1.3994    1.7263 H   0  0  0  0  0  0  0  0  0  0  0  0
   -3.9272    3.4613    1.0393 N   0  0  0  0  0  0  0  0  0  0  0  0
   -4.8589    3.6067    1.4229 H   0  0  0  0  0  0  0  0  0  0  0  0
   -3.2203    4.4160    0.3245 C   0  0  0  0  0  0  0  0  0  0  0  0
   -3.5559    5.7051   -0.0903 C   0  0  0  0  0  0  0  0  0  0  0  0
   -4.5296    6.1200    0.1458 H   0  0  0  0  0  0  0  0  0  0  0  0
   -2.6185    6.4561   -0.8136 C   0  0  0  0  0  0  0  0  0  0  0  0
   -2.8662    7.4612   -1.1424 H   0  0  0  0  0  0  0  0  0  0  0  0
   -1.3583    5.9131   -1.1089 C   0  0  0  0  0  0  0  0  0  0  0  0
   -0.6322    6.5003   -1.6634 H   0  0  0  0  0  0  0  0  0  0  0  0
   -1.0304    4.6171   -0.6845 C   0  0  0  0  0  0  0  0  0  0  0  0
   -0.0540    4.1958   -0.9016 H   0  0  0  0  0  0  0  0  0  0  0  0
   -1.9741    3.8740    0.0316 C   0  0  0  0  0  0  0  0  0  0  0  0
    0.4418    0.0664   -1.1880 C   0  0  0  0  0  0  0  0  0  0  0  0
    1.3350   -0.0556   -0.3583 O   0  0  0  0  0  0  0  0  0  0  0  0
    0.7362   -0.2434   -2.5048 N   0  0  0  0  0  0  0  0  0  0  0  0
   -0.0265   -0.1843   -3.1713 H   0  0  0  0  0  0  0  0  0  0  0  0
    1.9713   -0.9045   -2.9090 C   0  0  0  0  0  0  0  0  0  0  0  0
    2.0591   -1.8820   -2.4233 H   0  0  0  0  0  0  0  0  0  0  0  0
    1.9838   -1.0530   -3.9929 H   0  0  0  0  0  0  0  0  0  0  0  0
    2.8394   -0.2958   -2.6349 H   0  0  0  0  0  0  0  0  0  0  0  0
  1  2  1  0  0  0  0
  2  3  1  0  0  0  0
  2  4  1  0  0  0  0
  2  5  1  0  0  0  0
  5  6  2  0  0  0  0
  5  7  1  0  0  0  0
  7  8  1  0  0  0  0
  7  9  1  0  0  0  0
  9 10  1  0  0  0  0
  9 11  1  0  0  0  0
  9 29  1  0  0  0  0
 11 12  1  0  0  0  0
 11 13  1  0  0  0  0
 11 14  1  0  0  0  0
 14 15  2  0  0  0  0
 14 28  1  0  0  0  0
 15 16  1  0  0  0  0
 15 17  1  0  0  0  0
 17 18  1  0  0  0  0
 17 19  1  0  0  0  0
 19 20  1  0  0  0  0
 19 28  2  0  0  0  0
 20 21  1  0  0  0  0
 20 22  2  0  0  0  0
 22 23  1  0  0  0  0
 22 24  1  0  0  0  0
 24 25  1  0  0  0  0
 24 26  2  0  0  0  0
 26 27  1  0  0  0  0
 26 28  1  0  0  0  0
 29 30  2  0  0  0  0
 29 31  1  0  0  0  0
 31 32  1  0  0  0  0
 31 33  1  0  0  0  0
 33 34  1  0  0  0  0
 33 35  1  0  0  0  0
 33 36  1  0  0  0  0
M  END
$$$$

  -OEChem-01062216103D

 36 37  0     1  0  0  0  0  0999 V2000
   -3.8304   -2.6325    0.3353 H   0  0  0  0  0  0  0  0  0  0  0  0
   -3.7405   -1.8018   -0.3705 C   0  0  0  0  0  0  0  0  0  0  0  0
   -4.5253   -1.0728   -0.1557 H   0  0  0  0  0  0  0  0  0  0  0  0
   -3.8746   -2.1863   -1.3843 H   0  0  0  0  0  0  0  0  0  0  0  0
   -2.3756   -1.1519   -0.2408 C   0  0  0  0  0  0  0  0  0  0  0  0
   -1.5607   -1.6304    0.5240 O   0  0  0  0  0  0  0  0  0  0  0  0
   -2.1007   -0.0200   -0.9832 N   0  0  0  0  0  0  0  0  0  0  0  0
   -2.8909    0.3699   -1.4872 H   0  0  0  0  0  0  0  0  0  0  0  0
   -0.8888    0.8229   -0.8902 C   0  0  1  0  0  0  0  0  0  0  0  0
   -0.9673    1.6053   -1.6504 H   0  0  0  0  0  0  0  0  0  0  0  0
   -0.8188    1.5302    0.4786 C   0  0  0  0  0  0  0  0  0  0  0  0
   -0.8785    0.7954    1.2875 H   0  0  0  0  0  0  0  0  0  0  0  0
    0.1385    2.0502    0.5873 H   0  0  0  0  0  0  0  0  0  0  0  0
   -1.9350    2.5336    0.6031 C   0  0  0  0  0  0  0  0  0  0  0  0
   -3.1373    2.3229    1.2320 C   0  0  0  0  0  0  0  0  0  0  0  0
   -3.4188    1.4131    1.7583 H   0  0  0  0  0  0  0  0  0  0  0  0
   -3.9034    3.4761    1.0722 N   0  0  0  0  0  0  0  0  0  0  0  0
   -4.8274    3.6290    1.4713 H   0  0  0  0  0  0  0  0  0  0  0  0
   -3.2026    4.4228    0.3409 C   0  0  0  0  0  0  0  0  0  0  0  0
   -3.5355    5.7122   -0.0744 C   0  0  0  0  0  0  0  0  0  0  0  0
   -4.5021    6.1345    0.1773 H   0  0  0  0  0  0  0  0  0  0  0  0
   -2.6047    6.4526   -0.8177 C   0  0  0  0  0  0  0  0  0  0  0  0
   -2.8506    7.4583   -1.1456 H   0  0  0  0  0  0  0  0  0  0  0  0
   -1.3543    5.8985   -1.1337 C   0  0  0  0  0  0  0  0  0  0  0  0
   -0.6336    6.4768   -1.7042 H   0  0  0  0  0  0  0  0  0  0  0  0
   -1.0291    4.6024   -0.7086 C   0  0  0  0  0  0  0  0  0  0  0  0
   -0.0602    4.1721   -0.9408 H   0  0  0  0  0  0  0  0  0  0  0  0
   -1.9654    3.8709    0.0289 C   0  0  0  0  0  0  0  0  0  0  0  0
    0.4295    0.0670   -1.1961 C   0  0  0  0  0  0  0  0  0  0  0  0
    1.2134   -0.2683   -0.3173 O   0  0  0  0  0  0  0  0  0  0  0  0
    0.8807    0.0280   -2.5051 N   0  0  0  0  0  0  0  0  0  0  0  0
    0.2264    0.2997   -3.2314 H   0  0  0  0  0  0  0  0  0  0  0  0
    2.1537   -0.5687   -2.8932 C   0  0  0  0  0  0  0  0  0  0  0  0
    2.1861   -1.6241   -2.6024 H   0  0  0  0  0  0  0  0  0  0  0  0
    2.2875   -0.5037   -3.9772 H   0  0  0  0  0  0  0  0  0  0  0  0
    2.9854   -0.0446   -2.4107 H   0  0  0  0  0  0  0  0  0  0  0  0
  1  2  1  0  0  0  0
  2  3  1  0  0  0  0
  2  4  1  0  0  0  0
  2  5  1  0  0  0  0
  5  6  2  0  0  0  0
  5  7  1  0  0  0  0
  7  8  1  0  0  0  0
  7  9  1  0  0  0  0
  9 10  1  0  0  0  0
  9 11  1  0  0  0  0
  9 29  1  0  0  0  0
 11 12  1  0  0  0  0
 11 13  1  0  0  0  0
 11 14  1  0  0  0  0
 14 15  2  0  0  0  0
 14 28  1  0  0  0  0
 15 16  1  0  0  0  0
 15 17  1  0  0  0  0
 17 18  1  0  0  0  0
 17 19  1  0  0  0  0
 19 20  1  0  0  0  0
 19 28  2  0  0  0  0
 20 21  1  0  0  0  0
 20 22  2  0  0  0  0
 22 23  1  0  0  0  0
 22 24  1  0  0  0  0
 24 25  1  0  0  0  0
 24 26  2  0  0  0  0
 26 27  1  0  0  0  0
 26 28  1  0  0  0  0
 29 30  2  0  0  0  0
 29 31  1  0  0  0  0
 31 32  1  0  0  0  0
 31 33  1  0  0  0  0
 33 34  1  0  0  0  0
 33 35  1  0  0  0  0
 33 36  1  0  0  0  0
M  END
$$$$

  -OEChem-01062216103D

 36 37  0     1  0  0  0  0  0999 V2000
   -3.8241   -2.7161    0.2488 H   0  0  0  0  0  0  0  0  0  0  0  0
   -3.7215   -1.8804   -0.4496 C   0  0  0  0  0  0  0  0  0  0  0  0
   -4.5648   -1.2000   -0.3098 H   0  0  0  0  0  0  0  0  0  0  0  0
   -3.7404   -2.2718   -1.4696 H   0  0  0  0  0  0  0  0  0  0  0  0
   -2.4155   -1.1488   -0.2004 C   0  0  0  0  0  0  0  0  0  0  0  0
   -1.6793   -1.5432    0.6829 O   0  0  0  0  0  0  0  0  0  0  0  0
   -2.1295   -0.0247   -0.9520 N   0  0  0  0  0  0  0  0  0  0  0  0
   -2.8666    0.2777   -1.5803 H   0  0  0  0  0  0  0  0  0  0  0  0
   -0.9137    0.8170   -0.8875 C   0  0  1  0  0  0  0  0  0  0  0  0
   -1.0122    1.5918   -1.6530 H   0  0  0  0  0  0  0  0  0  0  0  0
   -0.8071    1.5412    0.4687 C   0  0  0  0  0  0  0  0  0  0  0  0
   -0.8522    0.8192    1.2898 H   0  0  0  0  0  0  0  0  0  0  0  0
    0.1568    2.0539    0.5472 H   0  0  0  0  0  0  0  0  0  0  0  0
   -1.9143    2.5527    0.6064 C   0  0  0  0  0  0  0  0  0  0  0  0
   -3.1009    2.3525    1.2671 C   0  0  0  0  0  0  0  0  0  0  0  0
   -3.3740    1.4457    1.8036 H   0  0  0  0  0  0  0  0  0  0  0  0
   -3.8656    3.5082    1.1176 N   0  0  0  0  0  0  0  0  0  0  0  0
   -4.7828    3.6635    1.5308 H   0  0  0  0  0  0  0  0  0  0  0  0
   -3.1775    4.4481    0.3657 C   0  0  0  0  0  0  0  0  0  0  0  0
   -3.5142    5.7374   -0.0474 C   0  0  0  0  0  0  0  0  0  0  0  0
   -4.4727    6.1658    0.2238 H   0  0  0  0  0  0  0  0  0  0  0  0
   -2.5974    6.4710   -0.8138 C   0  0  0  0  0  0  0  0  0  0  0  0
   -2.8461    7.4763   -1.1408 H   0  0  0  0  0  0  0  0  0  0  0  0
   -1.3563    5.9103   -1.1539 C   0  0  0  0  0  0  0  0  0  0  0  0
   -0.6456    6.4843   -1.7411 H   0  0  0  0  0  0  0  0  0  0  0  0
   -1.0272    4.6142   -0.7315 C   0  0  0  0  0  0  0  0  0  0  0  0
   -0.0649    4.1802   -0.9828 H   0  0  0  0  0  0  0  0  0  0  0  0
   -1.9503    3.8886    0.0280 C   0  0  0  0  0  0  0  0  0  0  0  0
    0.4078    0.0704   -1.2014 C   0  0  0  0  0  0  0  0  0  0  0  0
    1.0546   -0.5194   -0.3473 O   0  0  0  0  0  0  0  0  0  0  0  0
    1.0119    0.2782   -2.4309 N   0  0  0  0  0  0  0  0  0  0  0  0
    0.4888    0.7926   -3.1319 H   0  0  0  0  0  0  0  0  0  0  0  0
    2.3116   -0.2777   -2.7904 C   0  0  0  0  0  0  0  0  0  0  0  0
    2.2928   -1.3705   -2.7226 H   0  0  0  0  0  0  0  0  0  0  0  0
    2.5718    0.0002   -3.8162 H   0  0  0  0  0  0  0  0  0  0  0  0
    3.0902    0.1038   -2.1214 H   0  0  0  0  0  0  0  0  0  0  0  0
  1  2  1  0  0  0  0
  2  3  1  0  0  0  0
  2  4  1  0  0  0  0
  2  5  1  0  0  0  0
  5  6  2  0  0  0  0
  5  7  1  0  0  0  0
  7  8  1  0  0  0  0
  7  9  1  0  0  0  0
  9 10  1  0  0  0  0
  9 11  1  0  0  0  0
  9 29  1  0  0  0  0
 11 12  1  0  0  0  0
 11 13  1  0  0  0  0
 11 14  1  0  0  0  0
 14 15  2  0  0  0  0
 14 28  1  0  0  0  0
 15 16  1  0  0  0  0
 15 17  1  0  0  0  0
 17 18  1  0  0  0  0
 17 19  1  0  0  0  0
 19 20  1  0  0  0  0
 19 28  2  0  0  0  0
 20 21  1  0  0  0  0
 20 22  2  0  0  0  0
 22 23  1  0  0  0  0
 22 24  1  0  0  0  0
 24 25  1  0  0  0  0
 24 26  2  0  0  0  0
 26 27  1  0  0  0  0
 26 28  1  0  0  0  0
 29 30  2  0  0  0  0
 29 31  1  0  0  0  0
 31 32  1  0  0  0  0
 31 33  1  0  0  0  0
 33 34  1  0  0  0  0
 33 35  1  0  0  0  0
 33 36  1  0  0  0  0
M  END
$$$$

  -OEChem-01062216103D

 36 37  0     1  0  0  0  0  0999 V2000
   -3.7004   -2.8496    0.1309 H   0  0  0  0  0  0  0  0  0  0  0  0
   -3.6043   -2.0149   -0.5695 C   0  0  0  0  0  0  0  0  0  0  0  0
   -4.5399   -1.4507   -0.5753 H   0  0  0  0  0  0  0  0  0  0  0  0
   -3.4203   -2.4161   -1.5689 H   0  0  0  0  0  0  0  0  0  0  0  0
   -2.4565   -1.1137   -0.1528 C   0  0  0  0  0  0  0  0  0  0  0  0
   -1.8966   -1.3303    0.9060 O   0  0  0  0  0  0  0  0  0  0  0  0
   -2.1754   -0.0007   -0.9247 N   0  0  0  0  0  0  0  0  0  0  0  0
   -2.7631    0.1023   -1.7448 H   0  0  0  0  0  0  0  0  0  0  0  0
   -0.9552    0.8385   -0.8780 C   0  0  1  0  0  0  0  0  0  0  0  0
   -1.0666    1.6025   -1.6525 H   0  0  0  0  0  0  0  0  0  0  0  0
   -0.8020    1.5805    0.4634 C   0  0  0  0  0  0  0  0  0  0  0  0
   -0.8215    0.8773    1.3005 H   0  0  0  0  0  0  0  0  0  0  0  0
    0.1662    2.0895    0.5017 H   0  0  0  0  0  0  0  0  0  0  0  0
   -1.8937    2.6042    0.6181 C   0  0  0  0  0  0  0  0  0  0  0  0
   -3.0585    2.4132    1.3182 C   0  0  0  0  0  0  0  0  0  0  0  0
   -3.3181    1.5071    1.8633 H   0  0  0  0  0  0  0  0  0  0  0  0
   -3.8204    3.5730    1.1901 N   0  0  0  0  0  0  0  0  0  0  0  0
   -4.7274    3.7299    1.6244 H   0  0  0  0  0  0  0  0  0  0  0  0
   -3.1524    4.5051    0.4113 C   0  0  0  0  0  0  0  0  0  0  0  0
   -3.4971    5.7938    0.0041 C   0  0  0  0  0  0  0  0  0  0  0  0
   -4.4444    6.2264    0.3063 H   0  0  0  0  0  0  0  0  0  0  0  0
   -2.6033    6.5196   -0.7963 C   0  0  0  0  0  0  0  0  0  0  0  0
   -2.8586    7.5248   -1.1186 H   0  0  0  0  0  0  0  0  0  0  0  0
   -1.3775    5.9513   -1.1766 C   0  0  0  0  0  0  0  0  0  0  0  0
   -0.6859    6.5197   -1.7911 H   0  0  0  0  0  0  0  0  0  0  0  0
   -1.0403    4.6554   -0.7598 C   0  0  0  0  0  0  0  0  0  0  0  0
   -0.0901    4.2150   -1.0419 H   0  0  0  0  0  0  0  0  0  0  0  0
   -1.9400    3.9377    0.0346 C   0  0  0  0  0  0  0  0  0  0  0  0
    0.3631    0.0872   -1.1907 C   0  0  0  0  0  0  0  0  0  0  0  0
    0.7704   -0.8523   -0.5242 O   0  0  0  0  0  0  0  0  0  0  0  0
    1.1314    0.4994   -2.2673 N   0  0  0  0  0  0  0  0  0  0  0  0
    0.8103    1.3034   -2.7972 H   0  0  0  0  0  0  0  0  0  0  0  0
    2.4163   -0.1002   -2.6101 C   0  0  0  0  0  0  0  0  0  0  0  0
    2.3039   -1.1749   -2.7887 H   0  0  0  0  0  0  0  0  0  0  0  0
    2.8180    0.3591   -3.5182 H   0  0  0  0  0  0  0  0  0  0  0  0
    3.1365    0.0489   -1.7987 H   0  0  0  0  0  0  0  0  0  0  0  0
  1  2  1  0  0  0  0
  2  3  1  0  0  0  0
  2  4  1  0  0  0  0
  2  5  1  0  0  0  0
  5  6  2  0  0  0  0
  5  7  1  0  0  0  0
  7  8  1  0  0  0  0
  7  9  1  0  0  0  0
  9 10  1  0  0  0  0
  9 11  1  0  0  0  0
  9 29  1  0  0  0  0
 11 12  1  0  0  0  0
 11 13  1  0  0  0  0
 11 14  1  0  0  0  0
 14 15  2  0  0  0  0
 14 28  1  0  0  0  0
 15 16  1  0  0  0  0
 15 17  1  0  0  0  0
 17 18  1  0  0  0  0
 17 19  1  0  0  0  0
 19 20  1  0  0  0  0
 19 28  2  0  0  0  0
 20 21  1  0  0  0  0
 20 22  2  0  0  0  0
 22 23  1  0  0  0  0
 22 24  1  0  0  0  0
 24 25  1  0  0  0  0
 24 26  2  0  0  0  0
 26 27  1  0  0  0  0
 26 28  1  0  0  0  0
 29 30  2  0  0  0  0
 29 31  1  0  0  0  0
 31 32  1  0  0  0  0
 31 33  1  0  0  0  0
 33 34  1  0  0  0  0
 33 35  1  0  0  0  0
 33 36  1  0  0  0  0
M  END
$$$$

  -OEChem-01062216103D

 36 37  0     1  0  0  0  0  0999 V2000
   -3.5747   -2.9267    0.1174 H   0  0  0  0  0  0  0  0  0  0  0  0
   -3.4826   -2.1094   -0.6035 C   0  0  0  0  0  0  0  0  0  0  0  0
   -4.4557   -1.6258   -0.7154 H   0  0  0  0  0  0  0  0  0  0  0  0
   -3.1742   -2.5255   -1.5655 H   0  0  0  0  0  0  0  0  0  0  0  0
   -2.4536   -1.1035   -0.1229 C   0  0  0  0  0  0  0  0  0  0  0  0
   -1.9664   -1.2422    0.9857 O   0  0  0  0  0  0  0  0  0  0  0  0
   -2.1985    0.0124   -0.9005 N   0  0  0  0  0  0  0  0  0  0  0  0
   -2.7040    0.0255   -1.7796 H   0  0  0  0  0  0  0  0  0  0  0  0
   -0.9781    0.8517   -0.8413 C   0  0  1  0  0  0  0  0  0  0  0  0
   -1.0883    1.6100   -1.6218 H   0  0  0  0  0  0  0  0  0  0  0  0
   -0.8247    1.6060    0.4936 C   0  0  0  0  0  0  0  0  0  0  0  0
   -0.8470    0.9145    1.3397 H   0  0  0  0  0  0  0  0  0  0  0  0
    0.1439    2.1143    0.5291 H   0  0  0  0  0  0  0  0  0  0  0  0
   -1.9129    2.6354    0.6313 C   0  0  0  0  0  0  0  0  0  0  0  0
   -3.0819    2.4564    1.3272 C   0  0  0  0  0  0  0  0  0  0  0  0
   -3.3519    1.5527    1.8715 H   0  0  0  0  0  0  0  0  0  0  0  0
   -3.8338    3.6219    1.1910 N   0  0  0  0  0  0  0  0  0  0  0  0
   -4.7453    3.7839    1.6136 H   0  0  0  0  0  0  0  0  0  0  0  0
   -3.1537    4.5470    0.4139 C   0  0  0  0  0  0  0  0  0  0  0  0
   -3.4855    5.8372    0.0000 C   0  0  0  0  0  0  0  0  0  0  0  0
   -4.4321    6.2781    0.2925 H   0  0  0  0  0  0  0  0  0  0  0  0
   -2.5797    6.5543   -0.7947 C   0  0  0  0  0  0  0  0  0  0  0  0
   -2.8246    7.5602   -1.1226 H   0  0  0  0  0  0  0  0  0  0  0  0
   -1.3550    5.9763   -1.1633 C   0  0  0  0  0  0  0  0  0  0  0  0
   -0.6541    6.5382   -1.7735 H   0  0  0  0  0  0  0  0  0  0  0  0
   -1.0315    4.6786   -0.7417 C   0  0  0  0  0  0  0  0  0  0  0  0
   -0.0828    4.2309   -1.0165 H   0  0  0  0  0  0  0  0  0  0  0  0
   -1.9432    3.9690    0.0465 C   0  0  0  0  0  0  0  0  0  0  0  0
    0.3423    0.1036   -1.1539 C   0  0  0  0  0  0  0  0  0  0  0  0
    0.5318   -1.0649   -0.8473 O   0  0  0  0  0  0  0  0  0  0  0  0
    1.2618    0.7011   -2.0004 N   0  0  0  0  0  0  0  0  0  0  0  0
    1.0964    1.6654   -2.2712 H   0  0  0  0  0  0  0  0  0  0  0  0
    2.4990    0.0552   -2.4252 C   0  0  0  0  0  0  0  0  0  0  0  0
    2.2819   -0.8698   -2.9698 H   0  0  0  0  0  0  0  0  0  0  0  0
    3.0649    0.7190   -3.0858 H   0  0  0  0  0  0  0  0  0  0  0  0
    3.1234   -0.1845   -1.5580 H   0  0  0  0  0  0  0  0  0  0  0  0
  1  2  1  0  0  0  0
  2  3  1  0  0  0  0
  2  4  1  0  0  0  0
  2  5  1  0  0  0  0
  5  6  2  0  0  0  0
  5  7  1  0  0  0  0
  7  8  1  0  0  0  0
  7  9  1  0  0  0  0
  9 10  1  0  0  0  0
  9 11  1  0  0  0  0
  9 29  1  0  0  0  0
 11 12  1  0  0  0  0
 11 13  1  0  0  0  0
 11 14  1  0  0  0  0
 14 15  2  0  0  0  0
 14 28  1  0  0  0  0
 15 16  1  0  0  0  0
 15 17  1  0  0  0  0
 17 18  1  0  0  0  0
 17 19  1  0  0  0  0
 19 20  1  0  0  0  0
 19 28  2  0  0  0  0
 20 21  1  0  0  0  0
 20 22  2  0  0  0  0
 22 23  1  0  0  0  0
 22 24  1  0  0  0  0
 24 25  1  0  0  0  0
 24 26  2  0  0  0  0
 26 27  1  0  0  0  0
 26 28  1  0  0  0  0
 29 30  2  0  0  0  0
 29 31  1  0  0  0  0
 31 32  1  0  0  0  0
 31 33  1  0  0  0  0
 33 34  1  0  0  0  0
 33 35  1  0  0  0  0
 33 36  1  0  0  0  0
M  END
$$$$

  -OEChem-01062216103D

 36 37  0     1  0  0  0  0  0999 V2000
   -3.5654   -2.9282    0.1286 H   0  0  0  0  0  0  0  0  0  0  0  0
   -3.4746   -2.1142   -0.5962 C   0  0  0  0  0  0  0  0  0  0  0  0
   -4.4473   -1.6292   -0.7070 H   0  0  0  0  0  0  0  0  0  0  0  0
   -3.1695   -2.5344   -1.5578 H   0  0  0  0  0  0  0  0  0  0  0  0
   -2.4426   -1.1077   -0.1233 C   0  0  0  0  0  0  0  0  0  0  0  0
   -1.9221   -1.2602    0.9693 O   0  0  0  0  0  0  0  0  0  0  0  0
   -2.1963    0.0121   -0.8980 N   0  0  0  0  0  0  0  0  0  0  0  0
   -2.6871    0.0151   -1.7855 H   0  0  0  0  0  0  0  0  0  0  0  0
   -0.9766    0.8505   -0.8272 C   0  0  1  0  0  0  0  0  0  0  0  0
   -1.0785    1.6070   -1.6108 H   0  0  0  0  0  0  0  0  0  0  0  0
   -0.8363    1.6087    0.5080 C   0  0  0  0  0  0  0  0  0  0  0  0
   -0.8691    0.9195    1.3552 H   0  0  0  0  0  0  0  0  0  0  0  0
    0.1321    2.1158    0.5547 H   0  0  0  0  0  0  0  0  0  0  0  0
   -1.9238    2.6408    0.6353 C   0  0  0  0  0  0  0  0  0  0  0  0
   -3.0989    2.4640    1.3219 C   0  0  0  0  0  0  0  0  0  0  0  0
   -3.3764    1.5615    1.8642 H   0  0  0  0  0  0  0  0  0  0  0  0
   -3.8469    3.6314    1.1822 N   0  0  0  0  0  0  0  0  0  0  0  0
   -4.7614    3.7952    1.5978 H   0  0  0  0  0  0  0  0  0  0  0  0
   -3.1594    4.5551    0.4109 C   0  0  0  0  0  0  0  0  0  0  0  0
   -3.4877    5.8464   -0.0019 C   0  0  0  0  0  0  0  0  0  0  0  0
   -4.4352    6.2875    0.2869 H   0  0  0  0  0  0  0  0  0  0  0  0
   -2.5775    6.5641   -0.7907 C   0  0  0  0  0  0  0  0  0  0  0  0
   -2.8202    7.5711   -1.1176 H   0  0  0  0  0  0  0  0  0  0  0  0
   -1.3522    5.9849   -1.1550 C   0  0  0  0  0  0  0  0  0  0  0  0
   -0.6489    6.5467   -1.7625 H   0  0  0  0  0  0  0  0  0  0  0  0
   -1.0323    4.6859   -0.7337 C   0  0  0  0  0  0  0  0  0  0  0  0
   -0.0836    4.2381   -1.0072 H   0  0  0  0  0  0  0  0  0  0  0  0
   -1.9476    3.9754    0.0502 C   0  0  0  0  0  0  0  0  0  0  0  0
    0.3437    0.1007   -1.1392 C   0  0  0  0  0  0  0  0  0  0  0  0
    0.4134   -1.1216   -1.1637 O   0  0  0  0  0  0  0  0  0  0  0  0
    1.3915    0.8083   -1.7050 N   0  0  0  0  0  0  0  0  0  0  0  0
    1.3211    1.8208   -1.7186 H   0  0  0  0  0  0  0  0  0  0  0  0
    2.6292    0.1847   -2.1593 C   0  0  0  0  0  0  0  0  0  0  0  0
    2.4246   -0.5390   -2.9552 H   0  0  0  0  0  0  0  0  0  0  0  0
    3.3134    0.9433   -2.5510 H   0  0  0  0  0  0  0  0  0  0  0  0
    3.1240   -0.3330   -1.3308 H   0  0  0  0  0  0  0  0  0  0  0  0
  1  2  1  0  0  0  0
  2  3  1  0  0  0  0
  2  4  1  0  0  0  0
  2  5  1  0  0  0  0
  5  6  2  0  0  0  0
  5  7  1  0  0  0  0
  7  8  1  0  0  0  0
  7  9  1  0  0  0  0
  9 10  1  0  0  0  0
  9 11  1  0  0  0  0
  9 29  1  0  0  0  0
 11 12  1  0  0  0  0
 11 13  1  0  0  0  0
 11 14  1  0  0  0  0
 14 15  2  0  0  0  0
 14 28  1  0  0  0  0
 15 16  1  0  0  0  0
 15 17  1  0  0  0  0
 17 18  1  0  0  0  0
 17 19  1  0  0  0  0
 19 20  1  0  0  0  0
 19 28  2  0  0  0  0
 20 21  1  0  0  0  0
 20 22  2  0  0  0  0
 22 23  1  0  0  0  0
 22 24  1  0  0  0  0
 24 25  1  0  0  0  0
 24 26  2  0  0  0  0
 26 27  1  0  0  0  0
 26 28  1  0  0  0  0
 29 30  2  0  0  0  0
 29 31  1  0  0  0  0
 31 32  1  0  0  0  0
 31 33  1  0  0  0  0
 33 34  1  0  0  0  0
 33 35  1  0  0  0  0
 33 36  1  0  0  0  0
M  END
$$$$

  -OEChem-01062216103D

 36 37  0     1  0  0  0  0  0999 V2000
   -3.5628   -2.9094    0.1385 H   0  0  0  0  0  0  0  0  0  0  0  0
   -3.4784   -2.0926   -0.5839 C   0  0  0  0  0  0  0  0  0  0  0  0
   -4.4474   -1.5953   -0.6693 H   0  0  0  0  0  0  0  0  0  0  0  0
   -3.2017   -2.5115   -1.5546 H   0  0  0  0  0  0  0  0  0  0  0  0
   -2.4225   -1.1015   -0.1316 C   0  0  0  0  0  0  0  0  0  0  0  0
   -1.8516   -1.2831    0.9313 O   0  0  0  0  0  0  0  0  0  0  0  0
   -2.1853    0.0226   -0.9021 N   0  0  0  0  0  0  0  0  0  0  0  0
   -2.6823    0.0339   -1.7862 H   0  0  0  0  0  0  0  0  0  0  0  0
   -0.9686    0.8634   -0.8252 C   0  0  1  0  0  0  0  0  0  0  0  0
   -1.0620    1.6216   -1.6082 H   0  0  0  0  0  0  0  0  0  0  0  0
   -0.8433    1.6178    0.5157 C   0  0  0  0  0  0  0  0  0  0  0  0
   -0.8824    0.9254    1.3598 H   0  0  0  0  0  0  0  0  0  0  0  0
    0.1208    2.1307    0.5766 H   0  0  0  0  0  0  0  0  0  0  0  0
   -1.9361    2.6444    0.6383 C   0  0  0  0  0  0  0  0  0  0  0  0
   -3.1165    2.4611    1.3143 C   0  0  0  0  0  0  0  0  0  0  0  0
   -3.3960    1.5559    1.8508 H   0  0  0  0  0  0  0  0  0  0  0  0
   -3.8656    3.6279    1.1757 N   0  0  0  0  0  0  0  0  0  0  0  0
   -4.7844    3.7874    1.5835 H   0  0  0  0  0  0  0  0  0  0  0  0
   -3.1752    4.5567    0.4126 C   0  0  0  0  0  0  0  0  0  0  0  0
   -3.5035    5.8489    0.0022 C   0  0  0  0  0  0  0  0  0  0  0  0
   -4.4532    6.2880    0.2875 H   0  0  0  0  0  0  0  0  0  0  0  0
   -2.5912    6.5693   -0.7815 C   0  0  0  0  0  0  0  0  0  0  0  0
   -2.8339    7.5765   -1.1070 H   0  0  0  0  0  0  0  0  0  0  0  0
   -1.3647    5.9916   -1.1444 C   0  0  0  0  0  0  0  0  0  0  0  0
   -0.6608    6.5539   -1.7505 H   0  0  0  0  0  0  0  0  0  0  0  0
   -1.0445    4.6922   -0.7250 C   0  0  0  0  0  0  0  0  0  0  0  0
   -0.0959    4.2448   -1.0002 H   0  0  0  0  0  0  0  0  0  0  0  0
   -1.9608    3.9799    0.0559 C   0  0  0  0  0  0  0  0  0  0  0  0
    0.3452    0.1041   -1.1422 C   0  0  0  0  0  0  0  0  0  0  0  0
    0.3443   -1.0832   -1.4463 O   0  0  0  0  0  0  0  0  0  0  0  0
    1.4959    0.8284   -1.4066 N   0  0  0  0  0  0  0  0  0  0  0  0
    1.4885    1.8179   -1.1806 H   0  0  0  0  0  0  0  0  0  0  0  0
    2.7462    0.2179   -1.8435 C   0  0  0  0  0  0  0  0  0  0  0  0
    2.6104   -0.2864   -2.8061 H   0  0  0  0  0  0  0  0  0  0  0  0
    3.5197    0.9828   -1.9611 H   0  0  0  0  0  0  0  0  0  0  0  0
    3.0932   -0.5148   -1.1071 H   0  0  0  0  0  0  0  0  0  0  0  0
  1  2  1  0  0  0  0
  2  3  1  0  0  0  0
  2  4  1  0  0  0  0
  2  5  1  0  0  0  0
  5  6  2  0  0  0  0
  5  7  1  0  0  0  0
  7  8  1  0  0  0  0
  7  9  1  0  0  0  0
  9 10  1  0  0  0  0
  9 11  1  0  0  0  0
  9 29  1  0  0  0  0
 11 12  1  0  0  0  0
 11 13  1  0  0  0  0
 11 14  1  0  0  0  0
 14 15  2  0  0  0  0
 14 28  1  0  0  0  0
 15 16  1  0  0  0  0
 15 17  1  0  0  0  0
 17 18  1  0  0  0  0
 17 19  1  0  0  0  0
 19 20  1  0  0  0  0
 19 28  2  0  0  0  0
 20 21  1  0  0  0  0
 20 22  2  0  0  0  0
 22 23  1  0  0  0  0
 22 24  1  0  0  0  0
 24 25  1  0  0  0  0
 24 26  2  0  0  0  0
 26 27  1  0  0  0  0
 26 28  1  0  0  0  0
 29 30  2  0  0  0  0
 29 31  1  0  0  0  0
 31 32  1  0  0  0  0
 31 33  1  0  0  0  0
 33 34  1  0  0  0  0
 33 35  1  0  0  0  0
 33 36  1  0  0  0  0
M  END
$$$$

  -OEChem-01062216103D

 36 37  0     1  0  0  0  0  0999 V2000
   -3.6312   -2.9043    0.0268 H   0  0  0  0  0  0  0  0  0  0  0  0
   -3.5334   -2.0430   -0.6401 C   0  0  0  0  0  0  0  0  0  0  0  0
   -4.4721   -1.4841   -0.6338 H   0  0  0  0  0  0  0  0  0  0  0  0
   -3.3373   -2.4046   -1.6526 H   0  0  0  0  0  0  0  0  0  0  0  0
   -2.3946   -1.1512   -0.1813 C   0  0  0  0  0  0  0  0  0  0  0  0
   -1.7625   -1.4671    0.8128 O   0  0  0  0  0  0  0  0  0  0  0  0
   -2.1291    0.0015   -0.8969 N   0  0  0  0  0  0  0  0  0  0  0  0
   -2.6481    0.0760   -1.7658 H   0  0  0  0  0  0  0  0  0  0  0  0
   -0.9211    0.8539   -0.7920 C   0  0  1  0  0  0  0  0  0  0  0  0
   -1.1272    1.7600   -1.3693 H   0  0  0  0  0  0  0  0  0  0  0  0
   -0.5804    1.3246    0.6415 C   0  0  0  0  0  0  0  0  0  0  0  0
   -0.4614    0.4815    1.3244 H   0  0  0  0  0  0  0  0  0  0  0  0
    0.3720    1.8607    0.6501 H   0  0  0  0  0  0  0  0  0  0  0  0
   -1.6397    2.2661    1.1446 C   0  0  0  0  0  0  0  0  0  0  0  0
   -2.6927    1.9036    1.9464 C   0  0  0  0  0  0  0  0  0  0  0  0
   -2.8766    0.8973    2.3198 H   0  0  0  0  0  0  0  0  0  0  0  0
   -3.4578    3.0451    2.1760 N   0  0  0  0  0  0  0  0  0  0  0  0
   -4.2969    3.0829    2.7505 H   0  0  0  0  0  0  0  0  0  0  0  0
   -2.9066    4.1351    1.5205 C   0  0  0  0  0  0  0  0  0  0  0  0
   -3.3054    5.4697    1.4431 C   0  0  0  0  0  0  0  0  0  0  0  0
   -4.1979    5.8036    1.9607 H   0  0  0  0  0  0  0  0  0  0  0  0
   -2.5394    6.3691    0.6881 C   0  0  0  0  0  0  0  0  0  0  0  0
   -2.8387    7.4106    0.6191 H   0  0  0  0  0  0  0  0  0  0  0  0
   -1.3868    5.9252    0.0221 C   0  0  0  0  0  0  0  0  0  0  0  0
   -0.7959    6.6252   -0.5607 H   0  0  0  0  0  0  0  0  0  0  0  0
   -0.9947    4.5814    0.1073 C   0  0  0  0  0  0  0  0  0  0  0  0
   -0.1036    4.2372   -0.4058 H   0  0  0  0  0  0  0  0  0  0  0  0
   -1.7650    3.6902    0.8620 C   0  0  0  0  0  0  0  0  0  0  0  0
    0.3049    0.2001   -1.4787 C   0  0  0  0  0  0  0  0  0  0  0  0
    0.1691   -0.7887   -2.1914 O   0  0  0  0  0  0  0  0  0  0  0  0
    1.5331    0.8409   -1.4883 N   0  0  0  0  0  0  0  0  0  0  0  0
    1.6423    1.6521   -0.8878 H   0  0  0  0  0  0  0  0  0  0  0  0
    2.7080    0.3124   -2.1719 C   0  0  0  0  0  0  0  0  0  0  0  0
    2.5127    0.2040   -3.2440 H   0  0  0  0  0  0  0  0  0  0  0  0
    3.5568    0.9910   -2.0441 H   0  0  0  0  0  0  0  0  0  0  0  0
    2.9815   -0.6657   -1.7621 H   0  0  0  0  0  0  0  0  0  0  0  0
  1  2  1  0  0  0  0
  2  3  1  0  0  0  0
  2  4  1  0  0  0  0
  2  5  1  0  0  0  0
  5  6  2  0  0  0  0
  5  7  1  0  0  0  0
  7  8  1  0  0  0  0
  7  9  1  0  0  0  0
  9 10  1  0  0  0  0
  9 11  1  0  0  0  0
  9 29  1  0  0  0  0
 11 12  1  0  0  0  0
 11 13  1  0  0  0  0
 11 14  1  0  0  0  0
 14 15  2  0  0  0  0
 14 28  1  0  0  0  0
 15 16  1  0  0  0  0
 15 17  1  0  0  0  0
 17 18  1  0  0  0  0
 17 19  1  0  0  0  0
 19 20  1  0  0  0  0
 19 28  2  0  0  0  0
 20 21  1  0  0  0  0
 20 22  2  0  0  0  0
 22 23  1  0  0  0  0
 22 24  1  0  0  0  0
 24 25  1  0  0  0  0
 24 26  2  0  0  0  0
 26 27  1  0  0  0  0
 26 28  1  0  0  0  0
 29 30  2  0  0  0  0
 29 31  1  0  0  0  0
 31 32  1  0  0  0  0
 31 33  1  0  0  0  0
 33 34  1  0  0  0  0
 33 35  1  0  0  0  0
 33 36  1  0  0  0  0
M  END
$$$$

  -OEChem-01062216103D

 36 37  0     1  0  0  0  0  0999 V2000
   -3.6077   -2.8863    0.0237 H   0  0  0  0  0  0  0  0  0  0  0  0
   -3.5175   -2.0169   -0.6336 C   0  0  0  0  0  0  0  0  0  0  0  0
   -4.4505   -1.4496   -0.5979 H   0  0  0  0  0  0  0  0  0  0  0  0
   -3.3480   -2.3658   -1.6554 H   0  0  0  0  0  0  0  0  0  0  0  0
   -2.3609   -1.1414   -0.1899 C   0  0  0  0  0  0  0  0  0  0  0  0
   -1.6876   -1.4895    0.7657 O   0  0  0  0  0  0  0  0  0  0  0  0
   -2.1048    0.0221   -0.8897 N   0  0  0  0  0  0  0  0  0  0  0  0
   -2.6388    0.1209   -1.7475 H   0  0  0  0  0  0  0  0  0  0  0  0
   -0.9021    0.8787   -0.7726 C   0  0  1  0  0  0  0  0  0  0  0  0
   -1.1051    1.7889   -1.3446 H   0  0  0  0  0  0  0  0  0  0  0  0
   -0.5809    1.3427    0.6686 C   0  0  0  0  0  0  0  0  0  0  0  0
   -0.4669    0.4964    1.3487 H   0  0  0  0  0  0  0  0  0  0  0  0
    0.3654    1.8886    0.6927 H   0  0  0  0  0  0  0  0  0  0  0  0
   -1.6527    2.2755    1.1611 C   0  0  0  0  0  0  0  0  0  0  0  0
   -2.7161    1.9066    1.9466 C   0  0  0  0  0  0  0  0  0  0  0  0
   -2.9004    0.8990    2.3166 H   0  0  0  0  0  0  0  0  0  0  0  0
   -3.4912    3.0437    2.1651 N   0  0  0  0  0  0  0  0  0  0  0  0
   -4.3395    3.0765    2.7264 H   0  0  0  0  0  0  0  0  0  0  0  0
   -2.9370    4.1366    1.5171 C   0  0  0  0  0  0  0  0  0  0  0  0
   -3.3420    5.4687    1.4325 C   0  0  0  0  0  0  0  0  0  0  0  0
   -4.2438    5.7983    1.9366 H   0  0  0  0  0  0  0  0  0  0  0  0
   -2.5702    6.3718    0.6877 C   0  0  0  0  0  0  0  0  0  0  0  0
   -2.8743    7.4115    0.6124 H   0  0  0  0  0  0  0  0  0  0  0  0
   -1.4056    5.9341    0.0387 C   0  0  0  0  0  0  0  0  0  0  0  0
   -0.8108    6.6365   -0.5373 H   0  0  0  0  0  0  0  0  0  0  0  0
   -1.0073    4.5927    0.1311 C   0  0  0  0  0  0  0  0  0  0  0  0
   -0.1071    4.2527   -0.3693 H   0  0  0  0  0  0  0  0  0  0  0  0
   -1.7833    3.6983    0.8761 C   0  0  0  0  0  0  0  0  0  0  0  0
    0.3157    0.2242   -1.4740 C   0  0  0  0  0  0  0  0  0  0  0  0
    0.1382   -0.5920   -2.3724 O   0  0  0  0  0  0  0  0  0  0  0  0
    1.6082    0.6673   -1.2464 N   0  0  0  0  0  0  0  0  0  0  0  0
    1.7517    1.3024   -0.4677 H   0  0  0  0  0  0  0  0  0  0  0  0
    2.7773    0.0898   -1.8991 C   0  0  0  0  0  0  0  0  0  0  0  0
    2.6837    0.1582   -2.9881 H   0  0  0  0  0  0  0  0  0  0  0  0
    3.6817    0.6273   -1.5982 H   0  0  0  0  0  0  0  0  0  0  0  0
    2.8896   -0.9631   -1.6200 H   0  0  0  0  0  0  0  0  0  0  0  0
  1  2  1  0  0  0  0
  2  3  1  0  0  0  0
  2  4  1  0  0  0  0
  2  5  1  0  0  0  0
  5  6  2  0  0  0  0
  5  7  1  0  0  0  0
  7  8  1  0  0  0  0
  7  9  1  0  0  0  0
  9 10  1  0  0  0  0
  9 11  1  0  0  0  0
  9 29  1  0  0  0  0
 11 12  1  0  0  0  0
 11 13  1  0  0  0  0
 11 14  1  0  0  0  0
 14 15  2  0  0  0  0
 14 28  1  0  0  0  0
 15 16  1  0  0  0  0
 15 17  1  0  0  0  0
 17 18  1  0  0  0  0
 17 19  1  0  0  0  0
 19 20  1  0  0  0  0
 19 28  2  0  0  0  0
 20 21  1  0  0  0  0
 20 22  2  0  0  0  0
 22 23  1  0  0  0  0
 22 24  1  0  0  0  0
 24 25  1  0  0  0  0
 24 26  2  0  0  0  0
 26 27  1  0  0  0  0
 26 28  1  0  0  0  0
 29 30  2  0  0  0  0
 29 31  1  0  0  0  0
 31 32  1  0  0  0  0
 31 33  1  0  0  0  0
 33 34  1  0  0  0  0
 33 35  1  0  0  0  0
 33 36  1  0  0  0  0
M  END
$$$$

  -OEChem-01062216103D

 36 37  0     1  0  0  0  0  0999 V2000
   -3.5924   -2.8726    0.0353 H   0  0  0  0  0  0  0  0  0  0  0  0
   -3.5077   -2.0009   -0.6197 C   0  0  0  0  0  0  0  0  0  0  0  0
   -4.4340   -1.4246   -0.5608 H   0  0  0  0  0  0  0  0  0  0  0  0
   -3.3642   -2.3457   -1.6468 H   0  0  0  0  0  0  0  0  0  0  0  0
   -2.3326   -1.1396   -0.1969 C   0  0  0  0  0  0  0  0  0  0  0  0
   -1.6311   -1.5052    0.7316 O   0  0  0  0  0  0  0  0  0  0  0  0
   -2.0808    0.0281   -0.8903 N   0  0  0  0  0  0  0  0  0  0  0  0
   -2.6306    0.1478   -1.7356 H   0  0  0  0  0  0  0  0  0  0  0  0
   -0.8867    0.8927   -0.7616 C   0  0  1  0  0  0  0  0  0  0  0  0
   -1.0878    1.8025   -1.3353 H   0  0  0  0  0  0  0  0  0  0  0  0
   -0.5848    1.3590    0.6826 C   0  0  0  0  0  0  0  0  0  0  0  0
   -0.4721    0.5139    1.3645 H   0  0  0  0  0  0  0  0  0  0  0  0
    0.3560    1.9149    0.7132 H   0  0  0  0  0  0  0  0  0  0  0  0
   -1.6680    2.2836    1.1647 C   0  0  0  0  0  0  0  0  0  0  0  0
   -2.7380    1.9102    1.9391 C   0  0  0  0  0  0  0  0  0  0  0  0
   -2.9227    0.9025    2.3078 H   0  0  0  0  0  0  0  0  0  0  0  0
   -3.5190    3.0446    2.1505 N   0  0  0  0  0  0  0  0  0  0  0  0
   -4.3731    3.0750    2.7032 H   0  0  0  0  0  0  0  0  0  0  0  0
   -2.9609    4.1403    1.5104 C   0  0  0  0  0  0  0  0  0  0  0  0
   -3.3672    5.4718    1.4243 C   0  0  0  0  0  0  0  0  0  0  0  0
   -4.2745    5.7990    1.9199 H   0  0  0  0  0  0  0  0  0  0  0  0
   -2.5890    6.3776    0.6894 C   0  0  0  0  0  0  0  0  0  0  0  0
   -2.8935    7.4172    0.6132 H   0  0  0  0  0  0  0  0  0  0  0  0
   -1.4170    5.9431    0.0513 C   0  0  0  0  0  0  0  0  0  0  0  0
   -0.8168    6.6472   -0.5171 H   0  0  0  0  0  0  0  0  0  0  0  0
   -1.0175    4.6023    0.1451 C   0  0  0  0  0  0  0  0  0  0  0  0
   -0.1115    4.2639   -0.3464 H   0  0  0  0  0  0  0  0  0  0  0  0
   -1.7998    3.7059    0.8806 C   0  0  0  0  0  0  0  0  0  0  0  0
    0.3320    0.2393   -1.4600 C   0  0  0  0  0  0  0  0  0  0  0  0
    0.1618   -0.3876   -2.5004 O   0  0  0  0  0  0  0  0  0  0  0  0
    1.6306    0.4498   -1.0265 N   0  0  0  0  0  0  0  0  0  0  0  0
    1.7476    0.8832   -0.1158 H   0  0  0  0  0  0  0  0  0  0  0  0
    2.7895   -0.1767   -1.6510 C   0  0  0  0  0  0  0  0  0  0  0  0
    2.8385    0.0778   -2.7151 H   0  0  0  0  0  0  0  0  0  0  0  0
    3.7101    0.1713   -1.1727 H   0  0  0  0  0  0  0  0  0  0  0  0
    2.7356   -1.2658   -1.5509 H   0  0  0  0  0  0  0  0  0  0  0  0
  1  2  1  0  0  0  0
  2  3  1  0  0  0  0
  2  4  1  0  0  0  0
  2  5  1  0  0  0  0
  5  6  2  0  0  0  0
  5  7  1  0  0  0  0
  7  8  1  0  0  0  0
  7  9  1  0  0  0  0
  9 10  1  0  0  0  0
  9 11  1  0  0  0  0
  9 29  1  0  0  0  0
 11 12  1  0  0  0  0
 11 13  1  0  0  0  0
 11 14  1  0  0  0  0
 14 15  2  0  0  0  0
 14 28  1  0  0  0  0
 15 16  1  0  0  0  0
 15 17  1  0  0  0  0
 17 18  1  0  0  0  0
 17 19  1  0  0  0  0
 19 20  1  0  0  0  0
 19 28  2  0  0  0  0
 20 21  1  0  0  0  0
 20 22  2  0  0  0  0
 22 23  1  0  0  0  0
 22 24  1  0  0  0  0
 24 25  1  0  0  0  0
 24 26  2  0  0  0  0
 26 27  1  0  0  0  0
 26 28  1  0  0  0  0
 29 30  2  0  0  0  0
 29 31  1  0  0  0  0
 31 32  1  0  0  0  0
 31 33  1  0  0  0  0
 33 34  1  0  0  0  0
 33 35  1  0  0  0  0
 33 36  1  0  0  0  0
M  END
$$$$

  -OEChem-01062216103D

 36 37  0     1  0  0  0  0  0999 V2000
   -3.5912   -2.8521    0.0583 H   0  0  0  0  0  0  0  0  0  0  0  0
   -3.5089   -1.9819   -0.5990 C   0  0  0  0  0  0  0  0  0  0  0  0
   -4.4235   -1.3901   -0.5157 H   0  0  0  0  0  0  0  0  0  0  0  0
   -3.3981   -2.3286   -1.6295 H   0  0  0  0  0  0  0  0  0  0  0  0
   -2.3088   -1.1411   -0.2074 C   0  0  0  0  0  0  0  0  0  0  0  0
   -1.5769   -1.5268    0.6891 O   0  0  0  0  0  0  0  0  0  0  0  0
   -2.0590    0.0289   -0.8962 N   0  0  0  0  0  0  0  0  0  0  0  0
   -2.6409    0.1856   -1.7136 H   0  0  0  0  0  0  0  0  0  0  0  0
   -0.8722    0.8990   -0.7537 C   0  0  1  0  0  0  0  0  0  0  0  0
   -1.0706    1.8087   -1.3289 H   0  0  0  0  0  0  0  0  0  0  0  0
   -0.5870    1.3657    0.6926 C   0  0  0  0  0  0  0  0  0  0  0  0
   -0.4804    0.5208    1.3760 H   0  0  0  0  0  0  0  0  0  0  0  0
    0.3536    1.9231    0.7276 H   0  0  0  0  0  0  0  0  0  0  0  0
   -1.6789    2.2848    1.1653 C   0  0  0  0  0  0  0  0  0  0  0  0
   -2.7557    1.9094    1.9295 C   0  0  0  0  0  0  0  0  0  0  0  0
   -2.9423    0.9018    2.2974 H   0  0  0  0  0  0  0  0  0  0  0  0
   -3.5402    3.0428    2.1336 N   0  0  0  0  0  0  0  0  0  0  0  0
   -4.3984    3.0728    2.6797 H   0  0  0  0  0  0  0  0  0  0  0  0
   -2.9771    4.1399    1.5002 C   0  0  0  0  0  0  0  0  0  0  0  0
   -3.3823    5.4717    1.4126 C   0  0  0  0  0  0  0  0  0  0  0  0
   -4.2935    5.7993    1.9010 H   0  0  0  0  0  0  0  0  0  0  0  0
   -2.5971    6.3784    0.6860 C   0  0  0  0  0  0  0  0  0  0  0  0
   -2.9007    7.4185    0.6099 H   0  0  0  0  0  0  0  0  0  0  0  0
   -1.4195    5.9444    0.0578 C   0  0  0  0  0  0  0  0  0  0  0  0
   -0.8146    6.6495   -0.5045 H   0  0  0  0  0  0  0  0  0  0  0  0
   -1.0203    4.6036    0.1543 C   0  0  0  0  0  0  0  0  0  0  0  0
   -0.1093    4.2652   -0.3281 H   0  0  0  0  0  0  0  0  0  0  0  0
   -1.8100    3.7068    0.8812 C   0  0  0  0  0  0  0  0  0  0  0  0
    0.3516    0.2494   -1.4423 C   0  0  0  0  0  0  0  0  0  0  0  0
    0.2325   -0.1718   -2.5874 O   0  0  0  0  0  0  0  0  0  0  0  0
    1.5993    0.2017   -0.8437 N   0  0  0  0  0  0  0  0  0  0  0  0
    1.6360    0.4167    0.1483 H   0  0  0  0  0  0  0  0  0  0  0  0
    2.7434   -0.4684   -1.4495 C   0  0  0  0  0  0  0  0  0  0  0  0
    2.9484   -0.0570   -2.4436 H   0  0  0  0  0  0  0  0  0  0  0  0
    3.6345   -0.3279   -0.8300 H   0  0  0  0  0  0  0  0  0  0  0  0
    2.5513   -1.5423   -1.5448 H   0  0  0  0  0  0  0  0  0  0  0  0
  1  2  1  0  0  0  0
  2  3  1  0  0  0  0
  2  4  1  0  0  0  0
  2  5  1  0  0  0  0
  5  6  2  0  0  0  0
  5  7  1  0  0  0  0
  7  8  1  0  0  0  0
  7  9  1  0  0  0  0
  9 10  1  0  0  0  0
  9 11  1  0  0  0  0
  9 29  1  0  0  0  0
 11 12  1  0  0  0  0
 11 13  1  0  0  0  0
 11 14  1  0  0  0  0
 14 15  2  0  0  0  0
 14 28  1  0  0  0  0
 15 16  1  0  0  0  0
 15 17  1  0  0  0  0
 17 18  1  0  0  0  0
 17 19  1  0  0  0  0
 19 20  1  0  0  0  0
 19 28  2  0  0  0  0
 20 21  1  0  0  0  0
 20 22  2  0  0  0  0
 22 23  1  0  0  0  0
 22 24  1  0  0  0  0
 24 25  1  0  0  0  0
 24 26  2  0  0  0  0
 26 27  1  0  0  0  0
 26 28  1  0  0  0  0
 29 30  2  0  0  0  0
 29 31  1  0  0  0  0
 31 32  1  0  0  0  0
 31 33  1  0  0  0  0
 33 34  1  0  0  0  0
 33 35  1  0  0  0  0
 33 36  1  0  0  0  0
M  END
$$$$

  -OEChem-01062216103D

 36 37  0     1  0  0  0  0  0999 V2000
   -3.6015   -2.8268    0.0966 H   0  0  0  0  0  0  0  0  0  0  0  0
   -3.5204   -1.9612   -0.5670 C   0  0  0  0  0  0  0  0  0  0  0  0
   -4.4176   -1.3474   -0.4558 H   0  0  0  0  0  0  0  0  0  0  0  0
   -3.4525   -2.3139   -1.5991 H   0  0  0  0  0  0  0  0  0  0  0  0
   -2.2882   -1.1481   -0.2192 C   0  0  0  0  0  0  0  0  0  0  0  0
   -1.5213   -1.5577    0.6370 O   0  0  0  0  0  0  0  0  0  0  0  0
   -2.0388    0.0221   -0.9073 N   0  0  0  0  0  0  0  0  0  0  0  0
   -2.6619    0.2239   -1.6835 H   0  0  0  0  0  0  0  0  0  0  0  0
   -0.8584    0.8961   -0.7518 C   0  0  1  0  0  0  0  0  0  0  0  0
   -1.0538    1.8054   -1.3290 H   0  0  0  0  0  0  0  0  0  0  0  0
   -0.5890    1.3643    0.6962 C   0  0  0  0  0  0  0  0  0  0  0  0
   -0.4927    0.5190    1.3809 H   0  0  0  0  0  0  0  0  0  0  0  0
    0.3546    1.9171    0.7378 H   0  0  0  0  0  0  0  0  0  0  0  0
   -1.6879    2.2803    1.1594 C   0  0  0  0  0  0  0  0  0  0  0  0
   -2.7716    1.9051    1.9141 C   0  0  0  0  0  0  0  0  0  0  0  0
   -2.9626    0.8983    2.2813 H   0  0  0  0  0  0  0  0  0  0  0  0
   -3.5573    3.0386    2.1125 N   0  0  0  0  0  0  0  0  0  0  0  0
   -4.4197    3.0693    2.6519 H   0  0  0  0  0  0  0  0  0  0  0  0
   -2.9870    4.1366    1.4874 C   0  0  0  0  0  0  0  0  0  0  0  0
   -3.3888    5.4696    1.4005 C   0  0  0  0  0  0  0  0  0  0  0  0
   -4.3035    5.7970    1.8821 H   0  0  0  0  0  0  0  0  0  0  0  0
   -2.5957    6.3770    0.6836 C   0  0  0  0  0  0  0  0  0  0  0  0
   -2.8964    7.4178    0.6082 H   0  0  0  0  0  0  0  0  0  0  0  0
   -1.4141    5.9423    0.0631 C   0  0  0  0  0  0  0  0  0  0  0  0
   -0.8034    6.6473   -0.4930 H   0  0  0  0  0  0  0  0  0  0  0  0
   -1.0184    4.6003    0.1588 C   0  0  0  0  0  0  0  0  0  0  0  0
   -0.1046    4.2609   -0.3178 H   0  0  0  0  0  0  0  0  0  0  0  0
   -1.8154    3.7030    0.8771 C   0  0  0  0  0  0  0  0  0  0  0  0
    0.3736    0.2518   -1.4249 C   0  0  0  0  0  0  0  0  0  0  0  0
    0.3491    0.0501   -2.6334 O   0  0  0  0  0  0  0  0  0  0  0  0
    1.5181   -0.0642   -0.7135 N   0  0  0  0  0  0  0  0  0  0  0  0
    1.4253   -0.0748    0.2986 H   0  0  0  0  0  0  0  0  0  0  0  0
    2.6466   -0.7685   -1.3093 C   0  0  0  0  0  0  0  0  0  0  0  0
    3.0178   -0.2279   -2.1864 H   0  0  0  0  0  0  0  0  0  0  0  0
    3.4642   -0.8513   -0.5870 H   0  0  0  0  0  0  0  0  0  0  0  0
    2.3490   -1.7765   -1.6164 H   0  0  0  0  0  0  0  0  0  0  0  0
  1  2  1  0  0  0  0
  2  3  1  0  0  0  0
  2  4  1  0  0  0  0
  2  5  1  0  0  0  0
  5  6  2  0  0  0  0
  5  7  1  0  0  0  0
  7  8  1  0  0  0  0
  7  9  1  0  0  0  0
  9 10  1  0  0  0  0
  9 11  1  0  0  0  0
  9 29  1  0  0  0  0
 11 12  1  0  0  0  0
 11 13  1  0  0  0  0
 11 14  1  0  0  0  0
 14 15  2  0  0  0  0
 14 28  1  0  0  0  0
 15 16  1  0  0  0  0
 15 17  1  0  0  0  0
 17 18  1  0  0  0  0
 17 19  1  0  0  0  0
 19 20  1  0  0  0  0
 19 28  2  0  0  0  0
 20 21  1  0  0  0  0
 20 22  2  0  0  0  0
 22 23  1  0  0  0  0
 22 24  1  0  0  0  0
 24 25  1  0  0  0  0
 24 26  2  0  0  0  0
 26 27  1  0  0  0  0
 26 28  1  0  0  0  0
 29 30  2  0  0  0  0
 29 31  1  0  0  0  0
 31 32  1  0  0  0  0
 31 33  1  0  0  0  0
 33 34  1  0  0  0  0
 33 35  1  0  0  0  0
 33 36  1  0  0  0  0
M  END
$$$$

  -OEChem-01062216103D

 36 37  0     1  0  0  0  0  0999 V2000
   -3.6253   -2.7927    0.1364 H   0  0  0  0  0  0  0  0  0  0  0  0
   -3.5478   -1.9278   -0.5286 C   0  0  0  0  0  0  0  0  0  0  0  0
   -4.4205   -1.2880   -0.3774 H   0  0  0  0  0  0  0  0  0  0  0  0
   -3.5365   -2.2792   -1.5633 H   0  0  0  0  0  0  0  0  0  0  0  0
   -2.2777   -1.1527   -0.2334 C   0  0  0  0  0  0  0  0  0  0  0  0
   -1.4769   -1.5919    0.5771 O   0  0  0  0  0  0  0  0  0  0  0  0
   -2.0258    0.0178   -0.9200 N   0  0  0  0  0  0  0  0  0  0  0  0
   -2.7024    0.2814   -1.6304 H   0  0  0  0  0  0  0  0  0  0  0  0
   -0.8465    0.8896   -0.7504 C   0  0  1  0  0  0  0  0  0  0  0  0
   -1.0369    1.8013   -1.3260 H   0  0  0  0  0  0  0  0  0  0  0  0
   -0.5841    1.3506    0.7004 C   0  0  0  0  0  0  0  0  0  0  0  0
   -0.4970    0.5014    1.3819 H   0  0  0  0  0  0  0  0  0  0  0  0
    0.3640    1.8952    0.7489 H   0  0  0  0  0  0  0  0  0  0  0  0
   -1.6847    2.2663    1.1613 C   0  0  0  0  0  0  0  0  0  0  0  0
   -2.7741    1.8923    1.9084 C   0  0  0  0  0  0  0  0  0  0  0  0
   -2.9670    0.8865    2.2771 H   0  0  0  0  0  0  0  0  0  0  0  0
   -3.5627    3.0258    2.0971 N   0  0  0  0  0  0  0  0  0  0  0  0
   -4.4284    3.0582    2.6316 H   0  0  0  0  0  0  0  0  0  0  0  0
   -2.9884    4.1224    1.4730 C   0  0  0  0  0  0  0  0  0  0  0  0
   -3.3911    5.4546    1.3782 C   0  0  0  0  0  0  0  0  0  0  0  0
   -4.3102    5.7829    1.8507 H   0  0  0  0  0  0  0  0  0  0  0  0
   -2.5929    6.3608    0.6654 C   0  0  0  0  0  0  0  0  0  0  0  0
   -2.8933    7.4013    0.5838 H   0  0  0  0  0  0  0  0  0  0  0  0
   -1.4056    5.9255    0.0566 C   0  0  0  0  0  0  0  0  0  0  0  0
   -0.7895    6.6295   -0.4947 H   0  0  0  0  0  0  0  0  0  0  0  0
   -1.0102    4.5842    0.1587 C   0  0  0  0  0  0  0  0  0  0  0  0
   -0.0921    4.2450   -0.3099 H   0  0  0  0  0  0  0  0  0  0  0  0
   -1.8116    3.6881    0.8737 C   0  0  0  0  0  0  0  0  0  0  0  0
    0.3924    0.2494   -1.4091 C   0  0  0  0  0  0  0  0  0  0  0  0
    0.5088    0.2898   -2.6280 O   0  0  0  0  0  0  0  0  0  0  0  0
    1.3868   -0.3389   -0.6487 N   0  0  0  0  0  0  0  0  0  0  0  0
    1.1249   -0.5672    0.3083 H   0  0  0  0  0  0  0  0  0  0  0  0
    2.5089   -1.0539   -1.2430 C   0  0  0  0  0  0  0  0  0  0  0  0
    3.0541   -0.4052   -1.9368 H   0  0  0  0  0  0  0  0  0  0  0  0
    3.2028   -1.3814   -0.4632 H   0  0  0  0  0  0  0  0  0  0  0  0
    2.1554   -1.9353   -1.7883 H   0  0  0  0  0  0  0  0  0  0  0  0
  1  2  1  0  0  0  0
  2  3  1  0  0  0  0
  2  4  1  0  0  0  0
  2  5  1  0  0  0  0
  5  6  2  0  0  0  0
  5  7  1  0  0  0  0
  7  8  1  0  0  0  0
  7  9  1  0  0  0  0
  9 10  1  0  0  0  0
  9 11  1  0  0  0  0
  9 29  1  0  0  0  0
 11 12  1  0  0  0  0
 11 13  1  0  0  0  0
 11 14  1  0  0  0  0
 14 15  2  0  0  0  0
 14 28  1  0  0  0  0
 15 16  1  0  0  0  0
 15 17  1  0  0  0  0
 17 18  1  0  0  0  0
 17 19  1  0  0  0  0
 19 20  1  0  0  0  0
 19 28  2  0  0  0  0
 20 21  1  0  0  0  0
 20 22  2  0  0  0  0
 22 23  1  0  0  0  0
 22 24  1  0  0  0  0
 24 25  1  0  0  0  0
 24 26  2  0  0  0  0
 26 27  1  0  0  0  0
 26 28  1  0  0  0  0
 29 30  2  0  0  0  0
 29 31  1  0  0  0  0
 31 32  1  0  0  0  0
 31 33  1  0  0  0  0
 33 34  1  0  0  0  0
 33 35  1  0  0  0  0
 33 36  1  0  0  0  0
M  END
$$$$

  -OEChem-01062216103D

 36 37  0     1  0  0  0  0  0999 V2000
   -3.6544   -2.7457    0.1831 H   0  0  0  0  0  0  0  0  0  0  0  0
   -3.5859   -1.8762   -0.4766 C   0  0  0  0  0  0  0  0  0  0  0  0
   -4.4236   -1.2075   -0.2645 H   0  0  0  0  0  0  0  0  0  0  0  0
   -3.6517   -2.2150   -1.5135 H   0  0  0  0  0  0  0  0  0  0  0  0
   -2.2720   -1.1522   -0.2535 C   0  0  0  0  0  0  0  0  0  0  0  0
   -1.4356   -1.6320    0.4968 O   0  0  0  0  0  0  0  0  0  0  0  0
   -2.0159    0.0171   -0.9404 N   0  0  0  0  0  0  0  0  0  0  0  0
   -2.7483    0.3502   -1.5605 H   0  0  0  0  0  0  0  0  0  0  0  0
   -0.8350    0.8838   -0.7580 C   0  0  1  0  0  0  0  0  0  0  0  0
   -1.0191    1.8001   -1.3286 H   0  0  0  0  0  0  0  0  0  0  0  0
   -0.5768    1.3290    0.6977 C   0  0  0  0  0  0  0  0  0  0  0  0
   -0.4969    0.4720    1.3704 H   0  0  0  0  0  0  0  0  0  0  0  0
    0.3747    1.8673    0.7555 H   0  0  0  0  0  0  0  0  0  0  0  0
   -1.6773    2.2432    1.1635 C   0  0  0  0  0  0  0  0  0  0  0  0
   -2.7723    1.8690    1.9029 C   0  0  0  0  0  0  0  0  0  0  0  0
   -2.9680    0.8640    2.2713 H   0  0  0  0  0  0  0  0  0  0  0  0
   -3.5633    3.0019    2.0847 N   0  0  0  0  0  0  0  0  0  0  0  0
   -4.4324    3.0348    2.6135 H   0  0  0  0  0  0  0  0  0  0  0  0
   -2.9870    4.0980    1.4611 C   0  0  0  0  0  0  0  0  0  0  0  0
   -3.3915    5.4290    1.3564 C   0  0  0  0  0  0  0  0  0  0  0  0
   -4.3140    5.7586    1.8210 H   0  0  0  0  0  0  0  0  0  0  0  0
   -2.5913    6.3321    0.6418 C   0  0  0  0  0  0  0  0  0  0  0  0
   -2.8942    7.3710    0.5504 H   0  0  0  0  0  0  0  0  0  0  0  0
   -1.3987    5.8962    0.0438 C   0  0  0  0  0  0  0  0  0  0  0  0
   -0.7814    6.5974   -0.5097 H   0  0  0  0  0  0  0  0  0  0  0  0
   -0.9998    4.5570    0.1583 C   0  0  0  0  0  0  0  0  0  0  0  0
   -0.0773    4.2161   -0.3010 H   0  0  0  0  0  0  0  0  0  0  0  0
   -1.8051    3.6638    0.8720 C   0  0  0  0  0  0  0  0  0  0  0  0
    0.4118    0.2464   -1.4021 C   0  0  0  0  0  0  0  0  0  0  0  0
    0.7072    0.5219   -2.5583 O   0  0  0  0  0  0  0  0  0  0  0  0
    1.2213   -0.5984   -0.6665 N   0  0  0  0  0  0  0  0  0  0  0  0
    0.7768   -0.9949    0.1624 H   0  0  0  0  0  0  0  0  0  0  0  0
    2.3433   -1.3189   -1.2529 C   0  0  0  0  0  0  0  0  0  0  0  0
    3.0560   -0.6201   -1.7034 H   0  0  0  0  0  0  0  0  0  0  0  0
    2.8663   -1.8923   -0.4816 H   0  0  0  0  0  0  0  0  0  0  0  0
    1.9920   -2.0115   -2.0248 H   0  0  0  0  0  0  0  0  0  0  0  0
  1  2  1  0  0  0  0
  2  3  1  0  0  0  0
  2  4  1  0  0  0  0
  2  5  1  0  0  0  0
  5  6  2  0  0  0  0
  5  7  1  0  0  0  0
  7  8  1  0  0  0  0
  7  9  1  0  0  0  0
  9 10  1  0  0  0  0
  9 11  1  0  0  0  0
  9 29  1  0  0  0  0
 11 12  1  0  0  0  0
 11 13  1  0  0  0  0
 11 14  1  0  0  0  0
 14 15  2  0  0  0  0
 14 28  1  0  0  0  0
 15 16  1  0  0  0  0
 15 17  1  0  0  0  0
 17 18  1  0  0  0  0
 17 19  1  0  0  0  0
 19 20  1  0  0  0  0
 19 28  2  0  0  0  0
 20 21  1  0  0  0  0
 20 22  2  0  0  0  0
 22 23  1  0  0  0  0
 22 24  1  0  0  0  0
 24 25  1  0  0  0  0
 24 26  2  0  0  0  0
 26 27  1  0  0  0  0
 26 28  1  0  0  0  0
 29 30  2  0  0  0  0
 29 31  1  0  0  0  0
 31 32  1  0  0  0  0
 31 33  1  0  0  0  0
 33 34  1  0  0  0  0
 33 35  1  0  0  0  0
 33 36  1  0  0  0  0
M  END
$$$$

  -OEChem-01062216103D

 36 37  0     1  0  0  0  0  0999 V2000
   -3.7259   -2.7041    0.2214 H   0  0  0  0  0  0  0  0  0  0  0  0
   -3.6425   -1.8404   -0.4444 C   0  0  0  0  0  0  0  0  0  0  0  0
   -4.4524   -1.1427   -0.2179 H   0  0  0  0  0  0  0  0  0  0  0  0
   -3.7426   -2.1818   -1.4778 H   0  0  0  0  0  0  0  0  0  0  0  0
   -2.3009   -1.1592   -0.2525 C   0  0  0  0  0  0  0  0  0  0  0  0
   -1.4663   -1.6651    0.4823 O   0  0  0  0  0  0  0  0  0  0  0  0
   -2.0247    0.0019   -0.9467 N   0  0  0  0  0  0  0  0  0  0  0  0
   -2.7756    0.3661   -1.5260 H   0  0  0  0  0  0  0  0  0  0  0  0
   -0.8371    0.8643   -0.7707 C   0  0  1  0  0  0  0  0  0  0  0  0
   -1.0202    1.7804   -1.3422 H   0  0  0  0  0  0  0  0  0  0  0  0
   -0.5743    1.3042    0.6840 C   0  0  0  0  0  0  0  0  0  0  0  0
   -0.4955    0.4433    1.3521 H   0  0  0  0  0  0  0  0  0  0  0  0
    0.3798    1.8379    0.7411 H   0  0  0  0  0  0  0  0  0  0  0  0
   -1.6709    2.2214    1.1529 C   0  0  0  0  0  0  0  0  0  0  0  0
   -2.7659    1.8486    1.8930 C   0  0  0  0  0  0  0  0  0  0  0  0
   -2.9629    0.8440    2.2618 H   0  0  0  0  0  0  0  0  0  0  0  0
   -3.5559    2.9819    2.0745 N   0  0  0  0  0  0  0  0  0  0  0  0
   -4.4226    3.0167    2.6068 H   0  0  0  0  0  0  0  0  0  0  0  0
   -2.9793    4.0770    1.4502 C   0  0  0  0  0  0  0  0  0  0  0  0
   -3.3843    5.4079    1.3462 C   0  0  0  0  0  0  0  0  0  0  0  0
   -4.3078    5.7373    1.8096 H   0  0  0  0  0  0  0  0  0  0  0  0
   -2.5820    6.3123    0.6357 C   0  0  0  0  0  0  0  0  0  0  0  0
   -2.8841    7.3518    0.5472 H   0  0  0  0  0  0  0  0  0  0  0  0
   -1.3881    5.8771    0.0396 C   0  0  0  0  0  0  0  0  0  0  0  0
   -0.7681    6.5801   -0.5087 H   0  0  0  0  0  0  0  0  0  0  0  0
   -0.9906    4.5368    0.1507 C   0  0  0  0  0  0  0  0  0  0  0  0
   -0.0671    4.1961   -0.3070 H   0  0  0  0  0  0  0  0  0  0  0  0
   -1.7972    3.6423    0.8617 C   0  0  0  0  0  0  0  0  0  0  0  0
    0.4209    0.2313   -1.3961 C   0  0  0  0  0  0  0  0  0  0  0  0
    0.8814    0.6854   -2.4357 O   0  0  0  0  0  0  0  0  0  0  0  0
    1.0516   -0.8248   -0.7670 N   0  0  0  0  0  0  0  0  0  0  0  0
    0.4984   -1.2875   -0.0410 H   0  0  0  0  0  0  0  0  0  0  0  0
    2.1752   -1.5431   -1.3522 C   0  0  0  0  0  0  0  0  0  0  0  0
    2.9998   -0.8557   -1.5682 H   0  0  0  0  0  0  0  0  0  0  0  0
    2.5376   -2.3056   -0.6560 H   0  0  0  0  0  0  0  0  0  0  0  0
    1.8724   -2.0349   -2.2823 H   0  0  0  0  0  0  0  0  0  0  0  0
  1  2  1  0  0  0  0
  2  3  1  0  0  0  0
  2  4  1  0  0  0  0
  2  5  1  0  0  0  0
  5  6  2  0  0  0  0
  5  7  1  0  0  0  0
  7  8  1  0  0  0  0
  7  9  1  0  0  0  0
  9 10  1  0  0  0  0
  9 11  1  0  0  0  0
  9 29  1  0  0  0  0
 11 12  1  0  0  0  0
 11 13  1  0  0  0  0
 11 14  1  0  0  0  0
 14 15  2  0  0  0  0
 14 28  1  0  0  0  0
 15 16  1  0  0  0  0
 15 17  1  0  0  0  0
 17 18  1  0  0  0  0
 17 19  1  0  0  0  0
 19 20  1  0  0  0  0
 19 28  2  0  0  0  0
 20 21  1  0  0  0  0
 20 22  2  0  0  0  0
 22 23  1  0  0  0  0
 22 24  1  0  0  0  0
 24 25  1  0  0  0  0
 24 26  2  0  0  0  0
 26 27  1  0  0  0  0
 26 28  1  0  0  0  0
 29 30  2  0  0  0  0
 29 31  1  0  0  0  0
 31 32  1  0  0  0  0
 31 33  1  0  0  0  0
 33 34  1  0  0  0  0
 33 35  1  0  0  0  0
 33 36  1  0  0  0  0
M  END
$$$$

  -OEChem-01062216103D

 36 37  0     1  0  0  0  0  0999 V2000
   -3.8103   -2.6713    0.2588 H   0  0  0  0  0  0  0  0  0  0  0  0
   -3.7124   -1.8151   -0.4147 C   0  0  0  0  0  0  0  0  0  0  0  0
   -4.4991   -1.0935   -0.1817 H   0  0  0  0  0  0  0  0  0  0  0  0
   -3.8365   -2.1610   -1.4439 H   0  0  0  0  0  0  0  0  0  0  0  0
   -2.3499   -1.1704   -0.2465 C   0  0  0  0  0  0  0  0  0  0  0  0
   -1.5216   -1.6968    0.4800 O   0  0  0  0  0  0  0  0  0  0  0  0
   -2.0539   -0.0208   -0.9520 N   0  0  0  0  0  0  0  0  0  0  0  0
   -2.8133    0.3600   -1.5093 H   0  0  0  0  0  0  0  0  0  0  0  0
   -0.8571    0.8363   -0.7951 C   0  0  1  0  0  0  0  0  0  0  0  0
   -1.0409    1.7498   -1.3706 H   0  0  0  0  0  0  0  0  0  0  0  0
   -0.5853    1.2750    0.6569 C   0  0  0  0  0  0  0  0  0  0  0  0
   -0.5063    0.4122    1.3225 H   0  0  0  0  0  0  0  0  0  0  0  0
    0.3716    1.8043    0.7095 H   0  0  0  0  0  0  0  0  0  0  0  0
   -1.6748    2.1979    1.1323 C   0  0  0  0  0  0  0  0  0  0  0  0
   -2.7675    1.8302    1.8785 C   0  0  0  0  0  0  0  0  0  0  0  0
   -2.9679    0.8261    2.2468 H   0  0  0  0  0  0  0  0  0  0  0  0
   -3.5492    2.9680    2.0681 N   0  0  0  0  0  0  0  0  0  0  0  0
   -4.4111    3.0076    2.6079 H   0  0  0  0  0  0  0  0  0  0  0  0
   -2.9680    4.0619    1.4457 C   0  0  0  0  0  0  0  0  0  0  0  0
   -3.3626    5.3965    1.3512 C   0  0  0  0  0  0  0  0  0  0  0  0
   -4.2802    5.7305    1.8226 H   0  0  0  0  0  0  0  0  0  0  0  0
   -2.5570    6.2981    0.6410 C   0  0  0  0  0  0  0  0  0  0  0  0
   -2.8513    7.3405    0.5599 H   0  0  0  0  0  0  0  0  0  0  0  0
   -1.3702    5.8562    0.0354 C   0  0  0  0  0  0  0  0  0  0  0  0
   -0.7473    6.5568   -0.5127 H   0  0  0  0  0  0  0  0  0  0  0  0
   -0.9831    4.5122    0.1371 C   0  0  0  0  0  0  0  0  0  0  0  0
   -0.0652    4.1659   -0.3277 H   0  0  0  0  0  0  0  0  0  0  0  0
   -1.7929    3.6210    0.8480 C   0  0  0  0  0  0  0  0  0  0  0  0
    0.4101    0.2072   -1.4090 C   0  0  0  0  0  0  0  0  0  0  0  0
    1.0187    0.7995   -2.2908 O   0  0  0  0  0  0  0  0  0  0  0  0
    0.8788   -1.0109   -0.9570 N   0  0  0  0  0  0  0  0  0  0  0  0
    0.2798   -1.5016   -0.2873 H   0  0  0  0  0  0  0  0  0  0  0  0
    2.0308   -1.6992   -1.5216 C   0  0  0  0  0  0  0  0  0  0  0  0
    2.9213   -1.0643   -1.4672 H   0  0  0  0  0  0  0  0  0  0  0  0
    2.2296   -2.6194   -0.9637 H   0  0  0  0  0  0  0  0  0  0  0  0
    1.8460   -1.9597   -2.5689 H   0  0  0  0  0  0  0  0  0  0  0  0
  1  2  1  0  0  0  0
  2  3  1  0  0  0  0
  2  4  1  0  0  0  0
  2  5  1  0  0  0  0
  5  6  2  0  0  0  0
  5  7  1  0  0  0  0
  7  8  1  0  0  0  0
  7  9  1  0  0  0  0
  9 10  1  0  0  0  0
  9 11  1  0  0  0  0
  9 29  1  0  0  0  0
 11 12  1  0  0  0  0
 11 13  1  0  0  0  0
 11 14  1  0  0  0  0
 14 15  2  0  0  0  0
 14 28  1  0  0  0  0
 15 16  1  0  0  0  0
 15 17  1  0  0  0  0
 17 18  1  0  0  0  0
 17 19  1  0  0  0  0
 19 20  1  0  0  0  0
 19 28  2  0  0  0  0
 20 21  1  0  0  0  0
 20 22  2  0  0  0  0
 22 23  1  0  0  0  0
 22 24  1  0  0  0  0
 24 25  1  0  0  0  0
 24 26  2  0  0  0  0
 26 27  1  0  0  0  0
 26 28  1  0  0  0  0
 29 30  2  0  0  0  0
 29 31  1  0  0  0  0
 31 32  1  0  0  0  0
 31 33  1  0  0  0  0
 33 34  1  0  0  0  0
 33 35  1  0  0  0  0
 33 36  1  0  0  0  0
M  END
$$$$

  -OEChem-01062216103D

 36 37  0     1  0  0  0  0  0999 V2000
   -3.8926   -2.6356    0.3059 H   0  0  0  0  0  0  0  0  0  0  0  0
   -3.7926   -1.7828   -0.3715 C   0  0  0  0  0  0  0  0  0  0  0  0
   -4.5456   -1.0358   -0.1089 H   0  0  0  0  0  0  0  0  0  0  0  0
   -3.9682   -2.1233   -1.3948 H   0  0  0  0  0  0  0  0  0  0  0  0
   -2.4038   -1.1838   -0.2571 C   0  0  0  0  0  0  0  0  0  0  0  0
   -1.5594   -1.7463    0.4215 O   0  0  0  0  0  0  0  0  0  0  0  0
   -2.1028   -0.0352   -0.9616 N   0  0  0  0  0  0  0  0  0  0  0  0
   -2.8792    0.3768   -1.4710 H   0  0  0  0  0  0  0  0  0  0  0  0
   -0.8929    0.8081   -0.8208 C   0  0  1  0  0  0  0  0  0  0  0  0
   -1.0790    1.7255   -1.3888 H   0  0  0  0  0  0  0  0  0  0  0  0
   -0.6024    1.2339    0.6317 C   0  0  0  0  0  0  0  0  0  0  0  0
   -0.5264    0.3631    1.2880 H   0  0  0  0  0  0  0  0  0  0  0  0
    0.3606    1.7527    0.6801 H   0  0  0  0  0  0  0  0  0  0  0  0
   -1.6774    2.1653    1.1252 C   0  0  0  0  0  0  0  0  0  0  0  0
   -2.7681    1.8098    1.8805 C   0  0  0  0  0  0  0  0  0  0  0  0
   -2.9753    0.8086    2.2531 H   0  0  0  0  0  0  0  0  0  0  0  0
   -3.5359    2.9562    2.0759 N   0  0  0  0  0  0  0  0  0  0  0  0
   -4.3896    3.0068    2.6277 H   0  0  0  0  0  0  0  0  0  0  0  0
   -2.9497    4.0428    1.4451 C   0  0  0  0  0  0  0  0  0  0  0  0
   -3.3300    5.3816    1.3501 C   0  0  0  0  0  0  0  0  0  0  0  0
   -4.2386    5.7276    1.8299 H   0  0  0  0  0  0  0  0  0  0  0  0
   -2.5226    6.2719    0.6276 C   0  0  0  0  0  0  0  0  0  0  0  0
   -2.8055    7.3173    0.5467 H   0  0  0  0  0  0  0  0  0  0  0  0
   -1.3487    5.8146    0.0090 C   0  0  0  0  0  0  0  0  0  0  0  0
   -0.7254    6.5059   -0.5503 H   0  0  0  0  0  0  0  0  0  0  0  0
   -0.9749    4.4670    0.1119 C   0  0  0  0  0  0  0  0  0  0  0  0
   -0.0666    4.1084   -0.3629 H   0  0  0  0  0  0  0  0  0  0  0  0
   -1.7856    3.5879    0.8370 C   0  0  0  0  0  0  0  0  0  0  0  0
    0.3746    0.1903   -1.4490 C   0  0  0  0  0  0  0  0  0  0  0  0
    1.1208    0.8942   -2.1176 O   0  0  0  0  0  0  0  0  0  0  0  0
    0.6959   -1.1384   -1.2513 N   0  0  0  0  0  0  0  0  0  0  0  0
    0.0870   -1.6590   -0.6142 H   0  0  0  0  0  0  0  0  0  0  0  0
    1.9162   -1.7626   -1.7430 C   0  0  0  0  0  0  0  0  0  0  0  0
    2.7970   -1.2587   -1.3319 H   0  0  0  0  0  0  0  0  0  0  0  0
    1.9480   -2.8147   -1.4439 H   0  0  0  0  0  0  0  0  0  0  0  0
    1.9580   -1.7123   -2.8360 H   0  0  0  0  0  0  0  0  0  0  0  0
  1  2  1  0  0  0  0
  2  3  1  0  0  0  0
  2  4  1  0  0  0  0
  2  5  1  0  0  0  0
  5  6  2  0  0  0  0
  5  7  1  0  0  0  0
  7  8  1  0  0  0  0
  7  9  1  0  0  0  0
  9 10  1  0  0  0  0
  9 11  1  0  0  0  0
  9 29  1  0  0  0  0
 11 12  1  0  0  0  0
 11 13  1  0  0  0  0
 11 14  1  0  0  0  0
 14 15  2  0  0  0  0
 14 28  1  0  0  0  0
 15 16  1  0  0  0  0
 15 17  1  0  0  0  0
 17 18  1  0  0  0  0
 17 19  1  0  0  0  0
 19 20  1  0  0  0  0
 19 28  2  0  0  0  0
 20 21  1  0  0  0  0
 20 22  2  0  0  0  0
 22 23  1  0  0  0  0
 22 24  1  0  0  0  0
 24 25  1  0  0  0  0
 24 26  2  0  0  0  0
 26 27  1  0  0  0  0
 26 28  1  0  0  0  0
 29 30  2  0  0  0  0
 29 31  1  0  0  0  0
 31 32  1  0  0  0  0
 31 33  1  0  0  0  0
 33 34  1  0  0  0  0
 33 35  1  0  0  0  0
 33 36  1  0  0  0  0
M  END
$$$$

  -OEChem-01062216103D

 36 37  0     1  0  0  0  0  0999 V2000
   -3.9147   -2.5953    0.3780 H   0  0  0  0  0  0  0  0  0  0  0  0
   -3.8260   -1.7489   -0.3090 C   0  0  0  0  0  0  0  0  0  0  0  0
   -4.5432   -0.9795   -0.0126 H   0  0  0  0  0  0  0  0  0  0  0  0
   -4.0636   -2.0891   -1.3198 H   0  0  0  0  0  0  0  0  0  0  0  0
   -2.4170   -1.1891   -0.2703 C   0  0  0  0  0  0  0  0  0  0  0  0
   -1.5461   -1.7880    0.3393 O   0  0  0  0  0  0  0  0  0  0  0  0
   -2.1233   -0.0421   -0.9796 N   0  0  0  0  0  0  0  0  0  0  0  0
   -2.9199    0.3991   -1.4300 H   0  0  0  0  0  0  0  0  0  0  0  0
   -0.9078    0.7962   -0.8488 C   0  0  1  0  0  0  0  0  0  0  0  0
   -1.0950    1.7158   -1.4129 H   0  0  0  0  0  0  0  0  0  0  0  0
   -0.6146    1.2106    0.6065 C   0  0  0  0  0  0  0  0  0  0  0  0
   -0.5425    0.3335    1.2549 H   0  0  0  0  0  0  0  0  0  0  0  0
    0.3504    1.7252    0.6605 H   0  0  0  0  0  0  0  0  0  0  0  0
   -1.6860    2.1420    1.1076 C   0  0  0  0  0  0  0  0  0  0  0  0
   -2.7788    1.7893    1.8614 C   0  0  0  0  0  0  0  0  0  0  0  0
   -2.9920    0.7883    2.2306 H   0  0  0  0  0  0  0  0  0  0  0  0
   -3.5410    2.9392    2.0605 N   0  0  0  0  0  0  0  0  0  0  0  0
   -4.3936    2.9934    2.6140 H   0  0  0  0  0  0  0  0  0  0  0  0
   -2.9482    4.0254    1.4348 C   0  0  0  0  0  0  0  0  0  0  0  0
   -3.3200    5.3670    1.3436 C   0  0  0  0  0  0  0  0  0  0  0  0
   -4.2274    5.7171    1.8224 H   0  0  0  0  0  0  0  0  0  0  0  0
   -2.5059    6.2550    0.6255 C   0  0  0  0  0  0  0  0  0  0  0  0
   -2.7821    7.3023    0.5474 H   0  0  0  0  0  0  0  0  0  0  0  0
   -1.3332    5.7929    0.0082 C   0  0  0  0  0  0  0  0  0  0  0  0
   -0.7038    6.4823   -0.5466 H   0  0  0  0  0  0  0  0  0  0  0  0
   -0.9677    4.4429    0.1071 C   0  0  0  0  0  0  0  0  0  0  0  0
   -0.0601    4.0801   -0.3659 H   0  0  0  0  0  0  0  0  0  0  0  0
   -1.7858    3.5662    0.8266 C   0  0  0  0  0  0  0  0  0  0  0  0
    0.3620    0.1876   -1.4835 C   0  0  0  0  0  0  0  0  0  0  0  0
    1.2180    0.9328   -1.9437 O   0  0  0  0  0  0  0  0  0  0  0  0
    0.5447   -1.1797   -1.5576 N   0  0  0  0  0  0  0  0  0  0  0  0
   -0.0938   -1.7337   -0.9820 H   0  0  0  0  0  0  0  0  0  0  0  0
    1.7770   -1.7973   -2.0279 C   0  0  0  0  0  0  0  0  0  0  0  0
    2.6179   -1.5117   -1.3874 H   0  0  0  0  0  0  0  0  0  0  0  0
    1.6816   -2.8872   -2.0111 H   0  0  0  0  0  0  0  0  0  0  0  0
    1.9940   -1.4866   -3.0552 H   0  0  0  0  0  0  0  0  0  0  0  0
  1  2  1  0  0  0  0
  2  3  1  0  0  0  0
  2  4  1  0  0  0  0
  2  5  1  0  0  0  0
  5  6  2  0  0  0  0
  5  7  1  0  0  0  0
  7  8  1  0  0  0  0
  7  9  1  0  0  0  0
  9 10  1  0  0  0  0
  9 11  1  0  0  0  0
  9 29  1  0  0  0  0
 11 12  1  0  0  0  0
 11 13  1  0  0  0  0
 11 14  1  0  0  0  0
 14 15  2  0  0  0  0
 14 28  1  0  0  0  0
 15 16  1  0  0  0  0
 15 17  1  0  0  0  0
 17 18  1  0  0  0  0
 17 19  1  0  0  0  0
 19 20  1  0  0  0  0
 19 28  2  0  0  0  0
 20 21  1  0  0  0  0
 20 22  2  0  0  0  0
 22 23  1  0  0  0  0
 22 24  1  0  0  0  0
 24 25  1  0  0  0  0
 24 26  2  0  0  0  0
 26 27  1  0  0  0  0
 26 28  1  0  0  0  0
 29 30  2  0  0  0  0
 29 31  1  0  0  0  0
 31 32  1  0  0  0  0
 31 33  1  0  0  0  0
 33 34  1  0  0  0  0
 33 35  1  0  0  0  0
 33 36  1  0  0  0  0
M  END
$$$$

  -OEChem-01062216103D

 36 37  0     1  0  0  0  0  0999 V2000
   -3.8944   -2.5674    0.4334 H   0  0  0  0  0  0  0  0  0  0  0  0
   -3.8236   -1.7166   -0.2500 C   0  0  0  0  0  0  0  0  0  0  0  0
   -4.5064   -0.9346    0.0909 H   0  0  0  0  0  0  0  0  0  0  0  0
   -4.1218   -2.0411   -1.2498 H   0  0  0  0  0  0  0  0  0  0  0  0
   -2.4029   -1.1878   -0.2802 C   0  0  0  0  0  0  0  0  0  0  0  0
   -1.5100   -1.8163    0.2627 O   0  0  0  0  0  0  0  0  0  0  0  0
   -2.1177   -0.0435   -0.9958 N   0  0  0  0  0  0  0  0  0  0  0  0
   -2.9288    0.4217   -1.3933 H   0  0  0  0  0  0  0  0  0  0  0  0
   -0.9004    0.7924   -0.8634 C   0  0  1  0  0  0  0  0  0  0  0  0
   -1.0818    1.7127   -1.4278 H   0  0  0  0  0  0  0  0  0  0  0  0
   -0.6193    1.2012    0.5969 C   0  0  0  0  0  0  0  0  0  0  0  0
   -0.5551    0.3211    1.2421 H   0  0  0  0  0  0  0  0  0  0  0  0
    0.3457    1.7144    0.6636 H   0  0  0  0  0  0  0  0  0  0  0  0
   -1.6948    2.1317    1.0912 C   0  0  0  0  0  0  0  0  0  0  0  0
   -2.7941    1.7755    1.8335 C   0  0  0  0  0  0  0  0  0  0  0  0
   -3.0095    0.7728    2.1968 H   0  0  0  0  0  0  0  0  0  0  0  0
   -3.5581    2.9243    2.0315 N   0  0  0  0  0  0  0  0  0  0  0  0
   -4.4151    2.9754    2.5783 H   0  0  0  0  0  0  0  0  0  0  0  0
   -2.9590    4.0139    1.4179 C   0  0  0  0  0  0  0  0  0  0  0  0
   -3.3284    5.3566    1.3335 C   0  0  0  0  0  0  0  0  0  0  0  0
   -4.2396    5.7045    1.8077 H   0  0  0  0  0  0  0  0  0  0  0  0
   -2.5061    6.2484    0.6293 C   0  0  0  0  0  0  0  0  0  0  0  0
   -2.7798    7.2968    0.5570 H   0  0  0  0  0  0  0  0  0  0  0  0
   -1.3283    5.7888    0.0191 C   0  0  0  0  0  0  0  0  0  0  0  0
   -0.6919    6.4809   -0.5240 H   0  0  0  0  0  0  0  0  0  0  0  0
   -0.9659    4.4375    0.1114 C   0  0  0  0  0  0  0  0  0  0  0  0
   -0.0538    4.0765   -0.3548 H   0  0  0  0  0  0  0  0  0  0  0  0
   -1.7918    3.5573    0.8171 C   0  0  0  0  0  0  0  0  0  0  0  0
    0.3708    0.1813   -1.4951 C   0  0  0  0  0  0  0  0  0  0  0  0
    1.3174    0.9114   -1.7618 O   0  0  0  0  0  0  0  0  0  0  0  0
    0.4273   -1.1542   -1.8463 N   0  0  0  0  0  0  0  0  0  0  0  0
   -0.2609   -1.7424   -1.3737 H   0  0  0  0  0  0  0  0  0  0  0  0
    1.6341   -1.7856   -2.3633 C   0  0  0  0  0  0  0  0  0  0  0  0
    2.4377   -1.7424   -1.6210 H   0  0  0  0  0  0  0  0  0  0  0  0
    1.4366   -2.8349   -2.6025 H   0  0  0  0  0  0  0  0  0  0  0  0
    1.9694   -1.2824   -3.2763 H   0  0  0  0  0  0  0  0  0  0  0  0
  1  2  1  0  0  0  0
  2  3  1  0  0  0  0
  2  4  1  0  0  0  0
  2  5  1  0  0  0  0
  5  6  2  0  0  0  0
  5  7  1  0  0  0  0
  7  8  1  0  0  0  0
  7  9  1  0  0  0  0
  9 10  1  0  0  0  0
  9 11  1  0  0  0  0
  9 29  1  0  0  0  0
 11 12  1  0  0  0  0
 11 13  1  0  0  0  0
 11 14  1  0  0  0  0
 14 15  2  0  0  0  0
 14 28  1  0  0  0  0
 15 16  1  0  0  0  0
 15 17  1  0  0  0  0
 17 18  1  0  0  0  0
 17 19  1  0  0  0  0
 19 20  1  0  0  0  0
 19 28  2  0  0  0  0
 20 21  1  0  0  0  0
 20 22  2  0  0  0  0
 22 23  1  0  0  0  0
 22 24  1  0  0  0  0
 24 25  1  0  0  0  0
 24 26  2  0  0  0  0
 26 27  1  0  0  0  0
 26 28  1  0  0  0  0
 29 30  2  0  0  0  0
 29 31  1  0  0  0  0
 31 32  1  0  0  0  0
 31 33  1  0  0  0  0
 33 34  1  0  0  0  0
 33 35  1  0  0  0  0
 33 36  1  0  0  0  0
M  END
$$$$

  -OEChem-01062216103D

 36 37  0     1  0  0  0  0  0999 V2000
   -3.8605   -2.5437    0.4991 H   0  0  0  0  0  0  0  0  0  0  0  0
   -3.8028   -1.7178   -0.2156 C   0  0  0  0  0  0  0  0  0  0  0  0
   -4.4808   -0.9252    0.1099 H   0  0  0  0  0  0  0  0  0  0  0  0
   -4.1189   -2.0785   -1.1975 H   0  0  0  0  0  0  0  0  0  0  0  0
   -2.3825   -1.1908   -0.2905 C   0  0  0  0  0  0  0  0  0  0  0  0
   -1.4715   -1.8293    0.2064 O   0  0  0  0  0  0  0  0  0  0  0  0
   -2.1141   -0.0448   -1.0095 N   0  0  0  0  0  0  0  0  0  0  0  0
   -2.9379    0.4347   -1.3618 H   0  0  0  0  0  0  0  0  0  0  0  0
   -0.8977    0.7927   -0.8757 C   0  0  1  0  0  0  0  0  0  0  0  0
   -1.0777    1.7138   -1.4388 H   0  0  0  0  0  0  0  0  0  0  0  0
   -0.6240    1.1989    0.5886 C   0  0  0  0  0  0  0  0  0  0  0  0
   -0.5591    0.3167    1.2313 H   0  0  0  0  0  0  0  0  0  0  0  0
    0.3380    1.7161    0.6643 H   0  0  0  0  0  0  0  0  0  0  0  0
   -1.7030    2.1264    1.0808 C   0  0  0  0  0  0  0  0  0  0  0  0
   -2.8060    1.7700    1.8175 C   0  0  0  0  0  0  0  0  0  0  0  0
   -3.0246    0.7670    2.1775 H   0  0  0  0  0  0  0  0  0  0  0  0
   -3.5683    2.9197    2.0171 N   0  0  0  0  0  0  0  0  0  0  0  0
   -4.4248    2.9722    2.5647 H   0  0  0  0  0  0  0  0  0  0  0  0
   -2.9635    4.0102    1.4110 C   0  0  0  0  0  0  0  0  0  0  0  0
   -3.3281    5.3544    1.3318 C   0  0  0  0  0  0  0  0  0  0  0  0
   -4.2390    5.7029    1.8055 H   0  0  0  0  0  0  0  0  0  0  0  0
   -2.5008    6.2467    0.6344 C   0  0  0  0  0  0  0  0  0  0  0  0
   -2.7712    7.2961    0.5653 H   0  0  0  0  0  0  0  0  0  0  0  0
   -1.3210    5.7870    0.0283 C   0  0  0  0  0  0  0  0  0  0  0  0
   -0.6796    6.4802   -0.5076 H   0  0  0  0  0  0  0  0  0  0  0  0
   -0.9624    4.4346    0.1165 C   0  0  0  0  0  0  0  0  0  0  0  0
   -0.0481    4.0736   -0.3453 H   0  0  0  0  0  0  0  0  0  0  0  0
   -1.7950    3.5533    0.8130 C   0  0  0  0  0  0  0  0  0  0  0  0
    0.3713    0.1807   -1.5137 C   0  0  0  0  0  0  0  0  0  0  0  0
    1.3963    0.8486   -1.5807 O   0  0  0  0  0  0  0  0  0  0  0  0
    0.3294   -1.0497   -2.1429 N   0  0  0  0  0  0  0  0  0  0  0  0
   -0.4383   -1.6463   -1.8392 H   0  0  0  0  0  0  0  0  0  0  0  0
    1.5185   -1.6898   -2.6904 C   0  0  0  0  0  0  0  0  0  0  0  0
    2.2596   -1.8603   -1.9022 H   0  0  0  0  0  0  0  0  0  0  0  0
    1.2562   -2.6542   -3.1354 H   0  0  0  0  0  0  0  0  0  0  0  0
    1.9678   -1.0635   -3.4682 H   0  0  0  0  0  0  0  0  0  0  0  0
  1  2  1  0  0  0  0
  2  3  1  0  0  0  0
  2  4  1  0  0  0  0
  2  5  1  0  0  0  0
  5  6  2  0  0  0  0
  5  7  1  0  0  0  0
  7  8  1  0  0  0  0
  7  9  1  0  0  0  0
  9 10  1  0  0  0  0
  9 11  1  0  0  0  0
  9 29  1  0  0  0  0
 11 12  1  0  0  0  0
 11 13  1  0  0  0  0
 11 14  1  0  0  0  0
 14 15  2  0  0  0  0
 14 28  1  0  0  0  0
 15 16  1  0  0  0  0
 15 17  1  0  0  0  0
 17 18  1  0  0  0  0
 17 19  1  0  0  0  0
 19 20  1  0  0  0  0
 19 28  2  0  0  0  0
 20 21  1  0  0  0  0
 20 22  2  0  0  0  0
 22 23  1  0  0  0  0
 22 24  1  0  0  0  0
 24 25  1  0  0  0  0
 24 26  2  0  0  0  0
 26 27  1  0  0  0  0
 26 28  1  0  0  0  0
 29 30  2  0  0  0  0
 29 31  1  0  0  0  0
 31 32  1  0  0  0  0
 31 33  1  0  0  0  0
 33 34  1  0  0  0  0
 33 35  1  0  0  0  0
 33 36  1  0  0  0  0
M  END
$$$$

  -OEChem-01062216103D

 36 37  0     1  0  0  0  0  0999 V2000
   -3.8128   -2.5738    0.4815 H   0  0  0  0  0  0  0  0  0  0  0  0
   -3.7650   -1.7278   -0.2102 C   0  0  0  0  0  0  0  0  0  0  0  0
   -4.4413   -0.9463    0.1438 H   0  0  0  0  0  0  0  0  0  0  0  0
   -4.0908   -2.0616   -1.1984 H   0  0  0  0  0  0  0  0  0  0  0  0
   -2.3472   -1.1938   -0.2847 C   0  0  0  0  0  0  0  0  0  0  0  0
   -1.4365   -1.8215    0.2247 O   0  0  0  0  0  0  0  0  0  0  0  0
   -2.0899   -0.0404   -0.9970 N   0  0  0  0  0  0  0  0  0  0  0  0
   -2.9196    0.4433   -1.3295 H   0  0  0  0  0  0  0  0  0  0  0  0
   -0.8737    0.7967   -0.8596 C   0  0  1  0  0  0  0  0  0  0  0  0
   -1.0521    1.7193   -1.4202 H   0  0  0  0  0  0  0  0  0  0  0  0
   -0.6069    1.2028    0.6075 C   0  0  0  0  0  0  0  0  0  0  0  0
   -0.5456    0.3205    1.2503 H   0  0  0  0  0  0  0  0  0  0  0  0
    0.3530    1.7223    0.6925 H   0  0  0  0  0  0  0  0  0  0  0  0
   -1.6911    2.1299    1.0898 C   0  0  0  0  0  0  0  0  0  0  0  0
   -2.7979    1.7687    1.8183 C   0  0  0  0  0  0  0  0  0  0  0  0
   -3.0122    0.7653    2.1803 H   0  0  0  0  0  0  0  0  0  0  0  0
   -3.5708    2.9136    2.0040 N   0  0  0  0  0  0  0  0  0  0  0  0
   -4.4332    2.9622    2.5427 H   0  0  0  0  0  0  0  0  0  0  0  0
   -2.9687    4.0057    1.3979 C   0  0  0  0  0  0  0  0  0  0  0  0
   -3.3444    5.3463    1.3085 C   0  0  0  0  0  0  0  0  0  0  0  0
   -4.2638    5.6892    1.7701 H   0  0  0  0  0  0  0  0  0  0  0  0
   -2.5167    6.2431    0.6175 C   0  0  0  0  0  0  0  0  0  0  0  0
   -2.7950    7.2902    0.5419 H   0  0  0  0  0  0  0  0  0  0  0  0
   -1.3261    5.7912    0.0268 C   0  0  0  0  0  0  0  0  0  0  0  0
   -0.6847    6.4889   -0.5034 H   0  0  0  0  0  0  0  0  0  0  0  0
   -0.9572    4.4417    0.1237 C   0  0  0  0  0  0  0  0  0  0  0  0
   -0.0338    4.0876   -0.3250 H   0  0  0  0  0  0  0  0  0  0  0  0
   -1.7902    3.5556    0.8143 C   0  0  0  0  0  0  0  0  0  0  0  0
    0.3839    0.1772   -1.5155 C   0  0  0  0  0  0  0  0  0  0  0  0
    1.4780    0.7123   -1.3828 O   0  0  0  0  0  0  0  0  0  0  0  0
    0.2626   -0.8744   -2.4056 N   0  0  0  0  0  0  0  0  0  0  0  0
   -0.6076   -1.3940   -2.3366 H   0  0  0  0  0  0  0  0  0  0  0  0
    1.4146   -1.5324   -3.0089 C   0  0  0  0  0  0  0  0  0  0  0  0
    2.0512   -1.9743   -2.2351 H   0  0  0  0  0  0  0  0  0  0  0  0
    1.0846   -2.3279   -3.6836 H   0  0  0  0  0  0  0  0  0  0  0  0
    2.0073   -0.8154   -3.5866 H   0  0  0  0  0  0  0  0  0  0  0  0
  1  2  1  0  0  0  0
  2  3  1  0  0  0  0
  2  4  1  0  0  0  0
  2  5  1  0  0  0  0
  5  6  2  0  0  0  0
  5  7  1  0  0  0  0
  7  8  1  0  0  0  0
  7  9  1  0  0  0  0
  9 10  1  0  0  0  0
  9 11  1  0  0  0  0
  9 29  1  0  0  0  0
 11 12  1  0  0  0  0
 11 13  1  0  0  0  0
 11 14  1  0  0  0  0
 14 15  2  0  0  0  0
 14 28  1  0  0  0  0
 15 16  1  0  0  0  0
 15 17  1  0  0  0  0
 17 18  1  0  0  0  0
 17 19  1  0  0  0  0
 19 20  1  0  0  0  0
 19 28  2  0  0  0  0
 20 21  1  0  0  0  0
 20 22  2  0  0  0  0
 22 23  1  0  0  0  0
 22 24  1  0  0  0  0
 24 25  1  0  0  0  0
 24 26  2  0  0  0  0
 26 27  1  0  0  0  0
 26 28  1  0  0  0  0
 29 30  2  0  0  0  0
 29 31  1  0  0  0  0
 31 32  1  0  0  0  0
 31 33  1  0  0  0  0
 33 34  1  0  0  0  0
 33 35  1  0  0  0  0
 33 36  1  0  0  0  0
M  END
$$$$

  -OEChem-01062216103D

 36 37  0     1  0  0  0  0  0999 V2000
   -3.7846   -2.5781    0.4797 H   0  0  0  0  0  0  0  0  0  0  0  0
   -3.7330   -1.7410   -0.2226 C   0  0  0  0  0  0  0  0  0  0  0  0
   -4.4211   -0.9606    0.1113 H   0  0  0  0  0  0  0  0  0  0  0  0
   -4.0406   -2.0907   -1.2110 H   0  0  0  0  0  0  0  0  0  0  0  0
   -2.3179   -1.1975   -0.2827 C   0  0  0  0  0  0  0  0  0  0  0  0
   -1.4135   -1.8107    0.2543 O   0  0  0  0  0  0  0  0  0  0  0  0
   -2.0651   -0.0401   -0.9915 N   0  0  0  0  0  0  0  0  0  0  0  0
   -2.8974    0.4427   -1.3183 H   0  0  0  0  0  0  0  0  0  0  0  0
   -0.8516    0.7989   -0.8488 C   0  0  1  0  0  0  0  0  0  0  0  0
   -1.0263    1.7211   -1.4107 H   0  0  0  0  0  0  0  0  0  0  0  0
   -0.5916    1.2087    0.6193 C   0  0  0  0  0  0  0  0  0  0  0  0
   -0.5285    0.3290    1.2655 H   0  0  0  0  0  0  0  0  0  0  0  0
    0.3649    1.7340    0.7060 H   0  0  0  0  0  0  0  0  0  0  0  0
   -1.6806    2.1345    1.0936 C   0  0  0  0  0  0  0  0  0  0  0  0
   -2.7891    1.7688    1.8173 C   0  0  0  0  0  0  0  0  0  0  0  0
   -2.9990    0.7648    2.1804 H   0  0  0  0  0  0  0  0  0  0  0  0
   -3.5703    2.9090    1.9960 N   0  0  0  0  0  0  0  0  0  0  0  0
   -4.4346    2.9538    2.5320 H   0  0  0  0  0  0  0  0  0  0  0  0
   -2.9716    4.0030    1.3900 C   0  0  0  0  0  0  0  0  0  0  0  0
   -3.3551    5.3409    1.2946 C   0  0  0  0  0  0  0  0  0  0  0  0
   -4.2795    5.6794    1.7493 H   0  0  0  0  0  0  0  0  0  0  0  0
   -2.5287    6.2411    0.6066 C   0  0  0  0  0  0  0  0  0  0  0  0
   -2.8133    7.2861    0.5273 H   0  0  0  0  0  0  0  0  0  0  0  0
   -1.3316    5.7953    0.0245 C   0  0  0  0  0  0  0  0  0  0  0  0
   -0.6911    6.4957   -0.5034 H   0  0  0  0  0  0  0  0  0  0  0  0
   -0.9550    4.4483    0.1277 C   0  0  0  0  0  0  0  0  0  0  0  0
   -0.0264    4.0976   -0.3125 H   0  0  0  0  0  0  0  0  0  0  0  0
   -1.7869    3.5588    0.8145 C   0  0  0  0  0  0  0  0  0  0  0  0
    0.3963    0.1672   -1.5127 C   0  0  0  0  0  0  0  0  0  0  0  0
    1.5277    0.5160   -1.1976 O   0  0  0  0  0  0  0  0  0  0  0  0
    0.2427   -0.6525   -2.6165 N   0  0  0  0  0  0  0  0  0  0  0  0
   -0.6908   -1.0248   -2.7591 H   0  0  0  0  0  0  0  0  0  0  0  0
    1.3646   -1.3084   -3.2762 C   0  0  0  0  0  0  0  0  0  0  0  0
    1.8745   -1.9844   -2.5818 H   0  0  0  0  0  0  0  0  0  0  0  0
    1.0120   -1.8905   -4.1328 H   0  0  0  0  0  0  0  0  0  0  0  0
    2.0841   -0.5663   -3.6380 H   0  0  0  0  0  0  0  0  0  0  0  0
  1  2  1  0  0  0  0
  2  3  1  0  0  0  0
  2  4  1  0  0  0  0
  2  5  1  0  0  0  0
  5  6  2  0  0  0  0
  5  7  1  0  0  0  0
  7  8  1  0  0  0  0
  7  9  1  0  0  0  0
  9 10  1  0  0  0  0
  9 11  1  0  0  0  0
  9 29  1  0  0  0  0
 11 12  1  0  0  0  0
 11 13  1  0  0  0  0
 11 14  1  0  0  0  0
 14 15  2  0  0  0  0
 14 28  1  0  0  0  0
 15 16  1  0  0  0  0
 15 17  1  0  0  0  0
 17 18  1  0  0  0  0
 17 19  1  0  0  0  0
 19 20  1  0  0  0  0
 19 28  2  0  0  0  0
 20 21  1  0  0  0  0
 20 22  2  0  0  0  0
 22 23  1  0  0  0  0
 22 24  1  0  0  0  0
 24 25  1  0  0  0  0
 24 26  2  0  0  0  0
 26 27  1  0  0  0  0
 26 28  1  0  0  0  0
 29 30  2  0  0  0  0
 29 31  1  0  0  0  0
 31 32  1  0  0  0  0
 31 33  1  0  0  0  0
 33 34  1  0  0  0  0
 33 35  1  0  0  0  0
 33 36  1  0  0  0  0
M  END
$$$$

  -OEChem-01062216103D

 36 37  0     1  0  0  0  0  0999 V2000
   -3.7745   -2.5881    0.4577 H   0  0  0  0  0  0  0  0  0  0  0  0
   -3.7136   -1.7554   -0.2489 C   0  0  0  0  0  0  0  0  0  0  0  0
   -4.4140   -0.9776    0.0648 H   0  0  0  0  0  0  0  0  0  0  0  0
   -3.9972   -2.1137   -1.2413 H   0  0  0  0  0  0  0  0  0  0  0  0
   -2.3018   -1.2020   -0.2830 C   0  0  0  0  0  0  0  0  0  0  0  0
   -1.4066   -1.8043    0.2805 O   0  0  0  0  0  0  0  0  0  0  0  0
   -2.0484   -0.0429   -0.9892 N   0  0  0  0  0  0  0  0  0  0  0  0
   -2.8803    0.4339   -1.3251 H   0  0  0  0  0  0  0  0  0  0  0  0
   -0.8384    0.7985   -0.8427 C   0  0  1  0  0  0  0  0  0  0  0  0
   -1.0112    1.7207   -1.4054 H   0  0  0  0  0  0  0  0  0  0  0  0
   -0.5805    1.2140    0.6245 C   0  0  0  0  0  0  0  0  0  0  0  0
   -0.5145    0.3371    1.2739 H   0  0  0  0  0  0  0  0  0  0  0  0
    0.3752    1.7414    0.7077 H   0  0  0  0  0  0  0  0  0  0  0  0
   -1.6712    2.1394    1.0955 C   0  0  0  0  0  0  0  0  0  0  0  0
   -2.7782    1.7713    1.8200 C   0  0  0  0  0  0  0  0  0  0  0  0
   -2.9836    0.7672    2.1851 H   0  0  0  0  0  0  0  0  0  0  0  0
   -3.5637    2.9087    1.9961 N   0  0  0  0  0  0  0  0  0  0  0  0
   -4.4261    2.9514    2.5353 H   0  0  0  0  0  0  0  0  0  0  0  0
   -2.9691    4.0034    1.3877 C   0  0  0  0  0  0  0  0  0  0  0  0
   -3.3586    5.3392    1.2879 C   0  0  0  0  0  0  0  0  0  0  0  0
   -4.2855    5.6735    1.7406 H   0  0  0  0  0  0  0  0  0  0  0  0
   -2.5358    6.2409    0.5975 C   0  0  0  0  0  0  0  0  0  0  0  0
   -2.8256    7.2839    0.5124 H   0  0  0  0  0  0  0  0  0  0  0  0
   -1.3353    5.7990    0.0198 C   0  0  0  0  0  0  0  0  0  0  0  0
   -0.6966    6.5001   -0.5087 H   0  0  0  0  0  0  0  0  0  0  0  0
   -0.9525    4.4546    0.1277 C   0  0  0  0  0  0  0  0  0  0  0  0
   -0.0211    4.1082   -0.3095 H   0  0  0  0  0  0  0  0  0  0  0  0
   -1.7818    3.5628    0.8144 C   0  0  0  0  0  0  0  0  0  0  0  0
    0.4020    0.1555   -1.5093 C   0  0  0  0  0  0  0  0  0  0  0  0
    1.5276    0.2888   -1.0445 O   0  0  0  0  0  0  0  0  0  0  0  0
    0.2736   -0.3965   -2.7716 N   0  0  0  0  0  0  0  0  0  0  0  0
   -0.6742   -0.5930   -3.0763 H   0  0  0  0  0  0  0  0  0  0  0  0
    1.3810   -1.0319   -3.4750 C   0  0  0  0  0  0  0  0  0  0  0  0
    1.7516   -1.8916   -2.9069 H   0  0  0  0  0  0  0  0  0  0  0  0
    1.0533   -1.3798   -4.4592 H   0  0  0  0  0  0  0  0  0  0  0  0
    2.2032   -0.3225   -3.6177 H   0  0  0  0  0  0  0  0  0  0  0  0
  1  2  1  0  0  0  0
  2  3  1  0  0  0  0
  2  4  1  0  0  0  0
  2  5  1  0  0  0  0
  5  6  2  0  0  0  0
  5  7  1  0  0  0  0
  7  8  1  0  0  0  0
  7  9  1  0  0  0  0
  9 10  1  0  0  0  0
  9 11  1  0  0  0  0
  9 29  1  0  0  0  0
 11 12  1  0  0  0  0
 11 13  1  0  0  0  0
 11 14  1  0  0  0  0
 14 15  2  0  0  0  0
 14 28  1  0  0  0  0
 15 16  1  0  0  0  0
 15 17  1  0  0  0  0
 17 18  1  0  0  0  0
 17 19  1  0  0  0  0
 19 20  1  0  0  0  0
 19 28  2  0  0  0  0
 20 21  1  0  0  0  0
 20 22  2  0  0  0  0
 22 23  1  0  0  0  0
 22 24  1  0  0  0  0
 24 25  1  0  0  0  0
 24 26  2  0  0  0  0
 26 27  1  0  0  0  0
 26 28  1  0  0  0  0
 29 30  2  0  0  0  0
 29 31  1  0  0  0  0
 31 32  1  0  0  0  0
 31 33  1  0  0  0  0
 33 34  1  0  0  0  0
 33 35  1  0  0  0  0
 33 36  1  0  0  0  0
M  END
$$$$

  -OEChem-01062216103D

 36 37  0     1  0  0  0  0  0999 V2000
   -3.7727   -2.6468    0.3825 H   0  0  0  0  0  0  0  0  0  0  0  0
   -3.7173   -1.7738   -0.2743 C   0  0  0  0  0  0  0  0  0  0  0  0
   -4.4228   -1.0198    0.0834 H   0  0  0  0  0  0  0  0  0  0  0  0
   -3.9971   -2.0764   -1.2863 H   0  0  0  0  0  0  0  0  0  0  0  0
   -2.3090   -1.2097   -0.2742 C   0  0  0  0  0  0  0  0  0  0  0  0
   -1.4277   -1.8016    0.3206 O   0  0  0  0  0  0  0  0  0  0  0  0
   -2.0493   -0.0499   -0.9774 N   0  0  0  0  0  0  0  0  0  0  0  0
   -2.8775    0.4204   -1.3301 H   0  0  0  0  0  0  0  0  0  0  0  0
   -0.8384    0.7896   -0.8348 C   0  0  1  0  0  0  0  0  0  0  0  0
   -1.0124    1.7122   -1.3959 H   0  0  0  0  0  0  0  0  0  0  0  0
   -0.5735    1.2102    0.6284 C   0  0  0  0  0  0  0  0  0  0  0  0
   -0.5081    0.3358    1.2815 H   0  0  0  0  0  0  0  0  0  0  0  0
    0.3853    1.7333    0.7032 H   0  0  0  0  0  0  0  0  0  0  0  0
   -1.6611    2.1399    1.0987 C   0  0  0  0  0  0  0  0  0  0  0  0
   -2.7655    1.7749    1.8284 C   0  0  0  0  0  0  0  0  0  0  0  0
   -2.9703    0.7719    2.1975 H   0  0  0  0  0  0  0  0  0  0  0  0
   -3.5504    2.9133    2.0013 N   0  0  0  0  0  0  0  0  0  0  0  0
   -4.4142    2.9573    2.5380 H   0  0  0  0  0  0  0  0  0  0  0  0
   -2.9581    4.0053    1.3859 C   0  0  0  0  0  0  0  0  0  0  0  0
   -3.3490    5.3404    1.2814 C   0  0  0  0  0  0  0  0  0  0  0  0
   -4.2735    5.6768    1.7375 H   0  0  0  0  0  0  0  0  0  0  0  0
   -2.5309    6.2392    0.5820 C   0  0  0  0  0  0  0  0  0  0  0  0
   -2.8224    7.2818    0.4941 H   0  0  0  0  0  0  0  0  0  0  0  0
   -1.3331    5.7948    0.0002 C   0  0  0  0  0  0  0  0  0  0  0  0
   -0.6980    6.4942   -0.5352 H   0  0  0  0  0  0  0  0  0  0  0  0
   -0.9487    4.4510    0.1136 C   0  0  0  0  0  0  0  0  0  0  0  0
   -0.0196    4.1026   -0.3266 H   0  0  0  0  0  0  0  0  0  0  0  0
   -1.7733    3.5621    0.8099 C   0  0  0  0  0  0  0  0  0  0  0  0
    0.3979    0.1437   -1.5061 C   0  0  0  0  0  0  0  0  0  0  0  0
    1.4759    0.0470   -0.9324 O   0  0  0  0  0  0  0  0  0  0  0  0
    0.3548   -0.1210   -2.8640 N   0  0  0  0  0  0  0  0  0  0  0  0
   -0.5611   -0.1076   -3.3002 H   0  0  0  0  0  0  0  0  0  0  0  0
    1.4728   -0.7038   -3.5962 C   0  0  0  0  0  0  0  0  0  0  0  0
    1.7229   -1.6899   -3.1910 H   0  0  0  0  0  0  0  0  0  0  0  0
    1.2145   -0.8176   -4.6531 H   0  0  0  0  0  0  0  0  0  0  0  0
    2.3557   -0.0597   -3.5256 H   0  0  0  0  0  0  0  0  0  0  0  0
  1  2  1  0  0  0  0
  2  3  1  0  0  0  0
  2  4  1  0  0  0  0
  2  5  1  0  0  0  0
  5  6  2  0  0  0  0
  5  7  1  0  0  0  0
  7  8  1  0  0  0  0
  7  9  1  0  0  0  0
  9 10  1  0  0  0  0
  9 11  1  0  0  0  0
  9 29  1  0  0  0  0
 11 12  1  0  0  0  0
 11 13  1  0  0  0  0
 11 14  1  0  0  0  0
 14 15  2  0  0  0  0
 14 28  1  0  0  0  0
 15 16  1  0  0  0  0
 15 17  1  0  0  0  0
 17 18  1  0  0  0  0
 17 19  1  0  0  0  0
 19 20  1  0  0  0  0
 19 28  2  0  0  0  0
 20 21  1  0  0  0  0
 20 22  2  0  0  0  0
 22 23  1  0  0  0  0
 22 24  1  0  0  0  0
 24 25  1  0  0  0  0
 24 26  2  0  0  0  0
 26 27  1  0  0  0  0
 26 28  1  0  0  0  0
 29 30  2  0  0  0  0
 29 31  1  0  0  0  0
 31 32  1  0  0  0  0
 31 33  1  0  0  0  0
 33 34  1  0  0  0  0
 33 35  1  0  0  0  0
 33 36  1  0  0  0  0
M  END
$$$$

  -OEChem-01062216103D

 36 37  0     1  0  0  0  0  0999 V2000
   -3.7967   -2.6744    0.3391 H   0  0  0  0  0  0  0  0  0  0  0  0
   -3.7281   -1.8018   -0.3169 C   0  0  0  0  0  0  0  0  0  0  0  0
   -4.4602   -1.0593    0.0089 H   0  0  0  0  0  0  0  0  0  0  0  0
   -3.9608   -2.1113   -1.3384 H   0  0  0  0  0  0  0  0  0  0  0  0
   -2.3305   -1.2144   -0.2604 C   0  0  0  0  0  0  0  0  0  0  0  0
   -1.4746   -1.7801    0.3932 O   0  0  0  0  0  0  0  0  0  0  0  0
   -2.0619   -0.0587   -0.9680 N   0  0  0  0  0  0  0  0  0  0  0  0
   -2.8781    0.3845   -1.3779 H   0  0  0  0  0  0  0  0  0  0  0  0
   -0.8513    0.7835   -0.8406 C   0  0  1  0  0  0  0  0  0  0  0  0
   -1.0340    1.7049   -1.4014 H   0  0  0  0  0  0  0  0  0  0  0  0
   -0.5676    1.2138    0.6154 C   0  0  0  0  0  0  0  0  0  0  0  0
   -0.4929    0.3445    1.2739 H   0  0  0  0  0  0  0  0  0  0  0  0
    0.3934    1.7352    0.6717 H   0  0  0  0  0  0  0  0  0  0  0  0
   -1.6492    2.1456    1.0946 C   0  0  0  0  0  0  0  0  0  0  0  0
   -2.7427    1.7826    1.8415 C   0  0  0  0  0  0  0  0  0  0  0  0
   -2.9411    0.7802    2.2160 H   0  0  0  0  0  0  0  0  0  0  0  0
   -3.5258    2.9213    2.0219 N   0  0  0  0  0  0  0  0  0  0  0  0
   -4.3825    2.9655    2.5699 H   0  0  0  0  0  0  0  0  0  0  0  0
   -2.9422    4.0120    1.3958 C   0  0  0  0  0  0  0  0  0  0  0  0
   -3.3331    5.3474    1.2952 C   0  0  0  0  0  0  0  0  0  0  0  0
   -4.2508    5.6851    1.7640 H   0  0  0  0  0  0  0  0  0  0  0  0
   -2.5231    6.2448    0.5843 C   0  0  0  0  0  0  0  0  0  0  0  0
   -2.8148    7.2875    0.4997 H   0  0  0  0  0  0  0  0  0  0  0  0
   -1.3337    5.7991   -0.0133 C   0  0  0  0  0  0  0  0  0  0  0  0
   -0.7052    6.4975   -0.5577 H   0  0  0  0  0  0  0  0  0  0  0  0
   -0.9491    4.4552    0.0965 C   0  0  0  0  0  0  0  0  0  0  0  0
   -0.0255    4.1068   -0.3545 H   0  0  0  0  0  0  0  0  0  0  0  0
   -1.7653    3.5674    0.8042 C   0  0  0  0  0  0  0  0  0  0  0  0
    0.3838    0.1371   -1.5129 C   0  0  0  0  0  0  0  0  0  0  0  0
    1.3761   -0.1948   -0.8770 O   0  0  0  0  0  0  0  0  0  0  0  0
    0.4705    0.1465   -2.8949 N   0  0  0  0  0  0  0  0  0  0  0  0
   -0.3716    0.3813   -3.4097 H   0  0  0  0  0  0  0  0  0  0  0  0
    1.6180   -0.3788   -3.6257 C   0  0  0  0  0  0  0  0  0  0  0  0
    1.7575   -1.4423   -3.4053 H   0  0  0  0  0  0  0  0  0  0  0  0
    1.4655   -0.2649   -4.7032 H   0  0  0  0  0  0  0  0  0  0  0  0
    2.5293    0.1612   -3.3482 H   0  0  0  0  0  0  0  0  0  0  0  0
  1  2  1  0  0  0  0
  2  3  1  0  0  0  0
  2  4  1  0  0  0  0
  2  5  1  0  0  0  0
  5  6  2  0  0  0  0
  5  7  1  0  0  0  0
  7  8  1  0  0  0  0
  7  9  1  0  0  0  0
  9 10  1  0  0  0  0
  9 11  1  0  0  0  0
  9 29  1  0  0  0  0
 11 12  1  0  0  0  0
 11 13  1  0  0  0  0
 11 14  1  0  0  0  0
 14 15  2  0  0  0  0
 14 28  1  0  0  0  0
 15 16  1  0  0  0  0
 15 17  1  0  0  0  0
 17 18  1  0  0  0  0
 17 19  1  0  0  0  0
 19 20  1  0  0  0  0
 19 28  2  0  0  0  0
 20 21  1  0  0  0  0
 20 22  2  0  0  0  0
 22 23  1  0  0  0  0
 22 24  1  0  0  0  0
 24 25  1  0  0  0  0
 24 26  2  0  0  0  0
 26 27  1  0  0  0  0
 26 28  1  0  0  0  0
 29 30  2  0  0  0  0
 29 31  1  0  0  0  0
 31 32  1  0  0  0  0
 31 33  1  0  0  0  0
 33 34  1  0  0  0  0
 33 35  1  0  0  0  0
 33 36  1  0  0  0  0
M  END
$$$$

  -OEChem-01062216103D

 36 37  0     1  0  0  0  0  0999 V2000
   -3.8163   -2.7274    0.2599 H   0  0  0  0  0  0  0  0  0  0  0  0
   -3.7285   -1.8598   -0.4005 C   0  0  0  0  0  0  0  0  0  0  0  0
   -4.5129   -1.1436   -0.1447 H   0  0  0  0  0  0  0  0  0  0  0  0
   -3.8654   -2.1899   -1.4331 H   0  0  0  0  0  0  0  0  0  0  0  0
   -2.3637   -1.2167   -0.2387 C   0  0  0  0  0  0  0  0  0  0  0  0
   -1.5593   -1.7270    0.5174 O   0  0  0  0  0  0  0  0  0  0  0  0
   -2.0832   -0.0649   -0.9496 N   0  0  0  0  0  0  0  0  0  0  0  0
   -2.8668    0.3199   -1.4669 H   0  0  0  0  0  0  0  0  0  0  0  0
   -0.8733    0.7821   -0.8426 C   0  0  1  0  0  0  0  0  0  0  0  0
   -1.0721    1.6988   -1.4050 H   0  0  0  0  0  0  0  0  0  0  0  0
   -0.5585    1.2286    0.6011 C   0  0  0  0  0  0  0  0  0  0  0  0
   -0.4678    0.3678    1.2685 H   0  0  0  0  0  0  0  0  0  0  0  0
    0.4039    1.7493    0.6290 H   0  0  0  0  0  0  0  0  0  0  0  0
   -1.6295    2.1638    1.0951 C   0  0  0  0  0  0  0  0  0  0  0  0
   -2.7034    1.8027    1.8701 C   0  0  0  0  0  0  0  0  0  0  0  0
   -2.8910    0.8003    2.2508 H   0  0  0  0  0  0  0  0  0  0  0  0
   -3.4822    2.9418    2.0662 N   0  0  0  0  0  0  0  0  0  0  0  0
   -4.3263    2.9862    2.6333 H   0  0  0  0  0  0  0  0  0  0  0  0
   -2.9147    4.0305    1.4221 C   0  0  0  0  0  0  0  0  0  0  0  0
   -3.3103    5.3647    1.3267 C   0  0  0  0  0  0  0  0  0  0  0  0
   -4.2182    5.7017    1.8149 H   0  0  0  0  0  0  0  0  0  0  0  0
   -2.5187    6.2615    0.5946 C   0  0  0  0  0  0  0  0  0  0  0  0
   -2.8144    7.3034    0.5136 H   0  0  0  0  0  0  0  0  0  0  0  0
   -1.3426    5.8162   -0.0290 C   0  0  0  0  0  0  0  0  0  0  0  0
   -0.7291    6.5154   -0.5894 H   0  0  0  0  0  0  0  0  0  0  0  0
   -0.9535    4.4727    0.0750 C   0  0  0  0  0  0  0  0  0  0  0  0
   -0.0399    4.1247   -0.3962 H   0  0  0  0  0  0  0  0  0  0  0  0
   -1.7519    3.5852    0.8035 C   0  0  0  0  0  0  0  0  0  0  0  0
    0.3613    0.1400   -1.5185 C   0  0  0  0  0  0  0  0  0  0  0  0
    1.2223   -0.4524   -0.8824 O   0  0  0  0  0  0  0  0  0  0  0  0
    0.6069    0.4035   -2.8559 N   0  0  0  0  0  0  0  0  0  0  0  0
   -0.1084    0.9000   -3.3768 H   0  0  0  0  0  0  0  0  0  0  0  0
    1.7817   -0.0890   -3.5657 C   0  0  0  0  0  0  0  0  0  0  0  0
    1.8105   -1.1834   -3.5446 H   0  0  0  0  0  0  0  0  0  0  0  0
    1.7574    0.2366   -4.6099 H   0  0  0  0  0  0  0  0  0  0  0  0
    2.6974    0.2965   -3.1052 H   0  0  0  0  0  0  0  0  0  0  0  0
  1  2  1  0  0  0  0
  2  3  1  0  0  0  0
  2  4  1  0  0  0  0
  2  5  1  0  0  0  0
  5  6  2  0  0  0  0
  5  7  1  0  0  0  0
  7  8  1  0  0  0  0
  7  9  1  0  0  0  0
  9 10  1  0  0  0  0
  9 11  1  0  0  0  0
  9 29  1  0  0  0  0
 11 12  1  0  0  0  0
 11 13  1  0  0  0  0
 11 14  1  0  0  0  0
 14 15  2  0  0  0  0
 14 28  1  0  0  0  0
 15 16  1  0  0  0  0
 15 17  1  0  0  0  0
 17 18  1  0  0  0  0
 17 19  1  0  0  0  0
 19 20  1  0  0  0  0
 19 28  2  0  0  0  0
 20 21  1  0  0  0  0
 20 22  2  0  0  0  0
 22 23  1  0  0  0  0
 22 24  1  0  0  0  0
 24 25  1  0  0  0  0
 24 26  2  0  0  0  0
 26 27  1  0  0  0  0
 26 28  1  0  0  0  0
 29 30  2  0  0  0  0
 29 31  1  0  0  0  0
 31 32  1  0  0  0  0
 31 33  1  0  0  0  0
 33 34  1  0  0  0  0
 33 35  1  0  0  0  0
 33 36  1  0  0  0  0
M  END
$$$$

  -OEChem-01062216103D

 36 37  0     1  0  0  0  0  0999 V2000
   -3.7889   -2.8133    0.1201 H   0  0  0  0  0  0  0  0  0  0  0  0
   -3.6698   -1.9615   -0.5556 C   0  0  0  0  0  0  0  0  0  0  0  0
   -4.5476   -1.3171   -0.4661 H   0  0  0  0  0  0  0  0  0  0  0  0
   -3.6001   -2.3350   -1.5800 H   0  0  0  0  0  0  0  0  0  0  0  0
   -2.4154   -1.1849   -0.2007 C   0  0  0  0  0  0  0  0  0  0  0  0
   -1.7443   -1.5611    0.7420 O   0  0  0  0  0  0  0  0  0  0  0  0
   -2.1201   -0.0462   -0.9285 N   0  0  0  0  0  0  0  0  0  0  0  0
   -2.7878    0.1771   -1.6587 H   0  0  0  0  0  0  0  0  0  0  0  0
   -0.9108    0.8063   -0.8450 C   0  0  1  0  0  0  0  0  0  0  0  0
   -1.1240    1.7145   -1.4156 H   0  0  0  0  0  0  0  0  0  0  0  0
   -0.5488    1.2718    0.5804 C   0  0  0  0  0  0  0  0  0  0  0  0
   -0.4254    0.4219    1.2559 H   0  0  0  0  0  0  0  0  0  0  0  0
    0.4116    1.7965    0.5647 H   0  0  0  0  0  0  0  0  0  0  0  0
   -1.6015    2.2118    1.1022 C   0  0  0  0  0  0  0  0  0  0  0  0
   -2.6417    1.8463    1.9192 C   0  0  0  0  0  0  0  0  0  0  0  0
   -2.8103    0.8413    2.3039 H   0  0  0  0  0  0  0  0  0  0  0  0
   -3.4147    2.9831    2.1481 N   0  0  0  0  0  0  0  0  0  0  0  0
   -4.2379    3.0216    2.7451 H   0  0  0  0  0  0  0  0  0  0  0  0
   -2.8784    4.0737    1.4811 C   0  0  0  0  0  0  0  0  0  0  0  0
   -3.2844    5.4057    1.4021 C   0  0  0  0  0  0  0  0  0  0  0  0
   -4.1732    5.7376    1.9272 H   0  0  0  0  0  0  0  0  0  0  0  0
   -2.5284    6.3066    0.6386 C   0  0  0  0  0  0  0  0  0  0  0  0
   -2.8325    7.3470    0.5709 H   0  0  0  0  0  0  0  0  0  0  0  0
   -1.3768    5.8669   -0.0329 C   0  0  0  0  0  0  0  0  0  0  0  0
   -0.7903    6.5688   -0.6179 H   0  0  0  0  0  0  0  0  0  0  0  0
   -0.9769    4.5254    0.0547 C   0  0  0  0  0  0  0  0  0  0  0  0
   -0.0823    4.1818   -0.4539 H   0  0  0  0  0  0  0  0  0  0  0  0
   -1.7398    3.6333    0.8151 C   0  0  0  0  0  0  0  0  0  0  0  0
    0.3205    0.1511   -1.5126 C   0  0  0  0  0  0  0  0  0  0  0  0
    0.9716   -0.7277   -0.9662 O   0  0  0  0  0  0  0  0  0  0  0  0
    0.7511    0.6131   -2.7452 N   0  0  0  0  0  0  0  0  0  0  0  0
    0.2278    1.3670   -3.1785 H   0  0  0  0  0  0  0  0  0  0  0  0
    1.9328    0.0938   -3.4243 C   0  0  0  0  0  0  0  0  0  0  0  0
    1.8393   -0.9853   -3.5859 H   0  0  0  0  0  0  0  0  0  0  0  0
    2.0545    0.5787   -4.3975 H   0  0  0  0  0  0  0  0  0  0  0  0
    2.8311    0.2837   -2.8276 H   0  0  0  0  0  0  0  0  0  0  0  0
  1  2  1  0  0  0  0
  2  3  1  0  0  0  0
  2  4  1  0  0  0  0
  2  5  1  0  0  0  0
  5  6  2  0  0  0  0
  5  7  1  0  0  0  0
  7  8  1  0  0  0  0
  7  9  1  0  0  0  0
  9 10  1  0  0  0  0
  9 11  1  0  0  0  0
  9 29  1  0  0  0  0
 11 12  1  0  0  0  0
 11 13  1  0  0  0  0
 11 14  1  0  0  0  0
 14 15  2  0  0  0  0
 14 28  1  0  0  0  0
 15 16  1  0  0  0  0
 15 17  1  0  0  0  0
 17 18  1  0  0  0  0
 17 19  1  0  0  0  0
 19 20  1  0  0  0  0
 19 28  2  0  0  0  0
 20 21  1  0  0  0  0
 20 22  2  0  0  0  0
 22 23  1  0  0  0  0
 22 24  1  0  0  0  0
 24 25  1  0  0  0  0
 24 26  2  0  0  0  0
 26 27  1  0  0  0  0
 26 28  1  0  0  0  0
 29 30  2  0  0  0  0
 29 31  1  0  0  0  0
 31 32  1  0  0  0  0
 31 33  1  0  0  0  0
 33 34  1  0  0  0  0
 33 35  1  0  0  0  0
 33 36  1  0  0  0  0
M  END
$$$$

  -OEChem-01062216103D

 36 37  0     1  0  0  0  0  0999 V2000
   -3.6933   -2.9042    0.0374 H   0  0  0  0  0  0  0  0  0  0  0  0
   -3.5852   -2.0485   -0.6354 C   0  0  0  0  0  0  0  0  0  0  0  0
   -4.5192   -1.4816   -0.6374 H   0  0  0  0  0  0  0  0  0  0  0  0
   -3.3875   -2.4199   -1.6437 H   0  0  0  0  0  0  0  0  0  0  0  0
   -2.4400   -1.1646   -0.1768 C   0  0  0  0  0  0  0  0  0  0  0  0
   -1.8684   -1.4454    0.8615 O   0  0  0  0  0  0  0  0  0  0  0  0
   -2.1535   -0.0265   -0.9106 N   0  0  0  0  0  0  0  0  0  0  0  0
   -2.7297    0.0917   -1.7368 H   0  0  0  0  0  0  0  0  0  0  0  0
   -0.9407    0.8229   -0.8279 C   0  0  1  0  0  0  0  0  0  0  0  0
   -1.1608    1.7289   -1.3996 H   0  0  0  0  0  0  0  0  0  0  0  0
   -0.5562    1.2915    0.5892 C   0  0  0  0  0  0  0  0  0  0  0  0
   -0.4221    0.4460    1.2673 H   0  0  0  0  0  0  0  0  0  0  0  0
    0.4040    1.8157    0.5578 H   0  0  0  0  0  0  0  0  0  0  0  0
   -1.5997    2.2369    1.1163 C   0  0  0  0  0  0  0  0  0  0  0  0
   -2.6320    1.8793    1.9461 C   0  0  0  0  0  0  0  0  0  0  0  0
   -2.8025    0.8745    2.3310 H   0  0  0  0  0  0  0  0  0  0  0  0
   -3.3978    3.0205    2.1783 N   0  0  0  0  0  0  0  0  0  0  0  0
   -4.2224    3.0609    2.7733 H   0  0  0  0  0  0  0  0  0  0  0  0
   -2.8622    4.1063    1.5030 C   0  0  0  0  0  0  0  0  0  0  0  0
   -3.2626    5.4399    1.4225 C   0  0  0  0  0  0  0  0  0  0  0  0
   -4.1453    5.7776    1.9541 H   0  0  0  0  0  0  0  0  0  0  0  0
   -2.5090    6.3344    0.6490 C   0  0  0  0  0  0  0  0  0  0  0  0
   -2.8095    7.3759    0.5801 H   0  0  0  0  0  0  0  0  0  0  0  0
   -1.3651    5.8870   -0.0307 C   0  0  0  0  0  0  0  0  0  0  0  0
   -0.7802    6.5844   -0.6230 H   0  0  0  0  0  0  0  0  0  0  0  0
   -0.9712    4.5440    0.0580 C   0  0  0  0  0  0  0  0  0  0  0  0
   -0.0832    4.1956   -0.4579 H   0  0  0  0  0  0  0  0  0  0  0  0
   -1.7319    3.6582    0.8279 C   0  0  0  0  0  0  0  0  0  0  0  0
    0.2905    0.1713   -1.4969 C   0  0  0  0  0  0  0  0  0  0  0  0
    0.6924   -0.9388   -1.1792 O   0  0  0  0  0  0  0  0  0  0  0  0
    0.9130    0.8178   -2.5516 N   0  0  0  0  0  0  0  0  0  0  0  0
    0.5872    1.7481   -2.7947 H   0  0  0  0  0  0  0  0  0  0  0  0
    2.0752    0.2762   -3.2464 C   0  0  0  0  0  0  0  0  0  0  0  0
    1.8415   -0.7020   -3.6798 H   0  0  0  0  0  0  0  0  0  0  0  0
    2.3796    0.9474   -4.0552 H   0  0  0  0  0  0  0  0  0  0  0  0
    2.9166    0.1638   -2.5545 H   0  0  0  0  0  0  0  0  0  0  0  0
  1  2  1  0  0  0  0
  2  3  1  0  0  0  0
  2  4  1  0  0  0  0
  2  5  1  0  0  0  0
  5  6  2  0  0  0  0
  5  7  1  0  0  0  0
  7  8  1  0  0  0  0
  7  9  1  0  0  0  0
  9 10  1  0  0  0  0
  9 11  1  0  0  0  0
  9 29  1  0  0  0  0
 11 12  1  0  0  0  0
 11 13  1  0  0  0  0
 11 14  1  0  0  0  0
 14 15  2  0  0  0  0
 14 28  1  0  0  0  0
 15 16  1  0  0  0  0
 15 17  1  0  0  0  0
 17 18  1  0  0  0  0
 17 19  1  0  0  0  0
 19 20  1  0  0  0  0
 19 28  2  0  0  0  0
 20 21  1  0  0  0  0
 20 22  2  0  0  0  0
 22 23  1  0  0  0  0
 22 24  1  0  0  0  0
 24 25  1  0  0  0  0
 24 26  2  0  0  0  0
 26 27  1  0  0  0  0
 26 28  1  0  0  0  0
 29 30  2  0  0  0  0
 29 31  1  0  0  0  0
 31 32  1  0  0  0  0
 31 33  1  0  0  0  0
 33 34  1  0  0  0  0
 33 35  1  0  0  0  0
 33 36  1  0  0  0  0
M  END
$$$$

  -OEChem-01062216103D

 36 37  0     1  0  0  0  0  0999 V2000
   -3.6384   -2.9414    0.0239 H   0  0  0  0  0  0  0  0  0  0  0  0
   -3.5266   -2.0968   -0.6622 C   0  0  0  0  0  0  0  0  0  0  0  0
   -4.4792   -1.5656   -0.7261 H   0  0  0  0  0  0  0  0  0  0  0  0
   -3.2615   -2.4819   -1.6498 H   0  0  0  0  0  0  0  0  0  0  0  0
   -2.4408   -1.1603   -0.1665 C   0  0  0  0  0  0  0  0  0  0  0  0
   -1.9036   -1.4037    0.9003 O   0  0  0  0  0  0  0  0  0  0  0  0
   -2.1645   -0.0231   -0.9057 N   0  0  0  0  0  0  0  0  0  0  0  0
   -2.6838    0.0351   -1.7750 H   0  0  0  0  0  0  0  0  0  0  0  0
   -0.9525    0.8268   -0.8162 C   0  0  1  0  0  0  0  0  0  0  0  0
   -1.1727    1.7279   -1.3959 H   0  0  0  0  0  0  0  0  0  0  0  0
   -0.5726    1.3043    0.5997 C   0  0  0  0  0  0  0  0  0  0  0  0
   -0.4396    0.4643    1.2842 H   0  0  0  0  0  0  0  0  0  0  0  0
    0.3872    1.8289    0.5686 H   0  0  0  0  0  0  0  0  0  0  0  0
   -1.6154    2.2539    1.1207 C   0  0  0  0  0  0  0  0  0  0  0  0
   -2.6496    1.9019    1.9504 C   0  0  0  0  0  0  0  0  0  0  0  0
   -2.8257    0.8979    2.3348 H   0  0  0  0  0  0  0  0  0  0  0  0
   -3.4092    3.0471    2.1828 N   0  0  0  0  0  0  0  0  0  0  0  0
   -4.2353    3.0908    2.7753 H   0  0  0  0  0  0  0  0  0  0  0  0
   -2.8660    4.1312    1.5105 C   0  0  0  0  0  0  0  0  0  0  0  0
   -3.2562    5.4681    1.4330 C   0  0  0  0  0  0  0  0  0  0  0  0
   -4.1379    5.8108    1.9632 H   0  0  0  0  0  0  0  0  0  0  0  0
   -2.4929    6.3597    0.6656 C   0  0  0  0  0  0  0  0  0  0  0  0
   -2.7854    7.4035    0.5987 H   0  0  0  0  0  0  0  0  0  0  0  0
   -1.3494    5.9065   -0.0107 C   0  0  0  0  0  0  0  0  0  0  0  0
   -0.7567    6.6019   -0.5973 H   0  0  0  0  0  0  0  0  0  0  0  0
   -0.9666    4.5603    0.0738 C   0  0  0  0  0  0  0  0  0  0  0  0
   -0.0789    4.2072   -0.4388 H   0  0  0  0  0  0  0  0  0  0  0  0
   -1.7373    3.6771    0.8364 C   0  0  0  0  0  0  0  0  0  0  0  0
    0.2846    0.1777   -1.4787 C   0  0  0  0  0  0  0  0  0  0  0  0
    0.4774   -1.0304   -1.4467 O   0  0  0  0  0  0  0  0  0  0  0  0
    1.0942    0.9448   -2.2993 N   0  0  0  0  0  0  0  0  0  0  0  0
    0.9187    1.9442   -2.3352 H   0  0  0  0  0  0  0  0  0  0  0  0
    2.2351    0.4041   -3.0292 C   0  0  0  0  0  0  0  0  0  0  0  0
    1.9096   -0.3732   -3.7286 H   0  0  0  0  0  0  0  0  0  0  0  0
    2.7290    1.1963   -3.5997 H   0  0  0  0  0  0  0  0  0  0  0  0
    2.9638   -0.0287   -2.3354 H   0  0  0  0  0  0  0  0  0  0  0  0
  1  2  1  0  0  0  0
  2  3  1  0  0  0  0
  2  4  1  0  0  0  0
  2  5  1  0  0  0  0
  5  6  2  0  0  0  0
  5  7  1  0  0  0  0
  7  8  1  0  0  0  0
  7  9  1  0  0  0  0
  9 10  1  0  0  0  0
  9 11  1  0  0  0  0
  9 29  1  0  0  0  0
 11 12  1  0  0  0  0
 11 13  1  0  0  0  0
 11 14  1  0  0  0  0
 14 15  2  0  0  0  0
 14 28  1  0  0  0  0
 15 16  1  0  0  0  0
 15 17  1  0  0  0  0
 17 18  1  0  0  0  0
 17 19  1  0  0  0  0
 19 20  1  0  0  0  0
 19 28  2  0  0  0  0
 20 21  1  0  0  0  0
 20 22  2  0  0  0  0
 22 23  1  0  0  0  0
 22 24  1  0  0  0  0
 24 25  1  0  0  0  0
 24 26  2  0  0  0  0
 26 27  1  0  0  0  0
 26 28  1  0  0  0  0
 29 30  2  0  0  0  0
 29 31  1  0  0  0  0
 31 32  1  0  0  0  0
 31 33  1  0  0  0  0
 33 34  1  0  0  0  0
 33 35  1  0  0  0  0
 33 36  1  0  0  0  0
M  END
$$$$

  -OEChem-01062216103D

 36 37  0     1  0  0  0  0  0999 V2000
   -3.6428   -2.9340    0.0273 H   0  0  0  0  0  0  0  0  0  0  0  0
   -3.5336   -2.0873   -0.6566 C   0  0  0  0  0  0  0  0  0  0  0  0
   -4.4839   -1.5507   -0.7071 H   0  0  0  0  0  0  0  0  0  0  0  0
   -3.2821   -2.4691   -1.6492 H   0  0  0  0  0  0  0  0  0  0  0  0
   -2.4371   -1.1589   -0.1689 C   0  0  0  0  0  0  0  0  0  0  0  0
   -1.8809   -1.4141    0.8858 O   0  0  0  0  0  0  0  0  0  0  0  0
   -2.1613   -0.0206   -0.9057 N   0  0  0  0  0  0  0  0  0  0  0  0
   -2.6695    0.0305   -1.7823 H   0  0  0  0  0  0  0  0  0  0  0  0
   -0.9479    0.8271   -0.8126 C   0  0  1  0  0  0  0  0  0  0  0  0
   -1.1624    1.7280   -1.3947 H   0  0  0  0  0  0  0  0  0  0  0  0
   -0.5746    1.3052    0.6060 C   0  0  0  0  0  0  0  0  0  0  0  0
   -0.4456    0.4660    1.2921 H   0  0  0  0  0  0  0  0  0  0  0  0
    0.3852    1.8299    0.5816 H   0  0  0  0  0  0  0  0  0  0  0  0
   -1.6180    2.2568    1.1217 C   0  0  0  0  0  0  0  0  0  0  0  0
   -2.6555    1.9025    1.9468 C   0  0  0  0  0  0  0  0  0  0  0  0
   -2.8335    0.8979    2.3287 H   0  0  0  0  0  0  0  0  0  0  0  0
   -3.4147    3.0471    2.1812 N   0  0  0  0  0  0  0  0  0  0  0  0
   -4.2444    3.0894    2.7690 H   0  0  0  0  0  0  0  0  0  0  0  0
   -2.8691    4.1326    1.5135 C   0  0  0  0  0  0  0  0  0  0  0  0
   -3.2606    5.4694    1.4413 C   0  0  0  0  0  0  0  0  0  0  0  0
   -4.1426    5.8089    1.9728 H   0  0  0  0  0  0  0  0  0  0  0  0
   -2.4990    6.3644    0.6767 C   0  0  0  0  0  0  0  0  0  0  0  0
   -2.7925    7.4081    0.6135 H   0  0  0  0  0  0  0  0  0  0  0  0
   -1.3566    5.9145   -0.0031 C   0  0  0  0  0  0  0  0  0  0  0  0
   -0.7670    6.6124   -0.5900 H   0  0  0  0  0  0  0  0  0  0  0  0
   -0.9717    4.5682    0.0771 C   0  0  0  0  0  0  0  0  0  0  0  0
   -0.0856    4.2187   -0.4407 H   0  0  0  0  0  0  0  0  0  0  0  0
   -1.7394    3.6810    0.8389 C   0  0  0  0  0  0  0  0  0  0  0  0
    0.2892    0.1770   -1.4760 C   0  0  0  0  0  0  0  0  0  0  0  0
    0.3353   -1.0229   -1.7170 O   0  0  0  0  0  0  0  0  0  0  0  0
    1.2659    0.9884   -2.0287 N   0  0  0  0  0  0  0  0  0  0  0  0
    1.2127    1.9844   -1.8399 H   0  0  0  0  0  0  0  0  0  0  0  0
    2.4206    0.4717   -2.7543 C   0  0  0  0  0  0  0  0  0  0  0  0
    2.0984   -0.0996   -3.6313 H   0  0  0  0  0  0  0  0  0  0  0  0
    3.0541    1.2964   -3.0943 H   0  0  0  0  0  0  0  0  0  0  0  0
    3.0184   -0.1807   -2.1089 H   0  0  0  0  0  0  0  0  0  0  0  0
  1  2  1  0  0  0  0
  2  3  1  0  0  0  0
  2  4  1  0  0  0  0
  2  5  1  0  0  0  0
  5  6  2  0  0  0  0
  5  7  1  0  0  0  0
  7  8  1  0  0  0  0
  7  9  1  0  0  0  0
  9 10  1  0  0  0  0
  9 11  1  0  0  0  0
  9 29  1  0  0  0  0
 11 12  1  0  0  0  0
 11 13  1  0  0  0  0
 11 14  1  0  0  0  0
 14 15  2  0  0  0  0
 14 28  1  0  0  0  0
 15 16  1  0  0  0  0
 15 17  1  0  0  0  0
 17 18  1  0  0  0  0
 17 19  1  0  0  0  0
 19 20  1  0  0  0  0
 19 28  2  0  0  0  0
 20 21  1  0  0  0  0
 20 22  2  0  0  0  0
 22 23  1  0  0  0  0
 22 24  1  0  0  0  0
 24 25  1  0  0  0  0
 24 26  2  0  0  0  0
 26 27  1  0  0  0  0
 26 28  1  0  0  0  0
 29 30  2  0  0  0  0
 29 31  1  0  0  0  0
 31 32  1  0  0  0  0
 31 33  1  0  0  0  0
 33 34  1  0  0  0  0
 33 35  1  0  0  0  0
 33 36  1  0  0  0  0
M  END
$$$$

  -OEChem-01062216103D

 36 37  0     1  0  0  0  0  0999 V2000
   -3.6415   -2.9194    0.0218 H   0  0  0  0  0  0  0  0  0  0  0  0
   -3.5380   -2.0641   -0.6517 C   0  0  0  0  0  0  0  0  0  0  0  0
   -4.4834   -1.5171   -0.6753 H   0  0  0  0  0  0  0  0  0  0  0  0
   -3.3113   -2.4345   -1.6545 H   0  0  0  0  0  0  0  0  0  0  0  0
   -2.4220   -1.1537   -0.1748 C   0  0  0  0  0  0  0  0  0  0  0  0
   -1.8274   -1.4409    0.8505 O   0  0  0  0  0  0  0  0  0  0  0  0
   -2.1502   -0.0085   -0.9010 N   0  0  0  0  0  0  0  0  0  0  0  0
   -2.6597    0.0508   -1.7764 H   0  0  0  0  0  0  0  0  0  0  0  0
   -0.9371    0.8381   -0.8025 C   0  0  1  0  0  0  0  0  0  0  0  0
   -1.1455    1.7418   -1.3828 H   0  0  0  0  0  0  0  0  0  0  0  0
   -0.5755    1.3106    0.6232 C   0  0  0  0  0  0  0  0  0  0  0  0
   -0.4528    0.4689    1.3074 H   0  0  0  0  0  0  0  0  0  0  0  0
    0.3829    1.8374    0.6139 H   0  0  0  0  0  0  0  0  0  0  0  0
   -1.6234    2.2598    1.1354 C   0  0  0  0  0  0  0  0  0  0  0  0
   -2.6676    1.9028    1.9510 C   0  0  0  0  0  0  0  0  0  0  0  0
   -2.8487    0.8974    2.3291 H   0  0  0  0  0  0  0  0  0  0  0  0
   -3.4291    3.0461    2.1832 N   0  0  0  0  0  0  0  0  0  0  0  0
   -4.2637    3.0865    2.7641 H   0  0  0  0  0  0  0  0  0  0  0  0
   -2.8819    4.1324    1.5188 C   0  0  0  0  0  0  0  0  0  0  0  0
   -3.2768    5.4678    1.4434 C   0  0  0  0  0  0  0  0  0  0  0  0
   -4.1620    5.8056    1.9708 H   0  0  0  0  0  0  0  0  0  0  0  0
   -2.5153    6.3636    0.6799 C   0  0  0  0  0  0  0  0  0  0  0  0
   -2.8119    7.4061    0.6135 H   0  0  0  0  0  0  0  0  0  0  0  0
   -1.3704    5.9152    0.0034 C   0  0  0  0  0  0  0  0  0  0  0  0
   -0.7830    6.6135   -0.5848 H   0  0  0  0  0  0  0  0  0  0  0  0
   -0.9820    4.5702    0.0871 C   0  0  0  0  0  0  0  0  0  0  0  0
   -0.0957    4.2216   -0.4310 H   0  0  0  0  0  0  0  0  0  0  0  0
   -1.7482    3.6830    0.8501 C   0  0  0  0  0  0  0  0  0  0  0  0
    0.2939    0.1858   -1.4784 C   0  0  0  0  0  0  0  0  0  0  0  0
    0.2299   -0.9325   -1.9762 O   0  0  0  0  0  0  0  0  0  0  0  0
    1.4136    0.9536   -1.7523 N   0  0  0  0  0  0  0  0  0  0  0  0
    1.4590    1.8799   -1.3392 H   0  0  0  0  0  0  0  0  0  0  0  0
    2.5813    0.4432   -2.4616 C   0  0  0  0  0  0  0  0  0  0  0  0
    2.3024    0.0956   -3.4620 H   0  0  0  0  0  0  0  0  0  0  0  0
    3.3329    1.2311   -2.5686 H   0  0  0  0  0  0  0  0  0  0  0  0
    3.0290   -0.3908   -1.9110 H   0  0  0  0  0  0  0  0  0  0  0  0
  1  2  1  0  0  0  0
  2  3  1  0  0  0  0
  2  4  1  0  0  0  0
  2  5  1  0  0  0  0
  5  6  2  0  0  0  0
  5  7  1  0  0  0  0
  7  8  1  0  0  0  0
  7  9  1  0  0  0  0
  9 10  1  0  0  0  0
  9 11  1  0  0  0  0
  9 29  1  0  0  0  0
 11 12  1  0  0  0  0
 11 13  1  0  0  0  0
 11 14  1  0  0  0  0
 14 15  2  0  0  0  0
 14 28  1  0  0  0  0
 15 16  1  0  0  0  0
 15 17  1  0  0  0  0
 17 18  1  0  0  0  0
 17 19  1  0  0  0  0
 19 20  1  0  0  0  0
 19 28  2  0  0  0  0
 20 21  1  0  0  0  0
 20 22  2  0  0  0  0
 22 23  1  0  0  0  0
 22 24  1  0  0  0  0
 24 25  1  0  0  0  0
 24 26  2  0  0  0  0
 26 27  1  0  0  0  0
 26 28  1  0  0  0  0
 29 30  2  0  0  0  0
 29 31  1  0  0  0  0
 31 32  1  0  0  0  0
 31 33  1  0  0  0  0
 33 34  1  0  0  0  0
 33 35  1  0  0  0  0
 33 36  1  0  0  0  0
M  END
$$$$

  -OEChem-01062216103D

 36 37  0     1  0  0  0  0  0999 V2000
   -3.7112   -2.9216   -0.0880 H   0  0  0  0  0  0  0  0  0  0  0  0
   -3.5829   -2.0324   -0.7117 C   0  0  0  0  0  0  0  0  0  0  0  0
   -4.5009   -1.4410   -0.6753 H   0  0  0  0  0  0  0  0  0  0  0  0
   -3.4010   -2.3501   -1.7414 H   0  0  0  0  0  0  0  0  0  0  0  0
   -2.4128   -1.2054   -0.2129 C   0  0  0  0  0  0  0  0  0  0  0  0
   -1.7906   -1.6029    0.7577 O   0  0  0  0  0  0  0  0  0  0  0  0
   -2.1062   -0.0366   -0.8852 N   0  0  0  0  0  0  0  0  0  0  0  0
   -2.6190    0.0733   -1.7548 H   0  0  0  0  0  0  0  0  0  0  0  0
   -0.8924    0.8085   -0.7627 C   0  0  1  0  0  0  0  0  0  0  0  0
   -1.1851    1.8093   -1.0944 H   0  0  0  0  0  0  0  0  0  0  0  0
   -0.3140    0.9921    0.6611 C   0  0  0  0  0  0  0  0  0  0  0  0
   -0.0779    0.0319    1.1241 H   0  0  0  0  0  0  0  0  0  0  0  0
    0.6264    1.5478    0.6208 H   0  0  0  0  0  0  0  0  0  0  0  0
   -1.2686    1.7810    1.5160 C   0  0  0  0  0  0  0  0  0  0  0  0
   -2.1755    1.2419    2.3941 C   0  0  0  0  0  0  0  0  0  0  0  0
   -2.3030    0.1772    2.5868 H   0  0  0  0  0  0  0  0  0  0  0  0
   -2.8843    2.2959    2.9667 N   0  0  0  0  0  0  0  0  0  0  0  0
   -3.6194    2.1968    3.6631 H   0  0  0  0  0  0  0  0  0  0  0  0
   -2.4421    3.5069    2.4586 C   0  0  0  0  0  0  0  0  0  0  0  0
   -2.8383    4.8199    2.7132 C   0  0  0  0  0  0  0  0  0  0  0  0
   -3.6307    5.0226    3.4251 H   0  0  0  0  0  0  0  0  0  0  0  0
   -2.1998    5.8693    2.0375 C   0  0  0  0  0  0  0  0  0  0  0  0
   -2.4982    6.8962    2.2263 H   0  0  0  0  0  0  0  0  0  0  0  0
   -1.1754    5.5945    1.1185 C   0  0  0  0  0  0  0  0  0  0  0  0
   -0.6823    6.4102    0.5984 H   0  0  0  0  0  0  0  0  0  0  0  0
   -0.7854    4.2705    0.8700 C   0  0  0  0  0  0  0  0  0  0  0  0
    0.0069    4.0567    0.1613 H   0  0  0  0  0  0  0  0  0  0  0  0
   -1.4283    3.2293    1.5477 C   0  0  0  0  0  0  0  0  0  0  0  0
    0.2010    0.3522   -1.7605 C   0  0  0  0  0  0  0  0  0  0  0  0
   -0.0553   -0.4777   -2.6266 O   0  0  0  0  0  0  0  0  0  0  0  0
    1.4244    0.9983   -1.8229 N   0  0  0  0  0  0  0  0  0  0  0  0
    1.6361    1.6741   -1.0952 H   0  0  0  0  0  0  0  0  0  0  0  0
    2.4699    0.6427   -2.7757 C   0  0  0  0  0  0  0  0  0  0  0  0
    2.1061    0.7497   -3.8031 H   0  0  0  0  0  0  0  0  0  0  0  0
    3.3371    1.2977   -2.6480 H   0  0  0  0  0  0  0  0  0  0  0  0
    2.7922   -0.3926   -2.6224 H   0  0  0  0  0  0  0  0  0  0  0  0
  1  2  1  0  0  0  0
  2  3  1  0  0  0  0
  2  4  1  0  0  0  0
  2  5  1  0  0  0  0
  5  6  2  0  0  0  0
  5  7  1  0  0  0  0
  7  8  1  0  0  0  0
  7  9  1  0  0  0  0
  9 10  1  0  0  0  0
  9 11  1  0  0  0  0
  9 29  1  0  0  0  0
 11 12  1  0  0  0  0
 11 13  1  0  0  0  0
 11 14  1  0  0  0  0
 14 15  2  0  0  0  0
 14 28  1  0  0  0  0
 15 16  1  0  0  0  0
 15 17  1  0  0  0  0
 17 18  1  0  0  0  0
 17 19  1  0  0  0  0
 19 20  1  0  0  0  0
 19 28  2  0  0  0  0
 20 21  1  0  0  0  0
 20 22  2  0  0  0  0
 22 23  1  0  0  0  0
 22 24  1  0  0  0  0
 24 25  1  0  0  0  0
 24 26  2  0  0  0  0
 26 27  1  0  0  0  0
 26 28  1  0  0  0  0
 29 30  2  0  0  0  0
 29 31  1  0  0  0  0
 31 32  1  0  0  0  0
 31 33  1  0  0  0  0
 33 34  1  0  0  0  0
 33 35  1  0  0  0  0
 33 36  1  0  0  0  0
M  END
$$$$

  -OEChem-01062216103D

 36 37  0     1  0  0  0  0  0999 V2000
   -3.7006   -2.9025   -0.0868 H   0  0  0  0  0  0  0  0  0  0  0  0
   -3.5708   -2.0109   -0.7066 C   0  0  0  0  0  0  0  0  0  0  0  0
   -4.4819   -1.4101   -0.6544 H   0  0  0  0  0  0  0  0  0  0  0  0
   -3.4051   -2.3229   -1.7409 H   0  0  0  0  0  0  0  0  0  0  0  0
   -2.3858   -1.1994   -0.2178 C   0  0  0  0  0  0  0  0  0  0  0  0
   -1.7442   -1.6159    0.7320 O   0  0  0  0  0  0  0  0  0  0  0  0
   -2.0797   -0.0260   -0.8808 N   0  0  0  0  0  0  0  0  0  0  0  0
   -2.5998    0.0997   -1.7443 H   0  0  0  0  0  0  0  0  0  0  0  0
   -0.8723    0.8252   -0.7479 C   0  0  1  0  0  0  0  0  0  0  0  0
   -1.1625    1.8265   -1.0801 H   0  0  0  0  0  0  0  0  0  0  0  0
   -0.3124    1.0081    0.6839 C   0  0  0  0  0  0  0  0  0  0  0  0
   -0.0729    0.0488    1.1473 H   0  0  0  0  0  0  0  0  0  0  0  0
    0.6209    1.5760    0.6569 H   0  0  0  0  0  0  0  0  0  0  0  0
   -1.2809    1.7895    1.5300 C   0  0  0  0  0  0  0  0  0  0  0  0
   -2.1958    1.2450    2.3965 C   0  0  0  0  0  0  0  0  0  0  0  0
   -2.3215    0.1797    2.5860 H   0  0  0  0  0  0  0  0  0  0  0  0
   -2.9135    2.2955    2.9653 N   0  0  0  0  0  0  0  0  0  0  0  0
   -3.6575    2.1922    3.6519 H   0  0  0  0  0  0  0  0  0  0  0  0
   -2.4691    3.5097    2.4657 C   0  0  0  0  0  0  0  0  0  0  0  0
   -2.8687    4.8217    2.7203 C   0  0  0  0  0  0  0  0  0  0  0  0
   -3.6652    5.0229    3.4280 H   0  0  0  0  0  0  0  0  0  0  0  0
   -2.2281    5.8738    2.0503 C   0  0  0  0  0  0  0  0  0  0  0  0
   -2.5293    6.9001    2.2386 H   0  0  0  0  0  0  0  0  0  0  0  0
   -1.1978    5.6028    1.1368 C   0  0  0  0  0  0  0  0  0  0  0  0
   -0.7046    6.4204    0.6197 H   0  0  0  0  0  0  0  0  0  0  0  0
   -0.8023    4.2803    0.8903 C   0  0  0  0  0  0  0  0  0  0  0  0
   -0.0050    4.0686    0.1862 H   0  0  0  0  0  0  0  0  0  0  0  0
   -1.4470    3.2368    1.5628 C   0  0  0  0  0  0  0  0  0  0  0  0
    0.2178    0.3655   -1.7496 C   0  0  0  0  0  0  0  0  0  0  0  0
   -0.1026   -0.2688   -2.7497 O   0  0  0  0  0  0  0  0  0  0  0  0
    1.5362    0.7750   -1.6353 N   0  0  0  0  0  0  0  0  0  0  0  0
    1.8015    1.2645   -0.7863 H   0  0  0  0  0  0  0  0  0  0  0  0
    2.5838    0.3730   -2.5670 C   0  0  0  0  0  0  0  0  0  0  0  0
    2.3356    0.6899   -3.5854 H   0  0  0  0  0  0  0  0  0  0  0  0
    3.5358    0.8336   -2.2864 H   0  0  0  0  0  0  0  0  0  0  0  0
    2.7083   -0.7149   -2.5565 H   0  0  0  0  0  0  0  0  0  0  0  0
  1  2  1  0  0  0  0
  2  3  1  0  0  0  0
  2  4  1  0  0  0  0
  2  5  1  0  0  0  0
  5  6  2  0  0  0  0
  5  7  1  0  0  0  0
  7  8  1  0  0  0  0
  7  9  1  0  0  0  0
  9 10  1  0  0  0  0
  9 11  1  0  0  0  0
  9 29  1  0  0  0  0
 11 12  1  0  0  0  0
 11 13  1  0  0  0  0
 11 14  1  0  0  0  0
 14 15  2  0  0  0  0
 14 28  1  0  0  0  0
 15 16  1  0  0  0  0
 15 17  1  0  0  0  0
 17 18  1  0  0  0  0
 17 19  1  0  0  0  0
 19 20  1  0  0  0  0
 19 28  2  0  0  0  0
 20 21  1  0  0  0  0
 20 22  2  0  0  0  0
 22 23  1  0  0  0  0
 22 24  1  0  0  0  0
 24 25  1  0  0  0  0
 24 26  2  0  0  0  0
 26 27  1  0  0  0  0
 26 28  1  0  0  0  0
 29 30  2  0  0  0  0
 29 31  1  0  0  0  0
 31 32  1  0  0  0  0
 31 33  1  0  0  0  0
 33 34  1  0  0  0  0
 33 35  1  0  0  0  0
 33 36  1  0  0  0  0
M  END
$$$$

  -OEChem-01062216103D

 36 37  0     1  0  0  0  0  0999 V2000
   -3.6977   -2.8806   -0.0724 H   0  0  0  0  0  0  0  0  0  0  0  0
   -3.5665   -1.9896   -0.6929 C   0  0  0  0  0  0  0  0  0  0  0  0
   -4.4661   -1.3738   -0.6194 H   0  0  0  0  0  0  0  0  0  0  0  0
   -3.4298   -2.3018   -1.7312 H   0  0  0  0  0  0  0  0  0  0  0  0
   -2.3580   -1.1988   -0.2285 C   0  0  0  0  0  0  0  0  0  0  0  0
   -1.6906   -1.6349    0.6943 O   0  0  0  0  0  0  0  0  0  0  0  0
   -2.0527   -0.0220   -0.8848 N   0  0  0  0  0  0  0  0  0  0  0  0
   -2.5910    0.1307   -1.7330 H   0  0  0  0  0  0  0  0  0  0  0  0
   -0.8520    0.8346   -0.7388 C   0  0  1  0  0  0  0  0  0  0  0  0
   -1.1408    1.8353   -1.0744 H   0  0  0  0  0  0  0  0  0  0  0  0
   -0.3100    1.0221    0.6990 C   0  0  0  0  0  0  0  0  0  0  0  0
   -0.0691    0.0658    1.1674 H   0  0  0  0  0  0  0  0  0  0  0  0
    0.6184    1.5988    0.6783 H   0  0  0  0  0  0  0  0  0  0  0  0
   -1.2908    1.7991    1.5340 C   0  0  0  0  0  0  0  0  0  0  0  0
   -2.2114    1.2486    2.3904 C   0  0  0  0  0  0  0  0  0  0  0  0
   -2.3337    0.1823    2.5764 H   0  0  0  0  0  0  0  0  0  0  0  0
   -2.9368    2.2953    2.9561 N   0  0  0  0  0  0  0  0  0  0  0  0
   -3.6847    2.1887    3.6376 H   0  0  0  0  0  0  0  0  0  0  0  0
   -2.4917    3.5124    2.4643 C   0  0  0  0  0  0  0  0  0  0  0  0
   -2.8972    4.8223    2.7213 C   0  0  0  0  0  0  0  0  0  0  0  0
   -3.7002    5.0184    3.4233 H   0  0  0  0  0  0  0  0  0  0  0  0
   -2.2539    5.8784    2.0607 C   0  0  0  0  0  0  0  0  0  0  0  0
   -2.5598    6.9028    2.2516 H   0  0  0  0  0  0  0  0  0  0  0  0
   -1.2157    5.6136    1.1539 C   0  0  0  0  0  0  0  0  0  0  0  0
   -0.7203    6.4346    0.6446 H   0  0  0  0  0  0  0  0  0  0  0  0
   -0.8152    4.2929    0.9044 C   0  0  0  0  0  0  0  0  0  0  0  0
   -0.0124    4.0845    0.2054 H   0  0  0  0  0  0  0  0  0  0  0  0
   -1.4619    3.2455    1.5685 C   0  0  0  0  0  0  0  0  0  0  0  0
    0.2403    0.3742   -1.7361 C   0  0  0  0  0  0  0  0  0  0  0  0
   -0.0956   -0.0442   -2.8391 O   0  0  0  0  0  0  0  0  0  0  0  0
    1.5928    0.5148   -1.4726 N   0  0  0  0  0  0  0  0  0  0  0  0
    1.8555    0.7789   -0.5280 H   0  0  0  0  0  0  0  0  0  0  0  0
    2.6353    0.0557   -2.3823 C   0  0  0  0  0  0  0  0  0  0  0  0
    2.5265    0.5300   -3.3634 H   0  0  0  0  0  0  0  0  0  0  0  0
    3.6222    0.3111   -1.9850 H   0  0  0  0  0  0  0  0  0  0  0  0
    2.5819   -1.0308   -2.5077 H   0  0  0  0  0  0  0  0  0  0  0  0
  1  2  1  0  0  0  0
  2  3  1  0  0  0  0
  2  4  1  0  0  0  0
  2  5  1  0  0  0  0
  5  6  2  0  0  0  0
  5  7  1  0  0  0  0
  7  8  1  0  0  0  0
  7  9  1  0  0  0  0
  9 10  1  0  0  0  0
  9 11  1  0  0  0  0
  9 29  1  0  0  0  0
 11 12  1  0  0  0  0
 11 13  1  0  0  0  0
 11 14  1  0  0  0  0
 14 15  2  0  0  0  0
 14 28  1  0  0  0  0
 15 16  1  0  0  0  0
 15 17  1  0  0  0  0
 17 18  1  0  0  0  0
 17 19  1  0  0  0  0
 19 20  1  0  0  0  0
 19 28  2  0  0  0  0
 20 21  1  0  0  0  0
 20 22  2  0  0  0  0
 22 23  1  0  0  0  0
 22 24  1  0  0  0  0
 24 25  1  0  0  0  0
 24 26  2  0  0  0  0
 26 27  1  0  0  0  0
 26 28  1  0  0  0  0
 29 30  2  0  0  0  0
 29 31  1  0  0  0  0
 31 32  1  0  0  0  0
 31 33  1  0  0  0  0
 33 34  1  0  0  0  0
 33 35  1  0  0  0  0
 33 36  1  0  0  0  0
M  END
$$$$

  -OEChem-01062216103D

 36 37  0     1  0  0  0  0  0999 V2000
   -3.7035   -2.8595   -0.0629 H   0  0  0  0  0  0  0  0  0  0  0  0
   -3.5708   -1.9676   -0.6816 C   0  0  0  0  0  0  0  0  0  0  0  0
   -4.4589   -1.3381   -0.5869 H   0  0  0  0  0  0  0  0  0  0  0  0
   -3.4601   -2.2761   -1.7241 H   0  0  0  0  0  0  0  0  0  0  0  0
   -2.3411   -1.1981   -0.2369 C   0  0  0  0  0  0  0  0  0  0  0  0
   -1.6543   -1.6533    0.6622 O   0  0  0  0  0  0  0  0  0  0  0  0
   -2.0315   -0.0194   -0.8867 N   0  0  0  0  0  0  0  0  0  0  0  0
   -2.5942    0.1669   -1.7123 H   0  0  0  0  0  0  0  0  0  0  0  0
   -0.8351    0.8386   -0.7269 C   0  0  1  0  0  0  0  0  0  0  0  0
   -1.1223    1.8394   -1.0638 H   0  0  0  0  0  0  0  0  0  0  0  0
   -0.3042    1.0261    0.7142 C   0  0  0  0  0  0  0  0  0  0  0  0
   -0.0673    0.0703    1.1859 H   0  0  0  0  0  0  0  0  0  0  0  0
    0.6252    1.6027    0.6951 H   0  0  0  0  0  0  0  0  0  0  0  0
   -1.2926    1.7999    1.5425 C   0  0  0  0  0  0  0  0  0  0  0  0
   -2.2185    1.2480    2.3923 C   0  0  0  0  0  0  0  0  0  0  0  0
   -2.3405    0.1816    2.5774 H   0  0  0  0  0  0  0  0  0  0  0  0
   -2.9504    2.2935    2.9521 N   0  0  0  0  0  0  0  0  0  0  0  0
   -3.7002    2.1863    3.6316 H   0  0  0  0  0  0  0  0  0  0  0  0
   -2.5056    3.5112    2.4611 C   0  0  0  0  0  0  0  0  0  0  0  0
   -2.9168    4.8208    2.7101 C   0  0  0  0  0  0  0  0  0  0  0  0
   -3.7267    5.0162    3.4041 H   0  0  0  0  0  0  0  0  0  0  0  0
   -2.2706    5.8768    2.0515 C   0  0  0  0  0  0  0  0  0  0  0  0
   -2.5804    6.9014    2.2349 H   0  0  0  0  0  0  0  0  0  0  0  0
   -1.2240    5.6123    1.1545 C   0  0  0  0  0  0  0  0  0  0  0  0
   -0.7260    6.4322    0.6459 H   0  0  0  0  0  0  0  0  0  0  0  0
   -0.8178    4.2924    0.9127 C   0  0  0  0  0  0  0  0  0  0  0  0
   -0.0084    4.0848    0.2209 H   0  0  0  0  0  0  0  0  0  0  0  0
   -1.4678    3.2455    1.5743 C   0  0  0  0  0  0  0  0  0  0  0  0
    0.2620    0.3786   -1.7151 C   0  0  0  0  0  0  0  0  0  0  0  0
   -0.0443    0.1750   -2.8846 O   0  0  0  0  0  0  0  0  0  0  0  0
    1.5872    0.2310   -1.3411 N   0  0  0  0  0  0  0  0  0  0  0  0
    1.7935    0.2822   -0.3477 H   0  0  0  0  0  0  0  0  0  0  0  0
    2.6173   -0.2732   -2.2410 C   0  0  0  0  0  0  0  0  0  0  0  0
    2.6739    0.3429   -3.1446 H   0  0  0  0  0  0  0  0  0  0  0  0
    3.5940   -0.2495   -1.7484 H   0  0  0  0  0  0  0  0  0  0  0  0
    2.3990   -1.3061   -2.5311 H   0  0  0  0  0  0  0  0  0  0  0  0
  1  2  1  0  0  0  0
  2  3  1  0  0  0  0
  2  4  1  0  0  0  0
  2  5  1  0  0  0  0
  5  6  2  0  0  0  0
  5  7  1  0  0  0  0
  7  8  1  0  0  0  0
  7  9  1  0  0  0  0
  9 10  1  0  0  0  0
  9 11  1  0  0  0  0
  9 29  1  0  0  0  0
 11 12  1  0  0  0  0
 11 13  1  0  0  0  0
 11 14  1  0  0  0  0
 14 15  2  0  0  0  0
 14 28  1  0  0  0  0
 15 16  1  0  0  0  0
 15 17  1  0  0  0  0
 17 18  1  0  0  0  0
 17 19  1  0  0  0  0
 19 20  1  0  0  0  0
 19 28  2  0  0  0  0
 20 21  1  0  0  0  0
 20 22  2  0  0  0  0
 22 23  1  0  0  0  0
 22 24  1  0  0  0  0
 24 25  1  0  0  0  0
 24 26  2  0  0  0  0
 26 27  1  0  0  0  0
 26 28  1  0  0  0  0
 29 30  2  0  0  0  0
 29 31  1  0  0  0  0
 31 32  1  0  0  0  0
 31 33  1  0  0  0  0
 33 34  1  0  0  0  0
 33 35  1  0  0  0  0
 33 36  1  0  0  0  0
M  END
$$$$

  -OEChem-01062216103D

 36 37  0     1  0  0  0  0  0999 V2000
   -3.7177   -2.8335   -0.0097 H   0  0  0  0  0  0  0  0  0  0  0  0
   -3.5813   -1.9550   -0.6466 C   0  0  0  0  0  0  0  0  0  0  0  0
   -4.4525   -1.3045   -0.5389 H   0  0  0  0  0  0  0  0  0  0  0  0
   -3.5053   -2.2827   -1.6864 H   0  0  0  0  0  0  0  0  0  0  0  0
   -2.3224   -1.2087   -0.2465 C   0  0  0  0  0  0  0  0  0  0  0  0
   -1.5967   -1.6906    0.6070 O   0  0  0  0  0  0  0  0  0  0  0  0
   -2.0154   -0.0284   -0.8947 N   0  0  0  0  0  0  0  0  0  0  0  0
   -2.6250    0.2069   -1.6729 H   0  0  0  0  0  0  0  0  0  0  0  0
   -0.8231    0.8319   -0.7244 C   0  0  1  0  0  0  0  0  0  0  0  0
   -1.1107    1.8323   -1.0630 H   0  0  0  0  0  0  0  0  0  0  0  0
   -0.3049    1.0218    0.7202 C   0  0  0  0  0  0  0  0  0  0  0  0
   -0.0741    0.0678    1.1981 H   0  0  0  0  0  0  0  0  0  0  0  0
    0.6270    1.5952    0.7025 H   0  0  0  0  0  0  0  0  0  0  0  0
   -1.3034    1.7949    1.5367 C   0  0  0  0  0  0  0  0  0  0  0  0
   -2.2377    1.2445    2.3782 C   0  0  0  0  0  0  0  0  0  0  0  0
   -2.3630    0.1785    2.5628 H   0  0  0  0  0  0  0  0  0  0  0  0
   -2.9748    2.2918    2.9282 N   0  0  0  0  0  0  0  0  0  0  0  0
   -3.7322    2.1871    3.5997 H   0  0  0  0  0  0  0  0  0  0  0  0
   -2.5200    3.5090    2.4439 C   0  0  0  0  0  0  0  0  0  0  0  0
   -2.9283    4.8200    2.6901 C   0  0  0  0  0  0  0  0  0  0  0  0
   -3.7474    5.0183    3.3722 H   0  0  0  0  0  0  0  0  0  0  0  0
   -2.2667    5.8749    2.0452 C   0  0  0  0  0  0  0  0  0  0  0  0
   -2.5741    6.9001    2.2283 H   0  0  0  0  0  0  0  0  0  0  0  0
   -1.2067    5.6083    1.1647 C   0  0  0  0  0  0  0  0  0  0  0  0
   -0.6952    6.4278    0.6685 H   0  0  0  0  0  0  0  0  0  0  0  0
   -0.8048    4.2866    0.9238 C   0  0  0  0  0  0  0  0  0  0  0  0
    0.0155    4.0759    0.2455 H   0  0  0  0  0  0  0  0  0  0  0  0
   -1.4720    3.2409    1.5705 C   0  0  0  0  0  0  0  0  0  0  0  0
    0.2830    0.3796   -1.7014 C   0  0  0  0  0  0  0  0  0  0  0  0
    0.0537    0.4036   -2.9049 O   0  0  0  0  0  0  0  0  0  0  0  0
    1.5225   -0.0526   -1.2619 N   0  0  0  0  0  0  0  0  0  0  0  0
    1.6171   -0.2201   -0.2638 H   0  0  0  0  0  0  0  0  0  0  0  0
    2.5393   -0.5911   -2.1570 C   0  0  0  0  0  0  0  0  0  0  0  0
    2.7476    0.1115   -2.9710 H   0  0  0  0  0  0  0  0  0  0  0  0
    3.4705   -0.7650   -1.6093 H   0  0  0  0  0  0  0  0  0  0  0  0
    2.2048   -1.5407   -2.5875 H   0  0  0  0  0  0  0  0  0  0  0  0
  1  2  1  0  0  0  0
  2  3  1  0  0  0  0
  2  4  1  0  0  0  0
  2  5  1  0  0  0  0
  5  6  2  0  0  0  0
  5  7  1  0  0  0  0
  7  8  1  0  0  0  0
  7  9  1  0  0  0  0
  9 10  1  0  0  0  0
  9 11  1  0  0  0  0
  9 29  1  0  0  0  0
 11 12  1  0  0  0  0
 11 13  1  0  0  0  0
 11 14  1  0  0  0  0
 14 15  2  0  0  0  0
 14 28  1  0  0  0  0
 15 16  1  0  0  0  0
 15 17  1  0  0  0  0
 17 18  1  0  0  0  0
 17 19  1  0  0  0  0
 19 20  1  0  0  0  0
 19 28  2  0  0  0  0
 20 21  1  0  0  0  0
 20 22  2  0  0  0  0
 22 23  1  0  0  0  0
 22 24  1  0  0  0  0
 24 25  1  0  0  0  0
 24 26  2  0  0  0  0
 26 27  1  0  0  0  0
 26 28  1  0  0  0  0
 29 30  2  0  0  0  0
 29 31  1  0  0  0  0
 31 32  1  0  0  0  0
 31 33  1  0  0  0  0
 33 34  1  0  0  0  0
 33 35  1  0  0  0  0
 33 36  1  0  0  0  0
M  END
$$$$

  -OEChem-01062216103D

 36 37  0     1  0  0  0  0  0999 V2000
   -3.7415   -2.7897    0.0337 H   0  0  0  0  0  0  0  0  0  0  0  0
   -3.6191   -1.8979   -0.5873 C   0  0  0  0  0  0  0  0  0  0  0  0
   -4.4563   -1.2213   -0.3990 H   0  0  0  0  0  0  0  0  0  0  0  0
   -3.6300   -2.1969   -1.6383 H   0  0  0  0  0  0  0  0  0  0  0  0
   -2.3089   -1.2064   -0.2604 C   0  0  0  0  0  0  0  0  0  0  0  0
   -1.5440   -1.7269    0.5346 O   0  0  0  0  0  0  0  0  0  0  0  0
   -1.9945   -0.0313   -0.9132 N   0  0  0  0  0  0  0  0  0  0  0  0
   -2.6597    0.2674   -1.6207 H   0  0  0  0  0  0  0  0  0  0  0  0
   -0.8021    0.8246   -0.7327 C   0  0  1  0  0  0  0  0  0  0  0  0
   -1.0818    1.8265   -1.0742 H   0  0  0  0  0  0  0  0  0  0  0  0
   -0.2894    1.0100    0.7137 C   0  0  0  0  0  0  0  0  0  0  0  0
   -0.0662    0.0549    1.1927 H   0  0  0  0  0  0  0  0  0  0  0  0
    0.6473    1.5761    0.6979 H   0  0  0  0  0  0  0  0  0  0  0  0
   -1.2889    1.7830    1.5293 C   0  0  0  0  0  0  0  0  0  0  0  0
   -2.2254    1.2282    2.3658 C   0  0  0  0  0  0  0  0  0  0  0  0
   -2.3459    0.1622    2.5526 H   0  0  0  0  0  0  0  0  0  0  0  0
   -2.9711    2.2709    2.9115 N   0  0  0  0  0  0  0  0  0  0  0  0
   -3.7303    2.1629    3.5803 H   0  0  0  0  0  0  0  0  0  0  0  0
   -2.5223    3.4897    2.4274 C   0  0  0  0  0  0  0  0  0  0  0  0
   -2.9412    4.7976    2.6720 C   0  0  0  0  0  0  0  0  0  0  0  0
   -3.7617    4.9903    3.3544 H   0  0  0  0  0  0  0  0  0  0  0  0
   -2.2880    5.8566    2.0258 C   0  0  0  0  0  0  0  0  0  0  0  0
   -2.6042    6.8793    2.2073 H   0  0  0  0  0  0  0  0  0  0  0  0
   -1.2262    5.5966    1.1457 C   0  0  0  0  0  0  0  0  0  0  0  0
   -0.7221    6.4193    0.6475 H   0  0  0  0  0  0  0  0  0  0  0  0
   -0.8124    4.2777    0.9081 C   0  0  0  0  0  0  0  0  0  0  0  0
    0.0096    4.0720    0.2301 H   0  0  0  0  0  0  0  0  0  0  0  0
   -1.4698    3.2277    1.5573 C   0  0  0  0  0  0  0  0  0  0  0  0
    0.3135    0.3645   -1.6918 C   0  0  0  0  0  0  0  0  0  0  0  0
    0.2197    0.6230   -2.8853 O   0  0  0  0  0  0  0  0  0  0  0  0
    1.4091   -0.3461   -1.2348 N   0  0  0  0  0  0  0  0  0  0  0  0
    1.3431   -0.7095   -0.2868 H   0  0  0  0  0  0  0  0  0  0  0  0
    2.4210   -0.9027   -2.1238 C   0  0  0  0  0  0  0  0  0  0  0  0
    2.8684   -0.1142   -2.7381 H   0  0  0  0  0  0  0  0  0  0  0  0
    3.2166   -1.3756   -1.5399 H   0  0  0  0  0  0  0  0  0  0  0  0
    1.9785   -1.6559   -2.7840 H   0  0  0  0  0  0  0  0  0  0  0  0
  1  2  1  0  0  0  0
  2  3  1  0  0  0  0
  2  4  1  0  0  0  0
  2  5  1  0  0  0  0
  5  6  2  0  0  0  0
  5  7  1  0  0  0  0
  7  8  1  0  0  0  0
  7  9  1  0  0  0  0
  9 10  1  0  0  0  0
  9 11  1  0  0  0  0
  9 29  1  0  0  0  0
 11 12  1  0  0  0  0
 11 13  1  0  0  0  0
 11 14  1  0  0  0  0
 14 15  2  0  0  0  0
 14 28  1  0  0  0  0
 15 16  1  0  0  0  0
 15 17  1  0  0  0  0
 17 18  1  0  0  0  0
 17 19  1  0  0  0  0
 19 20  1  0  0  0  0
 19 28  2  0  0  0  0
 20 21  1  0  0  0  0
 20 22  2  0  0  0  0
 22 23  1  0  0  0  0
 22 24  1  0  0  0  0
 24 25  1  0  0  0  0
 24 26  2  0  0  0  0
 26 27  1  0  0  0  0
 26 28  1  0  0  0  0
 29 30  2  0  0  0  0
 29 31  1  0  0  0  0
 31 32  1  0  0  0  0
 31 33  1  0  0  0  0
 33 34  1  0  0  0  0
 33 35  1  0  0  0  0
 33 36  1  0  0  0  0
M  END
$$$$

  -OEChem-01062216103D

 36 37  0     1  0  0  0  0  0999 V2000
   -3.7449   -2.7298    0.1233 H   0  0  0  0  0  0  0  0  0  0  0  0
   -3.6481   -1.8298   -0.4905 C   0  0  0  0  0  0  0  0  0  0  0  0
   -4.4259   -1.1200   -0.1984 H   0  0  0  0  0  0  0  0  0  0  0  0
   -3.7874   -2.1021   -1.5396 H   0  0  0  0  0  0  0  0  0  0  0  0
   -2.2785   -1.2076   -0.2951 C   0  0  0  0  0  0  0  0  0  0  0  0
   -1.4466   -1.7867    0.3849 O   0  0  0  0  0  0  0  0  0  0  0  0
   -1.9737   -0.0324   -0.9506 N   0  0  0  0  0  0  0  0  0  0  0  0
   -2.7130    0.3531   -1.5309 H   0  0  0  0  0  0  0  0  0  0  0  0
   -0.7819    0.8180   -0.7488 C   0  0  1  0  0  0  0  0  0  0  0  0
   -1.0545    1.8230   -1.0873 H   0  0  0  0  0  0  0  0  0  0  0  0
   -0.2809    0.9898    0.7028 C   0  0  0  0  0  0  0  0  0  0  0  0
   -0.0670    0.0298    1.1767 H   0  0  0  0  0  0  0  0  0  0  0  0
    0.6598    1.5498    0.6981 H   0  0  0  0  0  0  0  0  0  0  0  0
   -1.2868    1.7585    1.5158 C   0  0  0  0  0  0  0  0  0  0  0  0
   -2.2329    1.2015    2.3404 C   0  0  0  0  0  0  0  0  0  0  0  0
   -2.3533    0.1357    2.5266 H   0  0  0  0  0  0  0  0  0  0  0  0
   -2.9863    2.2424    2.8793 N   0  0  0  0  0  0  0  0  0  0  0  0
   -3.7477    2.1342    3.5458 H   0  0  0  0  0  0  0  0  0  0  0  0
   -2.5342    3.4624    2.4007 C   0  0  0  0  0  0  0  0  0  0  0  0
   -2.9592    4.7695    2.6392 C   0  0  0  0  0  0  0  0  0  0  0  0
   -3.7889    4.9614    3.3102 H   0  0  0  0  0  0  0  0  0  0  0  0
   -2.3000    5.8294    2.0004 C   0  0  0  0  0  0  0  0  0  0  0  0
   -2.6204    6.8520    2.1763 H   0  0  0  0  0  0  0  0  0  0  0  0
   -1.2265    5.5713    1.1338 C   0  0  0  0  0  0  0  0  0  0  0  0
   -0.7178    6.3949    0.6416 H   0  0  0  0  0  0  0  0  0  0  0  0
   -0.8071    4.2534    0.9016 C   0  0  0  0  0  0  0  0  0  0  0  0
    0.0232    4.0494    0.2332 H   0  0  0  0  0  0  0  0  0  0  0  0
   -1.4706    3.2027    1.5434 C   0  0  0  0  0  0  0  0  0  0  0  0
    0.3435    0.3584   -1.6924 C   0  0  0  0  0  0  0  0  0  0  0  0
    0.4395    0.8458   -2.8116 O   0  0  0  0  0  0  0  0  0  0  0  0
    1.2453   -0.6047   -1.2792 N   0  0  0  0  0  0  0  0  0  0  0  0
    0.9802   -1.1243   -0.4431 H   0  0  0  0  0  0  0  0  0  0  0  0
    2.2532   -1.1765   -2.1619 C   0  0  0  0  0  0  0  0  0  0  0  0
    2.9048   -0.3913   -2.5593 H   0  0  0  0  0  0  0  0  0  0  0  0
    2.8731   -1.8916   -1.6126 H   0  0  0  0  0  0  0  0  0  0  0  0
    1.7777   -1.6983   -2.9989 H   0  0  0  0  0  0  0  0  0  0  0  0
  1  2  1  0  0  0  0
  2  3  1  0  0  0  0
  2  4  1  0  0  0  0
  2  5  1  0  0  0  0
  5  6  2  0  0  0  0
  5  7  1  0  0  0  0
  7  8  1  0  0  0  0
  7  9  1  0  0  0  0
  9 10  1  0  0  0  0
  9 11  1  0  0  0  0
  9 29  1  0  0  0  0
 11 12  1  0  0  0  0
 11 13  1  0  0  0  0
 11 14  1  0  0  0  0
 14 15  2  0  0  0  0
 14 28  1  0  0  0  0
 15 16  1  0  0  0  0
 15 17  1  0  0  0  0
 17 18  1  0  0  0  0
 17 19  1  0  0  0  0
 19 20  1  0  0  0  0
 19 28  2  0  0  0  0
 20 21  1  0  0  0  0
 20 22  2  0  0  0  0
 22 23  1  0  0  0  0
 22 24  1  0  0  0  0
 24 25  1  0  0  0  0
 24 26  2  0  0  0  0
 26 27  1  0  0  0  0
 26 28  1  0  0  0  0
 29 30  2  0  0  0  0
 29 31  1  0  0  0  0
 31 32  1  0  0  0  0
 31 33  1  0  0  0  0
 33 34  1  0  0  0  0
 33 35  1  0  0  0  0
 33 36  1  0  0  0  0
M  END
$$$$

  -OEChem-01062216103D

 36 37  0     1  0  0  0  0  0999 V2000
   -3.7542   -2.6743    0.2048 H   0  0  0  0  0  0  0  0  0  0  0  0
   -3.6719   -1.7709   -0.4062 C   0  0  0  0  0  0  0  0  0  0  0  0
   -4.3948   -1.0351   -0.0453 H   0  0  0  0  0  0  0  0  0  0  0  0
   -3.9056   -2.0248   -1.4431 H   0  0  0  0  0  0  0  0  0  0  0  0
   -2.2679   -1.2046   -0.3159 C   0  0  0  0  0  0  0  0  0  0  0  0
   -1.3981   -1.8346    0.2652 O   0  0  0  0  0  0  0  0  0  0  0  0
   -1.9670   -0.0294   -0.9726 N   0  0  0  0  0  0  0  0  0  0  0  0
   -2.7475    0.4144   -1.4483 H   0  0  0  0  0  0  0  0  0  0  0  0
   -0.7708    0.8122   -0.7561 C   0  0  1  0  0  0  0  0  0  0  0  0
   -1.0344    1.8222   -1.0874 H   0  0  0  0  0  0  0  0  0  0  0  0
   -0.2776    0.9616    0.6998 C   0  0  0  0  0  0  0  0  0  0  0  0
   -0.0745   -0.0068    1.1612 H   0  0  0  0  0  0  0  0  0  0  0  0
    0.6675    1.5142    0.7089 H   0  0  0  0  0  0  0  0  0  0  0  0
   -1.2863    1.7257    1.5137 C   0  0  0  0  0  0  0  0  0  0  0  0
   -2.2448    1.1721    2.3264 C   0  0  0  0  0  0  0  0  0  0  0  0
   -2.3702    0.1071    2.5134 H   0  0  0  0  0  0  0  0  0  0  0  0
   -3.0022    2.2160    2.8550 N   0  0  0  0  0  0  0  0  0  0  0  0
   -3.7688    2.1117    3.5167 H   0  0  0  0  0  0  0  0  0  0  0  0
   -2.5434    3.4343    2.3779 C   0  0  0  0  0  0  0  0  0  0  0  0
   -2.9685    4.7436    2.6043 C   0  0  0  0  0  0  0  0  0  0  0  0
   -3.8057    4.9407    3.2646 H   0  0  0  0  0  0  0  0  0  0  0  0
   -2.3008    5.7988    1.9659 C   0  0  0  0  0  0  0  0  0  0  0  0
   -2.6208    6.8232    2.1323 H   0  0  0  0  0  0  0  0  0  0  0  0
   -1.2191    5.5339    1.1116 C   0  0  0  0  0  0  0  0  0  0  0  0
   -0.7034    6.3527    0.6188 H   0  0  0  0  0  0  0  0  0  0  0  0
   -0.7995    4.2143    0.8918 C   0  0  0  0  0  0  0  0  0  0  0  0
    0.0369    4.0042    0.2325 H   0  0  0  0  0  0  0  0  0  0  0  0
   -1.4709    3.1692    1.5340 C   0  0  0  0  0  0  0  0  0  0  0  0
    0.3639    0.3566   -1.6883 C   0  0  0  0  0  0  0  0  0  0  0  0
    0.6686    1.0238   -2.6685 O   0  0  0  0  0  0  0  0  0  0  0  0
    1.0485   -0.8080   -1.3986 N   0  0  0  0  0  0  0  0  0  0  0  0
    0.6216   -1.4013   -0.6844 H   0  0  0  0  0  0  0  0  0  0  0  0
    2.0497   -1.3847   -2.2847 C   0  0  0  0  0  0  0  0  0  0  0  0
    2.8602   -0.6706   -2.4639 H   0  0  0  0  0  0  0  0  0  0  0  0
    2.4782   -2.2850   -1.8339 H   0  0  0  0  0  0  0  0  0  0  0  0
    1.5999   -1.6564   -3.2452 H   0  0  0  0  0  0  0  0  0  0  0  0
  1  2  1  0  0  0  0
  2  3  1  0  0  0  0
  2  4  1  0  0  0  0
  2  5  1  0  0  0  0
  5  6  2  0  0  0  0
  5  7  1  0  0  0  0
  7  8  1  0  0  0  0
  7  9  1  0  0  0  0
  9 10  1  0  0  0  0
  9 11  1  0  0  0  0
  9 29  1  0  0  0  0
 11 12  1  0  0  0  0
 11 13  1  0  0  0  0
 11 14  1  0  0  0  0
 14 15  2  0  0  0  0
 14 28  1  0  0  0  0
 15 16  1  0  0  0  0
 15 17  1  0  0  0  0
 17 18  1  0  0  0  0
 17 19  1  0  0  0  0
 19 20  1  0  0  0  0
 19 28  2  0  0  0  0
 20 21  1  0  0  0  0
 20 22  2  0  0  0  0
 22 23  1  0  0  0  0
 22 24  1  0  0  0  0
 24 25  1  0  0  0  0
 24 26  2  0  0  0  0
 26 27  1  0  0  0  0
 26 28  1  0  0  0  0
 29 30  2  0  0  0  0
 29 31  1  0  0  0  0
 31 32  1  0  0  0  0
 31 33  1  0  0  0  0
 33 34  1  0  0  0  0
 33 35  1  0  0  0  0
 33 36  1  0  0  0  0
M  END
$$$$

  -OEChem-01062216103D

 36 37  0     1  0  0  0  0  0999 V2000
   -3.8096   -2.6387    0.2775 H   0  0  0  0  0  0  0  0  0  0  0  0
   -3.7205   -1.7570   -0.3634 C   0  0  0  0  0  0  0  0  0  0  0  0
   -4.4238   -0.9968   -0.0148 H   0  0  0  0  0  0  0  0  0  0  0  0
   -3.9760   -2.0387   -1.3879 H   0  0  0  0  0  0  0  0  0  0  0  0
   -2.3047   -1.2156   -0.3137 C   0  0  0  0  0  0  0  0  0  0  0  0
   -1.4297   -1.8622    0.2401 O   0  0  0  0  0  0  0  0  0  0  0  0
   -1.9989   -0.0518   -0.9885 N   0  0  0  0  0  0  0  0  0  0  0  0
   -2.7898    0.4020   -1.4366 H   0  0  0  0  0  0  0  0  0  0  0  0
   -0.7986    0.7921   -0.7898 C   0  0  1  0  0  0  0  0  0  0  0  0
   -1.0638    1.7996   -1.1269 H   0  0  0  0  0  0  0  0  0  0  0  0
   -0.2951    0.9440    0.6607 C   0  0  0  0  0  0  0  0  0  0  0  0
   -0.0897   -0.0253    1.1199 H   0  0  0  0  0  0  0  0  0  0  0  0
    0.6509    1.4953    0.6617 H   0  0  0  0  0  0  0  0  0  0  0  0
   -1.2957    1.7102    1.4820 C   0  0  0  0  0  0  0  0  0  0  0  0
   -2.2475    1.1578    2.3032 C   0  0  0  0  0  0  0  0  0  0  0  0
   -2.3748    0.0928    2.4883 H   0  0  0  0  0  0  0  0  0  0  0  0
   -2.9944    2.2033    2.8427 N   0  0  0  0  0  0  0  0  0  0  0  0
   -3.7525    2.1002    3.5141 H   0  0  0  0  0  0  0  0  0  0  0  0
   -2.5316    3.4215    2.3693 C   0  0  0  0  0  0  0  0  0  0  0  0
   -2.9430    4.7323    2.6119 C   0  0  0  0  0  0  0  0  0  0  0  0
   -3.7704    4.9303    3.2842 H   0  0  0  0  0  0  0  0  0  0  0  0
   -2.2728    5.7876    1.9762 C   0  0  0  0  0  0  0  0  0  0  0  0
   -2.5815    6.8130    2.1566 H   0  0  0  0  0  0  0  0  0  0  0  0
   -1.2027    5.5212    1.1078 C   0  0  0  0  0  0  0  0  0  0  0  0
   -0.6848    6.3399    0.6171 H   0  0  0  0  0  0  0  0  0  0  0  0
   -0.7962    4.2001    0.8726 C   0  0  0  0  0  0  0  0  0  0  0  0
    0.0329    3.9891    0.2044 H   0  0  0  0  0  0  0  0  0  0  0  0
   -1.4698    3.1549    1.5125 C   0  0  0  0  0  0  0  0  0  0  0  0
    0.3438    0.3321   -1.7103 C   0  0  0  0  0  0  0  0  0  0  0  0
    0.8309    1.1004   -2.5293 O   0  0  0  0  0  0  0  0  0  0  0  0
    0.8261   -0.9569   -1.5935 N   0  0  0  0  0  0  0  0  0  0  0  0
    0.3313   -1.5657   -0.9372 H   0  0  0  0  0  0  0  0  0  0  0  0
    1.8679   -1.5144   -2.4440 C   0  0  0  0  0  0  0  0  0  0  0  0
    2.7780   -0.9085   -2.3829 H   0  0  0  0  0  0  0  0  0  0  0  0
    2.1097   -2.5327   -2.1247 H   0  0  0  0  0  0  0  0  0  0  0  0
    1.5342   -1.5467   -3.4864 H   0  0  0  0  0  0  0  0  0  0  0  0
  1  2  1  0  0  0  0
  2  3  1  0  0  0  0
  2  4  1  0  0  0  0
  2  5  1  0  0  0  0
  5  6  2  0  0  0  0
  5  7  1  0  0  0  0
  7  8  1  0  0  0  0
  7  9  1  0  0  0  0
  9 10  1  0  0  0  0
  9 11  1  0  0  0  0
  9 29  1  0  0  0  0
 11 12  1  0  0  0  0
 11 13  1  0  0  0  0
 11 14  1  0  0  0  0
 14 15  2  0  0  0  0
 14 28  1  0  0  0  0
 15 16  1  0  0  0  0
 15 17  1  0  0  0  0
 17 18  1  0  0  0  0
 17 19  1  0  0  0  0
 19 20  1  0  0  0  0
 19 28  2  0  0  0  0
 20 21  1  0  0  0  0
 20 22  2  0  0  0  0
 22 23  1  0  0  0  0
 22 24  1  0  0  0  0
 24 25  1  0  0  0  0
 24 26  2  0  0  0  0
 26 27  1  0  0  0  0
 26 28  1  0  0  0  0
 29 30  2  0  0  0  0
 29 31  1  0  0  0  0
 31 32  1  0  0  0  0
 31 33  1  0  0  0  0
 33 34  1  0  0  0  0
 33 35  1  0  0  0  0
 33 36  1  0  0  0  0
M  END
$$$$

  -OEChem-01062216103D

 36 37  0     1  0  0  0  0  0999 V2000
   -3.8560   -2.6073    0.3473 H   0  0  0  0  0  0  0  0  0  0  0  0
   -3.7762   -1.7240   -0.2928 C   0  0  0  0  0  0  0  0  0  0  0  0
   -4.4366   -0.9459    0.0980 H   0  0  0  0  0  0  0  0  0  0  0  0
   -4.0959   -1.9908   -1.3032 H   0  0  0  0  0  0  0  0  0  0  0  0
   -2.3448   -1.2243   -0.3177 C   0  0  0  0  0  0  0  0  0  0  0  0
   -1.4578   -1.9023    0.1749 O   0  0  0  0  0  0  0  0  0  0  0  0
   -2.0418   -0.0636   -0.9980 N   0  0  0  0  0  0  0  0  0  0  0  0
   -2.8463    0.4130   -1.3952 H   0  0  0  0  0  0  0  0  0  0  0  0
   -0.8312    0.7714   -0.8177 C   0  0  1  0  0  0  0  0  0  0  0  0
   -1.0955    1.7813   -1.1482 H   0  0  0  0  0  0  0  0  0  0  0  0
   -0.3142    0.9110    0.6290 C   0  0  0  0  0  0  0  0  0  0  0  0
   -0.1159   -0.0643    1.0789 H   0  0  0  0  0  0  0  0  0  0  0  0
    0.6375    1.4528    0.6265 H   0  0  0  0  0  0  0  0  0  0  0  0
   -1.3008    1.6819    1.4641 C   0  0  0  0  0  0  0  0  0  0  0  0
   -2.2513    1.1370    2.2922 C   0  0  0  0  0  0  0  0  0  0  0  0
   -2.3856    0.0733    2.4794 H   0  0  0  0  0  0  0  0  0  0  0  0
   -2.9871    2.1878    2.8370 N   0  0  0  0  0  0  0  0  0  0  0  0
   -3.7401    2.0906    3.5149 H   0  0  0  0  0  0  0  0  0  0  0  0
   -2.5200    3.4024    2.3586 C   0  0  0  0  0  0  0  0  0  0  0  0
   -2.9220    4.7161    2.6014 C   0  0  0  0  0  0  0  0  0  0  0  0
   -3.7439    4.9207    3.2785 H   0  0  0  0  0  0  0  0  0  0  0  0
   -2.2504    5.7659    1.9581 C   0  0  0  0  0  0  0  0  0  0  0  0
   -2.5519    6.7937    2.1377 H   0  0  0  0  0  0  0  0  0  0  0  0
   -1.1883    5.4910    1.0823 C   0  0  0  0  0  0  0  0  0  0  0  0
   -0.6693    6.3053    0.5856 H   0  0  0  0  0  0  0  0  0  0  0  0
   -0.7910    4.1671    0.8472 C   0  0  0  0  0  0  0  0  0  0  0  0
    0.0322    3.9489    0.1737 H   0  0  0  0  0  0  0  0  0  0  0  0
   -1.4662    3.1276    1.4945 C   0  0  0  0  0  0  0  0  0  0  0  0
    0.3097    0.3197   -1.7475 C   0  0  0  0  0  0  0  0  0  0  0  0
    0.9691    1.1477   -2.3626 O   0  0  0  0  0  0  0  0  0  0  0  0
    0.5979   -1.0256   -1.8737 N   0  0  0  0  0  0  0  0  0  0  0  0
    0.0740   -1.6553   -1.2614 H   0  0  0  0  0  0  0  0  0  0  0  0
    1.7083   -1.5482   -2.6574 C   0  0  0  0  0  0  0  0  0  0  0  0
    2.6605   -1.1643   -2.2767 H   0  0  0  0  0  0  0  0  0  0  0  0
    1.7275   -2.6408   -2.6011 H   0  0  0  0  0  0  0  0  0  0  0  0
    1.6052   -1.2586   -3.7083 H   0  0  0  0  0  0  0  0  0  0  0  0
  1  2  1  0  0  0  0
  2  3  1  0  0  0  0
  2  4  1  0  0  0  0
  2  5  1  0  0  0  0
  5  6  2  0  0  0  0
  5  7  1  0  0  0  0
  7  8  1  0  0  0  0
  7  9  1  0  0  0  0
  9 10  1  0  0  0  0
  9 11  1  0  0  0  0
  9 29  1  0  0  0  0
 11 12  1  0  0  0  0
 11 13  1  0  0  0  0
 11 14  1  0  0  0  0
 14 15  2  0  0  0  0
 14 28  1  0  0  0  0
 15 16  1  0  0  0  0
 15 17  1  0  0  0  0
 17 18  1  0  0  0  0
 17 19  1  0  0  0  0
 19 20  1  0  0  0  0
 19 28  2  0  0  0  0
 20 21  1  0  0  0  0
 20 22  2  0  0  0  0
 22 23  1  0  0  0  0
 22 24  1  0  0  0  0
 24 25  1  0  0  0  0
 24 26  2  0  0  0  0
 26 27  1  0  0  0  0
 26 28  1  0  0  0  0
 29 30  2  0  0  0  0
 29 31  1  0  0  0  0
 31 32  1  0  0  0  0
 31 33  1  0  0  0  0
 33 34  1  0  0  0  0
 33 35  1  0  0  0  0
 33 36  1  0  0  0  0
M  END
$$$$

  -OEChem-01062216103D

 36 37  0     1  0  0  0  0  0999 V2000
   -3.8665   -2.5850    0.4154 H   0  0  0  0  0  0  0  0  0  0  0  0
   -3.7972   -1.7029   -0.2273 C   0  0  0  0  0  0  0  0  0  0  0  0
   -4.4240   -0.9123    0.1927 H   0  0  0  0  0  0  0  0  0  0  0  0
   -4.1670   -1.9617   -1.2227 H   0  0  0  0  0  0  0  0  0  0  0  0
   -2.3586   -1.2318   -0.3156 C   0  0  0  0  0  0  0  0  0  0  0  0
   -1.4616   -1.9363    0.1161 O   0  0  0  0  0  0  0  0  0  0  0  0
   -2.0623   -0.0721   -0.9996 N   0  0  0  0  0  0  0  0  0  0  0  0
   -2.8777    0.4237   -1.3481 H   0  0  0  0  0  0  0  0  0  0  0  0
   -0.8451    0.7576   -0.8307 C   0  0  1  0  0  0  0  0  0  0  0  0
   -1.1087    1.7689   -1.1572 H   0  0  0  0  0  0  0  0  0  0  0  0
   -0.3266    0.8883    0.6169 C   0  0  0  0  0  0  0  0  0  0  0  0
   -0.1370   -0.0911    1.0622 H   0  0  0  0  0  0  0  0  0  0  0  0
    0.6289    1.4232    0.6191 H   0  0  0  0  0  0  0  0  0  0  0  0
   -1.3100    1.6628    1.4527 C   0  0  0  0  0  0  0  0  0  0  0  0
   -2.2659    1.1238    2.2783 C   0  0  0  0  0  0  0  0  0  0  0  0
   -2.4063    0.0613    2.4671 H   0  0  0  0  0  0  0  0  0  0  0  0
   -2.9993    2.1787    2.8178 N   0  0  0  0  0  0  0  0  0  0  0  0
   -3.7552    2.0863    3.4930 H   0  0  0  0  0  0  0  0  0  0  0  0
   -2.5235    3.3903    2.3405 C   0  0  0  0  0  0  0  0  0  0  0  0
   -2.9190    4.7065    2.5800 C   0  0  0  0  0  0  0  0  0  0  0  0
   -3.7433    4.9163    3.2526 H   0  0  0  0  0  0  0  0  0  0  0  0
   -2.2370    5.7520    1.9407 C   0  0  0  0  0  0  0  0  0  0  0  0
   -2.5329    6.7816    2.1188 H   0  0  0  0  0  0  0  0  0  0  0  0
   -1.1711    5.4705    1.0717 C   0  0  0  0  0  0  0  0  0  0  0  0
   -0.6433    6.2815    0.5789 H   0  0  0  0  0  0  0  0  0  0  0  0
   -0.7813    4.1440    0.8388 C   0  0  0  0  0  0  0  0  0  0  0  0
    0.0445    3.9199    0.1702 H   0  0  0  0  0  0  0  0  0  0  0  0
   -1.4669    3.1091    1.4822 C   0  0  0  0  0  0  0  0  0  0  0  0
    0.2966    0.3163   -1.7662 C   0  0  0  0  0  0  0  0  0  0  0  0
    1.0971    1.1425   -2.1853 O   0  0  0  0  0  0  0  0  0  0  0  0
    0.4070   -1.0063   -2.1515 N   0  0  0  0  0  0  0  0  0  0  0  0
   -0.1674   -1.6633   -1.6201 H   0  0  0  0  0  0  0  0  0  0  0  0
    1.5226   -1.5196   -2.9348 C   0  0  0  0  0  0  0  0  0  0  0  0
    2.4618   -1.4065   -2.3836 H   0  0  0  0  0  0  0  0  0  0  0  0
    1.3726   -2.5812   -3.1532 H   0  0  0  0  0  0  0  0  0  0  0  0
    1.6038   -0.9812   -3.8849 H   0  0  0  0  0  0  0  0  0  0  0  0
  1  2  1  0  0  0  0
  2  3  1  0  0  0  0
  2  4  1  0  0  0  0
  2  5  1  0  0  0  0
  5  6  2  0  0  0  0
  5  7  1  0  0  0  0
  7  8  1  0  0  0  0
  7  9  1  0  0  0  0
  9 10  1  0  0  0  0
  9 11  1  0  0  0  0
  9 29  1  0  0  0  0
 11 12  1  0  0  0  0
 11 13  1  0  0  0  0
 11 14  1  0  0  0  0
 14 15  2  0  0  0  0
 14 28  1  0  0  0  0
 15 16  1  0  0  0  0
 15 17  1  0  0  0  0
 17 18  1  0  0  0  0
 17 19  1  0  0  0  0
 19 20  1  0  0  0  0
 19 28  2  0  0  0  0
 20 21  1  0  0  0  0
 20 22  2  0  0  0  0
 22 23  1  0  0  0  0
 22 24  1  0  0  0  0
 24 25  1  0  0  0  0
 24 26  2  0  0  0  0
 26 27  1  0  0  0  0
 26 28  1  0  0  0  0
 29 30  2  0  0  0  0
 29 31  1  0  0  0  0
 31 32  1  0  0  0  0
 31 33  1  0  0  0  0
 33 34  1  0  0  0  0
 33 35  1  0  0  0  0
 33 36  1  0  0  0  0
M  END
$$$$

  -OEChem-01062216103D

 36 37  0     1  0  0  0  0  0999 V2000
   -3.8632   -2.5884    0.4416 H   0  0  0  0  0  0  0  0  0  0  0  0
   -3.8020   -1.6993   -0.1926 C   0  0  0  0  0  0  0  0  0  0  0  0
   -4.4114   -0.9084    0.2519 H   0  0  0  0  0  0  0  0  0  0  0  0
   -4.1981   -1.9431   -1.1814 H   0  0  0  0  0  0  0  0  0  0  0  0
   -2.3616   -1.2400   -0.3103 C   0  0  0  0  0  0  0  0  0  0  0  0
   -1.4626   -1.9536    0.0984 O   0  0  0  0  0  0  0  0  0  0  0  0
   -2.0692   -0.0808   -0.9967 N   0  0  0  0  0  0  0  0  0  0  0  0
   -2.8896    0.4239   -1.3200 H   0  0  0  0  0  0  0  0  0  0  0  0
   -0.8485    0.7472   -0.8346 C   0  0  1  0  0  0  0  0  0  0  0  0
   -1.1116    1.7586   -1.1608 H   0  0  0  0  0  0  0  0  0  0  0  0
   -0.3331    0.8756    0.6152 C   0  0  0  0  0  0  0  0  0  0  0  0
   -0.1458   -0.1048    1.0591 H   0  0  0  0  0  0  0  0  0  0  0  0
    0.6234    1.4092    0.6228 H   0  0  0  0  0  0  0  0  0  0  0  0
   -1.3163    1.6528    1.4490 C   0  0  0  0  0  0  0  0  0  0  0  0
   -2.2767    1.1183    2.2729 C   0  0  0  0  0  0  0  0  0  0  0  0
   -2.4218    0.0568    2.4638 H   0  0  0  0  0  0  0  0  0  0  0  0
   -3.0057    2.1770    2.8112 N   0  0  0  0  0  0  0  0  0  0  0  0
   -3.7595    2.0893    3.4895 H   0  0  0  0  0  0  0  0  0  0  0  0
   -2.5243    3.3860    2.3327 C   0  0  0  0  0  0  0  0  0  0  0  0
   -2.9139    4.7040    2.5719 C   0  0  0  0  0  0  0  0  0  0  0  0
   -3.7352    4.9179    3.2466 H   0  0  0  0  0  0  0  0  0  0  0  0
   -2.2296    5.7461    1.9295 C   0  0  0  0  0  0  0  0  0  0  0  0
   -2.5213    6.7770    2.1068 H   0  0  0  0  0  0  0  0  0  0  0  0
   -1.1663    5.4596    1.0591 C   0  0  0  0  0  0  0  0  0  0  0  0
   -0.6368    6.2685    0.5644 H   0  0  0  0  0  0  0  0  0  0  0  0
   -0.7805    4.1314    0.8285 C   0  0  0  0  0  0  0  0  0  0  0  0
    0.0446    3.9039    0.1601 H   0  0  0  0  0  0  0  0  0  0  0  0
   -1.4689    3.0997    1.4746 C   0  0  0  0  0  0  0  0  0  0  0  0
    0.2959    0.3131   -1.7738 C   0  0  0  0  0  0  0  0  0  0  0  0
    1.2171    1.0847   -2.0095 O   0  0  0  0  0  0  0  0  0  0  0  0
    0.2515   -0.9120   -2.4122 N   0  0  0  0  0  0  0  0  0  0  0  0
   -0.4081   -1.5779   -2.0120 H   0  0  0  0  0  0  0  0  0  0  0  0
    1.3422   -1.4196   -3.2337 C   0  0  0  0  0  0  0  0  0  0  0  0
    2.2458   -1.5544   -2.6301 H   0  0  0  0  0  0  0  0  0  0  0  0
    1.0674   -2.3848   -3.6698 H   0  0  0  0  0  0  0  0  0  0  0  0
    1.5637   -0.7248   -4.0506 H   0  0  0  0  0  0  0  0  0  0  0  0
  1  2  1  0  0  0  0
  2  3  1  0  0  0  0
  2  4  1  0  0  0  0
  2  5  1  0  0  0  0
  5  6  2  0  0  0  0
  5  7  1  0  0  0  0
  7  8  1  0  0  0  0
  7  9  1  0  0  0  0
  9 10  1  0  0  0  0
  9 11  1  0  0  0  0
  9 29  1  0  0  0  0
 11 12  1  0  0  0  0
 11 13  1  0  0  0  0
 11 14  1  0  0  0  0
 14 15  2  0  0  0  0
 14 28  1  0  0  0  0
 15 16  1  0  0  0  0
 15 17  1  0  0  0  0
 17 18  1  0  0  0  0
 17 19  1  0  0  0  0
 19 20  1  0  0  0  0
 19 28  2  0  0  0  0
 20 21  1  0  0  0  0
 20 22  2  0  0  0  0
 22 23  1  0  0  0  0
 22 24  1  0  0  0  0
 24 25  1  0  0  0  0
 24 26  2  0  0  0  0
 26 27  1  0  0  0  0
 26 28  1  0  0  0  0
 29 30  2  0  0  0  0
 29 31  1  0  0  0  0
 31 32  1  0  0  0  0
 31 33  1  0  0  0  0
 33 34  1  0  0  0  0
 33 35  1  0  0  0  0
 33 36  1  0  0  0  0
M  END
$$$$

  -OEChem-01062216103D

 36 37  0     1  0  0  0  0  0999 V2000
   -3.8545   -2.6090    0.4460 H   0  0  0  0  0  0  0  0  0  0  0  0
   -3.7911   -1.7230   -0.1922 C   0  0  0  0  0  0  0  0  0  0  0  0
   -4.4112   -0.9346    0.2412 H   0  0  0  0  0  0  0  0  0  0  0  0
   -4.1741   -1.9749   -1.1840 H   0  0  0  0  0  0  0  0  0  0  0  0
   -2.3519   -1.2547   -0.2951 C   0  0  0  0  0  0  0  0  0  0  0  0
   -1.4571   -1.9602    0.1345 O   0  0  0  0  0  0  0  0  0  0  0  0
   -2.0641   -0.0902   -0.9766 N   0  0  0  0  0  0  0  0  0  0  0  0
   -2.8875    0.4162   -1.2898 H   0  0  0  0  0  0  0  0  0  0  0  0
   -0.8409    0.7372   -0.8224 C   0  0  1  0  0  0  0  0  0  0  0  0
   -1.1062    1.7482   -1.1468 H   0  0  0  0  0  0  0  0  0  0  0  0
   -0.3266    0.8683    0.6298 C   0  0  0  0  0  0  0  0  0  0  0  0
   -0.1414   -0.1109    1.0769 H   0  0  0  0  0  0  0  0  0  0  0  0
    0.6300    1.4007    0.6423 H   0  0  0  0  0  0  0  0  0  0  0  0
   -1.3115    1.6503    1.4576 C   0  0  0  0  0  0  0  0  0  0  0  0
   -2.2754    1.1201    2.2797 C   0  0  0  0  0  0  0  0  0  0  0  0
   -2.4196    0.0593    2.4754 H   0  0  0  0  0  0  0  0  0  0  0  0
   -3.0096    2.1815    2.8061 N   0  0  0  0  0  0  0  0  0  0  0  0
   -3.7667    2.0967    3.4814 H   0  0  0  0  0  0  0  0  0  0  0  0
   -2.5266    3.3881    2.3231 C   0  0  0  0  0  0  0  0  0  0  0  0
   -2.9195    4.7074    2.5491 C   0  0  0  0  0  0  0  0  0  0  0  0
   -3.7487    4.9254    3.2130 H   0  0  0  0  0  0  0  0  0  0  0  0
   -2.2280    5.7456    1.9079 C   0  0  0  0  0  0  0  0  0  0  0  0
   -2.5225    6.7775    2.0749 H   0  0  0  0  0  0  0  0  0  0  0  0
   -1.1535    5.4545    1.0529 C   0  0  0  0  0  0  0  0  0  0  0  0
   -0.6175    6.2606    0.5609 H   0  0  0  0  0  0  0  0  0  0  0  0
   -0.7658    4.1250    0.8341 C   0  0  0  0  0  0  0  0  0  0  0  0
    0.0683    3.8930    0.1784 H   0  0  0  0  0  0  0  0  0  0  0  0
   -1.4634    3.0973    1.4765 C   0  0  0  0  0  0  0  0  0  0  0  0
    0.2955    0.3098   -1.7776 C   0  0  0  0  0  0  0  0  0  0  0  0
    1.3212    0.9754   -1.8495 O   0  0  0  0  0  0  0  0  0  0  0  0
    0.1158   -0.7450   -2.6532 N   0  0  0  0  0  0  0  0  0  0  0  0
   -0.6553   -1.3669   -2.4240 H   0  0  0  0  0  0  0  0  0  0  0  0
    1.1704   -1.2371   -3.5295 C   0  0  0  0  0  0  0  0  0  0  0  0
    2.0138   -1.6110   -2.9398 H   0  0  0  0  0  0  0  0  0  0  0  0
    0.7923   -2.0527   -4.1533 H   0  0  0  0  0  0  0  0  0  0  0  0
    1.5268   -0.4378   -4.1878 H   0  0  0  0  0  0  0  0  0  0  0  0
  1  2  1  0  0  0  0
  2  3  1  0  0  0  0
  2  4  1  0  0  0  0
  2  5  1  0  0  0  0
  5  6  2  0  0  0  0
  5  7  1  0  0  0  0
  7  8  1  0  0  0  0
  7  9  1  0  0  0  0
  9 10  1  0  0  0  0
  9 11  1  0  0  0  0
  9 29  1  0  0  0  0
 11 12  1  0  0  0  0
 11 13  1  0  0  0  0
 11 14  1  0  0  0  0
 14 15  2  0  0  0  0
 14 28  1  0  0  0  0
 15 16  1  0  0  0  0
 15 17  1  0  0  0  0
 17 18  1  0  0  0  0
 17 19  1  0  0  0  0
 19 20  1  0  0  0  0
 19 28  2  0  0  0  0
 20 21  1  0  0  0  0
 20 22  2  0  0  0  0
 22 23  1  0  0  0  0
 22 24  1  0  0  0  0
 24 25  1  0  0  0  0
 24 26  2  0  0  0  0
 26 27  1  0  0  0  0
 26 28  1  0  0  0  0
 29 30  2  0  0  0  0
 29 31  1  0  0  0  0
 31 32  1  0  0  0  0
 31 33  1  0  0  0  0
 33 34  1  0  0  0  0
 33 35  1  0  0  0  0
 33 36  1  0  0  0  0
M  END
$$$$

  -OEChem-01062216103D

 36 37  0     1  0  0  0  0  0999 V2000
   -3.8484   -2.6192    0.4422 H   0  0  0  0  0  0  0  0  0  0  0  0
   -3.7733   -1.7557   -0.2251 C   0  0  0  0  0  0  0  0  0  0  0  0
   -4.4241   -0.9634    0.1525 H   0  0  0  0  0  0  0  0  0  0  0  0
   -4.1095   -2.0507   -1.2221 H   0  0  0  0  0  0  0  0  0  0  0  0
   -2.3387   -1.2661   -0.2856 C   0  0  0  0  0  0  0  0  0  0  0  0
   -1.4536   -1.9503    0.1940 O   0  0  0  0  0  0  0  0  0  0  0  0
   -2.0529   -0.0991   -0.9657 N   0  0  0  0  0  0  0  0  0  0  0  0
   -2.8781    0.4014   -1.2832 H   0  0  0  0  0  0  0  0  0  0  0  0
   -0.8312    0.7322   -0.8177 C   0  0  1  0  0  0  0  0  0  0  0  0
   -1.0999    1.7413   -1.1445 H   0  0  0  0  0  0  0  0  0  0  0  0
   -0.3172    0.8734    0.6351 C   0  0  0  0  0  0  0  0  0  0  0  0
   -0.1273   -0.1018    1.0880 H   0  0  0  0  0  0  0  0  0  0  0  0
    0.6363    1.4110    0.6485 H   0  0  0  0  0  0  0  0  0  0  0  0
   -1.3039    1.6578    1.4578 C   0  0  0  0  0  0  0  0  0  0  0  0
   -2.2649    1.1257    2.2815 C   0  0  0  0  0  0  0  0  0  0  0  0
   -2.4044    0.0644    2.4788 H   0  0  0  0  0  0  0  0  0  0  0  0
   -3.0014    2.1857    2.8076 N   0  0  0  0  0  0  0  0  0  0  0  0
   -3.7555    2.0996    3.4856 H   0  0  0  0  0  0  0  0  0  0  0  0
   -2.5216    3.3933    2.3234 C   0  0  0  0  0  0  0  0  0  0  0  0
   -2.9162    4.7119    2.5508 C   0  0  0  0  0  0  0  0  0  0  0  0
   -3.7433    4.9283    3.2175 H   0  0  0  0  0  0  0  0  0  0  0  0
   -2.2289    5.7519    1.9083 C   0  0  0  0  0  0  0  0  0  0  0  0
   -2.5248    6.7831    2.0772 H   0  0  0  0  0  0  0  0  0  0  0  0
   -1.1561    5.4629    1.0502 C   0  0  0  0  0  0  0  0  0  0  0  0
   -0.6228    6.2705    0.5572 H   0  0  0  0  0  0  0  0  0  0  0  0
   -0.7654    4.1339    0.8312 C   0  0  0  0  0  0  0  0  0  0  0  0
    0.0689    3.9034    0.1753 H   0  0  0  0  0  0  0  0  0  0  0  0
   -1.4593    3.1046    1.4750 C   0  0  0  0  0  0  0  0  0  0  0  0
    0.2968    0.3019   -1.7846 C   0  0  0  0  0  0  0  0  0  0  0  0
    1.4115    0.8035   -1.7092 O   0  0  0  0  0  0  0  0  0  0  0  0
    0.0170   -0.5295   -2.8541 N   0  0  0  0  0  0  0  0  0  0  0  0
   -0.8618   -1.0350   -2.7955 H   0  0  0  0  0  0  0  0  0  0  0  0
    1.0392   -1.0078   -3.7767 C   0  0  0  0  0  0  0  0  0  0  0  0
    1.7911   -1.5984   -3.2430 H   0  0  0  0  0  0  0  0  0  0  0  0
    0.5865   -1.6372   -4.5487 H   0  0  0  0  0  0  0  0  0  0  0  0
    1.5369   -0.1654   -4.2684 H   0  0  0  0  0  0  0  0  0  0  0  0
  1  2  1  0  0  0  0
  2  3  1  0  0  0  0
  2  4  1  0  0  0  0
  2  5  1  0  0  0  0
  5  6  2  0  0  0  0
  5  7  1  0  0  0  0
  7  8  1  0  0  0  0
  7  9  1  0  0  0  0
  9 10  1  0  0  0  0
  9 11  1  0  0  0  0
  9 29  1  0  0  0  0
 11 12  1  0  0  0  0
 11 13  1  0  0  0  0
 11 14  1  0  0  0  0
 14 15  2  0  0  0  0
 14 28  1  0  0  0  0
 15 16  1  0  0  0  0
 15 17  1  0  0  0  0
 17 18  1  0  0  0  0
 17 19  1  0  0  0  0
 19 20  1  0  0  0  0
 19 28  2  0  0  0  0
 20 21  1  0  0  0  0
 20 22  2  0  0  0  0
 22 23  1  0  0  0  0
 22 24  1  0  0  0  0
 24 25  1  0  0  0  0
 24 26  2  0  0  0  0
 26 27  1  0  0  0  0
 26 28  1  0  0  0  0
 29 30  2  0  0  0  0
 29 31  1  0  0  0  0
 31 32  1  0  0  0  0
 31 33  1  0  0  0  0
 33 34  1  0  0  0  0
 33 35  1  0  0  0  0
 33 36  1  0  0  0  0
M  END
$$$$

  -OEChem-01062216103D

 36 37  0     1  0  0  0  0  0999 V2000
   -3.8099   -2.6544    0.4037 H   0  0  0  0  0  0  0  0  0  0  0  0
   -3.7444   -1.7651   -0.2297 C   0  0  0  0  0  0  0  0  0  0  0  0
   -4.3881   -0.9879    0.1892 H   0  0  0  0  0  0  0  0  0  0  0  0
   -4.0964   -2.0207   -1.2319 H   0  0  0  0  0  0  0  0  0  0  0  0
   -2.3104   -1.2740   -0.2920 C   0  0  0  0  0  0  0  0  0  0  0  0
   -1.4266   -1.9557    0.1932 O   0  0  0  0  0  0  0  0  0  0  0  0
   -2.0296   -0.0994   -0.9621 N   0  0  0  0  0  0  0  0  0  0  0  0
   -2.8584    0.4070   -1.2601 H   0  0  0  0  0  0  0  0  0  0  0  0
   -0.8071    0.7284   -0.8065 C   0  0  1  0  0  0  0  0  0  0  0  0
   -1.0722    1.7394   -1.1300 H   0  0  0  0  0  0  0  0  0  0  0  0
   -0.3009    0.8687    0.6501 C   0  0  0  0  0  0  0  0  0  0  0  0
   -0.1140   -0.1062    1.1057 H   0  0  0  0  0  0  0  0  0  0  0  0
    0.6521    1.4070    0.6690 H   0  0  0  0  0  0  0  0  0  0  0  0
   -1.2938    1.6561    1.4630 C   0  0  0  0  0  0  0  0  0  0  0  0
   -2.2619    1.1243    2.2785 C   0  0  0  0  0  0  0  0  0  0  0  0
   -2.4006    0.0630    2.4769 H   0  0  0  0  0  0  0  0  0  0  0  0
   -3.0089    2.1836    2.7909 N   0  0  0  0  0  0  0  0  0  0  0  0
   -3.7726    2.0966    3.4581 H   0  0  0  0  0  0  0  0  0  0  0  0
   -2.5281    3.3909    2.3076 C   0  0  0  0  0  0  0  0  0  0  0  0
   -2.9321    4.7090    2.5229 C   0  0  0  0  0  0  0  0  0  0  0  0
   -3.7700    4.9248    3.1766 H   0  0  0  0  0  0  0  0  0  0  0  0
   -2.2403    5.7487    1.8845 C   0  0  0  0  0  0  0  0  0  0  0  0
   -2.5429    6.7796    2.0436 H   0  0  0  0  0  0  0  0  0  0  0  0
   -1.1540    5.4600    1.0436 C   0  0  0  0  0  0  0  0  0  0  0  0
   -0.6164    6.2669    0.5548 H   0  0  0  0  0  0  0  0  0  0  0  0
   -0.7551    4.1319    0.8360 C   0  0  0  0  0  0  0  0  0  0  0  0
    0.0894    3.9017    0.1936 H   0  0  0  0  0  0  0  0  0  0  0  0
   -1.4537    3.1025    1.4740 C   0  0  0  0  0  0  0  0  0  0  0  0
    0.3085    0.2945   -1.7874 C   0  0  0  0  0  0  0  0  0  0  0  0
    1.4845    0.5661   -1.5802 O   0  0  0  0  0  0  0  0  0  0  0  0
   -0.0342   -0.2544   -3.0106 N   0  0  0  0  0  0  0  0  0  0  0  0
   -0.9919   -0.5796   -3.0960 H   0  0  0  0  0  0  0  0  0  0  0  0
    0.9519   -0.7171   -3.9796 C   0  0  0  0  0  0  0  0  0  0  0  0
    1.5599   -1.5217   -3.5525 H   0  0  0  0  0  0  0  0  0  0  0  0
    0.4513   -1.0974   -4.8751 H   0  0  0  0  0  0  0  0  0  0  0  0
    1.6125    0.1040   -4.2779 H   0  0  0  0  0  0  0  0  0  0  0  0
  1  2  1  0  0  0  0
  2  3  1  0  0  0  0
  2  4  1  0  0  0  0
  2  5  1  0  0  0  0
  5  6  2  0  0  0  0
  5  7  1  0  0  0  0
  7  8  1  0  0  0  0
  7  9  1  0  0  0  0
  9 10  1  0  0  0  0
  9 11  1  0  0  0  0
  9 29  1  0  0  0  0
 11 12  1  0  0  0  0
 11 13  1  0  0  0  0
 11 14  1  0  0  0  0
 14 15  2  0  0  0  0
 14 28  1  0  0  0  0
 15 16  1  0  0  0  0
 15 17  1  0  0  0  0
 17 18  1  0  0  0  0
 17 19  1  0  0  0  0
 19 20  1  0  0  0  0
 19 28  2  0  0  0  0
 20 21  1  0  0  0  0
 20 22  2  0  0  0  0
 22 23  1  0  0  0  0
 22 24  1  0  0  0  0
 24 25  1  0  0  0  0
 24 26  2  0  0  0  0
 26 27  1  0  0  0  0
 26 28  1  0  0  0  0
 29 30  2  0  0  0  0
 29 31  1  0  0  0  0
 31 32  1  0  0  0  0
 31 33  1  0  0  0  0
 33 34  1  0  0  0  0
 33 35  1  0  0  0  0
 33 36  1  0  0  0  0
M  END
$$$$

  -OEChem-01062216103D

 36 37  0     1  0  0  0  0  0999 V2000
   -3.8060   -2.6808    0.3552 H   0  0  0  0  0  0  0  0  0  0  0  0
   -3.7331   -1.7864   -0.2703 C   0  0  0  0  0  0  0  0  0  0  0  0
   -4.3967   -1.0192    0.1360 H   0  0  0  0  0  0  0  0  0  0  0  0
   -4.0544   -2.0389   -1.2835 H   0  0  0  0  0  0  0  0  0  0  0  0
   -2.3033   -1.2797   -0.2919 C   0  0  0  0  0  0  0  0  0  0  0  0
   -1.4310   -1.9446    0.2352 O   0  0  0  0  0  0  0  0  0  0  0  0
   -2.0198   -0.1051   -0.9618 N   0  0  0  0  0  0  0  0  0  0  0  0
   -2.8470    0.3900   -1.2812 H   0  0  0  0  0  0  0  0  0  0  0  0
   -0.8010    0.7272   -0.8081 C   0  0  1  0  0  0  0  0  0  0  0  0
   -1.0679    1.7371   -1.1335 H   0  0  0  0  0  0  0  0  0  0  0  0
   -0.2929    0.8764    0.6464 C   0  0  0  0  0  0  0  0  0  0  0  0
   -0.0995   -0.0954    1.1057 H   0  0  0  0  0  0  0  0  0  0  0  0
    0.6577    1.4189    0.6586 H   0  0  0  0  0  0  0  0  0  0  0  0
   -1.2869    1.6638    1.4581 C   0  0  0  0  0  0  0  0  0  0  0  0
   -2.2504    1.1293    2.2775 C   0  0  0  0  0  0  0  0  0  0  0  0
   -2.3848    0.0674    2.4763 H   0  0  0  0  0  0  0  0  0  0  0  0
   -2.9974    2.1867    2.7934 N   0  0  0  0  0  0  0  0  0  0  0  0
   -3.7537    2.0978    3.4688 H   0  0  0  0  0  0  0  0  0  0  0  0
   -2.5217    3.3953    2.3078 C   0  0  0  0  0  0  0  0  0  0  0  0
   -2.9278    4.7122    2.5261 C   0  0  0  0  0  0  0  0  0  0  0  0
   -3.7638    4.9250    3.1832 H   0  0  0  0  0  0  0  0  0  0  0  0
   -2.2408    5.7542    1.8863 C   0  0  0  0  0  0  0  0  0  0  0  0
   -2.5451    6.7840    2.0480 H   0  0  0  0  0  0  0  0  0  0  0  0
   -1.1573    5.4693    1.0406 C   0  0  0  0  0  0  0  0  0  0  0  0
   -0.6235    6.2789    0.5519 H   0  0  0  0  0  0  0  0  0  0  0  0
   -0.7566    4.1423    0.8293 C   0  0  0  0  0  0  0  0  0  0  0  0
    0.0859    3.9162    0.1831 H   0  0  0  0  0  0  0  0  0  0  0  0
   -1.4501    3.1102    1.4692 C   0  0  0  0  0  0  0  0  0  0  0  0
    0.3088    0.2858   -1.7918 C   0  0  0  0  0  0  0  0  0  0  0  0
    1.4948    0.3143   -1.4881 O   0  0  0  0  0  0  0  0  0  0  0  0
   -0.0244    0.0290   -3.1104 N   0  0  0  0  0  0  0  0  0  0  0  0
   -1.0122   -0.0895   -3.3090 H   0  0  0  0  0  0  0  0  0  0  0  0
    0.9474   -0.4075   -4.1056 C   0  0  0  0  0  0  0  0  0  0  0  0
    1.3986   -1.3598   -3.8077 H   0  0  0  0  0  0  0  0  0  0  0  0
    0.4598   -0.5425   -5.0757 H   0  0  0  0  0  0  0  0  0  0  0  0
    1.7409    0.3384   -4.2202 H   0  0  0  0  0  0  0  0  0  0  0  0
  1  2  1  0  0  0  0
  2  3  1  0  0  0  0
  2  4  1  0  0  0  0
  2  5  1  0  0  0  0
  5  6  2  0  0  0  0
  5  7  1  0  0  0  0
  7  8  1  0  0  0  0
  7  9  1  0  0  0  0
  9 10  1  0  0  0  0
  9 11  1  0  0  0  0
  9 29  1  0  0  0  0
 11 12  1  0  0  0  0
 11 13  1  0  0  0  0
 11 14  1  0  0  0  0
 14 15  2  0  0  0  0
 14 28  1  0  0  0  0
 15 16  1  0  0  0  0
 15 17  1  0  0  0  0
 17 18  1  0  0  0  0
 17 19  1  0  0  0  0
 19 20  1  0  0  0  0
 19 28  2  0  0  0  0
 20 21  1  0  0  0  0
 20 22  2  0  0  0  0
 22 23  1  0  0  0  0
 22 24  1  0  0  0  0
 24 25  1  0  0  0  0
 24 26  2  0  0  0  0
 26 27  1  0  0  0  0
 26 28  1  0  0  0  0
 29 30  2  0  0  0  0
 29 31  1  0  0  0  0
 31 32  1  0  0  0  0
 31 33  1  0  0  0  0
 33 34  1  0  0  0  0
 33 35  1  0  0  0  0
 33 36  1  0  0  0  0
M  END
$$$$

  -OEChem-01062216103D

 36 37  0     1  0  0  0  0  0999 V2000
   -3.8284   -2.7089    0.2922 H   0  0  0  0  0  0  0  0  0  0  0  0
   -3.7388   -1.8102   -0.3246 C   0  0  0  0  0  0  0  0  0  0  0  0
   -4.4295   -1.0537    0.0557 H   0  0  0  0  0  0  0  0  0  0  0  0
   -4.0106   -2.0610   -1.3528 H   0  0  0  0  0  0  0  0  0  0  0  0
   -2.3165   -1.2846   -0.2791 C   0  0  0  0  0  0  0  0  0  0  0  0
   -1.4698   -1.9261    0.3142 O   0  0  0  0  0  0  0  0  0  0  0  0
   -2.0218   -0.1111   -0.9466 N   0  0  0  0  0  0  0  0  0  0  0  0
   -2.8386    0.3633   -1.3180 H   0  0  0  0  0  0  0  0  0  0  0  0
   -0.8037    0.7219   -0.8008 C   0  0  1  0  0  0  0  0  0  0  0  0
   -1.0737    1.7313   -1.1244 H   0  0  0  0  0  0  0  0  0  0  0  0
   -0.2815    0.8784    0.6468 C   0  0  0  0  0  0  0  0  0  0  0  0
   -0.0821   -0.0912    1.1087 H   0  0  0  0  0  0  0  0  0  0  0  0
    0.6695    1.4205    0.6435 H   0  0  0  0  0  0  0  0  0  0  0  0
   -1.2690    1.6682    1.4639 C   0  0  0  0  0  0  0  0  0  0  0  0
   -2.2229    1.1347    2.2944 C   0  0  0  0  0  0  0  0  0  0  0  0
   -2.3508    0.0731    2.4994 H   0  0  0  0  0  0  0  0  0  0  0  0
   -2.9707    2.1919    2.8101 N   0  0  0  0  0  0  0  0  0  0  0  0
   -3.7235    2.1027    3.4893 H   0  0  0  0  0  0  0  0  0  0  0  0
   -2.5046    3.3994    2.3124 C   0  0  0  0  0  0  0  0  0  0  0  0
   -2.9147    4.7157    2.5250 C   0  0  0  0  0  0  0  0  0  0  0  0
   -3.7452    4.9288    3.1888 H   0  0  0  0  0  0  0  0  0  0  0  0
   -2.2388    5.7568    1.8721 C   0  0  0  0  0  0  0  0  0  0  0  0
   -2.5467    6.7862    2.0307 H   0  0  0  0  0  0  0  0  0  0  0  0
   -1.1623    5.4710    1.0178 C   0  0  0  0  0  0  0  0  0  0  0  0
   -0.6373    6.2794    0.5179 H   0  0  0  0  0  0  0  0  0  0  0  0
   -0.7573    4.1444    0.8125 C   0  0  0  0  0  0  0  0  0  0  0  0
    0.0793    3.9165    0.1597 H   0  0  0  0  0  0  0  0  0  0  0  0
   -1.4391    3.1137    1.4666 C   0  0  0  0  0  0  0  0  0  0  0  0
    0.2996    0.2757   -1.7886 C   0  0  0  0  0  0  0  0  0  0  0  0
    1.4448    0.0377   -1.4269 O   0  0  0  0  0  0  0  0  0  0  0  0
    0.0372    0.3173   -3.1474 N   0  0  0  0  0  0  0  0  0  0  0  0
   -0.9284    0.4559   -3.4254 H   0  0  0  0  0  0  0  0  0  0  0  0
    1.0129   -0.0652   -4.1612 C   0  0  0  0  0  0  0  0  0  0  0  0
    1.2995   -1.1150   -4.0393 H   0  0  0  0  0  0  0  0  0  0  0  0
    0.5898    0.0651   -5.1617 H   0  0  0  0  0  0  0  0  0  0  0  0
    1.9110    0.5568   -4.0843 H   0  0  0  0  0  0  0  0  0  0  0  0
  1  2  1  0  0  0  0
  2  3  1  0  0  0  0
  2  4  1  0  0  0  0
  2  5  1  0  0  0  0
  5  6  2  0  0  0  0
  5  7  1  0  0  0  0
  7  8  1  0  0  0  0
  7  9  1  0  0  0  0
  9 10  1  0  0  0  0
  9 11  1  0  0  0  0
  9 29  1  0  0  0  0
 11 12  1  0  0  0  0
 11 13  1  0  0  0  0
 11 14  1  0  0  0  0
 14 15  2  0  0  0  0
 14 28  1  0  0  0  0
 15 16  1  0  0  0  0
 15 17  1  0  0  0  0
 17 18  1  0  0  0  0
 17 19  1  0  0  0  0
 19 20  1  0  0  0  0
 19 28  2  0  0  0  0
 20 21  1  0  0  0  0
 20 22  2  0  0  0  0
 22 23  1  0  0  0  0
 22 24  1  0  0  0  0
 24 25  1  0  0  0  0
 24 26  2  0  0  0  0
 26 27  1  0  0  0  0
 26 28  1  0  0  0  0
 29 30  2  0  0  0  0
 29 31  1  0  0  0  0
 31 32  1  0  0  0  0
 31 33  1  0  0  0  0
 33 34  1  0  0  0  0
 33 35  1  0  0  0  0
 33 36  1  0  0  0  0
M  END
$$$$

  -OEChem-01062216103D

 36 37  0     1  0  0  0  0  0999 V2000
   -3.8485   -2.7670    0.1844 H   0  0  0  0  0  0  0  0  0  0  0  0
   -3.7317   -1.8802   -0.4454 C   0  0  0  0  0  0  0  0  0  0  0  0
   -4.4997   -1.1523   -0.1731 H   0  0  0  0  0  0  0  0  0  0  0  0
   -3.8669   -2.1718   -1.4896 H   0  0  0  0  0  0  0  0  0  0  0  0
   -2.3529   -1.2777   -0.2509 C   0  0  0  0  0  0  0  0  0  0  0  0
   -1.5679   -1.8429    0.4871 O   0  0  0  0  0  0  0  0  0  0  0  0
   -2.0433   -0.1137   -0.9299 N   0  0  0  0  0  0  0  0  0  0  0  0
   -2.8171    0.2814   -1.4536 H   0  0  0  0  0  0  0  0  0  0  0  0
   -0.8307    0.7315   -0.8057 C   0  0  1  0  0  0  0  0  0  0  0  0
   -1.1121    1.7359   -1.1349 H   0  0  0  0  0  0  0  0  0  0  0  0
   -0.2814    0.9104    0.6281 C   0  0  0  0  0  0  0  0  0  0  0  0
   -0.0614   -0.0511    1.0971 H   0  0  0  0  0  0  0  0  0  0  0  0
    0.6652    1.4589    0.5940 H   0  0  0  0  0  0  0  0  0  0  0  0
   -1.2569    1.6999    1.4591 C   0  0  0  0  0  0  0  0  0  0  0  0
   -2.1848    1.1610    2.3146 C   0  0  0  0  0  0  0  0  0  0  0  0
   -2.3020    0.0976    2.5188 H   0  0  0  0  0  0  0  0  0  0  0  0
   -2.9227    2.2147    2.8518 N   0  0  0  0  0  0  0  0  0  0  0  0
   -3.6589    2.1199    3.5479 H   0  0  0  0  0  0  0  0  0  0  0  0
   -2.4737    3.4253    2.3462 C   0  0  0  0  0  0  0  0  0  0  0  0
   -2.8806    4.7399    2.5756 C   0  0  0  0  0  0  0  0  0  0  0  0
   -3.6939    4.9479    3.2620 H   0  0  0  0  0  0  0  0  0  0  0  0
   -2.2229    5.7852    1.9110 C   0  0  0  0  0  0  0  0  0  0  0  0
   -2.5269    6.8133    2.0838 H   0  0  0  0  0  0  0  0  0  0  0  0
   -1.1681    5.5050    1.0283 C   0  0  0  0  0  0  0  0  0  0  0  0
   -0.6559    6.3165    0.5205 H   0  0  0  0  0  0  0  0  0  0  0  0
   -0.7665    4.1802    0.8057 C   0  0  0  0  0  0  0  0  0  0  0  0
    0.0549    3.9570    0.1326 H   0  0  0  0  0  0  0  0  0  0  0  0
   -1.4301    3.1452    1.4712 C   0  0  0  0  0  0  0  0  0  0  0  0
    0.2691    0.2709   -1.7902 C   0  0  0  0  0  0  0  0  0  0  0  0
    1.3155   -0.2397   -1.4132 O   0  0  0  0  0  0  0  0  0  0  0  0
    0.1335    0.5688   -3.1358 N   0  0  0  0  0  0  0  0  0  0  0  0
   -0.7418    0.9823   -3.4390 H   0  0  0  0  0  0  0  0  0  0  0  0
    1.1304    0.2132   -4.1391 C   0  0  0  0  0  0  0  0  0  0  0  0
    1.2727   -0.8722   -4.1701 H   0  0  0  0  0  0  0  0  0  0  0  0
    0.8068    0.5479   -5.1293 H   0  0  0  0  0  0  0  0  0  0  0  0
    2.0906    0.6882   -3.9116 H   0  0  0  0  0  0  0  0  0  0  0  0
  1  2  1  0  0  0  0
  2  3  1  0  0  0  0
  2  4  1  0  0  0  0
  2  5  1  0  0  0  0
  5  6  2  0  0  0  0
  5  7  1  0  0  0  0
  7  8  1  0  0  0  0
  7  9  1  0  0  0  0
  9 10  1  0  0  0  0
  9 11  1  0  0  0  0
  9 29  1  0  0  0  0
 11 12  1  0  0  0  0
 11 13  1  0  0  0  0
 11 14  1  0  0  0  0
 14 15  2  0  0  0  0
 14 28  1  0  0  0  0
 15 16  1  0  0  0  0
 15 17  1  0  0  0  0
 17 18  1  0  0  0  0
 17 19  1  0  0  0  0
 19 20  1  0  0  0  0
 19 28  2  0  0  0  0
 20 21  1  0  0  0  0
 20 22  2  0  0  0  0
 22 23  1  0  0  0  0
 22 24  1  0  0  0  0
 24 25  1  0  0  0  0
 24 26  2  0  0  0  0
 26 27  1  0  0  0  0
 26 28  1  0  0  0  0
 29 30  2  0  0  0  0
 29 31  1  0  0  0  0
 31 32  1  0  0  0  0
 31 33  1  0  0  0  0
 33 34  1  0  0  0  0
 33 35  1  0  0  0  0
 33 36  1  0  0  0  0
M  END
$$$$

  -OEChem-01062216103D

 36 37  0     1  0  0  0  0  0999 V2000
   -3.8403   -2.8290    0.0798 H   0  0  0  0  0  0  0  0  0  0  0  0
   -3.7056   -1.9536   -0.5620 C   0  0  0  0  0  0  0  0  0  0  0  0
   -4.5439   -1.2710   -0.4047 H   0  0  0  0  0  0  0  0  0  0  0  0
   -3.6993   -2.2812   -1.6042 H   0  0  0  0  0  0  0  0  0  0  0  0
   -2.3983   -1.2579   -0.2306 C   0  0  0  0  0  0  0  0  0  0  0  0
   -1.6914   -1.7364    0.6369 O   0  0  0  0  0  0  0  0  0  0  0  0
   -2.0810   -0.1004   -0.9191 N   0  0  0  0  0  0  0  0  0  0  0  0
   -2.7839    0.1953   -1.5878 H   0  0  0  0  0  0  0  0  0  0  0  0
   -0.8698    0.7496   -0.8090 C   0  0  1  0  0  0  0  0  0  0  0  0
   -1.1609    1.7512   -1.1377 H   0  0  0  0  0  0  0  0  0  0  0  0
   -0.2880    0.9396    0.6089 C   0  0  0  0  0  0  0  0  0  0  0  0
   -0.0511   -0.0188    1.0767 H   0  0  0  0  0  0  0  0  0  0  0  0
    0.6559    1.4904    0.5471 H   0  0  0  0  0  0  0  0  0  0  0  0
   -1.2450    1.7285    1.4607 C   0  0  0  0  0  0  0  0  0  0  0  0
   -2.1475    1.1874    2.3413 C   0  0  0  0  0  0  0  0  0  0  0  0
   -2.2589    0.1231    2.5450 H   0  0  0  0  0  0  0  0  0  0  0  0
   -2.8705    2.2393    2.9011 N   0  0  0  0  0  0  0  0  0  0  0  0
   -3.5912    2.1412    3.6128 H   0  0  0  0  0  0  0  0  0  0  0  0
   -2.4372    3.4506    2.3844 C   0  0  0  0  0  0  0  0  0  0  0  0
   -2.8417    4.7631    2.6274 C   0  0  0  0  0  0  0  0  0  0  0  0
   -3.6368    4.9665    3.3359 H   0  0  0  0  0  0  0  0  0  0  0  0
   -2.2054    5.8115    1.9475 C   0  0  0  0  0  0  0  0  0  0  0  0
   -2.5088    6.8381    2.1301 H   0  0  0  0  0  0  0  0  0  0  0  0
   -1.1731    5.5366    1.0370 C   0  0  0  0  0  0  0  0  0  0  0  0
   -0.6772    6.3515    0.5184 H   0  0  0  0  0  0  0  0  0  0  0  0
   -0.7741    4.2131    0.8003 C   0  0  0  0  0  0  0  0  0  0  0  0
    0.0295    3.9951    0.1044 H   0  0  0  0  0  0  0  0  0  0  0  0
   -1.4176    3.1741    1.4802 C   0  0  0  0  0  0  0  0  0  0  0  0
    0.2278    0.2811   -1.7899 C   0  0  0  0  0  0  0  0  0  0  0  0
    1.1017   -0.5087   -1.4602 O   0  0  0  0  0  0  0  0  0  0  0  0
    0.2692    0.8127   -3.0681 N   0  0  0  0  0  0  0  0  0  0  0  0
   -0.4426    1.4893   -3.3237 H   0  0  0  0  0  0  0  0  0  0  0  0
    1.2890    0.4572   -4.0482 C   0  0  0  0  0  0  0  0  0  0  0  0
    1.2743   -0.6206   -4.2420 H   0  0  0  0  0  0  0  0  0  0  0  0
    1.1065    0.9798   -4.9921 H   0  0  0  0  0  0  0  0  0  0  0  0
    2.2835    0.7365   -3.6845 H   0  0  0  0  0  0  0  0  0  0  0  0
  1  2  1  0  0  0  0
  2  3  1  0  0  0  0
  2  4  1  0  0  0  0
  2  5  1  0  0  0  0
  5  6  2  0  0  0  0
  5  7  1  0  0  0  0
  7  8  1  0  0  0  0
  7  9  1  0  0  0  0
  9 10  1  0  0  0  0
  9 11  1  0  0  0  0
  9 29  1  0  0  0  0
 11 12  1  0  0  0  0
 11 13  1  0  0  0  0
 11 14  1  0  0  0  0
 14 15  2  0  0  0  0
 14 28  1  0  0  0  0
 15 16  1  0  0  0  0
 15 17  1  0  0  0  0
 17 18  1  0  0  0  0
 17 19  1  0  0  0  0
 19 20  1  0  0  0  0
 19 28  2  0  0  0  0
 20 21  1  0  0  0  0
 20 22  2  0  0  0  0
 22 23  1  0  0  0  0
 22 24  1  0  0  0  0
 24 25  1  0  0  0  0
 24 26  2  0  0  0  0
 26 27  1  0  0  0  0
 26 28  1  0  0  0  0
 29 30  2  0  0  0  0
 29 31  1  0  0  0  0
 31 32  1  0  0  0  0
 31 33  1  0  0  0  0
 33 34  1  0  0  0  0
 33 35  1  0  0  0  0
 33 36  1  0  0  0  0
M  END
$$$$

  -OEChem-01062216103D

 36 37  0     1  0  0  0  0  0999 V2000
   -3.8144   -2.8692    0.0230 H   0  0  0  0  0  0  0  0  0  0  0  0
   -3.6770   -1.9967   -0.6220 C   0  0  0  0  0  0  0  0  0  0  0  0
   -4.5475   -1.3442   -0.5211 H   0  0  0  0  0  0  0  0  0  0  0  0
   -3.5999   -2.3361   -1.6578 H   0  0  0  0  0  0  0  0  0  0  0  0
   -2.4185   -1.2467   -0.2275 C   0  0  0  0  0  0  0  0  0  0  0  0
   -1.7615   -1.6718    0.7053 O   0  0  0  0  0  0  0  0  0  0  0  0
   -2.1042   -0.0915   -0.9219 N   0  0  0  0  0  0  0  0  0  0  0  0
   -2.7501    0.1332   -1.6708 H   0  0  0  0  0  0  0  0  0  0  0  0
   -0.8956    0.7618   -0.8147 C   0  0  1  0  0  0  0  0  0  0  0  0
   -1.1970    1.7598   -1.1448 H   0  0  0  0  0  0  0  0  0  0  0  0
   -0.2995    0.9578    0.5950 C   0  0  0  0  0  0  0  0  0  0  0  0
   -0.0541    0.0002    1.0601 H   0  0  0  0  0  0  0  0  0  0  0  0
    0.6416    1.5115    0.5216 H   0  0  0  0  0  0  0  0  0  0  0  0
   -1.2472    1.7454    1.4592 C   0  0  0  0  0  0  0  0  0  0  0  0
   -2.1368    1.2048    2.3535 C   0  0  0  0  0  0  0  0  0  0  0  0
   -2.2489    0.1405    2.5566 H   0  0  0  0  0  0  0  0  0  0  0  0
   -2.8473    2.2570    2.9284 N   0  0  0  0  0  0  0  0  0  0  0  0
   -3.5606    2.1575    3.6471 H   0  0  0  0  0  0  0  0  0  0  0  0
   -2.4188    3.4685    2.4089 C   0  0  0  0  0  0  0  0  0  0  0  0
   -2.8148    4.7811    2.6650 C   0  0  0  0  0  0  0  0  0  0  0  0
   -3.5965    4.9840    3.3886 H   0  0  0  0  0  0  0  0  0  0  0  0
   -2.1874    5.8304    1.9785 C   0  0  0  0  0  0  0  0  0  0  0  0
   -2.4847    6.8571    2.1706 H   0  0  0  0  0  0  0  0  0  0  0  0
   -1.1730    5.5564    1.0480 C   0  0  0  0  0  0  0  0  0  0  0  0
   -0.6855    6.3726    0.5234 H   0  0  0  0  0  0  0  0  0  0  0  0
   -0.7823    4.2327    0.7986 C   0  0  0  0  0  0  0  0  0  0  0  0
    0.0071    4.0162    0.0869 H   0  0  0  0  0  0  0  0  0  0  0  0
   -1.4158    3.1922    1.4858 C   0  0  0  0  0  0  0  0  0  0  0  0
    0.2084    0.2984   -1.7894 C   0  0  0  0  0  0  0  0  0  0  0  0
    0.8662   -0.7121   -1.5851 O   0  0  0  0  0  0  0  0  0  0  0  0
    0.4575    1.0289   -2.9392 N   0  0  0  0  0  0  0  0  0  0  0  0
   -0.0750    1.8809   -3.0843 H   0  0  0  0  0  0  0  0  0  0  0  0
    1.4862    0.6672   -3.9076 C   0  0  0  0  0  0  0  0  0  0  0  0
    1.3137   -0.3442   -4.2907 H   0  0  0  0  0  0  0  0  0  0  0  0
    1.4721    1.3622   -4.7524 H   0  0  0  0  0  0  0  0  0  0  0  0
    2.4780    0.7038   -3.4448 H   0  0  0  0  0  0  0  0  0  0  0  0
  1  2  1  0  0  0  0
  2  3  1  0  0  0  0
  2  4  1  0  0  0  0
  2  5  1  0  0  0  0
  5  6  2  0  0  0  0
  5  7  1  0  0  0  0
  7  8  1  0  0  0  0
  7  9  1  0  0  0  0
  9 10  1  0  0  0  0
  9 11  1  0  0  0  0
  9 29  1  0  0  0  0
 11 12  1  0  0  0  0
 11 13  1  0  0  0  0
 11 14  1  0  0  0  0
 14 15  2  0  0  0  0
 14 28  1  0  0  0  0
 15 16  1  0  0  0  0
 15 17  1  0  0  0  0
 17 18  1  0  0  0  0
 17 19  1  0  0  0  0
 19 20  1  0  0  0  0
 19 28  2  0  0  0  0
 20 21  1  0  0  0  0
 20 22  2  0  0  0  0
 22 23  1  0  0  0  0
 22 24  1  0  0  0  0
 24 25  1  0  0  0  0
 24 26  2  0  0  0  0
 26 27  1  0  0  0  0
 26 28  1  0  0  0  0
 29 30  2  0  0  0  0
 29 31  1  0  0  0  0
 31 32  1  0  0  0  0
 31 33  1  0  0  0  0
 33 34  1  0  0  0  0
 33 35  1  0  0  0  0
 33 36  1  0  0  0  0
M  END
$$$$

  -OEChem-01062216103D

 36 37  0     1  0  0  0  0  0999 V2000
   -3.7738   -2.9176   -0.0295 H   0  0  0  0  0  0  0  0  0  0  0  0
   -3.6422   -2.0410   -0.6704 C   0  0  0  0  0  0  0  0  0  0  0  0
   -4.5429   -1.4251   -0.6142 H   0  0  0  0  0  0  0  0  0  0  0  0
   -3.5004   -2.3787   -1.6997 H   0  0  0  0  0  0  0  0  0  0  0  0
   -2.4358   -1.2388   -0.2196 C   0  0  0  0  0  0  0  0  0  0  0  0
   -1.8204   -1.6233    0.7593 O   0  0  0  0  0  0  0  0  0  0  0  0
   -2.1270   -0.0814   -0.9135 N   0  0  0  0  0  0  0  0  0  0  0  0
   -2.7193    0.0860   -1.7197 H   0  0  0  0  0  0  0  0  0  0  0  0
   -0.9148    0.7672   -0.8047 C   0  0  1  0  0  0  0  0  0  0  0  0
   -1.2222    1.7644   -1.1319 H   0  0  0  0  0  0  0  0  0  0  0  0
   -0.3077    0.9624    0.5993 C   0  0  0  0  0  0  0  0  0  0  0  0
   -0.0623    0.0031    1.0611 H   0  0  0  0  0  0  0  0  0  0  0  0
    0.6348    1.5131    0.5199 H   0  0  0  0  0  0  0  0  0  0  0  0
   -1.2469    1.7539    1.4694 C   0  0  0  0  0  0  0  0  0  0  0  0
   -2.1330    1.2204    2.3712 C   0  0  0  0  0  0  0  0  0  0  0  0
   -2.2507    0.1575    2.5780 H   0  0  0  0  0  0  0  0  0  0  0  0
   -2.8366    2.2773    2.9452 N   0  0  0  0  0  0  0  0  0  0  0  0
   -3.5517    2.1820    3.6626 H   0  0  0  0  0  0  0  0  0  0  0  0
   -2.4060    3.4854    2.4200 C   0  0  0  0  0  0  0  0  0  0  0  0
   -2.7965    4.8001    2.6738 C   0  0  0  0  0  0  0  0  0  0  0  0
   -3.5753    5.0069    3.3992 H   0  0  0  0  0  0  0  0  0  0  0  0
   -2.1678    5.8454    1.9825 C   0  0  0  0  0  0  0  0  0  0  0  0
   -2.4610    6.8736    2.1731 H   0  0  0  0  0  0  0  0  0  0  0  0
   -1.1569    5.5650    1.0498 C   0  0  0  0  0  0  0  0  0  0  0  0
   -0.6680    6.3783    0.5220 H   0  0  0  0  0  0  0  0  0  0  0  0
   -0.7720    4.2391    0.8029 C   0  0  0  0  0  0  0  0  0  0  0  0
    0.0152    4.0179    0.0907 H   0  0  0  0  0  0  0  0  0  0  0  0
   -1.4079    3.2023    1.4938 C   0  0  0  0  0  0  0  0  0  0  0  0
    0.1916    0.3139   -1.7805 C   0  0  0  0  0  0  0  0  0  0  0  0
    0.6048   -0.8372   -1.7907 O   0  0  0  0  0  0  0  0  0  0  0  0
    0.6591    1.1934   -2.7420 N   0  0  0  0  0  0  0  0  0  0  0  0
    0.3179    2.1492   -2.7140 H   0  0  0  0  0  0  0  0  0  0  0  0
    1.6862    0.8407   -3.7154 C   0  0  0  0  0  0  0  0  0  0  0  0
    1.3661   -0.0148   -4.3195 H   0  0  0  0  0  0  0  0  0  0  0  0
    1.8765    1.6836   -4.3867 H   0  0  0  0  0  0  0  0  0  0  0  0
    2.6220    0.5830   -3.2086 H   0  0  0  0  0  0  0  0  0  0  0  0
  1  2  1  0  0  0  0
  2  3  1  0  0  0  0
  2  4  1  0  0  0  0
  2  5  1  0  0  0  0
  5  6  2  0  0  0  0
  5  7  1  0  0  0  0
  7  8  1  0  0  0  0
  7  9  1  0  0  0  0
  9 10  1  0  0  0  0
  9 11  1  0  0  0  0
  9 29  1  0  0  0  0
 11 12  1  0  0  0  0
 11 13  1  0  0  0  0
 11 14  1  0  0  0  0
 14 15  2  0  0  0  0
 14 28  1  0  0  0  0
 15 16  1  0  0  0  0
 15 17  1  0  0  0  0
 17 18  1  0  0  0  0
 17 19  1  0  0  0  0
 19 20  1  0  0  0  0
 19 28  2  0  0  0  0
 20 21  1  0  0  0  0
 20 22  2  0  0  0  0
 22 23  1  0  0  0  0
 22 24  1  0  0  0  0
 24 25  1  0  0  0  0
 24 26  2  0  0  0  0
 26 27  1  0  0  0  0
 26 28  1  0  0  0  0
 29 30  2  0  0  0  0
 29 31  1  0  0  0  0
 31 32  1  0  0  0  0
 31 33  1  0  0  0  0
 33 34  1  0  0  0  0
 33 35  1  0  0  0  0
 33 36  1  0  0  0  0
M  END
$$$$

  -OEChem-01062216103D

 36 37  0     1  0  0  0  0  0999 V2000
   -3.7460   -2.9459   -0.0623 H   0  0  0  0  0  0  0  0  0  0  0  0
   -3.6142   -2.0687   -0.7022 C   0  0  0  0  0  0  0  0  0  0  0  0
   -4.5293   -1.4725   -0.6762 H   0  0  0  0  0  0  0  0  0  0  0  0
   -3.4341   -2.4068   -1.7254 H   0  0  0  0  0  0  0  0  0  0  0  0
   -2.4399   -1.2384   -0.2184 C   0  0  0  0  0  0  0  0  0  0  0  0
   -1.8413   -1.6068    0.7776 O   0  0  0  0  0  0  0  0  0  0  0  0
   -2.1341   -0.0786   -0.9089 N   0  0  0  0  0  0  0  0  0  0  0  0
   -2.6881    0.0545   -1.7481 H   0  0  0  0  0  0  0  0  0  0  0  0
   -0.9210    0.7676   -0.7931 C   0  0  1  0  0  0  0  0  0  0  0  0
   -1.2291    1.7634   -1.1243 H   0  0  0  0  0  0  0  0  0  0  0  0
   -0.3182    0.9655    0.6127 C   0  0  0  0  0  0  0  0  0  0  0  0
   -0.0748    0.0072    1.0774 H   0  0  0  0  0  0  0  0  0  0  0  0
    0.6246    1.5156    0.5360 H   0  0  0  0  0  0  0  0  0  0  0  0
   -1.2567    1.7605    1.4804 C   0  0  0  0  0  0  0  0  0  0  0  0
   -2.1463    1.2333    2.3828 C   0  0  0  0  0  0  0  0  0  0  0  0
   -2.2719    0.1712    2.5899 H   0  0  0  0  0  0  0  0  0  0  0  0
   -2.8414    2.2957    2.9574 N   0  0  0  0  0  0  0  0  0  0  0  0
   -3.5590    2.2056    3.6731 H   0  0  0  0  0  0  0  0  0  0  0  0
   -2.4028    3.5007    2.4315 C   0  0  0  0  0  0  0  0  0  0  0  0
   -2.7842    4.8183    2.6842 C   0  0  0  0  0  0  0  0  0  0  0  0
   -3.5608    5.0313    3.4103 H   0  0  0  0  0  0  0  0  0  0  0  0
   -2.1501    5.8587    1.9904 C   0  0  0  0  0  0  0  0  0  0  0  0
   -2.4366    6.8892    2.1786 H   0  0  0  0  0  0  0  0  0  0  0  0
   -1.1424    5.5704    1.0570 C   0  0  0  0  0  0  0  0  0  0  0  0
   -0.6498    6.3799    0.5267 H   0  0  0  0  0  0  0  0  0  0  0  0
   -0.7662    4.2418    0.8119 C   0  0  0  0  0  0  0  0  0  0  0  0
    0.0181    4.0153    0.0985 H   0  0  0  0  0  0  0  0  0  0  0  0
   -1.4077    3.2099    1.5047 C   0  0  0  0  0  0  0  0  0  0  0  0
    0.1906    0.3209   -1.7674 C   0  0  0  0  0  0  0  0  0  0  0  0
    0.3792   -0.8607   -2.0250 O   0  0  0  0  0  0  0  0  0  0  0  0
    0.8772    1.2727   -2.5018 N   0  0  0  0  0  0  0  0  0  0  0  0
    0.7041    2.2499   -2.2871 H   0  0  0  0  0  0  0  0  0  0  0  0
    1.8936    0.9396   -3.4932 C   0  0  0  0  0  0  0  0  0  0  0  0
    1.4675    0.3147   -4.2851 H   0  0  0  0  0  0  0  0  0  0  0  0
    2.2894    1.8516   -3.9501 H   0  0  0  0  0  0  0  0  0  0  0  0
    2.7227    0.3989   -3.0247 H   0  0  0  0  0  0  0  0  0  0  0  0
  1  2  1  0  0  0  0
  2  3  1  0  0  0  0
  2  4  1  0  0  0  0
  2  5  1  0  0  0  0
  5  6  2  0  0  0  0
  5  7  1  0  0  0  0
  7  8  1  0  0  0  0
  7  9  1  0  0  0  0
  9 10  1  0  0  0  0
  9 11  1  0  0  0  0
  9 29  1  0  0  0  0
 11 12  1  0  0  0  0
 11 13  1  0  0  0  0
 11 14  1  0  0  0  0
 14 15  2  0  0  0  0
 14 28  1  0  0  0  0
 15 16  1  0  0  0  0
 15 17  1  0  0  0  0
 17 18  1  0  0  0  0
 17 19  1  0  0  0  0
 19 20  1  0  0  0  0
 19 28  2  0  0  0  0
 20 21  1  0  0  0  0
 20 22  2  0  0  0  0
 22 23  1  0  0  0  0
 22 24  1  0  0  0  0
 24 25  1  0  0  0  0
 24 26  2  0  0  0  0
 26 27  1  0  0  0  0
 26 28  1  0  0  0  0
 29 30  2  0  0  0  0
 29 31  1  0  0  0  0
 31 32  1  0  0  0  0
 31 33  1  0  0  0  0
 33 34  1  0  0  0  0
 33 35  1  0  0  0  0
 33 36  1  0  0  0  0
M  END
$$$$

  -OEChem-01062216103D

 36 37  0     1  0  0  0  0  0999 V2000
   -3.7392   -2.9424   -0.0660 H   0  0  0  0  0  0  0  0  0  0  0  0
   -3.6070   -2.0649   -0.7049 C   0  0  0  0  0  0  0  0  0  0  0  0
   -4.5244   -1.4722   -0.6829 H   0  0  0  0  0  0  0  0  0  0  0  0
   -3.4197   -2.4008   -1.7277 H   0  0  0  0  0  0  0  0  0  0  0  0
   -2.4384   -1.2305   -0.2148 C   0  0  0  0  0  0  0  0  0  0  0  0
   -1.8386   -1.5993    0.7808 O   0  0  0  0  0  0  0  0  0  0  0  0
   -2.1316   -0.0716   -0.9055 N   0  0  0  0  0  0  0  0  0  0  0  0
   -2.6625    0.0395   -1.7631 H   0  0  0  0  0  0  0  0  0  0  0  0
   -0.9172    0.7735   -0.7902 C   0  0  1  0  0  0  0  0  0  0  0  0
   -1.2214    1.7692   -1.1259 H   0  0  0  0  0  0  0  0  0  0  0  0
   -0.3197    0.9711    0.6195 C   0  0  0  0  0  0  0  0  0  0  0  0
   -0.0792    0.0137    1.0869 H   0  0  0  0  0  0  0  0  0  0  0  0
    0.6243    1.5198    0.5492 H   0  0  0  0  0  0  0  0  0  0  0  0
   -1.2611    1.7680    1.4827 C   0  0  0  0  0  0  0  0  0  0  0  0
   -2.1544    1.2383    2.3804 C   0  0  0  0  0  0  0  0  0  0  0  0
   -2.2821    0.1757    2.5830 H   0  0  0  0  0  0  0  0  0  0  0  0
   -2.8499    2.2983    2.9583 N   0  0  0  0  0  0  0  0  0  0  0  0
   -3.5721    2.2055    3.6690 H   0  0  0  0  0  0  0  0  0  0  0  0
   -2.4083    3.5046    2.4389 C   0  0  0  0  0  0  0  0  0  0  0  0
   -2.7901    4.8207    2.6980 C   0  0  0  0  0  0  0  0  0  0  0  0
   -3.5688    5.0304    3.4228 H   0  0  0  0  0  0  0  0  0  0  0  0
   -2.1532    5.8643    2.0123 C   0  0  0  0  0  0  0  0  0  0  0  0
   -2.4400    6.8933    2.2071 H   0  0  0  0  0  0  0  0  0  0  0  0
   -1.1446    5.5808    1.0785 C   0  0  0  0  0  0  0  0  0  0  0  0
   -0.6513    6.3926    0.5525 H   0  0  0  0  0  0  0  0  0  0  0  0
   -0.7692    4.2533    0.8255 C   0  0  0  0  0  0  0  0  0  0  0  0
    0.0137    4.0318    0.1091 H   0  0  0  0  0  0  0  0  0  0  0  0
   -1.4112    3.2175    1.5124 C   0  0  0  0  0  0  0  0  0  0  0  0
    0.1940    0.3235   -1.7657 C   0  0  0  0  0  0  0  0  0  0  0  0
    0.1986   -0.8004   -2.2528 O   0  0  0  0  0  0  0  0  0  0  0  0
    1.0868    1.2573   -2.2638 N   0  0  0  0  0  0  0  0  0  0  0  0
    1.0653    2.1902   -1.8640 H   0  0  0  0  0  0  0  0  0  0  0  0
    2.1120    0.9385   -3.2507 C   0  0  0  0  0  0  0  0  0  0  0  0
    1.6548    0.5554   -4.1692 H   0  0  0  0  0  0  0  0  0  0  0  0
    2.6881    1.8346   -3.5010 H   0  0  0  0  0  0  0  0  0  0  0  0
    2.8002    0.1826   -2.8578 H   0  0  0  0  0  0  0  0  0  0  0  0
  1  2  1  0  0  0  0
  2  3  1  0  0  0  0
  2  4  1  0  0  0  0
  2  5  1  0  0  0  0
  5  6  2  0  0  0  0
  5  7  1  0  0  0  0
  7  8  1  0  0  0  0
  7  9  1  0  0  0  0
  9 10  1  0  0  0  0
  9 11  1  0  0  0  0
  9 29  1  0  0  0  0
 11 12  1  0  0  0  0
 11 13  1  0  0  0  0
 11 14  1  0  0  0  0
 14 15  2  0  0  0  0
 14 28  1  0  0  0  0
 15 16  1  0  0  0  0
 15 17  1  0  0  0  0
 17 18  1  0  0  0  0
 17 19  1  0  0  0  0
 19 20  1  0  0  0  0
 19 28  2  0  0  0  0
 20 21  1  0  0  0  0
 20 22  2  0  0  0  0
 22 23  1  0  0  0  0
 22 24  1  0  0  0  0
 24 25  1  0  0  0  0
 24 26  2  0  0  0  0
 26 27  1  0  0  0  0
 26 28  1  0  0  0  0
 29 30  2  0  0  0  0
 29 31  1  0  0  0  0
 31 32  1  0  0  0  0
 31 33  1  0  0  0  0
 33 34  1  0  0  0  0
 33 35  1  0  0  0  0
 33 36  1  0  0  0  0
M  END
$$$$

  -OEChem-01062216103D

 36 37  0     1  0  0  0  0  0999 V2000
   -3.7312   -2.9283   -0.0690 H   0  0  0  0  0  0  0  0  0  0  0  0
   -3.6010   -2.0469   -0.7033 C   0  0  0  0  0  0  0  0  0  0  0  0
   -4.5175   -1.4528   -0.6739 H   0  0  0  0  0  0  0  0  0  0  0  0
   -3.4191   -2.3766   -1.7292 H   0  0  0  0  0  0  0  0  0  0  0  0
   -2.4288   -1.2174   -0.2139 C   0  0  0  0  0  0  0  0  0  0  0  0
   -1.8152   -1.6007    0.7679 O   0  0  0  0  0  0  0  0  0  0  0  0
   -2.1221   -0.0554   -0.8987 N   0  0  0  0  0  0  0  0  0  0  0  0
   -2.6437    0.0520   -1.7629 H   0  0  0  0  0  0  0  0  0  0  0  0
   -0.9072    0.7892   -0.7828 C   0  0  1  0  0  0  0  0  0  0  0  0
   -1.2050    1.7873   -1.1180 H   0  0  0  0  0  0  0  0  0  0  0  0
   -0.3173    0.9799    0.6330 C   0  0  0  0  0  0  0  0  0  0  0  0
   -0.0792    0.0210    1.0980 H   0  0  0  0  0  0  0  0  0  0  0  0
    0.6259    1.5302    0.5760 H   0  0  0  0  0  0  0  0  0  0  0  0
   -1.2635    1.7738    1.4935 C   0  0  0  0  0  0  0  0  0  0  0  0
   -2.1621    1.2386    2.3823 C   0  0  0  0  0  0  0  0  0  0  0  0
   -2.2901    0.1751    2.5785 H   0  0  0  0  0  0  0  0  0  0  0  0
   -2.8625    2.2947    2.9609 N   0  0  0  0  0  0  0  0  0  0  0  0
   -3.5906    2.1976    3.6651 H   0  0  0  0  0  0  0  0  0  0  0  0
   -2.4205    3.5039    2.4489 C   0  0  0  0  0  0  0  0  0  0  0  0
   -2.8080    4.8178    2.7100 C   0  0  0  0  0  0  0  0  0  0  0  0
   -3.5911    5.0226    3.4315 H   0  0  0  0  0  0  0  0  0  0  0  0
   -2.1724    5.8657    2.0295 C   0  0  0  0  0  0  0  0  0  0  0  0
   -2.4641    6.8934    2.2247 H   0  0  0  0  0  0  0  0  0  0  0  0
   -1.1593    5.5880    1.0987 C   0  0  0  0  0  0  0  0  0  0  0  0
   -0.6680    6.4027    0.5754 H   0  0  0  0  0  0  0  0  0  0  0  0
   -0.7779    4.2627    0.8442 C   0  0  0  0  0  0  0  0  0  0  0  0
    0.0068    4.0460    0.1282 H   0  0  0  0  0  0  0  0  0  0  0  0
   -1.4180    3.2230    1.5268 C   0  0  0  0  0  0  0  0  0  0  0  0
    0.1957    0.3347   -1.7683 C   0  0  0  0  0  0  0  0  0  0  0  0
    0.0514   -0.6663   -2.4611 O   0  0  0  0  0  0  0  0  0  0  0  0
    1.2715    1.1643   -2.0370 N   0  0  0  0  0  0  0  0  0  0  0  0
    1.3835    1.9910   -1.4582 H   0  0  0  0  0  0  0  0  0  0  0  0
    2.3132    0.8366   -3.0036 C   0  0  0  0  0  0  0  0  0  0  0  0
    1.8815    0.6908   -3.9994 H   0  0  0  0  0  0  0  0  0  0  0  0
    3.0445    1.6484   -3.0615 H   0  0  0  0  0  0  0  0  0  0  0  0
    2.8350   -0.0795   -2.7076 H   0  0  0  0  0  0  0  0  0  0  0  0
  1  2  1  0  0  0  0
  2  3  1  0  0  0  0
  2  4  1  0  0  0  0
  2  5  1  0  0  0  0
  5  6  2  0  0  0  0
  5  7  1  0  0  0  0
  7  8  1  0  0  0  0
  7  9  1  0  0  0  0
  9 10  1  0  0  0  0
  9 11  1  0  0  0  0
  9 29  1  0  0  0  0
 11 12  1  0  0  0  0
 11 13  1  0  0  0  0
 11 14  1  0  0  0  0
 14 15  2  0  0  0  0
 14 28  1  0  0  0  0
 15 16  1  0  0  0  0
 15 17  1  0  0  0  0
 17 18  1  0  0  0  0
 17 19  1  0  0  0  0
 19 20  1  0  0  0  0
 19 28  2  0  0  0  0
 20 21  1  0  0  0  0
 20 22  2  0  0  0  0
 22 23  1  0  0  0  0
 22 24  1  0  0  0  0
 24 25  1  0  0  0  0
 24 26  2  0  0  0  0
 26 27  1  0  0  0  0
 26 28  1  0  0  0  0
 29 30  2  0  0  0  0
 29 31  1  0  0  0  0
 31 32  1  0  0  0  0
 31 33  1  0  0  0  0
 33 34  1  0  0  0  0
 33 35  1  0  0  0  0
 33 36  1  0  0  0  0
M  END
$$$$

  -OEChem-01062216103D

 36 37  0     1  0  0  0  0  0999 V2000
   -3.8368   -2.9205   -0.1644 H   0  0  0  0  0  0  0  0  0  0  0  0
   -3.6845   -2.0004   -0.7358 C   0  0  0  0  0  0  0  0  0  0  0  0
   -4.5417   -1.3418   -0.5768 H   0  0  0  0  0  0  0  0  0  0  0  0
   -3.6183   -2.2528   -1.7970 H   0  0  0  0  0  0  0  0  0  0  0  0
   -2.4102   -1.3086   -0.2891 C   0  0  0  0  0  0  0  0  0  0  0  0
   -1.7163   -1.8554    0.5513 O   0  0  0  0  0  0  0  0  0  0  0  0
   -2.0714   -0.1156   -0.8989 N   0  0  0  0  0  0  0  0  0  0  0  0
   -2.6392    0.1013   -1.7131 H   0  0  0  0  0  0  0  0  0  0  0  0
   -0.8485    0.7109   -0.7503 C   0  0  1  0  0  0  0  0  0  0  0  0
   -1.1974    1.7465   -0.8004 H   0  0  0  0  0  0  0  0  0  0  0  0
   -0.0651    0.6271    0.5830 C   0  0  0  0  0  0  0  0  0  0  0  0
    0.2216   -0.4058    0.7953 H   0  0  0  0  0  0  0  0  0  0  0  0
    0.8660    1.1954    0.5170 H   0  0  0  0  0  0  0  0  0  0  0  0
   -0.8671    1.2028    1.7236 C   0  0  0  0  0  0  0  0  0  0  0  0
   -1.6341    0.5029    2.6229 C   0  0  0  0  0  0  0  0  0  0  0  0
   -1.7482   -0.5793    2.6454 H   0  0  0  0  0  0  0  0  0  0  0  0
   -2.2222    1.4243    3.4866 N   0  0  0  0  0  0  0  0  0  0  0  0
   -2.8394    1.1889    4.2605 H   0  0  0  0  0  0  0  0  0  0  0  0
   -1.8442    2.7126    3.1475 C   0  0  0  0  0  0  0  0  0  0  0  0
   -2.1684    3.9504    3.7027 C   0  0  0  0  0  0  0  0  0  0  0  0
   -2.8302    4.0082    4.5598 H   0  0  0  0  0  0  0  0  0  0  0  0
   -1.6279    5.1143    3.1386 C   0  0  0  0  0  0  0  0  0  0  0  0
   -1.8726    6.0842    3.5610 H   0  0  0  0  0  0  0  0  0  0  0  0
   -0.7718    5.0269    2.0300 C   0  0  0  0  0  0  0  0  0  0  0  0
   -0.3547    5.9312    1.5968 H   0  0  0  0  0  0  0  0  0  0  0  0
   -0.4525    3.7763    1.4809 C   0  0  0  0  0  0  0  0  0  0  0  0
    0.2104    3.7074    0.6257 H   0  0  0  0  0  0  0  0  0  0  0  0
   -0.9963    2.6191    2.0493 C   0  0  0  0  0  0  0  0  0  0  0  0
    0.0758    0.5565   -1.9831 C   0  0  0  0  0  0  0  0  0  0  0  0
   -0.3153   -0.0424   -2.9795 O   0  0  0  0  0  0  0  0  0  0  0  0
    1.2792    1.2370   -2.0640 N   0  0  0  0  0  0  0  0  0  0  0  0
    1.5981    1.7275   -1.2341 H   0  0  0  0  0  0  0  0  0  0  0  0
    2.1596    1.1758   -3.2248 C   0  0  0  0  0  0  0  0  0  0  0  0
    1.6448    1.5477   -4.1170 H   0  0  0  0  0  0  0  0  0  0  0  0
    3.0482    1.7921   -3.0578 H   0  0  0  0  0  0  0  0  0  0  0  0
    2.4818    0.1452   -3.4069 H   0  0  0  0  0  0  0  0  0  0  0  0
  1  2  1  0  0  0  0
  2  3  1  0  0  0  0
  2  4  1  0  0  0  0
  2  5  1  0  0  0  0
  5  6  2  0  0  0  0
  5  7  1  0  0  0  0
  7  8  1  0  0  0  0
  7  9  1  0  0  0  0
  9 10  1  0  0  0  0
  9 11  1  0  0  0  0
  9 29  1  0  0  0  0
 11 12  1  0  0  0  0
 11 13  1  0  0  0  0
 11 14  1  0  0  0  0
 14 15  2  0  0  0  0
 14 28  1  0  0  0  0
 15 16  1  0  0  0  0
 15 17  1  0  0  0  0
 17 18  1  0  0  0  0
 17 19  1  0  0  0  0
 19 20  1  0  0  0  0
 19 28  2  0  0  0  0
 20 21  1  0  0  0  0
 20 22  2  0  0  0  0
 22 23  1  0  0  0  0
 22 24  1  0  0  0  0
 24 25  1  0  0  0  0
 24 26  2  0  0  0  0
 26 27  1  0  0  0  0
 26 28  1  0  0  0  0
 29 30  2  0  0  0  0
 29 31  1  0  0  0  0
 31 32  1  0  0  0  0
 31 33  1  0  0  0  0
 33 34  1  0  0  0  0
 33 35  1  0  0  0  0
 33 36  1  0  0  0  0
M  END
$$$$

  -OEChem-01062216103D

 36 37  0     1  0  0  0  0  0999 V2000
   -3.8237   -2.8990   -0.1681 H   0  0  0  0  0  0  0  0  0  0  0  0
   -3.6662   -1.9785   -0.7372 C   0  0  0  0  0  0  0  0  0  0  0  0
   -4.5197   -1.3153   -0.5767 H   0  0  0  0  0  0  0  0  0  0  0  0
   -3.6012   -2.2283   -1.7992 H   0  0  0  0  0  0  0  0  0  0  0  0
   -2.3876   -1.2952   -0.2892 C   0  0  0  0  0  0  0  0  0  0  0  0
   -1.6867   -1.8552    0.5367 O   0  0  0  0  0  0  0  0  0  0  0  0
   -2.0458   -0.0973   -0.8875 N   0  0  0  0  0  0  0  0  0  0  0  0
   -2.6180    0.1377   -1.6942 H   0  0  0  0  0  0  0  0  0  0  0  0
   -0.8249    0.7299   -0.7275 C   0  0  1  0  0  0  0  0  0  0  0  0
   -1.1695    1.7674   -0.7761 H   0  0  0  0  0  0  0  0  0  0  0  0
   -0.0547    0.6389    0.6138 C   0  0  0  0  0  0  0  0  0  0  0  0
    0.2350   -0.3934    0.8252 H   0  0  0  0  0  0  0  0  0  0  0  0
    0.8721    1.2156    0.5632 H   0  0  0  0  0  0  0  0  0  0  0  0
   -0.8717    1.2090    1.7459 C   0  0  0  0  0  0  0  0  0  0  0  0
   -1.6498    0.5039    2.6318 C   0  0  0  0  0  0  0  0  0  0  0  0
   -1.7634   -0.5788    2.6471 H   0  0  0  0  0  0  0  0  0  0  0  0
   -2.2522    1.4217    3.4898 N   0  0  0  0  0  0  0  0  0  0  0  0
   -2.8833    1.1837    4.2516 H   0  0  0  0  0  0  0  0  0  0  0  0
   -1.8715    2.7121    3.1602 C   0  0  0  0  0  0  0  0  0  0  0  0
   -2.2064    3.9484    3.7129 C   0  0  0  0  0  0  0  0  0  0  0  0
   -2.8808    4.0029    4.5604 H   0  0  0  0  0  0  0  0  0  0  0  0
   -1.6610    5.1149    3.1583 C   0  0  0  0  0  0  0  0  0  0  0  0
   -1.9134    6.0840    3.5787 H   0  0  0  0  0  0  0  0  0  0  0  0
   -0.7896    5.0317    2.0613 C   0  0  0  0  0  0  0  0  0  0  0  0
   -0.3693    5.9375    1.6349 H   0  0  0  0  0  0  0  0  0  0  0  0
   -0.4592    3.7830    1.5149 C   0  0  0  0  0  0  0  0  0  0  0  0
    0.2152    3.7170    0.6679 H   0  0  0  0  0  0  0  0  0  0  0  0
   -1.0079    2.6236    2.0741 C   0  0  0  0  0  0  0  0  0  0  0  0
    0.0919    0.5726   -1.9664 C   0  0  0  0  0  0  0  0  0  0  0  0
   -0.3873    0.1955   -3.0309 O   0  0  0  0  0  0  0  0  0  0  0  0
    1.4159    0.9795   -1.9572 N   0  0  0  0  0  0  0  0  0  0  0  0
    1.8143    1.2589   -1.0659 H   0  0  0  0  0  0  0  0  0  0  0  0
    2.2983    0.8617   -3.1123 C   0  0  0  0  0  0  0  0  0  0  0  0
    1.8959    1.4230   -3.9622 H   0  0  0  0  0  0  0  0  0  0  0  0
    3.2884    1.2618   -2.8740 H   0  0  0  0  0  0  0  0  0  0  0  0
    2.4096   -0.1880   -3.4035 H   0  0  0  0  0  0  0  0  0  0  0  0
  1  2  1  0  0  0  0
  2  3  1  0  0  0  0
  2  4  1  0  0  0  0
  2  5  1  0  0  0  0
  5  6  2  0  0  0  0
  5  7  1  0  0  0  0
  7  8  1  0  0  0  0
  7  9  1  0  0  0  0
  9 10  1  0  0  0  0
  9 11  1  0  0  0  0
  9 29  1  0  0  0  0
 11 12  1  0  0  0  0
 11 13  1  0  0  0  0
 11 14  1  0  0  0  0
 14 15  2  0  0  0  0
 14 28  1  0  0  0  0
 15 16  1  0  0  0  0
 15 17  1  0  0  0  0
 17 18  1  0  0  0  0
 17 19  1  0  0  0  0
 19 20  1  0  0  0  0
 19 28  2  0  0  0  0
 20 21  1  0  0  0  0
 20 22  2  0  0  0  0
 22 23  1  0  0  0  0
 22 24  1  0  0  0  0
 24 25  1  0  0  0  0
 24 26  2  0  0  0  0
 26 27  1  0  0  0  0
 26 28  1  0  0  0  0
 29 30  2  0  0  0  0
 29 31  1  0  0  0  0
 31 32  1  0  0  0  0
 31 33  1  0  0  0  0
 33 34  1  0  0  0  0
 33 35  1  0  0  0  0
 33 36  1  0  0  0  0
M  END
$$$$

  -OEChem-01062216103D

 36 37  0     1  0  0  0  0  0999 V2000
   -3.8112   -2.8785   -0.1550 H   0  0  0  0  0  0  0  0  0  0  0  0
   -3.6557   -1.9581   -0.7247 C   0  0  0  0  0  0  0  0  0  0  0  0
   -4.5003   -1.2880   -0.5480 H   0  0  0  0  0  0  0  0  0  0  0  0
   -3.6107   -2.2058   -1.7880 H   0  0  0  0  0  0  0  0  0  0  0  0
   -2.3646   -1.2871   -0.2960 C   0  0  0  0  0  0  0  0  0  0  0  0
   -1.6518   -1.8575    0.5125 O   0  0  0  0  0  0  0  0  0  0  0  0
   -2.0209   -0.0887   -0.8913 N   0  0  0  0  0  0  0  0  0  0  0  0
   -2.6124    0.1740   -1.6755 H   0  0  0  0  0  0  0  0  0  0  0  0
   -0.8057    0.7421   -0.7176 C   0  0  1  0  0  0  0  0  0  0  0  0
   -1.1490    1.7797   -0.7711 H   0  0  0  0  0  0  0  0  0  0  0  0
   -0.0500    0.6519    0.6311 C   0  0  0  0  0  0  0  0  0  0  0  0
    0.2456   -0.3780    0.8451 H   0  0  0  0  0  0  0  0  0  0  0  0
    0.8712    1.2387    0.5881 H   0  0  0  0  0  0  0  0  0  0  0  0
   -0.8811    1.2166    1.7550 C   0  0  0  0  0  0  0  0  0  0  0  0
   -1.6655    0.5062    2.6308 C   0  0  0  0  0  0  0  0  0  0  0  0
   -1.7770   -0.5767    2.6399 H   0  0  0  0  0  0  0  0  0  0  0  0
   -2.2758    1.4195    3.4883 N   0  0  0  0  0  0  0  0  0  0  0  0
   -2.9100    1.1772    4.2462 H   0  0  0  0  0  0  0  0  0  0  0  0
   -1.8951    2.7124    3.1673 C   0  0  0  0  0  0  0  0  0  0  0  0
   -2.2350    3.9467    3.7211 C   0  0  0  0  0  0  0  0  0  0  0  0
   -2.9154    3.9984    4.5638 H   0  0  0  0  0  0  0  0  0  0  0  0
   -1.6873    5.1156    3.1735 C   0  0  0  0  0  0  0  0  0  0  0  0
   -1.9440    6.0836    3.5941 H   0  0  0  0  0  0  0  0  0  0  0  0
   -0.8078    5.0366    2.0826 C   0  0  0  0  0  0  0  0  0  0  0  0
   -0.3857    5.9438    1.6608 H   0  0  0  0  0  0  0  0  0  0  0  0
   -0.4715    3.7901    1.5355 C   0  0  0  0  0  0  0  0  0  0  0  0
    0.2091    3.7263    0.6934 H   0  0  0  0  0  0  0  0  0  0  0  0
   -1.0230    2.6290    2.0876 C   0  0  0  0  0  0  0  0  0  0  0  0
    0.1154    0.5776   -1.9511 C   0  0  0  0  0  0  0  0  0  0  0  0
   -0.3912    0.4200   -3.0571 O   0  0  0  0  0  0  0  0  0  0  0  0
    1.4936    0.6896   -1.8709 N   0  0  0  0  0  0  0  0  0  0  0  0
    1.9033    0.7434   -0.9432 H   0  0  0  0  0  0  0  0  0  0  0  0
    2.3788    0.5105   -3.0156 C   0  0  0  0  0  0  0  0  0  0  0  0
    2.1406    1.2338   -3.8026 H   0  0  0  0  0  0  0  0  0  0  0  0
    3.4202    0.6603   -2.7150 H   0  0  0  0  0  0  0  0  0  0  0  0
    2.2774   -0.5009   -3.4230 H   0  0  0  0  0  0  0  0  0  0  0  0
  1  2  1  0  0  0  0
  2  3  1  0  0  0  0
  2  4  1  0  0  0  0
  2  5  1  0  0  0  0
  5  6  2  0  0  0  0
  5  7  1  0  0  0  0
  7  8  1  0  0  0  0
  7  9  1  0  0  0  0
  9 10  1  0  0  0  0
  9 11  1  0  0  0  0
  9 29  1  0  0  0  0
 11 12  1  0  0  0  0
 11 13  1  0  0  0  0
 11 14  1  0  0  0  0
 14 15  2  0  0  0  0
 14 28  1  0  0  0  0
 15 16  1  0  0  0  0
 15 17  1  0  0  0  0
 17 18  1  0  0  0  0
 17 19  1  0  0  0  0
 19 20  1  0  0  0  0
 19 28  2  0  0  0  0
 20 21  1  0  0  0  0
 20 22  2  0  0  0  0
 22 23  1  0  0  0  0
 22 24  1  0  0  0  0
 24 25  1  0  0  0  0
 24 26  2  0  0  0  0
 26 27  1  0  0  0  0
 26 28  1  0  0  0  0
 29 30  2  0  0  0  0
 29 31  1  0  0  0  0
 31 32  1  0  0  0  0
 31 33  1  0  0  0  0
 33 34  1  0  0  0  0
 33 35  1  0  0  0  0
 33 36  1  0  0  0  0
M  END
$$$$

  -OEChem-01062216103D

 36 37  0     1  0  0  0  0  0999 V2000
   -3.8181   -2.8509   -0.1407 H   0  0  0  0  0  0  0  0  0  0  0  0
   -3.6584   -1.9309   -0.7101 C   0  0  0  0  0  0  0  0  0  0  0  0
   -4.4915   -1.2503   -0.5190 H   0  0  0  0  0  0  0  0  0  0  0  0
   -3.6334   -2.1756   -1.7749 H   0  0  0  0  0  0  0  0  0  0  0  0
   -2.3512   -1.2794   -0.2994 C   0  0  0  0  0  0  0  0  0  0  0  0
   -1.6291   -1.8626    0.4917 O   0  0  0  0  0  0  0  0  0  0  0  0
   -2.0003   -0.0832   -0.8941 N   0  0  0  0  0  0  0  0  0  0  0  0
   -2.6133    0.2086   -1.6511 H   0  0  0  0  0  0  0  0  0  0  0  0
   -0.7873    0.7466   -0.7094 C   0  0  1  0  0  0  0  0  0  0  0  0
   -1.1272    1.7852   -0.7678 H   0  0  0  0  0  0  0  0  0  0  0  0
   -0.0389    0.6575    0.6427 C   0  0  0  0  0  0  0  0  0  0  0  0
    0.2554   -0.3719    0.8609 H   0  0  0  0  0  0  0  0  0  0  0  0
    0.8830    1.2449    0.5986 H   0  0  0  0  0  0  0  0  0  0  0  0
   -0.8767    1.2210    1.7616 C   0  0  0  0  0  0  0  0  0  0  0  0
   -1.6635    0.5056    2.6307 C   0  0  0  0  0  0  0  0  0  0  0  0
   -1.7685   -0.5779    2.6366 H   0  0  0  0  0  0  0  0  0  0  0  0
   -2.2852    1.4147    3.4843 N   0  0  0  0  0  0  0  0  0  0  0  0
   -2.9242    1.1686    4.2370 H   0  0  0  0  0  0  0  0  0  0  0  0
   -1.9089    2.7099    3.1667 C   0  0  0  0  0  0  0  0  0  0  0  0
   -2.2589    3.9421    3.7192 C   0  0  0  0  0  0  0  0  0  0  0  0
   -2.9444    3.9895    4.5580 H   0  0  0  0  0  0  0  0  0  0  0  0
   -1.7130    5.1140    3.1764 C   0  0  0  0  0  0  0  0  0  0  0  0
   -1.9766    6.0800    3.5966 H   0  0  0  0  0  0  0  0  0  0  0  0
   -0.8260    5.0408    2.0912 C   0  0  0  0  0  0  0  0  0  0  0  0
   -0.4058    5.9506    1.6729 H   0  0  0  0  0  0  0  0  0  0  0  0
   -0.4794    3.7966    1.5452 C   0  0  0  0  0  0  0  0  0  0  0  0
    0.2071    3.7374    0.7072 H   0  0  0  0  0  0  0  0  0  0  0  0
   -1.0286    2.6323    2.0930 C   0  0  0  0  0  0  0  0  0  0  0  0
    0.1407    0.5733   -1.9334 C   0  0  0  0  0  0  0  0  0  0  0  0
   -0.3450    0.6376   -3.0572 O   0  0  0  0  0  0  0  0  0  0  0  0
    1.5061    0.3789   -1.8106 N   0  0  0  0  0  0  0  0  0  0  0  0
    1.8675    0.2158   -0.8752 H   0  0  0  0  0  0  0  0  0  0  0  0
    2.3847    0.1445   -2.9501 C   0  0  0  0  0  0  0  0  0  0  0  0
    2.3246    0.9771   -3.6590 H   0  0  0  0  0  0  0  0  0  0  0  0
    3.4222    0.0537   -2.6144 H   0  0  0  0  0  0  0  0  0  0  0  0
    2.1038   -0.7796   -3.4661 H   0  0  0  0  0  0  0  0  0  0  0  0
  1  2  1  0  0  0  0
  2  3  1  0  0  0  0
  2  4  1  0  0  0  0
  2  5  1  0  0  0  0
  5  6  2  0  0  0  0
  5  7  1  0  0  0  0
  7  8  1  0  0  0  0
  7  9  1  0  0  0  0
  9 10  1  0  0  0  0
  9 11  1  0  0  0  0
  9 29  1  0  0  0  0
 11 12  1  0  0  0  0
 11 13  1  0  0  0  0
 11 14  1  0  0  0  0
 14 15  2  0  0  0  0
 14 28  1  0  0  0  0
 15 16  1  0  0  0  0
 15 17  1  0  0  0  0
 17 18  1  0  0  0  0
 17 19  1  0  0  0  0
 19 20  1  0  0  0  0
 19 28  2  0  0  0  0
 20 21  1  0  0  0  0
 20 22  2  0  0  0  0
 22 23  1  0  0  0  0
 22 24  1  0  0  0  0
 24 25  1  0  0  0  0
 24 26  2  0  0  0  0
 26 27  1  0  0  0  0
 26 28  1  0  0  0  0
 29 30  2  0  0  0  0
 29 31  1  0  0  0  0
 31 32  1  0  0  0  0
 31 33  1  0  0  0  0
 33 34  1  0  0  0  0
 33 35  1  0  0  0  0
 33 36  1  0  0  0  0
M  END
$$$$

  -OEChem-01062216103D

 36 37  0     1  0  0  0  0  0999 V2000
   -3.8305   -2.8164   -0.0921 H   0  0  0  0  0  0  0  0  0  0  0  0
   -3.6686   -1.9047   -0.6740 C   0  0  0  0  0  0  0  0  0  0  0  0
   -4.4798   -1.2040   -0.4619 H   0  0  0  0  0  0  0  0  0  0  0  0
   -3.6833   -2.1583   -1.7368 H   0  0  0  0  0  0  0  0  0  0  0  0
   -2.3353   -1.2792   -0.3091 C   0  0  0  0  0  0  0  0  0  0  0  0
   -1.5956   -1.8764    0.4551 O   0  0  0  0  0  0  0  0  0  0  0  0
   -1.9811   -0.0865   -0.9091 N   0  0  0  0  0  0  0  0  0  0  0  0
   -2.6254    0.2407   -1.6244 H   0  0  0  0  0  0  0  0  0  0  0  0
   -0.7722    0.7461   -0.7144 C   0  0  1  0  0  0  0  0  0  0  0  0
   -1.1110    1.7847   -0.7791 H   0  0  0  0  0  0  0  0  0  0  0  0
   -0.0328    0.6602    0.6418 C   0  0  0  0  0  0  0  0  0  0  0  0
    0.2630   -0.3674    0.8656 H   0  0  0  0  0  0  0  0  0  0  0  0
    0.8887    1.2490    0.5966 H   0  0  0  0  0  0  0  0  0  0  0  0
   -0.8799    1.2212    1.7542 C   0  0  0  0  0  0  0  0  0  0  0  0
   -1.6698    0.5019    2.6174 C   0  0  0  0  0  0  0  0  0  0  0  0
   -1.7732   -0.5820    2.6198 H   0  0  0  0  0  0  0  0  0  0  0  0
   -2.2959    1.4080    3.4710 N   0  0  0  0  0  0  0  0  0  0  0  0
   -2.9320    1.1595    4.2253 H   0  0  0  0  0  0  0  0  0  0  0  0
   -1.9199    2.7042    3.1583 C   0  0  0  0  0  0  0  0  0  0  0  0
   -2.2738    3.9337    3.7133 C   0  0  0  0  0  0  0  0  0  0  0  0
   -2.9639    3.9773    4.5484 H   0  0  0  0  0  0  0  0  0  0  0  0
   -1.7266    5.1081    3.1773 C   0  0  0  0  0  0  0  0  0  0  0  0
   -1.9933    6.0719    3.6006 H   0  0  0  0  0  0  0  0  0  0  0  0
   -0.8352    5.0394    2.0954 C   0  0  0  0  0  0  0  0  0  0  0  0
   -0.4130    5.9506    1.6828 H   0  0  0  0  0  0  0  0  0  0  0  0
   -0.4861    3.7975    1.5455 C   0  0  0  0  0  0  0  0  0  0  0  0
    0.2028    3.7406    0.7092 H   0  0  0  0  0  0  0  0  0  0  0  0
   -1.0355    2.6311    2.0881 C   0  0  0  0  0  0  0  0  0  0  0  0
    0.1700    0.5664   -1.9227 C   0  0  0  0  0  0  0  0  0  0  0  0
   -0.2447    0.8453   -3.0415 O   0  0  0  0  0  0  0  0  0  0  0  0
    1.4584    0.0792   -1.7865 N   0  0  0  0  0  0  0  0  0  0  0  0
    1.7209   -0.2758   -0.8710 H   0  0  0  0  0  0  0  0  0  0  0  0
    2.3236   -0.2098   -2.9233 C   0  0  0  0  0  0  0  0  0  0  0  0
    2.4608    0.6855   -3.5389 H   0  0  0  0  0  0  0  0  0  0  0  0
    3.3067   -0.5411   -2.5756 H   0  0  0  0  0  0  0  0  0  0  0  0
    1.8890   -1.0009   -3.5433 H   0  0  0  0  0  0  0  0  0  0  0  0
  1  2  1  0  0  0  0
  2  3  1  0  0  0  0
  2  4  1  0  0  0  0
  2  5  1  0  0  0  0
  5  6  2  0  0  0  0
  5  7  1  0  0  0  0
  7  8  1  0  0  0  0
  7  9  1  0  0  0  0
  9 10  1  0  0  0  0
  9 11  1  0  0  0  0
  9 29  1  0  0  0  0
 11 12  1  0  0  0  0
 11 13  1  0  0  0  0
 11 14  1  0  0  0  0
 14 15  2  0  0  0  0
 14 28  1  0  0  0  0
 15 16  1  0  0  0  0
 15 17  1  0  0  0  0
 17 18  1  0  0  0  0
 17 19  1  0  0  0  0
 19 20  1  0  0  0  0
 19 28  2  0  0  0  0
 20 21  1  0  0  0  0
 20 22  2  0  0  0  0
 22 23  1  0  0  0  0
 22 24  1  0  0  0  0
 24 25  1  0  0  0  0
 24 26  2  0  0  0  0
 26 27  1  0  0  0  0
 26 28  1  0  0  0  0
 29 30  2  0  0  0  0
 29 31  1  0  0  0  0
 31 32  1  0  0  0  0
 31 33  1  0  0  0  0
 33 34  1  0  0  0  0
 33 35  1  0  0  0  0
 33 36  1  0  0  0  0
M  END
$$$$

  -OEChem-01062216103D

 36 37  0     1  0  0  0  0  0999 V2000
   -3.8450   -2.7820   -0.0401 H   0  0  0  0  0  0  0  0  0  0  0  0
   -3.6873   -1.8718   -0.6255 C   0  0  0  0  0  0  0  0  0  0  0  0
   -4.4751   -1.1554   -0.3797 H   0  0  0  0  0  0  0  0  0  0  0  0
   -3.7485   -2.1218   -1.6876 H   0  0  0  0  0  0  0  0  0  0  0  0
   -2.3280   -1.2756   -0.3116 C   0  0  0  0  0  0  0  0  0  0  0  0
   -1.5671   -1.8936    0.4144 O   0  0  0  0  0  0  0  0  0  0  0  0
   -1.9695   -0.0889   -0.9206 N   0  0  0  0  0  0  0  0  0  0  0  0
   -2.6500    0.2781   -1.5804 H   0  0  0  0  0  0  0  0  0  0  0  0
   -0.7596    0.7404   -0.7207 C   0  0  1  0  0  0  0  0  0  0  0  0
   -1.0947    1.7806   -0.7895 H   0  0  0  0  0  0  0  0  0  0  0  0
   -0.0215    0.6534    0.6355 C   0  0  0  0  0  0  0  0  0  0  0  0
    0.2716   -0.3741    0.8621 H   0  0  0  0  0  0  0  0  0  0  0  0
    0.9027    1.2380    0.5862 H   0  0  0  0  0  0  0  0  0  0  0  0
   -0.8698    1.2152    1.7464 C   0  0  0  0  0  0  0  0  0  0  0  0
   -1.6601    0.4922    2.6060 C   0  0  0  0  0  0  0  0  0  0  0  0
   -1.7576   -0.5921    2.6080 H   0  0  0  0  0  0  0  0  0  0  0  0
   -2.2971    1.3952    3.4547 N   0  0  0  0  0  0  0  0  0  0  0  0
   -2.9355    1.1439    4.2060 H   0  0  0  0  0  0  0  0  0  0  0  0
   -1.9261    2.6935    3.1434 C   0  0  0  0  0  0  0  0  0  0  0  0
   -2.2910    3.9220    3.6941 C   0  0  0  0  0  0  0  0  0  0  0  0
   -2.9891    3.9632    4.5225 H   0  0  0  0  0  0  0  0  0  0  0  0
   -1.7445    5.0987    3.1625 C   0  0  0  0  0  0  0  0  0  0  0  0
   -2.0192    6.0619    3.5823 H   0  0  0  0  0  0  0  0  0  0  0  0
   -0.8424    5.0336    2.0894 C   0  0  0  0  0  0  0  0  0  0  0  0
   -0.4199    5.9466    1.6809 H   0  0  0  0  0  0  0  0  0  0  0  0
   -0.4835    3.7932    1.5425 C   0  0  0  0  0  0  0  0  0  0  0  0
    0.2133    3.7395    0.7126 H   0  0  0  0  0  0  0  0  0  0  0  0
   -1.0332    2.6244    2.0799 C   0  0  0  0  0  0  0  0  0  0  0  0
    0.1932    0.5493   -1.9159 C   0  0  0  0  0  0  0  0  0  0  0  0
   -0.0996    1.0448   -2.9969 O   0  0  0  0  0  0  0  0  0  0  0  0
    1.3426   -0.2131   -1.8089 N   0  0  0  0  0  0  0  0  0  0  0  0
    1.4578   -0.7449   -0.9498 H   0  0  0  0  0  0  0  0  0  0  0  0
    2.1983   -0.5259   -2.9464 C   0  0  0  0  0  0  0  0  0  0  0  0
    2.5478    0.3935   -3.4278 H   0  0  0  0  0  0  0  0  0  0  0  0
    3.0731   -1.0941   -2.6162 H   0  0  0  0  0  0  0  0  0  0  0  0
    1.6524   -1.1241   -3.6833 H   0  0  0  0  0  0  0  0  0  0  0  0
  1  2  1  0  0  0  0
  2  3  1  0  0  0  0
  2  4  1  0  0  0  0
  2  5  1  0  0  0  0
  5  6  2  0  0  0  0
  5  7  1  0  0  0  0
  7  8  1  0  0  0  0
  7  9  1  0  0  0  0
  9 10  1  0  0  0  0
  9 11  1  0  0  0  0
  9 29  1  0  0  0  0
 11 12  1  0  0  0  0
 11 13  1  0  0  0  0
 11 14  1  0  0  0  0
 14 15  2  0  0  0  0
 14 28  1  0  0  0  0
 15 16  1  0  0  0  0
 15 17  1  0  0  0  0
 17 18  1  0  0  0  0
 17 19  1  0  0  0  0
 19 20  1  0  0  0  0
 19 28  2  0  0  0  0
 20 21  1  0  0  0  0
 20 22  2  0  0  0  0
 22 23  1  0  0  0  0
 22 24  1  0  0  0  0
 24 25  1  0  0  0  0
 24 26  2  0  0  0  0
 26 27  1  0  0  0  0
 26 28  1  0  0  0  0
 29 30  2  0  0  0  0
 29 31  1  0  0  0  0
 31 32  1  0  0  0  0
 31 33  1  0  0  0  0
 33 34  1  0  0  0  0
 33 35  1  0  0  0  0
 33 36  1  0  0  0  0
M  END
$$$$

  -OEChem-01062216103D

 36 37  0     1  0  0  0  0  0999 V2000
   -3.8547   -2.7387    0.0387 H   0  0  0  0  0  0  0  0  0  0  0  0
   -3.7097   -1.8275   -0.5485 C   0  0  0  0  0  0  0  0  0  0  0  0
   -4.4588   -1.0919   -0.2453 H   0  0  0  0  0  0  0  0  0  0  0  0
   -3.8482   -2.0649   -1.6062 H   0  0  0  0  0  0  0  0  0  0  0  0
   -2.3163   -1.2726   -0.3204 C   0  0  0  0  0  0  0  0  0  0  0  0
   -1.5230   -1.9192    0.3434 O   0  0  0  0  0  0  0  0  0  0  0  0
   -1.9601   -0.0930   -0.9434 N   0  0  0  0  0  0  0  0  0  0  0  0
   -2.6840    0.3192   -1.5255 H   0  0  0  0  0  0  0  0  0  0  0  0
   -0.7507    0.7362   -0.7394 C   0  0  1  0  0  0  0  0  0  0  0  0
   -1.0827    1.7772   -0.8118 H   0  0  0  0  0  0  0  0  0  0  0  0
   -0.0132    0.6459    0.6160 C   0  0  0  0  0  0  0  0  0  0  0  0
    0.2820   -0.3806    0.8428 H   0  0  0  0  0  0  0  0  0  0  0  0
    0.9110    1.2306    0.5666 H   0  0  0  0  0  0  0  0  0  0  0  0
   -0.8649    1.2040    1.7254 C   0  0  0  0  0  0  0  0  0  0  0  0
   -1.6552    0.4751    2.5797 C   0  0  0  0  0  0  0  0  0  0  0  0
   -1.7470   -0.6098    2.5775 H   0  0  0  0  0  0  0  0  0  0  0  0
   -2.2989    1.3732    3.4286 N   0  0  0  0  0  0  0  0  0  0  0  0
   -2.9373    1.1175    4.1786 H   0  0  0  0  0  0  0  0  0  0  0  0
   -1.9312    2.6741    3.1225 C   0  0  0  0  0  0  0  0  0  0  0  0
   -2.3008    3.9001    3.6760 C   0  0  0  0  0  0  0  0  0  0  0  0
   -2.9995    3.9376    4.5042 H   0  0  0  0  0  0  0  0  0  0  0  0
   -1.7583    5.0799    3.1468 C   0  0  0  0  0  0  0  0  0  0  0  0
   -2.0382    6.0413    3.5669 H   0  0  0  0  0  0  0  0  0  0  0  0
   -0.8544    5.0205    2.0748 C   0  0  0  0  0  0  0  0  0  0  0  0
   -0.4357    5.9358    1.6672 H   0  0  0  0  0  0  0  0  0  0  0  0
   -0.4881    3.7826    1.5277 C   0  0  0  0  0  0  0  0  0  0  0  0
    0.2125    3.7324    0.7006 H   0  0  0  0  0  0  0  0  0  0  0  0
   -1.0351    2.6111    2.0613 C   0  0  0  0  0  0  0  0  0  0  0  0
    0.2144    0.5337   -1.9204 C   0  0  0  0  0  0  0  0  0  0  0  0
    0.1021    1.2274   -2.9230 O   0  0  0  0  0  0  0  0  0  0  0  0
    1.1734   -0.4615   -1.8786 N   0  0  0  0  0  0  0  0  0  0  0  0
    1.1085   -1.1176   -1.1031 H   0  0  0  0  0  0  0  0  0  0  0  0
    2.0248   -0.7968   -3.0124 C   0  0  0  0  0  0  0  0  0  0  0  0
    2.5957    0.0798   -3.3361 H   0  0  0  0  0  0  0  0  0  0  0  0
    2.7323   -1.5832   -2.7327 H   0  0  0  0  0  0  0  0  0  0  0  0
    1.4208   -1.1549   -3.8526 H   0  0  0  0  0  0  0  0  0  0  0  0
  1  2  1  0  0  0  0
  2  3  1  0  0  0  0
  2  4  1  0  0  0  0
  2  5  1  0  0  0  0
  5  6  2  0  0  0  0
  5  7  1  0  0  0  0
  7  8  1  0  0  0  0
  7  9  1  0  0  0  0
  9 10  1  0  0  0  0
  9 11  1  0  0  0  0
  9 29  1  0  0  0  0
 11 12  1  0  0  0  0
 11 13  1  0  0  0  0
 11 14  1  0  0  0  0
 14 15  2  0  0  0  0
 14 28  1  0  0  0  0
 15 16  1  0  0  0  0
 15 17  1  0  0  0  0
 17 18  1  0  0  0  0
 17 19  1  0  0  0  0
 19 20  1  0  0  0  0
 19 28  2  0  0  0  0
 20 21  1  0  0  0  0
 20 22  2  0  0  0  0
 22 23  1  0  0  0  0
 22 24  1  0  0  0  0
 24 25  1  0  0  0  0
 24 26  2  0  0  0  0
 26 27  1  0  0  0  0
 26 28  1  0  0  0  0
 29 30  2  0  0  0  0
 29 31  1  0  0  0  0
 31 32  1  0  0  0  0
 31 33  1  0  0  0  0
 33 34  1  0  0  0  0
 33 35  1  0  0  0  0
 33 36  1  0  0  0  0
M  END
$$$$

  -OEChem-01062216103D

 36 37  0     1  0  0  0  0  0999 V2000
   -3.8740   -2.6860    0.1213 H   0  0  0  0  0  0  0  0  0  0  0  0
   -3.7370   -1.7772   -0.4715 C   0  0  0  0  0  0  0  0  0  0  0  0
   -4.4424   -1.0200   -0.1208 H   0  0  0  0  0  0  0  0  0  0  0  0
   -3.9477   -2.0047   -1.5193 H   0  0  0  0  0  0  0  0  0  0  0  0
   -2.3158   -1.2664   -0.3281 C   0  0  0  0  0  0  0  0  0  0  0  0
   -1.4950   -1.9458    0.2659 O   0  0  0  0  0  0  0  0  0  0  0  0
   -1.9610   -0.0934   -0.9631 N   0  0  0  0  0  0  0  0  0  0  0  0
   -2.7150    0.3556   -1.4753 H   0  0  0  0  0  0  0  0  0  0  0  0
   -0.7492    0.7318   -0.7558 C   0  0  1  0  0  0  0  0  0  0  0  0
   -1.0757    1.7744   -0.8284 H   0  0  0  0  0  0  0  0  0  0  0  0
   -0.0075    0.6309    0.5952 C   0  0  0  0  0  0  0  0  0  0  0  0
    0.2894   -0.3973    0.8133 H   0  0  0  0  0  0  0  0  0  0  0  0
    0.9169    1.2155    0.5462 H   0  0  0  0  0  0  0  0  0  0  0  0
   -0.8560    1.1822    1.7099 C   0  0  0  0  0  0  0  0  0  0  0  0
   -1.6454    0.4502    2.5625 C   0  0  0  0  0  0  0  0  0  0  0  0
   -1.7340   -0.6349    2.5592 H   0  0  0  0  0  0  0  0  0  0  0  0
   -2.2911    1.3465    3.4123 N   0  0  0  0  0  0  0  0  0  0  0  0
   -2.9236    1.0891    4.1670 H   0  0  0  0  0  0  0  0  0  0  0  0
   -1.9299    2.6490    3.1043 C   0  0  0  0  0  0  0  0  0  0  0  0
   -2.3056    3.8751    3.6539 C   0  0  0  0  0  0  0  0  0  0  0  0
   -3.0036    3.9110    4.4829 H   0  0  0  0  0  0  0  0  0  0  0  0
   -1.7706    5.0563    3.1194 C   0  0  0  0  0  0  0  0  0  0  0  0
   -2.0544    6.0179    3.5369 H   0  0  0  0  0  0  0  0  0  0  0  0
   -0.8685    4.9981    2.0454 C   0  0  0  0  0  0  0  0  0  0  0  0
   -0.4556    5.9137    1.6326 H   0  0  0  0  0  0  0  0  0  0  0  0
   -0.4956    3.7602    1.5025 C   0  0  0  0  0  0  0  0  0  0  0  0
    0.2024    3.7098    0.6728 H   0  0  0  0  0  0  0  0  0  0  0  0
   -1.0342    2.5882    2.0430 C   0  0  0  0  0  0  0  0  0  0  0  0
    0.2239    0.5183   -1.9257 C   0  0  0  0  0  0  0  0  0  0  0  0
    0.3324    1.3663   -2.8016 O   0  0  0  0  0  0  0  0  0  0  0  0
    0.9533   -0.6530   -2.0014 N   0  0  0  0  0  0  0  0  0  0  0  0
    0.7200   -1.3747   -1.3206 H   0  0  0  0  0  0  0  0  0  0  0  0
    1.8134   -0.9915   -3.1272 C   0  0  0  0  0  0  0  0  0  0  0  0
    2.5745   -0.2185   -3.2757 H   0  0  0  0  0  0  0  0  0  0  0  0
    2.3211   -1.9424   -2.9404 H   0  0  0  0  0  0  0  0  0  0  0  0
    1.2236   -1.0863   -4.0446 H   0  0  0  0  0  0  0  0  0  0  0  0
  1  2  1  0  0  0  0
  2  3  1  0  0  0  0
  2  4  1  0  0  0  0
  2  5  1  0  0  0  0
  5  6  2  0  0  0  0
  5  7  1  0  0  0  0
  7  8  1  0  0  0  0
  7  9  1  0  0  0  0
  9 10  1  0  0  0  0
  9 11  1  0  0  0  0
  9 29  1  0  0  0  0
 11 12  1  0  0  0  0
 11 13  1  0  0  0  0
 11 14  1  0  0  0  0
 14 15  2  0  0  0  0
 14 28  1  0  0  0  0
 15 16  1  0  0  0  0
 15 17  1  0  0  0  0
 17 18  1  0  0  0  0
 17 19  1  0  0  0  0
 19 20  1  0  0  0  0
 19 28  2  0  0  0  0
 20 21  1  0  0  0  0
 20 22  2  0  0  0  0
 22 23  1  0  0  0  0
 22 24  1  0  0  0  0
 24 25  1  0  0  0  0
 24 26  2  0  0  0  0
 26 27  1  0  0  0  0
 26 28  1  0  0  0  0
 29 30  2  0  0  0  0
 29 31  1  0  0  0  0
 31 32  1  0  0  0  0
 31 33  1  0  0  0  0
 33 34  1  0  0  0  0
 33 35  1  0  0  0  0
 33 36  1  0  0  0  0
M  END
$$$$

  -OEChem-01062216103D

 36 37  0     1  0  0  0  0  0999 V2000
   -3.8879   -2.6495    0.2145 H   0  0  0  0  0  0  0  0  0  0  0  0
   -3.7678   -1.7436   -0.3864 C   0  0  0  0  0  0  0  0  0  0  0  0
   -4.4315   -0.9704    0.0088 H   0  0  0  0  0  0  0  0  0  0  0  0
   -4.0512   -1.9660   -1.4180 H   0  0  0  0  0  0  0  0  0  0  0  0
   -2.3287   -1.2669   -0.3344 C   0  0  0  0  0  0  0  0  0  0  0  0
   -1.4843   -1.9711    0.1935 O   0  0  0  0  0  0  0  0  0  0  0  0
   -1.9818   -0.1034   -0.9900 N   0  0  0  0  0  0  0  0  0  0  0  0
   -2.7601    0.3685   -1.4416 H   0  0  0  0  0  0  0  0  0  0  0  0
   -0.7686    0.7247   -0.7913 C   0  0  1  0  0  0  0  0  0  0  0  0
   -1.0924    1.7678   -0.8696 H   0  0  0  0  0  0  0  0  0  0  0  0
   -0.0205    0.6218    0.5549 C   0  0  0  0  0  0  0  0  0  0  0  0
    0.2797   -0.4067    0.7674 H   0  0  0  0  0  0  0  0  0  0  0  0
    0.9029    1.2073    0.5021 H   0  0  0  0  0  0  0  0  0  0  0  0
   -0.8631    1.1700    1.6754 C   0  0  0  0  0  0  0  0  0  0  0  0
   -1.6465    0.4335    2.5297 C   0  0  0  0  0  0  0  0  0  0  0  0
   -1.7322   -0.6520    2.5236 H   0  0  0  0  0  0  0  0  0  0  0  0
   -2.2894    1.3255    3.3858 N   0  0  0  0  0  0  0  0  0  0  0  0
   -2.9149    1.0641    4.1447 H   0  0  0  0  0  0  0  0  0  0  0  0
   -1.9289    2.6294    3.0833 C   0  0  0  0  0  0  0  0  0  0  0  0
   -2.2993    3.8521    3.6436 C   0  0  0  0  0  0  0  0  0  0  0  0
   -2.9920    3.8839    4.4773 H   0  0  0  0  0  0  0  0  0  0  0  0
   -1.7646    5.0358    3.1148 C   0  0  0  0  0  0  0  0  0  0  0  0
   -2.0436    5.9947    3.5414 H   0  0  0  0  0  0  0  0  0  0  0  0
   -0.8687    4.9835    2.0354 C   0  0  0  0  0  0  0  0  0  0  0  0
   -0.4556    5.9013    1.6279 H   0  0  0  0  0  0  0  0  0  0  0  0
   -0.5017    3.7490    1.4810 C   0  0  0  0  0  0  0  0  0  0  0  0
    0.1927    3.7027    0.6478 H   0  0  0  0  0  0  0  0  0  0  0  0
   -1.0392    2.5743    2.0164 C   0  0  0  0  0  0  0  0  0  0  0  0
    0.2106    0.4990   -1.9530 C   0  0  0  0  0  0  0  0  0  0  0  0
    0.5470    1.4287   -2.6742 O   0  0  0  0  0  0  0  0  0  0  0  0
    0.7004   -0.7723   -2.1835 N   0  0  0  0  0  0  0  0  0  0  0  0
    0.3526   -1.5125   -1.5739 H   0  0  0  0  0  0  0  0  0  0  0  0
    1.6010   -1.1068   -3.2777 C   0  0  0  0  0  0  0  0  0  0  0  0
    2.5210   -0.5168   -3.2112 H   0  0  0  0  0  0  0  0  0  0  0  0
    1.8674   -2.1671   -3.2357 H   0  0  0  0  0  0  0  0  0  0  0  0
    1.1217   -0.9072   -4.2417 H   0  0  0  0  0  0  0  0  0  0  0  0
  1  2  1  0  0  0  0
  2  3  1  0  0  0  0
  2  4  1  0  0  0  0
  2  5  1  0  0  0  0
  5  6  2  0  0  0  0
  5  7  1  0  0  0  0
  7  8  1  0  0  0  0
  7  9  1  0  0  0  0
  9 10  1  0  0  0  0
  9 11  1  0  0  0  0
  9 29  1  0  0  0  0
 11 12  1  0  0  0  0
 11 13  1  0  0  0  0
 11 14  1  0  0  0  0
 14 15  2  0  0  0  0
 14 28  1  0  0  0  0
 15 16  1  0  0  0  0
 15 17  1  0  0  0  0
 17 18  1  0  0  0  0
 17 19  1  0  0  0  0
 19 20  1  0  0  0  0
 19 28  2  0  0  0  0
 20 21  1  0  0  0  0
 20 22  2  0  0  0  0
 22 23  1  0  0  0  0
 22 24  1  0  0  0  0
 24 25  1  0  0  0  0
 24 26  2  0  0  0  0
 26 27  1  0  0  0  0
 26 28  1  0  0  0  0
 29 30  2  0  0  0  0
 29 31  1  0  0  0  0
 31 32  1  0  0  0  0
 31 33  1  0  0  0  0
 33 34  1  0  0  0  0
 33 35  1  0  0  0  0
 33 36  1  0  0  0  0
M  END
$$$$

  -OEChem-01062216103D

 36 37  0     1  0  0  0  0  0999 V2000
   -3.9142   -2.6314    0.2780 H   0  0  0  0  0  0  0  0  0  0  0  0
   -3.8067   -1.7174   -0.3128 C   0  0  0  0  0  0  0  0  0  0  0  0
   -4.4308   -0.9377    0.1306 H   0  0  0  0  0  0  0  0  0  0  0  0
   -4.1495   -1.9141   -1.3316 H   0  0  0  0  0  0  0  0  0  0  0  0
   -2.3569   -1.2723   -0.3293 C   0  0  0  0  0  0  0  0  0  0  0  0
   -1.5007   -2.0022    0.1406 O   0  0  0  0  0  0  0  0  0  0  0  0
   -2.0169   -0.1108   -0.9914 N   0  0  0  0  0  0  0  0  0  0  0  0
   -2.8104    0.3808   -1.3925 H   0  0  0  0  0  0  0  0  0  0  0  0
   -0.7962    0.7126   -0.8097 C   0  0  1  0  0  0  0  0  0  0  0  0
   -1.1170    1.7570   -0.8811 H   0  0  0  0  0  0  0  0  0  0  0  0
   -0.0333    0.5976    0.5269 C   0  0  0  0  0  0  0  0  0  0  0  0
    0.2623   -0.4345    0.7287 H   0  0  0  0  0  0  0  0  0  0  0  0
    0.8937    1.1775    0.4674 H   0  0  0  0  0  0  0  0  0  0  0  0
   -0.8604    1.1449    1.6595 C   0  0  0  0  0  0  0  0  0  0  0  0
   -1.6396    0.4118    2.5203 C   0  0  0  0  0  0  0  0  0  0  0  0
   -1.7256   -0.6735    2.5190 H   0  0  0  0  0  0  0  0  0  0  0  0
   -2.2758    1.3071    3.3783 N   0  0  0  0  0  0  0  0  0  0  0  0
   -2.8918    1.0485    4.1461 H   0  0  0  0  0  0  0  0  0  0  0  0
   -1.9195    2.6104    3.0667 C   0  0  0  0  0  0  0  0  0  0  0  0
   -2.2890    3.8364    3.6208 C   0  0  0  0  0  0  0  0  0  0  0  0
   -2.9773    3.8735    4.4578 H   0  0  0  0  0  0  0  0  0  0  0  0
   -1.7598    5.0175    3.0809 C   0  0  0  0  0  0  0  0  0  0  0  0
   -2.0381    5.9790    3.5021 H   0  0  0  0  0  0  0  0  0  0  0  0
   -0.8695    4.9598    1.9972 C   0  0  0  0  0  0  0  0  0  0  0  0
   -0.4597    5.8756    1.5821 H   0  0  0  0  0  0  0  0  0  0  0  0
   -0.5031    3.7223    1.4492 C   0  0  0  0  0  0  0  0  0  0  0  0
    0.1873    3.6717    0.6127 H   0  0  0  0  0  0  0  0  0  0  0  0
   -1.0361    2.5504    1.9951 C   0  0  0  0  0  0  0  0  0  0  0  0
    0.1787    0.4949   -1.9779 C   0  0  0  0  0  0  0  0  0  0  0  0
    0.7324    1.4478   -2.5100 O   0  0  0  0  0  0  0  0  0  0  0  0
    0.4308   -0.7896   -2.4203 N   0  0  0  0  0  0  0  0  0  0  0  0
    0.0067   -1.5439   -1.8806 H   0  0  0  0  0  0  0  0  0  0  0  0
    1.3922   -1.1095   -3.4661 C   0  0  0  0  0  0  0  0  0  0  0  0
    2.3995   -0.8028   -3.1662 H   0  0  0  0  0  0  0  0  0  0  0  0
    1.3990   -2.1871   -3.6556 H   0  0  0  0  0  0  0  0  0  0  0  0
    1.1289   -0.5973   -4.3973 H   0  0  0  0  0  0  0  0  0  0  0  0
  1  2  1  0  0  0  0
  2  3  1  0  0  0  0
  2  4  1  0  0  0  0
  2  5  1  0  0  0  0
  5  6  2  0  0  0  0
  5  7  1  0  0  0  0
  7  8  1  0  0  0  0
  7  9  1  0  0  0  0
  9 10  1  0  0  0  0
  9 11  1  0  0  0  0
  9 29  1  0  0  0  0
 11 12  1  0  0  0  0
 11 13  1  0  0  0  0
 11 14  1  0  0  0  0
 14 15  2  0  0  0  0
 14 28  1  0  0  0  0
 15 16  1  0  0  0  0
 15 17  1  0  0  0  0
 17 18  1  0  0  0  0
 17 19  1  0  0  0  0
 19 20  1  0  0  0  0
 19 28  2  0  0  0  0
 20 21  1  0  0  0  0
 20 22  2  0  0  0  0
 22 23  1  0  0  0  0
 22 24  1  0  0  0  0
 24 25  1  0  0  0  0
 24 26  2  0  0  0  0
 26 27  1  0  0  0  0
 26 28  1  0  0  0  0
 29 30  2  0  0  0  0
 29 31  1  0  0  0  0
 31 32  1  0  0  0  0
 31 33  1  0  0  0  0
 33 34  1  0  0  0  0
 33 35  1  0  0  0  0
 33 36  1  0  0  0  0
M  END
$$$$

  -OEChem-01062216103D

 36 37  0     1  0  0  0  0  0999 V2000
   -3.9327   -2.6331    0.3222 H   0  0  0  0  0  0  0  0  0  0  0  0
   -3.8244   -1.7299   -0.2854 C   0  0  0  0  0  0  0  0  0  0  0  0
   -4.4481   -0.9421    0.1442 H   0  0  0  0  0  0  0  0  0  0  0  0
   -4.1667   -1.9449   -1.3005 H   0  0  0  0  0  0  0  0  0  0  0  0
   -2.3739   -1.2869   -0.3106 C   0  0  0  0  0  0  0  0  0  0  0  0
   -1.5195   -2.0160    0.1618 O   0  0  0  0  0  0  0  0  0  0  0  0
   -2.0371   -0.1290   -0.9814 N   0  0  0  0  0  0  0  0  0  0  0  0
   -2.8355    0.3609   -1.3748 H   0  0  0  0  0  0  0  0  0  0  0  0
   -0.8140    0.6983   -0.8194 C   0  0  1  0  0  0  0  0  0  0  0  0
   -1.1377    1.7415   -0.8928 H   0  0  0  0  0  0  0  0  0  0  0  0
   -0.0466    0.5869    0.5157 C   0  0  0  0  0  0  0  0  0  0  0  0
    0.2475   -0.4451    0.7202 H   0  0  0  0  0  0  0  0  0  0  0  0
    0.8814    1.1650    0.4534 H   0  0  0  0  0  0  0  0  0  0  0  0
   -0.8692    1.1409    1.6484 C   0  0  0  0  0  0  0  0  0  0  0  0
   -1.6470    0.4111    2.5136 C   0  0  0  0  0  0  0  0  0  0  0  0
   -1.7350   -0.6744    2.5139 H   0  0  0  0  0  0  0  0  0  0  0  0
   -2.2795    1.3096    3.3711 N   0  0  0  0  0  0  0  0  0  0  0  0
   -2.8941    1.0544    4.1411 H   0  0  0  0  0  0  0  0  0  0  0  0
   -1.9179    2.6109    3.0576 C   0  0  0  0  0  0  0  0  0  0  0  0
   -2.2787    3.8384    3.6136 C   0  0  0  0  0  0  0  0  0  0  0  0
   -2.9648    3.8782    4.4523 H   0  0  0  0  0  0  0  0  0  0  0  0
   -1.7429    5.0170    3.0745 C   0  0  0  0  0  0  0  0  0  0  0  0
   -2.0140    5.9795    3.4979 H   0  0  0  0  0  0  0  0  0  0  0  0
   -0.8543    4.9553    1.9899 C   0  0  0  0  0  0  0  0  0  0  0  0
   -0.4388    5.8691    1.5759 H   0  0  0  0  0  0  0  0  0  0  0  0
   -0.4968    3.7163    1.4395 C   0  0  0  0  0  0  0  0  0  0  0  0
    0.1937    3.6624    0.6032 H   0  0  0  0  0  0  0  0  0  0  0  0
   -1.0367    2.5469    1.9843 C   0  0  0  0  0  0  0  0  0  0  0  0
    0.1624    0.4873   -1.9909 C   0  0  0  0  0  0  0  0  0  0  0  0
    0.8836    1.4038   -2.3626 O   0  0  0  0  0  0  0  0  0  0  0  0
    0.2054   -0.7293   -2.6457 N   0  0  0  0  0  0  0  0  0  0  0  0
   -0.3056   -1.4904   -2.2019 H   0  0  0  0  0  0  0  0  0  0  0  0
    1.1590   -1.0375   -3.7028 C   0  0  0  0  0  0  0  0  0  0  0  0
    2.1829   -1.0053   -3.3163 H   0  0  0  0  0  0  0  0  0  0  0  0
    0.9693   -2.0383   -4.1025 H   0  0  0  0  0  0  0  0  0  0  0  0
    1.0682   -0.3171   -4.5225 H   0  0  0  0  0  0  0  0  0  0  0  0
  1  2  1  0  0  0  0
  2  3  1  0  0  0  0
  2  4  1  0  0  0  0
  2  5  1  0  0  0  0
  5  6  2  0  0  0  0
  5  7  1  0  0  0  0
  7  8  1  0  0  0  0
  7  9  1  0  0  0  0
  9 10  1  0  0  0  0
  9 11  1  0  0  0  0
  9 29  1  0  0  0  0
 11 12  1  0  0  0  0
 11 13  1  0  0  0  0
 11 14  1  0  0  0  0
 14 15  2  0  0  0  0
 14 28  1  0  0  0  0
 15 16  1  0  0  0  0
 15 17  1  0  0  0  0
 17 18  1  0  0  0  0
 17 19  1  0  0  0  0
 19 20  1  0  0  0  0
 19 28  2  0  0  0  0
 20 21  1  0  0  0  0
 20 22  2  0  0  0  0
 22 23  1  0  0  0  0
 22 24  1  0  0  0  0
 24 25  1  0  0  0  0
 24 26  2  0  0  0  0
 26 27  1  0  0  0  0
 26 28  1  0  0  0  0
 29 30  2  0  0  0  0
 29 31  1  0  0  0  0
 31 32  1  0  0  0  0
 31 33  1  0  0  0  0
 33 34  1  0  0  0  0
 33 35  1  0  0  0  0
 33 36  1  0  0  0  0
M  END
$$$$

  -OEChem-01062216103D

 36 37  0     1  0  0  0  0  0999 V2000
   -3.9386   -2.6517    0.3337 H   0  0  0  0  0  0  0  0  0  0  0  0
   -3.8285   -1.7492   -0.2747 C   0  0  0  0  0  0  0  0  0  0  0  0
   -4.4525   -0.9603    0.1527 H   0  0  0  0  0  0  0  0  0  0  0  0
   -4.1688   -1.9650   -1.2905 H   0  0  0  0  0  0  0  0  0  0  0  0
   -2.3777   -1.3069   -0.2957 C   0  0  0  0  0  0  0  0  0  0  0  0
   -1.5294   -2.0338    0.1892 O   0  0  0  0  0  0  0  0  0  0  0  0
   -2.0429   -0.1450   -0.9622 N   0  0  0  0  0  0  0  0  0  0  0  0
   -2.8441    0.3477   -1.3463 H   0  0  0  0  0  0  0  0  0  0  0  0
   -0.8158    0.6809   -0.8119 C   0  0  1  0  0  0  0  0  0  0  0  0
   -1.1411    1.7238   -0.8808 H   0  0  0  0  0  0  0  0  0  0  0  0
   -0.0480    0.5685    0.5244 C   0  0  0  0  0  0  0  0  0  0  0  0
    0.2411   -0.4643    0.7313 H   0  0  0  0  0  0  0  0  0  0  0  0
    0.8831    1.1415    0.4650 H   0  0  0  0  0  0  0  0  0  0  0  0
   -0.8703    1.1303    1.6534 C   0  0  0  0  0  0  0  0  0  0  0  0
   -1.6538    0.4089    2.5199 C   0  0  0  0  0  0  0  0  0  0  0  0
   -1.7470   -0.6761    2.5257 H   0  0  0  0  0  0  0  0  0  0  0  0
   -2.2847    1.3154    3.3703 N   0  0  0  0  0  0  0  0  0  0  0  0
   -2.9019    1.0666    4.1401 H   0  0  0  0  0  0  0  0  0  0  0  0
   -1.9172    2.6136    3.0506 C   0  0  0  0  0  0  0  0  0  0  0  0
   -2.2755    3.8464    3.5969 C   0  0  0  0  0  0  0  0  0  0  0  0
   -2.9643    3.8943    4.4331 H   0  0  0  0  0  0  0  0  0  0  0  0
   -1.7336    5.0194    3.0509 C   0  0  0  0  0  0  0  0  0  0  0  0
   -2.0032    5.9860    3.4663 H   0  0  0  0  0  0  0  0  0  0  0  0
   -0.8411    4.9465    1.9697 C   0  0  0  0  0  0  0  0  0  0  0  0
   -0.4205    5.8555    1.5501 H   0  0  0  0  0  0  0  0  0  0  0  0
   -0.4860    3.7020    1.4299 C   0  0  0  0  0  0  0  0  0  0  0  0
    0.2076    3.6379    0.5968 H   0  0  0  0  0  0  0  0  0  0  0  0
   -1.0331    2.5390    1.9807 C   0  0  0  0  0  0  0  0  0  0  0  0
    0.1561    0.4856   -1.9929 C   0  0  0  0  0  0  0  0  0  0  0  0
    1.0255    1.3179   -2.2162 O   0  0  0  0  0  0  0  0  0  0  0  0
    0.0039   -0.5833   -2.8565 N   0  0  0  0  0  0  0  0  0  0  0  0
   -0.6225   -1.3188   -2.5385 H   0  0  0  0  0  0  0  0  0  0  0  0
    0.9282   -0.8668   -3.9466 C   0  0  0  0  0  0  0  0  0  0  0  0
    1.9273   -1.0831   -3.5540 H   0  0  0  0  0  0  0  0  0  0  0  0
    0.5831   -1.7335   -4.5185 H   0  0  0  0  0  0  0  0  0  0  0  0
    0.9941   -0.0109   -4.6267 H   0  0  0  0  0  0  0  0  0  0  0  0
  1  2  1  0  0  0  0
  2  3  1  0  0  0  0
  2  4  1  0  0  0  0
  2  5  1  0  0  0  0
  5  6  2  0  0  0  0
  5  7  1  0  0  0  0
  7  8  1  0  0  0  0
  7  9  1  0  0  0  0
  9 10  1  0  0  0  0
  9 11  1  0  0  0  0
  9 29  1  0  0  0  0
 11 12  1  0  0  0  0
 11 13  1  0  0  0  0
 11 14  1  0  0  0  0
 14 15  2  0  0  0  0
 14 28  1  0  0  0  0
 15 16  1  0  0  0  0
 15 17  1  0  0  0  0
 17 18  1  0  0  0  0
 17 19  1  0  0  0  0
 19 20  1  0  0  0  0
 19 28  2  0  0  0  0
 20 21  1  0  0  0  0
 20 22  2  0  0  0  0
 22 23  1  0  0  0  0
 22 24  1  0  0  0  0
 24 25  1  0  0  0  0
 24 26  2  0  0  0  0
 26 27  1  0  0  0  0
 26 28  1  0  0  0  0
 29 30  2  0  0  0  0
 29 31  1  0  0  0  0
 31 32  1  0  0  0  0
 31 33  1  0  0  0  0
 33 34  1  0  0  0  0
 33 35  1  0  0  0  0
 33 36  1  0  0  0  0
M  END
$$$$

  -OEChem-01062216103D

 36 37  0     1  0  0  0  0  0999 V2000
   -3.9159   -2.6866    0.3116 H   0  0  0  0  0  0  0  0  0  0  0  0
   -3.8137   -1.7632   -0.2656 C   0  0  0  0  0  0  0  0  0  0  0  0
   -4.4305   -0.9898    0.1988 H   0  0  0  0  0  0  0  0  0  0  0  0
   -4.1696   -1.9434   -1.2828 H   0  0  0  0  0  0  0  0  0  0  0  0
   -2.3630   -1.3207   -0.2929 C   0  0  0  0  0  0  0  0  0  0  0  0
   -1.5160   -2.0441    0.1987 O   0  0  0  0  0  0  0  0  0  0  0  0
   -2.0356   -0.1550   -0.9582 N   0  0  0  0  0  0  0  0  0  0  0  0
   -2.8445    0.3454   -1.3155 H   0  0  0  0  0  0  0  0  0  0  0  0
   -0.8073    0.6718   -0.8142 C   0  0  1  0  0  0  0  0  0  0  0  0
   -1.1336    1.7141   -0.8834 H   0  0  0  0  0  0  0  0  0  0  0  0
   -0.0432    0.5618    0.5271 C   0  0  0  0  0  0  0  0  0  0  0  0
    0.2449   -0.4704    0.7376 H   0  0  0  0  0  0  0  0  0  0  0  0
    0.8889    1.1338    0.4740 H   0  0  0  0  0  0  0  0  0  0  0  0
   -0.8695    1.1294    1.6515 C   0  0  0  0  0  0  0  0  0  0  0  0
   -1.6576    0.4104    2.5163 C   0  0  0  0  0  0  0  0  0  0  0  0
   -1.7496   -0.6746    2.5244 H   0  0  0  0  0  0  0  0  0  0  0  0
   -2.2935    1.3182    3.3616 N   0  0  0  0  0  0  0  0  0  0  0  0
   -2.9125    1.0708    4.1306 H   0  0  0  0  0  0  0  0  0  0  0  0
   -1.9231    2.6154    3.0413 C   0  0  0  0  0  0  0  0  0  0  0  0
   -2.2826    3.8490    3.5850 C   0  0  0  0  0  0  0  0  0  0  0  0
   -2.9754    3.8992    4.4177 H   0  0  0  0  0  0  0  0  0  0  0  0
   -1.7356    5.0206    3.0416 C   0  0  0  0  0  0  0  0  0  0  0  0
   -2.0049    5.9878    3.4557 H   0  0  0  0  0  0  0  0  0  0  0  0
   -0.8372    4.9459    1.9654 C   0  0  0  0  0  0  0  0  0  0  0  0
   -0.4119    5.8539    1.5488 H   0  0  0  0  0  0  0  0  0  0  0  0
   -0.4812    3.7007    1.4278 C   0  0  0  0  0  0  0  0  0  0  0  0
    0.2178    3.6344    0.5994 H   0  0  0  0  0  0  0  0  0  0  0  0
   -1.0330    2.5388    1.9760 C   0  0  0  0  0  0  0  0  0  0  0  0
    0.1572    0.4818   -2.0064 C   0  0  0  0  0  0  0  0  0  0  0  0
    1.1654    1.1695   -2.1042 O   0  0  0  0  0  0  0  0  0  0  0  0
   -0.1661   -0.3791   -3.0400 N   0  0  0  0  0  0  0  0  0  0  0  0
   -0.9258   -1.0267   -2.8514 H   0  0  0  0  0  0  0  0  0  0  0  0
    0.7227   -0.6463   -4.1636 C   0  0  0  0  0  0  0  0  0  0  0  0
    1.6579   -1.0957   -3.8135 H   0  0  0  0  0  0  0  0  0  0  0  0
    0.2466   -1.3371   -4.8659 H   0  0  0  0  0  0  0  0  0  0  0  0
    0.9552    0.2807   -4.6983 H   0  0  0  0  0  0  0  0  0  0  0  0
  1  2  1  0  0  0  0
  2  3  1  0  0  0  0
  2  4  1  0  0  0  0
  2  5  1  0  0  0  0
  5  6  2  0  0  0  0
  5  7  1  0  0  0  0
  7  8  1  0  0  0  0
  7  9  1  0  0  0  0
  9 10  1  0  0  0  0
  9 11  1  0  0  0  0
  9 29  1  0  0  0  0
 11 12  1  0  0  0  0
 11 13  1  0  0  0  0
 11 14  1  0  0  0  0
 14 15  2  0  0  0  0
 14 28  1  0  0  0  0
 15 16  1  0  0  0  0
 15 17  1  0  0  0  0
 17 18  1  0  0  0  0
 17 19  1  0  0  0  0
 19 20  1  0  0  0  0
 19 28  2  0  0  0  0
 20 21  1  0  0  0  0
 20 22  2  0  0  0  0
 22 23  1  0  0  0  0
 22 24  1  0  0  0  0
 24 25  1  0  0  0  0
 24 26  2  0  0  0  0
 26 27  1  0  0  0  0
 26 28  1  0  0  0  0
 29 30  2  0  0  0  0
 29 31  1  0  0  0  0
 31 32  1  0  0  0  0
 31 33  1  0  0  0  0
 33 34  1  0  0  0  0
 33 35  1  0  0  0  0
 33 36  1  0  0  0  0
M  END
$$$$

  -OEChem-01062216103D

 36 37  0     1  0  0  0  0  0999 V2000
   -3.9050   -2.6844    0.3356 H   0  0  0  0  0  0  0  0  0  0  0  0
   -3.7941   -1.7899   -0.2841 C   0  0  0  0  0  0  0  0  0  0  0  0
   -4.4314   -1.0013    0.1235 H   0  0  0  0  0  0  0  0  0  0  0  0
   -4.1177   -2.0237   -1.3012 H   0  0  0  0  0  0  0  0  0  0  0  0
   -2.3468   -1.3356   -0.2924 C   0  0  0  0  0  0  0  0  0  0  0  0
   -1.5043   -2.0507    0.2180 O   0  0  0  0  0  0  0  0  0  0  0  0
   -2.0231   -0.1647   -0.9513 N   0  0  0  0  0  0  0  0  0  0  0  0
   -2.8354    0.3365   -1.2990 H   0  0  0  0  0  0  0  0  0  0  0  0
   -0.7945    0.6625   -0.8088 C   0  0  1  0  0  0  0  0  0  0  0  0
   -1.1217    1.7046   -0.8760 H   0  0  0  0  0  0  0  0  0  0  0  0
   -0.0352    0.5545    0.5372 C   0  0  0  0  0  0  0  0  0  0  0  0
    0.2528   -0.4769    0.7513 H   0  0  0  0  0  0  0  0  0  0  0  0
    0.8968    1.1265    0.4907 H   0  0  0  0  0  0  0  0  0  0  0  0
   -0.8668    1.1267    1.6552 C   0  0  0  0  0  0  0  0  0  0  0  0
   -1.6607    0.4123    2.5182 C   0  0  0  0  0  0  0  0  0  0  0  0
   -1.7550   -0.6724    2.5296 H   0  0  0  0  0  0  0  0  0  0  0  0
   -2.3007    1.3245    3.3557 N   0  0  0  0  0  0  0  0  0  0  0  0
   -2.9227    1.0812    4.1235 H   0  0  0  0  0  0  0  0  0  0  0  0
   -1.9266    2.6198    3.0323 C   0  0  0  0  0  0  0  0  0  0  0  0
   -2.2882    3.8563    3.5674 C   0  0  0  0  0  0  0  0  0  0  0  0
   -2.9880    3.9107    4.3938 H   0  0  0  0  0  0  0  0  0  0  0  0
   -1.7340    5.0246    3.0245 C   0  0  0  0  0  0  0  0  0  0  0  0
   -2.0055    5.9938    3.4321 H   0  0  0  0  0  0  0  0  0  0  0  0
   -0.8251    4.9439    1.9579 C   0  0  0  0  0  0  0  0  0  0  0  0
   -0.3932    5.8494    1.5426 H   0  0  0  0  0  0  0  0  0  0  0  0
   -0.4672    3.6960    1.4284 C   0  0  0  0  0  0  0  0  0  0  0  0
    0.2411    3.6253    0.6084 H   0  0  0  0  0  0  0  0  0  0  0  0
   -1.0285    2.5375    1.9746 C   0  0  0  0  0  0  0  0  0  0  0  0
    0.1599    0.4768   -2.0123 C   0  0  0  0  0  0  0  0  0  0  0  0
    1.2756    0.9809   -2.0159 O   0  0  0  0  0  0  0  0  0  0  0  0
   -0.2954   -0.1215   -3.1743 N   0  0  0  0  0  0  0  0  0  0  0  0
   -1.1605   -0.6463   -3.0906 H   0  0  0  0  0  0  0  0  0  0  0  0
    0.5515   -0.3483   -4.3390 C   0  0  0  0  0  0  0  0  0  0  0  0
    1.3834   -1.0127   -4.0835 H   0  0  0  0  0  0  0  0  0  0  0  0
   -0.0282   -0.8101   -5.1438 H   0  0  0  0  0  0  0  0  0  0  0  0
    0.9579    0.5989   -4.7089 H   0  0  0  0  0  0  0  0  0  0  0  0
  1  2  1  0  0  0  0
  2  3  1  0  0  0  0
  2  4  1  0  0  0  0
  2  5  1  0  0  0  0
  5  6  2  0  0  0  0
  5  7  1  0  0  0  0
  7  8  1  0  0  0  0
  7  9  1  0  0  0  0
  9 10  1  0  0  0  0
  9 11  1  0  0  0  0
  9 29  1  0  0  0  0
 11 12  1  0  0  0  0
 11 13  1  0  0  0  0
 11 14  1  0  0  0  0
 14 15  2  0  0  0  0
 14 28  1  0  0  0  0
 15 16  1  0  0  0  0
 15 17  1  0  0  0  0
 17 18  1  0  0  0  0
 17 19  1  0  0  0  0
 19 20  1  0  0  0  0
 19 28  2  0  0  0  0
 20 21  1  0  0  0  0
 20 22  2  0  0  0  0
 22 23  1  0  0  0  0
 22 24  1  0  0  0  0
 24 25  1  0  0  0  0
 24 26  2  0  0  0  0
 26 27  1  0  0  0  0
 26 28  1  0  0  0  0
 29 30  2  0  0  0  0
 29 31  1  0  0  0  0
 31 32  1  0  0  0  0
 31 33  1  0  0  0  0
 33 34  1  0  0  0  0
 33 35  1  0  0  0  0
 33 36  1  0  0  0  0
M  END
$$$$

  -OEChem-01062216103D

 36 37  0     1  0  0  0  0  0999 V2000
   -3.8826   -2.7072    0.3023 H   0  0  0  0  0  0  0  0  0  0  0  0
   -3.7732   -1.8101   -0.3138 C   0  0  0  0  0  0  0  0  0  0  0  0
   -4.4211   -1.0277    0.0889 H   0  0  0  0  0  0  0  0  0  0  0  0
   -4.0855   -2.0450   -1.3341 H   0  0  0  0  0  0  0  0  0  0  0  0
   -2.3294   -1.3442   -0.3066 C   0  0  0  0  0  0  0  0  0  0  0  0
   -1.4894   -2.0493    0.2216 O   0  0  0  0  0  0  0  0  0  0  0  0
   -2.0110   -0.1688   -0.9614 N   0  0  0  0  0  0  0  0  0  0  0  0
   -2.8282    0.3317   -1.2976 H   0  0  0  0  0  0  0  0  0  0  0  0
   -0.7852    0.6616   -0.8156 C   0  0  1  0  0  0  0  0  0  0  0  0
   -1.1145    1.7027   -0.8845 H   0  0  0  0  0  0  0  0  0  0  0  0
   -0.0319    0.5619    0.5350 C   0  0  0  0  0  0  0  0  0  0  0  0
    0.2604   -0.4675    0.7536 H   0  0  0  0  0  0  0  0  0  0  0  0
    0.8969    1.1391    0.4911 H   0  0  0  0  0  0  0  0  0  0  0  0
   -0.8683    1.1361    1.6486 C   0  0  0  0  0  0  0  0  0  0  0  0
   -1.6617    0.4194    2.5099 C   0  0  0  0  0  0  0  0  0  0  0  0
   -1.7525   -0.6659    2.5202 H   0  0  0  0  0  0  0  0  0  0  0  0
   -2.3019    1.3297    3.3493 N   0  0  0  0  0  0  0  0  0  0  0  0
   -2.9230    1.0836    4.1170 H   0  0  0  0  0  0  0  0  0  0  0  0
   -1.9262    2.6258    3.0308 C   0  0  0  0  0  0  0  0  0  0  0  0
   -2.2848    3.8600    3.5732 C   0  0  0  0  0  0  0  0  0  0  0  0
   -2.9818    3.9111    4.4023 H   0  0  0  0  0  0  0  0  0  0  0  0
   -1.7315    5.0303    3.0336 C   0  0  0  0  0  0  0  0  0  0  0  0
   -2.0008    5.9978    3.4466 H   0  0  0  0  0  0  0  0  0  0  0  0
   -0.8267    4.9532    1.9634 C   0  0  0  0  0  0  0  0  0  0  0  0
   -0.3957    5.8605    1.5509 H   0  0  0  0  0  0  0  0  0  0  0  0
   -0.4709    3.7073    1.4278 C   0  0  0  0  0  0  0  0  0  0  0  0
    0.2354    3.6399    0.6062 H   0  0  0  0  0  0  0  0  0  0  0  0
   -1.0303    2.5466    1.9709 C   0  0  0  0  0  0  0  0  0  0  0  0
    0.1613    0.4751   -2.0270 C   0  0  0  0  0  0  0  0  0  0  0  0
    1.3570    0.7282   -1.9547 O   0  0  0  0  0  0  0  0  0  0  0  0
   -0.3668    0.1726   -3.2705 N   0  0  0  0  0  0  0  0  0  0  0  0
   -1.3277   -0.1523   -3.2798 H   0  0  0  0  0  0  0  0  0  0  0  0
    0.4572   -0.0447   -4.4540 C   0  0  0  0  0  0  0  0  0  0  0  0
    1.1399   -0.8863   -4.2954 H   0  0  0  0  0  0  0  0  0  0  0  0
   -0.1745   -0.2680   -5.3191 H   0  0  0  0  0  0  0  0  0  0  0  0
    1.0469    0.8499   -4.6808 H   0  0  0  0  0  0  0  0  0  0  0  0
  1  2  1  0  0  0  0
  2  3  1  0  0  0  0
  2  4  1  0  0  0  0
  2  5  1  0  0  0  0
  5  6  2  0  0  0  0
  5  7  1  0  0  0  0
  7  8  1  0  0  0  0
  7  9  1  0  0  0  0
  9 10  1  0  0  0  0
  9 11  1  0  0  0  0
  9 29  1  0  0  0  0
 11 12  1  0  0  0  0
 11 13  1  0  0  0  0
 11 14  1  0  0  0  0
 14 15  2  0  0  0  0
 14 28  1  0  0  0  0
 15 16  1  0  0  0  0
 15 17  1  0  0  0  0
 17 18  1  0  0  0  0
 17 19  1  0  0  0  0
 19 20  1  0  0  0  0
 19 28  2  0  0  0  0
 20 21  1  0  0  0  0
 20 22  2  0  0  0  0
 22 23  1  0  0  0  0
 22 24  1  0  0  0  0
 24 25  1  0  0  0  0
 24 26  2  0  0  0  0
 26 27  1  0  0  0  0
 26 28  1  0  0  0  0
 29 30  2  0  0  0  0
 29 31  1  0  0  0  0
 31 32  1  0  0  0  0
 31 33  1  0  0  0  0
 33 34  1  0  0  0  0
 33 35  1  0  0  0  0
 33 36  1  0  0  0  0
M  END
$$$$

  -OEChem-01062216103D

 36 37  0     1  0  0  0  0  0999 V2000
   -3.8728   -2.7423    0.2453 H   0  0  0  0  0  0  0  0  0  0  0  0
   -3.7623   -1.8292   -0.3471 C   0  0  0  0  0  0  0  0  0  0  0  0
   -4.4225   -1.0624    0.0655 H   0  0  0  0  0  0  0  0  0  0  0  0
   -4.0577   -2.0417   -1.3774 H   0  0  0  0  0  0  0  0  0  0  0  0
   -2.3226   -1.3510   -0.3087 C   0  0  0  0  0  0  0  0  0  0  0  0
   -1.4933   -2.0435    0.2520 O   0  0  0  0  0  0  0  0  0  0  0  0
   -2.0012   -0.1735   -0.9592 N   0  0  0  0  0  0  0  0  0  0  0  0
   -2.8155    0.3177   -1.3133 H   0  0  0  0  0  0  0  0  0  0  0  0
   -0.7758    0.6561   -0.8132 C   0  0  1  0  0  0  0  0  0  0  0  0
   -1.1042    1.6974   -0.8808 H   0  0  0  0  0  0  0  0  0  0  0  0
   -0.0224    0.5614    0.5364 C   0  0  0  0  0  0  0  0  0  0  0  0
    0.2699   -0.4673    0.7581 H   0  0  0  0  0  0  0  0  0  0  0  0
    0.9063    1.1387    0.4875 H   0  0  0  0  0  0  0  0  0  0  0  0
   -0.8610    1.1402    1.6463 C   0  0  0  0  0  0  0  0  0  0  0  0
   -1.6547    0.4246    2.5081 C   0  0  0  0  0  0  0  0  0  0  0  0
   -1.7448   -0.6608    2.5191 H   0  0  0  0  0  0  0  0  0  0  0  0
   -2.2980    1.3354    3.3443 N   0  0  0  0  0  0  0  0  0  0  0  0
   -2.9194    1.0895    4.1116 H   0  0  0  0  0  0  0  0  0  0  0  0
   -1.9247    2.6313    3.0234 C   0  0  0  0  0  0  0  0  0  0  0  0
   -2.2864    3.8660    3.5629 C   0  0  0  0  0  0  0  0  0  0  0  0
   -2.9856    3.9174    4.3900 H   0  0  0  0  0  0  0  0  0  0  0  0
   -1.7322    5.0361    3.0238 C   0  0  0  0  0  0  0  0  0  0  0  0
   -2.0027    6.0039    3.4358 H   0  0  0  0  0  0  0  0  0  0  0  0
   -0.8244    4.9588    1.9560 C   0  0  0  0  0  0  0  0  0  0  0  0
   -0.3928    5.8663    1.5447 H   0  0  0  0  0  0  0  0  0  0  0  0
   -0.4666    3.7125    1.4224 C   0  0  0  0  0  0  0  0  0  0  0  0
    0.2418    3.6454    0.6030 H   0  0  0  0  0  0  0  0  0  0  0  0
   -1.0260    2.5514    1.9653 C   0  0  0  0  0  0  0  0  0  0  0  0
    0.1635    0.4676   -2.0294 C   0  0  0  0  0  0  0  0  0  0  0  0
    1.3822    0.4368   -1.9148 O   0  0  0  0  0  0  0  0  0  0  0  0
   -0.3713    0.4798   -3.3066 N   0  0  0  0  0  0  0  0  0  0  0  0
   -1.3804    0.4133   -3.3791 H   0  0  0  0  0  0  0  0  0  0  0  0
    0.4317    0.2979   -4.5101 C   0  0  0  0  0  0  0  0  0  0  0  0
    0.9287   -0.6778   -4.4954 H   0  0  0  0  0  0  0  0  0  0  0  0
   -0.2033    0.3500   -5.3996 H   0  0  0  0  0  0  0  0  0  0  0  0
    1.1939    1.0807   -4.5851 H   0  0  0  0  0  0  0  0  0  0  0  0
  1  2  1  0  0  0  0
  2  3  1  0  0  0  0
  2  4  1  0  0  0  0
  2  5  1  0  0  0  0
  5  6  2  0  0  0  0
  5  7  1  0  0  0  0
  7  8  1  0  0  0  0
  7  9  1  0  0  0  0
  9 10  1  0  0  0  0
  9 11  1  0  0  0  0
  9 29  1  0  0  0  0
 11 12  1  0  0  0  0
 11 13  1  0  0  0  0
 11 14  1  0  0  0  0
 14 15  2  0  0  0  0
 14 28  1  0  0  0  0
 15 16  1  0  0  0  0
 15 17  1  0  0  0  0
 17 18  1  0  0  0  0
 17 19  1  0  0  0  0
 19 20  1  0  0  0  0
 19 28  2  0  0  0  0
 20 21  1  0  0  0  0
 20 22  2  0  0  0  0
 22 23  1  0  0  0  0
 22 24  1  0  0  0  0
 24 25  1  0  0  0  0
 24 26  2  0  0  0  0
 26 27  1  0  0  0  0
 26 28  1  0  0  0  0
 29 30  2  0  0  0  0
 29 31  1  0  0  0  0
 31 32  1  0  0  0  0
 31 33  1  0  0  0  0
 33 34  1  0  0  0  0
 33 35  1  0  0  0  0
 33 36  1  0  0  0  0
M  END
$$$$

  -OEChem-01062216103D

 36 37  0     1  0  0  0  0  0999 V2000
   -3.8931   -2.7825    0.1678 H   0  0  0  0  0  0  0  0  0  0  0  0
   -3.7614   -1.8842   -0.4421 C   0  0  0  0  0  0  0  0  0  0  0  0
   -4.4801   -1.1299   -0.1131 H   0  0  0  0  0  0  0  0  0  0  0  0
   -3.9582   -2.1379   -1.4866 H   0  0  0  0  0  0  0  0  0  0  0  0
   -2.3468   -1.3552   -0.2951 C   0  0  0  0  0  0  0  0  0  0  0  0
   -1.5498   -2.0057    0.3557 O   0  0  0  0  0  0  0  0  0  0  0  0
   -2.0163   -0.1781   -0.9427 N   0  0  0  0  0  0  0  0  0  0  0  0
   -2.8050    0.2673   -1.3992 H   0  0  0  0  0  0  0  0  0  0  0  0
   -0.7926    0.6534   -0.8027 C   0  0  1  0  0  0  0  0  0  0  0  0
   -1.1240    1.6939   -0.8665 H   0  0  0  0  0  0  0  0  0  0  0  0
   -0.0237    0.5685    0.5379 C   0  0  0  0  0  0  0  0  0  0  0  0
    0.2732   -0.4593    0.7594 H   0  0  0  0  0  0  0  0  0  0  0  0
    0.9035    1.1462    0.4699 H   0  0  0  0  0  0  0  0  0  0  0  0
   -0.8497    1.1483    1.6566 C   0  0  0  0  0  0  0  0  0  0  0  0
   -1.6305    0.4373    2.5338 C   0  0  0  0  0  0  0  0  0  0  0  0
   -1.7198   -0.6481    2.5534 H   0  0  0  0  0  0  0  0  0  0  0  0
   -2.2658    1.3534    3.3705 N   0  0  0  0  0  0  0  0  0  0  0  0
   -2.8810    1.1113    4.1439 H   0  0  0  0  0  0  0  0  0  0  0  0
   -1.8995    2.6476    3.0353 C   0  0  0  0  0  0  0  0  0  0  0  0
   -2.2600    3.8854    3.5677 C   0  0  0  0  0  0  0  0  0  0  0  0
   -2.9531    3.9411    4.3995 H   0  0  0  0  0  0  0  0  0  0  0  0
   -1.7129    5.0527    3.0157 C   0  0  0  0  0  0  0  0  0  0  0  0
   -1.9833    6.0228    3.4222 H   0  0  0  0  0  0  0  0  0  0  0  0
   -0.8117    4.9692    1.9427 C   0  0  0  0  0  0  0  0  0  0  0  0
   -0.3840    5.8743    1.5222 H   0  0  0  0  0  0  0  0  0  0  0  0
   -0.4561    3.7196    1.4155 C   0  0  0  0  0  0  0  0  0  0  0  0
    0.2475    3.6472    0.5926 H   0  0  0  0  0  0  0  0  0  0  0  0
   -1.0109    2.5616    1.9695 C   0  0  0  0  0  0  0  0  0  0  0  0
    0.1386    0.4603   -2.0228 C   0  0  0  0  0  0  0  0  0  0  0  0
    1.3126    0.1334   -1.9063 O   0  0  0  0  0  0  0  0  0  0  0  0
   -0.3295    0.7744   -3.2879 N   0  0  0  0  0  0  0  0  0  0  0  0
   -1.3080    1.0248   -3.3771 H   0  0  0  0  0  0  0  0  0  0  0  0
    0.4780    0.6444   -4.4952 C   0  0  0  0  0  0  0  0  0  0  0  0
    0.7934   -0.3949   -4.6345 H   0  0  0  0  0  0  0  0  0  0  0  0
   -0.0998    0.9517   -5.3721 H   0  0  0  0  0  0  0  0  0  0  0  0
    1.3696    1.2770   -4.4306 H   0  0  0  0  0  0  0  0  0  0  0  0
  1  2  1  0  0  0  0
  2  3  1  0  0  0  0
  2  4  1  0  0  0  0
  2  5  1  0  0  0  0
  5  6  2  0  0  0  0
  5  7  1  0  0  0  0
  7  8  1  0  0  0  0
  7  9  1  0  0  0  0
  9 10  1  0  0  0  0
  9 11  1  0  0  0  0
  9 29  1  0  0  0  0
 11 12  1  0  0  0  0
 11 13  1  0  0  0  0
 11 14  1  0  0  0  0
 14 15  2  0  0  0  0
 14 28  1  0  0  0  0
 15 16  1  0  0  0  0
 15 17  1  0  0  0  0
 17 18  1  0  0  0  0
 17 19  1  0  0  0  0
 19 20  1  0  0  0  0
 19 28  2  0  0  0  0
 20 21  1  0  0  0  0
 20 22  2  0  0  0  0
 22 23  1  0  0  0  0
 22 24  1  0  0  0  0
 24 25  1  0  0  0  0
 24 26  2  0  0  0  0
 26 27  1  0  0  0  0
 26 28  1  0  0  0  0
 29 30  2  0  0  0  0
 29 31  1  0  0  0  0
 31 32  1  0  0  0  0
 31 33  1  0  0  0  0
 33 34  1  0  0  0  0
 33 35  1  0  0  0  0
 33 36  1  0  0  0  0
M  END
$$$$

  -OEChem-01062216103D

 36 37  0     1  0  0  0  0  0999 V2000
   -3.9045   -2.8293    0.0857 H   0  0  0  0  0  0  0  0  0  0  0  0
   -3.7616   -1.9316   -0.5226 C   0  0  0  0  0  0  0  0  0  0  0  0
   -4.5229   -1.1974   -0.2482 H   0  0  0  0  0  0  0  0  0  0  0  0
   -3.8820   -2.1986   -1.5754 H   0  0  0  0  0  0  0  0  0  0  0  0
   -2.3765   -1.3570   -0.2894 C   0  0  0  0  0  0  0  0  0  0  0  0
   -1.6105   -1.9694    0.4318 O   0  0  0  0  0  0  0  0  0  0  0  0
   -2.0407   -0.1801   -0.9347 N   0  0  0  0  0  0  0  0  0  0  0  0
   -2.7937    0.2135   -1.4885 H   0  0  0  0  0  0  0  0  0  0  0  0
   -0.8184    0.6530   -0.7999 C   0  0  1  0  0  0  0  0  0  0  0  0
   -1.1563    1.6915   -0.8586 H   0  0  0  0  0  0  0  0  0  0  0  0
   -0.0336    0.5780    0.5303 C   0  0  0  0  0  0  0  0  0  0  0  0
    0.2630   -0.4501    0.7527 H   0  0  0  0  0  0  0  0  0  0  0  0
    0.8940    1.1530    0.4433 H   0  0  0  0  0  0  0  0  0  0  0  0
   -0.8453    1.1592    1.6598 C   0  0  0  0  0  0  0  0  0  0  0  0
   -1.6114    0.4524    2.5535 C   0  0  0  0  0  0  0  0  0  0  0  0
   -1.7016   -0.6326    2.5806 H   0  0  0  0  0  0  0  0  0  0  0  0
   -2.2325    1.3719    3.3970 N   0  0  0  0  0  0  0  0  0  0  0  0
   -2.8370    1.1323    4.1796 H   0  0  0  0  0  0  0  0  0  0  0  0
   -1.8718    2.6645    3.0507 C   0  0  0  0  0  0  0  0  0  0  0  0
   -2.2238    3.9040    3.5850 C   0  0  0  0  0  0  0  0  0  0  0  0
   -2.9034    3.9618    4.4279 H   0  0  0  0  0  0  0  0  0  0  0  0
   -1.6862    5.0696    3.0204 C   0  0  0  0  0  0  0  0  0  0  0  0
   -1.9495    6.0407    3.4288 H   0  0  0  0  0  0  0  0  0  0  0  0
   -0.8038    4.9825    1.9323 C   0  0  0  0  0  0  0  0  0  0  0  0
   -0.3831    5.8864    1.5020 H   0  0  0  0  0  0  0  0  0  0  0  0
   -0.4574    3.7309    1.4029 C   0  0  0  0  0  0  0  0  0  0  0  0
    0.2316    3.6566    0.5680 H   0  0  0  0  0  0  0  0  0  0  0  0
   -1.0018    2.5743    1.9702 C   0  0  0  0  0  0  0  0  0  0  0  0
    0.1088    0.4612   -2.0207 C   0  0  0  0  0  0  0  0  0  0  0  0
    1.1692   -0.1450   -1.9459 O   0  0  0  0  0  0  0  0  0  0  0  0
   -0.2275    1.0530   -3.2270 N   0  0  0  0  0  0  0  0  0  0  0  0
   -1.0915    1.5830   -3.2701 H   0  0  0  0  0  0  0  0  0  0  0  0
    0.6029    0.9589   -4.4221 C   0  0  0  0  0  0  0  0  0  0  0  0
    0.7348   -0.0879   -4.7156 H   0  0  0  0  0  0  0  0  0  0  0  0
    0.1331    1.4936   -5.2530 H   0  0  0  0  0  0  0  0  0  0  0  0
    1.5884    1.4004   -4.2396 H   0  0  0  0  0  0  0  0  0  0  0  0
  1  2  1  0  0  0  0
  2  3  1  0  0  0  0
  2  4  1  0  0  0  0
  2  5  1  0  0  0  0
  5  6  2  0  0  0  0
  5  7  1  0  0  0  0
  7  8  1  0  0  0  0
  7  9  1  0  0  0  0
  9 10  1  0  0  0  0
  9 11  1  0  0  0  0
  9 29  1  0  0  0  0
 11 12  1  0  0  0  0
 11 13  1  0  0  0  0
 11 14  1  0  0  0  0
 14 15  2  0  0  0  0
 14 28  1  0  0  0  0
 15 16  1  0  0  0  0
 15 17  1  0  0  0  0
 17 18  1  0  0  0  0
 17 19  1  0  0  0  0
 19 20  1  0  0  0  0
 19 28  2  0  0  0  0
 20 21  1  0  0  0  0
 20 22  2  0  0  0  0
 22 23  1  0  0  0  0
 22 24  1  0  0  0  0
 24 25  1  0  0  0  0
 24 26  2  0  0  0  0
 26 27  1  0  0  0  0
 26 28  1  0  0  0  0
 29 30  2  0  0  0  0
 29 31  1  0  0  0  0
 31 32  1  0  0  0  0
 31 33  1  0  0  0  0
 33 34  1  0  0  0  0
 33 35  1  0  0  0  0
 33 36  1  0  0  0  0
M  END
$$$$

  -OEChem-01062216103D

 36 37  0     1  0  0  0  0  0999 V2000
   -3.9089   -2.8554    0.0328 H   0  0  0  0  0  0  0  0  0  0  0  0
   -3.7570   -1.9624   -0.5806 C   0  0  0  0  0  0  0  0  0  0  0  0
   -4.5465   -1.2421   -0.3531 H   0  0  0  0  0  0  0  0  0  0  0  0
   -3.8212   -2.2461   -1.6337 H   0  0  0  0  0  0  0  0  0  0  0  0
   -2.3981   -1.3521   -0.2917 C   0  0  0  0  0  0  0  0  0  0  0  0
   -1.6547   -1.9367    0.4753 O   0  0  0  0  0  0  0  0  0  0  0  0
   -2.0634   -0.1744   -0.9368 N   0  0  0  0  0  0  0  0  0  0  0  0
   -2.7833    0.1745   -1.5603 H   0  0  0  0  0  0  0  0  0  0  0  0
   -0.8445    0.6620   -0.8047 C   0  0  1  0  0  0  0  0  0  0  0  0
   -1.1917    1.6977   -0.8589 H   0  0  0  0  0  0  0  0  0  0  0  0
   -0.0472    0.5942    0.5173 C   0  0  0  0  0  0  0  0  0  0  0  0
    0.2530   -0.4336    0.7374 H   0  0  0  0  0  0  0  0  0  0  0  0
    0.8785    1.1695    0.4186 H   0  0  0  0  0  0  0  0  0  0  0  0
   -0.8476    1.1725    1.6572 C   0  0  0  0  0  0  0  0  0  0  0  0
   -1.5999    0.4659    2.5628 C   0  0  0  0  0  0  0  0  0  0  0  0
   -1.6901   -0.6188    2.5909 H   0  0  0  0  0  0  0  0  0  0  0  0
   -2.2065    1.3841    3.4177 N   0  0  0  0  0  0  0  0  0  0  0  0
   -2.8019    1.1430    4.2067 H   0  0  0  0  0  0  0  0  0  0  0  0
   -1.8496    2.6768    3.0687 C   0  0  0  0  0  0  0  0  0  0  0  0
   -2.1905    3.9155    3.6123 C   0  0  0  0  0  0  0  0  0  0  0  0
   -2.8544    3.9722    4.4678 H   0  0  0  0  0  0  0  0  0  0  0  0
   -1.6621    5.0816    3.0403 C   0  0  0  0  0  0  0  0  0  0  0  0
   -1.9178    6.0522    3.4546 H   0  0  0  0  0  0  0  0  0  0  0  0
   -0.7984    4.9960    1.9373 C   0  0  0  0  0  0  0  0  0  0  0  0
   -0.3849    5.9010    1.5024 H   0  0  0  0  0  0  0  0  0  0  0  0
   -0.4612    3.7454    1.3999 C   0  0  0  0  0  0  0  0  0  0  0  0
    0.2146    3.6734    0.5543 H   0  0  0  0  0  0  0  0  0  0  0  0
   -0.9975    2.5876    1.9732 C   0  0  0  0  0  0  0  0  0  0  0  0
    0.0845    0.4762   -2.0231 C   0  0  0  0  0  0  0  0  0  0  0  0
    0.9731   -0.3641   -2.0353 O   0  0  0  0  0  0  0  0  0  0  0  0
   -0.0642    1.2985   -3.1274 N   0  0  0  0  0  0  0  0  0  0  0  0
   -0.7792    2.0179   -3.0894 H   0  0  0  0  0  0  0  0  0  0  0  0
    0.7891    1.2144   -4.3071 C   0  0  0  0  0  0  0  0  0  0  0  0
    0.7304    0.2154   -4.7521 H   0  0  0  0  0  0  0  0  0  0  0  0
    0.4715    1.9450   -5.0571 H   0  0  0  0  0  0  0  0  0  0  0  0
    1.8313    1.4215   -4.0424 H   0  0  0  0  0  0  0  0  0  0  0  0
  1  2  1  0  0  0  0
  2  3  1  0  0  0  0
  2  4  1  0  0  0  0
  2  5  1  0  0  0  0
  5  6  2  0  0  0  0
  5  7  1  0  0  0  0
  7  8  1  0  0  0  0
  7  9  1  0  0  0  0
  9 10  1  0  0  0  0
  9 11  1  0  0  0  0
  9 29  1  0  0  0  0
 11 12  1  0  0  0  0
 11 13  1  0  0  0  0
 11 14  1  0  0  0  0
 14 15  2  0  0  0  0
 14 28  1  0  0  0  0
 15 16  1  0  0  0  0
 15 17  1  0  0  0  0
 17 18  1  0  0  0  0
 17 19  1  0  0  0  0
 19 20  1  0  0  0  0
 19 28  2  0  0  0  0
 20 21  1  0  0  0  0
 20 22  2  0  0  0  0
 22 23  1  0  0  0  0
 22 24  1  0  0  0  0
 24 25  1  0  0  0  0
 24 26  2  0  0  0  0
 26 27  1  0  0  0  0
 26 28  1  0  0  0  0
 29 30  2  0  0  0  0
 29 31  1  0  0  0  0
 31 32  1  0  0  0  0
 31 33  1  0  0  0  0
 33 34  1  0  0  0  0
 33 35  1  0  0  0  0
 33 36  1  0  0  0  0
M  END
$$$$

  -OEChem-01062216103D

 36 37  0     1  0  0  0  0  0999 V2000
   -3.9062   -2.8789   -0.0148 H   0  0  0  0  0  0  0  0  0  0  0  0
   -3.7516   -1.9859   -0.6273 C   0  0  0  0  0  0  0  0  0  0  0  0
   -4.5629   -1.2811   -0.4308 H   0  0  0  0  0  0  0  0  0  0  0  0
   -3.7733   -2.2755   -1.6807 H   0  0  0  0  0  0  0  0  0  0  0  0
   -2.4163   -1.3461   -0.2947 C   0  0  0  0  0  0  0  0  0  0  0  0
   -1.6920   -1.9067    0.5083 O   0  0  0  0  0  0  0  0  0  0  0  0
   -2.0843   -0.1658   -0.9363 N   0  0  0  0  0  0  0  0  0  0  0  0
   -2.7735    0.1470   -1.6115 H   0  0  0  0  0  0  0  0  0  0  0  0
   -0.8658    0.6701   -0.8038 C   0  0  1  0  0  0  0  0  0  0  0  0
   -1.2224    1.7028   -0.8510 H   0  0  0  0  0  0  0  0  0  0  0  0
   -0.0570    0.6037    0.5099 C   0  0  0  0  0  0  0  0  0  0  0  0
    0.2449   -0.4249    0.7245 H   0  0  0  0  0  0  0  0  0  0  0  0
    0.8675    1.1797    0.4035 H   0  0  0  0  0  0  0  0  0  0  0  0
   -0.8459    1.1785    1.6598 C   0  0  0  0  0  0  0  0  0  0  0  0
   -1.5879    0.4737    2.5753 C   0  0  0  0  0  0  0  0  0  0  0  0
   -1.6798   -0.6107    2.6076 H   0  0  0  0  0  0  0  0  0  0  0  0
   -2.1833    1.3937    3.4361 N   0  0  0  0  0  0  0  0  0  0  0  0
   -2.7739    1.1539    4.2291 H   0  0  0  0  0  0  0  0  0  0  0  0
   -1.8302    2.6855    3.0812 C   0  0  0  0  0  0  0  0  0  0  0  0
   -2.1650    3.9248    3.6270 C   0  0  0  0  0  0  0  0  0  0  0  0
   -2.8195    3.9824    4.4897 H   0  0  0  0  0  0  0  0  0  0  0  0
   -1.6422    5.0902    3.0486 C   0  0  0  0  0  0  0  0  0  0  0  0
   -1.8931    6.0612    3.4650 H   0  0  0  0  0  0  0  0  0  0  0  0
   -0.7903    5.0030    1.9367 C   0  0  0  0  0  0  0  0  0  0  0  0
   -0.3813    5.9074    1.4967 H   0  0  0  0  0  0  0  0  0  0  0  0
   -0.4598    3.7517    1.3967 C   0  0  0  0  0  0  0  0  0  0  0  0
    0.2063    3.6791    0.5436 H   0  0  0  0  0  0  0  0  0  0  0  0
   -0.9907    2.5944    1.9765 C   0  0  0  0  0  0  0  0  0  0  0  0
    0.0675    0.4974   -2.0198 C   0  0  0  0  0  0  0  0  0  0  0  0
    0.7309   -0.5177   -2.1769 O   0  0  0  0  0  0  0  0  0  0  0  0
    0.1446    1.4963   -2.9758 N   0  0  0  0  0  0  0  0  0  0  0  0
   -0.3905    2.3447   -2.8192 H   0  0  0  0  0  0  0  0  0  0  0  0
    1.0127    1.4177   -4.1450 C   0  0  0  0  0  0  0  0  0  0  0  0
    0.7673    0.5359   -4.7464 H   0  0  0  0  0  0  0  0  0  0  0  0
    0.8873    2.3071   -4.7700 H   0  0  0  0  0  0  0  0  0  0  0  0
    2.0624    1.3547   -3.8393 H   0  0  0  0  0  0  0  0  0  0  0  0
  1  2  1  0  0  0  0
  2  3  1  0  0  0  0
  2  4  1  0  0  0  0
  2  5  1  0  0  0  0
  5  6  2  0  0  0  0
  5  7  1  0  0  0  0
  7  8  1  0  0  0  0
  7  9  1  0  0  0  0
  9 10  1  0  0  0  0
  9 11  1  0  0  0  0
  9 29  1  0  0  0  0
 11 12  1  0  0  0  0
 11 13  1  0  0  0  0
 11 14  1  0  0  0  0
 14 15  2  0  0  0  0
 14 28  1  0  0  0  0
 15 16  1  0  0  0  0
 15 17  1  0  0  0  0
 17 18  1  0  0  0  0
 17 19  1  0  0  0  0
 19 20  1  0  0  0  0
 19 28  2  0  0  0  0
 20 21  1  0  0  0  0
 20 22  2  0  0  0  0
 22 23  1  0  0  0  0
 22 24  1  0  0  0  0
 24 25  1  0  0  0  0
 24 26  2  0  0  0  0
 26 27  1  0  0  0  0
 26 28  1  0  0  0  0
 29 30  2  0  0  0  0
 29 31  1  0  0  0  0
 31 32  1  0  0  0  0
 31 33  1  0  0  0  0
 33 34  1  0  0  0  0
 33 35  1  0  0  0  0
 33 36  1  0  0  0  0
M  END
$$$$

  -OEChem-01062216103D

 36 37  0     1  0  0  0  0  0999 V2000
   -3.8972   -2.9037   -0.0692 H   0  0  0  0  0  0  0  0  0  0  0  0
   -3.7417   -2.0060   -0.6744 C   0  0  0  0  0  0  0  0  0  0  0  0
   -4.5743   -1.3195   -0.5039 H   0  0  0  0  0  0  0  0  0  0  0  0
   -3.7222   -2.2927   -1.7287 H   0  0  0  0  0  0  0  0  0  0  0  0
   -2.4323   -1.3385   -0.2961 C   0  0  0  0  0  0  0  0  0  0  0  0
   -1.7281   -1.8793    0.5383 O   0  0  0  0  0  0  0  0  0  0  0  0
   -2.1004   -0.1550   -0.9310 N   0  0  0  0  0  0  0  0  0  0  0  0
   -2.7547    0.1239   -1.6543 H   0  0  0  0  0  0  0  0  0  0  0  0
   -0.8789    0.6761   -0.7956 C   0  0  1  0  0  0  0  0  0  0  0  0
   -1.2399    1.7076   -0.8380 H   0  0  0  0  0  0  0  0  0  0  0  0
   -0.0623    0.6074    0.5123 C   0  0  0  0  0  0  0  0  0  0  0  0
    0.2373   -0.4229    0.7220 H   0  0  0  0  0  0  0  0  0  0  0  0
    0.8632    1.1808    0.4010 H   0  0  0  0  0  0  0  0  0  0  0  0
   -0.8417    1.1816    1.6693 C   0  0  0  0  0  0  0  0  0  0  0  0
   -1.5791    0.4813    2.5921 C   0  0  0  0  0  0  0  0  0  0  0  0
   -1.6753   -0.6023    2.6282 H   0  0  0  0  0  0  0  0  0  0  0  0
   -2.1659    1.4050    3.4549 N   0  0  0  0  0  0  0  0  0  0  0  0
   -2.7569    1.1691    4.2488 H   0  0  0  0  0  0  0  0  0  0  0  0
   -1.8131    2.6947    3.0935 C   0  0  0  0  0  0  0  0  0  0  0  0
   -2.1440    3.9358    3.6373 C   0  0  0  0  0  0  0  0  0  0  0  0
   -2.7938    3.9965    4.5031 H   0  0  0  0  0  0  0  0  0  0  0  0
   -1.6242    5.0989    3.0519 C   0  0  0  0  0  0  0  0  0  0  0  0
   -1.8720    6.0715    3.4673 H   0  0  0  0  0  0  0  0  0  0  0  0
   -0.7804    5.0074    1.9341 C   0  0  0  0  0  0  0  0  0  0  0  0
   -0.3751    5.9103    1.4877 H   0  0  0  0  0  0  0  0  0  0  0  0
   -0.4547    3.7540    1.3962 C   0  0  0  0  0  0  0  0  0  0  0  0
    0.2042    3.6781    0.5384 H   0  0  0  0  0  0  0  0  0  0  0  0
   -0.9816    2.5989    1.9836 C   0  0  0  0  0  0  0  0  0  0  0  0
    0.0565    0.5152   -2.0111 C   0  0  0  0  0  0  0  0  0  0  0  0
    0.4602   -0.5848   -2.3617 O   0  0  0  0  0  0  0  0  0  0  0  0
    0.3796    1.6187   -2.7823 N   0  0  0  0  0  0  0  0  0  0  0  0
    0.0478    2.5266   -2.4716 H   0  0  0  0  0  0  0  0  0  0  0  0
    1.2524    1.5496   -3.9483 C   0  0  0  0  0  0  0  0  0  0  0  0
    0.8485    0.8527   -4.6902 H   0  0  0  0  0  0  0  0  0  0  0  0
    1.3400    2.5358   -4.4143 H   0  0  0  0  0  0  0  0  0  0  0  0
    2.2531    1.2132   -3.6572 H   0  0  0  0  0  0  0  0  0  0  0  0
  1  2  1  0  0  0  0
  2  3  1  0  0  0  0
  2  4  1  0  0  0  0
  2  5  1  0  0  0  0
  5  6  2  0  0  0  0
  5  7  1  0  0  0  0
  7  8  1  0  0  0  0
  7  9  1  0  0  0  0
  9 10  1  0  0  0  0
  9 11  1  0  0  0  0
  9 29  1  0  0  0  0
 11 12  1  0  0  0  0
 11 13  1  0  0  0  0
 11 14  1  0  0  0  0
 14 15  2  0  0  0  0
 14 28  1  0  0  0  0
 15 16  1  0  0  0  0
 15 17  1  0  0  0  0
 17 18  1  0  0  0  0
 17 19  1  0  0  0  0
 19 20  1  0  0  0  0
 19 28  2  0  0  0  0
 20 21  1  0  0  0  0
 20 22  2  0  0  0  0
 22 23  1  0  0  0  0
 22 24  1  0  0  0  0
 24 25  1  0  0  0  0
 24 26  2  0  0  0  0
 26 27  1  0  0  0  0
 26 28  1  0  0  0  0
 29 30  2  0  0  0  0
 29 31  1  0  0  0  0
 31 32  1  0  0  0  0
 31 33  1  0  0  0  0
 33 34  1  0  0  0  0
 33 35  1  0  0  0  0
 33 36  1  0  0  0  0
M  END
$$$$

  -OEChem-01062216103D

 36 37  0     1  0  0  0  0  0999 V2000
   -3.8681   -2.9375   -0.1060 H   0  0  0  0  0  0  0  0  0  0  0  0
   -3.7218   -2.0316   -0.7013 C   0  0  0  0  0  0  0  0  0  0  0  0
   -4.5708   -1.3634   -0.5386 H   0  0  0  0  0  0  0  0  0  0  0  0
   -3.6803   -2.3091   -1.7574 H   0  0  0  0  0  0  0  0  0  0  0  0
   -2.4323   -1.3410   -0.2969 C   0  0  0  0  0  0  0  0  0  0  0  0
   -1.7347   -1.8701    0.5509 O   0  0  0  0  0  0  0  0  0  0  0  0
   -2.1036   -0.1550   -0.9283 N   0  0  0  0  0  0  0  0  0  0  0  0
   -2.7252    0.0916   -1.6913 H   0  0  0  0  0  0  0  0  0  0  0  0
   -0.8816    0.6748   -0.7901 C   0  0  1  0  0  0  0  0  0  0  0  0
   -1.2465    1.7048   -0.8370 H   0  0  0  0  0  0  0  0  0  0  0  0
   -0.0711    0.6101    0.5227 C   0  0  0  0  0  0  0  0  0  0  0  0
    0.2276   -0.4192    0.7383 H   0  0  0  0  0  0  0  0  0  0  0  0
    0.8550    1.1831    0.4150 H   0  0  0  0  0  0  0  0  0  0  0  0
   -0.8545    1.1902    1.6745 C   0  0  0  0  0  0  0  0  0  0  0  0
   -1.5975    0.4944    2.5967 C   0  0  0  0  0  0  0  0  0  0  0  0
   -1.7020   -0.5885    2.6326 H   0  0  0  0  0  0  0  0  0  0  0  0
   -2.1808    1.4215    3.4580 N   0  0  0  0  0  0  0  0  0  0  0  0
   -2.7805    1.1895    4.2466 H   0  0  0  0  0  0  0  0  0  0  0  0
   -1.8145    2.7088    3.1010 C   0  0  0  0  0  0  0  0  0  0  0  0
   -2.1340    3.9514    3.6488 C   0  0  0  0  0  0  0  0  0  0  0  0
   -2.7859    4.0153    4.5129 H   0  0  0  0  0  0  0  0  0  0  0  0
   -1.5992    5.1111    3.0706 C   0  0  0  0  0  0  0  0  0  0  0  0
   -1.8375    6.0843    3.4892 H   0  0  0  0  0  0  0  0  0  0  0  0
   -0.7517    5.0150    1.9562 C   0  0  0  0  0  0  0  0  0  0  0  0
   -0.3339    5.9155    1.5162 H   0  0  0  0  0  0  0  0  0  0  0  0
   -0.4381    3.7603    1.4135 C   0  0  0  0  0  0  0  0  0  0  0  0
    0.2238    3.6823    0.5584 H   0  0  0  0  0  0  0  0  0  0  0  0
   -0.9803    2.6081    1.9930 C   0  0  0  0  0  0  0  0  0  0  0  0
    0.0587    0.5241   -2.0043 C   0  0  0  0  0  0  0  0  0  0  0  0
    0.2041   -0.5531   -2.5669 O   0  0  0  0  0  0  0  0  0  0  0  0
    0.6295    1.6497   -2.5732 N   0  0  0  0  0  0  0  0  0  0  0  0
    0.4935    2.5381   -2.1010 H   0  0  0  0  0  0  0  0  0  0  0  0
    1.4898    1.6029   -3.7494 C   0  0  0  0  0  0  0  0  0  0  0  0
    0.9517    1.1754   -4.6021 H   0  0  0  0  0  0  0  0  0  0  0  0
    1.8170    2.6117   -4.0187 H   0  0  0  0  0  0  0  0  0  0  0  0
    2.3773    0.9927   -3.5507 H   0  0  0  0  0  0  0  0  0  0  0  0
  1  2  1  0  0  0  0
  2  3  1  0  0  0  0
  2  4  1  0  0  0  0
  2  5  1  0  0  0  0
  5  6  2  0  0  0  0
  5  7  1  0  0  0  0
  7  8  1  0  0  0  0
  7  9  1  0  0  0  0
  9 10  1  0  0  0  0
  9 11  1  0  0  0  0
  9 29  1  0  0  0  0
 11 12  1  0  0  0  0
 11 13  1  0  0  0  0
 11 14  1  0  0  0  0
 14 15  2  0  0  0  0
 14 28  1  0  0  0  0
 15 16  1  0  0  0  0
 15 17  1  0  0  0  0
 17 18  1  0  0  0  0
 17 19  1  0  0  0  0
 19 20  1  0  0  0  0
 19 28  2  0  0  0  0
 20 21  1  0  0  0  0
 20 22  2  0  0  0  0
 22 23  1  0  0  0  0
 22 24  1  0  0  0  0
 24 25  1  0  0  0  0
 24 26  2  0  0  0  0
 26 27  1  0  0  0  0
 26 28  1  0  0  0  0
 29 30  2  0  0  0  0
 29 31  1  0  0  0  0
 31 32  1  0  0  0  0
 31 33  1  0  0  0  0
 33 34  1  0  0  0  0
 33 35  1  0  0  0  0
 33 36  1  0  0  0  0
M  END
$$$$

  -OEChem-01062216103D

 36 37  0     1  0  0  0  0  0999 V2000
   -3.8572   -2.9412   -0.1277 H   0  0  0  0  0  0  0  0  0  0  0  0
   -3.7102   -2.0321   -0.7176 C   0  0  0  0  0  0  0  0  0  0  0  0
   -4.5659   -1.3705   -0.5634 H   0  0  0  0  0  0  0  0  0  0  0  0
   -3.6534   -2.3056   -1.7741 H   0  0  0  0  0  0  0  0  0  0  0  0
   -2.4316   -1.3327   -0.2946 C   0  0  0  0  0  0  0  0  0  0  0  0
   -1.7376   -1.8612    0.5569 O   0  0  0  0  0  0  0  0  0  0  0  0
   -2.1003   -0.1463   -0.9231 N   0  0  0  0  0  0  0  0  0  0  0  0
   -2.6935    0.0765   -1.7159 H   0  0  0  0  0  0  0  0  0  0  0  0
   -0.8771    0.6819   -0.7835 C   0  0  1  0  0  0  0  0  0  0  0  0
   -1.2386    1.7132   -0.8363 H   0  0  0  0  0  0  0  0  0  0  0  0
   -0.0731    0.6163    0.5346 C   0  0  0  0  0  0  0  0  0  0  0  0
    0.2224   -0.4133    0.7523 H   0  0  0  0  0  0  0  0  0  0  0  0
    0.8545    1.1874    0.4341 H   0  0  0  0  0  0  0  0  0  0  0  0
   -0.8598    1.1992    1.6828 C   0  0  0  0  0  0  0  0  0  0  0  0
   -1.6077    0.5023    2.6003 C   0  0  0  0  0  0  0  0  0  0  0  0
   -1.7159   -0.5803    2.6327 H   0  0  0  0  0  0  0  0  0  0  0  0
   -2.1898    1.4272    3.4643 N   0  0  0  0  0  0  0  0  0  0  0  0
   -2.7923    1.1936    4.2503 H   0  0  0  0  0  0  0  0  0  0  0  0
   -1.8186    2.7145    3.1140 C   0  0  0  0  0  0  0  0  0  0  0  0
   -2.1358    3.9542    3.6690 C   0  0  0  0  0  0  0  0  0  0  0  0
   -2.7901    4.0142    4.5318 H   0  0  0  0  0  0  0  0  0  0  0  0
   -1.5962    5.1160    3.0992 C   0  0  0  0  0  0  0  0  0  0  0  0
   -1.8328    6.0876    3.5230 H   0  0  0  0  0  0  0  0  0  0  0  0
   -0.7472    5.0242    1.9855 C   0  0  0  0  0  0  0  0  0  0  0  0
   -0.3266    5.9264    1.5516 H   0  0  0  0  0  0  0  0  0  0  0  0
   -0.4372    3.7720    1.4351 C   0  0  0  0  0  0  0  0  0  0  0  0
    0.2245    3.6989    0.5799 H   0  0  0  0  0  0  0  0  0  0  0  0
   -0.9827    2.6172    2.0068 C   0  0  0  0  0  0  0  0  0  0  0  0
    0.0620    0.5296   -2.0006 C   0  0  0  0  0  0  0  0  0  0  0  0
   -0.0180   -0.4387   -2.7466 O   0  0  0  0  0  0  0  0  0  0  0  0
    0.8740    1.5848   -2.3799 N   0  0  0  0  0  0  0  0  0  0  0  0
    0.9244    2.3872   -1.7599 H   0  0  0  0  0  0  0  0  0  0  0  0
    1.7356    1.5488   -3.5559 C   0  0  0  0  0  0  0  0  0  0  0  0
    1.1412    1.3920   -4.4622 H   0  0  0  0  0  0  0  0  0  0  0  0
    2.2764    2.4945   -3.6581 H   0  0  0  0  0  0  0  0  0  0  0  0
    2.4677    0.7389   -3.4697 H   0  0  0  0  0  0  0  0  0  0  0  0
  1  2  1  0  0  0  0
  2  3  1  0  0  0  0
  2  4  1  0  0  0  0
  2  5  1  0  0  0  0
  5  6  2  0  0  0  0
  5  7  1  0  0  0  0
  7  8  1  0  0  0  0
  7  9  1  0  0  0  0
  9 10  1  0  0  0  0
  9 11  1  0  0  0  0
  9 29  1  0  0  0  0
 11 12  1  0  0  0  0
 11 13  1  0  0  0  0
 11 14  1  0  0  0  0
 14 15  2  0  0  0  0
 14 28  1  0  0  0  0
 15 16  1  0  0  0  0
 15 17  1  0  0  0  0
 17 18  1  0  0  0  0
 17 19  1  0  0  0  0
 19 20  1  0  0  0  0
 19 28  2  0  0  0  0
 20 21  1  0  0  0  0
 20 22  2  0  0  0  0
 22 23  1  0  0  0  0
 22 24  1  0  0  0  0
 24 25  1  0  0  0  0
 24 26  2  0  0  0  0
 26 27  1  0  0  0  0
 26 28  1  0  0  0  0
 29 30  2  0  0  0  0
 29 31  1  0  0  0  0
 31 32  1  0  0  0  0
 31 33  1  0  0  0  0
 33 34  1  0  0  0  0
 33 35  1  0  0  0  0
 33 36  1  0  0  0  0
M  END
$$$$

  -OEChem-01062216103D

 36 37  0     1  0  0  0  0  0999 V2000
   -3.8539   -2.9294   -0.1491 H   0  0  0  0  0  0  0  0  0  0  0  0
   -3.7020   -2.0160   -0.7311 C   0  0  0  0  0  0  0  0  0  0  0  0
   -4.5602   -1.3568   -0.5810 H   0  0  0  0  0  0  0  0  0  0  0  0
   -3.6335   -2.2803   -1.7892 H   0  0  0  0  0  0  0  0  0  0  0  0
   -2.4287   -1.3181   -0.2907 C   0  0  0  0  0  0  0  0  0  0  0  0
   -1.7362   -1.8555    0.5567 O   0  0  0  0  0  0  0  0  0  0  0  0
   -2.0928   -0.1286   -0.9097 N   0  0  0  0  0  0  0  0  0  0  0  0
   -2.6682    0.0858   -1.7187 H   0  0  0  0  0  0  0  0  0  0  0  0
   -0.8668    0.6951   -0.7676 C   0  0  1  0  0  0  0  0  0  0  0  0
   -1.2193    1.7294   -0.8177 H   0  0  0  0  0  0  0  0  0  0  0  0
   -0.0682    0.6179    0.5553 C   0  0  0  0  0  0  0  0  0  0  0  0
    0.2196   -0.4147    0.7696 H   0  0  0  0  0  0  0  0  0  0  0  0
    0.8638    1.1832    0.4691 H   0  0  0  0  0  0  0  0  0  0  0  0
   -0.8567    1.1986    1.7032 C   0  0  0  0  0  0  0  0  0  0  0  0
   -1.6120    0.5007    2.6138 C   0  0  0  0  0  0  0  0  0  0  0  0
   -1.7236   -0.5817    2.6413 H   0  0  0  0  0  0  0  0  0  0  0  0
   -2.1950    1.4243    3.4785 N   0  0  0  0  0  0  0  0  0  0  0  0
   -2.8043    1.1903    4.2592 H   0  0  0  0  0  0  0  0  0  0  0  0
   -1.8225    2.7121    3.1309 C   0  0  0  0  0  0  0  0  0  0  0  0
   -2.1450    3.9510    3.6845 C   0  0  0  0  0  0  0  0  0  0  0  0
   -2.8011    4.0097    4.5458 H   0  0  0  0  0  0  0  0  0  0  0  0
   -1.6094    5.1142    3.1145 C   0  0  0  0  0  0  0  0  0  0  0  0
   -1.8519    6.0852    3.5362 H   0  0  0  0  0  0  0  0  0  0  0  0
   -0.7585    5.0249    2.0022 C   0  0  0  0  0  0  0  0  0  0  0  0
   -0.3428    5.9287    1.5669 H   0  0  0  0  0  0  0  0  0  0  0  0
   -0.4416    3.7735    1.4540 C   0  0  0  0  0  0  0  0  0  0  0  0
    0.2187    3.7038    0.5972 H   0  0  0  0  0  0  0  0  0  0  0  0
   -0.9825    2.6166    2.0266 C   0  0  0  0  0  0  0  0  0  0  0  0
    0.0635    0.5427   -1.9936 C   0  0  0  0  0  0  0  0  0  0  0  0
   -0.1971   -0.2555   -2.8867 O   0  0  0  0  0  0  0  0  0  0  0  0
    1.0929    1.4446   -2.2037 N   0  0  0  0  0  0  0  0  0  0  0  0
    1.2995    2.1039   -1.4596 H   0  0  0  0  0  0  0  0  0  0  0  0
    1.9639    1.4085   -3.3728 C   0  0  0  0  0  0  0  0  0  0  0  0
    1.3781    1.5176   -4.2916 H   0  0  0  0  0  0  0  0  0  0  0  0
    2.6898    2.2259   -3.3285 H   0  0  0  0  0  0  0  0  0  0  0  0
    2.5111    0.4608   -3.4137 H   0  0  0  0  0  0  0  0  0  0  0  0
  1  2  1  0  0  0  0
  2  3  1  0  0  0  0
  2  4  1  0  0  0  0
  2  5  1  0  0  0  0
  5  6  2  0  0  0  0
  5  7  1  0  0  0  0
  7  8  1  0  0  0  0
  7  9  1  0  0  0  0
  9 10  1  0  0  0  0
  9 11  1  0  0  0  0
  9 29  1  0  0  0  0
 11 12  1  0  0  0  0
 11 13  1  0  0  0  0
 11 14  1  0  0  0  0
 14 15  2  0  0  0  0
 14 28  1  0  0  0  0
 15 16  1  0  0  0  0
 15 17  1  0  0  0  0
 17 18  1  0  0  0  0
 17 19  1  0  0  0  0
 19 20  1  0  0  0  0
 19 28  2  0  0  0  0
 20 21  1  0  0  0  0
 20 22  2  0  0  0  0
 22 23  1  0  0  0  0
 22 24  1  0  0  0  0
 24 25  1  0  0  0  0
 24 26  2  0  0  0  0
 26 27  1  0  0  0  0
 26 28  1  0  0  0  0
 29 30  2  0  0  0  0
 29 31  1  0  0  0  0
 31 32  1  0  0  0  0
 31 33  1  0  0  0  0
 33 34  1  0  0  0  0
 33 35  1  0  0  0  0
 33 36  1  0  0  0  0
M  END
$$$$

  -OEChem-01062216103D

 36 37  0     1  0  0  0  0  0999 V2000
   -3.9629   -2.8761   -0.2073 H   0  0  0  0  0  0  0  0  0  0  0  0
   -3.7906   -1.9320   -0.7316 C   0  0  0  0  0  0  0  0  0  0  0  0
   -4.5567   -1.2158   -0.4253 H   0  0  0  0  0  0  0  0  0  0  0  0
   -3.8724   -2.1064   -1.8073 H   0  0  0  0  0  0  0  0  0  0  0  0
   -2.4127   -1.3904   -0.3997 C   0  0  0  0  0  0  0  0  0  0  0  0
   -1.6531   -2.0909    0.2466 O   0  0  0  0  0  0  0  0  0  0  0  0
   -2.0392   -0.1789   -0.9467 N   0  0  0  0  0  0  0  0  0  0  0  0
   -2.6726    0.1652   -1.6637 H   0  0  0  0  0  0  0  0  0  0  0  0
   -0.7977    0.6145   -0.7778 C   0  0  1  0  0  0  0  0  0  0  0  0
   -1.1554    1.6189   -0.5334 H   0  0  0  0  0  0  0  0  0  0  0  0
    0.1736    0.2835    0.3847 C   0  0  0  0  0  0  0  0  0  0  0  0
    0.4648   -0.7693    0.3316 H   0  0  0  0  0  0  0  0  0  0  0  0
    1.0943    0.8653    0.2971 H   0  0  0  0  0  0  0  0  0  0  0  0
   -0.4319    0.5885    1.7364 C   0  0  0  0  0  0  0  0  0  0  0  0
   -1.0542   -0.2787    2.6028 C   0  0  0  0  0  0  0  0  0  0  0  0
   -1.1723   -1.3492    2.4513 H   0  0  0  0  0  0  0  0  0  0  0  0
   -1.4874    0.4543    3.7050 N   0  0  0  0  0  0  0  0  0  0  0  0
   -1.9750    0.0666    4.5095 H   0  0  0  0  0  0  0  0  0  0  0  0
   -1.1564    1.7899    3.5562 C   0  0  0  0  0  0  0  0  0  0  0  0
   -1.3765    2.8973    4.3753 C   0  0  0  0  0  0  0  0  0  0  0  0
   -1.8940    2.7821    5.3213 H   0  0  0  0  0  0  0  0  0  0  0  0
   -0.9209    4.1560    3.9592 C   0  0  0  0  0  0  0  0  0  0  0  0
   -1.0842    5.0260    4.5884 H   0  0  0  0  0  0  0  0  0  0  0  0
   -0.2537    4.2920    2.7321 C   0  0  0  0  0  0  0  0  0  0  0  0
    0.0979    5.2687    2.4136 H   0  0  0  0  0  0  0  0  0  0  0  0
   -0.0381    3.1711    1.9173 C   0  0  0  0  0  0  0  0  0  0  0  0
    0.4792    3.2753    0.9702 H   0  0  0  0  0  0  0  0  0  0  0  0
   -0.4951    1.9173    2.3396 C   0  0  0  0  0  0  0  0  0  0  0  0
   -0.0779    0.8100   -2.1344 C   0  0  0  0  0  0  0  0  0  0  0  0
   -0.6280    0.4741   -3.1780 O   0  0  0  0  0  0  0  0  0  0  0  0
    1.1074    1.5210   -2.2233 N   0  0  0  0  0  0  0  0  0  0  0  0
    1.5562    1.7972   -1.3553 H   0  0  0  0  0  0  0  0  0  0  0  0
    1.7916    1.7877   -3.4835 C   0  0  0  0  0  0  0  0  0  0  0  0
    1.1436    2.3561   -4.1589 H   0  0  0  0  0  0  0  0  0  0  0  0
    2.6994    2.3717   -3.3046 H   0  0  0  0  0  0  0  0  0  0  0  0
    2.0746    0.8497   -3.9728 H   0  0  0  0  0  0  0  0  0  0  0  0
  1  2  1  0  0  0  0
  2  3  1  0  0  0  0
  2  4  1  0  0  0  0
  2  5  1  0  0  0  0
  5  6  2  0  0  0  0
  5  7  1  0  0  0  0
  7  8  1  0  0  0  0
  7  9  1  0  0  0  0
  9 10  1  0  0  0  0
  9 11  1  0  0  0  0
  9 29  1  0  0  0  0
 11 12  1  0  0  0  0
 11 13  1  0  0  0  0
 11 14  1  0  0  0  0
 14 15  2  0  0  0  0
 14 28  1  0  0  0  0
 15 16  1  0  0  0  0
 15 17  1  0  0  0  0
 17 18  1  0  0  0  0
 17 19  1  0  0  0  0
 19 20  1  0  0  0  0
 19 28  2  0  0  0  0
 20 21  1  0  0  0  0
 20 22  2  0  0  0  0
 22 23  1  0  0  0  0
 22 24  1  0  0  0  0
 24 25  1  0  0  0  0
 24 26  2  0  0  0  0
 26 27  1  0  0  0  0
 26 28  1  0  0  0  0
 29 30  2  0  0  0  0
 29 31  1  0  0  0  0
 31 32  1  0  0  0  0
 31 33  1  0  0  0  0
 33 34  1  0  0  0  0
 33 35  1  0  0  0  0
 33 36  1  0  0  0  0
M  END
$$$$

  -OEChem-01062216103D

 36 37  0     1  0  0  0  0  0999 V2000
   -3.9462   -2.8574   -0.2047 H   0  0  0  0  0  0  0  0  0  0  0  0
   -3.7717   -1.9123   -0.7268 C   0  0  0  0  0  0  0  0  0  0  0  0
   -4.5314   -1.1926   -0.4125 H   0  0  0  0  0  0  0  0  0  0  0  0
   -3.8625   -2.0820   -1.8026 H   0  0  0  0  0  0  0  0  0  0  0  0
   -2.3881   -1.3807   -0.4024 C   0  0  0  0  0  0  0  0  0  0  0  0
   -1.6244   -2.0910    0.2286 O   0  0  0  0  0  0  0  0  0  0  0  0
   -2.0112   -0.1663   -0.9403 N   0  0  0  0  0  0  0  0  0  0  0  0
   -2.6518    0.1978   -1.6414 H   0  0  0  0  0  0  0  0  0  0  0  0
   -0.7720    0.6273   -0.7588 C   0  0  1  0  0  0  0  0  0  0  0  0
   -1.1264    1.6336   -0.5157 H   0  0  0  0  0  0  0  0  0  0  0  0
    0.1851    0.2902    0.4149 C   0  0  0  0  0  0  0  0  0  0  0  0
    0.4803   -0.7615    0.3617 H   0  0  0  0  0  0  0  0  0  0  0  0
    1.1038    0.8776    0.3455 H   0  0  0  0  0  0  0  0  0  0  0  0
   -0.4390    0.5919    1.7585 C   0  0  0  0  0  0  0  0  0  0  0  0
   -1.0746   -0.2782    2.6120 C   0  0  0  0  0  0  0  0  0  0  0  0
   -1.1936   -1.3478    2.4530 H   0  0  0  0  0  0  0  0  0  0  0  0
   -1.5217    0.4514    3.7113 N   0  0  0  0  0  0  0  0  0  0  0  0
   -2.0207    0.0621    4.5080 H   0  0  0  0  0  0  0  0  0  0  0  0
   -1.1852    1.7869    3.5734 C   0  0  0  0  0  0  0  0  0  0  0  0
   -1.4140    2.8910    4.3946 C   0  0  0  0  0  0  0  0  0  0  0  0
   -1.9455    2.7734    5.3326 H   0  0  0  0  0  0  0  0  0  0  0  0
   -0.9490    4.1502    3.9906 C   0  0  0  0  0  0  0  0  0  0  0  0
   -1.1199    5.0183    4.6206 H   0  0  0  0  0  0  0  0  0  0  0  0
   -0.2630    4.2894    2.7742 C   0  0  0  0  0  0  0  0  0  0  0  0
    0.0964    5.2663    2.4648 H   0  0  0  0  0  0  0  0  0  0  0  0
   -0.0394    3.1717    1.9572 C   0  0  0  0  0  0  0  0  0  0  0  0
    0.4917    3.2786    1.0179 H   0  0  0  0  0  0  0  0  0  0  0  0
   -0.5065    1.9178    2.3671 C   0  0  0  0  0  0  0  0  0  0  0  0
   -0.0566    0.8199   -2.1188 C   0  0  0  0  0  0  0  0  0  0  0  0
   -0.6966    0.7096   -3.1596 O   0  0  0  0  0  0  0  0  0  0  0  0
    1.2572    1.2494   -2.2053 N   0  0  0  0  0  0  0  0  0  0  0  0
    1.7883    1.3134   -1.3424 H   0  0  0  0  0  0  0  0  0  0  0  0
    1.9486    1.4648   -3.4709 C   0  0  0  0  0  0  0  0  0  0  0  0
    1.4295    2.2223   -4.0674 H   0  0  0  0  0  0  0  0  0  0  0  0
    2.9704    1.8109   -3.2887 H   0  0  0  0  0  0  0  0  0  0  0  0
    1.9954    0.5337   -4.0456 H   0  0  0  0  0  0  0  0  0  0  0  0
  1  2  1  0  0  0  0
  2  3  1  0  0  0  0
  2  4  1  0  0  0  0
  2  5  1  0  0  0  0
  5  6  2  0  0  0  0
  5  7  1  0  0  0  0
  7  8  1  0  0  0  0
  7  9  1  0  0  0  0
  9 10  1  0  0  0  0
  9 11  1  0  0  0  0
  9 29  1  0  0  0  0
 11 12  1  0  0  0  0
 11 13  1  0  0  0  0
 11 14  1  0  0  0  0
 14 15  2  0  0  0  0
 14 28  1  0  0  0  0
 15 16  1  0  0  0  0
 15 17  1  0  0  0  0
 17 18  1  0  0  0  0
 17 19  1  0  0  0  0
 19 20  1  0  0  0  0
 19 28  2  0  0  0  0
 20 21  1  0  0  0  0
 20 22  2  0  0  0  0
 22 23  1  0  0  0  0
 22 24  1  0  0  0  0
 24 25  1  0  0  0  0
 24 26  2  0  0  0  0
 26 27  1  0  0  0  0
 26 28  1  0  0  0  0
 29 30  2  0  0  0  0
 29 31  1  0  0  0  0
 31 32  1  0  0  0  0
 31 33  1  0  0  0  0
 33 34  1  0  0  0  0
 33 35  1  0  0  0  0
 33 36  1  0  0  0  0
M  END
$$$$

  -OEChem-01062216103D

 36 37  0     1  0  0  0  0  0999 V2000
   -3.9347   -2.8302   -0.1808 H   0  0  0  0  0  0  0  0  0  0  0  0
   -3.7587   -1.8887   -0.7083 C   0  0  0  0  0  0  0  0  0  0  0  0
   -4.5060   -1.1603   -0.3847 H   0  0  0  0  0  0  0  0  0  0  0  0
   -3.8668   -2.0605   -1.7820 H   0  0  0  0  0  0  0  0  0  0  0  0
   -2.3653   -1.3706   -0.4060 C   0  0  0  0  0  0  0  0  0  0  0  0
   -1.5943   -2.0911    0.2045 O   0  0  0  0  0  0  0  0  0  0  0  0
   -1.9856   -0.1561   -0.9416 N   0  0  0  0  0  0  0  0  0  0  0  0
   -2.6459    0.2377   -1.6077 H   0  0  0  0  0  0  0  0  0  0  0  0
   -0.7498    0.6378   -0.7459 C   0  0  1  0  0  0  0  0  0  0  0  0
   -1.1044    1.6453   -0.5067 H   0  0  0  0  0  0  0  0  0  0  0  0
    0.1954    0.2987    0.4355 C   0  0  0  0  0  0  0  0  0  0  0  0
    0.4971   -0.7513    0.3834 H   0  0  0  0  0  0  0  0  0  0  0  0
    1.1097    0.8946    0.3763 H   0  0  0  0  0  0  0  0  0  0  0  0
   -0.4448    0.5961    1.7718 C   0  0  0  0  0  0  0  0  0  0  0  0
   -1.0887   -0.2788    2.6140 C   0  0  0  0  0  0  0  0  0  0  0  0
   -1.2049   -1.3478    2.4479 H   0  0  0  0  0  0  0  0  0  0  0  0
   -1.5493    0.4461    3.7110 N   0  0  0  0  0  0  0  0  0  0  0  0
   -2.0566    0.0526    4.5003 H   0  0  0  0  0  0  0  0  0  0  0  0
   -1.2117    1.7827    3.5827 C   0  0  0  0  0  0  0  0  0  0  0  0
   -1.4483    2.8842    4.4052 C   0  0  0  0  0  0  0  0  0  0  0  0
   -1.9879    2.7632    5.3380 H   0  0  0  0  0  0  0  0  0  0  0  0
   -0.9791    4.1450    4.0104 C   0  0  0  0  0  0  0  0  0  0  0  0
   -1.1554    5.0109    4.6419 H   0  0  0  0  0  0  0  0  0  0  0  0
   -0.2809    4.2889    2.8015 C   0  0  0  0  0  0  0  0  0  0  0  0
    0.0824    5.2666    2.4993 H   0  0  0  0  0  0  0  0  0  0  0  0
   -0.0485    3.1739    1.9832 C   0  0  0  0  0  0  0  0  0  0  0  0
    0.4929    3.2830    1.0496 H   0  0  0  0  0  0  0  0  0  0  0  0
   -0.5202    1.9189    2.3844 C   0  0  0  0  0  0  0  0  0  0  0  0
   -0.0287    0.8229   -2.1025 C   0  0  0  0  0  0  0  0  0  0  0  0
   -0.6995    0.9343   -3.1234 O   0  0  0  0  0  0  0  0  0  0  0  0
    1.3463    0.9518   -2.2033 N   0  0  0  0  0  0  0  0  0  0  0  0
    1.8928    0.7872   -1.3633 H   0  0  0  0  0  0  0  0  0  0  0  0
    2.0450    1.1022   -3.4743 C   0  0  0  0  0  0  0  0  0  0  0  0
    1.6944    1.9956   -4.0017 H   0  0  0  0  0  0  0  0  0  0  0  0
    3.1212    1.2034   -3.3044 H   0  0  0  0  0  0  0  0  0  0  0  0
    1.8751    0.2273   -4.1105 H   0  0  0  0  0  0  0  0  0  0  0  0
  1  2  1  0  0  0  0
  2  3  1  0  0  0  0
  2  4  1  0  0  0  0
  2  5  1  0  0  0  0
  5  6  2  0  0  0  0
  5  7  1  0  0  0  0
  7  8  1  0  0  0  0
  7  9  1  0  0  0  0
  9 10  1  0  0  0  0
  9 11  1  0  0  0  0
  9 29  1  0  0  0  0
 11 12  1  0  0  0  0
 11 13  1  0  0  0  0
 11 14  1  0  0  0  0
 14 15  2  0  0  0  0
 14 28  1  0  0  0  0
 15 16  1  0  0  0  0
 15 17  1  0  0  0  0
 17 18  1  0  0  0  0
 17 19  1  0  0  0  0
 19 20  1  0  0  0  0
 19 28  2  0  0  0  0
 20 21  1  0  0  0  0
 20 22  2  0  0  0  0
 22 23  1  0  0  0  0
 22 24  1  0  0  0  0
 24 25  1  0  0  0  0
 24 26  2  0  0  0  0
 26 27  1  0  0  0  0
 26 28  1  0  0  0  0
 29 30  2  0  0  0  0
 29 31  1  0  0  0  0
 31 32  1  0  0  0  0
 31 33  1  0  0  0  0
 33 34  1  0  0  0  0
 33 35  1  0  0  0  0
 33 36  1  0  0  0  0
M  END
$$$$

  -OEChem-01062216103D

 36 37  0     1  0  0  0  0  0999 V2000
   -3.9255   -2.8170   -0.1745 H   0  0  0  0  0  0  0  0  0  0  0  0
   -3.7541   -1.8653   -0.6853 C   0  0  0  0  0  0  0  0  0  0  0  0
   -4.4877   -1.1383   -0.3287 H   0  0  0  0  0  0  0  0  0  0  0  0
   -3.8884   -2.0130   -1.7597 H   0  0  0  0  0  0  0  0  0  0  0  0
   -2.3502   -1.3637   -0.4049 C   0  0  0  0  0  0  0  0  0  0  0  0
   -1.5747   -2.0940    0.1884 O   0  0  0  0  0  0  0  0  0  0  0  0
   -1.9649   -0.1526   -0.9436 N   0  0  0  0  0  0  0  0  0  0  0  0
   -2.6459    0.2713   -1.5690 H   0  0  0  0  0  0  0  0  0  0  0  0
   -0.7302    0.6382   -0.7369 C   0  0  1  0  0  0  0  0  0  0  0  0
   -1.0822    1.6478   -0.5033 H   0  0  0  0  0  0  0  0  0  0  0  0
    0.2064    0.2991    0.4496 C   0  0  0  0  0  0  0  0  0  0  0  0
    0.5090   -0.7505    0.4016 H   0  0  0  0  0  0  0  0  0  0  0  0
    1.1206    0.8967    0.3899 H   0  0  0  0  0  0  0  0  0  0  0  0
   -0.4444    0.5972    1.7803 C   0  0  0  0  0  0  0  0  0  0  0  0
   -1.0948   -0.2792    2.6159 C   0  0  0  0  0  0  0  0  0  0  0  0
   -1.2088   -1.3478    2.4466 H   0  0  0  0  0  0  0  0  0  0  0  0
   -1.5658    0.4437    3.7098 N   0  0  0  0  0  0  0  0  0  0  0  0
   -2.0817    0.0494    4.4933 H   0  0  0  0  0  0  0  0  0  0  0  0
   -1.2290    1.7809    3.5853 C   0  0  0  0  0  0  0  0  0  0  0  0
   -1.4738    2.8815    4.4065 C   0  0  0  0  0  0  0  0  0  0  0  0
   -2.0201    2.7593    5.3352 H   0  0  0  0  0  0  0  0  0  0  0  0
   -1.0046    4.1436    4.0154 C   0  0  0  0  0  0  0  0  0  0  0  0
   -1.1885    5.0089    4.6454 H   0  0  0  0  0  0  0  0  0  0  0  0
   -0.2974    4.2896    2.8120 C   0  0  0  0  0  0  0  0  0  0  0  0
    0.0661    5.2679    2.5126 H   0  0  0  0  0  0  0  0  0  0  0  0
   -0.0568    3.1755    1.9951 C   0  0  0  0  0  0  0  0  0  0  0  0
    0.4905    3.2858    1.0650 H   0  0  0  0  0  0  0  0  0  0  0  0
   -0.5282    1.9192    2.3927 C   0  0  0  0  0  0  0  0  0  0  0  0
    0.0011    0.8113   -2.0869 C   0  0  0  0  0  0  0  0  0  0  0  0
   -0.6494    1.1404   -3.0728 O   0  0  0  0  0  0  0  0  0  0  0  0
    1.3677    0.6335   -2.2216 N   0  0  0  0  0  0  0  0  0  0  0  0
    1.8687    0.2605   -1.4204 H   0  0  0  0  0  0  0  0  0  0  0  0
    2.0639    0.7352   -3.4985 C   0  0  0  0  0  0  0  0  0  0  0  0
    1.9224    1.7298   -3.9342 H   0  0  0  0  0  0  0  0  0  0  0  0
    3.1364    0.5704   -3.3583 H   0  0  0  0  0  0  0  0  0  0  0  0
    1.6864   -0.0149   -4.2014 H   0  0  0  0  0  0  0  0  0  0  0  0
  1  2  1  0  0  0  0
  2  3  1  0  0  0  0
  2  4  1  0  0  0  0
  2  5  1  0  0  0  0
  5  6  2  0  0  0  0
  5  7  1  0  0  0  0
  7  8  1  0  0  0  0
  7  9  1  0  0  0  0
  9 10  1  0  0  0  0
  9 11  1  0  0  0  0
  9 29  1  0  0  0  0
 11 12  1  0  0  0  0
 11 13  1  0  0  0  0
 11 14  1  0  0  0  0
 14 15  2  0  0  0  0
 14 28  1  0  0  0  0
 15 16  1  0  0  0  0
 15 17  1  0  0  0  0
 17 18  1  0  0  0  0
 17 19  1  0  0  0  0
 19 20  1  0  0  0  0
 19 28  2  0  0  0  0
 20 21  1  0  0  0  0
 20 22  2  0  0  0  0
 22 23  1  0  0  0  0
 22 24  1  0  0  0  0
 24 25  1  0  0  0  0
 24 26  2  0  0  0  0
 26 27  1  0  0  0  0
 26 28  1  0  0  0  0
 29 30  2  0  0  0  0
 29 31  1  0  0  0  0
 31 32  1  0  0  0  0
 31 33  1  0  0  0  0
 33 34  1  0  0  0  0
 33 35  1  0  0  0  0
 33 36  1  0  0  0  0
M  END
$$$$

  -OEChem-01062216103D

 36 37  0     1  0  0  0  0  0999 V2000
   -3.9349   -2.7726   -0.1063 H   0  0  0  0  0  0  0  0  0  0  0  0
   -3.7594   -1.8359   -0.6428 C   0  0  0  0  0  0  0  0  0  0  0  0
   -4.4689   -1.0871   -0.2823 H   0  0  0  0  0  0  0  0  0  0  0  0
   -3.9268   -2.0035   -1.7095 H   0  0  0  0  0  0  0  0  0  0  0  0
   -2.3385   -1.3571   -0.4117 C   0  0  0  0  0  0  0  0  0  0  0  0
   -1.5525   -2.0986    0.1536 O   0  0  0  0  0  0  0  0  0  0  0  0
   -1.9512   -0.1509   -0.9598 N   0  0  0  0  0  0  0  0  0  0  0  0
   -2.6579    0.3017   -1.5340 H   0  0  0  0  0  0  0  0  0  0  0  0
   -0.7187    0.6400   -0.7431 C   0  0  1  0  0  0  0  0  0  0  0  0
   -1.0709    1.6513   -0.5161 H   0  0  0  0  0  0  0  0  0  0  0  0
    0.2130    0.3037    0.4472 C   0  0  0  0  0  0  0  0  0  0  0  0
    0.5186   -0.7453    0.4037 H   0  0  0  0  0  0  0  0  0  0  0  0
    1.1263    0.9036    0.3855 H   0  0  0  0  0  0  0  0  0  0  0  0
   -0.4437    0.5996    1.7745 C   0  0  0  0  0  0  0  0  0  0  0  0
   -1.0940   -0.2828    2.6035 C   0  0  0  0  0  0  0  0  0  0  0  0
   -1.2026   -1.3513    2.4288 H   0  0  0  0  0  0  0  0  0  0  0  0
   -1.5720    0.4344    3.6980 N   0  0  0  0  0  0  0  0  0  0  0  0
   -2.0854    0.0352    4.4806 H   0  0  0  0  0  0  0  0  0  0  0  0
   -1.2395    1.7736    3.5795 C   0  0  0  0  0  0  0  0  0  0  0  0
   -1.4924    2.8700    4.4041 C   0  0  0  0  0  0  0  0  0  0  0  0
   -2.0427    2.7422    5.3294 H   0  0  0  0  0  0  0  0  0  0  0  0
   -1.0263    4.1353    4.0206 C   0  0  0  0  0  0  0  0  0  0  0  0
   -1.2151    4.9977    4.6530 H   0  0  0  0  0  0  0  0  0  0  0  0
   -0.3146    4.2887    2.8209 C   0  0  0  0  0  0  0  0  0  0  0  0
    0.0451    5.2703    2.5273 H   0  0  0  0  0  0  0  0  0  0  0  0
   -0.0647    3.1790    2.0006 C   0  0  0  0  0  0  0  0  0  0  0  0
    0.4873    3.2958    1.0740 H   0  0  0  0  0  0  0  0  0  0  0  0
   -0.5335    1.9193    2.3907 C   0  0  0  0  0  0  0  0  0  0  0  0
    0.0304    0.8007   -2.0814 C   0  0  0  0  0  0  0  0  0  0  0  0
   -0.5458    1.3357   -3.0212 O   0  0  0  0  0  0  0  0  0  0  0  0
    1.3202    0.3324   -2.2616 N   0  0  0  0  0  0  0  0  0  0  0  0
    1.7150   -0.2280   -1.5114 H   0  0  0  0  0  0  0  0  0  0  0  0
    2.0113    0.3736   -3.5445 C   0  0  0  0  0  0  0  0  0  0  0  0
    2.0678    1.4019   -3.9173 H   0  0  0  0  0  0  0  0  0  0  0  0
    3.0307   -0.0093   -3.4369 H   0  0  0  0  0  0  0  0  0  0  0  0
    1.4854   -0.2407   -4.2828 H   0  0  0  0  0  0  0  0  0  0  0  0
  1  2  1  0  0  0  0
  2  3  1  0  0  0  0
  2  4  1  0  0  0  0
  2  5  1  0  0  0  0
  5  6  2  0  0  0  0
  5  7  1  0  0  0  0
  7  8  1  0  0  0  0
  7  9  1  0  0  0  0
  9 10  1  0  0  0  0
  9 11  1  0  0  0  0
  9 29  1  0  0  0  0
 11 12  1  0  0  0  0
 11 13  1  0  0  0  0
 11 14  1  0  0  0  0
 14 15  2  0  0  0  0
 14 28  1  0  0  0  0
 15 16  1  0  0  0  0
 15 17  1  0  0  0  0
 17 18  1  0  0  0  0
 17 19  1  0  0  0  0
 19 20  1  0  0  0  0
 19 28  2  0  0  0  0
 20 21  1  0  0  0  0
 20 22  2  0  0  0  0
 22 23  1  0  0  0  0
 22 24  1  0  0  0  0
 24 25  1  0  0  0  0
 24 26  2  0  0  0  0
 26 27  1  0  0  0  0
 26 28  1  0  0  0  0
 29 30  2  0  0  0  0
 29 31  1  0  0  0  0
 31 32  1  0  0  0  0
 31 33  1  0  0  0  0
 33 34  1  0  0  0  0
 33 35  1  0  0  0  0
 33 36  1  0  0  0  0
M  END
$$$$

  -OEChem-01062216103D

 36 37  0     1  0  0  0  0  0999 V2000
   -3.9283   -2.7536   -0.0648 H   0  0  0  0  0  0  0  0  0  0  0  0
   -3.7642   -1.8072   -0.5877 C   0  0  0  0  0  0  0  0  0  0  0  0
   -4.4479   -1.0583   -0.1807 H   0  0  0  0  0  0  0  0  0  0  0  0
   -3.9790   -1.9493   -1.6497 H   0  0  0  0  0  0  0  0  0  0  0  0
   -2.3288   -1.3506   -0.4074 C   0  0  0  0  0  0  0  0  0  0  0  0
   -1.5310   -2.1071    0.1207 O   0  0  0  0  0  0  0  0  0  0  0  0
   -1.9409   -0.1499   -0.9669 N   0  0  0  0  0  0  0  0  0  0  0  0
   -2.6720    0.3320   -1.4835 H   0  0  0  0  0  0  0  0  0  0  0  0
   -0.7070    0.6368   -0.7452 C   0  0  1  0  0  0  0  0  0  0  0  0
   -1.0553    1.6502   -0.5205 H   0  0  0  0  0  0  0  0  0  0  0  0
    0.2234    0.2962    0.4434 C   0  0  0  0  0  0  0  0  0  0  0  0
    0.5277   -0.7529    0.4006 H   0  0  0  0  0  0  0  0  0  0  0  0
    1.1387    0.8935    0.3791 H   0  0  0  0  0  0  0  0  0  0  0  0
   -0.4368    0.5903    1.7688 C   0  0  0  0  0  0  0  0  0  0  0  0
   -1.0904   -0.2932    2.5940 C   0  0  0  0  0  0  0  0  0  0  0  0
   -1.1958   -1.3619    2.4180 H   0  0  0  0  0  0  0  0  0  0  0  0
   -1.5774    0.4243    3.6846 N   0  0  0  0  0  0  0  0  0  0  0  0
   -2.0910    0.0243    4.4666 H   0  0  0  0  0  0  0  0  0  0  0  0
   -1.2495    1.7648    3.5655 C   0  0  0  0  0  0  0  0  0  0  0  0
   -1.5119    2.8629    4.3845 C   0  0  0  0  0  0  0  0  0  0  0  0
   -2.0690    2.7366    5.3061 H   0  0  0  0  0  0  0  0  0  0  0  0
   -1.0470    4.1287    4.0003 C   0  0  0  0  0  0  0  0  0  0  0  0
   -1.2428    4.9921    4.6294 H   0  0  0  0  0  0  0  0  0  0  0  0
   -0.3285    4.2813    2.8045 C   0  0  0  0  0  0  0  0  0  0  0  0
    0.0294    5.2633    2.5099 H   0  0  0  0  0  0  0  0  0  0  0  0
   -0.0698    3.1699    1.9893 C   0  0  0  0  0  0  0  0  0  0  0  0
    0.4872    3.2851    1.0652 H   0  0  0  0  0  0  0  0  0  0  0  0
   -0.5362    1.9102    2.3814 C   0  0  0  0  0  0  0  0  0  0  0  0
    0.0559    0.7854   -2.0739 C   0  0  0  0  0  0  0  0  0  0  0  0
   -0.3943    1.5224   -2.9422 O   0  0  0  0  0  0  0  0  0  0  0  0
    1.2021    0.0545   -2.3304 N   0  0  0  0  0  0  0  0  0  0  0  0
    1.4511   -0.6592   -1.6504 H   0  0  0  0  0  0  0  0  0  0  0  0
    1.8808    0.0628   -3.6202 C   0  0  0  0  0  0  0  0  0  0  0  0
    2.1789    1.0814   -3.8904 H   0  0  0  0  0  0  0  0  0  0  0  0
    2.7805   -0.5586   -3.5775 H   0  0  0  0  0  0  0  0  0  0  0  0
    1.2228   -0.3311   -4.4018 H   0  0  0  0  0  0  0  0  0  0  0  0
  1  2  1  0  0  0  0
  2  3  1  0  0  0  0
  2  4  1  0  0  0  0
  2  5  1  0  0  0  0
  5  6  2  0  0  0  0
  5  7  1  0  0  0  0
  7  8  1  0  0  0  0
  7  9  1  0  0  0  0
  9 10  1  0  0  0  0
  9 11  1  0  0  0  0
  9 29  1  0  0  0  0
 11 12  1  0  0  0  0
 11 13  1  0  0  0  0
 11 14  1  0  0  0  0
 14 15  2  0  0  0  0
 14 28  1  0  0  0  0
 15 16  1  0  0  0  0
 15 17  1  0  0  0  0
 17 18  1  0  0  0  0
 17 19  1  0  0  0  0
 19 20  1  0  0  0  0
 19 28  2  0  0  0  0
 20 21  1  0  0  0  0
 20 22  2  0  0  0  0
 22 23  1  0  0  0  0
 22 24  1  0  0  0  0
 24 25  1  0  0  0  0
 24 26  2  0  0  0  0
 26 27  1  0  0  0  0
 26 28  1  0  0  0  0
 29 30  2  0  0  0  0
 29 31  1  0  0  0  0
 31 32  1  0  0  0  0
 31 33  1  0  0  0  0
 33 34  1  0  0  0  0
 33 35  1  0  0  0  0
 33 36  1  0  0  0  0
M  END
$$$$

  -OEChem-01062216103D

 36 37  0     1  0  0  0  0  0999 V2000
   -3.9257   -2.7268    0.0054 H   0  0  0  0  0  0  0  0  0  0  0  0
   -3.7788   -1.7706   -0.5046 C   0  0  0  0  0  0  0  0  0  0  0  0
   -4.4192   -1.0201   -0.0347 H   0  0  0  0  0  0  0  0  0  0  0  0
   -4.0671   -1.8827   -1.5526 H   0  0  0  0  0  0  0  0  0  0  0  0
   -2.3264   -1.3437   -0.4087 C   0  0  0  0  0  0  0  0  0  0  0  0
   -1.5132   -2.1146    0.0733 O   0  0  0  0  0  0  0  0  0  0  0  0
   -1.9418   -0.1541   -0.9930 N   0  0  0  0  0  0  0  0  0  0  0  0
   -2.6962    0.3487   -1.4527 H   0  0  0  0  0  0  0  0  0  0  0  0
   -0.7091    0.6348   -0.7693 C   0  0  1  0  0  0  0  0  0  0  0  0
   -1.0559    1.6511   -0.5548 H   0  0  0  0  0  0  0  0  0  0  0  0
    0.2221    0.2969    0.4184 C   0  0  0  0  0  0  0  0  0  0  0  0
    0.5319   -0.7505    0.3749 H   0  0  0  0  0  0  0  0  0  0  0  0
    1.1349    0.8973    0.3503 H   0  0  0  0  0  0  0  0  0  0  0  0
   -0.4359    0.5873    1.7456 C   0  0  0  0  0  0  0  0  0  0  0  0
   -1.0835   -0.3032    2.5680 C   0  0  0  0  0  0  0  0  0  0  0  0
   -1.1815   -1.3721    2.3877 H   0  0  0  0  0  0  0  0  0  0  0  0
   -1.5710    0.4067    3.6633 N   0  0  0  0  0  0  0  0  0  0  0  0
   -2.0780    0.0007    4.4465 H   0  0  0  0  0  0  0  0  0  0  0  0
   -1.2510    1.7494    3.5488 C   0  0  0  0  0  0  0  0  0  0  0  0
   -1.5167    2.8424    4.3739 C   0  0  0  0  0  0  0  0  0  0  0  0
   -2.0668    2.7085    5.2987 H   0  0  0  0  0  0  0  0  0  0  0  0
   -1.0640    4.1130    3.9911 C   0  0  0  0  0  0  0  0  0  0  0  0
   -1.2641    4.9732    4.6230 H   0  0  0  0  0  0  0  0  0  0  0  0
   -0.3526    4.2750    2.7924 C   0  0  0  0  0  0  0  0  0  0  0  0
   -0.0038    5.2604    2.4987 H   0  0  0  0  0  0  0  0  0  0  0  0
   -0.0889    3.1687    1.9722 C   0  0  0  0  0  0  0  0  0  0  0  0
    0.4622    3.2918    1.0454 H   0  0  0  0  0  0  0  0  0  0  0  0
   -0.5435    1.9042    2.3622 C   0  0  0  0  0  0  0  0  0  0  0  0
    0.0740    0.7596   -2.0872 C   0  0  0  0  0  0  0  0  0  0  0  0
   -0.1856    1.6691   -2.8643 O   0  0  0  0  0  0  0  0  0  0  0  0
    1.0240   -0.1848   -2.4306 N   0  0  0  0  0  0  0  0  0  0  0  0
    1.0910   -1.0026   -1.8291 H   0  0  0  0  0  0  0  0  0  0  0  0
    1.7095   -0.1982   -3.7164 C   0  0  0  0  0  0  0  0  0  0  0  0
    2.2398    0.7462   -3.8782 H   0  0  0  0  0  0  0  0  0  0  0  0
    2.4402   -1.0122   -3.7464 H   0  0  0  0  0  0  0  0  0  0  0  0
    0.9926   -0.3445   -4.5310 H   0  0  0  0  0  0  0  0  0  0  0  0
  1  2  1  0  0  0  0
  2  3  1  0  0  0  0
  2  4  1  0  0  0  0
  2  5  1  0  0  0  0
  5  6  2  0  0  0  0
  5  7  1  0  0  0  0
  7  8  1  0  0  0  0
  7  9  1  0  0  0  0
  9 10  1  0  0  0  0
  9 11  1  0  0  0  0
  9 29  1  0  0  0  0
 11 12  1  0  0  0  0
 11 13  1  0  0  0  0
 11 14  1  0  0  0  0
 14 15  2  0  0  0  0
 14 28  1  0  0  0  0
 15 16  1  0  0  0  0
 15 17  1  0  0  0  0
 17 18  1  0  0  0  0
 17 19  1  0  0  0  0
 19 20  1  0  0  0  0
 19 28  2  0  0  0  0
 20 21  1  0  0  0  0
 20 22  2  0  0  0  0
 22 23  1  0  0  0  0
 22 24  1  0  0  0  0
 24 25  1  0  0  0  0
 24 26  2  0  0  0  0
 26 27  1  0  0  0  0
 26 28  1  0  0  0  0
 29 30  2  0  0  0  0
 29 31  1  0  0  0  0
 31 32  1  0  0  0  0
 31 33  1  0  0  0  0
 33 34  1  0  0  0  0
 33 35  1  0  0  0  0
 33 36  1  0  0  0  0
M  END
$$$$

  -OEChem-01062216103D

 36 37  0     1  0  0  0  0  0999 V2000
   -3.9243   -2.6933    0.1050 H   0  0  0  0  0  0  0  0  0  0  0  0
   -3.7844   -1.7476   -0.4262 C   0  0  0  0  0  0  0  0  0  0  0  0
   -4.3903   -0.9791    0.0603 H   0  0  0  0  0  0  0  0  0  0  0  0
   -4.1209   -1.8699   -1.4587 H   0  0  0  0  0  0  0  0  0  0  0  0
   -2.3224   -1.3445   -0.4018 C   0  0  0  0  0  0  0  0  0  0  0  0
   -1.4964   -2.1305    0.0316 O   0  0  0  0  0  0  0  0  0  0  0  0
   -1.9451   -0.1618   -1.0045 N   0  0  0  0  0  0  0  0  0  0  0  0
   -2.7182    0.3575   -1.4111 H   0  0  0  0  0  0  0  0  0  0  0  0
   -0.7125    0.6300   -0.7845 C   0  0  1  0  0  0  0  0  0  0  0  0
   -1.0575    1.6480   -0.5740 H   0  0  0  0  0  0  0  0  0  0  0  0
    0.2224    0.2901    0.3984 C   0  0  0  0  0  0  0  0  0  0  0  0
    0.5370   -0.7556    0.3512 H   0  0  0  0  0  0  0  0  0  0  0  0
    1.1331    0.8938    0.3291 H   0  0  0  0  0  0  0  0  0  0  0  0
   -0.4373    0.5771    1.7256 C   0  0  0  0  0  0  0  0  0  0  0  0
   -1.0844   -0.3156    2.5463 C   0  0  0  0  0  0  0  0  0  0  0  0
   -1.1794   -1.3845    2.3646 H   0  0  0  0  0  0  0  0  0  0  0  0
   -1.5770    0.3931    3.6405 N   0  0  0  0  0  0  0  0  0  0  0  0
   -2.0826   -0.0141    4.4241 H   0  0  0  0  0  0  0  0  0  0  0  0
   -1.2587    1.7367    3.5275 C   0  0  0  0  0  0  0  0  0  0  0  0
   -1.5270    2.8297    4.3518 C   0  0  0  0  0  0  0  0  0  0  0  0
   -2.0795    2.6947    5.2750 H   0  0  0  0  0  0  0  0  0  0  0  0
   -1.0736    4.1007    3.9705 C   0  0  0  0  0  0  0  0  0  0  0  0
   -1.2747    4.9604    4.6028 H   0  0  0  0  0  0  0  0  0  0  0  0
   -0.3592    4.2634    2.7734 C   0  0  0  0  0  0  0  0  0  0  0  0
   -0.0087    5.2483    2.4800 H   0  0  0  0  0  0  0  0  0  0  0  0
   -0.0935    3.1573    1.9536 C   0  0  0  0  0  0  0  0  0  0  0  0
    0.4602    3.2790    1.0280 H   0  0  0  0  0  0  0  0  0  0  0  0
   -0.5484    1.8929    2.3428 C   0  0  0  0  0  0  0  0  0  0  0  0
    0.0761    0.7390   -2.0989 C   0  0  0  0  0  0  0  0  0  0  0  0
    0.0436    1.7722   -2.7542 O   0  0  0  0  0  0  0  0  0  0  0  0
    0.7859   -0.3512   -2.5656 N   0  0  0  0  0  0  0  0  0  0  0  0
    0.6836   -1.2193   -2.0435 H   0  0  0  0  0  0  0  0  0  0  0  0
    1.4754   -0.3712   -3.8489 C   0  0  0  0  0  0  0  0  0  0  0  0
    2.2231    0.4275   -3.8943 H   0  0  0  0  0  0  0  0  0  0  0  0
    1.9856   -1.3292   -3.9885 H   0  0  0  0  0  0  0  0  0  0  0  0
    0.7632   -0.2346   -4.6693 H   0  0  0  0  0  0  0  0  0  0  0  0
  1  2  1  0  0  0  0
  2  3  1  0  0  0  0
  2  4  1  0  0  0  0
  2  5  1  0  0  0  0
  5  6  2  0  0  0  0
  5  7  1  0  0  0  0
  7  8  1  0  0  0  0
  7  9  1  0  0  0  0
  9 10  1  0  0  0  0
  9 11  1  0  0  0  0
  9 29  1  0  0  0  0
 11 12  1  0  0  0  0
 11 13  1  0  0  0  0
 11 14  1  0  0  0  0
 14 15  2  0  0  0  0
 14 28  1  0  0  0  0
 15 16  1  0  0  0  0
 15 17  1  0  0  0  0
 17 18  1  0  0  0  0
 17 19  1  0  0  0  0
 19 20  1  0  0  0  0
 19 28  2  0  0  0  0
 20 21  1  0  0  0  0
 20 22  2  0  0  0  0
 22 23  1  0  0  0  0
 22 24  1  0  0  0  0
 24 25  1  0  0  0  0
 24 26  2  0  0  0  0
 26 27  1  0  0  0  0
 26 28  1  0  0  0  0
 29 30  2  0  0  0  0
 29 31  1  0  0  0  0
 31 32  1  0  0  0  0
 31 33  1  0  0  0  0
 33 34  1  0  0  0  0
 33 35  1  0  0  0  0
 33 36  1  0  0  0  0
M  END
$$$$

  -OEChem-01062216103D

 36 37  0     1  0  0  0  0  0999 V2000
   -3.9449   -2.6671    0.1929 H   0  0  0  0  0  0  0  0  0  0  0  0
   -3.8102   -1.7338   -0.3608 C   0  0  0  0  0  0  0  0  0  0  0  0
   -4.3937   -0.9496    0.1280 H   0  0  0  0  0  0  0  0  0  0  0  0
   -4.1785   -1.8721   -1.3802 H   0  0  0  0  0  0  0  0  0  0  0  0
   -2.3435   -1.3482   -0.3874 C   0  0  0  0  0  0  0  0  0  0  0  0
   -1.5103   -2.1463    0.0078 O   0  0  0  0  0  0  0  0  0  0  0  0
   -1.9717   -0.1714   -1.0042 N   0  0  0  0  0  0  0  0  0  0  0  0
   -2.7554    0.3570   -1.3772 H   0  0  0  0  0  0  0  0  0  0  0  0
   -0.7346    0.6193   -0.7972 C   0  0  1  0  0  0  0  0  0  0  0  0
   -1.0756    1.6383   -0.5857 H   0  0  0  0  0  0  0  0  0  0  0  0
    0.2137    0.2762    0.3734 C   0  0  0  0  0  0  0  0  0  0  0  0
    0.5265   -0.7700    0.3194 H   0  0  0  0  0  0  0  0  0  0  0  0
    1.1246    0.8787    0.2953 H   0  0  0  0  0  0  0  0  0  0  0  0
   -0.4306    0.5615    1.7079 C   0  0  0  0  0  0  0  0  0  0  0  0
   -1.0689   -0.3320    2.5338 C   0  0  0  0  0  0  0  0  0  0  0  0
   -1.1596   -1.4016    2.3539 H   0  0  0  0  0  0  0  0  0  0  0  0
   -1.5599    0.3779    3.6281 N   0  0  0  0  0  0  0  0  0  0  0  0
   -2.0566   -0.0301    4.4169 H   0  0  0  0  0  0  0  0  0  0  0  0
   -1.2502    1.7232    3.5089 C   0  0  0  0  0  0  0  0  0  0  0  0
   -1.5214    2.8189    4.3288 C   0  0  0  0  0  0  0  0  0  0  0  0
   -2.0704    2.6866    5.2545 H   0  0  0  0  0  0  0  0  0  0  0  0
   -1.0759    4.0905    3.9397 C   0  0  0  0  0  0  0  0  0  0  0  0
   -1.2791    4.9523    4.5683 H   0  0  0  0  0  0  0  0  0  0  0  0
   -0.3669    4.2513    2.7391 C   0  0  0  0  0  0  0  0  0  0  0  0
   -0.0236    5.2368    2.4392 H   0  0  0  0  0  0  0  0  0  0  0  0
   -0.0982    3.1428    1.9237 C   0  0  0  0  0  0  0  0  0  0  0  0
    0.4515    3.2626    0.9951 H   0  0  0  0  0  0  0  0  0  0  0  0
   -0.5453    1.8783    2.3211 C   0  0  0  0  0  0  0  0  0  0  0  0
    0.0534    0.7218   -2.1118 C   0  0  0  0  0  0  0  0  0  0  0  0
    0.2775    1.8137   -2.6168 O   0  0  0  0  0  0  0  0  0  0  0  0
    0.4977   -0.4305   -2.7315 N   0  0  0  0  0  0  0  0  0  0  0  0
    0.2532   -1.3136   -2.2869 H   0  0  0  0  0  0  0  0  0  0  0  0
    1.2320   -0.4395   -3.9897 C   0  0  0  0  0  0  0  0  0  0  0  0
    2.1506    0.1500   -3.9017 H   0  0  0  0  0  0  0  0  0  0  0  0
    1.5045   -1.4639   -4.2608 H   0  0  0  0  0  0  0  0  0  0  0  0
    0.6190   -0.0193   -4.7938 H   0  0  0  0  0  0  0  0  0  0  0  0
  1  2  1  0  0  0  0
  2  3  1  0  0  0  0
  2  4  1  0  0  0  0
  2  5  1  0  0  0  0
  5  6  2  0  0  0  0
  5  7  1  0  0  0  0
  7  8  1  0  0  0  0
  7  9  1  0  0  0  0
  9 10  1  0  0  0  0
  9 11  1  0  0  0  0
  9 29  1  0  0  0  0
 11 12  1  0  0  0  0
 11 13  1  0  0  0  0
 11 14  1  0  0  0  0
 14 15  2  0  0  0  0
 14 28  1  0  0  0  0
 15 16  1  0  0  0  0
 15 17  1  0  0  0  0
 17 18  1  0  0  0  0
 17 19  1  0  0  0  0
 19 20  1  0  0  0  0
 19 28  2  0  0  0  0
 20 21  1  0  0  0  0
 20 22  2  0  0  0  0
 22 23  1  0  0  0  0
 22 24  1  0  0  0  0
 24 25  1  0  0  0  0
 24 26  2  0  0  0  0
 26 27  1  0  0  0  0
 26 28  1  0  0  0  0
 29 30  2  0  0  0  0
 29 31  1  0  0  0  0
 31 32  1  0  0  0  0
 31 33  1  0  0  0  0
 33 34  1  0  0  0  0
 33 35  1  0  0  0  0
 33 36  1  0  0  0  0
M  END
$$$$

  -OEChem-01062216103D

 36 37  0     1  0  0  0  0  0999 V2000
   -3.9441   -2.6748    0.2555 H   0  0  0  0  0  0  0  0  0  0  0  0
   -3.8251   -1.7400   -0.2997 C   0  0  0  0  0  0  0  0  0  0  0  0
   -4.3872   -0.9548    0.2119 H   0  0  0  0  0  0  0  0  0  0  0  0
   -4.2299   -1.8736   -1.3058 H   0  0  0  0  0  0  0  0  0  0  0  0
   -2.3586   -1.3608   -0.3764 C   0  0  0  0  0  0  0  0  0  0  0  0
   -1.5171   -2.1636   -0.0109 O   0  0  0  0  0  0  0  0  0  0  0  0
   -2.0005   -0.1876   -1.0083 N   0  0  0  0  0  0  0  0  0  0  0  0
   -2.7968    0.3426   -1.3504 H   0  0  0  0  0  0  0  0  0  0  0  0
   -0.7640    0.6120   -0.8188 C   0  0  1  0  0  0  0  0  0  0  0  0
   -1.1063    1.6312   -0.6109 H   0  0  0  0  0  0  0  0  0  0  0  0
    0.1935    0.2724    0.3447 C   0  0  0  0  0  0  0  0  0  0  0  0
    0.5090   -0.7729    0.2883 H   0  0  0  0  0  0  0  0  0  0  0  0
    1.1025    0.8775    0.2601 H   0  0  0  0  0  0  0  0  0  0  0  0
   -0.4422    0.5584    1.6833 C   0  0  0  0  0  0  0  0  0  0  0  0
   -1.0727   -0.3362    2.5141 C   0  0  0  0  0  0  0  0  0  0  0  0
   -1.1633   -1.4060    2.3351 H   0  0  0  0  0  0  0  0  0  0  0  0
   -1.5558    0.3726    3.6124 N   0  0  0  0  0  0  0  0  0  0  0  0
   -2.0418   -0.0369    4.4071 H   0  0  0  0  0  0  0  0  0  0  0  0
   -1.2467    1.7180    3.4925 C   0  0  0  0  0  0  0  0  0  0  0  0
   -1.5103    2.8122    4.3169 C   0  0  0  0  0  0  0  0  0  0  0  0
   -2.0526    2.6786    5.2463 H   0  0  0  0  0  0  0  0  0  0  0  0
   -1.0648    4.0837    3.9278 C   0  0  0  0  0  0  0  0  0  0  0  0
   -1.2613    4.9445    4.5600 H   0  0  0  0  0  0  0  0  0  0  0  0
   -0.3638    4.2458    2.7227 C   0  0  0  0  0  0  0  0  0  0  0  0
   -0.0197    5.2313    2.4236 H   0  0  0  0  0  0  0  0  0  0  0  0
   -0.1034    3.1388    1.9023 C   0  0  0  0  0  0  0  0  0  0  0  0
    0.4411    3.2592    0.9706 H   0  0  0  0  0  0  0  0  0  0  0  0
   -0.5511    1.8744    2.2994 C   0  0  0  0  0  0  0  0  0  0  0  0
    0.0221    0.7143   -2.1359 C   0  0  0  0  0  0  0  0  0  0  0  0
    0.4847    1.7874   -2.4987 O   0  0  0  0  0  0  0  0  0  0  0  0
    0.2068   -0.4134   -2.9128 N   0  0  0  0  0  0  0  0  0  0  0  0
   -0.1495   -1.2892   -2.5351 H   0  0  0  0  0  0  0  0  0  0  0  0
    0.9792   -0.4259   -4.1478 C   0  0  0  0  0  0  0  0  0  0  0  0
    2.0190   -0.1439   -3.9520 H   0  0  0  0  0  0  0  0  0  0  0  0
    0.9689   -1.4267   -4.5901 H   0  0  0  0  0  0  0  0  0  0  0  0
    0.5538    0.2761   -4.8726 H   0  0  0  0  0  0  0  0  0  0  0  0
  1  2  1  0  0  0  0
  2  3  1  0  0  0  0
  2  4  1  0  0  0  0
  2  5  1  0  0  0  0
  5  6  2  0  0  0  0
  5  7  1  0  0  0  0
  7  8  1  0  0  0  0
  7  9  1  0  0  0  0
  9 10  1  0  0  0  0
  9 11  1  0  0  0  0
  9 29  1  0  0  0  0
 11 12  1  0  0  0  0
 11 13  1  0  0  0  0
 11 14  1  0  0  0  0
 14 15  2  0  0  0  0
 14 28  1  0  0  0  0
 15 16  1  0  0  0  0
 15 17  1  0  0  0  0
 17 18  1  0  0  0  0
 17 19  1  0  0  0  0
 19 20  1  0  0  0  0
 19 28  2  0  0  0  0
 20 21  1  0  0  0  0
 20 22  2  0  0  0  0
 22 23  1  0  0  0  0
 22 24  1  0  0  0  0
 24 25  1  0  0  0  0
 24 26  2  0  0  0  0
 26 27  1  0  0  0  0
 26 28  1  0  0  0  0
 29 30  2  0  0  0  0
 29 31  1  0  0  0  0
 31 32  1  0  0  0  0
 31 33  1  0  0  0  0
 33 34  1  0  0  0  0
 33 35  1  0  0  0  0
 33 36  1  0  0  0  0
M  END
$$$$

  -OEChem-01062216103D

 36 37  0     1  0  0  0  0  0999 V2000
   -3.9540   -2.6798    0.2924 H   0  0  0  0  0  0  0  0  0  0  0  0
   -3.8365   -1.7542   -0.2782 C   0  0  0  0  0  0  0  0  0  0  0  0
   -4.3955   -0.9604    0.2235 H   0  0  0  0  0  0  0  0  0  0  0  0
   -4.2463   -1.9035   -1.2801 H   0  0  0  0  0  0  0  0  0  0  0  0
   -2.3699   -1.3777   -0.3673 C   0  0  0  0  0  0  0  0  0  0  0  0
   -1.5285   -2.1803   -0.0027 O   0  0  0  0  0  0  0  0  0  0  0  0
   -2.0174   -0.2049   -1.0038 N   0  0  0  0  0  0  0  0  0  0  0  0
   -2.8183    0.3237   -1.3376 H   0  0  0  0  0  0  0  0  0  0  0  0
   -0.7810    0.6003   -0.8267 C   0  0  1  0  0  0  0  0  0  0  0  0
   -1.1254    1.6187   -0.6196 H   0  0  0  0  0  0  0  0  0  0  0  0
    0.1804    0.2631    0.3354 C   0  0  0  0  0  0  0  0  0  0  0  0
    0.4950   -0.7824    0.2791 H   0  0  0  0  0  0  0  0  0  0  0  0
    1.0899    0.8667    0.2483 H   0  0  0  0  0  0  0  0  0  0  0  0
   -0.4491    0.5517    1.6765 C   0  0  0  0  0  0  0  0  0  0  0  0
   -1.0763   -0.3397    2.5134 C   0  0  0  0  0  0  0  0  0  0  0  0
   -1.1682   -1.4102    2.3382 H   0  0  0  0  0  0  0  0  0  0  0  0
   -1.5515    0.3728    3.6129 N   0  0  0  0  0  0  0  0  0  0  0  0
   -2.0306   -0.0345    4.4128 H   0  0  0  0  0  0  0  0  0  0  0  0
   -1.2412    1.7174    3.4875 C   0  0  0  0  0  0  0  0  0  0  0  0
   -1.4969    2.8151    4.3101 C   0  0  0  0  0  0  0  0  0  0  0  0
   -2.0316    2.6861    5.2447 H   0  0  0  0  0  0  0  0  0  0  0  0
   -1.0533    4.0848    3.9130 C   0  0  0  0  0  0  0  0  0  0  0  0
   -1.2435    4.9481    4.5437 H   0  0  0  0  0  0  0  0  0  0  0  0
   -0.3606    4.2418    2.7024 C   0  0  0  0  0  0  0  0  0  0  0  0
   -0.0161    5.2255    2.3980 H   0  0  0  0  0  0  0  0  0  0  0  0
   -0.1068    3.1314    1.8845 C   0  0  0  0  0  0  0  0  0  0  0  0
    0.4330    3.2466    0.9492 H   0  0  0  0  0  0  0  0  0  0  0  0
   -0.5534    1.8693    2.2893 C   0  0  0  0  0  0  0  0  0  0  0  0
    0.0057    0.7102   -2.1454 C   0  0  0  0  0  0  0  0  0  0  0  0
    0.6646    1.7127   -2.3872 O   0  0  0  0  0  0  0  0  0  0  0  0
   -0.0544   -0.3101   -3.0762 N   0  0  0  0  0  0  0  0  0  0  0  0
   -0.5227   -1.1629   -2.7777 H   0  0  0  0  0  0  0  0  0  0  0  0
    0.7088   -0.3127   -4.3175 C   0  0  0  0  0  0  0  0  0  0  0  0
    1.7833   -0.3134   -4.1066 H   0  0  0  0  0  0  0  0  0  0  0  0
    0.4696   -1.2033   -4.9063 H   0  0  0  0  0  0  0  0  0  0  0  0
    0.4677    0.5709   -4.9177 H   0  0  0  0  0  0  0  0  0  0  0  0
  1  2  1  0  0  0  0
  2  3  1  0  0  0  0
  2  4  1  0  0  0  0
  2  5  1  0  0  0  0
  5  6  2  0  0  0  0
  5  7  1  0  0  0  0
  7  8  1  0  0  0  0
  7  9  1  0  0  0  0
  9 10  1  0  0  0  0
  9 11  1  0  0  0  0
  9 29  1  0  0  0  0
 11 12  1  0  0  0  0
 11 13  1  0  0  0  0
 11 14  1  0  0  0  0
 14 15  2  0  0  0  0
 14 28  1  0  0  0  0
 15 16  1  0  0  0  0
 15 17  1  0  0  0  0
 17 18  1  0  0  0  0
 17 19  1  0  0  0  0
 19 20  1  0  0  0  0
 19 28  2  0  0  0  0
 20 21  1  0  0  0  0
 20 22  2  0  0  0  0
 22 23  1  0  0  0  0
 22 24  1  0  0  0  0
 24 25  1  0  0  0  0
 24 26  2  0  0  0  0
 26 27  1  0  0  0  0
 26 28  1  0  0  0  0
 29 30  2  0  0  0  0
 29 31  1  0  0  0  0
 31 32  1  0  0  0  0
 31 33  1  0  0  0  0
 33 34  1  0  0  0  0
 33 35  1  0  0  0  0
 33 36  1  0  0  0  0
M  END
$$$$

  -OEChem-01062216103D

 36 37  0     1  0  0  0  0  0999 V2000
   -3.9445   -2.7032    0.3028 H   0  0  0  0  0  0  0  0  0  0  0  0
   -3.8310   -1.7712   -0.2582 C   0  0  0  0  0  0  0  0  0  0  0  0
   -4.3844   -0.9826    0.2578 H   0  0  0  0  0  0  0  0  0  0  0  0
   -4.2501   -1.9084   -1.2580 H   0  0  0  0  0  0  0  0  0  0  0  0
   -2.3644   -1.3963   -0.3560 C   0  0  0  0  0  0  0  0  0  0  0  0
   -1.5236   -2.2010    0.0041 O   0  0  0  0  0  0  0  0  0  0  0  0
   -2.0179   -0.2191   -0.9891 N   0  0  0  0  0  0  0  0  0  0  0  0
   -2.8249    0.3171   -1.2949 H   0  0  0  0  0  0  0  0  0  0  0  0
   -0.7773    0.5849   -0.8248 C   0  0  1  0  0  0  0  0  0  0  0  0
   -1.1198    1.6025   -0.6123 H   0  0  0  0  0  0  0  0  0  0  0  0
    0.1856    0.2427    0.3366 C   0  0  0  0  0  0  0  0  0  0  0  0
    0.4950   -0.8042    0.2809 H   0  0  0  0  0  0  0  0  0  0  0  0
    1.0989    0.8401    0.2518 H   0  0  0  0  0  0  0  0  0  0  0  0
   -0.4437    0.5391    1.6761 C   0  0  0  0  0  0  0  0  0  0  0  0
   -1.0777   -0.3454    2.5150 C   0  0  0  0  0  0  0  0  0  0  0  0
   -1.1705   -1.4166    2.3454 H   0  0  0  0  0  0  0  0  0  0  0  0
   -1.5599    0.3751    3.6063 N   0  0  0  0  0  0  0  0  0  0  0  0
   -2.0451   -0.0258    4.4058 H   0  0  0  0  0  0  0  0  0  0  0  0
   -1.2465    1.7184    3.4736 C   0  0  0  0  0  0  0  0  0  0  0  0
   -1.5068    2.8225    4.2860 C   0  0  0  0  0  0  0  0  0  0  0  0
   -2.0500    2.7006    5.2165 H   0  0  0  0  0  0  0  0  0  0  0  0
   -1.0564    4.0881    3.8836 C   0  0  0  0  0  0  0  0  0  0  0  0
   -1.2499    4.9564    4.5061 H   0  0  0  0  0  0  0  0  0  0  0  0
   -0.3534    4.2352    2.6778 C   0  0  0  0  0  0  0  0  0  0  0  0
   -0.0046    5.2157    2.3685 H   0  0  0  0  0  0  0  0  0  0  0  0
   -0.0957    3.1189    1.8697 C   0  0  0  0  0  0  0  0  0  0  0  0
    0.4518    3.2265    0.9381 H   0  0  0  0  0  0  0  0  0  0  0  0
   -0.5488    1.8607    2.2797 C   0  0  0  0  0  0  0  0  0  0  0  0
    0.0000    0.7097   -2.1510 C   0  0  0  0  0  0  0  0  0  0  0  0
    0.8305    1.5968   -2.2977 O   0  0  0  0  0  0  0  0  0  0  0  0
   -0.2927   -0.1254   -3.2137 N   0  0  0  0  0  0  0  0  0  0  0  0
   -0.8883   -0.9217   -3.0014 H   0  0  0  0  0  0  0  0  0  0  0  0
    0.4364   -0.1038   -4.4753 C   0  0  0  0  0  0  0  0  0  0  0  0
    1.4860   -0.3720   -4.3160 H   0  0  0  0  0  0  0  0  0  0  0  0
   -0.0029   -0.8194   -5.1768 H   0  0  0  0  0  0  0  0  0  0  0  0
    0.3921    0.8923   -4.9283 H   0  0  0  0  0  0  0  0  0  0  0  0
  1  2  1  0  0  0  0
  2  3  1  0  0  0  0
  2  4  1  0  0  0  0
  2  5  1  0  0  0  0
  5  6  2  0  0  0  0
  5  7  1  0  0  0  0
  7  8  1  0  0  0  0
  7  9  1  0  0  0  0
  9 10  1  0  0  0  0
  9 11  1  0  0  0  0
  9 29  1  0  0  0  0
 11 12  1  0  0  0  0
 11 13  1  0  0  0  0
 11 14  1  0  0  0  0
 14 15  2  0  0  0  0
 14 28  1  0  0  0  0
 15 16  1  0  0  0  0
 15 17  1  0  0  0  0
 17 18  1  0  0  0  0
 17 19  1  0  0  0  0
 19 20  1  0  0  0  0
 19 28  2  0  0  0  0
 20 21  1  0  0  0  0
 20 22  2  0  0  0  0
 22 23  1  0  0  0  0
 22 24  1  0  0  0  0
 24 25  1  0  0  0  0
 24 26  2  0  0  0  0
 26 27  1  0  0  0  0
 26 28  1  0  0  0  0
 29 30  2  0  0  0  0
 29 31  1  0  0  0  0
 31 32  1  0  0  0  0
 31 33  1  0  0  0  0
 33 34  1  0  0  0  0
 33 35  1  0  0  0  0
 33 36  1  0  0  0  0
M  END
$$$$

  -OEChem-01062216103D

 36 37  0     1  0  0  0  0  0999 V2000
   -3.9241   -2.7293    0.2989 H   0  0  0  0  0  0  0  0  0  0  0  0
   -3.8170   -1.7867   -0.2458 C   0  0  0  0  0  0  0  0  0  0  0  0
   -4.3598   -1.0072    0.2947 H   0  0  0  0  0  0  0  0  0  0  0  0
   -4.2529   -1.9039   -1.2408 H   0  0  0  0  0  0  0  0  0  0  0  0
   -2.3513   -1.4124   -0.3605 C   0  0  0  0  0  0  0  0  0  0  0  0
   -1.5086   -2.2139    0.0014 O   0  0  0  0  0  0  0  0  0  0  0  0
   -2.0137   -0.2335   -0.9967 N   0  0  0  0  0  0  0  0  0  0  0  0
   -2.8273    0.3037   -1.2821 H   0  0  0  0  0  0  0  0  0  0  0  0
   -0.7751    0.5768   -0.8385 C   0  0  1  0  0  0  0  0  0  0  0  0
   -1.1209    1.5940   -0.6296 H   0  0  0  0  0  0  0  0  0  0  0  0
    0.1837    0.2395    0.3307 C   0  0  0  0  0  0  0  0  0  0  0  0
    0.4952   -0.8070    0.2802 H   0  0  0  0  0  0  0  0  0  0  0  0
    1.0975    0.8367    0.2521 H   0  0  0  0  0  0  0  0  0  0  0  0
   -0.4511    0.5423    1.6668 C   0  0  0  0  0  0  0  0  0  0  0  0
   -1.0881   -0.3409    2.5046 C   0  0  0  0  0  0  0  0  0  0  0  0
   -1.1819   -1.4121    2.3354 H   0  0  0  0  0  0  0  0  0  0  0  0
   -1.5707    0.3800    3.5952 N   0  0  0  0  0  0  0  0  0  0  0  0
   -2.0557   -0.0208    4.3949 H   0  0  0  0  0  0  0  0  0  0  0  0
   -1.2528    1.7222    3.4643 C   0  0  0  0  0  0  0  0  0  0  0  0
   -1.5108    2.8253    4.2786 C   0  0  0  0  0  0  0  0  0  0  0  0
   -2.0562    2.7032    5.2077 H   0  0  0  0  0  0  0  0  0  0  0  0
   -1.0551    4.0903    3.8799 C   0  0  0  0  0  0  0  0  0  0  0  0
   -1.2478    4.9573    4.5048 H   0  0  0  0  0  0  0  0  0  0  0  0
   -0.3469    4.2369    2.6767 C   0  0  0  0  0  0  0  0  0  0  0  0
    0.0093    5.2166    2.3727 H   0  0  0  0  0  0  0  0  0  0  0  0
   -0.0920    3.1209    1.8665 C   0  0  0  0  0  0  0  0  0  0  0  0
    0.4607    3.2264    0.9376 H   0  0  0  0  0  0  0  0  0  0  0  0
   -0.5526    1.8639    2.2719 C   0  0  0  0  0  0  0  0  0  0  0  0
   -0.0027    0.7050   -2.1706 C   0  0  0  0  0  0  0  0  0  0  0  0
    0.9757    1.4358   -2.2559 O   0  0  0  0  0  0  0  0  0  0  0  0
   -0.4842    0.1006   -3.3181 N   0  0  0  0  0  0  0  0  0  0  0  0
   -1.2049   -0.6018   -3.1776 H   0  0  0  0  0  0  0  0  0  0  0  0
    0.2077    0.1539   -4.6001 C   0  0  0  0  0  0  0  0  0  0  0  0
    1.1897   -0.3248   -4.5260 H   0  0  0  0  0  0  0  0  0  0  0  0
   -0.3759   -0.3656   -5.3662 H   0  0  0  0  0  0  0  0  0  0  0  0
    0.3452    1.1928   -4.9185 H   0  0  0  0  0  0  0  0  0  0  0  0
  1  2  1  0  0  0  0
  2  3  1  0  0  0  0
  2  4  1  0  0  0  0
  2  5  1  0  0  0  0
  5  6  2  0  0  0  0
  5  7  1  0  0  0  0
  7  8  1  0  0  0  0
  7  9  1  0  0  0  0
  9 10  1  0  0  0  0
  9 11  1  0  0  0  0
  9 29  1  0  0  0  0
 11 12  1  0  0  0  0
 11 13  1  0  0  0  0
 11 14  1  0  0  0  0
 14 15  2  0  0  0  0
 14 28  1  0  0  0  0
 15 16  1  0  0  0  0
 15 17  1  0  0  0  0
 17 18  1  0  0  0  0
 17 19  1  0  0  0  0
 19 20  1  0  0  0  0
 19 28  2  0  0  0  0
 20 21  1  0  0  0  0
 20 22  2  0  0  0  0
 22 23  1  0  0  0  0
 22 24  1  0  0  0  0
 24 25  1  0  0  0  0
 24 26  2  0  0  0  0
 26 27  1  0  0  0  0
 26 28  1  0  0  0  0
 29 30  2  0  0  0  0
 29 31  1  0  0  0  0
 31 32  1  0  0  0  0
 31 33  1  0  0  0  0
 33 34  1  0  0  0  0
 33 35  1  0  0  0  0
 33 36  1  0  0  0  0
M  END
$$$$

  -OEChem-01062216103D

 36 37  0     1  0  0  0  0  0999 V2000
   -3.9012   -2.7483    0.2887 H   0  0  0  0  0  0  0  0  0  0  0  0
   -3.7989   -1.7997   -0.2463 C   0  0  0  0  0  0  0  0  0  0  0  0
   -4.3371   -1.0262    0.3071 H   0  0  0  0  0  0  0  0  0  0  0  0
   -4.2432   -1.9064   -1.2388 H   0  0  0  0  0  0  0  0  0  0  0  0
   -2.3340   -1.4244   -0.3689 C   0  0  0  0  0  0  0  0  0  0  0  0
   -1.4908   -2.2245   -0.0052 O   0  0  0  0  0  0  0  0  0  0  0  0
   -2.0029   -0.2404   -1.0000 N   0  0  0  0  0  0  0  0  0  0  0  0
   -2.8220    0.3013   -1.2591 H   0  0  0  0  0  0  0  0  0  0  0  0
   -0.7634    0.5692   -0.8438 C   0  0  1  0  0  0  0  0  0  0  0  0
   -1.1083    1.5859   -0.6331 H   0  0  0  0  0  0  0  0  0  0  0  0
    0.1920    0.2310    0.3297 C   0  0  0  0  0  0  0  0  0  0  0  0
    0.5031   -0.8156    0.2812 H   0  0  0  0  0  0  0  0  0  0  0  0
    1.1071    0.8271    0.2575 H   0  0  0  0  0  0  0  0  0  0  0  0
   -0.4480    0.5386    1.6621 C   0  0  0  0  0  0  0  0  0  0  0  0
   -1.0909   -0.3420    2.4984 C   0  0  0  0  0  0  0  0  0  0  0  0
   -1.1836   -1.4136    2.3313 H   0  0  0  0  0  0  0  0  0  0  0  0
   -1.5792    0.3824    3.5842 N   0  0  0  0  0  0  0  0  0  0  0  0
   -2.0674   -0.0161    4.3831 H   0  0  0  0  0  0  0  0  0  0  0  0
   -1.2592    1.7238    3.4513 C   0  0  0  0  0  0  0  0  0  0  0  0
   -1.5206    2.8290    4.2611 C   0  0  0  0  0  0  0  0  0  0  0  0
   -2.0701    2.7092    5.1882 H   0  0  0  0  0  0  0  0  0  0  0  0
   -1.0621    4.0925    3.8613 C   0  0  0  0  0  0  0  0  0  0  0  0
   -1.2575    4.9613    4.4830 H   0  0  0  0  0  0  0  0  0  0  0  0
   -0.3473    4.2355    2.6616 C   0  0  0  0  0  0  0  0  0  0  0  0
    0.0110    5.2140    2.3566 H   0  0  0  0  0  0  0  0  0  0  0  0
   -0.0878    3.1171    1.8567 C   0  0  0  0  0  0  0  0  0  0  0  0
    0.4718    3.2194    0.9319 H   0  0  0  0  0  0  0  0  0  0  0  0
   -0.5519    1.8618    2.2627 C   0  0  0  0  0  0  0  0  0  0  0  0
   -0.0026    0.7043   -2.1846 C   0  0  0  0  0  0  0  0  0  0  0  0
    1.1026    1.2283   -2.2354 O   0  0  0  0  0  0  0  0  0  0  0  0
   -0.6315    0.3836   -3.3752 N   0  0  0  0  0  0  0  0  0  0  0  0
   -1.4728   -0.1785   -3.2934 H   0  0  0  0  0  0  0  0  0  0  0  0
    0.0273    0.4740   -4.6728 C   0  0  0  0  0  0  0  0  0  0  0  0
    0.8897   -0.1997   -4.7121 H   0  0  0  0  0  0  0  0  0  0  0  0
   -0.6682    0.1961   -5.4705 H   0  0  0  0  0  0  0  0  0  0  0  0
    0.3707    1.4974   -4.8580 H   0  0  0  0  0  0  0  0  0  0  0  0
  1  2  1  0  0  0  0
  2  3  1  0  0  0  0
  2  4  1  0  0  0  0
  2  5  1  0  0  0  0
  5  6  2  0  0  0  0
  5  7  1  0  0  0  0
  7  8  1  0  0  0  0
  7  9  1  0  0  0  0
  9 10  1  0  0  0  0
  9 11  1  0  0  0  0
  9 29  1  0  0  0  0
 11 12  1  0  0  0  0
 11 13  1  0  0  0  0
 11 14  1  0  0  0  0
 14 15  2  0  0  0  0
 14 28  1  0  0  0  0
 15 16  1  0  0  0  0
 15 17  1  0  0  0  0
 17 18  1  0  0  0  0
 17 19  1  0  0  0  0
 19 20  1  0  0  0  0
 19 28  2  0  0  0  0
 20 21  1  0  0  0  0
 20 22  2  0  0  0  0
 22 23  1  0  0  0  0
 22 24  1  0  0  0  0
 24 25  1  0  0  0  0
 24 26  2  0  0  0  0
 26 27  1  0  0  0  0
 26 28  1  0  0  0  0
 29 30  2  0  0  0  0
 29 31  1  0  0  0  0
 31 32  1  0  0  0  0
 31 33  1  0  0  0  0
 33 34  1  0  0  0  0
 33 35  1  0  0  0  0
 33 36  1  0  0  0  0
M  END
$$$$

  -OEChem-01062216103D

 36 37  0     1  0  0  0  0  0999 V2000
   -3.8894   -2.7558    0.2770 H   0  0  0  0  0  0  0  0  0  0  0  0
   -3.7833   -1.8168   -0.2739 C   0  0  0  0  0  0  0  0  0  0  0  0
   -4.3353   -1.0363    0.2556 H   0  0  0  0  0  0  0  0  0  0  0  0
   -4.2097   -1.9448   -1.2717 H   0  0  0  0  0  0  0  0  0  0  0  0
   -2.3186   -1.4352   -0.3801 C   0  0  0  0  0  0  0  0  0  0  0  0
   -1.4772   -2.2306   -0.0028 O   0  0  0  0  0  0  0  0  0  0  0  0
   -1.9894   -0.2470   -1.0052 N   0  0  0  0  0  0  0  0  0  0  0  0
   -2.8112    0.2939   -1.2549 H   0  0  0  0  0  0  0  0  0  0  0  0
   -0.7499    0.5625   -0.8493 C   0  0  1  0  0  0  0  0  0  0  0  0
   -1.0951    1.5790   -0.6372 H   0  0  0  0  0  0  0  0  0  0  0  0
    0.2026    0.2284    0.3288 C   0  0  0  0  0  0  0  0  0  0  0  0
    0.5140   -0.8182    0.2849 H   0  0  0  0  0  0  0  0  0  0  0  0
    1.1176    0.8243    0.2585 H   0  0  0  0  0  0  0  0  0  0  0  0
   -0.4424    0.5424    1.6577 C   0  0  0  0  0  0  0  0  0  0  0  0
   -1.0881   -0.3372    2.4924 C   0  0  0  0  0  0  0  0  0  0  0  0
   -1.1793   -1.4092    2.3264 H   0  0  0  0  0  0  0  0  0  0  0  0
   -1.5845    0.3889    3.5733 N   0  0  0  0  0  0  0  0  0  0  0  0
   -2.0764   -0.0091    4.3703 H   0  0  0  0  0  0  0  0  0  0  0  0
   -1.2640    1.7303    3.4404 C   0  0  0  0  0  0  0  0  0  0  0  0
   -1.5305    2.8359    4.2482 C   0  0  0  0  0  0  0  0  0  0  0  0
   -2.0879    2.7168    5.1705 H   0  0  0  0  0  0  0  0  0  0  0  0
   -1.0661    4.0988    3.8533 C   0  0  0  0  0  0  0  0  0  0  0  0
   -1.2625    4.9682    4.4738 H   0  0  0  0  0  0  0  0  0  0  0  0
   -0.3417    4.2407    2.6594 C   0  0  0  0  0  0  0  0  0  0  0  0
    0.0216    5.2188    2.3586 H   0  0  0  0  0  0  0  0  0  0  0  0
   -0.0787    3.1219    1.8557 C   0  0  0  0  0  0  0  0  0  0  0  0
    0.4892    3.2243    0.9362 H   0  0  0  0  0  0  0  0  0  0  0  0
   -0.5484    1.8669    2.2567 C   0  0  0  0  0  0  0  0  0  0  0  0
   -0.0014    0.6997   -2.1982 C   0  0  0  0  0  0  0  0  0  0  0  0
    1.1907    0.9738   -2.2491 O   0  0  0  0  0  0  0  0  0  0  0  0
   -0.7165    0.6862   -3.3838 N   0  0  0  0  0  0  0  0  0  0  0  0
   -1.6594    0.3162   -3.3325 H   0  0  0  0  0  0  0  0  0  0  0  0
   -0.0902    0.8191   -4.6941 C   0  0  0  0  0  0  0  0  0  0  0  0
    0.6039   -0.0087   -4.8733 H   0  0  0  0  0  0  0  0  0  0  0  0
   -0.8519    0.8107   -5.4797 H   0  0  0  0  0  0  0  0  0  0  0  0
    0.4615    1.7628   -4.7620 H   0  0  0  0  0  0  0  0  0  0  0  0
  1  2  1  0  0  0  0
  2  3  1  0  0  0  0
  2  4  1  0  0  0  0
  2  5  1  0  0  0  0
  5  6  2  0  0  0  0
  5  7  1  0  0  0  0
  7  8  1  0  0  0  0
  7  9  1  0  0  0  0
  9 10  1  0  0  0  0
  9 11  1  0  0  0  0
  9 29  1  0  0  0  0
 11 12  1  0  0  0  0
 11 13  1  0  0  0  0
 11 14  1  0  0  0  0
 14 15  2  0  0  0  0
 14 28  1  0  0  0  0
 15 16  1  0  0  0  0
 15 17  1  0  0  0  0
 17 18  1  0  0  0  0
 17 19  1  0  0  0  0
 19 20  1  0  0  0  0
 19 28  2  0  0  0  0
 20 21  1  0  0  0  0
 20 22  2  0  0  0  0
 22 23  1  0  0  0  0
 22 24  1  0  0  0  0
 24 25  1  0  0  0  0
 24 26  2  0  0  0  0
 26 27  1  0  0  0  0
 26 28  1  0  0  0  0
 29 30  2  0  0  0  0
 29 31  1  0  0  0  0
 31 32  1  0  0  0  0
 31 33  1  0  0  0  0
 33 34  1  0  0  0  0
 33 35  1  0  0  0  0
 33 36  1  0  0  0  0
M  END
$$$$

  -OEChem-01062216103D

 36 37  0     1  0  0  0  0  0999 V2000
   -3.8943   -2.7825    0.2264 H   0  0  0  0  0  0  0  0  0  0  0  0
   -3.7802   -1.8497   -0.3333 C   0  0  0  0  0  0  0  0  0  0  0  0
   -4.3654   -1.0712    0.1621 H   0  0  0  0  0  0  0  0  0  0  0  0
   -4.1631   -1.9985   -1.3458 H   0  0  0  0  0  0  0  0  0  0  0  0
   -2.3184   -1.4469   -0.3867 C   0  0  0  0  0  0  0  0  0  0  0  0
   -1.4826   -2.2293    0.0280 O   0  0  0  0  0  0  0  0  0  0  0  0
   -1.9869   -0.2525   -0.9995 N   0  0  0  0  0  0  0  0  0  0  0  0
   -2.8054    0.2777   -1.2780 H   0  0  0  0  0  0  0  0  0  0  0  0
   -0.7460    0.5528   -0.8435 C   0  0  1  0  0  0  0  0  0  0  0  0
   -1.0904    1.5676   -0.6240 H   0  0  0  0  0  0  0  0  0  0  0  0
    0.2104    0.2221    0.3318 C   0  0  0  0  0  0  0  0  0  0  0  0
    0.5225   -0.8246    0.2904 H   0  0  0  0  0  0  0  0  0  0  0  0
    1.1240    0.8198    0.2543 H   0  0  0  0  0  0  0  0  0  0  0  0
   -0.4326    0.5408    1.6603 C   0  0  0  0  0  0  0  0  0  0  0  0
   -1.0773   -0.3339    2.5009 C   0  0  0  0  0  0  0  0  0  0  0  0
   -1.1682   -1.4070    2.3416 H   0  0  0  0  0  0  0  0  0  0  0  0
   -1.5732    0.3990    3.5776 N   0  0  0  0  0  0  0  0  0  0  0  0
   -2.0647    0.0053    4.3768 H   0  0  0  0  0  0  0  0  0  0  0  0
   -1.2548    1.7401    3.4357 C   0  0  0  0  0  0  0  0  0  0  0  0
   -1.5231    2.8517    4.2349 C   0  0  0  0  0  0  0  0  0  0  0  0
   -2.0801    2.7391    5.1584 H   0  0  0  0  0  0  0  0  0  0  0  0
   -1.0614    4.1124    3.8300 C   0  0  0  0  0  0  0  0  0  0  0  0
   -1.2598    4.9857    4.4444 H   0  0  0  0  0  0  0  0  0  0  0  0
   -0.3377    4.2468    2.6350 C   0  0  0  0  0  0  0  0  0  0  0  0
    0.0236    5.2235    2.3275 H   0  0  0  0  0  0  0  0  0  0  0  0
   -0.0723    3.1225    1.8400 C   0  0  0  0  0  0  0  0  0  0  0  0
    0.4958    3.2195    0.9202 H   0  0  0  0  0  0  0  0  0  0  0  0
   -0.5396    1.8694    2.2506 C   0  0  0  0  0  0  0  0  0  0  0  0
   -0.0099    0.7001   -2.1977 C   0  0  0  0  0  0  0  0  0  0  0  0
    1.2108    0.6658   -2.2831 O   0  0  0  0  0  0  0  0  0  0  0  0
   -0.7323    1.0114   -3.3378 N   0  0  0  0  0  0  0  0  0  0  0  0
   -1.7422    0.9506   -3.2749 H   0  0  0  0  0  0  0  0  0  0  0  0
   -0.1206    1.1783   -4.6513 C   0  0  0  0  0  0  0  0  0  0  0  0
    0.3618    0.2486   -4.9707 H   0  0  0  0  0  0  0  0  0  0  0  0
   -0.8810    1.4469   -5.3908 H   0  0  0  0  0  0  0  0  0  0  0  0
    0.6309    1.9747   -4.6270 H   0  0  0  0  0  0  0  0  0  0  0  0
  1  2  1  0  0  0  0
  2  3  1  0  0  0  0
  2  4  1  0  0  0  0
  2  5  1  0  0  0  0
  5  6  2  0  0  0  0
  5  7  1  0  0  0  0
  7  8  1  0  0  0  0
  7  9  1  0  0  0  0
  9 10  1  0  0  0  0
  9 11  1  0  0  0  0
  9 29  1  0  0  0  0
 11 12  1  0  0  0  0
 11 13  1  0  0  0  0
 11 14  1  0  0  0  0
 14 15  2  0  0  0  0
 14 28  1  0  0  0  0
 15 16  1  0  0  0  0
 15 17  1  0  0  0  0
 17 18  1  0  0  0  0
 17 19  1  0  0  0  0
 19 20  1  0  0  0  0
 19 28  2  0  0  0  0
 20 21  1  0  0  0  0
 20 22  2  0  0  0  0
 22 23  1  0  0  0  0
 22 24  1  0  0  0  0
 24 25  1  0  0  0  0
 24 26  2  0  0  0  0
 26 27  1  0  0  0  0
 26 28  1  0  0  0  0
 29 30  2  0  0  0  0
 29 31  1  0  0  0  0
 31 32  1  0  0  0  0
 31 33  1  0  0  0  0
 33 34  1  0  0  0  0
 33 35  1  0  0  0  0
 33 36  1  0  0  0  0
M  END
$$$$

  -OEChem-01062216103D

 36 37  0     1  0  0  0  0  0999 V2000
   -3.9228   -2.8119    0.1476 H   0  0  0  0  0  0  0  0  0  0  0  0
   -3.7921   -1.8938   -0.4324 C   0  0  0  0  0  0  0  0  0  0  0  0
   -4.4333   -1.1180   -0.0073 H   0  0  0  0  0  0  0  0  0  0  0  0
   -4.0943   -2.0845   -1.4650 H   0  0  0  0  0  0  0  0  0  0  0  0
   -2.3412   -1.4511   -0.3907 C   0  0  0  0  0  0  0  0  0  0  0  0
   -1.5180   -2.2056    0.0947 O   0  0  0  0  0  0  0  0  0  0  0  0
   -2.0014   -0.2558   -0.9975 N   0  0  0  0  0  0  0  0  0  0  0  0
   -2.8028    0.2389   -1.3731 H   0  0  0  0  0  0  0  0  0  0  0  0
   -0.7639    0.5531   -0.8410 C   0  0  1  0  0  0  0  0  0  0  0  0
   -1.1132    1.5655   -0.6184 H   0  0  0  0  0  0  0  0  0  0  0  0
    0.2014    0.2365    0.3289 C   0  0  0  0  0  0  0  0  0  0  0  0
    0.5155   -0.8101    0.2895 H   0  0  0  0  0  0  0  0  0  0  0  0
    1.1118    0.8367    0.2337 H   0  0  0  0  0  0  0  0  0  0  0  0
   -0.4292    0.5545    1.6643 C   0  0  0  0  0  0  0  0  0  0  0  0
   -1.0585   -0.3192    2.5178 C   0  0  0  0  0  0  0  0  0  0  0  0
   -1.1479   -1.3933    2.3655 H   0  0  0  0  0  0  0  0  0  0  0  0
   -1.5419    0.4158    3.5987 N   0  0  0  0  0  0  0  0  0  0  0  0
   -2.0253    0.0237    4.4036 H   0  0  0  0  0  0  0  0  0  0  0  0
   -1.2288    1.7568    3.4488 C   0  0  0  0  0  0  0  0  0  0  0  0
   -1.4886    2.8689    4.2500 C   0  0  0  0  0  0  0  0  0  0  0  0
   -2.0333    2.7558    5.1808 H   0  0  0  0  0  0  0  0  0  0  0  0
   -1.0346    4.1297    3.8370 C   0  0  0  0  0  0  0  0  0  0  0  0
   -1.2280    5.0037    4.4519 H   0  0  0  0  0  0  0  0  0  0  0  0
   -0.3265    4.2633    2.6325 C   0  0  0  0  0  0  0  0  0  0  0  0
    0.0292    5.2401    2.3187 H   0  0  0  0  0  0  0  0  0  0  0  0
   -0.0706    3.1381    1.8356 C   0  0  0  0  0  0  0  0  0  0  0  0
    0.4856    3.2347    0.9089 H   0  0  0  0  0  0  0  0  0  0  0  0
   -0.5308    1.8847    2.2534 C   0  0  0  0  0  0  0  0  0  0  0  0
   -0.0316    0.6995   -2.1952 C   0  0  0  0  0  0  0  0  0  0  0  0
    1.1358    0.3636   -2.3447 O   0  0  0  0  0  0  0  0  0  0  0  0
   -0.6806    1.3033   -3.2598 N   0  0  0  0  0  0  0  0  0  0  0  0
   -1.6451    1.5853   -3.1257 H   0  0  0  0  0  0  0  0  0  0  0  0
   -0.0653    1.4974   -4.5678 C   0  0  0  0  0  0  0  0  0  0  0  0
    0.2192    0.5342   -5.0044 H   0  0  0  0  0  0  0  0  0  0  0  0
   -0.7685    1.9900   -5.2463 H   0  0  0  0  0  0  0  0  0  0  0  0
    0.8292    2.1235   -4.4825 H   0  0  0  0  0  0  0  0  0  0  0  0
  1  2  1  0  0  0  0
  2  3  1  0  0  0  0
  2  4  1  0  0  0  0
  2  5  1  0  0  0  0
  5  6  2  0  0  0  0
  5  7  1  0  0  0  0
  7  8  1  0  0  0  0
  7  9  1  0  0  0  0
  9 10  1  0  0  0  0
  9 11  1  0  0  0  0
  9 29  1  0  0  0  0
 11 12  1  0  0  0  0
 11 13  1  0  0  0  0
 11 14  1  0  0  0  0
 14 15  2  0  0  0  0
 14 28  1  0  0  0  0
 15 16  1  0  0  0  0
 15 17  1  0  0  0  0
 17 18  1  0  0  0  0
 17 19  1  0  0  0  0
 19 20  1  0  0  0  0
 19 28  2  0  0  0  0
 20 21  1  0  0  0  0
 20 22  2  0  0  0  0
 22 23  1  0  0  0  0
 22 24  1  0  0  0  0
 24 25  1  0  0  0  0
 24 26  2  0  0  0  0
 26 27  1  0  0  0  0
 26 28  1  0  0  0  0
 29 30  2  0  0  0  0
 29 31  1  0  0  0  0
 31 32  1  0  0  0  0
 31 33  1  0  0  0  0
 33 34  1  0  0  0  0
 33 35  1  0  0  0  0
 33 36  1  0  0  0  0
M  END
$$$$

  -OEChem-01062216103D

 36 37  0     1  0  0  0  0  0999 V2000
   -3.9467   -2.8423    0.0720 H   0  0  0  0  0  0  0  0  0  0  0  0
   -3.8050   -1.9218   -0.5018 C   0  0  0  0  0  0  0  0  0  0  0  0
   -4.4779   -1.1569   -0.1067 H   0  0  0  0  0  0  0  0  0  0  0  0
   -4.0564   -2.1173   -1.5472 H   0  0  0  0  0  0  0  0  0  0  0  0
   -2.3653   -1.4541   -0.3939 C   0  0  0  0  0  0  0  0  0  0  0  0
   -1.5562   -2.1882    0.1437 O   0  0  0  0  0  0  0  0  0  0  0  0
   -2.0191   -0.2582   -0.9957 N   0  0  0  0  0  0  0  0  0  0  0  0
   -2.7980    0.2037   -1.4520 H   0  0  0  0  0  0  0  0  0  0  0  0
   -0.7846    0.5530   -0.8411 C   0  0  1  0  0  0  0  0  0  0  0  0
   -1.1391    1.5621   -0.6125 H   0  0  0  0  0  0  0  0  0  0  0  0
    0.1912    0.2468    0.3210 C   0  0  0  0  0  0  0  0  0  0  0  0
    0.5051   -0.8000    0.2826 H   0  0  0  0  0  0  0  0  0  0  0  0
    1.0993    0.8479    0.2105 H   0  0  0  0  0  0  0  0  0  0  0  0
   -0.4284    0.5643    1.6625 C   0  0  0  0  0  0  0  0  0  0  0  0
   -1.0447   -0.3071    2.5278 C   0  0  0  0  0  0  0  0  0  0  0  0
   -1.1349   -1.3817    2.3818 H   0  0  0  0  0  0  0  0  0  0  0  0
   -1.5159    0.4304    3.6121 N   0  0  0  0  0  0  0  0  0  0  0  0
   -1.9936    0.0397    4.4210 H   0  0  0  0  0  0  0  0  0  0  0  0
   -1.2052    1.7707    3.4549 C   0  0  0  0  0  0  0  0  0  0  0  0
   -1.4555    2.8836    4.2577 C   0  0  0  0  0  0  0  0  0  0  0  0
   -1.9876    2.7710    5.1959 H   0  0  0  0  0  0  0  0  0  0  0  0
   -1.0074    4.1439    3.8369 C   0  0  0  0  0  0  0  0  0  0  0  0
   -1.1918    5.0185    4.4539 H   0  0  0  0  0  0  0  0  0  0  0  0
   -0.3145    4.2756    2.6231 C   0  0  0  0  0  0  0  0  0  0  0  0
    0.0382    5.2519    2.3042 H   0  0  0  0  0  0  0  0  0  0  0  0
   -0.0685    3.1492    1.8246 C   0  0  0  0  0  0  0  0  0  0  0  0
    0.4756    3.2447    0.8908 H   0  0  0  0  0  0  0  0  0  0  0  0
   -0.5228    1.8962    2.2503 C   0  0  0  0  0  0  0  0  0  0  0  0
   -0.0555    0.7012   -2.1938 C   0  0  0  0  0  0  0  0  0  0  0  0
    0.9941    0.1198   -2.4326 O   0  0  0  0  0  0  0  0  0  0  0  0
   -0.5666    1.5641   -3.1492 N   0  0  0  0  0  0  0  0  0  0  0  0
   -1.4117    2.0764   -2.9200 H   0  0  0  0  0  0  0  0  0  0  0  0
    0.0701    1.7967   -4.4402 C   0  0  0  0  0  0  0  0  0  0  0  0
    0.1477    0.8608   -5.0035 H   0  0  0  0  0  0  0  0  0  0  0  0
   -0.5186    2.5063   -5.0292 H   0  0  0  0  0  0  0  0  0  0  0  0
    1.0749    2.2101   -4.3037 H   0  0  0  0  0  0  0  0  0  0  0  0
  1  2  1  0  0  0  0
  2  3  1  0  0  0  0
  2  4  1  0  0  0  0
  2  5  1  0  0  0  0
  5  6  2  0  0  0  0
  5  7  1  0  0  0  0
  7  8  1  0  0  0  0
  7  9  1  0  0  0  0
  9 10  1  0  0  0  0
  9 11  1  0  0  0  0
  9 29  1  0  0  0  0
 11 12  1  0  0  0  0
 11 13  1  0  0  0  0
 11 14  1  0  0  0  0
 14 15  2  0  0  0  0
 14 28  1  0  0  0  0
 15 16  1  0  0  0  0
 15 17  1  0  0  0  0
 17 18  1  0  0  0  0
 17 19  1  0  0  0  0
 19 20  1  0  0  0  0
 19 28  2  0  0  0  0
 20 21  1  0  0  0  0
 20 22  2  0  0  0  0
 22 23  1  0  0  0  0
 22 24  1  0  0  0  0
 24 25  1  0  0  0  0
 24 26  2  0  0  0  0
 26 27  1  0  0  0  0
 26 28  1  0  0  0  0
 29 30  2  0  0  0  0
 29 31  1  0  0  0  0
 31 32  1  0  0  0  0
 31 33  1  0  0  0  0
 33 34  1  0  0  0  0
 33 35  1  0  0  0  0
 33 36  1  0  0  0  0
M  END
$$$$

  -OEChem-01062216103D

 36 37  0     1  0  0  0  0  0999 V2000
   -3.9653   -2.8544    0.0272 H   0  0  0  0  0  0  0  0  0  0  0  0
   -3.8198   -1.9361   -0.5491 C   0  0  0  0  0  0  0  0  0  0  0  0
   -4.5171   -1.1791   -0.1827 H   0  0  0  0  0  0  0  0  0  0  0  0
   -4.0334   -2.1436   -1.6005 H   0  0  0  0  0  0  0  0  0  0  0  0
   -2.3924   -1.4440   -0.3979 C   0  0  0  0  0  0  0  0  0  0  0  0
   -1.5915   -2.1611    0.1737 O   0  0  0  0  0  0  0  0  0  0  0  0
   -2.0464   -0.2462   -0.9961 N   0  0  0  0  0  0  0  0  0  0  0  0
   -2.8089    0.1935   -1.5001 H   0  0  0  0  0  0  0  0  0  0  0  0
   -0.8141    0.5669   -0.8430 C   0  0  1  0  0  0  0  0  0  0  0  0
   -1.1765    1.5710   -0.6050 H   0  0  0  0  0  0  0  0  0  0  0  0
    0.1756    0.2648    0.3067 C   0  0  0  0  0  0  0  0  0  0  0  0
    0.4912   -0.7815    0.2611 H   0  0  0  0  0  0  0  0  0  0  0  0
    1.0805    0.8683    0.1843 H   0  0  0  0  0  0  0  0  0  0  0  0
   -0.4256    0.5726    1.6590 C   0  0  0  0  0  0  0  0  0  0  0  0
   -1.0238   -0.3021    2.5339 C   0  0  0  0  0  0  0  0  0  0  0  0
   -1.1128   -1.3769    2.3895 H   0  0  0  0  0  0  0  0  0  0  0  0
   -1.4797    0.4325    3.6266 N   0  0  0  0  0  0  0  0  0  0  0  0
   -1.9442    0.0393    4.4419 H   0  0  0  0  0  0  0  0  0  0  0  0
   -1.1787    1.7744    3.4650 C   0  0  0  0  0  0  0  0  0  0  0  0
   -1.4214    2.8861    4.2717 C   0  0  0  0  0  0  0  0  0  0  0  0
   -1.9386    2.7711    5.2179 H   0  0  0  0  0  0  0  0  0  0  0  0
   -0.9847    4.1484    3.8449 C   0  0  0  0  0  0  0  0  0  0  0  0
   -1.1642    5.0215    4.4652 H   0  0  0  0  0  0  0  0  0  0  0  0
   -0.3101    4.2835    2.6214 C   0  0  0  0  0  0  0  0  0  0  0  0
    0.0348    5.2611    2.2978 H   0  0  0  0  0  0  0  0  0  0  0  0
   -0.0723    3.1582    1.8190 C   0  0  0  0  0  0  0  0  0  0  0  0
    0.4581    3.2563    0.8779 H   0  0  0  0  0  0  0  0  0  0  0  0
   -0.5160    1.9033    2.2500 C   0  0  0  0  0  0  0  0  0  0  0  0
   -0.0825    0.7244   -2.1918 C   0  0  0  0  0  0  0  0  0  0  0  0
    0.7868   -0.0607   -2.5435 O   0  0  0  0  0  0  0  0  0  0  0  0
   -0.3862    1.7924   -3.0197 N   0  0  0  0  0  0  0  0  0  0  0  0
   -1.0772    2.4624   -2.6973 H   0  0  0  0  0  0  0  0  0  0  0  0
    0.2850    2.0291   -4.2926 C   0  0  0  0  0  0  0  0  0  0  0  0
    0.1503    1.1726   -4.9617 H   0  0  0  0  0  0  0  0  0  0  0  0
   -0.1290    2.9164   -4.7811 H   0  0  0  0  0  0  0  0  0  0  0  0
    1.3571    2.1884   -4.1362 H   0  0  0  0  0  0  0  0  0  0  0  0
  1  2  1  0  0  0  0
  2  3  1  0  0  0  0
  2  4  1  0  0  0  0
  2  5  1  0  0  0  0
  5  6  2  0  0  0  0
  5  7  1  0  0  0  0
  7  8  1  0  0  0  0
  7  9  1  0  0  0  0
  9 10  1  0  0  0  0
  9 11  1  0  0  0  0
  9 29  1  0  0  0  0
 11 12  1  0  0  0  0
 11 13  1  0  0  0  0
 11 14  1  0  0  0  0
 14 15  2  0  0  0  0
 14 28  1  0  0  0  0
 15 16  1  0  0  0  0
 15 17  1  0  0  0  0
 17 18  1  0  0  0  0
 17 19  1  0  0  0  0
 19 20  1  0  0  0  0
 19 28  2  0  0  0  0
 20 21  1  0  0  0  0
 20 22  2  0  0  0  0
 22 23  1  0  0  0  0
 22 24  1  0  0  0  0
 24 25  1  0  0  0  0
 24 26  2  0  0  0  0
 26 27  1  0  0  0  0
 26 28  1  0  0  0  0
 29 30  2  0  0  0  0
 29 31  1  0  0  0  0
 31 32  1  0  0  0  0
 31 33  1  0  0  0  0
 33 34  1  0  0  0  0
 33 35  1  0  0  0  0
 33 36  1  0  0  0  0
M  END
$$$$

  -OEChem-01062216103D

 36 37  0     1  0  0  0  0  0999 V2000
   -3.9745   -2.8609   -0.0052 H   0  0  0  0  0  0  0  0  0  0  0  0
   -3.8232   -1.9481   -0.5888 C   0  0  0  0  0  0  0  0  0  0  0  0
   -4.5364   -1.1932   -0.2493 H   0  0  0  0  0  0  0  0  0  0  0  0
   -4.0084   -2.1697   -1.6426 H   0  0  0  0  0  0  0  0  0  0  0  0
   -2.4044   -1.4410   -0.4083 C   0  0  0  0  0  0  0  0  0  0  0  0
   -1.6105   -2.1451    0.1892 O   0  0  0  0  0  0  0  0  0  0  0  0
   -2.0587   -0.2407   -1.0008 N   0  0  0  0  0  0  0  0  0  0  0  0
   -2.8062    0.1807   -1.5418 H   0  0  0  0  0  0  0  0  0  0  0  0
   -0.8281    0.5733   -0.8444 C   0  0  1  0  0  0  0  0  0  0  0  0
   -1.1999    1.5727   -0.6020 H   0  0  0  0  0  0  0  0  0  0  0  0
    0.1650    0.2759    0.3019 C   0  0  0  0  0  0  0  0  0  0  0  0
    0.4830   -0.7699    0.2545 H   0  0  0  0  0  0  0  0  0  0  0  0
    1.0676    0.8818    0.1763 H   0  0  0  0  0  0  0  0  0  0  0  0
   -0.4316    0.5809    1.6572 C   0  0  0  0  0  0  0  0  0  0  0  0
   -1.0234   -0.2932    2.5372 C   0  0  0  0  0  0  0  0  0  0  0  0
   -1.1154   -1.3680    2.3946 H   0  0  0  0  0  0  0  0  0  0  0  0
   -1.4675    0.4415    3.6349 N   0  0  0  0  0  0  0  0  0  0  0  0
   -1.9272    0.0484    4.4530 H   0  0  0  0  0  0  0  0  0  0  0  0
   -1.1640    1.7826    3.4727 C   0  0  0  0  0  0  0  0  0  0  0  0
   -1.3938    2.8931    4.2847 C   0  0  0  0  0  0  0  0  0  0  0  0
   -1.9010    2.7780    5.2363 H   0  0  0  0  0  0  0  0  0  0  0  0
   -0.9571    4.1546    3.8563 C   0  0  0  0  0  0  0  0  0  0  0  0
   -1.1261    5.0268    4.4809 H   0  0  0  0  0  0  0  0  0  0  0  0
   -0.2965    4.2902    2.6255 C   0  0  0  0  0  0  0  0  0  0  0  0
    0.0466    5.2679    2.3008 H   0  0  0  0  0  0  0  0  0  0  0  0
   -0.0713    3.1662    1.8179 C   0  0  0  0  0  0  0  0  0  0  0  0
    0.4484    3.2650    0.8712 H   0  0  0  0  0  0  0  0  0  0  0  0
   -0.5135    1.9116    2.2510 C   0  0  0  0  0  0  0  0  0  0  0  0
   -0.0885    0.7438   -2.1865 C   0  0  0  0  0  0  0  0  0  0  0  0
    0.5453   -0.1753   -2.6851 O   0  0  0  0  0  0  0  0  0  0  0  0
   -0.1488    1.9530   -2.8586 N   0  0  0  0  0  0  0  0  0  0  0  0
   -0.6556    2.7150   -2.4187 H   0  0  0  0  0  0  0  0  0  0  0  0
    0.5302    2.1976   -4.1258 C   0  0  0  0  0  0  0  0  0  0  0  0
    0.1846    1.4919   -4.8887 H   0  0  0  0  0  0  0  0  0  0  0  0
    0.3222    3.2131   -4.4762 H   0  0  0  0  0  0  0  0  0  0  0  0
    1.6133    2.0868   -4.0078 H   0  0  0  0  0  0  0  0  0  0  0  0
  1  2  1  0  0  0  0
  2  3  1  0  0  0  0
  2  4  1  0  0  0  0
  2  5  1  0  0  0  0
  5  6  2  0  0  0  0
  5  7  1  0  0  0  0
  7  8  1  0  0  0  0
  7  9  1  0  0  0  0
  9 10  1  0  0  0  0
  9 11  1  0  0  0  0
  9 29  1  0  0  0  0
 11 12  1  0  0  0  0
 11 13  1  0  0  0  0
 11 14  1  0  0  0  0
 14 15  2  0  0  0  0
 14 28  1  0  0  0  0
 15 16  1  0  0  0  0
 15 17  1  0  0  0  0
 17 18  1  0  0  0  0
 17 19  1  0  0  0  0
 19 20  1  0  0  0  0
 19 28  2  0  0  0  0
 20 21  1  0  0  0  0
 20 22  2  0  0  0  0
 22 23  1  0  0  0  0
 22 24  1  0  0  0  0
 24 25  1  0  0  0  0
 24 26  2  0  0  0  0
 26 27  1  0  0  0  0
 26 28  1  0  0  0  0
 29 30  2  0  0  0  0
 29 31  1  0  0  0  0
 31 32  1  0  0  0  0
 31 33  1  0  0  0  0
 33 34  1  0  0  0  0
 33 35  1  0  0  0  0
 33 36  1  0  0  0  0
M  END
$$$$

  -OEChem-01062216103D

 36 37  0     1  0  0  0  0  0999 V2000
   -3.9794   -2.8882   -0.0773 H   0  0  0  0  0  0  0  0  0  0  0  0
   -3.8251   -1.9642   -0.6420 C   0  0  0  0  0  0  0  0  0  0  0  0
   -4.5617   -1.2267   -0.3145 H   0  0  0  0  0  0  0  0  0  0  0  0
   -3.9736   -2.1730   -1.7043 H   0  0  0  0  0  0  0  0  0  0  0  0
   -2.4214   -1.4355   -0.4093 C   0  0  0  0  0  0  0  0  0  0  0  0
   -1.6401   -2.1264    0.2197 O   0  0  0  0  0  0  0  0  0  0  0  0
   -2.0717   -0.2318   -0.9921 N   0  0  0  0  0  0  0  0  0  0  0  0
   -2.7919    0.1631   -1.5875 H   0  0  0  0  0  0  0  0  0  0  0  0
   -0.8375    0.5768   -0.8360 C   0  0  1  0  0  0  0  0  0  0  0  0
   -1.2147    1.5733   -0.5896 H   0  0  0  0  0  0  0  0  0  0  0  0
    0.1603    0.2800    0.3060 C   0  0  0  0  0  0  0  0  0  0  0  0
    0.4737   -0.7672    0.2583 H   0  0  0  0  0  0  0  0  0  0  0  0
    1.0644    0.8826    0.1753 H   0  0  0  0  0  0  0  0  0  0  0  0
   -0.4273    0.5874    1.6650 C   0  0  0  0  0  0  0  0  0  0  0  0
   -1.0150   -0.2838    2.5507 C   0  0  0  0  0  0  0  0  0  0  0  0
   -1.1097   -1.3586    2.4112 H   0  0  0  0  0  0  0  0  0  0  0  0
   -1.4514    0.4535    3.6494 N   0  0  0  0  0  0  0  0  0  0  0  0
   -1.9123    0.0636    4.4683 H   0  0  0  0  0  0  0  0  0  0  0  0
   -1.1461    1.7933    3.4834 C   0  0  0  0  0  0  0  0  0  0  0  0
   -1.3702    2.9045    4.2961 C   0  0  0  0  0  0  0  0  0  0  0  0
   -1.8722    2.7902    5.2505 H   0  0  0  0  0  0  0  0  0  0  0  0
   -0.9352    4.1655    3.8646 C   0  0  0  0  0  0  0  0  0  0  0  0
   -1.1005    5.0382    4.4897 H   0  0  0  0  0  0  0  0  0  0  0  0
   -0.2806    4.2993    2.6304 C   0  0  0  0  0  0  0  0  0  0  0  0
    0.0620    5.2766    2.3038 H   0  0  0  0  0  0  0  0  0  0  0  0
   -0.0607    3.1741    1.8223 C   0  0  0  0  0  0  0  0  0  0  0  0
    0.4548    3.2724    0.8734 H   0  0  0  0  0  0  0  0  0  0  0  0
   -0.5024    1.9196    2.2578 C   0  0  0  0  0  0  0  0  0  0  0  0
   -0.0969    0.7615   -2.1759 C   0  0  0  0  0  0  0  0  0  0  0  0
    0.2409   -0.2011   -2.8505 O   0  0  0  0  0  0  0  0  0  0  0  0
    0.1150    2.0333   -2.6810 N   0  0  0  0  0  0  0  0  0  0  0  0
   -0.1592    2.8233   -2.1050 H   0  0  0  0  0  0  0  0  0  0  0  0
    0.7953    2.2867   -3.9460 C   0  0  0  0  0  0  0  0  0  0  0  0
    0.2650    1.8001   -4.7714 H   0  0  0  0  0  0  0  0  0  0  0  0
    0.8330    3.3616   -4.1470 H   0  0  0  0  0  0  0  0  0  0  0  0
    1.8210    1.9045   -3.9129 H   0  0  0  0  0  0  0  0  0  0  0  0
  1  2  1  0  0  0  0
  2  3  1  0  0  0  0
  2  4  1  0  0  0  0
  2  5  1  0  0  0  0
  5  6  2  0  0  0  0
  5  7  1  0  0  0  0
  7  8  1  0  0  0  0
  7  9  1  0  0  0  0
  9 10  1  0  0  0  0
  9 11  1  0  0  0  0
  9 29  1  0  0  0  0
 11 12  1  0  0  0  0
 11 13  1  0  0  0  0
 11 14  1  0  0  0  0
 14 15  2  0  0  0  0
 14 28  1  0  0  0  0
 15 16  1  0  0  0  0
 15 17  1  0  0  0  0
 17 18  1  0  0  0  0
 17 19  1  0  0  0  0
 19 20  1  0  0  0  0
 19 28  2  0  0  0  0
 20 21  1  0  0  0  0
 20 22  2  0  0  0  0
 22 23  1  0  0  0  0
 22 24  1  0  0  0  0
 24 25  1  0  0  0  0
 24 26  2  0  0  0  0
 26 27  1  0  0  0  0
 26 28  1  0  0  0  0
 29 30  2  0  0  0  0
 29 31  1  0  0  0  0
 31 32  1  0  0  0  0
 31 33  1  0  0  0  0
 33 34  1  0  0  0  0
 33 35  1  0  0  0  0
 33 36  1  0  0  0  0
M  END
$$$$

  -OEChem-01062216103D

 36 37  0     1  0  0  0  0  0999 V2000
   -3.9772   -2.9187   -0.1628 H   0  0  0  0  0  0  0  0  0  0  0  0
   -3.8220   -1.9778   -0.6982 C   0  0  0  0  0  0  0  0  0  0  0  0
   -4.5822   -1.2620   -0.3773 H   0  0  0  0  0  0  0  0  0  0  0  0
   -3.9306   -2.1616   -1.7698 H   0  0  0  0  0  0  0  0  0  0  0  0
   -2.4377   -1.4296   -0.4055 C   0  0  0  0  0  0  0  0  0  0  0  0
   -1.6718   -2.1115    0.2522 O   0  0  0  0  0  0  0  0  0  0  0  0
   -2.0812   -0.2228   -0.9764 N   0  0  0  0  0  0  0  0  0  0  0  0
   -2.7658    0.1449   -1.6289 H   0  0  0  0  0  0  0  0  0  0  0  0
   -0.8401    0.5741   -0.8206 C   0  0  1  0  0  0  0  0  0  0  0  0
   -1.2146    1.5711   -0.5713 H   0  0  0  0  0  0  0  0  0  0  0  0
    0.1578    0.2708    0.3202 C   0  0  0  0  0  0  0  0  0  0  0  0
    0.4612   -0.7795    0.2725 H   0  0  0  0  0  0  0  0  0  0  0  0
    1.0675    0.8649    0.1893 H   0  0  0  0  0  0  0  0  0  0  0  0
   -0.4228    0.5836    1.6809 C   0  0  0  0  0  0  0  0  0  0  0  0
   -1.0151   -0.2794    2.5717 C   0  0  0  0  0  0  0  0  0  0  0  0
   -1.1225   -1.3536    2.4364 H   0  0  0  0  0  0  0  0  0  0  0  0
   -1.4395    0.4650    3.6702 N   0  0  0  0  0  0  0  0  0  0  0  0
   -1.9027    0.0817    4.4909 H   0  0  0  0  0  0  0  0  0  0  0  0
   -1.1279    1.8025    3.4966 C   0  0  0  0  0  0  0  0  0  0  0  0
   -1.3455    2.9202    4.3025 C   0  0  0  0  0  0  0  0  0  0  0  0
   -1.8454    2.8143    5.2589 H   0  0  0  0  0  0  0  0  0  0  0  0
   -0.9087    4.1768    3.8606 C   0  0  0  0  0  0  0  0  0  0  0  0
   -1.0699    5.0547    4.4792 H   0  0  0  0  0  0  0  0  0  0  0  0
   -0.2585    4.3001    2.6231 C   0  0  0  0  0  0  0  0  0  0  0  0
    0.0835    5.2745    2.2873 H   0  0  0  0  0  0  0  0  0  0  0  0
   -0.0435    3.1687    1.8228 C   0  0  0  0  0  0  0  0  0  0  0  0
    0.4687    3.2594    0.8718 H   0  0  0  0  0  0  0  0  0  0  0  0
   -0.4878    1.9188    2.2680 C   0  0  0  0  0  0  0  0  0  0  0  0
   -0.1012    0.7726   -2.1601 C   0  0  0  0  0  0  0  0  0  0  0  0
   -0.0617   -0.1159   -3.0009 O   0  0  0  0  0  0  0  0  0  0  0  0
    0.3909    2.0229   -2.4941 N   0  0  0  0  0  0  0  0  0  0  0  0
    0.3448    2.7518   -1.7886 H   0  0  0  0  0  0  0  0  0  0  0  0
    1.0582    2.3094   -3.7586 C   0  0  0  0  0  0  0  0  0  0  0  0
    0.3864    2.1130   -4.6009 H   0  0  0  0  0  0  0  0  0  0  0  0
    1.3600    3.3605   -3.7963 H   0  0  0  0  0  0  0  0  0  0  0  0
    1.9530    1.6880   -3.8697 H   0  0  0  0  0  0  0  0  0  0  0  0
  1  2  1  0  0  0  0
  2  3  1  0  0  0  0
  2  4  1  0  0  0  0
  2  5  1  0  0  0  0
  5  6  2  0  0  0  0
  5  7  1  0  0  0  0
  7  8  1  0  0  0  0
  7  9  1  0  0  0  0
  9 10  1  0  0  0  0
  9 11  1  0  0  0  0
  9 29  1  0  0  0  0
 11 12  1  0  0  0  0
 11 13  1  0  0  0  0
 11 14  1  0  0  0  0
 14 15  2  0  0  0  0
 14 28  1  0  0  0  0
 15 16  1  0  0  0  0
 15 17  1  0  0  0  0
 17 18  1  0  0  0  0
 17 19  1  0  0  0  0
 19 20  1  0  0  0  0
 19 28  2  0  0  0  0
 20 21  1  0  0  0  0
 20 22  2  0  0  0  0
 22 23  1  0  0  0  0
 22 24  1  0  0  0  0
 24 25  1  0  0  0  0
 24 26  2  0  0  0  0
 26 27  1  0  0  0  0
 26 28  1  0  0  0  0
 29 30  2  0  0  0  0
 29 31  1  0  0  0  0
 31 32  1  0  0  0  0
 31 33  1  0  0  0  0
 33 34  1  0  0  0  0
 33 35  1  0  0  0  0
 33 36  1  0  0  0  0
M  END
$$$$

  -OEChem-01062216103D

 36 37  0     1  0  0  0  0  0999 V2000
   -3.9823   -2.9102   -0.1904 H   0  0  0  0  0  0  0  0  0  0  0  0
   -3.8194   -1.9688   -0.7228 C   0  0  0  0  0  0  0  0  0  0  0  0
   -4.5877   -1.2549   -0.4168 H   0  0  0  0  0  0  0  0  0  0  0  0
   -3.9066   -2.1525   -1.7966 H   0  0  0  0  0  0  0  0  0  0  0  0
   -2.4429   -1.4156   -0.4039 C   0  0  0  0  0  0  0  0  0  0  0  0
   -1.6840   -2.0970    0.2626 O   0  0  0  0  0  0  0  0  0  0  0  0
   -2.0790   -0.2094   -0.9701 N   0  0  0  0  0  0  0  0  0  0  0  0
   -2.7343    0.1352   -1.6650 H   0  0  0  0  0  0  0  0  0  0  0  0
   -0.8363    0.5846   -0.8118 C   0  0  1  0  0  0  0  0  0  0  0  0
   -1.2057    1.5847   -0.5666 H   0  0  0  0  0  0  0  0  0  0  0  0
    0.1572    0.2761    0.3331 C   0  0  0  0  0  0  0  0  0  0  0  0
    0.4554   -0.7752    0.2843 H   0  0  0  0  0  0  0  0  0  0  0  0
    1.0706    0.8653    0.2083 H   0  0  0  0  0  0  0  0  0  0  0  0
   -0.4219    0.5879    1.6949 C   0  0  0  0  0  0  0  0  0  0  0  0
   -1.0171   -0.2764    2.5829 C   0  0  0  0  0  0  0  0  0  0  0  0
   -1.1281   -1.3497    2.4443 H   0  0  0  0  0  0  0  0  0  0  0  0
   -1.4371    0.4649    3.6850 N   0  0  0  0  0  0  0  0  0  0  0  0
   -1.9038    0.0806    4.5034 H   0  0  0  0  0  0  0  0  0  0  0  0
   -1.1226    1.8019    3.5153 C   0  0  0  0  0  0  0  0  0  0  0  0
   -1.3394    2.9160    4.3258 C   0  0  0  0  0  0  0  0  0  0  0  0
   -1.8400    2.8060    5.2814 H   0  0  0  0  0  0  0  0  0  0  0  0
   -0.9014    4.1740    3.8894 C   0  0  0  0  0  0  0  0  0  0  0  0
   -1.0633    5.0497    4.5110 H   0  0  0  0  0  0  0  0  0  0  0  0
   -0.2513    4.3019    2.6523 C   0  0  0  0  0  0  0  0  0  0  0  0
    0.0908    5.2776    2.3203 H   0  0  0  0  0  0  0  0  0  0  0  0
   -0.0396    3.1738    1.8462 C   0  0  0  0  0  0  0  0  0  0  0  0
    0.4677    3.2704    0.8934 H   0  0  0  0  0  0  0  0  0  0  0  0
   -0.4835    1.9218    2.2866 C   0  0  0  0  0  0  0  0  0  0  0  0
   -0.0985    0.7809   -2.1538 C   0  0  0  0  0  0  0  0  0  0  0  0
   -0.3051    0.0371   -3.1048 O   0  0  0  0  0  0  0  0  0  0  0  0
    0.6607    1.9199   -2.3610 N   0  0  0  0  0  0  0  0  0  0  0  0
    0.8195    2.5310   -1.5659 H   0  0  0  0  0  0  0  0  0  0  0  0
    1.3300    2.2189   -3.6214 C   0  0  0  0  0  0  0  0  0  0  0  0
    0.6008    2.2915   -4.4354 H   0  0  0  0  0  0  0  0  0  0  0  0
    1.8623    3.1723   -3.5499 H   0  0  0  0  0  0  0  0  0  0  0  0
    2.0549    1.4351   -3.8656 H   0  0  0  0  0  0  0  0  0  0  0  0
  1  2  1  0  0  0  0
  2  3  1  0  0  0  0
  2  4  1  0  0  0  0
  2  5  1  0  0  0  0
  5  6  2  0  0  0  0
  5  7  1  0  0  0  0
  7  8  1  0  0  0  0
  7  9  1  0  0  0  0
  9 10  1  0  0  0  0
  9 11  1  0  0  0  0
  9 29  1  0  0  0  0
 11 12  1  0  0  0  0
 11 13  1  0  0  0  0
 11 14  1  0  0  0  0
 14 15  2  0  0  0  0
 14 28  1  0  0  0  0
 15 16  1  0  0  0  0
 15 17  1  0  0  0  0
 17 18  1  0  0  0  0
 17 19  1  0  0  0  0
 19 20  1  0  0  0  0
 19 28  2  0  0  0  0
 20 21  1  0  0  0  0
 20 22  2  0  0  0  0
 22 23  1  0  0  0  0
 22 24  1  0  0  0  0
 24 25  1  0  0  0  0
 24 26  2  0  0  0  0
 26 27  1  0  0  0  0
 26 28  1  0  0  0  0
 29 30  2  0  0  0  0
 29 31  1  0  0  0  0
 31 32  1  0  0  0  0
 31 33  1  0  0  0  0
 33 34  1  0  0  0  0
 33 35  1  0  0  0  0
 33 36  1  0  0  0  0
M  END
$$$$

  -OEChem-01062216103D

 36 37  0     1  0  0  0  0  0999 V2000
   -3.9738   -2.8950   -0.2012 H   0  0  0  0  0  0  0  0  0  0  0  0
   -3.8069   -1.9521   -0.7294 C   0  0  0  0  0  0  0  0  0  0  0  0
   -4.5756   -1.2381   -0.4245 H   0  0  0  0  0  0  0  0  0  0  0  0
   -3.8894   -2.1315   -1.8041 H   0  0  0  0  0  0  0  0  0  0  0  0
   -2.4310   -1.4032   -0.4019 C   0  0  0  0  0  0  0  0  0  0  0  0
   -1.6723   -2.0928    0.2566 O   0  0  0  0  0  0  0  0  0  0  0  0
   -2.0623   -0.1949   -0.9597 N   0  0  0  0  0  0  0  0  0  0  0  0
   -2.6990    0.1405   -1.6769 H   0  0  0  0  0  0  0  0  0  0  0  0
   -0.8196    0.5980   -0.7984 C   0  0  1  0  0  0  0  0  0  0  0  0
   -1.1822    1.6010   -0.5550 H   0  0  0  0  0  0  0  0  0  0  0  0
    0.1635    0.2788    0.3556 C   0  0  0  0  0  0  0  0  0  0  0  0
    0.4562   -0.7739    0.3061 H   0  0  0  0  0  0  0  0  0  0  0  0
    1.0823    0.8616    0.2472 H   0  0  0  0  0  0  0  0  0  0  0  0
   -0.4270    0.5893    1.7131 C   0  0  0  0  0  0  0  0  0  0  0  0
   -1.0353   -0.2760    2.5912 C   0  0  0  0  0  0  0  0  0  0  0  0
   -1.1514   -1.3479    2.4467 H   0  0  0  0  0  0  0  0  0  0  0  0
   -1.4588    0.4606    3.6950 N   0  0  0  0  0  0  0  0  0  0  0  0
   -1.9341    0.0738    4.5074 H   0  0  0  0  0  0  0  0  0  0  0  0
   -1.1340    1.7966    3.5363 C   0  0  0  0  0  0  0  0  0  0  0  0
   -1.3488    2.9064    4.3534 C   0  0  0  0  0  0  0  0  0  0  0  0
   -1.8556    2.7933    5.3054 H   0  0  0  0  0  0  0  0  0  0  0  0
   -0.9019    4.1648    3.9274 C   0  0  0  0  0  0  0  0  0  0  0  0
   -1.0612    5.0370    4.5546 H   0  0  0  0  0  0  0  0  0  0  0  0
   -0.2477    4.2977    2.6931 C   0  0  0  0  0  0  0  0  0  0  0  0
    0.0984    5.2741    2.3676 H   0  0  0  0  0  0  0  0  0  0  0  0
   -0.0375    3.1739    1.8806 C   0  0  0  0  0  0  0  0  0  0  0  0
    0.4706    3.2760    0.9286 H   0  0  0  0  0  0  0  0  0  0  0  0
   -0.4869    1.9205    2.3118 C   0  0  0  0  0  0  0  0  0  0  0  0
   -0.0911    0.7935   -2.1482 C   0  0  0  0  0  0  0  0  0  0  0  0
   -0.4999    0.2460   -3.1660 O   0  0  0  0  0  0  0  0  0  0  0  0
    0.9049    1.7472   -2.2738 N   0  0  0  0  0  0  0  0  0  0  0  0
    1.2286    2.2032   -1.4263 H   0  0  0  0  0  0  0  0  0  0  0  0
    1.5773    2.0451   -3.5332 C   0  0  0  0  0  0  0  0  0  0  0  0
    0.8553    2.3852   -4.2831 H   0  0  0  0  0  0  0  0  0  0  0  0
    2.3196    2.8355   -3.3872 H   0  0  0  0  0  0  0  0  0  0  0  0
    2.0893    1.1553   -3.9145 H   0  0  0  0  0  0  0  0  0  0  0  0
  1  2  1  0  0  0  0
  2  3  1  0  0  0  0
  2  4  1  0  0  0  0
  2  5  1  0  0  0  0
  5  6  2  0  0  0  0
  5  7  1  0  0  0  0
  7  8  1  0  0  0  0
  7  9  1  0  0  0  0
  9 10  1  0  0  0  0
  9 11  1  0  0  0  0
  9 29  1  0  0  0  0
 11 12  1  0  0  0  0
 11 13  1  0  0  0  0
 11 14  1  0  0  0  0
 14 15  2  0  0  0  0
 14 28  1  0  0  0  0
 15 16  1  0  0  0  0
 15 17  1  0  0  0  0
 17 18  1  0  0  0  0
 17 19  1  0  0  0  0
 19 20  1  0  0  0  0
 19 28  2  0  0  0  0
 20 21  1  0  0  0  0
 20 22  2  0  0  0  0
 22 23  1  0  0  0  0
 22 24  1  0  0  0  0
 24 25  1  0  0  0  0
 24 26  2  0  0  0  0
 26 27  1  0  0  0  0
 26 28  1  0  0  0  0
 29 30  2  0  0  0  0
 29 31  1  0  0  0  0
 31 32  1  0  0  0  0
 31 33  1  0  0  0  0
 33 34  1  0  0  0  0
 33 35  1  0  0  0  0
 33 36  1  0  0  0  0
M  END
$$$$

  -OEChem-01062216103D

 36 37  0     1  0  0  0  0  0999 V2000
   -3.3020   -1.8424    1.2306 H   0  0  0  0  0  0  0  0  0  0  0  0
   -3.3464   -0.9573    0.5916 C   0  0  0  0  0  0  0  0  0  0  0  0
   -3.0730   -0.0792    1.1821 H   0  0  0  0  0  0  0  0  0  0  0  0
   -4.3691   -0.8304    0.2295 H   0  0  0  0  0  0  0  0  0  0  0  0
   -2.4030   -1.1127   -0.5892 C   0  0  0  0  0  0  0  0  0  0  0  0
   -2.2582   -2.2007   -1.1154 O   0  0  0  0  0  0  0  0  0  0  0  0
   -2.0598   -0.0151   -1.3306 N   0  0  0  0  0  0  0  0  0  0  0  0
   -2.0696   -0.2857   -2.3181 H   0  0  0  0  0  0  0  0  0  0  0  0
   -0.8758    0.8346   -1.0706 C   0  0  1  0  0  0  0  0  0  0  0  0
   -1.2131    1.7830   -0.6424 H   0  0  0  0  0  0  0  0  0  0  0  0
    0.2419    0.2408   -0.1592 C   0  0  0  0  0  0  0  0  0  0  0  0
    0.5516   -0.7182   -0.5898 H   0  0  0  0  0  0  0  0  0  0  0  0
    1.1213    0.8904   -0.1655 H   0  0  0  0  0  0  0  0  0  0  0  0
   -0.1107    0.0155    1.2887 C   0  0  0  0  0  0  0  0  0  0  0  0
   -0.5142   -1.1646    1.8686 C   0  0  0  0  0  0  0  0  0  0  0  0
   -0.5929   -2.1252    1.3602 H   0  0  0  0  0  0  0  0  0  0  0  0
   -0.8014   -0.9031    3.2053 N   0  0  0  0  0  0  0  0  0  0  0  0
   -1.1065   -1.5952    3.8875 H   0  0  0  0  0  0  0  0  0  0  0  0
   -0.5977    0.4370    3.4888 C   0  0  0  0  0  0  0  0  0  0  0  0
   -0.7559    1.1703    4.6646 C   0  0  0  0  0  0  0  0  0  0  0  0
   -1.0942    0.6827    5.5724 H   0  0  0  0  0  0  0  0  0  0  0  0
   -0.4733    2.5433    4.6558 C   0  0  0  0  0  0  0  0  0  0  0  0
   -0.5919    3.1263    5.5645 H   0  0  0  0  0  0  0  0  0  0  0  0
   -0.0376    3.1647    3.4755 C   0  0  0  0  0  0  0  0  0  0  0  0
    0.1803    4.2285    3.4744 H   0  0  0  0  0  0  0  0  0  0  0  0
    0.1176    2.4171    2.2991 C   0  0  0  0  0  0  0  0  0  0  0  0
    0.4540    2.8970    1.3867 H   0  0  0  0  0  0  0  0  0  0  0  0
   -0.1653    1.0470    2.3166 C   0  0  0  0  0  0  0  0  0  0  0  0
   -0.1776    1.1187   -2.4293 C   0  0  0  0  0  0  0  0  0  0  0  0
   -0.6508    0.6771   -3.4707 O   0  0  0  0  0  0  0  0  0  0  0  0
    0.9672    1.8945   -2.5112 N   0  0  0  0  0  0  0  0  0  0  0  0
    1.3516    2.2651   -1.6475 H   0  0  0  0  0  0  0  0  0  0  0  0
    1.6441    2.1966   -3.7670 C   0  0  0  0  0  0  0  0  0  0  0  0
    0.9747    2.7404   -4.4420 H   0  0  0  0  0  0  0  0  0  0  0  0
    2.5260    2.8173   -3.5816 H   0  0  0  0  0  0  0  0  0  0  0  0
    1.9686    1.2738   -4.2596 H   0  0  0  0  0  0  0  0  0  0  0  0
  1  2  1  0  0  0  0
  2  3  1  0  0  0  0
  2  4  1  0  0  0  0
  2  5  1  0  0  0  0
  5  6  2  0  0  0  0
  5  7  1  0  0  0  0
  7  8  1  0  0  0  0
  7  9  1  0  0  0  0
  9 10  1  0  0  0  0
  9 11  1  0  0  0  0
  9 29  1  0  0  0  0
 11 12  1  0  0  0  0
 11 13  1  0  0  0  0
 11 14  1  0  0  0  0
 14 15  2  0  0  0  0
 14 28  1  0  0  0  0
 15 16  1  0  0  0  0
 15 17  1  0  0  0  0
 17 18  1  0  0  0  0
 17 19  1  0  0  0  0
 19 20  1  0  0  0  0
 19 28  2  0  0  0  0
 20 21  1  0  0  0  0
 20 22  2  0  0  0  0
 22 23  1  0  0  0  0
 22 24  1  0  0  0  0
 24 25  1  0  0  0  0
 24 26  2  0  0  0  0
 26 27  1  0  0  0  0
 26 28  1  0  0  0  0
 29 30  2  0  0  0  0
 29 31  1  0  0  0  0
 31 32  1  0  0  0  0
 31 33  1  0  0  0  0
 33 34  1  0  0  0  0
 33 35  1  0  0  0  0
 33 36  1  0  0  0  0
M  END
$$$$

  -OEChem-01062216103D

 36 37  0     1  0  0  0  0  0999 V2000
   -3.3277   -1.8905    1.1753 H   0  0  0  0  0  0  0  0  0  0  0  0
   -3.3663   -0.9928    0.5537 C   0  0  0  0  0  0  0  0  0  0  0  0
   -3.1245   -0.1231    1.1702 H   0  0  0  0  0  0  0  0  0  0  0  0
   -4.3793   -0.8737    0.1624 H   0  0  0  0  0  0  0  0  0  0  0  0
   -2.3832   -1.1091   -0.5983 C   0  0  0  0  0  0  0  0  0  0  0  0
   -2.1700   -2.1886   -1.1192 O   0  0  0  0  0  0  0  0  0  0  0  0
   -2.0387    0.0040   -1.3148 N   0  0  0  0  0  0  0  0  0  0  0  0
   -2.0736   -0.2280   -2.3109 H   0  0  0  0  0  0  0  0  0  0  0  0
   -0.8422    0.8340   -1.0483 C   0  0  1  0  0  0  0  0  0  0  0  0
   -1.1681    1.7811   -0.6081 H   0  0  0  0  0  0  0  0  0  0  0  0
    0.2583    0.2199   -0.1284 C   0  0  0  0  0  0  0  0  0  0  0  0
    0.5581   -0.7430   -0.5570 H   0  0  0  0  0  0  0  0  0  0  0  0
    1.1457    0.8577   -0.1188 H   0  0  0  0  0  0  0  0  0  0  0  0
   -0.1156    0.0043    1.3160 C   0  0  0  0  0  0  0  0  0  0  0  0
   -0.5492   -1.1638    1.8978 C   0  0  0  0  0  0  0  0  0  0  0  0
   -0.6405   -2.1254    1.3937 H   0  0  0  0  0  0  0  0  0  0  0  0
   -0.8434   -0.8900    3.2308 N   0  0  0  0  0  0  0  0  0  0  0  0
   -1.1692   -1.5724    3.9131 H   0  0  0  0  0  0  0  0  0  0  0  0
   -0.6152    0.4474    3.5102 C   0  0  0  0  0  0  0  0  0  0  0  0
   -0.7680    1.1920    4.6798 C   0  0  0  0  0  0  0  0  0  0  0  0
   -1.1246    0.7183    5.5878 H   0  0  0  0  0  0  0  0  0  0  0  0
   -0.4565    2.5588    4.6653 C   0  0  0  0  0  0  0  0  0  0  0  0
   -0.5705    3.1500    5.5693 H   0  0  0  0  0  0  0  0  0  0  0  0
    0.0016    3.1635    3.4845 C   0  0  0  0  0  0  0  0  0  0  0  0
    0.2414    4.2226    3.4765 H   0  0  0  0  0  0  0  0  0  0  0  0
    0.1511    2.4049    2.3149 C   0  0  0  0  0  0  0  0  0  0  0  0
    0.5055    2.8711    1.4022 H   0  0  0  0  0  0  0  0  0  0  0  0
   -0.1598    1.0413    2.3386 C   0  0  0  0  0  0  0  0  0  0  0  0
   -0.1667    1.1390   -2.4171 C   0  0  0  0  0  0  0  0  0  0  0  0
   -0.7849    0.9389   -3.4571 O   0  0  0  0  0  0  0  0  0  0  0  0
    1.1251    1.6305   -2.5232 N   0  0  0  0  0  0  0  0  0  0  0  0
    1.6455    1.7846   -1.6653 H   0  0  0  0  0  0  0  0  0  0  0  0
    1.7820    1.8992   -3.7976 C   0  0  0  0  0  0  0  0  0  0  0  0
    1.2241    2.6506   -4.3661 H   0  0  0  0  0  0  0  0  0  0  0  0
    2.7951    2.2767   -3.6288 H   0  0  0  0  0  0  0  0  0  0  0  0
    1.8500    0.9837   -4.3948 H   0  0  0  0  0  0  0  0  0  0  0  0
  1  2  1  0  0  0  0
  2  3  1  0  0  0  0
  2  4  1  0  0  0  0
  2  5  1  0  0  0  0
  5  6  2  0  0  0  0
  5  7  1  0  0  0  0
  7  8  1  0  0  0  0
  7  9  1  0  0  0  0
  9 10  1  0  0  0  0
  9 11  1  0  0  0  0
  9 29  1  0  0  0  0
 11 12  1  0  0  0  0
 11 13  1  0  0  0  0
 11 14  1  0  0  0  0
 14 15  2  0  0  0  0
 14 28  1  0  0  0  0
 15 16  1  0  0  0  0
 15 17  1  0  0  0  0
 17 18  1  0  0  0  0
 17 19  1  0  0  0  0
 19 20  1  0  0  0  0
 19 28  2  0  0  0  0
 20 21  1  0  0  0  0
 20 22  2  0  0  0  0
 22 23  1  0  0  0  0
 22 24  1  0  0  0  0
 24 25  1  0  0  0  0
 24 26  2  0  0  0  0
 26 27  1  0  0  0  0
 26 28  1  0  0  0  0
 29 30  2  0  0  0  0
 29 31  1  0  0  0  0
 31 32  1  0  0  0  0
 31 33  1  0  0  0  0
 33 34  1  0  0  0  0
 33 35  1  0  0  0  0
 33 36  1  0  0  0  0
M  END
$$$$

  -OEChem-01062216103D

 36 37  0     1  0  0  0  0  0999 V2000
   -3.3718   -1.9280    1.1185 H   0  0  0  0  0  0  0  0  0  0  0  0
   -3.3824   -1.0143    0.5194 C   0  0  0  0  0  0  0  0  0  0  0  0
   -3.1519   -0.1631    1.1653 H   0  0  0  0  0  0  0  0  0  0  0  0
   -4.3813   -0.8748    0.0993 H   0  0  0  0  0  0  0  0  0  0  0  0
   -2.3642   -1.1102   -0.6037 C   0  0  0  0  0  0  0  0  0  0  0  0
   -2.1005   -2.1852   -1.1117 O   0  0  0  0  0  0  0  0  0  0  0  0
   -2.0150    0.0112   -1.3051 N   0  0  0  0  0  0  0  0  0  0  0  0
   -2.0727   -0.1912   -2.3054 H   0  0  0  0  0  0  0  0  0  0  0  0
   -0.8089    0.8239   -1.0308 C   0  0  1  0  0  0  0  0  0  0  0  0
   -1.1277    1.7720   -0.5872 H   0  0  0  0  0  0  0  0  0  0  0  0
    0.2764    0.2015   -0.1002 C   0  0  0  0  0  0  0  0  0  0  0  0
    0.5723   -0.7661   -0.5207 H   0  0  0  0  0  0  0  0  0  0  0  0
    1.1664    0.8364   -0.0835 H   0  0  0  0  0  0  0  0  0  0  0  0
   -0.1169    0.0001    1.3413 C   0  0  0  0  0  0  0  0  0  0  0  0
   -0.5727   -1.1588    1.9251 C   0  0  0  0  0  0  0  0  0  0  0  0
   -0.6719   -2.1217    1.4251 H   0  0  0  0  0  0  0  0  0  0  0  0
   -0.8767   -0.8732    3.2534 N   0  0  0  0  0  0  0  0  0  0  0  0
   -1.2197   -1.5463    3.9364 H   0  0  0  0  0  0  0  0  0  0  0  0
   -0.6313    0.4622    3.5276 C   0  0  0  0  0  0  0  0  0  0  0  0
   -0.7851    1.2144    4.6922 C   0  0  0  0  0  0  0  0  0  0  0  0
   -1.1574    0.7497    5.5986 H   0  0  0  0  0  0  0  0  0  0  0  0
   -0.4541    2.5766    4.6742 C   0  0  0  0  0  0  0  0  0  0  0  0
   -0.5688    3.1743    5.5737 H   0  0  0  0  0  0  0  0  0  0  0  0
    0.0239    3.1690    3.4954 C   0  0  0  0  0  0  0  0  0  0  0  0
    0.2777    4.2248    3.4853 H   0  0  0  0  0  0  0  0  0  0  0  0
    0.1752    2.4027    2.3307 C   0  0  0  0  0  0  0  0  0  0  0  0
    0.5448    2.8599    1.4192 H   0  0  0  0  0  0  0  0  0  0  0  0
   -0.1555    1.0435    2.3578 C   0  0  0  0  0  0  0  0  0  0  0  0
   -0.1444    1.1384   -2.4030 C   0  0  0  0  0  0  0  0  0  0  0  0
   -0.8464    1.1917   -3.4065 O   0  0  0  0  0  0  0  0  0  0  0  0
    1.2196    1.3248   -2.5672 N   0  0  0  0  0  0  0  0  0  0  0  0
    1.8126    1.2309   -1.7487 H   0  0  0  0  0  0  0  0  0  0  0  0
    1.8487    1.5658   -3.8608 C   0  0  0  0  0  0  0  0  0  0  0  0
    1.4505    2.4780   -4.3176 H   0  0  0  0  0  0  0  0  0  0  0  0
    2.9294    1.6852   -3.7384 H   0  0  0  0  0  0  0  0  0  0  0  0
    1.6680    0.7241   -4.5376 H   0  0  0  0  0  0  0  0  0  0  0  0
  1  2  1  0  0  0  0
  2  3  1  0  0  0  0
  2  4  1  0  0  0  0
  2  5  1  0  0  0  0
  5  6  2  0  0  0  0
  5  7  1  0  0  0  0
  7  8  1  0  0  0  0
  7  9  1  0  0  0  0
  9 10  1  0  0  0  0
  9 11  1  0  0  0  0
  9 29  1  0  0  0  0
 11 12  1  0  0  0  0
 11 13  1  0  0  0  0
 11 14  1  0  0  0  0
 14 15  2  0  0  0  0
 14 28  1  0  0  0  0
 15 16  1  0  0  0  0
 15 17  1  0  0  0  0
 17 18  1  0  0  0  0
 17 19  1  0  0  0  0
 19 20  1  0  0  0  0
 19 28  2  0  0  0  0
 20 21  1  0  0  0  0
 20 22  2  0  0  0  0
 22 23  1  0  0  0  0
 22 24  1  0  0  0  0
 24 25  1  0  0  0  0
 24 26  2  0  0  0  0
 26 27  1  0  0  0  0
 26 28  1  0  0  0  0
 29 30  2  0  0  0  0
 29 31  1  0  0  0  0
 31 32  1  0  0  0  0
 31 33  1  0  0  0  0
 33 34  1  0  0  0  0
 33 35  1  0  0  0  0
 33 36  1  0  0  0  0
M  END
$$$$

  -OEChem-01062216103D

 36 37  0     1  0  0  0  0  0999 V2000
   -3.3670   -1.9298    1.1021 H   0  0  0  0  0  0  0  0  0  0  0  0
   -3.3801   -1.0123    0.5087 C   0  0  0  0  0  0  0  0  0  0  0  0
   -3.1511   -0.1647    1.1599 H   0  0  0  0  0  0  0  0  0  0  0  0
   -4.3793   -0.8727    0.0897 H   0  0  0  0  0  0  0  0  0  0  0  0
   -2.3626   -1.0994   -0.6153 C   0  0  0  0  0  0  0  0  0  0  0  0
   -2.1081   -2.1681   -1.1405 O   0  0  0  0  0  0  0  0  0  0  0  0
   -2.0024    0.0260   -1.3038 N   0  0  0  0  0  0  0  0  0  0  0  0
   -2.0793   -0.1540   -2.3061 H   0  0  0  0  0  0  0  0  0  0  0  0
   -0.7852    0.8163   -1.0180 C   0  0  1  0  0  0  0  0  0  0  0  0
   -1.0944    1.7660   -0.5712 H   0  0  0  0  0  0  0  0  0  0  0  0
    0.2882    0.1852   -0.0816 C   0  0  0  0  0  0  0  0  0  0  0  0
    0.5757   -0.7880   -0.4947 H   0  0  0  0  0  0  0  0  0  0  0  0
    1.1825    0.8154   -0.0684 H   0  0  0  0  0  0  0  0  0  0  0  0
   -0.1157   -0.0078    1.3579 C   0  0  0  0  0  0  0  0  0  0  0  0
   -0.5873   -1.1596    1.9430 C   0  0  0  0  0  0  0  0  0  0  0  0
   -0.6929   -2.1235    1.4462 H   0  0  0  0  0  0  0  0  0  0  0  0
   -0.8973   -0.8662    3.2685 N   0  0  0  0  0  0  0  0  0  0  0  0
   -1.2515   -1.5331    3.9520 H   0  0  0  0  0  0  0  0  0  0  0  0
   -0.6414    0.4681    3.5391 C   0  0  0  0  0  0  0  0  0  0  0  0
   -0.7959    1.2275    4.6989 C   0  0  0  0  0  0  0  0  0  0  0  0
   -1.1775    0.7711    5.6056 H   0  0  0  0  0  0  0  0  0  0  0  0
   -0.4536    2.5869    4.6758 C   0  0  0  0  0  0  0  0  0  0  0  0
   -0.5699    3.1910    5.5709 H   0  0  0  0  0  0  0  0  0  0  0  0
    0.0379    3.1691    3.4974 C   0  0  0  0  0  0  0  0  0  0  0  0
    0.3014    4.2225    3.4837 H   0  0  0  0  0  0  0  0  0  0  0  0
    0.1897    2.3961    2.3376 C   0  0  0  0  0  0  0  0  0  0  0  0
    0.5686    2.8457    1.4260 H   0  0  0  0  0  0  0  0  0  0  0  0
   -0.1526    1.0399    2.3697 C   0  0  0  0  0  0  0  0  0  0  0  0
   -0.1215    1.1365   -2.3869 C   0  0  0  0  0  0  0  0  0  0  0  0
   -0.8381    1.4563   -3.3275 O   0  0  0  0  0  0  0  0  0  0  0  0
    1.2380    1.0114   -2.6288 N   0  0  0  0  0  0  0  0  0  0  0  0
    1.8193    0.6537   -1.8769 H   0  0  0  0  0  0  0  0  0  0  0  0
    1.8423    1.2160   -3.9404 C   0  0  0  0  0  0  0  0  0  0  0  0
    1.6718    2.2411   -4.2856 H   0  0  0  0  0  0  0  0  0  0  0  0
    2.9217    1.0444   -3.8897 H   0  0  0  0  0  0  0  0  0  0  0  0
    1.4161    0.5218   -4.6724 H   0  0  0  0  0  0  0  0  0  0  0  0
  1  2  1  0  0  0  0
  2  3  1  0  0  0  0
  2  4  1  0  0  0  0
  2  5  1  0  0  0  0
  5  6  2  0  0  0  0
  5  7  1  0  0  0  0
  7  8  1  0  0  0  0
  7  9  1  0  0  0  0
  9 10  1  0  0  0  0
  9 11  1  0  0  0  0
  9 29  1  0  0  0  0
 11 12  1  0  0  0  0
 11 13  1  0  0  0  0
 11 14  1  0  0  0  0
 14 15  2  0  0  0  0
 14 28  1  0  0  0  0
 15 16  1  0  0  0  0
 15 17  1  0  0  0  0
 17 18  1  0  0  0  0
 17 19  1  0  0  0  0
 19 20  1  0  0  0  0
 19 28  2  0  0  0  0
 20 21  1  0  0  0  0
 20 22  2  0  0  0  0
 22 23  1  0  0  0  0
 22 24  1  0  0  0  0
 24 25  1  0  0  0  0
 24 26  2  0  0  0  0
 26 27  1  0  0  0  0
 26 28  1  0  0  0  0
 29 30  2  0  0  0  0
 29 31  1  0  0  0  0
 31 32  1  0  0  0  0
 31 33  1  0  0  0  0
 33 34  1  0  0  0  0
 33 35  1  0  0  0  0
 33 36  1  0  0  0  0
M  END
$$$$

  -OEChem-01062216103D

 36 37  0     1  0  0  0  0  0999 V2000
   -3.3701   -1.9159    1.1125 H   0  0  0  0  0  0  0  0  0  0  0  0
   -3.3789   -1.0005    0.5158 C   0  0  0  0  0  0  0  0  0  0  0  0
   -3.1380   -0.1527    1.1622 H   0  0  0  0  0  0  0  0  0  0  0  0
   -4.3800   -0.8528    0.1039 H   0  0  0  0  0  0  0  0  0  0  0  0
   -2.3692   -1.0994   -0.6142 C   0  0  0  0  0  0  0  0  0  0  0  0
   -2.1388   -2.1685   -1.1500 O   0  0  0  0  0  0  0  0  0  0  0  0
   -1.9997    0.0219   -1.3044 N   0  0  0  0  0  0  0  0  0  0  0  0
   -2.0840   -0.1596   -2.3044 H   0  0  0  0  0  0  0  0  0  0  0  0
   -0.7765    0.8007   -1.0152 C   0  0  1  0  0  0  0  0  0  0  0  0
   -1.0808    1.7534   -0.5705 H   0  0  0  0  0  0  0  0  0  0  0  0
    0.2924    0.1693   -0.0754 C   0  0  0  0  0  0  0  0  0  0  0  0
    0.5704   -0.8109   -0.4773 H   0  0  0  0  0  0  0  0  0  0  0  0
    1.1925    0.7929   -0.0751 H   0  0  0  0  0  0  0  0  0  0  0  0
   -0.1142   -0.0148    1.3640 C   0  0  0  0  0  0  0  0  0  0  0  0
   -0.5922   -1.1620    1.9530 C   0  0  0  0  0  0  0  0  0  0  0  0
   -0.7019   -2.1273    1.4604 H   0  0  0  0  0  0  0  0  0  0  0  0
   -0.9025   -0.8612    3.2767 N   0  0  0  0  0  0  0  0  0  0  0  0
   -1.2616   -1.5230    3.9626 H   0  0  0  0  0  0  0  0  0  0  0  0
   -0.6417    0.4733    3.5415 C   0  0  0  0  0  0  0  0  0  0  0  0
   -0.7956    1.2385    4.6973 C   0  0  0  0  0  0  0  0  0  0  0  0
   -1.1796    0.7872    5.6054 H   0  0  0  0  0  0  0  0  0  0  0  0
   -0.4501    2.5970    4.6681 C   0  0  0  0  0  0  0  0  0  0  0  0
   -0.5659    3.2054    5.5603 H   0  0  0  0  0  0  0  0  0  0  0  0
    0.0439    3.1724    3.4873 C   0  0  0  0  0  0  0  0  0  0  0  0
    0.3090    4.2254    3.4683 H   0  0  0  0  0  0  0  0  0  0  0  0
    0.1972    2.3927    2.3320 C   0  0  0  0  0  0  0  0  0  0  0  0
    0.5799    2.8360    1.4188 H   0  0  0  0  0  0  0  0  0  0  0  0
   -0.1490    1.0377    2.3706 C   0  0  0  0  0  0  0  0  0  0  0  0
   -0.1037    1.1162   -2.3774 C   0  0  0  0  0  0  0  0  0  0  0  0
   -0.7663    1.6771   -3.2398 O   0  0  0  0  0  0  0  0  0  0  0  0
    1.1774    0.7043   -2.7101 N   0  0  0  0  0  0  0  0  0  0  0  0
    1.6807    0.1409   -2.0314 H   0  0  0  0  0  0  0  0  0  0  0  0
    1.7631    0.8932   -4.0324 C   0  0  0  0  0  0  0  0  0  0  0  0
    1.8235    1.9591   -4.2763 H   0  0  0  0  0  0  0  0  0  0  0  0
    2.7738    0.4750   -4.0609 H   0  0  0  0  0  0  0  0  0  0  0  0
    1.1595    0.3902   -4.7952 H   0  0  0  0  0  0  0  0  0  0  0  0
  1  2  1  0  0  0  0
  2  3  1  0  0  0  0
  2  4  1  0  0  0  0
  2  5  1  0  0  0  0
  5  6  2  0  0  0  0
  5  7  1  0  0  0  0
  7  8  1  0  0  0  0
  7  9  1  0  0  0  0
  9 10  1  0  0  0  0
  9 11  1  0  0  0  0
  9 29  1  0  0  0  0
 11 12  1  0  0  0  0
 11 13  1  0  0  0  0
 11 14  1  0  0  0  0
 14 15  2  0  0  0  0
 14 28  1  0  0  0  0
 15 16  1  0  0  0  0
 15 17  1  0  0  0  0
 17 18  1  0  0  0  0
 17 19  1  0  0  0  0
 19 20  1  0  0  0  0
 19 28  2  0  0  0  0
 20 21  1  0  0  0  0
 20 22  2  0  0  0  0
 22 23  1  0  0  0  0
 22 24  1  0  0  0  0
 24 25  1  0  0  0  0
 24 26  2  0  0  0  0
 26 27  1  0  0  0  0
 26 28  1  0  0  0  0
 29 30  2  0  0  0  0
 29 31  1  0  0  0  0
 31 32  1  0  0  0  0
 31 33  1  0  0  0  0
 33 34  1  0  0  0  0
 33 35  1  0  0  0  0
 33 36  1  0  0  0  0
M  END
$$$$

  -OEChem-01062216103D

 36 37  0     1  0  0  0  0  0999 V2000
   -3.3797   -1.9053    1.1212 H   0  0  0  0  0  0  0  0  0  0  0  0
   -3.3880   -0.9930    0.5200 C   0  0  0  0  0  0  0  0  0  0  0  0
   -3.1455   -0.1423    1.1618 H   0  0  0  0  0  0  0  0  0  0  0  0
   -4.3892   -0.8460    0.1082 H   0  0  0  0  0  0  0  0  0  0  0  0
   -2.3792   -1.0998   -0.6101 C   0  0  0  0  0  0  0  0  0  0  0  0
   -2.1522   -2.1702   -1.1445 O   0  0  0  0  0  0  0  0  0  0  0  0
   -2.0052    0.0152   -1.3076 N   0  0  0  0  0  0  0  0  0  0  0  0
   -2.0867   -0.1802   -2.3044 H   0  0  0  0  0  0  0  0  0  0  0  0
   -0.7762    0.7839   -1.0169 C   0  0  1  0  0  0  0  0  0  0  0  0
   -1.0759    1.7394   -0.5746 H   0  0  0  0  0  0  0  0  0  0  0  0
    0.2891    0.1525   -0.0742 C   0  0  0  0  0  0  0  0  0  0  0  0
    0.5580   -0.8336   -0.4664 H   0  0  0  0  0  0  0  0  0  0  0  0
    1.1946    0.7683   -0.0865 H   0  0  0  0  0  0  0  0  0  0  0  0
   -0.1187   -0.0225    1.3660 C   0  0  0  0  0  0  0  0  0  0  0  0
   -0.6024   -1.1639    1.9617 C   0  0  0  0  0  0  0  0  0  0  0  0
   -0.7181   -2.1313    1.4745 H   0  0  0  0  0  0  0  0  0  0  0  0
   -0.9110   -0.8543    3.2838 N   0  0  0  0  0  0  0  0  0  0  0  0
   -1.2729   -1.5104    3.9737 H   0  0  0  0  0  0  0  0  0  0  0  0
   -0.6420    0.4800    3.5413 C   0  0  0  0  0  0  0  0  0  0  0  0
   -0.7907    1.2521    4.6932 C   0  0  0  0  0  0  0  0  0  0  0  0
   -1.1777    0.8077    5.6035 H   0  0  0  0  0  0  0  0  0  0  0  0
   -0.4364    2.6081    4.6568 C   0  0  0  0  0  0  0  0  0  0  0  0
   -0.5480    3.2219    5.5459 H   0  0  0  0  0  0  0  0  0  0  0  0
    0.0597    3.1743    3.4724 C   0  0  0  0  0  0  0  0  0  0  0  0
    0.3308    4.2256    3.4467 H   0  0  0  0  0  0  0  0  0  0  0  0
    0.2065    2.3878    2.3209 C   0  0  0  0  0  0  0  0  0  0  0  0
    0.5903    2.8239    1.4046 H   0  0  0  0  0  0  0  0  0  0  0  0
   -0.1471    1.0353    2.3670 C   0  0  0  0  0  0  0  0  0  0  0  0
   -0.0908    1.0936   -2.3705 C   0  0  0  0  0  0  0  0  0  0  0  0
   -0.6252    1.8889   -3.1302 O   0  0  0  0  0  0  0  0  0  0  0  0
    1.0443    0.4300   -2.8076 N   0  0  0  0  0  0  0  0  0  0  0  0
    1.4014   -0.3204   -2.2234 H   0  0  0  0  0  0  0  0  0  0  0  0
    1.6170    0.6131   -4.1361 C   0  0  0  0  0  0  0  0  0  0  0  0
    1.9193    1.6553   -4.2832 H   0  0  0  0  0  0  0  0  0  0  0  0
    2.4997   -0.0220   -4.2579 H   0  0  0  0  0  0  0  0  0  0  0  0
    0.8887    0.3444   -4.9084 H   0  0  0  0  0  0  0  0  0  0  0  0
  1  2  1  0  0  0  0
  2  3  1  0  0  0  0
  2  4  1  0  0  0  0
  2  5  1  0  0  0  0
  5  6  2  0  0  0  0
  5  7  1  0  0  0  0
  7  8  1  0  0  0  0
  7  9  1  0  0  0  0
  9 10  1  0  0  0  0
  9 11  1  0  0  0  0
  9 29  1  0  0  0  0
 11 12  1  0  0  0  0
 11 13  1  0  0  0  0
 11 14  1  0  0  0  0
 14 15  2  0  0  0  0
 14 28  1  0  0  0  0
 15 16  1  0  0  0  0
 15 17  1  0  0  0  0
 17 18  1  0  0  0  0
 17 19  1  0  0  0  0
 19 20  1  0  0  0  0
 19 28  2  0  0  0  0
 20 21  1  0  0  0  0
 20 22  2  0  0  0  0
 22 23  1  0  0  0  0
 22 24  1  0  0  0  0
 24 25  1  0  0  0  0
 24 26  2  0  0  0  0
 26 27  1  0  0  0  0
 26 28  1  0  0  0  0
 29 30  2  0  0  0  0
 29 31  1  0  0  0  0
 31 32  1  0  0  0  0
 31 33  1  0  0  0  0
 33 34  1  0  0  0  0
 33 35  1  0  0  0  0
 33 36  1  0  0  0  0
M  END
$$$$

  -OEChem-01062216103D

 36 37  0     1  0  0  0  0  0999 V2000
   -3.3885   -1.8909    1.1451 H   0  0  0  0  0  0  0  0  0  0  0  0
   -3.3968   -0.9814    0.5393 C   0  0  0  0  0  0  0  0  0  0  0  0
   -3.1426   -0.1287    1.1746 H   0  0  0  0  0  0  0  0  0  0  0  0
   -4.4012   -0.8303    0.1367 H   0  0  0  0  0  0  0  0  0  0  0  0
   -2.4007   -1.1003   -0.6006 C   0  0  0  0  0  0  0  0  0  0  0  0
   -2.1870   -2.1723   -1.1374 O   0  0  0  0  0  0  0  0  0  0  0  0
   -2.0249    0.0063   -1.3099 N   0  0  0  0  0  0  0  0  0  0  0  0
   -2.1035   -0.2078   -2.3023 H   0  0  0  0  0  0  0  0  0  0  0  0
   -0.7911    0.7683   -1.0219 C   0  0  1  0  0  0  0  0  0  0  0  0
   -1.0861    1.7268   -0.5820 H   0  0  0  0  0  0  0  0  0  0  0  0
    0.2799    0.1398   -0.0848 C   0  0  0  0  0  0  0  0  0  0  0  0
    0.5467   -0.8482   -0.4733 H   0  0  0  0  0  0  0  0  0  0  0  0
    1.1865    0.7543   -0.1090 H   0  0  0  0  0  0  0  0  0  0  0  0
   -0.1211   -0.0313    1.3578 C   0  0  0  0  0  0  0  0  0  0  0  0
   -0.6019   -1.1707    1.9597 C   0  0  0  0  0  0  0  0  0  0  0  0
   -0.7191   -2.1402    1.4773 H   0  0  0  0  0  0  0  0  0  0  0  0
   -0.9043   -0.8561    3.2820 N   0  0  0  0  0  0  0  0  0  0  0  0
   -1.2596   -1.5100    3.9773 H   0  0  0  0  0  0  0  0  0  0  0  0
   -0.6359    0.4795    3.5331 C   0  0  0  0  0  0  0  0  0  0  0  0
   -0.7813    1.2571    4.6820 C   0  0  0  0  0  0  0  0  0  0  0  0
   -1.1652    0.8171    5.5955 H   0  0  0  0  0  0  0  0  0  0  0  0
   -0.4280    2.6131    4.6383 C   0  0  0  0  0  0  0  0  0  0  0  0
   -0.5377    3.2314    5.5245 H   0  0  0  0  0  0  0  0  0  0  0  0
    0.0659    3.1735    3.4500 C   0  0  0  0  0  0  0  0  0  0  0  0
    0.3387    4.2242    3.4192 H   0  0  0  0  0  0  0  0  0  0  0  0
    0.2085    2.3821    2.3013 C   0  0  0  0  0  0  0  0  0  0  0  0
    0.5892    2.8133    1.3812 H   0  0  0  0  0  0  0  0  0  0  0  0
   -0.1457    1.0301    2.3547 C   0  0  0  0  0  0  0  0  0  0  0  0
   -0.0978    1.0661   -2.3705 C   0  0  0  0  0  0  0  0  0  0  0  0
   -0.4230    2.0609   -3.0021 O   0  0  0  0  0  0  0  0  0  0  0  0
    0.8306    0.2000   -2.9232 N   0  0  0  0  0  0  0  0  0  0  0  0
    0.9935   -0.6797   -2.4407 H   0  0  0  0  0  0  0  0  0  0  0  0
    1.4234    0.3964   -4.2405 C   0  0  0  0  0  0  0  0  0  0  0  0
    1.9645    1.3477   -4.2791 H   0  0  0  0  0  0  0  0  0  0  0  0
    2.1290   -0.4103   -4.4614 H   0  0  0  0  0  0  0  0  0  0  0  0
    0.6479    0.3999   -5.0138 H   0  0  0  0  0  0  0  0  0  0  0  0
  1  2  1  0  0  0  0
  2  3  1  0  0  0  0
  2  4  1  0  0  0  0
  2  5  1  0  0  0  0
  5  6  2  0  0  0  0
  5  7  1  0  0  0  0
  7  8  1  0  0  0  0
  7  9  1  0  0  0  0
  9 10  1  0  0  0  0
  9 11  1  0  0  0  0
  9 29  1  0  0  0  0
 11 12  1  0  0  0  0
 11 13  1  0  0  0  0
 11 14  1  0  0  0  0
 14 15  2  0  0  0  0
 14 28  1  0  0  0  0
 15 16  1  0  0  0  0
 15 17  1  0  0  0  0
 17 18  1  0  0  0  0
 17 19  1  0  0  0  0
 19 20  1  0  0  0  0
 19 28  2  0  0  0  0
 20 21  1  0  0  0  0
 20 22  2  0  0  0  0
 22 23  1  0  0  0  0
 22 24  1  0  0  0  0
 24 25  1  0  0  0  0
 24 26  2  0  0  0  0
 26 27  1  0  0  0  0
 26 28  1  0  0  0  0
 29 30  2  0  0  0  0
 29 31  1  0  0  0  0
 31 32  1  0  0  0  0
 31 33  1  0  0  0  0
 33 34  1  0  0  0  0
 33 35  1  0  0  0  0
 33 36  1  0  0  0  0
M  END
$$$$

  -OEChem-01062216103D

 36 37  0     1  0  0  0  0  0999 V2000
   -3.3791   -1.8684    1.1848 H   0  0  0  0  0  0  0  0  0  0  0  0
   -3.3972   -0.9649    0.5702 C   0  0  0  0  0  0  0  0  0  0  0  0
   -3.1240   -0.1074    1.1908 H   0  0  0  0  0  0  0  0  0  0  0  0
   -4.4100   -0.8124    0.1901 H   0  0  0  0  0  0  0  0  0  0  0  0
   -2.4292   -1.1008   -0.5921 C   0  0  0  0  0  0  0  0  0  0  0  0
   -2.2562   -2.1731   -1.1429 O   0  0  0  0  0  0  0  0  0  0  0  0
   -2.0547   -0.0046   -1.3172 N   0  0  0  0  0  0  0  0  0  0  0  0
   -2.1277   -0.2395   -2.3050 H   0  0  0  0  0  0  0  0  0  0  0  0
   -0.8254    0.7660   -1.0333 C   0  0  1  0  0  0  0  0  0  0  0  0
   -1.1239    1.7261   -0.5993 H   0  0  0  0  0  0  0  0  0  0  0  0
    0.2605    0.1486   -0.1067 C   0  0  0  0  0  0  0  0  0  0  0  0
    0.5395   -0.8342   -0.5001 H   0  0  0  0  0  0  0  0  0  0  0  0
    1.1585    0.7753   -0.1375 H   0  0  0  0  0  0  0  0  0  0  0  0
   -0.1256   -0.0307    1.3388 C   0  0  0  0  0  0  0  0  0  0  0  0
   -0.5872   -1.1765    1.9435 C   0  0  0  0  0  0  0  0  0  0  0  0
   -0.6974   -2.1463    1.4608 H   0  0  0  0  0  0  0  0  0  0  0  0
   -0.8813   -0.8674    3.2690 N   0  0  0  0  0  0  0  0  0  0  0  0
   -1.2210   -1.5269    3.9668 H   0  0  0  0  0  0  0  0  0  0  0  0
   -0.6237    0.4706    3.5198 C   0  0  0  0  0  0  0  0  0  0  0  0
   -0.7636    1.2446    4.6716 C   0  0  0  0  0  0  0  0  0  0  0  0
   -1.1328    0.7989    5.5885 H   0  0  0  0  0  0  0  0  0  0  0  0
   -0.4223    2.6039    4.6266 C   0  0  0  0  0  0  0  0  0  0  0  0
   -0.5265    3.2189    5.5157 H   0  0  0  0  0  0  0  0  0  0  0  0
    0.0538    3.1714    3.4344 C   0  0  0  0  0  0  0  0  0  0  0  0
    0.3175    4.2244    3.4026 H   0  0  0  0  0  0  0  0  0  0  0  0
    0.1917    2.3833    2.2829 C   0  0  0  0  0  0  0  0  0  0  0  0
    0.5613    2.8192    1.3602 H   0  0  0  0  0  0  0  0  0  0  0  0
   -0.1508    1.0283    2.3377 C   0  0  0  0  0  0  0  0  0  0  0  0
   -0.1253    1.0456   -2.3792 C   0  0  0  0  0  0  0  0  0  0  0  0
   -0.1935    2.1582   -2.8800 O   0  0  0  0  0  0  0  0  0  0  0  0
    0.5611    0.0453   -3.0456 N   0  0  0  0  0  0  0  0  0  0  0  0
    0.5262   -0.8907   -2.6489 H   0  0  0  0  0  0  0  0  0  0  0  0
    1.1948    0.2369   -4.3443 C   0  0  0  0  0  0  0  0  0  0  0  0
    1.9553    1.0228   -4.2869 H   0  0  0  0  0  0  0  0  0  0  0  0
    1.6796   -0.6890   -4.6681 H   0  0  0  0  0  0  0  0  0  0  0  0
    0.4511    0.5201   -5.0965 H   0  0  0  0  0  0  0  0  0  0  0  0
  1  2  1  0  0  0  0
  2  3  1  0  0  0  0
  2  4  1  0  0  0  0
  2  5  1  0  0  0  0
  5  6  2  0  0  0  0
  5  7  1  0  0  0  0
  7  8  1  0  0  0  0
  7  9  1  0  0  0  0
  9 10  1  0  0  0  0
  9 11  1  0  0  0  0
  9 29  1  0  0  0  0
 11 12  1  0  0  0  0
 11 13  1  0  0  0  0
 11 14  1  0  0  0  0
 14 15  2  0  0  0  0
 14 28  1  0  0  0  0
 15 16  1  0  0  0  0
 15 17  1  0  0  0  0
 17 18  1  0  0  0  0
 17 19  1  0  0  0  0
 19 20  1  0  0  0  0
 19 28  2  0  0  0  0
 20 21  1  0  0  0  0
 20 22  2  0  0  0  0
 22 23  1  0  0  0  0
 22 24  1  0  0  0  0
 24 25  1  0  0  0  0
 24 26  2  0  0  0  0
 26 27  1  0  0  0  0
 26 28  1  0  0  0  0
 29 30  2  0  0  0  0
 29 31  1  0  0  0  0
 31 32  1  0  0  0  0
 31 33  1  0  0  0  0
 33 34  1  0  0  0  0
 33 35  1  0  0  0  0
 33 36  1  0  0  0  0
M  END
$$$$

  -OEChem-01062216103D

 36 37  0     1  0  0  0  0  0999 V2000
   -3.3537   -1.8396    1.2407 H   0  0  0  0  0  0  0  0  0  0  0  0
   -3.3832   -0.9408    0.6201 C   0  0  0  0  0  0  0  0  0  0  0  0
   -3.0760   -0.0823    1.2232 H   0  0  0  0  0  0  0  0  0  0  0  0
   -4.4078   -0.7774    0.2777 H   0  0  0  0  0  0  0  0  0  0  0  0
   -2.4631   -1.0996   -0.5778 C   0  0  0  0  0  0  0  0  0  0  0  0
   -2.3577   -2.1695   -1.1498 O   0  0  0  0  0  0  0  0  0  0  0  0
   -2.0926   -0.0142   -1.3205 N   0  0  0  0  0  0  0  0  0  0  0  0
   -2.1728   -0.2622   -2.3046 H   0  0  0  0  0  0  0  0  0  0  0  0
   -0.8732    0.7771   -1.0484 C   0  0  1  0  0  0  0  0  0  0  0  0
   -1.1772    1.7393   -0.6230 H   0  0  0  0  0  0  0  0  0  0  0  0
    0.2367    0.1767   -0.1409 C   0  0  0  0  0  0  0  0  0  0  0  0
    0.5316   -0.7959   -0.5482 H   0  0  0  0  0  0  0  0  0  0  0  0
    1.1208    0.8226   -0.1811 H   0  0  0  0  0  0  0  0  0  0  0  0
   -0.1198   -0.0205    1.3100 C   0  0  0  0  0  0  0  0  0  0  0  0
   -0.5466   -1.1808    1.9133 C   0  0  0  0  0  0  0  0  0  0  0  0
   -0.6423   -2.1502    1.4260 H   0  0  0  0  0  0  0  0  0  0  0  0
   -0.8260   -0.8876    3.2457 N   0  0  0  0  0  0  0  0  0  0  0  0
   -1.1376   -1.5595    3.9446 H   0  0  0  0  0  0  0  0  0  0  0  0
   -0.5978    0.4546    3.5021 C   0  0  0  0  0  0  0  0  0  0  0  0
   -0.7401    1.2177    4.6612 C   0  0  0  0  0  0  0  0  0  0  0  0
   -1.0831    0.7574    5.5811 H   0  0  0  0  0  0  0  0  0  0  0  0
   -0.4371    2.5861    4.6196 C   0  0  0  0  0  0  0  0  0  0  0  0
   -0.5448    3.1931    5.5138 H   0  0  0  0  0  0  0  0  0  0  0  0
    0.0044    3.1734    3.4237 C   0  0  0  0  0  0  0  0  0  0  0  0
    0.2377    4.2337    3.3948 H   0  0  0  0  0  0  0  0  0  0  0  0
    0.1466    2.3962    2.2651 C   0  0  0  0  0  0  0  0  0  0  0  0
    0.4887    2.8481    1.3393 H   0  0  0  0  0  0  0  0  0  0  0  0
   -0.1574    1.0315    2.3163 C   0  0  0  0  0  0  0  0  0  0  0  0
   -0.1740    1.0345   -2.3974 C   0  0  0  0  0  0  0  0  0  0  0  0
    0.0277    2.1788   -2.7758 O   0  0  0  0  0  0  0  0  0  0  0  0
    0.2513   -0.0281   -3.1762 N   0  0  0  0  0  0  0  0  0  0  0  0
    0.0779   -0.9680   -2.8259 H   0  0  0  0  0  0  0  0  0  0  0  0
    0.9447    0.1360   -4.4477 C   0  0  0  0  0  0  0  0  0  0  0  0
    1.9131    0.6235   -4.2948 H   0  0  0  0  0  0  0  0  0  0  0  0
    1.1168   -0.8394   -4.9128 H   0  0  0  0  0  0  0  0  0  0  0  0
    0.3482    0.7443   -5.1357 H   0  0  0  0  0  0  0  0  0  0  0  0
  1  2  1  0  0  0  0
  2  3  1  0  0  0  0
  2  4  1  0  0  0  0
  2  5  1  0  0  0  0
  5  6  2  0  0  0  0
  5  7  1  0  0  0  0
  7  8  1  0  0  0  0
  7  9  1  0  0  0  0
  9 10  1  0  0  0  0
  9 11  1  0  0  0  0
  9 29  1  0  0  0  0
 11 12  1  0  0  0  0
 11 13  1  0  0  0  0
 11 14  1  0  0  0  0
 14 15  2  0  0  0  0
 14 28  1  0  0  0  0
 15 16  1  0  0  0  0
 15 17  1  0  0  0  0
 17 18  1  0  0  0  0
 17 19  1  0  0  0  0
 19 20  1  0  0  0  0
 19 28  2  0  0  0  0
 20 21  1  0  0  0  0
 20 22  2  0  0  0  0
 22 23  1  0  0  0  0
 22 24  1  0  0  0  0
 24 25  1  0  0  0  0
 24 26  2  0  0  0  0
 26 27  1  0  0  0  0
 26 28  1  0  0  0  0
 29 30  2  0  0  0  0
 29 31  1  0  0  0  0
 31 32  1  0  0  0  0
 31 33  1  0  0  0  0
 33 34  1  0  0  0  0
 33 35  1  0  0  0  0
 33 36  1  0  0  0  0
M  END
$$$$

  -OEChem-01062216103D

 36 37  0     1  0  0  0  0  0999 V2000
   -3.3262   -1.8191    1.2863 H   0  0  0  0  0  0  0  0  0  0  0  0
   -3.3755   -0.9275    0.6566 C   0  0  0  0  0  0  0  0  0  0  0  0
   -3.0493   -0.0620    1.2390 H   0  0  0  0  0  0  0  0  0  0  0  0
   -4.4107   -0.7674    0.3461 H   0  0  0  0  0  0  0  0  0  0  0  0
   -2.4953   -1.1011   -0.5690 C   0  0  0  0  0  0  0  0  0  0  0  0
   -2.4676   -2.1592   -1.1705 O   0  0  0  0  0  0  0  0  0  0  0  0
   -2.1210   -0.0206   -1.3168 N   0  0  0  0  0  0  0  0  0  0  0  0
   -2.2232   -0.2587   -2.3011 H   0  0  0  0  0  0  0  0  0  0  0  0
   -0.9102    0.7887   -1.0551 C   0  0  1  0  0  0  0  0  0  0  0  0
   -1.2187    1.7511   -0.6340 H   0  0  0  0  0  0  0  0  0  0  0  0
    0.2148    0.1961   -0.1612 C   0  0  0  0  0  0  0  0  0  0  0  0
    0.5158   -0.7696   -0.5806 H   0  0  0  0  0  0  0  0  0  0  0  0
    1.0923    0.8511   -0.2052 H   0  0  0  0  0  0  0  0  0  0  0  0
   -0.1217   -0.0149    1.2920 C   0  0  0  0  0  0  0  0  0  0  0  0
   -0.5271   -1.1833    1.8939 C   0  0  0  0  0  0  0  0  0  0  0  0
   -0.6159   -2.1511    1.4029 H   0  0  0  0  0  0  0  0  0  0  0  0
   -0.7991   -0.8998    3.2298 N   0  0  0  0  0  0  0  0  0  0  0  0
   -1.0965   -1.5787    3.9282 H   0  0  0  0  0  0  0  0  0  0  0  0
   -0.5841    0.4437    3.4905 C   0  0  0  0  0  0  0  0  0  0  0  0
   -0.7236    1.1990    4.6548 C   0  0  0  0  0  0  0  0  0  0  0  0
   -1.0519    0.7299    5.5756 H   0  0  0  0  0  0  0  0  0  0  0  0
   -0.4360    2.5708    4.6172 C   0  0  0  0  0  0  0  0  0  0  0  0
   -0.5408    3.1719    5.5158 H   0  0  0  0  0  0  0  0  0  0  0  0
   -0.0131    3.1690    3.4199 C   0  0  0  0  0  0  0  0  0  0  0  0
    0.2083    4.2318    3.3936 H   0  0  0  0  0  0  0  0  0  0  0  0
    0.1262    2.3994    2.2561 C   0  0  0  0  0  0  0  0  0  0  0  0
    0.4546    2.8583    1.3289 H   0  0  0  0  0  0  0  0  0  0  0  0
   -0.1618    1.0315    2.3037 C   0  0  0  0  0  0  0  0  0  0  0  0
   -0.2076    1.0368   -2.4043 C   0  0  0  0  0  0  0  0  0  0  0  0
    0.2214    2.1478   -2.6791 O   0  0  0  0  0  0  0  0  0  0  0  0
   -0.0450   -0.0048   -3.3027 N   0  0  0  0  0  0  0  0  0  0  0  0
   -0.3215   -0.9353   -2.9953 H   0  0  0  0  0  0  0  0  0  0  0  0
    0.6670    0.1343   -4.5669 C   0  0  0  0  0  0  0  0  0  0  0  0
    1.7285    0.3347   -4.3883 H   0  0  0  0  0  0  0  0  0  0  0  0
    0.5804   -0.7866   -5.1515 H   0  0  0  0  0  0  0  0  0  0  0  0
    0.2470    0.9559   -5.1572 H   0  0  0  0  0  0  0  0  0  0  0  0
  1  2  1  0  0  0  0
  2  3  1  0  0  0  0
  2  4  1  0  0  0  0
  2  5  1  0  0  0  0
  5  6  2  0  0  0  0
  5  7  1  0  0  0  0
  7  8  1  0  0  0  0
  7  9  1  0  0  0  0
  9 10  1  0  0  0  0
  9 11  1  0  0  0  0
  9 29  1  0  0  0  0
 11 12  1  0  0  0  0
 11 13  1  0  0  0  0
 11 14  1  0  0  0  0
 14 15  2  0  0  0  0
 14 28  1  0  0  0  0
 15 16  1  0  0  0  0
 15 17  1  0  0  0  0
 17 18  1  0  0  0  0
 17 19  1  0  0  0  0
 19 20  1  0  0  0  0
 19 28  2  0  0  0  0
 20 21  1  0  0  0  0
 20 22  2  0  0  0  0
 22 23  1  0  0  0  0
 22 24  1  0  0  0  0
 24 25  1  0  0  0  0
 24 26  2  0  0  0  0
 26 27  1  0  0  0  0
 26 28  1  0  0  0  0
 29 30  2  0  0  0  0
 29 31  1  0  0  0  0
 31 32  1  0  0  0  0
 31 33  1  0  0  0  0
 33 34  1  0  0  0  0
 33 35  1  0  0  0  0
 33 36  1  0  0  0  0
M  END
$$$$

  -OEChem-01062216103D

 36 37  0     1  0  0  0  0  0999 V2000
   -3.2808   -1.8101    1.3359 H   0  0  0  0  0  0  0  0  0  0  0  0
   -3.3694   -0.9354    0.6873 C   0  0  0  0  0  0  0  0  0  0  0  0
   -3.0462   -0.0489    1.2391 H   0  0  0  0  0  0  0  0  0  0  0  0
   -4.4171   -0.8055    0.4060 H   0  0  0  0  0  0  0  0  0  0  0  0
   -2.5239   -1.1191   -0.5614 C   0  0  0  0  0  0  0  0  0  0  0  0
   -2.5734   -2.1599   -1.1909 O   0  0  0  0  0  0  0  0  0  0  0  0
   -2.1431   -0.0403   -1.3085 N   0  0  0  0  0  0  0  0  0  0  0  0
   -2.2792   -0.2565   -2.2928 H   0  0  0  0  0  0  0  0  0  0  0  0
   -0.9406    0.7867   -1.0580 C   0  0  1  0  0  0  0  0  0  0  0  0
   -1.2560    1.7477   -0.6392 H   0  0  0  0  0  0  0  0  0  0  0  0
    0.1912    0.1991   -0.1681 C   0  0  0  0  0  0  0  0  0  0  0  0
    0.4968   -0.7629   -0.5936 H   0  0  0  0  0  0  0  0  0  0  0  0
    1.0655    0.8584   -0.2117 H   0  0  0  0  0  0  0  0  0  0  0  0
   -0.1338   -0.0173    1.2869 C   0  0  0  0  0  0  0  0  0  0  0  0
   -0.5275   -1.1882    1.8915 C   0  0  0  0  0  0  0  0  0  0  0  0
   -0.6139   -2.1566    1.4014 H   0  0  0  0  0  0  0  0  0  0  0  0
   -0.7901   -0.9065    3.2298 N   0  0  0  0  0  0  0  0  0  0  0  0
   -1.0764   -1.5877    3.9308 H   0  0  0  0  0  0  0  0  0  0  0  0
   -0.5800    0.4381    3.4895 C   0  0  0  0  0  0  0  0  0  0  0  0
   -0.7129    1.1930    4.6549 C   0  0  0  0  0  0  0  0  0  0  0  0
   -1.0320    0.7228    5.5784 H   0  0  0  0  0  0  0  0  0  0  0  0
   -0.4287    2.5655    4.6156 C   0  0  0  0  0  0  0  0  0  0  0  0
   -0.5265    3.1658    5.5153 H   0  0  0  0  0  0  0  0  0  0  0  0
   -0.0168    3.1653    3.4153 C   0  0  0  0  0  0  0  0  0  0  0  0
    0.2038    4.2283    3.3880 H   0  0  0  0  0  0  0  0  0  0  0  0
    0.1139    2.3965    2.2499 C   0  0  0  0  0  0  0  0  0  0  0  0
    0.4341    2.8563    1.3200 H   0  0  0  0  0  0  0  0  0  0  0  0
   -0.1701    1.0279    2.2998 C   0  0  0  0  0  0  0  0  0  0  0  0
   -0.2276    1.0370   -2.4044 C   0  0  0  0  0  0  0  0  0  0  0  0
    0.3847    2.0798   -2.5857 O   0  0  0  0  0  0  0  0  0  0  0  0
   -0.3018    0.1030   -3.4260 N   0  0  0  0  0  0  0  0  0  0  0  0
   -0.6642   -0.8174   -3.1861 H   0  0  0  0  0  0  0  0  0  0  0  0
    0.3975    0.2630   -4.6953 C   0  0  0  0  0  0  0  0  0  0  0  0
    1.4809    0.2763   -4.5375 H   0  0  0  0  0  0  0  0  0  0  0  0
    0.1540   -0.5655   -5.3672 H   0  0  0  0  0  0  0  0  0  0  0  0
    0.1009    1.1979   -5.1826 H   0  0  0  0  0  0  0  0  0  0  0  0
  1  2  1  0  0  0  0
  2  3  1  0  0  0  0
  2  4  1  0  0  0  0
  2  5  1  0  0  0  0
  5  6  2  0  0  0  0
  5  7  1  0  0  0  0
  7  8  1  0  0  0  0
  7  9  1  0  0  0  0
  9 10  1  0  0  0  0
  9 11  1  0  0  0  0
  9 29  1  0  0  0  0
 11 12  1  0  0  0  0
 11 13  1  0  0  0  0
 11 14  1  0  0  0  0
 14 15  2  0  0  0  0
 14 28  1  0  0  0  0
 15 16  1  0  0  0  0
 15 17  1  0  0  0  0
 17 18  1  0  0  0  0
 17 19  1  0  0  0  0
 19 20  1  0  0  0  0
 19 28  2  0  0  0  0
 20 21  1  0  0  0  0
 20 22  2  0  0  0  0
 22 23  1  0  0  0  0
 22 24  1  0  0  0  0
 24 25  1  0  0  0  0
 24 26  2  0  0  0  0
 26 27  1  0  0  0  0
 26 28  1  0  0  0  0
 29 30  2  0  0  0  0
 29 31  1  0  0  0  0
 31 32  1  0  0  0  0
 31 33  1  0  0  0  0
 33 34  1  0  0  0  0
 33 35  1  0  0  0  0
 33 36  1  0  0  0  0
M  END
$$$$

  -OEChem-01062216103D

 36 37  0     1  0  0  0  0  0999 V2000
   -3.2590   -1.8323    1.3619 H   0  0  0  0  0  0  0  0  0  0  0  0
   -3.3607   -0.9577    0.7152 C   0  0  0  0  0  0  0  0  0  0  0  0
   -3.0242   -0.0707    1.2579 H   0  0  0  0  0  0  0  0  0  0  0  0
   -4.4146   -0.8269    0.4581 H   0  0  0  0  0  0  0  0  0  0  0  0
   -2.5454   -1.1451   -0.5528 C   0  0  0  0  0  0  0  0  0  0  0  0
   -2.6778   -2.1592   -1.2126 O   0  0  0  0  0  0  0  0  0  0  0  0
   -2.1561   -0.0640   -1.2925 N   0  0  0  0  0  0  0  0  0  0  0  0
   -2.3385   -0.2469   -2.2748 H   0  0  0  0  0  0  0  0  0  0  0  0
   -0.9571    0.7734   -1.0550 C   0  0  1  0  0  0  0  0  0  0  0  0
   -1.2758    1.7329   -0.6351 H   0  0  0  0  0  0  0  0  0  0  0  0
    0.1776    0.1857   -0.1647 C   0  0  0  0  0  0  0  0  0  0  0  0
    0.4802   -0.7765   -0.5914 H   0  0  0  0  0  0  0  0  0  0  0  0
    1.0539    0.8421   -0.2080 H   0  0  0  0  0  0  0  0  0  0  0  0
   -0.1380   -0.0291    1.2925 C   0  0  0  0  0  0  0  0  0  0  0  0
   -0.5282   -1.1968    1.9053 C   0  0  0  0  0  0  0  0  0  0  0  0
   -0.6153   -2.1678    1.4208 H   0  0  0  0  0  0  0  0  0  0  0  0
   -0.7849   -0.9076    3.2436 N   0  0  0  0  0  0  0  0  0  0  0  0
   -1.0664   -1.5850    3.9502 H   0  0  0  0  0  0  0  0  0  0  0  0
   -0.5745    0.4388    3.4948 C   0  0  0  0  0  0  0  0  0  0  0  0
   -0.7028    1.2015    4.6556 C   0  0  0  0  0  0  0  0  0  0  0  0
   -1.0176    0.7374    5.5836 H   0  0  0  0  0  0  0  0  0  0  0  0
   -0.4199    2.5742    4.6054 C   0  0  0  0  0  0  0  0  0  0  0  0
   -0.5147    3.1805    5.5014 H   0  0  0  0  0  0  0  0  0  0  0  0
   -0.0129    3.1662    3.3994 C   0  0  0  0  0  0  0  0  0  0  0  0
    0.2066    4.2291    3.3635 H   0  0  0  0  0  0  0  0  0  0  0  0
    0.1142    2.3894    2.2391 C   0  0  0  0  0  0  0  0  0  0  0  0
    0.4316    2.8421    1.3047 H   0  0  0  0  0  0  0  0  0  0  0  0
   -0.1699    1.0214    2.2997 C   0  0  0  0  0  0  0  0  0  0  0  0
   -0.2397    1.0331   -2.4017 C   0  0  0  0  0  0  0  0  0  0  0  0
    0.5270    1.9807   -2.5057 O   0  0  0  0  0  0  0  0  0  0  0  0
   -0.5301    0.2802   -3.5299 N   0  0  0  0  0  0  0  0  0  0  0  0
   -0.9855   -0.6158   -3.3766 H   0  0  0  0  0  0  0  0  0  0  0  0
    0.1362    0.4960   -4.8092 C   0  0  0  0  0  0  0  0  0  0  0  0
    1.2117    0.3113   -4.7172 H   0  0  0  0  0  0  0  0  0  0  0  0
   -0.2700   -0.1825   -5.5657 H   0  0  0  0  0  0  0  0  0  0  0  0
   -0.0169    1.5244   -5.1535 H   0  0  0  0  0  0  0  0  0  0  0  0
  1  2  1  0  0  0  0
  2  3  1  0  0  0  0
  2  4  1  0  0  0  0
  2  5  1  0  0  0  0
  5  6  2  0  0  0  0
  5  7  1  0  0  0  0
  7  8  1  0  0  0  0
  7  9  1  0  0  0  0
  9 10  1  0  0  0  0
  9 11  1  0  0  0  0
  9 29  1  0  0  0  0
 11 12  1  0  0  0  0
 11 13  1  0  0  0  0
 11 14  1  0  0  0  0
 14 15  2  0  0  0  0
 14 28  1  0  0  0  0
 15 16  1  0  0  0  0
 15 17  1  0  0  0  0
 17 18  1  0  0  0  0
 17 19  1  0  0  0  0
 19 20  1  0  0  0  0
 19 28  2  0  0  0  0
 20 21  1  0  0  0  0
 20 22  2  0  0  0  0
 22 23  1  0  0  0  0
 22 24  1  0  0  0  0
 24 25  1  0  0  0  0
 24 26  2  0  0  0  0
 26 27  1  0  0  0  0
 26 28  1  0  0  0  0
 29 30  2  0  0  0  0
 29 31  1  0  0  0  0
 31 32  1  0  0  0  0
 31 33  1  0  0  0  0
 33 34  1  0  0  0  0
 33 35  1  0  0  0  0
 33 36  1  0  0  0  0
M  END
$$$$

  -OEChem-01062216103D

 36 37  0     1  0  0  0  0  0999 V2000
   -3.2501   -1.8499    1.3854 H   0  0  0  0  0  0  0  0  0  0  0  0
   -3.3652   -0.9854    0.7276 C   0  0  0  0  0  0  0  0  0  0  0  0
   -3.0478   -0.0857    1.2610 H   0  0  0  0  0  0  0  0  0  0  0  0
   -4.4205   -0.8773    0.4662 H   0  0  0  0  0  0  0  0  0  0  0  0
   -2.5428   -1.1732   -0.5367 C   0  0  0  0  0  0  0  0  0  0  0  0
   -2.6951   -2.1784   -1.2056 O   0  0  0  0  0  0  0  0  0  0  0  0
   -2.1624   -0.0896   -1.2777 N   0  0  0  0  0  0  0  0  0  0  0  0
   -2.3509   -0.2867   -2.2537 H   0  0  0  0  0  0  0  0  0  0  0  0
   -0.9626    0.7539   -1.0554 C   0  0  1  0  0  0  0  0  0  0  0  0
   -1.2829    1.7114   -0.6329 H   0  0  0  0  0  0  0  0  0  0  0  0
    0.1680    0.1622   -0.1568 C   0  0  0  0  0  0  0  0  0  0  0  0
    0.4631   -0.8042   -0.5790 H   0  0  0  0  0  0  0  0  0  0  0  0
    1.0518    0.8081   -0.1966 H   0  0  0  0  0  0  0  0  0  0  0  0
   -0.1466   -0.0410    1.3030 C   0  0  0  0  0  0  0  0  0  0  0  0
   -0.5442   -1.2014    1.9247 C   0  0  0  0  0  0  0  0  0  0  0  0
   -0.6372   -2.1753    1.4469 H   0  0  0  0  0  0  0  0  0  0  0  0
   -0.7981   -0.9016    3.2612 N   0  0  0  0  0  0  0  0  0  0  0  0
   -1.0833   -1.5722    3.9726 H   0  0  0  0  0  0  0  0  0  0  0  0
   -0.5773    0.4448    3.5030 C   0  0  0  0  0  0  0  0  0  0  0  0
   -0.6976    1.2164    4.6589 C   0  0  0  0  0  0  0  0  0  0  0  0
   -1.0144    0.7611    5.5906 H   0  0  0  0  0  0  0  0  0  0  0  0
   -0.4042    2.5865    4.5993 C   0  0  0  0  0  0  0  0  0  0  0  0
   -0.4927    3.1997    5.4912 H   0  0  0  0  0  0  0  0  0  0  0  0
    0.0062    3.1670    3.3891 C   0  0  0  0  0  0  0  0  0  0  0  0
    0.2353    4.2277    3.3462 H   0  0  0  0  0  0  0  0  0  0  0  0
    0.1254    2.3815    2.2338 C   0  0  0  0  0  0  0  0  0  0  0  0
    0.4461    2.8250    1.2961 H   0  0  0  0  0  0  0  0  0  0  0  0
   -0.1698    1.0162    2.3036 C   0  0  0  0  0  0  0  0  0  0  0  0
   -0.2465    1.0300   -2.4064 C   0  0  0  0  0  0  0  0  0  0  0  0
    0.6697    1.8406   -2.4514 O   0  0  0  0  0  0  0  0  0  0  0  0
   -0.7190    0.5219   -3.6087 N   0  0  0  0  0  0  0  0  0  0  0  0
   -1.3360   -0.2819   -3.5631 H   0  0  0  0  0  0  0  0  0  0  0  0
   -0.0829    0.8129   -4.8895 C   0  0  0  0  0  0  0  0  0  0  0  0
    0.9470    0.4405   -4.9012 H   0  0  0  0  0  0  0  0  0  0  0  0
   -0.6350    0.3320   -5.7026 H   0  0  0  0  0  0  0  0  0  0  0  0
   -0.0694    1.8921   -5.0764 H   0  0  0  0  0  0  0  0  0  0  0  0
  1  2  1  0  0  0  0
  2  3  1  0  0  0  0
  2  4  1  0  0  0  0
  2  5  1  0  0  0  0
  5  6  2  0  0  0  0
  5  7  1  0  0  0  0
  7  8  1  0  0  0  0
  7  9  1  0  0  0  0
  9 10  1  0  0  0  0
  9 11  1  0  0  0  0
  9 29  1  0  0  0  0
 11 12  1  0  0  0  0
 11 13  1  0  0  0  0
 11 14  1  0  0  0  0
 14 15  2  0  0  0  0
 14 28  1  0  0  0  0
 15 16  1  0  0  0  0
 15 17  1  0  0  0  0
 17 18  1  0  0  0  0
 17 19  1  0  0  0  0
 19 20  1  0  0  0  0
 19 28  2  0  0  0  0
 20 21  1  0  0  0  0
 20 22  2  0  0  0  0
 22 23  1  0  0  0  0
 22 24  1  0  0  0  0
 24 25  1  0  0  0  0
 24 26  2  0  0  0  0
 26 27  1  0  0  0  0
 26 28  1  0  0  0  0
 29 30  2  0  0  0  0
 29 31  1  0  0  0  0
 31 32  1  0  0  0  0
 31 33  1  0  0  0  0
 33 34  1  0  0  0  0
 33 35  1  0  0  0  0
 33 36  1  0  0  0  0
M  END
$$$$

  -OEChem-01062216103D

 36 37  0     1  0  0  0  0  0999 V2000
   -3.2861   -1.9162    1.3213 H   0  0  0  0  0  0  0  0  0  0  0  0
   -3.3590   -1.0335    0.6815 C   0  0  0  0  0  0  0  0  0  0  0  0
   -3.0704   -0.1509    1.2580 H   0  0  0  0  0  0  0  0  0  0  0  0
   -4.3957   -0.9135    0.3585 H   0  0  0  0  0  0  0  0  0  0  0  0
   -2.4593   -1.1893   -0.5330 C   0  0  0  0  0  0  0  0  0  0  0  0
   -2.4641   -2.2308   -1.1615 O   0  0  0  0  0  0  0  0  0  0  0  0
   -2.1222   -0.0953   -1.2791 N   0  0  0  0  0  0  0  0  0  0  0  0
   -2.1492   -0.4307   -2.2381 H   0  0  0  0  0  0  0  0  0  0  0  0
   -0.9102    0.7316   -1.0484 C   0  0  1  0  0  0  0  0  0  0  0  0
   -1.2246    1.6866   -0.6166 H   0  0  0  0  0  0  0  0  0  0  0  0
    0.2068    0.1309   -0.1342 C   0  0  0  0  0  0  0  0  0  0  0  0
    0.4987   -0.8395   -0.5495 H   0  0  0  0  0  0  0  0  0  0  0  0
    1.0972    0.7673   -0.1595 H   0  0  0  0  0  0  0  0  0  0  0  0
   -0.1313   -0.0553    1.3236 C   0  0  0  0  0  0  0  0  0  0  0  0
   -0.5535   -1.2044    1.9499 C   0  0  0  0  0  0  0  0  0  0  0  0
   -0.6498   -2.1818    1.4796 H   0  0  0  0  0  0  0  0  0  0  0  0
   -0.8299   -0.8878    3.2778 N   0  0  0  0  0  0  0  0  0  0  0  0
   -1.1331   -1.5490    3.9904 H   0  0  0  0  0  0  0  0  0  0  0  0
   -0.6003    0.4587    3.5096 C   0  0  0  0  0  0  0  0  0  0  0  0
   -0.7381    1.2443    4.6541 C   0  0  0  0  0  0  0  0  0  0  0  0
   -1.0811    0.8026    5.5831 H   0  0  0  0  0  0  0  0  0  0  0  0
   -0.4269    2.6099    4.5868 C   0  0  0  0  0  0  0  0  0  0  0  0
   -0.5284    3.2334    5.4702 H   0  0  0  0  0  0  0  0  0  0  0  0
    0.0194    3.1717    3.3804 C   0  0  0  0  0  0  0  0  0  0  0  0
    0.2642    4.2285    3.3319 H   0  0  0  0  0  0  0  0  0  0  0  0
    0.1556    2.3723    2.2367 C   0  0  0  0  0  0  0  0  0  0  0  0
    0.5070    2.8006    1.3032 H   0  0  0  0  0  0  0  0  0  0  0  0
   -0.1606    1.0122    2.3131 C   0  0  0  0  0  0  0  0  0  0  0  0
   -0.2318    1.0270   -2.4189 C   0  0  0  0  0  0  0  0  0  0  0  0
    0.9044    1.4772   -2.4904 O   0  0  0  0  0  0  0  0  0  0  0  0
   -0.9118    0.8173   -3.6104 N   0  0  0  0  0  0  0  0  0  0  0  0
   -1.9154    0.6787   -3.5521 H   0  0  0  0  0  0  0  0  0  0  0  0
   -0.3427    1.1413   -4.9145 C   0  0  0  0  0  0  0  0  0  0  0  0
    0.5816    0.5777   -5.0802 H   0  0  0  0  0  0  0  0  0  0  0  0
   -1.0488    0.8832   -5.7096 H   0  0  0  0  0  0  0  0  0  0  0  0
   -0.1194    2.2112   -4.9826 H   0  0  0  0  0  0  0  0  0  0  0  0
  1  2  1  0  0  0  0
  2  3  1  0  0  0  0
  2  4  1  0  0  0  0
  2  5  1  0  0  0  0
  5  6  2  0  0  0  0
  5  7  1  0  0  0  0
  7  8  1  0  0  0  0
  7  9  1  0  0  0  0
  9 10  1  0  0  0  0
  9 11  1  0  0  0  0
  9 29  1  0  0  0  0
 11 12  1  0  0  0  0
 11 13  1  0  0  0  0
 11 14  1  0  0  0  0
 14 15  2  0  0  0  0
 14 28  1  0  0  0  0
 15 16  1  0  0  0  0
 15 17  1  0  0  0  0
 17 18  1  0  0  0  0
 17 19  1  0  0  0  0
 19 20  1  0  0  0  0
 19 28  2  0  0  0  0
 20 21  1  0  0  0  0
 20 22  2  0  0  0  0
 22 23  1  0  0  0  0
 22 24  1  0  0  0  0
 24 25  1  0  0  0  0
 24 26  2  0  0  0  0
 26 27  1  0  0  0  0
 26 28  1  0  0  0  0
 29 30  2  0  0  0  0
 29 31  1  0  0  0  0
 31 32  1  0  0  0  0
 31 33  1  0  0  0  0
 33 34  1  0  0  0  0
 33 35  1  0  0  0  0
 33 36  1  0  0  0  0
M  END
$$$$

  -OEChem-01062216103D

 36 37  0     1  0  0  0  0  0999 V2000
   -3.2564   -1.9170    1.2866 H   0  0  0  0  0  0  0  0  0  0  0  0
   -3.3382   -1.0312    0.6522 C   0  0  0  0  0  0  0  0  0  0  0  0
   -3.0557   -0.1494    1.2334 H   0  0  0  0  0  0  0  0  0  0  0  0
   -4.3767   -0.9184    0.3318 H   0  0  0  0  0  0  0  0  0  0  0  0
   -2.4404   -1.1740   -0.5653 C   0  0  0  0  0  0  0  0  0  0  0  0
   -2.4617   -2.2046   -1.2107 O   0  0  0  0  0  0  0  0  0  0  0  0
   -2.0947   -0.0707   -1.2943 N   0  0  0  0  0  0  0  0  0  0  0  0
   -2.1288   -0.3785   -2.2645 H   0  0  0  0  0  0  0  0  0  0  0  0
   -0.8818    0.7490   -1.0486 C   0  0  1  0  0  0  0  0  0  0  0  0
   -1.1942    1.7043   -0.6160 H   0  0  0  0  0  0  0  0  0  0  0  0
    0.2315    0.1492   -0.1307 C   0  0  0  0  0  0  0  0  0  0  0  0
    0.5308   -0.8192   -0.5461 H   0  0  0  0  0  0  0  0  0  0  0  0
    1.1169    0.7930   -0.1517 H   0  0  0  0  0  0  0  0  0  0  0  0
   -0.1162   -0.0406    1.3242 C   0  0  0  0  0  0  0  0  0  0  0  0
   -0.5396   -1.1952    1.9389 C   0  0  0  0  0  0  0  0  0  0  0  0
   -0.6269   -2.1697    1.4607 H   0  0  0  0  0  0  0  0  0  0  0  0
   -0.8268   -0.8890    3.2669 N   0  0  0  0  0  0  0  0  0  0  0  0
   -1.1306   -1.5569    3.9730 H   0  0  0  0  0  0  0  0  0  0  0  0
   -0.6016    0.4562    3.5103 C   0  0  0  0  0  0  0  0  0  0  0  0
   -0.7478    1.2321    4.6603 C   0  0  0  0  0  0  0  0  0  0  0  0
   -1.0971    0.7822    5.5830 H   0  0  0  0  0  0  0  0  0  0  0  0
   -0.4375    2.5987    4.6064 C   0  0  0  0  0  0  0  0  0  0  0  0
   -0.5439    3.2147    5.4945 H   0  0  0  0  0  0  0  0  0  0  0  0
    0.0127    3.1721    3.4070 C   0  0  0  0  0  0  0  0  0  0  0  0
    0.2551    4.2300    3.3690 H   0  0  0  0  0  0  0  0  0  0  0  0
    0.1560    2.3824    2.2572 C   0  0  0  0  0  0  0  0  0  0  0  0
    0.5095    2.8199    1.3290 H   0  0  0  0  0  0  0  0  0  0  0  0
   -0.1558    1.0205    2.3209 C   0  0  0  0  0  0  0  0  0  0  0  0
   -0.2259    1.0386   -2.4304 C   0  0  0  0  0  0  0  0  0  0  0  0
    0.9790    1.2010   -2.5733 O   0  0  0  0  0  0  0  0  0  0  0  0
   -1.0247    1.1260   -3.5605 N   0  0  0  0  0  0  0  0  0  0  0  0
   -2.0290    1.1725   -3.4129 H   0  0  0  0  0  0  0  0  0  0  0  0
   -0.5031    1.4402   -4.8865 C   0  0  0  0  0  0  0  0  0  0  0  0
    0.2732    0.7229   -5.1739 H   0  0  0  0  0  0  0  0  0  0  0  0
   -1.3052    1.3918   -5.6292 H   0  0  0  0  0  0  0  0  0  0  0  0
   -0.0754    2.4482   -4.9018 H   0  0  0  0  0  0  0  0  0  0  0  0
  1  2  1  0  0  0  0
  2  3  1  0  0  0  0
  2  4  1  0  0  0  0
  2  5  1  0  0  0  0
  5  6  2  0  0  0  0
  5  7  1  0  0  0  0
  7  8  1  0  0  0  0
  7  9  1  0  0  0  0
  9 10  1  0  0  0  0
  9 11  1  0  0  0  0
  9 29  1  0  0  0  0
 11 12  1  0  0  0  0
 11 13  1  0  0  0  0
 11 14  1  0  0  0  0
 14 15  2  0  0  0  0
 14 28  1  0  0  0  0
 15 16  1  0  0  0  0
 15 17  1  0  0  0  0
 17 18  1  0  0  0  0
 17 19  1  0  0  0  0
 19 20  1  0  0  0  0
 19 28  2  0  0  0  0
 20 21  1  0  0  0  0
 20 22  2  0  0  0  0
 22 23  1  0  0  0  0
 22 24  1  0  0  0  0
 24 25  1  0  0  0  0
 24 26  2  0  0  0  0
 26 27  1  0  0  0  0
 26 28  1  0  0  0  0
 29 30  2  0  0  0  0
 29 31  1  0  0  0  0
 31 32  1  0  0  0  0
 31 33  1  0  0  0  0
 33 34  1  0  0  0  0
 33 35  1  0  0  0  0
 33 36  1  0  0  0  0
M  END
$$$$

  -OEChem-01062216103D

 36 37  0     1  0  0  0  0  0999 V2000
   -3.2296   -1.9107    1.2700 H   0  0  0  0  0  0  0  0  0  0  0  0
   -3.3212   -1.0277    0.6330 C   0  0  0  0  0  0  0  0  0  0  0  0
   -3.0426   -0.1419    1.2096 H   0  0  0  0  0  0  0  0  0  0  0  0
   -4.3622   -0.9240    0.3181 H   0  0  0  0  0  0  0  0  0  0  0  0
   -2.4293   -1.1681   -0.5893 C   0  0  0  0  0  0  0  0  0  0  0  0
   -2.4632   -2.1948   -1.2402 O   0  0  0  0  0  0  0  0  0  0  0  0
   -2.0804   -0.0599   -1.3100 N   0  0  0  0  0  0  0  0  0  0  0  0
   -2.1245   -0.3464   -2.2871 H   0  0  0  0  0  0  0  0  0  0  0  0
   -0.8707    0.7588   -1.0536 C   0  0  1  0  0  0  0  0  0  0  0  0
   -1.1857    1.7128   -0.6205 H   0  0  0  0  0  0  0  0  0  0  0  0
    0.2415    0.1655   -0.1323 C   0  0  0  0  0  0  0  0  0  0  0  0
    0.5452   -0.8028   -0.5451 H   0  0  0  0  0  0  0  0  0  0  0  0
    1.1234    0.8144   -0.1576 H   0  0  0  0  0  0  0  0  0  0  0  0
   -0.1099   -0.0272    1.3213 C   0  0  0  0  0  0  0  0  0  0  0  0
   -0.5284   -1.1870    1.9301 C   0  0  0  0  0  0  0  0  0  0  0  0
   -0.6096   -2.1598    1.4473 H   0  0  0  0  0  0  0  0  0  0  0  0
   -0.8194   -0.8887    3.2590 N   0  0  0  0  0  0  0  0  0  0  0  0
   -1.1212   -1.5617    3.9611 H   0  0  0  0  0  0  0  0  0  0  0  0
   -0.6006    0.4560    3.5093 C   0  0  0  0  0  0  0  0  0  0  0  0
   -0.7512    1.2238    4.6639 C   0  0  0  0  0  0  0  0  0  0  0  0
   -1.0978    0.7658    5.5839 H   0  0  0  0  0  0  0  0  0  0  0  0
   -0.4499    2.5925    4.6182 C   0  0  0  0  0  0  0  0  0  0  0  0
   -0.5621    3.2024    5.5097 H   0  0  0  0  0  0  0  0  0  0  0  0
   -0.0011    3.1751    3.4227 C   0  0  0  0  0  0  0  0  0  0  0  0
    0.2349    4.2345    3.3916 H   0  0  0  0  0  0  0  0  0  0  0  0
    0.1488    2.3929    2.2686 C   0  0  0  0  0  0  0  0  0  0  0  0
    0.5032    2.8376    1.3444 H   0  0  0  0  0  0  0  0  0  0  0  0
   -0.1564    1.0290    2.3232 C   0  0  0  0  0  0  0  0  0  0  0  0
   -0.2221    1.0465   -2.4368 C   0  0  0  0  0  0  0  0  0  0  0  0
    0.9779    0.9417   -2.6555 O   0  0  0  0  0  0  0  0  0  0  0  0
   -1.0402    1.4384   -3.4839 N   0  0  0  0  0  0  0  0  0  0  0  0
   -2.0180    1.6148   -3.2694 H   0  0  0  0  0  0  0  0  0  0  0  0
   -0.5428    1.7677   -4.8151 C   0  0  0  0  0  0  0  0  0  0  0  0
    0.0008    0.9187   -5.2433 H   0  0  0  0  0  0  0  0  0  0  0  0
   -1.3765    2.0121   -5.4802 H   0  0  0  0  0  0  0  0  0  0  0  0
    0.1297    2.6307   -4.7706 H   0  0  0  0  0  0  0  0  0  0  0  0
  1  2  1  0  0  0  0
  2  3  1  0  0  0  0
  2  4  1  0  0  0  0
  2  5  1  0  0  0  0
  5  6  2  0  0  0  0
  5  7  1  0  0  0  0
  7  8  1  0  0  0  0
  7  9  1  0  0  0  0
  9 10  1  0  0  0  0
  9 11  1  0  0  0  0
  9 29  1  0  0  0  0
 11 12  1  0  0  0  0
 11 13  1  0  0  0  0
 11 14  1  0  0  0  0
 14 15  2  0  0  0  0
 14 28  1  0  0  0  0
 15 16  1  0  0  0  0
 15 17  1  0  0  0  0
 17 18  1  0  0  0  0
 17 19  1  0  0  0  0
 19 20  1  0  0  0  0
 19 28  2  0  0  0  0
 20 21  1  0  0  0  0
 20 22  2  0  0  0  0
 22 23  1  0  0  0  0
 22 24  1  0  0  0  0
 24 25  1  0  0  0  0
 24 26  2  0  0  0  0
 26 27  1  0  0  0  0
 26 28  1  0  0  0  0
 29 30  2  0  0  0  0
 29 31  1  0  0  0  0
 31 32  1  0  0  0  0
 31 33  1  0  0  0  0
 33 34  1  0  0  0  0
 33 35  1  0  0  0  0
 33 36  1  0  0  0  0
M  END
$$$$

  -OEChem-01062216103D

 36 37  0     1  0  0  0  0  0999 V2000
   -3.2067   -1.8981    1.2556 H   0  0  0  0  0  0  0  0  0  0  0  0
   -3.3105   -1.0174    0.6175 C   0  0  0  0  0  0  0  0  0  0  0  0
   -3.0299   -0.1281    1.1875 H   0  0  0  0  0  0  0  0  0  0  0  0
   -4.3558   -0.9202    0.3152 H   0  0  0  0  0  0  0  0  0  0  0  0
   -2.4333   -1.1564   -0.6156 C   0  0  0  0  0  0  0  0  0  0  0  0
   -2.5023   -2.1713   -1.2823 O   0  0  0  0  0  0  0  0  0  0  0  0
   -2.0753   -0.0428   -1.3243 N   0  0  0  0  0  0  0  0  0  0  0  0
   -2.1255   -0.3110   -2.3063 H   0  0  0  0  0  0  0  0  0  0  0  0
   -0.8702    0.7758   -1.0543 C   0  0  1  0  0  0  0  0  0  0  0  0
   -1.1895    1.7259   -0.6158 H   0  0  0  0  0  0  0  0  0  0  0  0
    0.2414    0.1847   -0.1331 C   0  0  0  0  0  0  0  0  0  0  0  0
    0.5484   -0.7825   -0.5462 H   0  0  0  0  0  0  0  0  0  0  0  0
    1.1203    0.8379   -0.1616 H   0  0  0  0  0  0  0  0  0  0  0  0
   -0.1121   -0.0185    1.3179 C   0  0  0  0  0  0  0  0  0  0  0  0
   -0.5250   -1.1836    1.9198 C   0  0  0  0  0  0  0  0  0  0  0  0
   -0.6023   -2.1537    1.4311 H   0  0  0  0  0  0  0  0  0  0  0  0
   -0.8179   -0.8932    3.2502 N   0  0  0  0  0  0  0  0  0  0  0  0
   -1.1177   -1.5710    3.9486 H   0  0  0  0  0  0  0  0  0  0  0  0
   -0.6039    0.4511    3.5081 C   0  0  0  0  0  0  0  0  0  0  0  0
   -0.7558    1.2129    4.6667 C   0  0  0  0  0  0  0  0  0  0  0  0
   -1.1004    0.7498    5.5847 H   0  0  0  0  0  0  0  0  0  0  0  0
   -0.4554    2.5819    4.6284 C   0  0  0  0  0  0  0  0  0  0  0  0
   -0.5667    3.1866    5.5236 H   0  0  0  0  0  0  0  0  0  0  0  0
   -0.0077    3.1716    3.4361 C   0  0  0  0  0  0  0  0  0  0  0  0
    0.2276    4.2314    3.4108 H   0  0  0  0  0  0  0  0  0  0  0  0
    0.1422    2.3960    2.2779 C   0  0  0  0  0  0  0  0  0  0  0  0
    0.4955    2.8458    1.3559 H   0  0  0  0  0  0  0  0  0  0  0  0
   -0.1608    1.0316    2.3254 C   0  0  0  0  0  0  0  0  0  0  0  0
   -0.2145    1.0700   -2.4295 C   0  0  0  0  0  0  0  0  0  0  0  0
    0.9172    0.7125   -2.7302 O   0  0  0  0  0  0  0  0  0  0  0  0
   -0.9560    1.7561   -3.3751 N   0  0  0  0  0  0  0  0  0  0  0  0
   -1.8922    2.0516   -3.1119 H   0  0  0  0  0  0  0  0  0  0  0  0
   -0.4668    2.0687   -4.7132 C   0  0  0  0  0  0  0  0  0  0  0  0
   -0.2000    1.1514   -5.2489 H   0  0  0  0  0  0  0  0  0  0  0  0
   -1.2402    2.5889   -5.2864 H   0  0  0  0  0  0  0  0  0  0  0  0
    0.4160    2.7142   -4.6579 H   0  0  0  0  0  0  0  0  0  0  0  0
  1  2  1  0  0  0  0
  2  3  1  0  0  0  0
  2  4  1  0  0  0  0
  2  5  1  0  0  0  0
  5  6  2  0  0  0  0
  5  7  1  0  0  0  0
  7  8  1  0  0  0  0
  7  9  1  0  0  0  0
  9 10  1  0  0  0  0
  9 11  1  0  0  0  0
  9 29  1  0  0  0  0
 11 12  1  0  0  0  0
 11 13  1  0  0  0  0
 11 14  1  0  0  0  0
 14 15  2  0  0  0  0
 14 28  1  0  0  0  0
 15 16  1  0  0  0  0
 15 17  1  0  0  0  0
 17 18  1  0  0  0  0
 17 19  1  0  0  0  0
 19 20  1  0  0  0  0
 19 28  2  0  0  0  0
 20 21  1  0  0  0  0
 20 22  2  0  0  0  0
 22 23  1  0  0  0  0
 22 24  1  0  0  0  0
 24 25  1  0  0  0  0
 24 26  2  0  0  0  0
 26 27  1  0  0  0  0
 26 28  1  0  0  0  0
 29 30  2  0  0  0  0
 29 31  1  0  0  0  0
 31 32  1  0  0  0  0
 31 33  1  0  0  0  0
 33 34  1  0  0  0  0
 33 35  1  0  0  0  0
 33 36  1  0  0  0  0
M  END
$$$$

  -OEChem-01062216103D

 36 37  0     1  0  0  0  0  0999 V2000
   -3.1925   -1.8885    1.2570 H   0  0  0  0  0  0  0  0  0  0  0  0
   -3.3016   -1.0090    0.6182 C   0  0  0  0  0  0  0  0  0  0  0  0
   -3.0139   -0.1188    1.1834 H   0  0  0  0  0  0  0  0  0  0  0  0
   -4.3500   -0.9105    0.3269 H   0  0  0  0  0  0  0  0  0  0  0  0
   -2.4374   -1.1520   -0.6236 C   0  0  0  0  0  0  0  0  0  0  0  0
   -2.5185   -2.1674   -1.2881 O   0  0  0  0  0  0  0  0  0  0  0  0
   -2.0813   -0.0387   -1.3340 N   0  0  0  0  0  0  0  0  0  0  0  0
   -2.1272   -0.3088   -2.3159 H   0  0  0  0  0  0  0  0  0  0  0  0
   -0.8822    0.7857   -1.0609 C   0  0  1  0  0  0  0  0  0  0  0  0
   -1.2084    1.7322   -0.6198 H   0  0  0  0  0  0  0  0  0  0  0  0
    0.2361    0.2047   -0.1426 C   0  0  0  0  0  0  0  0  0  0  0  0
    0.5468   -0.7624   -0.5533 H   0  0  0  0  0  0  0  0  0  0  0  0
    1.1110    0.8628   -0.1798 H   0  0  0  0  0  0  0  0  0  0  0  0
   -0.1116   -0.0039    1.3090 C   0  0  0  0  0  0  0  0  0  0  0  0
   -0.5112   -1.1761    1.9059 C   0  0  0  0  0  0  0  0  0  0  0  0
   -0.5817   -2.1438    1.4113 H   0  0  0  0  0  0  0  0  0  0  0  0
   -0.8009   -0.8964    3.2391 N   0  0  0  0  0  0  0  0  0  0  0  0
   -1.0907   -1.5811    3.9349 H   0  0  0  0  0  0  0  0  0  0  0  0
   -0.5977    0.4481    3.5042 C   0  0  0  0  0  0  0  0  0  0  0  0
   -0.7510    1.2000    4.6690 C   0  0  0  0  0  0  0  0  0  0  0  0
   -1.0874    0.7268    5.5848 H   0  0  0  0  0  0  0  0  0  0  0  0
   -0.4635    2.5720    4.6393 C   0  0  0  0  0  0  0  0  0  0  0  0
   -0.5768    3.1695    5.5391 H   0  0  0  0  0  0  0  0  0  0  0  0
   -0.0256    3.1736    3.4493 C   0  0  0  0  0  0  0  0  0  0  0  0
    0.2009    4.2354    3.4309 H   0  0  0  0  0  0  0  0  0  0  0  0
    0.1263    2.4075    2.2847 C   0  0  0  0  0  0  0  0  0  0  0  0
    0.4731    2.8672    1.3654 H   0  0  0  0  0  0  0  0  0  0  0  0
   -0.1653    1.0403    2.3230 C   0  0  0  0  0  0  0  0  0  0  0  0
   -0.2156    1.0838   -2.4277 C   0  0  0  0  0  0  0  0  0  0  0  0
    0.7796    0.4939   -2.8275 O   0  0  0  0  0  0  0  0  0  0  0  0
   -0.8031    2.0204   -3.2588 N   0  0  0  0  0  0  0  0  0  0  0  0
   -1.6570    2.4658   -2.9343 H   0  0  0  0  0  0  0  0  0  0  0  0
   -0.3029    2.3410   -4.5909 C   0  0  0  0  0  0  0  0  0  0  0  0
   -0.3115    1.4508   -5.2290 H   0  0  0  0  0  0  0  0  0  0  0  0
   -0.9320    3.1059   -5.0564 H   0  0  0  0  0  0  0  0  0  0  0  0
    0.7215    2.7241   -4.5341 H   0  0  0  0  0  0  0  0  0  0  0  0
  1  2  1  0  0  0  0
  2  3  1  0  0  0  0
  2  4  1  0  0  0  0
  2  5  1  0  0  0  0
  5  6  2  0  0  0  0
  5  7  1  0  0  0  0
  7  8  1  0  0  0  0
  7  9  1  0  0  0  0
  9 10  1  0  0  0  0
  9 11  1  0  0  0  0
  9 29  1  0  0  0  0
 11 12  1  0  0  0  0
 11 13  1  0  0  0  0
 11 14  1  0  0  0  0
 14 15  2  0  0  0  0
 14 28  1  0  0  0  0
 15 16  1  0  0  0  0
 15 17  1  0  0  0  0
 17 18  1  0  0  0  0
 17 19  1  0  0  0  0
 19 20  1  0  0  0  0
 19 28  2  0  0  0  0
 20 21  1  0  0  0  0
 20 22  2  0  0  0  0
 22 23  1  0  0  0  0
 22 24  1  0  0  0  0
 24 25  1  0  0  0  0
 24 26  2  0  0  0  0
 26 27  1  0  0  0  0
 26 28  1  0  0  0  0
 29 30  2  0  0  0  0
 29 31  1  0  0  0  0
 31 32  1  0  0  0  0
 31 33  1  0  0  0  0
 33 34  1  0  0  0  0
 33 35  1  0  0  0  0
 33 36  1  0  0  0  0
M  END
$$$$

  -OEChem-01062216103D

 36 37  0     1  0  0  0  0  0999 V2000
   -3.1923   -1.8714    1.2565 H   0  0  0  0  0  0  0  0  0  0  0  0
   -3.3052   -0.9955    0.6136 C   0  0  0  0  0  0  0  0  0  0  0  0
   -3.0211   -0.1019    1.1751 H   0  0  0  0  0  0  0  0  0  0  0  0
   -4.3538   -0.9032    0.3210 H   0  0  0  0  0  0  0  0  0  0  0  0
   -2.4413   -1.1409   -0.6281 C   0  0  0  0  0  0  0  0  0  0  0  0
   -2.5148   -2.1629   -1.2833 O   0  0  0  0  0  0  0  0  0  0  0  0
   -2.0854   -0.0285   -1.3405 N   0  0  0  0  0  0  0  0  0  0  0  0
   -2.1167   -0.3042   -2.3219 H   0  0  0  0  0  0  0  0  0  0  0  0
   -0.8905    0.7984   -1.0611 C   0  0  1  0  0  0  0  0  0  0  0  0
   -1.2225    1.7402   -0.6143 H   0  0  0  0  0  0  0  0  0  0  0  0
    0.2323    0.2188   -0.1496 C   0  0  0  0  0  0  0  0  0  0  0  0
    0.5462   -0.7456   -0.5643 H   0  0  0  0  0  0  0  0  0  0  0  0
    1.1048    0.8797   -0.1866 H   0  0  0  0  0  0  0  0  0  0  0  0
   -0.1141   -0.0010    1.3002 C   0  0  0  0  0  0  0  0  0  0  0  0
   -0.5072   -1.1775    1.8928 C   0  0  0  0  0  0  0  0  0  0  0  0
   -0.5751   -2.1435    1.3947 H   0  0  0  0  0  0  0  0  0  0  0  0
   -0.7972   -0.9036    3.2273 N   0  0  0  0  0  0  0  0  0  0  0  0
   -1.0868   -1.5922    3.9196 H   0  0  0  0  0  0  0  0  0  0  0  0
   -0.5982    0.4406    3.4976 C   0  0  0  0  0  0  0  0  0  0  0  0
   -0.7516    1.1882    4.6652 C   0  0  0  0  0  0  0  0  0  0  0  0
   -1.0849    0.7108    5.5799 H   0  0  0  0  0  0  0  0  0  0  0  0
   -0.4676    2.5612    4.6400 C   0  0  0  0  0  0  0  0  0  0  0  0
   -0.5800    3.1554    5.5422 H   0  0  0  0  0  0  0  0  0  0  0  0
   -0.0342    3.1685    3.4514 C   0  0  0  0  0  0  0  0  0  0  0  0
    0.1897    4.2308    3.4366 H   0  0  0  0  0  0  0  0  0  0  0  0
    0.1166    2.4072    2.2837 C   0  0  0  0  0  0  0  0  0  0  0  0
    0.4585    2.8723    1.3651 H   0  0  0  0  0  0  0  0  0  0  0  0
   -0.1699    1.0388    2.3183 C   0  0  0  0  0  0  0  0  0  0  0  0
   -0.2066    1.1023   -2.4152 C   0  0  0  0  0  0  0  0  0  0  0  0
    0.5933    0.3315   -2.9284 O   0  0  0  0  0  0  0  0  0  0  0  0
   -0.5762    2.2364   -3.1157 N   0  0  0  0  0  0  0  0  0  0  0  0
   -1.3061    2.8193   -2.7157 H   0  0  0  0  0  0  0  0  0  0  0  0
   -0.0658    2.5601   -4.4430 C   0  0  0  0  0  0  0  0  0  0  0  0
   -0.3211    1.7692   -5.1561 H   0  0  0  0  0  0  0  0  0  0  0  0
   -0.5023    3.4989   -4.7975 H   0  0  0  0  0  0  0  0  0  0  0  0
    1.0231    2.6737   -4.4175 H   0  0  0  0  0  0  0  0  0  0  0  0
  1  2  1  0  0  0  0
  2  3  1  0  0  0  0
  2  4  1  0  0  0  0
  2  5  1  0  0  0  0
  5  6  2  0  0  0  0
  5  7  1  0  0  0  0
  7  8  1  0  0  0  0
  7  9  1  0  0  0  0
  9 10  1  0  0  0  0
  9 11  1  0  0  0  0
  9 29  1  0  0  0  0
 11 12  1  0  0  0  0
 11 13  1  0  0  0  0
 11 14  1  0  0  0  0
 14 15  2  0  0  0  0
 14 28  1  0  0  0  0
 15 16  1  0  0  0  0
 15 17  1  0  0  0  0
 17 18  1  0  0  0  0
 17 19  1  0  0  0  0
 19 20  1  0  0  0  0
 19 28  2  0  0  0  0
 20 21  1  0  0  0  0
 20 22  2  0  0  0  0
 22 23  1  0  0  0  0
 22 24  1  0  0  0  0
 24 25  1  0  0  0  0
 24 26  2  0  0  0  0
 26 27  1  0  0  0  0
 26 28  1  0  0  0  0
 29 30  2  0  0  0  0
 29 31  1  0  0  0  0
 31 32  1  0  0  0  0
 31 33  1  0  0  0  0
 33 34  1  0  0  0  0
 33 35  1  0  0  0  0
 33 36  1  0  0  0  0
M  END
$$$$

  -OEChem-01062216103D

 36 37  0     1  0  0  0  0  0999 V2000
   -3.1945   -1.8366    1.2651 H   0  0  0  0  0  0  0  0  0  0  0  0
   -3.3014   -0.9632    0.6176 C   0  0  0  0  0  0  0  0  0  0  0  0
   -3.0065   -0.0689    1.1724 H   0  0  0  0  0  0  0  0  0  0  0  0
   -4.3502   -0.8626    0.3284 H   0  0  0  0  0  0  0  0  0  0  0  0
   -2.4439   -1.1243   -0.6266 C   0  0  0  0  0  0  0  0  0  0  0  0
   -2.5113   -2.1597   -1.2611 O   0  0  0  0  0  0  0  0  0  0  0  0
   -2.0854   -0.0206   -1.3518 N   0  0  0  0  0  0  0  0  0  0  0  0
   -2.0895   -0.3148   -2.3291 H   0  0  0  0  0  0  0  0  0  0  0  0
   -0.9007    0.8180   -1.0664 C   0  0  1  0  0  0  0  0  0  0  0  0
   -1.2439    1.7592   -0.6273 H   0  0  0  0  0  0  0  0  0  0  0  0
    0.2282    0.2486   -0.1579 C   0  0  0  0  0  0  0  0  0  0  0  0
    0.5537   -0.7093   -0.5793 H   0  0  0  0  0  0  0  0  0  0  0  0
    1.0926    0.9203   -0.1914 H   0  0  0  0  0  0  0  0  0  0  0  0
   -0.1140    0.0164    1.2910 C   0  0  0  0  0  0  0  0  0  0  0  0
   -0.4911   -1.1706    1.8738 C   0  0  0  0  0  0  0  0  0  0  0  0
   -0.5510   -2.1329    1.3666 H   0  0  0  0  0  0  0  0  0  0  0  0
   -0.7789   -0.9127    3.2118 N   0  0  0  0  0  0  0  0  0  0  0  0
   -1.0612   -1.6104    3.8979 H   0  0  0  0  0  0  0  0  0  0  0  0
   -0.5939    0.4307    3.4944 C   0  0  0  0  0  0  0  0  0  0  0  0
   -0.7522    1.1636    4.6706 C   0  0  0  0  0  0  0  0  0  0  0  0
   -1.0789    0.6730    5.5808 H   0  0  0  0  0  0  0  0  0  0  0  0
   -0.4815    2.5393    4.6601 C   0  0  0  0  0  0  0  0  0  0  0  0
   -0.5967    3.1216    5.5697 H   0  0  0  0  0  0  0  0  0  0  0  0
   -0.0572    3.1642    3.4773 C   0  0  0  0  0  0  0  0  0  0  0  0
    0.1562    4.2289    3.4747 H   0  0  0  0  0  0  0  0  0  0  0  0
    0.0972    2.4176    2.3004 C   0  0  0  0  0  0  0  0  0  0  0  0
    0.4318    2.8967    1.3865 H   0  0  0  0  0  0  0  0  0  0  0  0
   -0.1758    1.0458    2.3197 C   0  0  0  0  0  0  0  0  0  0  0  0
   -0.1948    1.1086   -2.4102 C   0  0  0  0  0  0  0  0  0  0  0  0
    0.3696    0.2208   -3.0348 O   0  0  0  0  0  0  0  0  0  0  0  0
   -0.3090    2.3601   -2.9884 N   0  0  0  0  0  0  0  0  0  0  0  0
   -0.8645    3.0567   -2.5005 H   0  0  0  0  0  0  0  0  0  0  0  0
    0.2139    2.6804   -4.3117 C   0  0  0  0  0  0  0  0  0  0  0  0
   -0.2498    2.0433   -5.0722 H   0  0  0  0  0  0  0  0  0  0  0  0
    0.0014    3.7246   -4.5602 H   0  0  0  0  0  0  0  0  0  0  0  0
    1.2984    2.5326   -4.3418 H   0  0  0  0  0  0  0  0  0  0  0  0
  1  2  1  0  0  0  0
  2  3  1  0  0  0  0
  2  4  1  0  0  0  0
  2  5  1  0  0  0  0
  5  6  2  0  0  0  0
  5  7  1  0  0  0  0
  7  8  1  0  0  0  0
  7  9  1  0  0  0  0
  9 10  1  0  0  0  0
  9 11  1  0  0  0  0
  9 29  1  0  0  0  0
 11 12  1  0  0  0  0
 11 13  1  0  0  0  0
 11 14  1  0  0  0  0
 14 15  2  0  0  0  0
 14 28  1  0  0  0  0
 15 16  1  0  0  0  0
 15 17  1  0  0  0  0
 17 18  1  0  0  0  0
 17 19  1  0  0  0  0
 19 20  1  0  0  0  0
 19 28  2  0  0  0  0
 20 21  1  0  0  0  0
 20 22  2  0  0  0  0
 22 23  1  0  0  0  0
 22 24  1  0  0  0  0
 24 25  1  0  0  0  0
 24 26  2  0  0  0  0
 26 27  1  0  0  0  0
 26 28  1  0  0  0  0
 29 30  2  0  0  0  0
 29 31  1  0  0  0  0
 31 32  1  0  0  0  0
 31 33  1  0  0  0  0
 33 34  1  0  0  0  0
 33 35  1  0  0  0  0
 33 36  1  0  0  0  0
M  END
$$$$

  -OEChem-01062216103D

 36 37  0     1  0  0  0  0  0999 V2000
   -3.2109   -1.8112    1.2714 H   0  0  0  0  0  0  0  0  0  0  0  0
   -3.3050   -0.9406    0.6180 C   0  0  0  0  0  0  0  0  0  0  0  0
   -3.0057   -0.0465    1.1705 H   0  0  0  0  0  0  0  0  0  0  0  0
   -4.3505   -0.8319    0.3199 H   0  0  0  0  0  0  0  0  0  0  0  0
   -2.4398   -1.1163   -0.6189 C   0  0  0  0  0  0  0  0  0  0  0  0
   -2.4784   -2.1699   -1.2257 O   0  0  0  0  0  0  0  0  0  0  0  0
   -2.0826   -0.0213   -1.3578 N   0  0  0  0  0  0  0  0  0  0  0  0
   -2.0588   -0.3341   -2.3301 H   0  0  0  0  0  0  0  0  0  0  0  0
   -0.9072    0.8290   -1.0704 C   0  0  1  0  0  0  0  0  0  0  0  0
   -1.2594    1.7706   -0.6393 H   0  0  0  0  0  0  0  0  0  0  0  0
    0.2264    0.2661   -0.1656 C   0  0  0  0  0  0  0  0  0  0  0  0
    0.5614   -0.6854   -0.5944 H   0  0  0  0  0  0  0  0  0  0  0  0
    1.0845    0.9461   -0.1938 H   0  0  0  0  0  0  0  0  0  0  0  0
   -0.1133    0.0235    1.2818 C   0  0  0  0  0  0  0  0  0  0  0  0
   -0.4794   -1.1698    1.8588 C   0  0  0  0  0  0  0  0  0  0  0  0
   -0.5337   -2.1296    1.3460 H   0  0  0  0  0  0  0  0  0  0  0  0
   -0.7644   -0.9211    3.1993 N   0  0  0  0  0  0  0  0  0  0  0  0
   -1.0419   -1.6246    3.8817 H   0  0  0  0  0  0  0  0  0  0  0  0
   -0.5898    0.4226    3.4882 C   0  0  0  0  0  0  0  0  0  0  0  0
   -0.7511    1.1490    4.6680 C   0  0  0  0  0  0  0  0  0  0  0  0
   -1.0682    0.6509    5.5776 H   0  0  0  0  0  0  0  0  0  0  0  0
   -0.4973    2.5279    4.6617 C   0  0  0  0  0  0  0  0  0  0  0  0
   -0.6184    3.1052    5.5735 H   0  0  0  0  0  0  0  0  0  0  0  0
   -0.0844    3.1625    3.4799 C   0  0  0  0  0  0  0  0  0  0  0  0
    0.1150    4.2301    3.4801 H   0  0  0  0  0  0  0  0  0  0  0  0
    0.0751    2.4218    2.2999 C   0  0  0  0  0  0  0  0  0  0  0  0
    0.3993    2.9081    1.3863 H   0  0  0  0  0  0  0  0  0  0  0  0
   -0.1821    1.0472    2.3152 C   0  0  0  0  0  0  0  0  0  0  0  0
   -0.1852    1.1075   -2.4067 C   0  0  0  0  0  0  0  0  0  0  0  0
    0.1472    0.1853   -3.1390 O   0  0  0  0  0  0  0  0  0  0  0  0
   -0.0295    2.4073   -2.8537 N   0  0  0  0  0  0  0  0  0  0  0  0
   -0.3952    3.1553   -2.2722 H   0  0  0  0  0  0  0  0  0  0  0  0
    0.5339    2.7416   -4.1567 C   0  0  0  0  0  0  0  0  0  0  0  0
   -0.0728    2.3099   -4.9598 H   0  0  0  0  0  0  0  0  0  0  0  0
    0.5608    3.8273   -4.2898 H   0  0  0  0  0  0  0  0  0  0  0  0
    1.5562    2.3582   -4.2420 H   0  0  0  0  0  0  0  0  0  0  0  0
  1  2  1  0  0  0  0
  2  3  1  0  0  0  0
  2  4  1  0  0  0  0
  2  5  1  0  0  0  0
  5  6  2  0  0  0  0
  5  7  1  0  0  0  0
  7  8  1  0  0  0  0
  7  9  1  0  0  0  0
  9 10  1  0  0  0  0
  9 11  1  0  0  0  0
  9 29  1  0  0  0  0
 11 12  1  0  0  0  0
 11 13  1  0  0  0  0
 11 14  1  0  0  0  0
 14 15  2  0  0  0  0
 14 28  1  0  0  0  0
 15 16  1  0  0  0  0
 15 17  1  0  0  0  0
 17 18  1  0  0  0  0
 17 19  1  0  0  0  0
 19 20  1  0  0  0  0
 19 28  2  0  0  0  0
 20 21  1  0  0  0  0
 20 22  2  0  0  0  0
 22 23  1  0  0  0  0
 22 24  1  0  0  0  0
 24 25  1  0  0  0  0
 24 26  2  0  0  0  0
 26 27  1  0  0  0  0
 26 28  1  0  0  0  0
 29 30  2  0  0  0  0
 29 31  1  0  0  0  0
 31 32  1  0  0  0  0
 31 33  1  0  0  0  0
 33 34  1  0  0  0  0
 33 35  1  0  0  0  0
 33 36  1  0  0  0  0
M  END
$$$$

  -OEChem-01062216103D

 36 37  0     1  0  0  0  0  0999 V2000
   -3.2448   -1.8017    1.2667 H   0  0  0  0  0  0  0  0  0  0  0  0
   -3.3176   -0.9291    0.6133 C   0  0  0  0  0  0  0  0  0  0  0  0
   -3.0122   -0.0405    1.1711 H   0  0  0  0  0  0  0  0  0  0  0  0
   -4.3572   -0.8042    0.3016 H   0  0  0  0  0  0  0  0  0  0  0  0
   -2.4374   -1.1158   -0.6114 C   0  0  0  0  0  0  0  0  0  0  0  0
   -2.4268   -2.1899   -1.1822 O   0  0  0  0  0  0  0  0  0  0  0  0
   -2.0833   -0.0290   -1.3643 N   0  0  0  0  0  0  0  0  0  0  0  0
   -2.0442   -0.3523   -2.3339 H   0  0  0  0  0  0  0  0  0  0  0  0
   -0.9115    0.8287   -1.0821 C   0  0  1  0  0  0  0  0  0  0  0  0
   -1.2680    1.7729   -0.6609 H   0  0  0  0  0  0  0  0  0  0  0  0
    0.2218    0.2705   -0.1753 C   0  0  0  0  0  0  0  0  0  0  0  0
    0.5578   -0.6809   -0.6031 H   0  0  0  0  0  0  0  0  0  0  0  0
    1.0791    0.9516   -0.2028 H   0  0  0  0  0  0  0  0  0  0  0  0
   -0.1180    0.0314    1.2727 C   0  0  0  0  0  0  0  0  0  0  0  0
   -0.4821   -1.1634    1.8479 C   0  0  0  0  0  0  0  0  0  0  0  0
   -0.5391   -2.1220    1.3333 H   0  0  0  0  0  0  0  0  0  0  0  0
   -0.7641   -0.9187    3.1893 N   0  0  0  0  0  0  0  0  0  0  0  0
   -1.0399   -1.6242    3.8703 H   0  0  0  0  0  0  0  0  0  0  0  0
   -0.5890    0.4240    3.4816 C   0  0  0  0  0  0  0  0  0  0  0  0
   -0.7479    1.1446    4.6651 C   0  0  0  0  0  0  0  0  0  0  0  0
   -1.0645    0.6424    5.5726 H   0  0  0  0  0  0  0  0  0  0  0  0
   -0.4916    2.5229    4.6653 C   0  0  0  0  0  0  0  0  0  0  0  0
   -0.6083    3.0958    5.5807 H   0  0  0  0  0  0  0  0  0  0  0  0
   -0.0811    3.1624    3.4856 C   0  0  0  0  0  0  0  0  0  0  0  0
    0.1193    4.2296    3.4916 H   0  0  0  0  0  0  0  0  0  0  0  0
    0.0750    2.4276    2.3013 C   0  0  0  0  0  0  0  0  0  0  0  0
    0.3984    2.9191    1.3904 H   0  0  0  0  0  0  0  0  0  0  0  0
   -0.1836    1.0528    2.3097 C   0  0  0  0  0  0  0  0  0  0  0  0
   -0.1781    1.0982   -2.4147 C   0  0  0  0  0  0  0  0  0  0  0  0
   -0.0719    0.2144   -3.2548 O   0  0  0  0  0  0  0  0  0  0  0  0
    0.2519    2.3758   -2.7258 N   0  0  0  0  0  0  0  0  0  0  0  0
    0.0911    3.1096   -2.0425 H   0  0  0  0  0  0  0  0  0  0  0  0
    0.8544    2.7277   -4.0065 C   0  0  0  0  0  0  0  0  0  0  0  0
    0.1519    2.5410   -4.8257 H   0  0  0  0  0  0  0  0  0  0  0  0
    1.1245    3.7880   -4.0184 H   0  0  0  0  0  0  0  0  0  0  0  0
    1.7614    2.1387   -4.1788 H   0  0  0  0  0  0  0  0  0  0  0  0
  1  2  1  0  0  0  0
  2  3  1  0  0  0  0
  2  4  1  0  0  0  0
  2  5  1  0  0  0  0
  5  6  2  0  0  0  0
  5  7  1  0  0  0  0
  7  8  1  0  0  0  0
  7  9  1  0  0  0  0
  9 10  1  0  0  0  0
  9 11  1  0  0  0  0
  9 29  1  0  0  0  0
 11 12  1  0  0  0  0
 11 13  1  0  0  0  0
 11 14  1  0  0  0  0
 14 15  2  0  0  0  0
 14 28  1  0  0  0  0
 15 16  1  0  0  0  0
 15 17  1  0  0  0  0
 17 18  1  0  0  0  0
 17 19  1  0  0  0  0
 19 20  1  0  0  0  0
 19 28  2  0  0  0  0
 20 21  1  0  0  0  0
 20 22  2  0  0  0  0
 22 23  1  0  0  0  0
 22 24  1  0  0  0  0
 24 25  1  0  0  0  0
 24 26  2  0  0  0  0
 26 27  1  0  0  0  0
 26 28  1  0  0  0  0
 29 30  2  0  0  0  0
 29 31  1  0  0  0  0
 31 32  1  0  0  0  0
 31 33  1  0  0  0  0
 33 34  1  0  0  0  0
 33 35  1  0  0  0  0
 33 36  1  0  0  0  0
M  END
$$$$

  -OEChem-01062216103D

 36 37  0     1  0  0  0  0  0999 V2000
   -3.2670   -1.8062    1.2589 H   0  0  0  0  0  0  0  0  0  0  0  0
   -3.3288   -0.9319    0.6065 C   0  0  0  0  0  0  0  0  0  0  0  0
   -3.0310   -0.0449    1.1711 H   0  0  0  0  0  0  0  0  0  0  0  0
   -4.3631   -0.8054    0.2784 H   0  0  0  0  0  0  0  0  0  0  0  0
   -2.4296   -1.1166   -0.6045 C   0  0  0  0  0  0  0  0  0  0  0  0
   -2.3763   -2.2004   -1.1550 O   0  0  0  0  0  0  0  0  0  0  0  0
   -2.0788   -0.0315   -1.3608 N   0  0  0  0  0  0  0  0  0  0  0  0
   -2.0420   -0.3490   -2.3334 H   0  0  0  0  0  0  0  0  0  0  0  0
   -0.9069    0.8282   -1.0852 C   0  0  1  0  0  0  0  0  0  0  0  0
   -1.2620    1.7742   -0.6664 H   0  0  0  0  0  0  0  0  0  0  0  0
    0.2244    0.2649   -0.1777 C   0  0  0  0  0  0  0  0  0  0  0  0
    0.5549   -0.6880   -0.6069 H   0  0  0  0  0  0  0  0  0  0  0  0
    1.0861    0.9400   -0.2026 H   0  0  0  0  0  0  0  0  0  0  0  0
   -0.1168    0.0284    1.2710 C   0  0  0  0  0  0  0  0  0  0  0  0
   -0.4868   -1.1636    1.8488 C   0  0  0  0  0  0  0  0  0  0  0  0
   -0.5460   -2.1233    1.3361 H   0  0  0  0  0  0  0  0  0  0  0  0
   -0.7695   -0.9147    3.1894 N   0  0  0  0  0  0  0  0  0  0  0  0
   -1.0490   -1.6177    3.8715 H   0  0  0  0  0  0  0  0  0  0  0  0
   -0.5902    0.4280    3.4787 C   0  0  0  0  0  0  0  0  0  0  0  0
   -0.7493    1.1520    4.6599 C   0  0  0  0  0  0  0  0  0  0  0  0
   -1.0701    0.6534    5.5680 H   0  0  0  0  0  0  0  0  0  0  0  0
   -0.4883    2.5295    4.6570 C   0  0  0  0  0  0  0  0  0  0  0  0
   -0.6076    3.1051    5.5704 H   0  0  0  0  0  0  0  0  0  0  0  0
   -0.0723    3.1646    3.4767 C   0  0  0  0  0  0  0  0  0  0  0  0
    0.1313    4.2314    3.4802 H   0  0  0  0  0  0  0  0  0  0  0  0
    0.0830    2.4262    2.2947 C   0  0  0  0  0  0  0  0  0  0  0  0
    0.4081    2.9148    1.3832 H   0  0  0  0  0  0  0  0  0  0  0  0
   -0.1802    1.0523    2.3059 C   0  0  0  0  0  0  0  0  0  0  0  0
   -0.1752    1.0965   -2.4207 C   0  0  0  0  0  0  0  0  0  0  0  0
   -0.2765    0.3097   -3.3540 O   0  0  0  0  0  0  0  0  0  0  0  0
    0.5216    2.2765   -2.6127 N   0  0  0  0  0  0  0  0  0  0  0  0
    0.5423    2.9455   -1.8490 H   0  0  0  0  0  0  0  0  0  0  0  0
    1.1624    2.6294   -3.8743 C   0  0  0  0  0  0  0  0  0  0  0  0
    0.4161    2.7230   -4.6704 H   0  0  0  0  0  0  0  0  0  0  0  0
    1.6874    3.5846   -3.7776 H   0  0  0  0  0  0  0  0  0  0  0  0
    1.8908    1.8640   -4.1624 H   0  0  0  0  0  0  0  0  0  0  0  0
  1  2  1  0  0  0  0
  2  3  1  0  0  0  0
  2  4  1  0  0  0  0
  2  5  1  0  0  0  0
  5  6  2  0  0  0  0
  5  7  1  0  0  0  0
  7  8  1  0  0  0  0
  7  9  1  0  0  0  0
  9 10  1  0  0  0  0
  9 11  1  0  0  0  0
  9 29  1  0  0  0  0
 11 12  1  0  0  0  0
 11 13  1  0  0  0  0
 11 14  1  0  0  0  0
 14 15  2  0  0  0  0
 14 28  1  0  0  0  0
 15 16  1  0  0  0  0
 15 17  1  0  0  0  0
 17 18  1  0  0  0  0
 17 19  1  0  0  0  0
 19 20  1  0  0  0  0
 19 28  2  0  0  0  0
 20 21  1  0  0  0  0
 20 22  2  0  0  0  0
 22 23  1  0  0  0  0
 22 24  1  0  0  0  0
 24 25  1  0  0  0  0
 24 26  2  0  0  0  0
 26 27  1  0  0  0  0
 26 28  1  0  0  0  0
 29 30  2  0  0  0  0
 29 31  1  0  0  0  0
 31 32  1  0  0  0  0
 31 33  1  0  0  0  0
 33 34  1  0  0  0  0
 33 35  1  0  0  0  0
 33 36  1  0  0  0  0
M  END
$$$$

  -OEChem-01062216103D

 36 37  0     1  0  0  0  0  0999 V2000
   -3.2897   -1.8282    1.2433 H   0  0  0  0  0  0  0  0  0  0  0  0
   -3.3403   -0.9471    0.5992 C   0  0  0  0  0  0  0  0  0  0  0  0
   -3.0500   -0.0667    1.1781 H   0  0  0  0  0  0  0  0  0  0  0  0
   -4.3692   -0.8158    0.2562 H   0  0  0  0  0  0  0  0  0  0  0  0
   -2.4212   -1.1200   -0.5986 C   0  0  0  0  0  0  0  0  0  0  0  0
   -2.3174   -2.2092   -1.1312 O   0  0  0  0  0  0  0  0  0  0  0  0
   -2.0737   -0.0316   -1.3515 N   0  0  0  0  0  0  0  0  0  0  0  0
   -2.0529   -0.3324   -2.3302 H   0  0  0  0  0  0  0  0  0  0  0  0
   -0.8970    0.8255   -1.0849 C   0  0  1  0  0  0  0  0  0  0  0  0
   -1.2457    1.7735   -0.6650 H   0  0  0  0  0  0  0  0  0  0  0  0
    0.2274    0.2501   -0.1733 C   0  0  0  0  0  0  0  0  0  0  0  0
    0.5458   -0.7078   -0.6003 H   0  0  0  0  0  0  0  0  0  0  0  0
    1.0995    0.9110   -0.1917 H   0  0  0  0  0  0  0  0  0  0  0  0
   -0.1192    0.0219    1.2752 C   0  0  0  0  0  0  0  0  0  0  0  0
   -0.5049   -1.1632    1.8564 C   0  0  0  0  0  0  0  0  0  0  0  0
   -0.5758   -2.1237    1.3468 H   0  0  0  0  0  0  0  0  0  0  0  0
   -0.7863   -0.9065    3.1955 N   0  0  0  0  0  0  0  0  0  0  0  0
   -1.0814   -1.6025    3.8781 H   0  0  0  0  0  0  0  0  0  0  0  0
   -0.5908    0.4349    3.4802 C   0  0  0  0  0  0  0  0  0  0  0  0
   -0.7426    1.1649    4.6587 C   0  0  0  0  0  0  0  0  0  0  0  0
   -1.0673    0.6723    5.5687 H   0  0  0  0  0  0  0  0  0  0  0  0
   -0.4709    2.5403    4.6502 C   0  0  0  0  0  0  0  0  0  0  0  0
   -0.5851    3.1205    5.5612 H   0  0  0  0  0  0  0  0  0  0  0  0
   -0.0509    3.1674    3.4671 C   0  0  0  0  0  0  0  0  0  0  0  0
    0.1593    4.2329    3.4658 H   0  0  0  0  0  0  0  0  0  0  0  0
    0.0993    2.4229    2.2883 C   0  0  0  0  0  0  0  0  0  0  0  0
    0.4262    2.9059    1.3743 H   0  0  0  0  0  0  0  0  0  0  0  0
   -0.1739    1.0509    2.3054 C   0  0  0  0  0  0  0  0  0  0  0  0
   -0.1752    1.1000   -2.4283 C   0  0  0  0  0  0  0  0  0  0  0  0
   -0.4720    0.4668   -3.4347 O   0  0  0  0  0  0  0  0  0  0  0  0
    0.7656    2.1105   -2.5333 N   0  0  0  0  0  0  0  0  0  0  0  0
    0.9736    2.6531   -1.7006 H   0  0  0  0  0  0  0  0  0  0  0  0
    1.4310    2.4584   -3.7835 C   0  0  0  0  0  0  0  0  0  0  0  0
    0.7010    2.8071   -4.5215 H   0  0  0  0  0  0  0  0  0  0  0  0
    2.1604    3.2564   -3.6142 H   0  0  0  0  0  0  0  0  0  0  0  0
    1.9590    1.5907   -4.1929 H   0  0  0  0  0  0  0  0  0  0  0  0
  1  2  1  0  0  0  0
  2  3  1  0  0  0  0
  2  4  1  0  0  0  0
  2  5  1  0  0  0  0
  5  6  2  0  0  0  0
  5  7  1  0  0  0  0
  7  8  1  0  0  0  0
  7  9  1  0  0  0  0
  9 10  1  0  0  0  0
  9 11  1  0  0  0  0
  9 29  1  0  0  0  0
 11 12  1  0  0  0  0
 11 13  1  0  0  0  0
 11 14  1  0  0  0  0
 14 15  2  0  0  0  0
 14 28  1  0  0  0  0
 15 16  1  0  0  0  0
 15 17  1  0  0  0  0
 17 18  1  0  0  0  0
 17 19  1  0  0  0  0
 19 20  1  0  0  0  0
 19 28  2  0  0  0  0
 20 21  1  0  0  0  0
 20 22  2  0  0  0  0
 22 23  1  0  0  0  0
 22 24  1  0  0  0  0
 24 25  1  0  0  0  0
 24 26  2  0  0  0  0
 26 27  1  0  0  0  0
 26 28  1  0  0  0  0
 29 30  2  0  0  0  0
 29 31  1  0  0  0  0
 31 32  1  0  0  0  0
 31 33  1  0  0  0  0
 33 34  1  0  0  0  0
 33 35  1  0  0  0  0
 33 36  1  0  0  0  0
M  END
$$$$

  -OEChem-01062216103D

 36 37  0     1  0  0  0  0  0999 V2000
   -4.1957   -2.6907   -0.3986 H   0  0  0  0  0  0  0  0  0  0  0  0
   -3.8085   -1.9099   -1.0594 C   0  0  0  0  0  0  0  0  0  0  0  0
   -4.6416   -1.2873   -1.3948 H   0  0  0  0  0  0  0  0  0  0  0  0
   -3.3438   -2.3834   -1.9276 H   0  0  0  0  0  0  0  0  0  0  0  0
   -2.7880   -1.0587   -0.3266 C   0  0  0  0  0  0  0  0  0  0  0  0
   -2.6085   -1.2634    0.8552 O   0  0  0  0  0  0  0  0  0  0  0  0
   -2.2223   -0.0008   -1.0040 N   0  0  0  0  0  0  0  0  0  0  0  0
   -2.5597    0.0638   -1.9661 H   0  0  0  0  0  0  0  0  0  0  0  0
   -0.9671    0.7708   -0.8202 C   0  0  1  0  0  0  0  0  0  0  0  0
   -1.2086    1.6469   -0.2113 H   0  0  0  0  0  0  0  0  0  0  0  0
    0.2976    0.1053   -0.1886 C   0  0  0  0  0  0  0  0  0  0  0  0
    0.5110   -0.7928   -0.7770 H   0  0  0  0  0  0  0  0  0  0  0  0
    1.1604    0.7670   -0.2978 H   0  0  0  0  0  0  0  0  0  0  0  0
    0.2764   -0.3051    1.2629 C   0  0  0  0  0  0  0  0  0  0  0  0
    0.0250   -1.5425    1.8050 C   0  0  0  0  0  0  0  0  0  0  0  0
   -0.2497   -2.4314    1.2427 H   0  0  0  0  0  0  0  0  0  0  0  0
    0.1509   -1.4397    3.1885 N   0  0  0  0  0  0  0  0  0  0  0  0
   -0.0645   -2.1823    3.8489 H   0  0  0  0  0  0  0  0  0  0  0  0
    0.4751   -0.1429    3.5466 C   0  0  0  0  0  0  0  0  0  0  0  0
    0.6903    0.4502    4.7907 C   0  0  0  0  0  0  0  0  0  0  0  0
    0.6113   -0.1402    5.6967 H   0  0  0  0  0  0  0  0  0  0  0  0
    1.0082    1.8141    4.8516 C   0  0  0  0  0  0  0  0  0  0  0  0
    1.1789    2.2879    5.8136 H   0  0  0  0  0  0  0  0  0  0  0  0
    1.1028    2.5671    3.6712 C   0  0  0  0  0  0  0  0  0  0  0  0
    1.3466    3.6238    3.7226 H   0  0  0  0  0  0  0  0  0  0  0  0
    0.8794    1.9603    2.4268 C   0  0  0  0  0  0  0  0  0  0  0  0
    0.9455    2.5424    1.5151 H   0  0  0  0  0  0  0  0  0  0  0  0
    0.5655    0.5976    2.3736 C   0  0  0  0  0  0  0  0  0  0  0  0
   -0.5339    1.2605   -2.2309 C   0  0  0  0  0  0  0  0  0  0  0  0
   -1.2220    0.9917   -3.2128 O   0  0  0  0  0  0  0  0  0  0  0  0
    0.6079    2.0199   -2.4273 N   0  0  0  0  0  0  0  0  0  0  0  0
    1.1660    2.2519   -1.6108 H   0  0  0  0  0  0  0  0  0  0  0  0
    1.0396    2.5053   -3.7330 C   0  0  0  0  0  0  0  0  0  0  0  0
    0.2623    3.1282   -4.1881 H   0  0  0  0  0  0  0  0  0  0  0  0
    1.9474    3.1078   -3.6305 H   0  0  0  0  0  0  0  0  0  0  0  0
    1.2556    1.6654   -4.4017 H   0  0  0  0  0  0  0  0  0  0  0  0
  1  2  1  0  0  0  0
  2  3  1  0  0  0  0
  2  4  1  0  0  0  0
  2  5  1  0  0  0  0
  5  6  2  0  0  0  0
  5  7  1  0  0  0  0
  7  8  1  0  0  0  0
  7  9  1  0  0  0  0
  9 10  1  0  0  0  0
  9 11  1  0  0  0  0
  9 29  1  0  0  0  0
 11 12  1  0  0  0  0
 11 13  1  0  0  0  0
 11 14  1  0  0  0  0
 14 15  2  0  0  0  0
 14 28  1  0  0  0  0
 15 16  1  0  0  0  0
 15 17  1  0  0  0  0
 17 18  1  0  0  0  0
 17 19  1  0  0  0  0
 19 20  1  0  0  0  0
 19 28  2  0  0  0  0
 20 21  1  0  0  0  0
 20 22  2  0  0  0  0
 22 23  1  0  0  0  0
 22 24  1  0  0  0  0
 24 25  1  0  0  0  0
 24 26  2  0  0  0  0
 26 27  1  0  0  0  0
 26 28  1  0  0  0  0
 29 30  2  0  0  0  0
 29 31  1  0  0  0  0
 31 32  1  0  0  0  0
 31 33  1  0  0  0  0
 33 34  1  0  0  0  0
 33 35  1  0  0  0  0
 33 36  1  0  0  0  0
M  END
$$$$

  -OEChem-01062216103D

 36 37  0     1  0  0  0  0  0999 V2000
   -4.1628   -2.6703   -0.1230 H   0  0  0  0  0  0  0  0  0  0  0  0
   -3.9459   -1.6881   -0.5520 C   0  0  0  0  0  0  0  0  0  0  0  0
   -4.4335   -0.9239    0.0584 H   0  0  0  0  0  0  0  0  0  0  0  0
   -4.3509   -1.6490   -1.5661 H   0  0  0  0  0  0  0  0  0  0  0  0
   -2.4479   -1.4485   -0.5813 C   0  0  0  0  0  0  0  0  0  0  0  0
   -1.7010   -2.3789   -0.3435 O   0  0  0  0  0  0  0  0  0  0  0  0
   -1.9781   -0.2646   -1.1048 N   0  0  0  0  0  0  0  0  0  0  0  0
   -2.6972    0.3013   -1.5515 H   0  0  0  0  0  0  0  0  0  0  0  0
   -0.6897    0.4477   -0.9337 C   0  0  1  0  0  0  0  0  0  0  0  0
   -0.9353    1.2404   -0.2208 H   0  0  0  0  0  0  0  0  0  0  0  0
    0.5467   -0.2193   -0.2661 C   0  0  0  0  0  0  0  0  0  0  0  0
    0.7488   -1.1579   -0.7918 H   0  0  0  0  0  0  0  0  0  0  0  0
    1.4340    0.4080   -0.3749 H   0  0  0  0  0  0  0  0  0  0  0  0
    0.3875   -0.5111    1.2125 C   0  0  0  0  0  0  0  0  0  0  0  0
    0.0328   -1.6748    1.8543 C   0  0  0  0  0  0  0  0  0  0  0  0
   -0.1483   -2.6343    1.3754 H   0  0  0  0  0  0  0  0  0  0  0  0
   -0.0290   -1.4150    3.2209 N   0  0  0  0  0  0  0  0  0  0  0  0
   -0.2718   -2.0989    3.9339 H   0  0  0  0  0  0  0  0  0  0  0  0
    0.2690   -0.0884    3.4728 C   0  0  0  0  0  0  0  0  0  0  0  0
    0.3252    0.6408    4.6602 C   0  0  0  0  0  0  0  0  0  0  0  0
    0.1140    0.1575    5.6075 H   0  0  0  0  0  0  0  0  0  0  0  0
    0.6565    2.0018    4.6107 C   0  0  0  0  0  0  0  0  0  0  0  0
    0.7034    2.5817    5.5278 H   0  0  0  0  0  0  0  0  0  0  0  0
    0.9268    2.6149    3.3779 C   0  0  0  0  0  0  0  0  0  0  0  0
    1.1820    3.6698    3.3432 H   0  0  0  0  0  0  0  0  0  0  0  0
    0.8676    1.8705    2.1908 C   0  0  0  0  0  0  0  0  0  0  0  0
    1.0761    2.3452    1.2384 H   0  0  0  0  0  0  0  0  0  0  0  0
    0.5362    0.5112    2.2474 C   0  0  0  0  0  0  0  0  0  0  0  0
   -0.3612    1.2431   -2.2226 C   0  0  0  0  0  0  0  0  0  0  0  0
   -1.2699    1.5397   -2.9921 O   0  0  0  0  0  0  0  0  0  0  0  0
    0.9002    1.7544   -2.4803 N   0  0  0  0  0  0  0  0  0  0  0  0
    1.6520    1.4949   -1.8490 H   0  0  0  0  0  0  0  0  0  0  0  0
    1.2190    2.5514   -3.6594 C   0  0  0  0  0  0  0  0  0  0  0  0
    0.6408    3.4814   -3.6607 H   0  0  0  0  0  0  0  0  0  0  0  0
    2.2831    2.8068   -3.6671 H   0  0  0  0  0  0  0  0  0  0  0  0
    0.9914    1.9930   -4.5737 H   0  0  0  0  0  0  0  0  0  0  0  0
  1  2  1  0  0  0  0
  2  3  1  0  0  0  0
  2  4  1  0  0  0  0
  2  5  1  0  0  0  0
  5  6  2  0  0  0  0
  5  7  1  0  0  0  0
  7  8  1  0  0  0  0
  7  9  1  0  0  0  0
  9 10  1  0  0  0  0
  9 11  1  0  0  0  0
  9 29  1  0  0  0  0
 11 12  1  0  0  0  0
 11 13  1  0  0  0  0
 11 14  1  0  0  0  0
 14 15  2  0  0  0  0
 14 28  1  0  0  0  0
 15 16  1  0  0  0  0
 15 17  1  0  0  0  0
 17 18  1  0  0  0  0
 17 19  1  0  0  0  0
 19 20  1  0  0  0  0
 19 28  2  0  0  0  0
 20 21  1  0  0  0  0
 20 22  2  0  0  0  0
 22 23  1  0  0  0  0
 22 24  1  0  0  0  0
 24 25  1  0  0  0  0
 24 26  2  0  0  0  0
 26 27  1  0  0  0  0
 26 28  1  0  0  0  0
 29 30  2  0  0  0  0
 29 31  1  0  0  0  0
 31 32  1  0  0  0  0
 31 33  1  0  0  0  0
 33 34  1  0  0  0  0
 33 35  1  0  0  0  0
 33 36  1  0  0  0  0
M  END
$$$$

  -OEChem-01062216103D

 36 37  0     1  0  0  0  0  0999 V2000
   -4.1426   -2.6134   -0.0457 H   0  0  0  0  0  0  0  0  0  0  0  0
   -3.9249   -1.6519   -0.5187 C   0  0  0  0  0  0  0  0  0  0  0  0
   -4.3917   -0.8583    0.0696 H   0  0  0  0  0  0  0  0  0  0  0  0
   -4.3488   -1.6484   -1.5257 H   0  0  0  0  0  0  0  0  0  0  0  0
   -2.4259   -1.4310   -0.5879 C   0  0  0  0  0  0  0  0  0  0  0  0
   -1.6821   -2.3735   -0.3878 O   0  0  0  0  0  0  0  0  0  0  0  0
   -1.9537   -0.2498   -1.1142 N   0  0  0  0  0  0  0  0  0  0  0  0
   -2.6806    0.3418   -1.5125 H   0  0  0  0  0  0  0  0  0  0  0  0
   -0.6633    0.4526   -0.9276 C   0  0  1  0  0  0  0  0  0  0  0  0
   -0.9079    1.2489   -0.2183 H   0  0  0  0  0  0  0  0  0  0  0  0
    0.5611   -0.2229   -0.2490 C   0  0  0  0  0  0  0  0  0  0  0  0
    0.7690   -1.1600   -0.7752 H   0  0  0  0  0  0  0  0  0  0  0  0
    1.4489    0.4073   -0.3425 H   0  0  0  0  0  0  0  0  0  0  0  0
    0.3818   -0.5165    1.2266 C   0  0  0  0  0  0  0  0  0  0  0  0
    0.0117   -1.6805    1.8592 C   0  0  0  0  0  0  0  0  0  0  0  0
   -0.1704   -2.6366    1.3739 H   0  0  0  0  0  0  0  0  0  0  0  0
   -0.0640   -1.4246    3.2260 N   0  0  0  0  0  0  0  0  0  0  0  0
   -0.3168   -2.1094    3.9347 H   0  0  0  0  0  0  0  0  0  0  0  0
    0.2396   -0.1006    3.4860 C   0  0  0  0  0  0  0  0  0  0  0  0
    0.2880    0.6241    4.6766 C   0  0  0  0  0  0  0  0  0  0  0  0
    0.0654    0.1390    5.6205 H   0  0  0  0  0  0  0  0  0  0  0  0
    0.6262    1.9837    4.6351 C   0  0  0  0  0  0  0  0  0  0  0  0
    0.6672    2.5607    5.5542 H   0  0  0  0  0  0  0  0  0  0  0  0
    0.9107    2.5998    3.4070 C   0  0  0  0  0  0  0  0  0  0  0  0
    1.1709    3.6536    3.3784 H   0  0  0  0  0  0  0  0  0  0  0  0
    0.8601    1.8598    2.2169 C   0  0  0  0  0  0  0  0  0  0  0  0
    1.0795    2.3376    1.2682 H   0  0  0  0  0  0  0  0  0  0  0  0
    0.5230    0.5017    2.2660 C   0  0  0  0  0  0  0  0  0  0  0  0
   -0.3235    1.2385   -2.2172 C   0  0  0  0  0  0  0  0  0  0  0  0
   -1.2399    1.7240   -2.8727 O   0  0  0  0  0  0  0  0  0  0  0  0
    0.9768    1.4836   -2.6260 N   0  0  0  0  0  0  0  0  0  0  0  0
    1.7244    1.0298   -2.1097 H   0  0  0  0  0  0  0  0  0  0  0  0
    1.3098    2.2185   -3.8404 C   0  0  0  0  0  0  0  0  0  0  0  0
    0.9317    3.2445   -3.7828 H   0  0  0  0  0  0  0  0  0  0  0  0
    2.3952    2.2577   -3.9732 H   0  0  0  0  0  0  0  0  0  0  0  0
    0.8718    1.7295   -4.7168 H   0  0  0  0  0  0  0  0  0  0  0  0
  1  2  1  0  0  0  0
  2  3  1  0  0  0  0
  2  4  1  0  0  0  0
  2  5  1  0  0  0  0
  5  6  2  0  0  0  0
  5  7  1  0  0  0  0
  7  8  1  0  0  0  0
  7  9  1  0  0  0  0
  9 10  1  0  0  0  0
  9 11  1  0  0  0  0
  9 29  1  0  0  0  0
 11 12  1  0  0  0  0
 11 13  1  0  0  0  0
 11 14  1  0  0  0  0
 14 15  2  0  0  0  0
 14 28  1  0  0  0  0
 15 16  1  0  0  0  0
 15 17  1  0  0  0  0
 17 18  1  0  0  0  0
 17 19  1  0  0  0  0
 19 20  1  0  0  0  0
 19 28  2  0  0  0  0
 20 21  1  0  0  0  0
 20 22  2  0  0  0  0
 22 23  1  0  0  0  0
 22 24  1  0  0  0  0
 24 25  1  0  0  0  0
 24 26  2  0  0  0  0
 26 27  1  0  0  0  0
 26 28  1  0  0  0  0
 29 30  2  0  0  0  0
 29 31  1  0  0  0  0
 31 32  1  0  0  0  0
 31 33  1  0  0  0  0
 33 34  1  0  0  0  0
 33 35  1  0  0  0  0
 33 36  1  0  0  0  0
M  END
$$$$

  -OEChem-01062216103D

 36 37  0     1  0  0  0  0  0999 V2000
   -4.1084   -2.5969    0.0162 H   0  0  0  0  0  0  0  0  0  0  0  0
   -3.9021   -1.6374   -0.4662 C   0  0  0  0  0  0  0  0  0  0  0  0
   -4.3423   -0.8400    0.1375 H   0  0  0  0  0  0  0  0  0  0  0  0
   -4.3633   -1.6329   -1.4568 H   0  0  0  0  0  0  0  0  0  0  0  0
   -2.4052   -1.4263   -0.5904 C   0  0  0  0  0  0  0  0  0  0  0  0
   -1.6595   -2.3750   -0.4280 O   0  0  0  0  0  0  0  0  0  0  0  0
   -1.9410   -0.2475   -1.1289 N   0  0  0  0  0  0  0  0  0  0  0  0
   -2.6807    0.3616   -1.4727 H   0  0  0  0  0  0  0  0  0  0  0  0
   -0.6521    0.4541   -0.9317 C   0  0  1  0  0  0  0  0  0  0  0  0
   -0.9005    1.2545   -0.2275 H   0  0  0  0  0  0  0  0  0  0  0  0
    0.5679   -0.2202   -0.2455 C   0  0  0  0  0  0  0  0  0  0  0  0
    0.7828   -1.1568   -0.7696 H   0  0  0  0  0  0  0  0  0  0  0  0
    1.4529    0.4160   -0.3360 H   0  0  0  0  0  0  0  0  0  0  0  0
    0.3764   -0.5145    1.2281 C   0  0  0  0  0  0  0  0  0  0  0  0
    0.0015   -1.6811    1.8532 C   0  0  0  0  0  0  0  0  0  0  0  0
   -0.1771   -2.6350    1.3622 H   0  0  0  0  0  0  0  0  0  0  0  0
   -0.0859   -1.4305    3.2203 N   0  0  0  0  0  0  0  0  0  0  0  0
   -0.3412   -2.1186    3.9248 H   0  0  0  0  0  0  0  0  0  0  0  0
    0.2175   -0.1078    3.4880 C   0  0  0  0  0  0  0  0  0  0  0  0
    0.2582    0.6126    4.6816 C   0  0  0  0  0  0  0  0  0  0  0  0
    0.0259    0.1253    5.6221 H   0  0  0  0  0  0  0  0  0  0  0  0
    0.6017    1.9712    4.6475 C   0  0  0  0  0  0  0  0  0  0  0  0
    0.6370    2.5450    5.5689 H   0  0  0  0  0  0  0  0  0  0  0  0
    0.9001    2.5904    3.4244 C   0  0  0  0  0  0  0  0  0  0  0  0
    1.1661    3.6428    3.4016 H   0  0  0  0  0  0  0  0  0  0  0  0
    0.8566    1.8553    2.2311 C   0  0  0  0  0  0  0  0  0  0  0  0
    1.0887    2.3347    1.2861 H   0  0  0  0  0  0  0  0  0  0  0  0
    0.5123    0.4989    2.2725 C   0  0  0  0  0  0  0  0  0  0  0  0
   -0.2975    1.2282   -2.2209 C   0  0  0  0  0  0  0  0  0  0  0  0
   -1.1718    1.8899   -2.7698 O   0  0  0  0  0  0  0  0  0  0  0  0
    0.9715    1.2109   -2.7741 N   0  0  0  0  0  0  0  0  0  0  0  0
    1.6539    0.5854   -2.3554 H   0  0  0  0  0  0  0  0  0  0  0  0
    1.3137    1.8934   -4.0160 C   0  0  0  0  0  0  0  0  0  0  0  0
    1.1405    2.9706   -3.9220 H   0  0  0  0  0  0  0  0  0  0  0  0
    2.3693    1.7338   -4.2560 H   0  0  0  0  0  0  0  0  0  0  0  0
    0.7086    1.5099   -4.8442 H   0  0  0  0  0  0  0  0  0  0  0  0
  1  2  1  0  0  0  0
  2  3  1  0  0  0  0
  2  4  1  0  0  0  0
  2  5  1  0  0  0  0
  5  6  2  0  0  0  0
  5  7  1  0  0  0  0
  7  8  1  0  0  0  0
  7  9  1  0  0  0  0
  9 10  1  0  0  0  0
  9 11  1  0  0  0  0
  9 29  1  0  0  0  0
 11 12  1  0  0  0  0
 11 13  1  0  0  0  0
 11 14  1  0  0  0  0
 14 15  2  0  0  0  0
 14 28  1  0  0  0  0
 15 16  1  0  0  0  0
 15 17  1  0  0  0  0
 17 18  1  0  0  0  0
 17 19  1  0  0  0  0
 19 20  1  0  0  0  0
 19 28  2  0  0  0  0
 20 21  1  0  0  0  0
 20 22  2  0  0  0  0
 22 23  1  0  0  0  0
 22 24  1  0  0  0  0
 24 25  1  0  0  0  0
 24 26  2  0  0  0  0
 26 27  1  0  0  0  0
 26 28  1  0  0  0  0
 29 30  2  0  0  0  0
 29 31  1  0  0  0  0
 31 32  1  0  0  0  0
 31 33  1  0  0  0  0
 33 34  1  0  0  0  0
 33 35  1  0  0  0  0
 33 36  1  0  0  0  0
M  END
$$$$

  -OEChem-01062216103D

 36 37  0     1  0  0  0  0  0999 V2000
   -4.0574   -2.5801    0.0868 H   0  0  0  0  0  0  0  0  0  0  0  0
   -3.8646   -1.6152   -0.3904 C   0  0  0  0  0  0  0  0  0  0  0  0
   -4.2618   -0.8229    0.2487 H   0  0  0  0  0  0  0  0  0  0  0  0
   -4.3770   -1.5890   -1.3552 H   0  0  0  0  0  0  0  0  0  0  0  0
   -2.3739   -1.4193   -0.5899 C   0  0  0  0  0  0  0  0  0  0  0  0
   -1.6300   -2.3782   -0.4839 O   0  0  0  0  0  0  0  0  0  0  0  0
   -1.9197   -0.2428   -1.1417 N   0  0  0  0  0  0  0  0  0  0  0  0
   -2.6701    0.3827   -1.4269 H   0  0  0  0  0  0  0  0  0  0  0  0
   -0.6301    0.4539   -0.9370 C   0  0  1  0  0  0  0  0  0  0  0  0
   -0.8786    1.2555   -0.2341 H   0  0  0  0  0  0  0  0  0  0  0  0
    0.5832   -0.2245   -0.2470 C   0  0  0  0  0  0  0  0  0  0  0  0
    0.7985   -1.1625   -0.7680 H   0  0  0  0  0  0  0  0  0  0  0  0
    1.4690    0.4117   -0.3386 H   0  0  0  0  0  0  0  0  0  0  0  0
    0.3750   -0.5175    1.2248 C   0  0  0  0  0  0  0  0  0  0  0  0
   -0.0120   -1.6839    1.8433 C   0  0  0  0  0  0  0  0  0  0  0  0
   -0.1870   -2.6363    1.3482 H   0  0  0  0  0  0  0  0  0  0  0  0
   -0.1219   -1.4336    3.2091 N   0  0  0  0  0  0  0  0  0  0  0  0
   -0.3900   -2.1207    3.9101 H   0  0  0  0  0  0  0  0  0  0  0  0
    0.1829   -0.1123    3.4818 C   0  0  0  0  0  0  0  0  0  0  0  0
    0.2081    0.6067    4.6763 C   0  0  0  0  0  0  0  0  0  0  0  0
   -0.0420    0.1189    5.6117 H   0  0  0  0  0  0  0  0  0  0  0  0
    0.5600    1.9634    4.6493 C   0  0  0  0  0  0  0  0  0  0  0  0
    0.5839    2.5360    5.5719 H   0  0  0  0  0  0  0  0  0  0  0  0
    0.8821    2.5820    3.4314 C   0  0  0  0  0  0  0  0  0  0  0  0
    1.1552    3.6328    3.4133 H   0  0  0  0  0  0  0  0  0  0  0  0
    0.8530    1.8479    2.2369 C   0  0  0  0  0  0  0  0  0  0  0  0
    1.1024    2.3253    1.2953 H   0  0  0  0  0  0  0  0  0  0  0  0
    0.5003    0.4938    2.2719 C   0  0  0  0  0  0  0  0  0  0  0  0
   -0.2587    1.2198   -2.2228 C   0  0  0  0  0  0  0  0  0  0  0  0
   -1.0444    2.0518   -2.6609 O   0  0  0  0  0  0  0  0  0  0  0  0
    0.9059    0.9586   -2.9236 N   0  0  0  0  0  0  0  0  0  0  0  0
    1.4719    0.1772   -2.6052 H   0  0  0  0  0  0  0  0  0  0  0  0
    1.2235    1.5786   -4.2042 C   0  0  0  0  0  0  0  0  0  0  0  0
    1.3009    2.6655   -4.0955 H   0  0  0  0  0  0  0  0  0  0  0  0
    2.1792    1.2006   -4.5798 H   0  0  0  0  0  0  0  0  0  0  0  0
    0.4477    1.3518   -4.9431 H   0  0  0  0  0  0  0  0  0  0  0  0
  1  2  1  0  0  0  0
  2  3  1  0  0  0  0
  2  4  1  0  0  0  0
  2  5  1  0  0  0  0
  5  6  2  0  0  0  0
  5  7  1  0  0  0  0
  7  8  1  0  0  0  0
  7  9  1  0  0  0  0
  9 10  1  0  0  0  0
  9 11  1  0  0  0  0
  9 29  1  0  0  0  0
 11 12  1  0  0  0  0
 11 13  1  0  0  0  0
 11 14  1  0  0  0  0
 14 15  2  0  0  0  0
 14 28  1  0  0  0  0
 15 16  1  0  0  0  0
 15 17  1  0  0  0  0
 17 18  1  0  0  0  0
 17 19  1  0  0  0  0
 19 20  1  0  0  0  0
 19 28  2  0  0  0  0
 20 21  1  0  0  0  0
 20 22  2  0  0  0  0
 22 23  1  0  0  0  0
 22 24  1  0  0  0  0
 24 25  1  0  0  0  0
 24 26  2  0  0  0  0
 26 27  1  0  0  0  0
 26 28  1  0  0  0  0
 29 30  2  0  0  0  0
 29 31  1  0  0  0  0
 31 32  1  0  0  0  0
 31 33  1  0  0  0  0
 33 34  1  0  0  0  0
 33 35  1  0  0  0  0
 33 36  1  0  0  0  0
M  END
$$$$

  -OEChem-01062216103D

 36 37  0     1  0  0  0  0  0999 V2000
   -4.0440   -2.5625    0.1368 H   0  0  0  0  0  0  0  0  0  0  0  0
   -3.8568   -1.5916   -0.3304 C   0  0  0  0  0  0  0  0  0  0  0  0
   -4.2188   -0.8065    0.3376 H   0  0  0  0  0  0  0  0  0  0  0  0
   -4.4053   -1.5410   -1.2742 H   0  0  0  0  0  0  0  0  0  0  0  0
   -2.3722   -1.4110   -0.5827 C   0  0  0  0  0  0  0  0  0  0  0  0
   -1.6331   -2.3765   -0.5042 O   0  0  0  0  0  0  0  0  0  0  0  0
   -1.9237   -0.2441   -1.1587 N   0  0  0  0  0  0  0  0  0  0  0  0
   -2.6801    0.3855   -1.4164 H   0  0  0  0  0  0  0  0  0  0  0  0
   -0.6362    0.4540   -0.9482 C   0  0  1  0  0  0  0  0  0  0  0  0
   -0.8878    1.2617   -0.2529 H   0  0  0  0  0  0  0  0  0  0  0  0
    0.5764   -0.2200   -0.2557 C   0  0  0  0  0  0  0  0  0  0  0  0
    0.7958   -1.1579   -0.7755 H   0  0  0  0  0  0  0  0  0  0  0  0
    1.4599    0.4192   -0.3513 H   0  0  0  0  0  0  0  0  0  0  0  0
    0.3690   -0.5164    1.2150 C   0  0  0  0  0  0  0  0  0  0  0  0
   -0.0133   -1.6864    1.8295 C   0  0  0  0  0  0  0  0  0  0  0  0
   -0.1858   -2.6379    1.3311 H   0  0  0  0  0  0  0  0  0  0  0  0
   -0.1169   -1.4423    3.1967 N   0  0  0  0  0  0  0  0  0  0  0  0
   -0.3752   -2.1346    3.8960 H   0  0  0  0  0  0  0  0  0  0  0  0
    0.1826   -0.1204    3.4739 C   0  0  0  0  0  0  0  0  0  0  0  0
    0.2102    0.5951    4.6710 C   0  0  0  0  0  0  0  0  0  0  0  0
   -0.0300    0.1032    5.6071 H   0  0  0  0  0  0  0  0  0  0  0  0
    0.5509    1.9548    4.6462 C   0  0  0  0  0  0  0  0  0  0  0  0
    0.5761    2.5243    5.5705 H   0  0  0  0  0  0  0  0  0  0  0  0
    0.8587    2.5803    3.4284 C   0  0  0  0  0  0  0  0  0  0  0  0
    1.1215    3.6337    3.4117 H   0  0  0  0  0  0  0  0  0  0  0  0
    0.8289    1.8499    2.2316 C   0  0  0  0  0  0  0  0  0  0  0  0
    1.0667    2.3335    1.2899 H   0  0  0  0  0  0  0  0  0  0  0  0
    0.4895    0.4922    2.2646 C   0  0  0  0  0  0  0  0  0  0  0  0
   -0.2403    1.1965   -2.2372 C   0  0  0  0  0  0  0  0  0  0  0  0
   -0.8801    2.1837   -2.5775 O   0  0  0  0  0  0  0  0  0  0  0  0
    0.7604    0.7165   -3.0630 N   0  0  0  0  0  0  0  0  0  0  0  0
    1.1660   -0.1832   -2.8196 H   0  0  0  0  0  0  0  0  0  0  0  0
    1.0774    1.3026   -4.3590 C   0  0  0  0  0  0  0  0  0  0  0  0
    1.3708    2.3514   -4.2441 H   0  0  0  0  0  0  0  0  0  0  0  0
    1.9070    0.7620   -4.8248 H   0  0  0  0  0  0  0  0  0  0  0  0
    0.2108    1.2492   -5.0262 H   0  0  0  0  0  0  0  0  0  0  0  0
  1  2  1  0  0  0  0
  2  3  1  0  0  0  0
  2  4  1  0  0  0  0
  2  5  1  0  0  0  0
  5  6  2  0  0  0  0
  5  7  1  0  0  0  0
  7  8  1  0  0  0  0
  7  9  1  0  0  0  0
  9 10  1  0  0  0  0
  9 11  1  0  0  0  0
  9 29  1  0  0  0  0
 11 12  1  0  0  0  0
 11 13  1  0  0  0  0
 11 14  1  0  0  0  0
 14 15  2  0  0  0  0
 14 28  1  0  0  0  0
 15 16  1  0  0  0  0
 15 17  1  0  0  0  0
 17 18  1  0  0  0  0
 17 19  1  0  0  0  0
 19 20  1  0  0  0  0
 19 28  2  0  0  0  0
 20 21  1  0  0  0  0
 20 22  2  0  0  0  0
 22 23  1  0  0  0  0
 22 24  1  0  0  0  0
 24 25  1  0  0  0  0
 24 26  2  0  0  0  0
 26 27  1  0  0  0  0
 26 28  1  0  0  0  0
 29 30  2  0  0  0  0
 29 31  1  0  0  0  0
 31 32  1  0  0  0  0
 31 33  1  0  0  0  0
 33 34  1  0  0  0  0
 33 35  1  0  0  0  0
 33 36  1  0  0  0  0
M  END
$$$$

  -OEChem-01062216103D

 36 37  0     1  0  0  0  0  0999 V2000
   -4.0009   -2.5467    0.2318 H   0  0  0  0  0  0  0  0  0  0  0  0
   -3.8292   -1.5784   -0.2466 C   0  0  0  0  0  0  0  0  0  0  0  0
   -4.1490   -0.7886    0.4376 H   0  0  0  0  0  0  0  0  0  0  0  0
   -4.4254   -1.5254   -1.1609 H   0  0  0  0  0  0  0  0  0  0  0  0
   -2.3577   -1.4125   -0.5745 C   0  0  0  0  0  0  0  0  0  0  0  0
   -1.6249   -2.3856   -0.5424 O   0  0  0  0  0  0  0  0  0  0  0  0
   -1.9224   -0.2527   -1.1744 N   0  0  0  0  0  0  0  0  0  0  0  0
   -2.6871    0.3809   -1.3933 H   0  0  0  0  0  0  0  0  0  0  0  0
   -0.6369    0.4498   -0.9630 C   0  0  1  0  0  0  0  0  0  0  0  0
   -0.8896    1.2622   -0.2734 H   0  0  0  0  0  0  0  0  0  0  0  0
    0.5746   -0.2231   -0.2694 C   0  0  0  0  0  0  0  0  0  0  0  0
    0.7964   -1.1606   -0.7886 H   0  0  0  0  0  0  0  0  0  0  0  0
    1.4575    0.4171   -0.3648 H   0  0  0  0  0  0  0  0  0  0  0  0
    0.3614   -0.5193    1.2006 C   0  0  0  0  0  0  0  0  0  0  0  0
   -0.0230   -1.6903    1.8119 C   0  0  0  0  0  0  0  0  0  0  0  0
   -0.1908   -2.6413    1.3111 H   0  0  0  0  0  0  0  0  0  0  0  0
   -0.1372   -1.4467    3.1784 N   0  0  0  0  0  0  0  0  0  0  0  0
   -0.3966   -2.1400    3.8764 H   0  0  0  0  0  0  0  0  0  0  0  0
    0.1618   -0.1250    3.4583 C   0  0  0  0  0  0  0  0  0  0  0  0
    0.1841    0.5896    4.6560 C   0  0  0  0  0  0  0  0  0  0  0  0
   -0.0618    0.0979    5.5906 H   0  0  0  0  0  0  0  0  0  0  0  0
    0.5283    1.9484    4.6343 C   0  0  0  0  0  0  0  0  0  0  0  0
    0.5495    2.5175    5.5590 H   0  0  0  0  0  0  0  0  0  0  0  0
    0.8462    2.5739    3.4190 C   0  0  0  0  0  0  0  0  0  0  0  0
    1.1138    3.6262    3.4052 H   0  0  0  0  0  0  0  0  0  0  0  0
    0.8215    1.8447    2.2215 C   0  0  0  0  0  0  0  0  0  0  0  0
    1.0681    2.3279    1.2818 H   0  0  0  0  0  0  0  0  0  0  0  0
    0.4770    0.4883    2.2514 C   0  0  0  0  0  0  0  0  0  0  0  0
   -0.2264    1.1739   -2.2559 C   0  0  0  0  0  0  0  0  0  0  0  0
   -0.6661    2.2921   -2.4895 O   0  0  0  0  0  0  0  0  0  0  0  0
    0.5504    0.5325   -3.2030 N   0  0  0  0  0  0  0  0  0  0  0  0
    0.7666   -0.4462   -3.0318 H   0  0  0  0  0  0  0  0  0  0  0  0
    0.8530    1.1030   -4.5093 C   0  0  0  0  0  0  0  0  0  0  0  0
    1.3851    2.0538   -4.3987 H   0  0  0  0  0  0  0  0  0  0  0  0
    1.4862    0.4186   -5.0823 H   0  0  0  0  0  0  0  0  0  0  0  0
   -0.0689    1.2776   -5.0741 H   0  0  0  0  0  0  0  0  0  0  0  0
  1  2  1  0  0  0  0
  2  3  1  0  0  0  0
  2  4  1  0  0  0  0
  2  5  1  0  0  0  0
  5  6  2  0  0  0  0
  5  7  1  0  0  0  0
  7  8  1  0  0  0  0
  7  9  1  0  0  0  0
  9 10  1  0  0  0  0
  9 11  1  0  0  0  0
  9 29  1  0  0  0  0
 11 12  1  0  0  0  0
 11 13  1  0  0  0  0
 11 14  1  0  0  0  0
 14 15  2  0  0  0  0
 14 28  1  0  0  0  0
 15 16  1  0  0  0  0
 15 17  1  0  0  0  0
 17 18  1  0  0  0  0
 17 19  1  0  0  0  0
 19 20  1  0  0  0  0
 19 28  2  0  0  0  0
 20 21  1  0  0  0  0
 20 22  2  0  0  0  0
 22 23  1  0  0  0  0
 22 24  1  0  0  0  0
 24 25  1  0  0  0  0
 24 26  2  0  0  0  0
 26 27  1  0  0  0  0
 26 28  1  0  0  0  0
 29 30  2  0  0  0  0
 29 31  1  0  0  0  0
 31 32  1  0  0  0  0
 31 33  1  0  0  0  0
 33 34  1  0  0  0  0
 33 35  1  0  0  0  0
 33 36  1  0  0  0  0
M  END
$$$$

  -OEChem-01062216103D

 36 37  0     1  0  0  0  0  0999 V2000
   -3.9906   -2.5515    0.2646 H   0  0  0  0  0  0  0  0  0  0  0  0
   -3.8172   -1.5608   -0.1645 C   0  0  0  0  0  0  0  0  0  0  0  0
   -4.0791   -0.8059    0.5810 H   0  0  0  0  0  0  0  0  0  0  0  0
   -4.4587   -1.4385   -1.0404 H   0  0  0  0  0  0  0  0  0  0  0  0
   -2.3605   -1.4121   -0.5600 C   0  0  0  0  0  0  0  0  0  0  0  0
   -1.6381   -2.3937   -0.5695 O   0  0  0  0  0  0  0  0  0  0  0  0
   -1.9374   -0.2610   -1.1841 N   0  0  0  0  0  0  0  0  0  0  0  0
   -2.7082    0.3740   -1.3734 H   0  0  0  0  0  0  0  0  0  0  0  0
   -0.6529    0.4459   -0.9770 C   0  0  1  0  0  0  0  0  0  0  0  0
   -0.9049    1.2628   -0.2922 H   0  0  0  0  0  0  0  0  0  0  0  0
    0.5622   -0.2245   -0.2899 C   0  0  0  0  0  0  0  0  0  0  0  0
    0.7871   -1.1591   -0.8128 H   0  0  0  0  0  0  0  0  0  0  0  0
    1.4419    0.4201   -0.3877 H   0  0  0  0  0  0  0  0  0  0  0  0
    0.3539   -0.5236    1.1801 C   0  0  0  0  0  0  0  0  0  0  0  0
   -0.0258   -1.6971    1.7891 C   0  0  0  0  0  0  0  0  0  0  0  0
   -0.1922   -2.6472    1.2862 H   0  0  0  0  0  0  0  0  0  0  0  0
   -0.1373   -1.4569    3.1564 N   0  0  0  0  0  0  0  0  0  0  0  0
   -0.3868   -2.1540    3.8542 H   0  0  0  0  0  0  0  0  0  0  0  0
    0.1573   -0.1348    3.4388 C   0  0  0  0  0  0  0  0  0  0  0  0
    0.1797    0.5775    4.6381 C   0  0  0  0  0  0  0  0  0  0  0  0
   -0.0627    0.0824    5.5718 H   0  0  0  0  0  0  0  0  0  0  0  0
    0.5195    1.9375    4.6182 C   0  0  0  0  0  0  0  0  0  0  0  0
    0.5419    2.5049    5.5438 H   0  0  0  0  0  0  0  0  0  0  0  0
    0.8319    2.5665    3.4031 C   0  0  0  0  0  0  0  0  0  0  0  0
    1.0961    3.6197    3.3900 H   0  0  0  0  0  0  0  0  0  0  0  0
    0.8067    1.8397    2.2042 C   0  0  0  0  0  0  0  0  0  0  0  0
    1.0492    2.3251    1.2643 H   0  0  0  0  0  0  0  0  0  0  0  0
    0.4678    0.4821    2.2326 C   0  0  0  0  0  0  0  0  0  0  0  0
   -0.2333    1.1510   -2.2762 C   0  0  0  0  0  0  0  0  0  0  0  0
   -0.4052    2.3555   -2.4059 O   0  0  0  0  0  0  0  0  0  0  0  0
    0.2739    0.4104   -3.3270 N   0  0  0  0  0  0  0  0  0  0  0  0
    0.2850   -0.6003   -3.2111 H   0  0  0  0  0  0  0  0  0  0  0  0
    0.5920    0.9788   -4.6304 C   0  0  0  0  0  0  0  0  0  0  0  0
    1.3484    1.7644   -4.5316 H   0  0  0  0  0  0  0  0  0  0  0  0
    0.9852    0.2036   -5.2951 H   0  0  0  0  0  0  0  0  0  0  0  0
   -0.3043    1.4079   -5.0905 H   0  0  0  0  0  0  0  0  0  0  0  0
  1  2  1  0  0  0  0
  2  3  1  0  0  0  0
  2  4  1  0  0  0  0
  2  5  1  0  0  0  0
  5  6  2  0  0  0  0
  5  7  1  0  0  0  0
  7  8  1  0  0  0  0
  7  9  1  0  0  0  0
  9 10  1  0  0  0  0
  9 11  1  0  0  0  0
  9 29  1  0  0  0  0
 11 12  1  0  0  0  0
 11 13  1  0  0  0  0
 11 14  1  0  0  0  0
 14 15  2  0  0  0  0
 14 28  1  0  0  0  0
 15 16  1  0  0  0  0
 15 17  1  0  0  0  0
 17 18  1  0  0  0  0
 17 19  1  0  0  0  0
 19 20  1  0  0  0  0
 19 28  2  0  0  0  0
 20 21  1  0  0  0  0
 20 22  2  0  0  0  0
 22 23  1  0  0  0  0
 22 24  1  0  0  0  0
 24 25  1  0  0  0  0
 24 26  2  0  0  0  0
 26 27  1  0  0  0  0
 26 28  1  0  0  0  0
 29 30  2  0  0  0  0
 29 31  1  0  0  0  0
 31 32  1  0  0  0  0
 31 33  1  0  0  0  0
 33 34  1  0  0  0  0
 33 35  1  0  0  0  0
 33 36  1  0  0  0  0
M  END
$$$$

  -OEChem-01062216103D

 36 37  0     1  0  0  0  0  0999 V2000
   -3.9782   -2.5342    0.3573 H   0  0  0  0  0  0  0  0  0  0  0  0
   -3.8114   -1.5445   -0.0772 C   0  0  0  0  0  0  0  0  0  0  0  0
   -4.0301   -0.7883    0.6807 H   0  0  0  0  0  0  0  0  0  0  0  0
   -4.4900   -1.4122   -0.9233 H   0  0  0  0  0  0  0  0  0  0  0  0
   -2.3719   -1.4124   -0.5367 C   0  0  0  0  0  0  0  0  0  0  0  0
   -1.6634   -2.4030   -0.5867 O   0  0  0  0  0  0  0  0  0  0  0  0
   -1.9618   -0.2679   -1.1811 N   0  0  0  0  0  0  0  0  0  0  0  0
   -2.7378    0.3675   -1.3453 H   0  0  0  0  0  0  0  0  0  0  0  0
   -0.6757    0.4425   -0.9876 C   0  0  1  0  0  0  0  0  0  0  0  0
   -0.9215    1.2630   -0.3050 H   0  0  0  0  0  0  0  0  0  0  0  0
    0.5454   -0.2307   -0.3157 C   0  0  0  0  0  0  0  0  0  0  0  0
    0.7643   -1.1638   -0.8441 H   0  0  0  0  0  0  0  0  0  0  0  0
    1.4252    0.4131   -0.4200 H   0  0  0  0  0  0  0  0  0  0  0  0
    0.3480   -0.5325    1.1546 C   0  0  0  0  0  0  0  0  0  0  0  0
   -0.0288   -1.7074    1.7622 C   0  0  0  0  0  0  0  0  0  0  0  0
   -0.1953   -2.6563    1.2568 H   0  0  0  0  0  0  0  0  0  0  0  0
   -0.1413   -1.4682    3.1297 N   0  0  0  0  0  0  0  0  0  0  0  0
   -0.3852   -2.1671    3.8279 H   0  0  0  0  0  0  0  0  0  0  0  0
    0.1481   -0.1447    3.4125 C   0  0  0  0  0  0  0  0  0  0  0  0
    0.1643    0.5684    4.6112 C   0  0  0  0  0  0  0  0  0  0  0  0
   -0.0808    0.0735    5.5445 H   0  0  0  0  0  0  0  0  0  0  0  0
    0.5003    1.9296    4.5914 C   0  0  0  0  0  0  0  0  0  0  0  0
    0.5173    2.4979    5.5167 H   0  0  0  0  0  0  0  0  0  0  0  0
    0.8152    2.5589    3.3771 C   0  0  0  0  0  0  0  0  0  0  0  0
    1.0756    3.6130    3.3640 H   0  0  0  0  0  0  0  0  0  0  0  0
    0.7964    1.8311    2.1785 C   0  0  0  0  0  0  0  0  0  0  0  0
    1.0417    2.3155    1.2383 H   0  0  0  0  0  0  0  0  0  0  0  0
    0.4596    0.4728    2.2071 C   0  0  0  0  0  0  0  0  0  0  0  0
   -0.2556    1.1360   -2.2925 C   0  0  0  0  0  0  0  0  0  0  0  0
   -0.1212    2.3514   -2.3343 O   0  0  0  0  0  0  0  0  0  0  0  0
   -0.0490    0.3785   -3.4292 N   0  0  0  0  0  0  0  0  0  0  0  0
   -0.2201   -0.6218   -3.3513 H   0  0  0  0  0  0  0  0  0  0  0  0
    0.3267    0.9416   -4.7188 C   0  0  0  0  0  0  0  0  0  0  0  0
    1.2731    1.4866   -4.6377 H   0  0  0  0  0  0  0  0  0  0  0  0
    0.4504    0.1439   -5.4576 H   0  0  0  0  0  0  0  0  0  0  0  0
   -0.4471    1.6286   -5.0767 H   0  0  0  0  0  0  0  0  0  0  0  0
  1  2  1  0  0  0  0
  2  3  1  0  0  0  0
  2  4  1  0  0  0  0
  2  5  1  0  0  0  0
  5  6  2  0  0  0  0
  5  7  1  0  0  0  0
  7  8  1  0  0  0  0
  7  9  1  0  0  0  0
  9 10  1  0  0  0  0
  9 11  1  0  0  0  0
  9 29  1  0  0  0  0
 11 12  1  0  0  0  0
 11 13  1  0  0  0  0
 11 14  1  0  0  0  0
 14 15  2  0  0  0  0
 14 28  1  0  0  0  0
 15 16  1  0  0  0  0
 15 17  1  0  0  0  0
 17 18  1  0  0  0  0
 17 19  1  0  0  0  0
 19 20  1  0  0  0  0
 19 28  2  0  0  0  0
 20 21  1  0  0  0  0
 20 22  2  0  0  0  0
 22 23  1  0  0  0  0
 22 24  1  0  0  0  0
 24 25  1  0  0  0  0
 24 26  2  0  0  0  0
 26 27  1  0  0  0  0
 26 28  1  0  0  0  0
 29 30  2  0  0  0  0
 29 31  1  0  0  0  0
 31 32  1  0  0  0  0
 31 33  1  0  0  0  0
 33 34  1  0  0  0  0
 33 35  1  0  0  0  0
 33 36  1  0  0  0  0
M  END
$$$$

  -OEChem-01062216103D

 36 37  0     1  0  0  0  0  0999 V2000
   -3.9733   -2.5225    0.4201 H   0  0  0  0  0  0  0  0  0  0  0  0
   -3.8126   -1.5346   -0.0205 C   0  0  0  0  0  0  0  0  0  0  0  0
   -4.0026   -0.7762    0.7431 H   0  0  0  0  0  0  0  0  0  0  0  0
   -4.5154   -1.3980   -0.8461 H   0  0  0  0  0  0  0  0  0  0  0  0
   -2.3865   -1.4133   -0.5226 C   0  0  0  0  0  0  0  0  0  0  0  0
   -1.6883   -2.4094   -0.5981 O   0  0  0  0  0  0  0  0  0  0  0  0
   -1.9874   -0.2718   -1.1790 N   0  0  0  0  0  0  0  0  0  0  0  0
   -2.7678    0.3621   -1.3258 H   0  0  0  0  0  0  0  0  0  0  0  0
   -0.7021    0.4456   -0.9961 C   0  0  1  0  0  0  0  0  0  0  0  0
   -0.9431    1.2689   -0.3156 H   0  0  0  0  0  0  0  0  0  0  0  0
    0.5230   -0.2304   -0.3343 C   0  0  0  0  0  0  0  0  0  0  0  0
    0.7373   -1.1611   -0.8689 H   0  0  0  0  0  0  0  0  0  0  0  0
    1.4026    0.4129   -0.4418 H   0  0  0  0  0  0  0  0  0  0  0  0
    0.3366   -0.5374    1.1364 C   0  0  0  0  0  0  0  0  0  0  0  0
   -0.0358   -1.7148    1.7421 C   0  0  0  0  0  0  0  0  0  0  0  0
   -0.2008   -2.6630    1.2345 H   0  0  0  0  0  0  0  0  0  0  0  0
   -0.1447   -1.4796    3.1107 N   0  0  0  0  0  0  0  0  0  0  0  0
   -0.3848   -2.1809    3.8077 H   0  0  0  0  0  0  0  0  0  0  0  0
    0.1435   -0.1562    3.3963 C   0  0  0  0  0  0  0  0  0  0  0  0
    0.1641    0.5550    4.5962 C   0  0  0  0  0  0  0  0  0  0  0  0
   -0.0759    0.0584    5.5296 H   0  0  0  0  0  0  0  0  0  0  0  0
    0.4998    1.9162    4.5777 C   0  0  0  0  0  0  0  0  0  0  0  0
    0.5211    2.4822    5.5043 H   0  0  0  0  0  0  0  0  0  0  0  0
    0.8111    2.5476    3.3636 C   0  0  0  0  0  0  0  0  0  0  0  0
    1.0747    3.6008    3.3520 H   0  0  0  0  0  0  0  0  0  0  0  0
    0.7866    1.8227    2.1634 C   0  0  0  0  0  0  0  0  0  0  0  0
    1.0291    2.3079    1.2228 H   0  0  0  0  0  0  0  0  0  0  0  0
    0.4500    0.4647    2.1912 C   0  0  0  0  0  0  0  0  0  0  0  0
   -0.2841    1.1349   -2.3054 C   0  0  0  0  0  0  0  0  0  0  0  0
    0.1218    2.2890   -2.2966 O   0  0  0  0  0  0  0  0  0  0  0  0
   -0.3748    0.4445   -3.4989 N   0  0  0  0  0  0  0  0  0  0  0  0
   -0.6863   -0.5230   -3.4434 H   0  0  0  0  0  0  0  0  0  0  0  0
    0.0404    0.9905   -4.7841 C   0  0  0  0  0  0  0  0  0  0  0  0
    1.1052    1.2452   -4.7656 H   0  0  0  0  0  0  0  0  0  0  0  0
   -0.1258    0.2552   -5.5772 H   0  0  0  0  0  0  0  0  0  0  0  0
   -0.5342    1.8916   -5.0224 H   0  0  0  0  0  0  0  0  0  0  0  0
  1  2  1  0  0  0  0
  2  3  1  0  0  0  0
  2  4  1  0  0  0  0
  2  5  1  0  0  0  0
  5  6  2  0  0  0  0
  5  7  1  0  0  0  0
  7  8  1  0  0  0  0
  7  9  1  0  0  0  0
  9 10  1  0  0  0  0
  9 11  1  0  0  0  0
  9 29  1  0  0  0  0
 11 12  1  0  0  0  0
 11 13  1  0  0  0  0
 11 14  1  0  0  0  0
 14 15  2  0  0  0  0
 14 28  1  0  0  0  0
 15 16  1  0  0  0  0
 15 17  1  0  0  0  0
 17 18  1  0  0  0  0
 17 19  1  0  0  0  0
 19 20  1  0  0  0  0
 19 28  2  0  0  0  0
 20 21  1  0  0  0  0
 20 22  2  0  0  0  0
 22 23  1  0  0  0  0
 22 24  1  0  0  0  0
 24 25  1  0  0  0  0
 24 26  2  0  0  0  0
 26 27  1  0  0  0  0
 26 28  1  0  0  0  0
 29 30  2  0  0  0  0
 29 31  1  0  0  0  0
 31 32  1  0  0  0  0
 31 33  1  0  0  0  0
 33 34  1  0  0  0  0
 33 35  1  0  0  0  0
 33 36  1  0  0  0  0
M  END
$$$$

  -OEChem-01062216103D

 36 37  0     1  0  0  0  0  0999 V2000
   -3.9246   -2.5587    0.5107 H   0  0  0  0  0  0  0  0  0  0  0  0
   -3.8023   -1.5897    0.0182 C   0  0  0  0  0  0  0  0  0  0  0  0
   -4.0044   -0.8002    0.7466 H   0  0  0  0  0  0  0  0  0  0  0  0
   -4.5217   -1.5164   -0.8010 H   0  0  0  0  0  0  0  0  0  0  0  0
   -2.3893   -1.4517   -0.5152 C   0  0  0  0  0  0  0  0  0  0  0  0
   -1.6845   -2.4411   -0.6114 O   0  0  0  0  0  0  0  0  0  0  0  0
   -2.0143   -0.3022   -1.1728 N   0  0  0  0  0  0  0  0  0  0  0  0
   -2.8040    0.3255   -1.2948 H   0  0  0  0  0  0  0  0  0  0  0  0
   -0.7328    0.4286   -1.0029 C   0  0  1  0  0  0  0  0  0  0  0  0
   -0.9775    1.2481   -0.3194 H   0  0  0  0  0  0  0  0  0  0  0  0
    0.4978   -0.2430   -0.3446 C   0  0  0  0  0  0  0  0  0  0  0  0
    0.7113   -1.1753   -0.8769 H   0  0  0  0  0  0  0  0  0  0  0  0
    1.3775    0.3993   -0.4565 H   0  0  0  0  0  0  0  0  0  0  0  0
    0.3156   -0.5438    1.1278 C   0  0  0  0  0  0  0  0  0  0  0  0
   -0.0534   -1.7158    1.7460 C   0  0  0  0  0  0  0  0  0  0  0  0
   -0.2232   -2.6681    1.2479 H   0  0  0  0  0  0  0  0  0  0  0  0
   -0.1492   -1.4682    3.1137 N   0  0  0  0  0  0  0  0  0  0  0  0
   -0.3796   -2.1637    3.8197 H   0  0  0  0  0  0  0  0  0  0  0  0
    0.1457   -0.1435    3.3855 C   0  0  0  0  0  0  0  0  0  0  0  0
    0.1817    0.5775    4.5790 C   0  0  0  0  0  0  0  0  0  0  0  0
   -0.0498    0.0892    5.5190 H   0  0  0  0  0  0  0  0  0  0  0  0
    0.5215    1.9374    4.5454 C   0  0  0  0  0  0  0  0  0  0  0  0
    0.5568    2.5106    5.4671 H   0  0  0  0  0  0  0  0  0  0  0  0
    0.8195    2.5585    3.3225 C   0  0  0  0  0  0  0  0  0  0  0  0
    1.0846    3.6112    3.2987 H   0  0  0  0  0  0  0  0  0  0  0  0
    0.7805    1.8236    2.1290 C   0  0  0  0  0  0  0  0  0  0  0  0
    1.0146    2.3003    1.1816 H   0  0  0  0  0  0  0  0  0  0  0  0
    0.4411    0.4666    2.1726 C   0  0  0  0  0  0  0  0  0  0  0  0
   -0.3214    1.1373   -2.3058 C   0  0  0  0  0  0  0  0  0  0  0  0
    0.3087    2.1854   -2.2659 O   0  0  0  0  0  0  0  0  0  0  0  0
   -0.6862    0.6046   -3.5277 N   0  0  0  0  0  0  0  0  0  0  0  0
   -1.1173   -0.3169   -3.5056 H   0  0  0  0  0  0  0  0  0  0  0  0
   -0.2575    1.1593   -4.8049 C   0  0  0  0  0  0  0  0  0  0  0  0
    0.8340    1.1302   -4.8878 H   0  0  0  0  0  0  0  0  0  0  0  0
   -0.6842    0.5812   -5.6301 H   0  0  0  0  0  0  0  0  0  0  0  0
   -0.5908    2.1978   -4.9030 H   0  0  0  0  0  0  0  0  0  0  0  0
  1  2  1  0  0  0  0
  2  3  1  0  0  0  0
  2  4  1  0  0  0  0
  2  5  1  0  0  0  0
  5  6  2  0  0  0  0
  5  7  1  0  0  0  0
  7  8  1  0  0  0  0
  7  9  1  0  0  0  0
  9 10  1  0  0  0  0
  9 11  1  0  0  0  0
  9 29  1  0  0  0  0
 11 12  1  0  0  0  0
 11 13  1  0  0  0  0
 11 14  1  0  0  0  0
 14 15  2  0  0  0  0
 14 28  1  0  0  0  0
 15 16  1  0  0  0  0
 15 17  1  0  0  0  0
 17 18  1  0  0  0  0
 17 19  1  0  0  0  0
 19 20  1  0  0  0  0
 19 28  2  0  0  0  0
 20 21  1  0  0  0  0
 20 22  2  0  0  0  0
 22 23  1  0  0  0  0
 22 24  1  0  0  0  0
 24 25  1  0  0  0  0
 24 26  2  0  0  0  0
 26 27  1  0  0  0  0
 26 28  1  0  0  0  0
 29 30  2  0  0  0  0
 29 31  1  0  0  0  0
 31 32  1  0  0  0  0
 31 33  1  0  0  0  0
 33 34  1  0  0  0  0
 33 35  1  0  0  0  0
 33 36  1  0  0  0  0
M  END
$$$$

  -OEChem-01062216103D

 36 37  0     1  0  0  0  0  0999 V2000
   -3.8988   -2.5987    0.5096 H   0  0  0  0  0  0  0  0  0  0  0  0
   -3.7794   -1.6207    0.0348 C   0  0  0  0  0  0  0  0  0  0  0  0
   -3.9674   -0.8450    0.7814 H   0  0  0  0  0  0  0  0  0  0  0  0
   -4.5105   -1.5281   -0.7718 H   0  0  0  0  0  0  0  0  0  0  0  0
   -2.3739   -1.4765   -0.5162 C   0  0  0  0  0  0  0  0  0  0  0  0
   -1.6660   -2.4627   -0.6218 O   0  0  0  0  0  0  0  0  0  0  0  0
   -2.0139   -0.3225   -1.1749 N   0  0  0  0  0  0  0  0  0  0  0  0
   -2.8099    0.3004   -1.2787 H   0  0  0  0  0  0  0  0  0  0  0  0
   -0.7372    0.4208   -1.0127 C   0  0  1  0  0  0  0  0  0  0  0  0
   -0.9855    1.2402   -0.3306 H   0  0  0  0  0  0  0  0  0  0  0  0
    0.4949   -0.2472   -0.3494 C   0  0  0  0  0  0  0  0  0  0  0  0
    0.7115   -1.1806   -0.8781 H   0  0  0  0  0  0  0  0  0  0  0  0
    1.3752    0.3941   -0.4605 H   0  0  0  0  0  0  0  0  0  0  0  0
    0.3117   -0.5415    1.1253 C   0  0  0  0  0  0  0  0  0  0  0  0
   -0.0565   -1.7113    1.7485 C   0  0  0  0  0  0  0  0  0  0  0  0
   -0.2248   -2.6656    1.2540 H   0  0  0  0  0  0  0  0  0  0  0  0
   -0.1550   -1.4589    3.1153 N   0  0  0  0  0  0  0  0  0  0  0  0
   -0.3843   -2.1522    3.8240 H   0  0  0  0  0  0  0  0  0  0  0  0
    0.1412   -0.1334    3.3823 C   0  0  0  0  0  0  0  0  0  0  0  0
    0.1782    0.5923    4.5730 C   0  0  0  0  0  0  0  0  0  0  0  0
   -0.0538    0.1081    5.5150 H   0  0  0  0  0  0  0  0  0  0  0  0
    0.5205    1.9515    4.5341 C   0  0  0  0  0  0  0  0  0  0  0  0
    0.5542    2.5283    5.4534 H   0  0  0  0  0  0  0  0  0  0  0  0
    0.8236    2.5665    3.3094 C   0  0  0  0  0  0  0  0  0  0  0  0
    1.0932    3.6181    3.2815 H   0  0  0  0  0  0  0  0  0  0  0  0
    0.7843    1.8264    2.1191 C   0  0  0  0  0  0  0  0  0  0  0  0
    1.0238    2.2962    1.1698 H   0  0  0  0  0  0  0  0  0  0  0  0
    0.4389    0.4714    2.1673 C   0  0  0  0  0  0  0  0  0  0  0  0
   -0.3377    1.1376   -2.3188 C   0  0  0  0  0  0  0  0  0  0  0  0
    0.4651    2.0611   -2.2979 O   0  0  0  0  0  0  0  0  0  0  0  0
   -0.9471    0.7973   -3.5130 N   0  0  0  0  0  0  0  0  0  0  0  0
   -1.4984   -0.0575   -3.5016 H   0  0  0  0  0  0  0  0  0  0  0  0
   -0.5707    1.3763   -4.7965 C   0  0  0  0  0  0  0  0  0  0  0  0
    0.4680    1.1284   -5.0386 H   0  0  0  0  0  0  0  0  0  0  0  0
   -1.2151    0.9861   -5.5900 H   0  0  0  0  0  0  0  0  0  0  0  0
   -0.6767    2.4660   -4.7730 H   0  0  0  0  0  0  0  0  0  0  0  0
  1  2  1  0  0  0  0
  2  3  1  0  0  0  0
  2  4  1  0  0  0  0
  2  5  1  0  0  0  0
  5  6  2  0  0  0  0
  5  7  1  0  0  0  0
  7  8  1  0  0  0  0
  7  9  1  0  0  0  0
  9 10  1  0  0  0  0
  9 11  1  0  0  0  0
  9 29  1  0  0  0  0
 11 12  1  0  0  0  0
 11 13  1  0  0  0  0
 11 14  1  0  0  0  0
 14 15  2  0  0  0  0
 14 28  1  0  0  0  0
 15 16  1  0  0  0  0
 15 17  1  0  0  0  0
 17 18  1  0  0  0  0
 17 19  1  0  0  0  0
 19 20  1  0  0  0  0
 19 28  2  0  0  0  0
 20 21  1  0  0  0  0
 20 22  2  0  0  0  0
 22 23  1  0  0  0  0
 22 24  1  0  0  0  0
 24 25  1  0  0  0  0
 24 26  2  0  0  0  0
 26 27  1  0  0  0  0
 26 28  1  0  0  0  0
 29 30  2  0  0  0  0
 29 31  1  0  0  0  0
 31 32  1  0  0  0  0
 31 33  1  0  0  0  0
 33 34  1  0  0  0  0
 33 35  1  0  0  0  0
 33 36  1  0  0  0  0
M  END
$$$$

  -OEChem-01062216103D

 36 37  0     1  0  0  0  0  0999 V2000
   -3.8507   -2.6054    0.5620 H   0  0  0  0  0  0  0  0  0  0  0  0
   -3.7574   -1.6445    0.0479 C   0  0  0  0  0  0  0  0  0  0  0  0
   -3.9581   -0.8449    0.7654 H   0  0  0  0  0  0  0  0  0  0  0  0
   -4.4958   -1.6005   -0.7563 H   0  0  0  0  0  0  0  0  0  0  0  0
   -2.3591   -1.4924   -0.5195 C   0  0  0  0  0  0  0  0  0  0  0  0
   -1.6500   -2.4765   -0.6346 O   0  0  0  0  0  0  0  0  0  0  0  0
   -2.0100   -0.3319   -1.1735 N   0  0  0  0  0  0  0  0  0  0  0  0
   -2.8081    0.2926   -1.2462 H   0  0  0  0  0  0  0  0  0  0  0  0
   -0.7313    0.4122   -1.0219 C   0  0  1  0  0  0  0  0  0  0  0  0
   -0.9742    1.2289   -0.3351 H   0  0  0  0  0  0  0  0  0  0  0  0
    0.5025   -0.2610   -0.3613 C   0  0  0  0  0  0  0  0  0  0  0  0
    0.7116   -1.1970   -0.8886 H   0  0  0  0  0  0  0  0  0  0  0  0
    1.3882    0.3720   -0.4734 H   0  0  0  0  0  0  0  0  0  0  0  0
    0.3222   -0.5503    1.1148 C   0  0  0  0  0  0  0  0  0  0  0  0
   -0.0498   -1.7173    1.7409 C   0  0  0  0  0  0  0  0  0  0  0  0
   -0.2167   -2.6735    1.2490 H   0  0  0  0  0  0  0  0  0  0  0  0
   -0.1531   -1.4596    3.1063 N   0  0  0  0  0  0  0  0  0  0  0  0
   -0.3819   -2.1513    3.8166 H   0  0  0  0  0  0  0  0  0  0  0  0
    0.1399   -0.1325    3.3694 C   0  0  0  0  0  0  0  0  0  0  0  0
    0.1677    0.5988    4.5570 C   0  0  0  0  0  0  0  0  0  0  0  0
   -0.0695    0.1191    5.5001 H   0  0  0  0  0  0  0  0  0  0  0  0
    0.5067    1.9588    4.5141 C   0  0  0  0  0  0  0  0  0  0  0  0
    0.5328    2.5405    5.4307 H   0  0  0  0  0  0  0  0  0  0  0  0
    0.8151    2.5688    3.2883 C   0  0  0  0  0  0  0  0  0  0  0  0
    1.0803    3.6213    3.2573 H   0  0  0  0  0  0  0  0  0  0  0  0
    0.7863    1.8230    2.1012 C   0  0  0  0  0  0  0  0  0  0  0  0
    1.0309    2.2895    1.1515 H   0  0  0  0  0  0  0  0  0  0  0  0
    0.4437    0.4673    2.1532 C   0  0  0  0  0  0  0  0  0  0  0  0
   -0.3473    1.1430   -2.3289 C   0  0  0  0  0  0  0  0  0  0  0  0
    0.6039    1.9127   -2.3580 O   0  0  0  0  0  0  0  0  0  0  0  0
   -1.1609    1.0483   -3.4445 N   0  0  0  0  0  0  0  0  0  0  0  0
   -1.8313    0.2844   -3.4341 H   0  0  0  0  0  0  0  0  0  0  0  0
   -0.8350    1.6725   -4.7214 C   0  0  0  0  0  0  0  0  0  0  0  0
    0.0933    1.2554   -5.1256 H   0  0  0  0  0  0  0  0  0  0  0  0
   -1.6382    1.4970   -5.4436 H   0  0  0  0  0  0  0  0  0  0  0  0
   -0.7125    2.7544   -4.6017 H   0  0  0  0  0  0  0  0  0  0  0  0
  1  2  1  0  0  0  0
  2  3  1  0  0  0  0
  2  4  1  0  0  0  0
  2  5  1  0  0  0  0
  5  6  2  0  0  0  0
  5  7  1  0  0  0  0
  7  8  1  0  0  0  0
  7  9  1  0  0  0  0
  9 10  1  0  0  0  0
  9 11  1  0  0  0  0
  9 29  1  0  0  0  0
 11 12  1  0  0  0  0
 11 13  1  0  0  0  0
 11 14  1  0  0  0  0
 14 15  2  0  0  0  0
 14 28  1  0  0  0  0
 15 16  1  0  0  0  0
 15 17  1  0  0  0  0
 17 18  1  0  0  0  0
 17 19  1  0  0  0  0
 19 20  1  0  0  0  0
 19 28  2  0  0  0  0
 20 21  1  0  0  0  0
 20 22  2  0  0  0  0
 22 23  1  0  0  0  0
 22 24  1  0  0  0  0
 24 25  1  0  0  0  0
 24 26  2  0  0  0  0
 26 27  1  0  0  0  0
 26 28  1  0  0  0  0
 29 30  2  0  0  0  0
 29 31  1  0  0  0  0
 31 32  1  0  0  0  0
 31 33  1  0  0  0  0
 33 34  1  0  0  0  0
 33 35  1  0  0  0  0
 33 36  1  0  0  0  0
M  END
$$$$

  -OEChem-01062216103D

 36 37  0     1  0  0  0  0  0999 V2000
   -3.7868   -2.8465   -0.0459 H   0  0  0  0  0  0  0  0  0  0  0  0
   -3.4953   -2.1274   -0.8169 C   0  0  0  0  0  0  0  0  0  0  0  0
   -4.3920   -1.7972   -1.3469 H   0  0  0  0  0  0  0  0  0  0  0  0
   -2.8231   -2.6233   -1.5215 H   0  0  0  0  0  0  0  0  0  0  0  0
   -2.7993   -0.9383   -0.1820 C   0  0  0  0  0  0  0  0  0  0  0  0
   -2.9015   -0.7660    1.0158 O   0  0  0  0  0  0  0  0  0  0  0  0
   -2.3172    0.0671   -0.9901 N   0  0  0  0  0  0  0  0  0  0  0  0
   -2.5389   -0.1451   -1.9574 H   0  0  0  0  0  0  0  0  0  0  0  0
   -1.0107    0.7710   -0.8679 C   0  0  1  0  0  0  0  0  0  0  0  0
   -1.1727    1.6698   -0.2649 H   0  0  0  0  0  0  0  0  0  0  0  0
    0.1996    0.0009   -0.2423 C   0  0  0  0  0  0  0  0  0  0  0  0
    0.3377   -0.9206   -0.8163 H   0  0  0  0  0  0  0  0  0  0  0  0
    1.1142    0.5898   -0.3633 H   0  0  0  0  0  0  0  0  0  0  0  0
    0.1416   -0.3675    1.2196 C   0  0  0  0  0  0  0  0  0  0  0  0
   -0.2283   -1.5595    1.7970 C   0  0  0  0  0  0  0  0  0  0  0  0
   -0.5715   -2.4412    1.2634 H   0  0  0  0  0  0  0  0  0  0  0  0
   -0.1008   -1.4230    3.1781 N   0  0  0  0  0  0  0  0  0  0  0  0
   -0.3708   -2.1241    3.8631 H   0  0  0  0  0  0  0  0  0  0  0  0
    0.3391   -0.1495    3.4979 C   0  0  0  0  0  0  0  0  0  0  0  0
    0.6022    0.4653    4.7225 C   0  0  0  0  0  0  0  0  0  0  0  0
    0.4640   -0.0816    5.6483 H   0  0  0  0  0  0  0  0  0  0  0  0
    1.0463    1.7952    4.7384 C   0  0  0  0  0  0  0  0  0  0  0  0
    1.2551    2.2857    5.6844 H   0  0  0  0  0  0  0  0  0  0  0  0
    1.2196    2.4935    3.5332 C   0  0  0  0  0  0  0  0  0  0  0  0
    1.5626    3.5235    3.5473 H   0  0  0  0  0  0  0  0  0  0  0  0
    0.9484    1.8661    2.3088 C   0  0  0  0  0  0  0  0  0  0  0  0
    1.0788    2.4016    1.3742 H   0  0  0  0  0  0  0  0  0  0  0  0
    0.5057    0.5389    2.3026 C   0  0  0  0  0  0  0  0  0  0  0  0
   -0.5674    1.2206   -2.2918 C   0  0  0  0  0  0  0  0  0  0  0  0
    0.5908    1.5134   -2.5580 O   0  0  0  0  0  0  0  0  0  0  0  0
   -1.4824    1.2273   -3.3362 N   0  0  0  0  0  0  0  0  0  0  0  0
   -2.4582    1.2990   -3.0639 H   0  0  0  0  0  0  0  0  0  0  0  0
   -1.1272    1.6711   -4.6812 C   0  0  0  0  0  0  0  0  0  0  0  0
   -0.3070    1.0656   -5.0816 H   0  0  0  0  0  0  0  0  0  0  0  0
   -1.9856    1.5702   -5.3521 H   0  0  0  0  0  0  0  0  0  0  0  0
   -0.8157    2.7210   -4.6704 H   0  0  0  0  0  0  0  0  0  0  0  0
  1  2  1  0  0  0  0
  2  3  1  0  0  0  0
  2  4  1  0  0  0  0
  2  5  1  0  0  0  0
  5  6  2  0  0  0  0
  5  7  1  0  0  0  0
  7  8  1  0  0  0  0
  7  9  1  0  0  0  0
  9 10  1  0  0  0  0
  9 11  1  0  0  0  0
  9 29  1  0  0  0  0
 11 12  1  0  0  0  0
 11 13  1  0  0  0  0
 11 14  1  0  0  0  0
 14 15  2  0  0  0  0
 14 28  1  0  0  0  0
 15 16  1  0  0  0  0
 15 17  1  0  0  0  0
 17 18  1  0  0  0  0
 17 19  1  0  0  0  0
 19 20  1  0  0  0  0
 19 28  2  0  0  0  0
 20 21  1  0  0  0  0
 20 22  2  0  0  0  0
 22 23  1  0  0  0  0
 22 24  1  0  0  0  0
 24 25  1  0  0  0  0
 24 26  2  0  0  0  0
 26 27  1  0  0  0  0
 26 28  1  0  0  0  0
 29 30  2  0  0  0  0
 29 31  1  0  0  0  0
 31 32  1  0  0  0  0
 31 33  1  0  0  0  0
 33 34  1  0  0  0  0
 33 35  1  0  0  0  0
 33 36  1  0  0  0  0
M  END
$$$$

  -OEChem-01062216103D

 36 37  0     1  0  0  0  0  0999 V2000
   -3.9042   -2.8150   -0.1441 H   0  0  0  0  0  0  0  0  0  0  0  0
   -3.5564   -2.0977   -0.8930 C   0  0  0  0  0  0  0  0  0  0  0  0
   -4.4223   -1.6981   -1.4266 H   0  0  0  0  0  0  0  0  0  0  0  0
   -2.9072   -2.6182   -1.6011 H   0  0  0  0  0  0  0  0  0  0  0  0
   -2.7941   -0.9709   -0.2214 C   0  0  0  0  0  0  0  0  0  0  0  0
   -2.8529   -0.8594    0.9860 O   0  0  0  0  0  0  0  0  0  0  0  0
   -2.2905    0.0479   -0.9994 N   0  0  0  0  0  0  0  0  0  0  0  0
   -2.5367   -0.1058   -1.9732 H   0  0  0  0  0  0  0  0  0  0  0  0
   -0.9852    0.7495   -0.8627 C   0  0  1  0  0  0  0  0  0  0  0  0
   -1.1551    1.6460   -0.2586 H   0  0  0  0  0  0  0  0  0  0  0  0
    0.2315   -0.0007   -0.2288 C   0  0  0  0  0  0  0  0  0  0  0  0
    0.3846   -0.9231   -0.7977 H   0  0  0  0  0  0  0  0  0  0  0  0
    1.1364    0.6032   -0.3517 H   0  0  0  0  0  0  0  0  0  0  0  0
    0.1717   -0.3645    1.2339 C   0  0  0  0  0  0  0  0  0  0  0  0
   -0.1846   -1.5601    1.8114 C   0  0  0  0  0  0  0  0  0  0  0  0
   -0.5161   -2.4455    1.2762 H   0  0  0  0  0  0  0  0  0  0  0  0
   -0.0651   -1.4203    3.1928 N   0  0  0  0  0  0  0  0  0  0  0  0
   -0.3329   -2.1231    3.8766 H   0  0  0  0  0  0  0  0  0  0  0  0
    0.3580   -0.1412    3.5125 C   0  0  0  0  0  0  0  0  0  0  0  0
    0.6090    0.4777    4.7373 C   0  0  0  0  0  0  0  0  0  0  0  0
    0.4753   -0.0713    5.6625 H   0  0  0  0  0  0  0  0  0  0  0  0
    1.0353    1.8135    4.7537 C   0  0  0  0  0  0  0  0  0  0  0  0
    1.2358    2.3072    5.6997 H   0  0  0  0  0  0  0  0  0  0  0  0
    1.2032    2.5132    3.5488 C   0  0  0  0  0  0  0  0  0  0  0  0
    1.5335    3.5472    3.5633 H   0  0  0  0  0  0  0  0  0  0  0  0
    0.9448    1.8813    2.3240 C   0  0  0  0  0  0  0  0  0  0  0  0
    1.0724    2.4183    1.3901 H   0  0  0  0  0  0  0  0  0  0  0  0
    0.5200    0.5482    2.3170 C   0  0  0  0  0  0  0  0  0  0  0  0
   -0.5651    1.2070   -2.2893 C   0  0  0  0  0  0  0  0  0  0  0  0
    0.5970    1.2301   -2.6731 O   0  0  0  0  0  0  0  0  0  0  0  0
   -1.5521    1.5095   -3.2164 N   0  0  0  0  0  0  0  0  0  0  0  0
   -2.4728    1.7116   -2.8353 H   0  0  0  0  0  0  0  0  0  0  0  0
   -1.2496    1.9876   -4.5618 C   0  0  0  0  0  0  0  0  0  0  0  0
   -0.6392    1.2555   -5.1013 H   0  0  0  0  0  0  0  0  0  0  0  0
   -2.1747    2.1440   -5.1250 H   0  0  0  0  0  0  0  0  0  0  0  0
   -0.7044    2.9364   -4.5186 H   0  0  0  0  0  0  0  0  0  0  0  0
  1  2  1  0  0  0  0
  2  3  1  0  0  0  0
  2  4  1  0  0  0  0
  2  5  1  0  0  0  0
  5  6  2  0  0  0  0
  5  7  1  0  0  0  0
  7  8  1  0  0  0  0
  7  9  1  0  0  0  0
  9 10  1  0  0  0  0
  9 11  1  0  0  0  0
  9 29  1  0  0  0  0
 11 12  1  0  0  0  0
 11 13  1  0  0  0  0
 11 14  1  0  0  0  0
 14 15  2  0  0  0  0
 14 28  1  0  0  0  0
 15 16  1  0  0  0  0
 15 17  1  0  0  0  0
 17 18  1  0  0  0  0
 17 19  1  0  0  0  0
 19 20  1  0  0  0  0
 19 28  2  0  0  0  0
 20 21  1  0  0  0  0
 20 22  2  0  0  0  0
 22 23  1  0  0  0  0
 22 24  1  0  0  0  0
 24 25  1  0  0  0  0
 24 26  2  0  0  0  0
 26 27  1  0  0  0  0
 26 28  1  0  0  0  0
 29 30  2  0  0  0  0
 29 31  1  0  0  0  0
 31 32  1  0  0  0  0
 31 33  1  0  0  0  0
 33 34  1  0  0  0  0
 33 35  1  0  0  0  0
 33 36  1  0  0  0  0
M  END
$$$$

  -OEChem-01062216103D

 36 37  0     1  0  0  0  0  0999 V2000
   -3.9587   -2.8095   -0.2093 H   0  0  0  0  0  0  0  0  0  0  0  0
   -3.6256   -2.0653   -0.9385 C   0  0  0  0  0  0  0  0  0  0  0  0
   -4.5040   -1.6150   -1.4071 H   0  0  0  0  0  0  0  0  0  0  0  0
   -3.0282   -2.5681   -1.7028 H   0  0  0  0  0  0  0  0  0  0  0  0
   -2.7966   -0.9959   -0.2517 C   0  0  0  0  0  0  0  0  0  0  0  0
   -2.7983   -0.9447    0.9607 O   0  0  0  0  0  0  0  0  0  0  0  0
   -2.2786    0.0318   -1.0090 N   0  0  0  0  0  0  0  0  0  0  0  0
   -2.5546   -0.0670   -1.9823 H   0  0  0  0  0  0  0  0  0  0  0  0
   -0.9788    0.7390   -0.8595 C   0  0  1  0  0  0  0  0  0  0  0  0
   -1.1603    1.6328   -0.2548 H   0  0  0  0  0  0  0  0  0  0  0  0
    0.2498    0.0140   -0.2221 C   0  0  0  0  0  0  0  0  0  0  0  0
    0.4187   -0.9082   -0.7874 H   0  0  0  0  0  0  0  0  0  0  0  0
    1.1410    0.6363   -0.3542 H   0  0  0  0  0  0  0  0  0  0  0  0
    0.1986   -0.3509    1.2406 C   0  0  0  0  0  0  0  0  0  0  0  0
   -0.1337   -1.5555    1.8128 C   0  0  0  0  0  0  0  0  0  0  0  0
   -0.4500   -2.4432    1.2720 H   0  0  0  0  0  0  0  0  0  0  0  0
   -0.0176   -1.4202    3.1949 N   0  0  0  0  0  0  0  0  0  0  0  0
   -0.2722   -2.1318    3.8746 H   0  0  0  0  0  0  0  0  0  0  0  0
    0.3810   -0.1350    3.5205 C   0  0  0  0  0  0  0  0  0  0  0  0
    0.6193    0.4816    4.7490 C   0  0  0  0  0  0  0  0  0  0  0  0
    0.4938   -0.0747    5.6711 H   0  0  0  0  0  0  0  0  0  0  0  0
    1.0224    1.8244    4.7732 C   0  0  0  0  0  0  0  0  0  0  0  0
    1.2124    2.3164    5.7224 H   0  0  0  0  0  0  0  0  0  0  0  0
    1.1805    2.5327    3.5721 C   0  0  0  0  0  0  0  0  0  0  0  0
    1.4934    3.5720    3.5930 H   0  0  0  0  0  0  0  0  0  0  0  0
    0.9342    1.9030    2.3435 C   0  0  0  0  0  0  0  0  0  0  0  0
    1.0543    2.4470    1.4129 H   0  0  0  0  0  0  0  0  0  0  0  0
    0.5314    0.5631    2.3282 C   0  0  0  0  0  0  0  0  0  0  0  0
   -0.5679    1.1999   -2.2841 C   0  0  0  0  0  0  0  0  0  0  0  0
    0.5285    0.9724   -2.7790 O   0  0  0  0  0  0  0  0  0  0  0  0
   -1.5299    1.7889   -3.0890 N   0  0  0  0  0  0  0  0  0  0  0  0
   -2.3829    2.0948   -2.6276 H   0  0  0  0  0  0  0  0  0  0  0  0
   -1.2469    2.2891   -4.4302 C   0  0  0  0  0  0  0  0  0  0  0  0
   -0.8923    1.4786   -5.0758 H   0  0  0  0  0  0  0  0  0  0  0  0
   -2.1526    2.7116   -4.8757 H   0  0  0  0  0  0  0  0  0  0  0  0
   -0.4806    3.0707   -4.3938 H   0  0  0  0  0  0  0  0  0  0  0  0
  1  2  1  0  0  0  0
  2  3  1  0  0  0  0
  2  4  1  0  0  0  0
  2  5  1  0  0  0  0
  5  6  2  0  0  0  0
  5  7  1  0  0  0  0
  7  8  1  0  0  0  0
  7  9  1  0  0  0  0
  9 10  1  0  0  0  0
  9 11  1  0  0  0  0
  9 29  1  0  0  0  0
 11 12  1  0  0  0  0
 11 13  1  0  0  0  0
 11 14  1  0  0  0  0
 14 15  2  0  0  0  0
 14 28  1  0  0  0  0
 15 16  1  0  0  0  0
 15 17  1  0  0  0  0
 17 18  1  0  0  0  0
 17 19  1  0  0  0  0
 19 20  1  0  0  0  0
 19 28  2  0  0  0  0
 20 21  1  0  0  0  0
 20 22  2  0  0  0  0
 22 23  1  0  0  0  0
 22 24  1  0  0  0  0
 24 25  1  0  0  0  0
 24 26  2  0  0  0  0
 26 27  1  0  0  0  0
 26 28  1  0  0  0  0
 29 30  2  0  0  0  0
 29 31  1  0  0  0  0
 31 32  1  0  0  0  0
 31 33  1  0  0  0  0
 33 34  1  0  0  0  0
 33 35  1  0  0  0  0
 33 36  1  0  0  0  0
M  END
$$$$

  -OEChem-01062216103D

 36 37  0     1  0  0  0  0  0999 V2000
   -3.9513   -2.8209   -0.2454 H   0  0  0  0  0  0  0  0  0  0  0  0
   -3.6505   -2.0486   -0.9592 C   0  0  0  0  0  0  0  0  0  0  0  0
   -4.5480   -1.5880   -1.3792 H   0  0  0  0  0  0  0  0  0  0  0  0
   -3.0784   -2.5192   -1.7625 H   0  0  0  0  0  0  0  0  0  0  0  0
   -2.8035   -0.9985   -0.2646 C   0  0  0  0  0  0  0  0  0  0  0  0
   -2.7815   -0.9752    0.9484 O   0  0  0  0  0  0  0  0  0  0  0  0
   -2.2830    0.0355   -1.0115 N   0  0  0  0  0  0  0  0  0  0  0  0
   -2.5689   -0.0406   -1.9840 H   0  0  0  0  0  0  0  0  0  0  0  0
   -0.9892    0.7480   -0.8519 C   0  0  1  0  0  0  0  0  0  0  0  0
   -1.1790    1.6355   -0.2407 H   0  0  0  0  0  0  0  0  0  0  0  0
    0.2471    0.0364   -0.2175 C   0  0  0  0  0  0  0  0  0  0  0  0
    0.4212   -0.8853   -0.7823 H   0  0  0  0  0  0  0  0  0  0  0  0
    1.1314    0.6670   -0.3585 H   0  0  0  0  0  0  0  0  0  0  0  0
    0.2027   -0.3373    1.2430 C   0  0  0  0  0  0  0  0  0  0  0  0
   -0.1129   -1.5495    1.8082 C   0  0  0  0  0  0  0  0  0  0  0  0
   -0.4206   -2.4374    1.2627 H   0  0  0  0  0  0  0  0  0  0  0  0
    0.0089   -1.4221    3.1903 N   0  0  0  0  0  0  0  0  0  0  0  0
   -0.2303   -2.1426    3.8663 H   0  0  0  0  0  0  0  0  0  0  0  0
    0.3958   -0.1350    3.5226 C   0  0  0  0  0  0  0  0  0  0  0  0
    0.6349    0.4752    4.7540 C   0  0  0  0  0  0  0  0  0  0  0  0
    0.5194   -0.0881    5.6730 H   0  0  0  0  0  0  0  0  0  0  0  0
    1.0258    1.8212    4.7855 C   0  0  0  0  0  0  0  0  0  0  0  0
    1.2167    2.3067    5.7376 H   0  0  0  0  0  0  0  0  0  0  0  0
    1.1706    2.5398    3.5888 C   0  0  0  0  0  0  0  0  0  0  0  0
    1.4741    3.5818    3.6167 H   0  0  0  0  0  0  0  0  0  0  0  0
    0.9228    1.9165    2.3569 C   0  0  0  0  0  0  0  0  0  0  0  0
    1.0324    2.4676    1.4291 H   0  0  0  0  0  0  0  0  0  0  0  0
    0.5323    0.5730    2.3346 C   0  0  0  0  0  0  0  0  0  0  0  0
   -0.5747    1.2157   -2.2692 C   0  0  0  0  0  0  0  0  0  0  0  0
    0.3912    0.7616   -2.8690 O   0  0  0  0  0  0  0  0  0  0  0  0
   -1.4212    2.0718   -2.9522 N   0  0  0  0  0  0  0  0  0  0  0  0
   -2.1922    2.4771   -2.4275 H   0  0  0  0  0  0  0  0  0  0  0  0
   -1.1475    2.5670   -4.2968 C   0  0  0  0  0  0  0  0  0  0  0  0
   -1.0949    1.7366   -5.0088 H   0  0  0  0  0  0  0  0  0  0  0  0
   -1.9423    3.2468   -4.6186 H   0  0  0  0  0  0  0  0  0  0  0  0
   -0.1970    3.1104   -4.3194 H   0  0  0  0  0  0  0  0  0  0  0  0
  1  2  1  0  0  0  0
  2  3  1  0  0  0  0
  2  4  1  0  0  0  0
  2  5  1  0  0  0  0
  5  6  2  0  0  0  0
  5  7  1  0  0  0  0
  7  8  1  0  0  0  0
  7  9  1  0  0  0  0
  9 10  1  0  0  0  0
  9 11  1  0  0  0  0
  9 29  1  0  0  0  0
 11 12  1  0  0  0  0
 11 13  1  0  0  0  0
 11 14  1  0  0  0  0
 14 15  2  0  0  0  0
 14 28  1  0  0  0  0
 15 16  1  0  0  0  0
 15 17  1  0  0  0  0
 17 18  1  0  0  0  0
 17 19  1  0  0  0  0
 19 20  1  0  0  0  0
 19 28  2  0  0  0  0
 20 21  1  0  0  0  0
 20 22  2  0  0  0  0
 22 23  1  0  0  0  0
 22 24  1  0  0  0  0
 24 25  1  0  0  0  0
 24 26  2  0  0  0  0
 26 27  1  0  0  0  0
 26 28  1  0  0  0  0
 29 30  2  0  0  0  0
 29 31  1  0  0  0  0
 31 32  1  0  0  0  0
 31 33  1  0  0  0  0
 33 34  1  0  0  0  0
 33 35  1  0  0  0  0
 33 36  1  0  0  0  0
M  END
$$$$

  -OEChem-01062216103D

 36 37  0     1  0  0  0  0  0999 V2000
   -3.9092   -2.8338   -0.2573 H   0  0  0  0  0  0  0  0  0  0  0  0
   -3.6365   -2.0445   -0.9636 C   0  0  0  0  0  0  0  0  0  0  0  0
   -4.5500   -1.5991   -1.3648 H   0  0  0  0  0  0  0  0  0  0  0  0
   -3.0646   -2.4891   -1.7817 H   0  0  0  0  0  0  0  0  0  0  0  0
   -2.8056   -0.9843   -0.2657 C   0  0  0  0  0  0  0  0  0  0  0  0
   -2.7931   -0.9558    0.9477 O   0  0  0  0  0  0  0  0  0  0  0  0
   -2.2904    0.0519   -1.0122 N   0  0  0  0  0  0  0  0  0  0  0  0
   -2.5620   -0.0360   -1.9881 H   0  0  0  0  0  0  0  0  0  0  0  0
   -1.0035    0.7713   -0.8443 C   0  0  1  0  0  0  0  0  0  0  0  0
   -1.2004    1.6543   -0.2289 H   0  0  0  0  0  0  0  0  0  0  0  0
    0.2371    0.0653   -0.2149 C   0  0  0  0  0  0  0  0  0  0  0  0
    0.4180   -0.8531   -0.7828 H   0  0  0  0  0  0  0  0  0  0  0  0
    1.1164    0.7029   -0.3552 H   0  0  0  0  0  0  0  0  0  0  0  0
    0.1917   -0.3195    1.2426 C   0  0  0  0  0  0  0  0  0  0  0  0
   -0.1165   -1.5385    1.7976 C   0  0  0  0  0  0  0  0  0  0  0  0
   -0.4219   -2.4228    1.2450 H   0  0  0  0  0  0  0  0  0  0  0  0
    0.0086   -1.4233    3.1806 N   0  0  0  0  0  0  0  0  0  0  0  0
   -0.2321   -2.1490    3.8508 H   0  0  0  0  0  0  0  0  0  0  0  0
    0.3978   -0.1395    3.5232 C   0  0  0  0  0  0  0  0  0  0  0  0
    0.6493    0.4577    4.7587 C   0  0  0  0  0  0  0  0  0  0  0  0
    0.5444   -0.1160    5.6726 H   0  0  0  0  0  0  0  0  0  0  0  0
    1.0400    1.8036    4.8006 C   0  0  0  0  0  0  0  0  0  0  0  0
    1.2411    2.2797    5.7555 H   0  0  0  0  0  0  0  0  0  0  0  0
    1.1723    2.5351    3.6103 C   0  0  0  0  0  0  0  0  0  0  0  0
    1.4755    3.5769    3.6459 H   0  0  0  0  0  0  0  0  0  0  0  0
    0.9148    1.9241    2.3746 C   0  0  0  0  0  0  0  0  0  0  0  0
    1.0179    2.4851    1.4524 H   0  0  0  0  0  0  0  0  0  0  0  0
    0.5251    0.5807    2.3414 C   0  0  0  0  0  0  0  0  0  0  0  0
   -0.5781    1.2423   -2.2538 C   0  0  0  0  0  0  0  0  0  0  0  0
    0.1928    0.5987   -2.9543 O   0  0  0  0  0  0  0  0  0  0  0  0
   -1.2353    2.3197   -2.8203 N   0  0  0  0  0  0  0  0  0  0  0  0
   -1.8971    2.8246   -2.2361 H   0  0  0  0  0  0  0  0  0  0  0  0
   -0.9754    2.8017   -4.1722 C   0  0  0  0  0  0  0  0  0  0  0  0
   -1.2392    2.0366   -4.9100 H   0  0  0  0  0  0  0  0  0  0  0  0
   -1.5703    3.6976   -4.3755 H   0  0  0  0  0  0  0  0  0  0  0  0
    0.0833    3.0562   -4.2920 H   0  0  0  0  0  0  0  0  0  0  0  0
  1  2  1  0  0  0  0
  2  3  1  0  0  0  0
  2  4  1  0  0  0  0
  2  5  1  0  0  0  0
  5  6  2  0  0  0  0
  5  7  1  0  0  0  0
  7  8  1  0  0  0  0
  7  9  1  0  0  0  0
  9 10  1  0  0  0  0
  9 11  1  0  0  0  0
  9 29  1  0  0  0  0
 11 12  1  0  0  0  0
 11 13  1  0  0  0  0
 11 14  1  0  0  0  0
 14 15  2  0  0  0  0
 14 28  1  0  0  0  0
 15 16  1  0  0  0  0
 15 17  1  0  0  0  0
 17 18  1  0  0  0  0
 17 19  1  0  0  0  0
 19 20  1  0  0  0  0
 19 28  2  0  0  0  0
 20 21  1  0  0  0  0
 20 22  2  0  0  0  0
 22 23  1  0  0  0  0
 22 24  1  0  0  0  0
 24 25  1  0  0  0  0
 24 26  2  0  0  0  0
 26 27  1  0  0  0  0
 26 28  1  0  0  0  0
 29 30  2  0  0  0  0
 29 31  1  0  0  0  0
 31 32  1  0  0  0  0
 31 33  1  0  0  0  0
 33 34  1  0  0  0  0
 33 35  1  0  0  0  0
 33 36  1  0  0  0  0
M  END
$$$$

  -OEChem-01062216103D

 36 37  0     1  0  0  0  0  0999 V2000
   -3.9358   -2.7705   -0.1877 H   0  0  0  0  0  0  0  0  0  0  0  0
   -3.6278   -2.0144   -0.9154 C   0  0  0  0  0  0  0  0  0  0  0  0
   -4.5207   -1.5696   -1.3611 H   0  0  0  0  0  0  0  0  0  0  0  0
   -3.0395   -2.4997   -1.6981 H   0  0  0  0  0  0  0  0  0  0  0  0
   -2.7985   -0.9424   -0.2342 C   0  0  0  0  0  0  0  0  0  0  0  0
   -2.7805   -0.8963    0.9793 O   0  0  0  0  0  0  0  0  0  0  0  0
   -2.2880    0.0858   -0.9945 N   0  0  0  0  0  0  0  0  0  0  0  0
   -2.5458   -0.0245   -1.9722 H   0  0  0  0  0  0  0  0  0  0  0  0
   -1.0009    0.8026   -0.8321 C   0  0  1  0  0  0  0  0  0  0  0  0
   -1.1911    1.6832   -0.2116 H   0  0  0  0  0  0  0  0  0  0  0  0
    0.2479    0.0905   -0.2298 C   0  0  0  0  0  0  0  0  0  0  0  0
    0.4239   -0.8202   -0.8120 H   0  0  0  0  0  0  0  0  0  0  0  0
    1.1243    0.7315   -0.3716 H   0  0  0  0  0  0  0  0  0  0  0  0
    0.2170   -0.3142    1.2219 C   0  0  0  0  0  0  0  0  0  0  0  0
   -0.0847   -1.5430    1.7586 C   0  0  0  0  0  0  0  0  0  0  0  0
   -0.3828   -2.4214    1.1927 H   0  0  0  0  0  0  0  0  0  0  0  0
    0.0359   -1.4454    3.1433 N   0  0  0  0  0  0  0  0  0  0  0  0
   -0.2014   -2.1814    3.8032 H   0  0  0  0  0  0  0  0  0  0  0  0
    0.4047   -0.1608    3.5048 C   0  0  0  0  0  0  0  0  0  0  0  0
    0.6324    0.4247    4.7502 C   0  0  0  0  0  0  0  0  0  0  0  0
    0.5247   -0.1622    5.6555 H   0  0  0  0  0  0  0  0  0  0  0  0
    0.9996    1.7763    4.8130 C   0  0  0  0  0  0  0  0  0  0  0  0
    1.1794    2.2441    5.7761 H   0  0  0  0  0  0  0  0  0  0  0  0
    1.1333    2.5246    3.6331 C   0  0  0  0  0  0  0  0  0  0  0  0
    1.4169    3.5712    3.6850 H   0  0  0  0  0  0  0  0  0  0  0  0
    0.8989    1.9253    2.3869 C   0  0  0  0  0  0  0  0  0  0  0  0
    0.9986    2.5000    1.4728 H   0  0  0  0  0  0  0  0  0  0  0  0
    0.5322    0.5761    2.3334 C   0  0  0  0  0  0  0  0  0  0  0  0
   -0.5709    1.2622   -2.2418 C   0  0  0  0  0  0  0  0  0  0  0  0
   -0.0645    0.4796   -3.0360 O   0  0  0  0  0  0  0  0  0  0  0  0
   -0.9764    2.5009   -2.7045 N   0  0  0  0  0  0  0  0  0  0  0  0
   -1.4689    3.1075   -2.0543 H   0  0  0  0  0  0  0  0  0  0  0  0
   -0.7355    2.9718   -4.0636 C   0  0  0  0  0  0  0  0  0  0  0  0
   -1.2458    2.3292   -4.7887 H   0  0  0  0  0  0  0  0  0  0  0  0
   -1.1114    3.9926   -4.1822 H   0  0  0  0  0  0  0  0  0  0  0  0
    0.3370    2.9716   -4.2853 H   0  0  0  0  0  0  0  0  0  0  0  0
  1  2  1  0  0  0  0
  2  3  1  0  0  0  0
  2  4  1  0  0  0  0
  2  5  1  0  0  0  0
  5  6  2  0  0  0  0
  5  7  1  0  0  0  0
  7  8  1  0  0  0  0
  7  9  1  0  0  0  0
  9 10  1  0  0  0  0
  9 11  1  0  0  0  0
  9 29  1  0  0  0  0
 11 12  1  0  0  0  0
 11 13  1  0  0  0  0
 11 14  1  0  0  0  0
 14 15  2  0  0  0  0
 14 28  1  0  0  0  0
 15 16  1  0  0  0  0
 15 17  1  0  0  0  0
 17 18  1  0  0  0  0
 17 19  1  0  0  0  0
 19 20  1  0  0  0  0
 19 28  2  0  0  0  0
 20 21  1  0  0  0  0
 20 22  2  0  0  0  0
 22 23  1  0  0  0  0
 22 24  1  0  0  0  0
 24 25  1  0  0  0  0
 24 26  2  0  0  0  0
 26 27  1  0  0  0  0
 26 28  1  0  0  0  0
 29 30  2  0  0  0  0
 29 31  1  0  0  0  0
 31 32  1  0  0  0  0
 31 33  1  0  0  0  0
 33 34  1  0  0  0  0
 33 35  1  0  0  0  0
 33 36  1  0  0  0  0
M  END
$$$$

  -OEChem-01062216103D

 36 37  0     1  0  0  0  0  0999 V2000
   -3.9271   -2.7671   -0.1871 H   0  0  0  0  0  0  0  0  0  0  0  0
   -3.6221   -2.0100   -0.9150 C   0  0  0  0  0  0  0  0  0  0  0  0
   -4.5166   -1.5719   -1.3643 H   0  0  0  0  0  0  0  0  0  0  0  0
   -3.0289   -2.4929   -1.6955 H   0  0  0  0  0  0  0  0  0  0  0  0
   -2.8026   -0.9301   -0.2338 C   0  0  0  0  0  0  0  0  0  0  0  0
   -2.7887   -0.8787    0.9798 O   0  0  0  0  0  0  0  0  0  0  0  0
   -2.2896    0.0942   -0.9971 N   0  0  0  0  0  0  0  0  0  0  0  0
   -2.5245   -0.0335   -1.9794 H   0  0  0  0  0  0  0  0  0  0  0  0
   -1.0107    0.8230   -0.8268 C   0  0  1  0  0  0  0  0  0  0  0  0
   -1.2128    1.7039   -0.2104 H   0  0  0  0  0  0  0  0  0  0  0  0
    0.2424    0.1195   -0.2274 C   0  0  0  0  0  0  0  0  0  0  0  0
    0.4290   -0.7840   -0.8174 H   0  0  0  0  0  0  0  0  0  0  0  0
    1.1128    0.7702   -0.3611 H   0  0  0  0  0  0  0  0  0  0  0  0
    0.2095   -0.2949    1.2211 C   0  0  0  0  0  0  0  0  0  0  0  0
   -0.0840   -1.5307    1.7459 C   0  0  0  0  0  0  0  0  0  0  0  0
   -0.3785   -2.4049    1.1715 H   0  0  0  0  0  0  0  0  0  0  0  0
    0.0359   -1.4458    3.1313 N   0  0  0  0  0  0  0  0  0  0  0  0
   -0.2033   -2.1875    3.7841 H   0  0  0  0  0  0  0  0  0  0  0  0
    0.4038   -0.1644    3.5049 C   0  0  0  0  0  0  0  0  0  0  0  0
    0.6350    0.4085    4.7557 C   0  0  0  0  0  0  0  0  0  0  0  0
    0.5282   -0.1868    5.6555 H   0  0  0  0  0  0  0  0  0  0  0  0
    1.0067    1.7584    4.8314 C   0  0  0  0  0  0  0  0  0  0  0  0
    1.1909    2.2158    5.7988 H   0  0  0  0  0  0  0  0  0  0  0  0
    1.1416    2.5174    3.6586 C   0  0  0  0  0  0  0  0  0  0  0  0
    1.4314    3.5618    3.7204 H   0  0  0  0  0  0  0  0  0  0  0  0
    0.9020    1.9312    2.4072 C   0  0  0  0  0  0  0  0  0  0  0  0
    1.0049    2.5142    1.4991 H   0  0  0  0  0  0  0  0  0  0  0  0
    0.5290    0.5843    2.3406 C   0  0  0  0  0  0  0  0  0  0  0  0
   -0.5660    1.2719   -2.2329 C   0  0  0  0  0  0  0  0  0  0  0  0
   -0.3050    0.4394   -3.0930 O   0  0  0  0  0  0  0  0  0  0  0  0
   -0.6949    2.5973   -2.6052 N   0  0  0  0  0  0  0  0  0  0  0  0
   -1.0161    3.2553   -1.9001 H   0  0  0  0  0  0  0  0  0  0  0  0
   -0.4468    3.0798   -3.9586 C   0  0  0  0  0  0  0  0  0  0  0  0
   -1.1625    2.6390   -4.6602 H   0  0  0  0  0  0  0  0  0  0  0  0
   -0.5506    4.1684   -3.9964 H   0  0  0  0  0  0  0  0  0  0  0  0
    0.5675    2.8192   -4.2789 H   0  0  0  0  0  0  0  0  0  0  0  0
  1  2  1  0  0  0  0
  2  3  1  0  0  0  0
  2  4  1  0  0  0  0
  2  5  1  0  0  0  0
  5  6  2  0  0  0  0
  5  7  1  0  0  0  0
  7  8  1  0  0  0  0
  7  9  1  0  0  0  0
  9 10  1  0  0  0  0
  9 11  1  0  0  0  0
  9 29  1  0  0  0  0
 11 12  1  0  0  0  0
 11 13  1  0  0  0  0
 11 14  1  0  0  0  0
 14 15  2  0  0  0  0
 14 28  1  0  0  0  0
 15 16  1  0  0  0  0
 15 17  1  0  0  0  0
 17 18  1  0  0  0  0
 17 19  1  0  0  0  0
 19 20  1  0  0  0  0
 19 28  2  0  0  0  0
 20 21  1  0  0  0  0
 20 22  2  0  0  0  0
 22 23  1  0  0  0  0
 22 24  1  0  0  0  0
 24 25  1  0  0  0  0
 24 26  2  0  0  0  0
 26 27  1  0  0  0  0
 26 28  1  0  0  0  0
 29 30  2  0  0  0  0
 29 31  1  0  0  0  0
 31 32  1  0  0  0  0
 31 33  1  0  0  0  0
 33 34  1  0  0  0  0
 33 35  1  0  0  0  0
 33 36  1  0  0  0  0
M  END
$$$$

  -OEChem-01062216103D

 36 37  0     1  0  0  0  0  0999 V2000
   -3.9299   -2.7559   -0.1736 H   0  0  0  0  0  0  0  0  0  0  0  0
   -3.6265   -2.0000   -0.9034 C   0  0  0  0  0  0  0  0  0  0  0  0
   -4.5219   -1.5627   -1.3521 H   0  0  0  0  0  0  0  0  0  0  0  0
   -3.0343   -2.4836   -1.6841 H   0  0  0  0  0  0  0  0  0  0  0  0
   -2.8060   -0.9189   -0.2259 C   0  0  0  0  0  0  0  0  0  0  0  0
   -2.7867   -0.8671    0.9879 O   0  0  0  0  0  0  0  0  0  0  0  0
   -2.2911    0.1010   -0.9935 N   0  0  0  0  0  0  0  0  0  0  0  0
   -2.5159   -0.0331   -1.9783 H   0  0  0  0  0  0  0  0  0  0  0  0
   -1.0166    0.8366   -0.8233 C   0  0  1  0  0  0  0  0  0  0  0  0
   -1.2232    1.7187   -0.2101 H   0  0  0  0  0  0  0  0  0  0  0  0
    0.2389    0.1342   -0.2307 C   0  0  0  0  0  0  0  0  0  0  0  0
    0.4261   -0.7638   -0.8288 H   0  0  0  0  0  0  0  0  0  0  0  0
    1.1076    0.7877   -0.3613 H   0  0  0  0  0  0  0  0  0  0  0  0
    0.2112   -0.2893    1.2154 C   0  0  0  0  0  0  0  0  0  0  0  0
   -0.0766   -1.5292    1.7336 C   0  0  0  0  0  0  0  0  0  0  0  0
   -0.3705   -2.4011    1.1553 H   0  0  0  0  0  0  0  0  0  0  0  0
    0.0459   -1.4517    3.1193 N   0  0  0  0  0  0  0  0  0  0  0  0
   -0.1902   -2.1978    3.7683 H   0  0  0  0  0  0  0  0  0  0  0  0
    0.4087   -0.1709    3.4997 C   0  0  0  0  0  0  0  0  0  0  0  0
    0.6377    0.3961    4.7535 C   0  0  0  0  0  0  0  0  0  0  0  0
    0.5332   -0.2040    5.6505 H   0  0  0  0  0  0  0  0  0  0  0  0
    1.0032    1.7470    4.8364 C   0  0  0  0  0  0  0  0  0  0  0  0
    1.1842    2.2005    5.8064 H   0  0  0  0  0  0  0  0  0  0  0  0
    1.1345    2.5130    3.6678 C   0  0  0  0  0  0  0  0  0  0  0  0
    1.4186    3.5586    3.7356 H   0  0  0  0  0  0  0  0  0  0  0  0
    0.8966    1.9328    2.4133 C   0  0  0  0  0  0  0  0  0  0  0  0
    0.9946    2.5218    1.5085 H   0  0  0  0  0  0  0  0  0  0  0  0
    0.5296    0.5846    2.3394 C   0  0  0  0  0  0  0  0  0  0  0  0
   -0.5635    1.2770   -2.2295 C   0  0  0  0  0  0  0  0  0  0  0  0
   -0.5329    0.4609   -3.1438 O   0  0  0  0  0  0  0  0  0  0  0  0
   -0.3968    2.6183   -2.5215 N   0  0  0  0  0  0  0  0  0  0  0  0
   -0.5214    3.2849   -1.7647 H   0  0  0  0  0  0  0  0  0  0  0  0
   -0.1131    3.1188   -3.8612 C   0  0  0  0  0  0  0  0  0  0  0  0
   -0.9382    2.8825   -4.5414 H   0  0  0  0  0  0  0  0  0  0  0  0
    0.0169    4.2052   -3.8393 H   0  0  0  0  0  0  0  0  0  0  0  0
    0.8061    2.6695   -4.2520 H   0  0  0  0  0  0  0  0  0  0  0  0
  1  2  1  0  0  0  0
  2  3  1  0  0  0  0
  2  4  1  0  0  0  0
  2  5  1  0  0  0  0
  5  6  2  0  0  0  0
  5  7  1  0  0  0  0
  7  8  1  0  0  0  0
  7  9  1  0  0  0  0
  9 10  1  0  0  0  0
  9 11  1  0  0  0  0
  9 29  1  0  0  0  0
 11 12  1  0  0  0  0
 11 13  1  0  0  0  0
 11 14  1  0  0  0  0
 14 15  2  0  0  0  0
 14 28  1  0  0  0  0
 15 16  1  0  0  0  0
 15 17  1  0  0  0  0
 17 18  1  0  0  0  0
 17 19  1  0  0  0  0
 19 20  1  0  0  0  0
 19 28  2  0  0  0  0
 20 21  1  0  0  0  0
 20 22  2  0  0  0  0
 22 23  1  0  0  0  0
 22 24  1  0  0  0  0
 24 25  1  0  0  0  0
 24 26  2  0  0  0  0
 26 27  1  0  0  0  0
 26 28  1  0  0  0  0
 29 30  2  0  0  0  0
 29 31  1  0  0  0  0
 31 32  1  0  0  0  0
 31 33  1  0  0  0  0
 33 34  1  0  0  0  0
 33 35  1  0  0  0  0
 33 36  1  0  0  0  0
M  END
$$$$

  -OEChem-01062216103D

 36 37  0     1  0  0  0  0  0999 V2000
   -3.9686   -2.7507   -0.1910 H   0  0  0  0  0  0  0  0  0  0  0  0
   -3.6564   -1.9935   -0.9157 C   0  0  0  0  0  0  0  0  0  0  0  0
   -4.5469   -1.5362   -1.3539 H   0  0  0  0  0  0  0  0  0  0  0  0
   -3.0783   -2.4801   -1.7053 H   0  0  0  0  0  0  0  0  0  0  0  0
   -2.8121   -0.9329   -0.2347 C   0  0  0  0  0  0  0  0  0  0  0  0
   -2.7729   -0.9017    0.9791 O   0  0  0  0  0  0  0  0  0  0  0  0
   -2.2905    0.0870   -0.9977 N   0  0  0  0  0  0  0  0  0  0  0  0
   -2.5178   -0.0352   -1.9844 H   0  0  0  0  0  0  0  0  0  0  0  0
   -1.0235    0.8354   -0.8262 C   0  0  1  0  0  0  0  0  0  0  0  0
   -1.2404    1.7194   -0.2195 H   0  0  0  0  0  0  0  0  0  0  0  0
    0.2365    0.1430   -0.2307 C   0  0  0  0  0  0  0  0  0  0  0  0
    0.4299   -0.7529   -0.8299 H   0  0  0  0  0  0  0  0  0  0  0  0
    1.1014    0.8023   -0.3590 H   0  0  0  0  0  0  0  0  0  0  0  0
    0.2131   -0.2818    1.2153 C   0  0  0  0  0  0  0  0  0  0  0  0
   -0.0638   -1.5246    1.7325 C   0  0  0  0  0  0  0  0  0  0  0  0
   -0.3560   -2.3967    1.1537 H   0  0  0  0  0  0  0  0  0  0  0  0
    0.0653   -1.4493    3.1178 N   0  0  0  0  0  0  0  0  0  0  0  0
   -0.1635   -2.1982    3.7662 H   0  0  0  0  0  0  0  0  0  0  0  0
    0.4217   -0.1669    3.4995 C   0  0  0  0  0  0  0  0  0  0  0  0
    0.6536    0.3991    4.7534 C   0  0  0  0  0  0  0  0  0  0  0  0
    0.5587   -0.2035    5.6496 H   0  0  0  0  0  0  0  0  0  0  0  0
    1.0108    1.7522    4.8372 C   0  0  0  0  0  0  0  0  0  0  0  0
    1.1942    2.2052    5.8069 H   0  0  0  0  0  0  0  0  0  0  0  0
    1.1303    2.5215    3.6697 C   0  0  0  0  0  0  0  0  0  0  0  0
    1.4082    3.5687    3.7384 H   0  0  0  0  0  0  0  0  0  0  0  0
    0.8889    1.9426    2.4153 C   0  0  0  0  0  0  0  0  0  0  0  0
    0.9766    2.5351    1.5120 H   0  0  0  0  0  0  0  0  0  0  0  0
    0.5311    0.5921    2.3400 C   0  0  0  0  0  0  0  0  0  0  0  0
   -0.5620    1.2726   -2.2315 C   0  0  0  0  0  0  0  0  0  0  0  0
   -0.7256    0.5246   -3.1899 O   0  0  0  0  0  0  0  0  0  0  0  0
   -0.1088    2.5606   -2.4493 N   0  0  0  0  0  0  0  0  0  0  0  0
   -0.0550    3.1842   -1.6489 H   0  0  0  0  0  0  0  0  0  0  0  0
    0.2376    3.0756   -3.7684 C   0  0  0  0  0  0  0  0  0  0  0  0
   -0.6381    3.0654   -4.4260 H   0  0  0  0  0  0  0  0  0  0  0  0
    0.5988    4.1056   -3.6893 H   0  0  0  0  0  0  0  0  0  0  0  0
    1.0270    2.4671   -4.2222 H   0  0  0  0  0  0  0  0  0  0  0  0
  1  2  1  0  0  0  0
  2  3  1  0  0  0  0
  2  4  1  0  0  0  0
  2  5  1  0  0  0  0
  5  6  2  0  0  0  0
  5  7  1  0  0  0  0
  7  8  1  0  0  0  0
  7  9  1  0  0  0  0
  9 10  1  0  0  0  0
  9 11  1  0  0  0  0
  9 29  1  0  0  0  0
 11 12  1  0  0  0  0
 11 13  1  0  0  0  0
 11 14  1  0  0  0  0
 14 15  2  0  0  0  0
 14 28  1  0  0  0  0
 15 16  1  0  0  0  0
 15 17  1  0  0  0  0
 17 18  1  0  0  0  0
 17 19  1  0  0  0  0
 19 20  1  0  0  0  0
 19 28  2  0  0  0  0
 20 21  1  0  0  0  0
 20 22  2  0  0  0  0
 22 23  1  0  0  0  0
 22 24  1  0  0  0  0
 24 25  1  0  0  0  0
 24 26  2  0  0  0  0
 26 27  1  0  0  0  0
 26 28  1  0  0  0  0
 29 30  2  0  0  0  0
 29 31  1  0  0  0  0
 31 32  1  0  0  0  0
 31 33  1  0  0  0  0
 33 34  1  0  0  0  0
 33 35  1  0  0  0  0
 33 36  1  0  0  0  0
M  END
$$$$

  -OEChem-01062216103D

 36 37  0     1  0  0  0  0  0999 V2000
   -3.9877   -2.7550   -0.2224 H   0  0  0  0  0  0  0  0  0  0  0  0
   -3.6887   -1.9804   -0.9338 C   0  0  0  0  0  0  0  0  0  0  0  0
   -4.5862   -1.5028   -1.3342 H   0  0  0  0  0  0  0  0  0  0  0  0
   -3.1376   -2.4497   -1.7523 H   0  0  0  0  0  0  0  0  0  0  0  0
   -2.8165   -0.9469   -0.2463 C   0  0  0  0  0  0  0  0  0  0  0  0
   -2.7554   -0.9441    0.9668 O   0  0  0  0  0  0  0  0  0  0  0  0
   -2.2862    0.0749   -1.0008 N   0  0  0  0  0  0  0  0  0  0  0  0
   -2.5281   -0.0210   -1.9878 H   0  0  0  0  0  0  0  0  0  0  0  0
   -1.0251    0.8341   -0.8284 C   0  0  1  0  0  0  0  0  0  0  0  0
   -1.2491    1.7195   -0.2262 H   0  0  0  0  0  0  0  0  0  0  0  0
    0.2366    0.1480   -0.2273 C   0  0  0  0  0  0  0  0  0  0  0  0
    0.4333   -0.7475   -0.8260 H   0  0  0  0  0  0  0  0  0  0  0  0
    1.1009    0.8078   -0.3536 H   0  0  0  0  0  0  0  0  0  0  0  0
    0.2178   -0.2775    1.2185 C   0  0  0  0  0  0  0  0  0  0  0  0
   -0.0507   -1.5220    1.7367 C   0  0  0  0  0  0  0  0  0  0  0  0
   -0.3408   -2.3958    1.1592 H   0  0  0  0  0  0  0  0  0  0  0  0
    0.0886   -1.4476    3.1211 N   0  0  0  0  0  0  0  0  0  0  0  0
   -0.1296   -2.1989    3.7704 H   0  0  0  0  0  0  0  0  0  0  0  0
    0.4386   -0.1635    3.5012 C   0  0  0  0  0  0  0  0  0  0  0  0
    0.6760    0.4017    4.7542 C   0  0  0  0  0  0  0  0  0  0  0  0
    0.5940   -0.2045    5.6495 H   0  0  0  0  0  0  0  0  0  0  0  0
    1.0200    1.7581    4.8383 C   0  0  0  0  0  0  0  0  0  0  0  0
    1.2070    2.2100    5.8077 H   0  0  0  0  0  0  0  0  0  0  0  0
    1.1200    2.5314    3.6716 C   0  0  0  0  0  0  0  0  0  0  0  0
    1.3848    3.5820    3.7404 H   0  0  0  0  0  0  0  0  0  0  0  0
    0.8750    1.9525    2.4178 C   0  0  0  0  0  0  0  0  0  0  0  0
    0.9471    2.5480    1.5151 H   0  0  0  0  0  0  0  0  0  0  0  0
    0.5328    0.5980    2.3423 C   0  0  0  0  0  0  0  0  0  0  0  0
   -0.5593    1.2714   -2.2354 C   0  0  0  0  0  0  0  0  0  0  0  0
   -0.9043    0.6322   -3.2249 O   0  0  0  0  0  0  0  0  0  0  0  0
    0.1648    2.4376   -2.4069 N   0  0  0  0  0  0  0  0  0  0  0  0
    0.3970    2.9764   -1.5774 H   0  0  0  0  0  0  0  0  0  0  0  0
    0.5721    2.9436   -3.7122 C   0  0  0  0  0  0  0  0  0  0  0  0
   -0.3051    3.1498   -4.3345 H   0  0  0  0  0  0  0  0  0  0  0  0
    1.1397    3.8721   -3.5973 H   0  0  0  0  0  0  0  0  0  0  0  0
    1.2056    2.2129   -4.2258 H   0  0  0  0  0  0  0  0  0  0  0  0
  1  2  1  0  0  0  0
  2  3  1  0  0  0  0
  2  4  1  0  0  0  0
  2  5  1  0  0  0  0
  5  6  2  0  0  0  0
  5  7  1  0  0  0  0
  7  8  1  0  0  0  0
  7  9  1  0  0  0  0
  9 10  1  0  0  0  0
  9 11  1  0  0  0  0
  9 29  1  0  0  0  0
 11 12  1  0  0  0  0
 11 13  1  0  0  0  0
 11 14  1  0  0  0  0
 14 15  2  0  0  0  0
 14 28  1  0  0  0  0
 15 16  1  0  0  0  0
 15 17  1  0  0  0  0
 17 18  1  0  0  0  0
 17 19  1  0  0  0  0
 19 20  1  0  0  0  0
 19 28  2  0  0  0  0
 20 21  1  0  0  0  0
 20 22  2  0  0  0  0
 22 23  1  0  0  0  0
 22 24  1  0  0  0  0
 24 25  1  0  0  0  0
 24 26  2  0  0  0  0
 26 27  1  0  0  0  0
 26 28  1  0  0  0  0
 29 30  2  0  0  0  0
 29 31  1  0  0  0  0
 31 32  1  0  0  0  0
 31 33  1  0  0  0  0
 33 34  1  0  0  0  0
 33 35  1  0  0  0  0
 33 36  1  0  0  0  0
M  END
$$$$

  -OEChem-01062216103D

 36 37  0     1  0  0  0  0  0999 V2000
   -4.0795   -2.7326   -0.2895 H   0  0  0  0  0  0  0  0  0  0  0  0
   -3.7371   -1.9600   -0.9838 C   0  0  0  0  0  0  0  0  0  0  0  0
   -4.6069   -1.4254   -1.3732 H   0  0  0  0  0  0  0  0  0  0  0  0
   -3.2121   -2.4409   -1.8128 H   0  0  0  0  0  0  0  0  0  0  0  0
   -2.8093   -0.9909   -0.2750 C   0  0  0  0  0  0  0  0  0  0  0  0
   -2.7061   -1.0597    0.9327 O   0  0  0  0  0  0  0  0  0  0  0  0
   -2.2655    0.0439   -1.0026 N   0  0  0  0  0  0  0  0  0  0  0  0
   -2.5452    0.0077   -1.9842 H   0  0  0  0  0  0  0  0  0  0  0  0
   -1.0096    0.8142   -0.8288 C   0  0  1  0  0  0  0  0  0  0  0  0
   -1.2423    1.6982   -0.2278 H   0  0  0  0  0  0  0  0  0  0  0  0
    0.2552    0.1387   -0.2152 C   0  0  0  0  0  0  0  0  0  0  0  0
    0.4578   -0.7590   -0.8087 H   0  0  0  0  0  0  0  0  0  0  0  0
    1.1196    0.7985   -0.3357 H   0  0  0  0  0  0  0  0  0  0  0  0
    0.2380   -0.2796    1.2328 C   0  0  0  0  0  0  0  0  0  0  0  0
   -0.0212   -1.5228    1.7579 C   0  0  0  0  0  0  0  0  0  0  0  0
   -0.3060   -2.4013    1.1850 H   0  0  0  0  0  0  0  0  0  0  0  0
    0.1170   -1.4407    3.1414 N   0  0  0  0  0  0  0  0  0  0  0  0
   -0.1014   -2.1893    3.7938 H   0  0  0  0  0  0  0  0  0  0  0  0
    0.4582   -0.1524    3.5149 C   0  0  0  0  0  0  0  0  0  0  0  0
    0.6918    0.4182    4.7658 C   0  0  0  0  0  0  0  0  0  0  0  0
    0.6157   -0.1861    5.6626 H   0  0  0  0  0  0  0  0  0  0  0  0
    1.0236    1.7778    4.8454 C   0  0  0  0  0  0  0  0  0  0  0  0
    1.2067    2.2347    5.8134 H   0  0  0  0  0  0  0  0  0  0  0  0
    1.1150    2.5488    3.6765 C   0  0  0  0  0  0  0  0  0  0  0  0
    1.3679    3.6025    3.7429 H   0  0  0  0  0  0  0  0  0  0  0  0
    0.8752    1.9639    2.4245 C   0  0  0  0  0  0  0  0  0  0  0  0
    0.9399    2.5596    1.5215 H   0  0  0  0  0  0  0  0  0  0  0  0
    0.5459    0.6053    2.3526 C   0  0  0  0  0  0  0  0  0  0  0  0
   -0.5536    1.2677   -2.2387 C   0  0  0  0  0  0  0  0  0  0  0  0
   -1.0735    0.7852   -3.2414 O   0  0  0  0  0  0  0  0  0  0  0  0
    0.4040    2.2546   -2.3970 N   0  0  0  0  0  0  0  0  0  0  0  0
    0.8063    2.6610   -1.5571 H   0  0  0  0  0  0  0  0  0  0  0  0
    0.8453    2.7457   -3.6969 C   0  0  0  0  0  0  0  0  0  0  0  0
    0.0023    3.1686   -4.2533 H   0  0  0  0  0  0  0  0  0  0  0  0
    1.6008    3.5266   -3.5686 H   0  0  0  0  0  0  0  0  0  0  0  0
    1.2847    1.9332   -4.2850 H   0  0  0  0  0  0  0  0  0  0  0  0
  1  2  1  0  0  0  0
  2  3  1  0  0  0  0
  2  4  1  0  0  0  0
  2  5  1  0  0  0  0
  5  6  2  0  0  0  0
  5  7  1  0  0  0  0
  7  8  1  0  0  0  0
  7  9  1  0  0  0  0
  9 10  1  0  0  0  0
  9 11  1  0  0  0  0
  9 29  1  0  0  0  0
 11 12  1  0  0  0  0
 11 13  1  0  0  0  0
 11 14  1  0  0  0  0
 14 15  2  0  0  0  0
 14 28  1  0  0  0  0
 15 16  1  0  0  0  0
 15 17  1  0  0  0  0
 17 18  1  0  0  0  0
 17 19  1  0  0  0  0
 19 20  1  0  0  0  0
 19 28  2  0  0  0  0
 20 21  1  0  0  0  0
 20 22  2  0  0  0  0
 22 23  1  0  0  0  0
 22 24  1  0  0  0  0
 24 25  1  0  0  0  0
 24 26  2  0  0  0  0
 26 27  1  0  0  0  0
 26 28  1  0  0  0  0
 29 30  2  0  0  0  0
 29 31  1  0  0  0  0
 31 32  1  0  0  0  0
 31 33  1  0  0  0  0
 33 34  1  0  0  0  0
 33 35  1  0  0  0  0
 33 36  1  0  0  0  0
M  END
$$$$

  -OEChem-01062216103D

 36 37  0     1  0  0  0  0  0999 V2000
   -3.9621   -2.6727   -0.0100 H   0  0  0  0  0  0  0  0  0  0  0  0
   -3.7295   -1.8856   -0.7327 C   0  0  0  0  0  0  0  0  0  0  0  0
   -4.6469   -1.3414   -0.9697 H   0  0  0  0  0  0  0  0  0  0  0  0
   -3.3425   -2.3480   -1.6438 H   0  0  0  0  0  0  0  0  0  0  0  0
   -2.6992   -0.9342   -0.1540 C   0  0  0  0  0  0  0  0  0  0  0  0
   -2.4589   -0.9782    1.0369 O   0  0  0  0  0  0  0  0  0  0  0  0
   -2.2058    0.0776   -0.9467 N   0  0  0  0  0  0  0  0  0  0  0  0
   -2.5959    0.0979   -1.8900 H   0  0  0  0  0  0  0  0  0  0  0  0
   -0.9561    0.8617   -0.8229 C   0  0  1  0  0  0  0  0  0  0  0  0
   -1.0746    1.5980   -0.0222 H   0  0  0  0  0  0  0  0  0  0  0  0
    0.3606    0.0564   -0.5900 C   0  0  0  0  0  0  0  0  0  0  0  0
    0.4390   -0.6804   -1.3964 H   0  0  0  0  0  0  0  0  0  0  0  0
    1.2241    0.7206   -0.6820 H   0  0  0  0  0  0  0  0  0  0  0  0
    0.5359   -0.6779    0.7137 C   0  0  0  0  0  0  0  0  0  0  0  0
    0.2954   -2.0080    0.9658 C   0  0  0  0  0  0  0  0  0  0  0  0
   -0.0999   -2.7244    0.2510 H   0  0  0  0  0  0  0  0  0  0  0  0
    0.6334   -2.2578    2.2941 N   0  0  0  0  0  0  0  0  0  0  0  0
    0.4840   -3.1382    2.7803 H   0  0  0  0  0  0  0  0  0  0  0  0
    1.0782   -1.0968    2.9035 C   0  0  0  0  0  0  0  0  0  0  0  0
    1.5078   -0.8401    4.2054 C   0  0  0  0  0  0  0  0  0  0  0  0
    1.5310   -1.6384    4.9386 H   0  0  0  0  0  0  0  0  0  0  0  0
    1.9036    0.4596    4.5506 C   0  0  0  0  0  0  0  0  0  0  0  0
    2.2375    0.6735    5.5615 H   0  0  0  0  0  0  0  0  0  0  0  0
    1.8626    1.4845    3.5927 C   0  0  0  0  0  0  0  0  0  0  0  0
    2.1651    2.4911    3.8647 H   0  0  0  0  0  0  0  0  0  0  0  0
    1.4254    1.2145    2.2876 C   0  0  0  0  0  0  0  0  0  0  0  0
    1.3850    2.0061    1.5485 H   0  0  0  0  0  0  0  0  0  0  0  0
    1.0345   -0.0858    1.9503 C   0  0  0  0  0  0  0  0  0  0  0  0
   -0.7313    1.5943   -2.1741 C   0  0  0  0  0  0  0  0  0  0  0  0
   -1.5114    1.4184   -3.1067 O   0  0  0  0  0  0  0  0  0  0  0  0
    0.3609    2.4199   -2.3838 N   0  0  0  0  0  0  0  0  0  0  0  0
    0.9951    2.5692   -1.6044 H   0  0  0  0  0  0  0  0  0  0  0  0
    0.6116    3.1209   -3.6377 C   0  0  0  0  0  0  0  0  0  0  0  0
   -0.2213    3.7907   -3.8767 H   0  0  0  0  0  0  0  0  0  0  0  0
    1.5242    3.7195   -3.5596 H   0  0  0  0  0  0  0  0  0  0  0  0
    0.7364    2.4067   -4.4583 H   0  0  0  0  0  0  0  0  0  0  0  0
  1  2  1  0  0  0  0
  2  3  1  0  0  0  0
  2  4  1  0  0  0  0
  2  5  1  0  0  0  0
  5  6  2  0  0  0  0
  5  7  1  0  0  0  0
  7  8  1  0  0  0  0
  7  9  1  0  0  0  0
  9 10  1  0  0  0  0
  9 11  1  0  0  0  0
  9 29  1  0  0  0  0
 11 12  1  0  0  0  0
 11 13  1  0  0  0  0
 11 14  1  0  0  0  0
 14 15  2  0  0  0  0
 14 28  1  0  0  0  0
 15 16  1  0  0  0  0
 15 17  1  0  0  0  0
 17 18  1  0  0  0  0
 17 19  1  0  0  0  0
 19 20  1  0  0  0  0
 19 28  2  0  0  0  0
 20 21  1  0  0  0  0
 20 22  2  0  0  0  0
 22 23  1  0  0  0  0
 22 24  1  0  0  0  0
 24 25  1  0  0  0  0
 24 26  2  0  0  0  0
 26 27  1  0  0  0  0
 26 28  1  0  0  0  0
 29 30  2  0  0  0  0
 29 31  1  0  0  0  0
 31 32  1  0  0  0  0
 31 33  1  0  0  0  0
 33 34  1  0  0  0  0
 33 35  1  0  0  0  0
 33 36  1  0  0  0  0
M  END
$$$$

  -OEChem-01062216103D

 36 37  0     1  0  0  0  0  0999 V2000
   -4.0326   -2.6507   -0.1053 H   0  0  0  0  0  0  0  0  0  0  0  0
   -3.7787   -1.8416   -0.7959 C   0  0  0  0  0  0  0  0  0  0  0  0
   -4.6747   -1.2460   -0.9870 H   0  0  0  0  0  0  0  0  0  0  0  0
   -3.4320   -2.2778   -1.7358 H   0  0  0  0  0  0  0  0  0  0  0  0
   -2.6942   -0.9652   -0.1979 C   0  0  0  0  0  0  0  0  0  0  0  0
   -2.4267   -1.0848    0.9812 O   0  0  0  0  0  0  0  0  0  0  0  0
   -2.1776    0.0598   -0.9586 N   0  0  0  0  0  0  0  0  0  0  0  0
   -2.6149    0.1632   -1.8755 H   0  0  0  0  0  0  0  0  0  0  0  0
   -0.9254    0.8401   -0.8229 C   0  0  1  0  0  0  0  0  0  0  0  0
   -1.0511    1.5742   -0.0211 H   0  0  0  0  0  0  0  0  0  0  0  0
    0.3919    0.0395   -0.5690 C   0  0  0  0  0  0  0  0  0  0  0  0
    0.4841   -0.6979   -1.3730 H   0  0  0  0  0  0  0  0  0  0  0  0
    1.2536    0.7069   -0.6448 H   0  0  0  0  0  0  0  0  0  0  0  0
    0.5624   -0.6896    0.7381 C   0  0  0  0  0  0  0  0  0  0  0  0
    0.3286   -2.0198    0.9949 C   0  0  0  0  0  0  0  0  0  0  0  0
   -0.0624   -2.7408    0.2823 H   0  0  0  0  0  0  0  0  0  0  0  0
    0.6645   -2.2627    2.3248 N   0  0  0  0  0  0  0  0  0  0  0  0
    0.5171   -3.1421    2.8132 H   0  0  0  0  0  0  0  0  0  0  0  0
    1.1000   -1.0970    2.9317 C   0  0  0  0  0  0  0  0  0  0  0  0
    1.5234   -0.8328    4.2344 C   0  0  0  0  0  0  0  0  0  0  0  0
    1.5501   -1.6282    4.9706 H   0  0  0  0  0  0  0  0  0  0  0  0
    1.9091    0.4708    4.5765 C   0  0  0  0  0  0  0  0  0  0  0  0
    2.2387    0.6905    5.5876 H   0  0  0  0  0  0  0  0  0  0  0  0
    1.8637    1.4925    3.6155 C   0  0  0  0  0  0  0  0  0  0  0  0
    2.1575    2.5023    3.8856 H   0  0  0  0  0  0  0  0  0  0  0  0
    1.4331    1.2150    2.3097 C   0  0  0  0  0  0  0  0  0  0  0  0
    1.3884    2.0049    1.5686 H   0  0  0  0  0  0  0  0  0  0  0  0
    1.0529   -0.0896    1.9747 C   0  0  0  0  0  0  0  0  0  0  0  0
   -0.7156    1.5871   -2.1737 C   0  0  0  0  0  0  0  0  0  0  0  0
   -1.6243    1.6143   -3.0001 O   0  0  0  0  0  0  0  0  0  0  0  0
    0.4885    2.1731   -2.5317 N   0  0  0  0  0  0  0  0  0  0  0  0
    1.2444    2.1498   -1.8536 H   0  0  0  0  0  0  0  0  0  0  0  0
    0.7152    2.8374   -3.8102 C   0  0  0  0  0  0  0  0  0  0  0  0
    0.0290    3.6823   -3.9306 H   0  0  0  0  0  0  0  0  0  0  0  0
    1.7408    3.2153   -3.8634 H   0  0  0  0  0  0  0  0  0  0  0  0
    0.5624    2.1377   -4.6387 H   0  0  0  0  0  0  0  0  0  0  0  0
  1  2  1  0  0  0  0
  2  3  1  0  0  0  0
  2  4  1  0  0  0  0
  2  5  1  0  0  0  0
  5  6  2  0  0  0  0
  5  7  1  0  0  0  0
  7  8  1  0  0  0  0
  7  9  1  0  0  0  0
  9 10  1  0  0  0  0
  9 11  1  0  0  0  0
  9 29  1  0  0  0  0
 11 12  1  0  0  0  0
 11 13  1  0  0  0  0
 11 14  1  0  0  0  0
 14 15  2  0  0  0  0
 14 28  1  0  0  0  0
 15 16  1  0  0  0  0
 15 17  1  0  0  0  0
 17 18  1  0  0  0  0
 17 19  1  0  0  0  0
 19 20  1  0  0  0  0
 19 28  2  0  0  0  0
 20 21  1  0  0  0  0
 20 22  2  0  0  0  0
 22 23  1  0  0  0  0
 22 24  1  0  0  0  0
 24 25  1  0  0  0  0
 24 26  2  0  0  0  0
 26 27  1  0  0  0  0
 26 28  1  0  0  0  0
 29 30  2  0  0  0  0
 29 31  1  0  0  0  0
 31 32  1  0  0  0  0
 31 33  1  0  0  0  0
 33 34  1  0  0  0  0
 33 35  1  0  0  0  0
 33 36  1  0  0  0  0
M  END
$$$$

  -OEChem-01062216103D

 36 37  0     1  0  0  0  0  0999 V2000
   -4.1556   -2.5920   -0.1888 H   0  0  0  0  0  0  0  0  0  0  0  0
   -3.8546   -1.7810   -0.8578 C   0  0  0  0  0  0  0  0  0  0  0  0
   -4.7071   -1.1147   -1.0092 H   0  0  0  0  0  0  0  0  0  0  0  0
   -3.5597   -2.2091   -1.8187 H   0  0  0  0  0  0  0  0  0  0  0  0
   -2.6951   -1.0093   -0.2561 C   0  0  0  0  0  0  0  0  0  0  0  0
   -2.3811   -1.2355    0.8946 O   0  0  0  0  0  0  0  0  0  0  0  0
   -2.1496    0.0270   -0.9817 N   0  0  0  0  0  0  0  0  0  0  0  0
   -2.6347    0.2234   -1.8583 H   0  0  0  0  0  0  0  0  0  0  0  0
   -0.8904    0.7943   -0.8303 C   0  0  1  0  0  0  0  0  0  0  0  0
   -1.0238    1.5261   -0.0280 H   0  0  0  0  0  0  0  0  0  0  0  0
    0.4303    0.0084   -0.5518 C   0  0  0  0  0  0  0  0  0  0  0  0
    0.5446   -0.7317   -1.3504 H   0  0  0  0  0  0  0  0  0  0  0  0
    1.2819    0.6905   -0.6139 H   0  0  0  0  0  0  0  0  0  0  0  0
    0.5967   -0.7109    0.7611 C   0  0  0  0  0  0  0  0  0  0  0  0
    0.3774   -2.0413    1.0284 C   0  0  0  0  0  0  0  0  0  0  0  0
   -0.0041   -2.7716    0.3200 H   0  0  0  0  0  0  0  0  0  0  0  0
    0.7097   -2.2693    2.3618 N   0  0  0  0  0  0  0  0  0  0  0  0
    0.5675   -3.1459    2.8569 H   0  0  0  0  0  0  0  0  0  0  0  0
    1.1281   -1.0934    2.9608 C   0  0  0  0  0  0  0  0  0  0  0  0
    1.5434   -0.8130    4.2624 C   0  0  0  0  0  0  0  0  0  0  0  0
    1.5791   -1.6025    5.0046 H   0  0  0  0  0  0  0  0  0  0  0  0
    1.9099    0.4987    4.5953 C   0  0  0  0  0  0  0  0  0  0  0  0
    2.2329    0.7310    5.6057 H   0  0  0  0  0  0  0  0  0  0  0  0
    1.8539    1.5119    3.6260 C   0  0  0  0  0  0  0  0  0  0  0  0
    2.1328    2.5276    3.8886 H   0  0  0  0  0  0  0  0  0  0  0  0
    1.4331    1.2179    2.3208 C   0  0  0  0  0  0  0  0  0  0  0  0
    1.3816    2.0012    1.5729 H   0  0  0  0  0  0  0  0  0  0  0  0
    1.0722   -0.0947    1.9954 C   0  0  0  0  0  0  0  0  0  0  0  0
   -0.6914    1.5570   -2.1755 C   0  0  0  0  0  0  0  0  0  0  0  0
   -1.6737    1.8130   -2.8668 O   0  0  0  0  0  0  0  0  0  0  0  0
    0.5503    1.8871   -2.6974 N   0  0  0  0  0  0  0  0  0  0  0  0
    1.3706    1.6563   -2.1451 H   0  0  0  0  0  0  0  0  0  0  0  0
    0.7382    2.5520   -3.9821 C   0  0  0  0  0  0  0  0  0  0  0  0
    0.2294    3.5217   -3.9907 H   0  0  0  0  0  0  0  0  0  0  0  0
    1.8035    2.7198   -4.1677 H   0  0  0  0  0  0  0  0  0  0  0  0
    0.3394    1.9368   -4.7954 H   0  0  0  0  0  0  0  0  0  0  0  0
  1  2  1  0  0  0  0
  2  3  1  0  0  0  0
  2  4  1  0  0  0  0
  2  5  1  0  0  0  0
  5  6  2  0  0  0  0
  5  7  1  0  0  0  0
  7  8  1  0  0  0  0
  7  9  1  0  0  0  0
  9 10  1  0  0  0  0
  9 11  1  0  0  0  0
  9 29  1  0  0  0  0
 11 12  1  0  0  0  0
 11 13  1  0  0  0  0
 11 14  1  0  0  0  0
 14 15  2  0  0  0  0
 14 28  1  0  0  0  0
 15 16  1  0  0  0  0
 15 17  1  0  0  0  0
 17 18  1  0  0  0  0
 17 19  1  0  0  0  0
 19 20  1  0  0  0  0
 19 28  2  0  0  0  0
 20 21  1  0  0  0  0
 20 22  2  0  0  0  0
 22 23  1  0  0  0  0
 22 24  1  0  0  0  0
 24 25  1  0  0  0  0
 24 26  2  0  0  0  0
 26 27  1  0  0  0  0
 26 28  1  0  0  0  0
 29 30  2  0  0  0  0
 29 31  1  0  0  0  0
 31 32  1  0  0  0  0
 31 33  1  0  0  0  0
 33 34  1  0  0  0  0
 33 35  1  0  0  0  0
 33 36  1  0  0  0  0
M  END
$$$$

  -OEChem-01062216103D

 36 37  0     1  0  0  0  0  0999 V2000
   -4.2800   -2.5294   -0.2573 H   0  0  0  0  0  0  0  0  0  0  0  0
   -3.9368   -1.7202   -0.9079 C   0  0  0  0  0  0  0  0  0  0  0  0
   -4.7385   -0.9842   -1.0058 H   0  0  0  0  0  0  0  0  0  0  0  0
   -3.7088   -2.1342   -1.8929 H   0  0  0  0  0  0  0  0  0  0  0  0
   -2.7000   -1.0645   -0.3214 C   0  0  0  0  0  0  0  0  0  0  0  0
   -2.3271   -1.4154    0.7781 O   0  0  0  0  0  0  0  0  0  0  0  0
   -2.1317   -0.0145   -1.0104 N   0  0  0  0  0  0  0  0  0  0  0  0
   -2.6617    0.2734   -1.8333 H   0  0  0  0  0  0  0  0  0  0  0  0
   -0.8667    0.7404   -0.8405 C   0  0  1  0  0  0  0  0  0  0  0  0
   -1.0131    1.4650   -0.0333 H   0  0  0  0  0  0  0  0  0  0  0  0
    0.4630   -0.0204   -0.5416 C   0  0  0  0  0  0  0  0  0  0  0  0
    0.5982   -0.7652   -1.3324 H   0  0  0  0  0  0  0  0  0  0  0  0
    1.2988    0.6825   -0.6044 H   0  0  0  0  0  0  0  0  0  0  0  0
    0.6309   -0.7310    0.7760 C   0  0  0  0  0  0  0  0  0  0  0  0
    0.4358   -2.0628    1.0536 C   0  0  0  0  0  0  0  0  0  0  0  0
    0.0692   -2.8056    0.3499 H   0  0  0  0  0  0  0  0  0  0  0  0
    0.7609   -2.2726    2.3917 N   0  0  0  0  0  0  0  0  0  0  0  0
    0.6259   -3.1464    2.8936 H   0  0  0  0  0  0  0  0  0  0  0  0
    1.1571   -1.0849    2.9826 C   0  0  0  0  0  0  0  0  0  0  0  0
    1.5606   -0.7847    4.2838 C   0  0  0  0  0  0  0  0  0  0  0  0
    1.6027   -1.5654    5.0350 H   0  0  0  0  0  0  0  0  0  0  0  0
    1.9077    0.5353    4.6044 C   0  0  0  0  0  0  0  0  0  0  0  0
    2.2232    0.7826    5.6135 H   0  0  0  0  0  0  0  0  0  0  0  0
    1.8430    1.5371    3.6238 C   0  0  0  0  0  0  0  0  0  0  0  0
    2.1072    2.5594    3.8764 H   0  0  0  0  0  0  0  0  0  0  0  0
    1.4323    1.2236    2.3199 C   0  0  0  0  0  0  0  0  0  0  0  0
    1.3749    1.9977    1.5626 H   0  0  0  0  0  0  0  0  0  0  0  0
    1.0911   -0.0970    2.0070 C   0  0  0  0  0  0  0  0  0  0  0  0
   -0.6716    1.5266   -2.1694 C   0  0  0  0  0  0  0  0  0  0  0  0
   -1.6597    2.0056   -2.7168 O   0  0  0  0  0  0  0  0  0  0  0  0
    0.5340    1.6078   -2.8504 N   0  0  0  0  0  0  0  0  0  0  0  0
    1.3447    1.1654   -2.4277 H   0  0  0  0  0  0  0  0  0  0  0  0
    0.6901    2.2647   -4.1432 C   0  0  0  0  0  0  0  0  0  0  0  0
    0.3959    3.3173   -4.0765 H   0  0  0  0  0  0  0  0  0  0  0  0
    1.7344    2.2186   -4.4669 H   0  0  0  0  0  0  0  0  0  0  0  0
    0.0717    1.7720   -4.9007 H   0  0  0  0  0  0  0  0  0  0  0  0
  1  2  1  0  0  0  0
  2  3  1  0  0  0  0
  2  4  1  0  0  0  0
  2  5  1  0  0  0  0
  5  6  2  0  0  0  0
  5  7  1  0  0  0  0
  7  8  1  0  0  0  0
  7  9  1  0  0  0  0
  9 10  1  0  0  0  0
  9 11  1  0  0  0  0
  9 29  1  0  0  0  0
 11 12  1  0  0  0  0
 11 13  1  0  0  0  0
 11 14  1  0  0  0  0
 14 15  2  0  0  0  0
 14 28  1  0  0  0  0
 15 16  1  0  0  0  0
 15 17  1  0  0  0  0
 17 18  1  0  0  0  0
 17 19  1  0  0  0  0
 19 20  1  0  0  0  0
 19 28  2  0  0  0  0
 20 21  1  0  0  0  0
 20 22  2  0  0  0  0
 22 23  1  0  0  0  0
 22 24  1  0  0  0  0
 24 25  1  0  0  0  0
 24 26  2  0  0  0  0
 26 27  1  0  0  0  0
 26 28  1  0  0  0  0
 29 30  2  0  0  0  0
 29 31  1  0  0  0  0
 31 32  1  0  0  0  0
 31 33  1  0  0  0  0
 33 34  1  0  0  0  0
 33 35  1  0  0  0  0
 33 36  1  0  0  0  0
M  END
$$$$

  -OEChem-01062216103D

 36 37  0     1  0  0  0  0  0999 V2000
   -4.3564   -2.4887   -0.2805 H   0  0  0  0  0  0  0  0  0  0  0  0
   -3.9968   -1.6773   -0.9198 C   0  0  0  0  0  0  0  0  0  0  0  0
   -4.7605   -0.8968   -0.9582 H   0  0  0  0  0  0  0  0  0  0  0  0
   -3.8340   -2.0693   -1.9266 H   0  0  0  0  0  0  0  0  0  0  0  0
   -2.7020   -1.1090   -0.3683 C   0  0  0  0  0  0  0  0  0  0  0  0
   -2.2772   -1.5584    0.6740 O   0  0  0  0  0  0  0  0  0  0  0  0
   -2.1219   -0.0510   -1.0358 N   0  0  0  0  0  0  0  0  0  0  0  0
   -2.6906    0.3068   -1.8027 H   0  0  0  0  0  0  0  0  0  0  0  0
   -0.8494    0.6896   -0.8577 C   0  0  1  0  0  0  0  0  0  0  0  0
   -1.0008    1.4064   -0.0445 H   0  0  0  0  0  0  0  0  0  0  0  0
    0.4863   -0.0542   -0.5460 C   0  0  0  0  0  0  0  0  0  0  0  0
    0.6272   -0.8109   -1.3244 H   0  0  0  0  0  0  0  0  0  0  0  0
    1.3146    0.6574   -0.6249 H   0  0  0  0  0  0  0  0  0  0  0  0
    0.6559   -0.7534    0.7783 C   0  0  0  0  0  0  0  0  0  0  0  0
    0.4757   -2.0840    1.0704 C   0  0  0  0  0  0  0  0  0  0  0  0
    0.1207   -2.8383    0.3729 H   0  0  0  0  0  0  0  0  0  0  0  0
    0.7925   -2.2747    2.4135 N   0  0  0  0  0  0  0  0  0  0  0  0
    0.6667   -3.1450    2.9239 H   0  0  0  0  0  0  0  0  0  0  0  0
    1.1702   -1.0758    2.9930 C   0  0  0  0  0  0  0  0  0  0  0  0
    1.5610   -0.7558    4.2932 C   0  0  0  0  0  0  0  0  0  0  0  0
    1.6064   -1.5271    5.0537 H   0  0  0  0  0  0  0  0  0  0  0  0
    1.8934    0.5711    4.5998 C   0  0  0  0  0  0  0  0  0  0  0  0
    2.1993    0.8340    5.6079 H   0  0  0  0  0  0  0  0  0  0  0  0
    1.8284    1.5597    3.6059 C   0  0  0  0  0  0  0  0  0  0  0  0
    2.0854    2.5867    3.8465 H   0  0  0  0  0  0  0  0  0  0  0  0
    1.4287    1.2270    2.3035 C   0  0  0  0  0  0  0  0  0  0  0  0
    1.3708    1.9910    1.5359 H   0  0  0  0  0  0  0  0  0  0  0  0
    1.1010   -0.1003    2.0050 C   0  0  0  0  0  0  0  0  0  0  0  0
   -0.6514    1.4966   -2.1683 C   0  0  0  0  0  0  0  0  0  0  0  0
   -1.5822    2.1840   -2.5721 O   0  0  0  0  0  0  0  0  0  0  0  0
    0.4442    1.3434   -3.0041 N   0  0  0  0  0  0  0  0  0  0  0  0
    1.1813    0.7127   -2.7028 H   0  0  0  0  0  0  0  0  0  0  0  0
    0.5784    2.0148   -4.2916 C   0  0  0  0  0  0  0  0  0  0  0  0
    0.5189    3.1012   -4.1668 H   0  0  0  0  0  0  0  0  0  0  0  0
    1.5446    1.7728   -4.7446 H   0  0  0  0  0  0  0  0  0  0  0  0
   -0.2142    1.6942   -4.9756 H   0  0  0  0  0  0  0  0  0  0  0  0
  1  2  1  0  0  0  0
  2  3  1  0  0  0  0
  2  4  1  0  0  0  0
  2  5  1  0  0  0  0
  5  6  2  0  0  0  0
  5  7  1  0  0  0  0
  7  8  1  0  0  0  0
  7  9  1  0  0  0  0
  9 10  1  0  0  0  0
  9 11  1  0  0  0  0
  9 29  1  0  0  0  0
 11 12  1  0  0  0  0
 11 13  1  0  0  0  0
 11 14  1  0  0  0  0
 14 15  2  0  0  0  0
 14 28  1  0  0  0  0
 15 16  1  0  0  0  0
 15 17  1  0  0  0  0
 17 18  1  0  0  0  0
 17 19  1  0  0  0  0
 19 20  1  0  0  0  0
 19 28  2  0  0  0  0
 20 21  1  0  0  0  0
 20 22  2  0  0  0  0
 22 23  1  0  0  0  0
 22 24  1  0  0  0  0
 24 25  1  0  0  0  0
 24 26  2  0  0  0  0
 26 27  1  0  0  0  0
 26 28  1  0  0  0  0
 29 30  2  0  0  0  0
 29 31  1  0  0  0  0
 31 32  1  0  0  0  0
 31 33  1  0  0  0  0
 33 34  1  0  0  0  0
 33 35  1  0  0  0  0
 33 36  1  0  0  0  0
M  END
$$$$

  -OEChem-01062216103D

 36 37  0     1  0  0  0  0  0999 V2000
   -4.4548   -2.4211   -0.2539 H   0  0  0  0  0  0  0  0  0  0  0  0
   -4.0715   -1.6250   -0.8985 C   0  0  0  0  0  0  0  0  0  0  0  0
   -4.7727   -0.7873   -0.8736 H   0  0  0  0  0  0  0  0  0  0  0  0
   -4.0019   -2.0041   -1.9207 H   0  0  0  0  0  0  0  0  0  0  0  0
   -2.7043   -1.1732   -0.4187 C   0  0  0  0  0  0  0  0  0  0  0  0
   -2.2117   -1.7521    0.5242 O   0  0  0  0  0  0  0  0  0  0  0  0
   -2.1171   -0.1038   -1.0624 N   0  0  0  0  0  0  0  0  0  0  0  0
   -2.7258    0.3236   -1.7584 H   0  0  0  0  0  0  0  0  0  0  0  0
   -0.8376    0.6243   -0.8780 C   0  0  1  0  0  0  0  0  0  0  0  0
   -0.9963    1.3279   -0.0543 H   0  0  0  0  0  0  0  0  0  0  0  0
    0.5062   -0.0983   -0.5588 C   0  0  0  0  0  0  0  0  0  0  0  0
    0.6546   -0.8628   -1.3274 H   0  0  0  0  0  0  0  0  0  0  0  0
    1.3251    0.6225   -0.6525 H   0  0  0  0  0  0  0  0  0  0  0  0
    0.6817   -0.7868    0.7708 C   0  0  0  0  0  0  0  0  0  0  0  0
    0.5222   -2.1155    1.0826 C   0  0  0  0  0  0  0  0  0  0  0  0
    0.1824   -2.8857    0.3946 H   0  0  0  0  0  0  0  0  0  0  0  0
    0.8334   -2.2807    2.4304 N   0  0  0  0  0  0  0  0  0  0  0  0
    0.7221   -3.1467    2.9513 H   0  0  0  0  0  0  0  0  0  0  0  0
    1.1877   -1.0672    2.9944 C   0  0  0  0  0  0  0  0  0  0  0  0
    1.5647   -0.7191    4.2915 C   0  0  0  0  0  0  0  0  0  0  0  0
    1.6182   -1.4771    5.0647 H   0  0  0  0  0  0  0  0  0  0  0  0
    1.8719    0.6184    4.5785 C   0  0  0  0  0  0  0  0  0  0  0  0
    2.1679    0.9026    5.5838 H   0  0  0  0  0  0  0  0  0  0  0  0
    1.7947    1.5900    3.5688 C   0  0  0  0  0  0  0  0  0  0  0  0
    2.0299    2.6257    3.7942 H   0  0  0  0  0  0  0  0  0  0  0  0
    1.4103    1.2287    2.2695 C   0  0  0  0  0  0  0  0  0  0  0  0
    1.3441    1.9784    1.4888 H   0  0  0  0  0  0  0  0  0  0  0  0
    1.1081   -0.1089    1.9907 C   0  0  0  0  0  0  0  0  0  0  0  0
   -0.6308    1.4616   -2.1620 C   0  0  0  0  0  0  0  0  0  0  0  0
   -1.4328    2.3520   -2.4118 O   0  0  0  0  0  0  0  0  0  0  0  0
    0.2859    1.1162   -3.1421 N   0  0  0  0  0  0  0  0  0  0  0  0
    0.8895    0.3193   -2.9611 H   0  0  0  0  0  0  0  0  0  0  0  0
    0.4122    1.8194   -4.4134 C   0  0  0  0  0  0  0  0  0  0  0  0
    0.5997    2.8854   -4.2460 H   0  0  0  0  0  0  0  0  0  0  0  0
    1.2474    1.4104   -4.9903 H   0  0  0  0  0  0  0  0  0  0  0  0
   -0.5030    1.7106   -5.0046 H   0  0  0  0  0  0  0  0  0  0  0  0
  1  2  1  0  0  0  0
  2  3  1  0  0  0  0
  2  4  1  0  0  0  0
  2  5  1  0  0  0  0
  5  6  2  0  0  0  0
  5  7  1  0  0  0  0
  7  8  1  0  0  0  0
  7  9  1  0  0  0  0
  9 10  1  0  0  0  0
  9 11  1  0  0  0  0
  9 29  1  0  0  0  0
 11 12  1  0  0  0  0
 11 13  1  0  0  0  0
 11 14  1  0  0  0  0
 14 15  2  0  0  0  0
 14 28  1  0  0  0  0
 15 16  1  0  0  0  0
 15 17  1  0  0  0  0
 17 18  1  0  0  0  0
 17 19  1  0  0  0  0
 19 20  1  0  0  0  0
 19 28  2  0  0  0  0
 20 21  1  0  0  0  0
 20 22  2  0  0  0  0
 22 23  1  0  0  0  0
 22 24  1  0  0  0  0
 24 25  1  0  0  0  0
 24 26  2  0  0  0  0
 26 27  1  0  0  0  0
 26 28  1  0  0  0  0
 29 30  2  0  0  0  0
 29 31  1  0  0  0  0
 31 32  1  0  0  0  0
 31 33  1  0  0  0  0
 33 34  1  0  0  0  0
 33 35  1  0  0  0  0
 33 36  1  0  0  0  0
M  END
$$$$

  -OEChem-01062216103D

 36 37  0     1  0  0  0  0  0999 V2000
   -4.4487   -2.4420   -0.2225 H   0  0  0  0  0  0  0  0  0  0  0  0
   -4.0832   -1.6348   -0.8641 C   0  0  0  0  0  0  0  0  0  0  0  0
   -4.7924   -0.8044   -0.8192 H   0  0  0  0  0  0  0  0  0  0  0  0
   -4.0244   -2.0020   -1.8914 H   0  0  0  0  0  0  0  0  0  0  0  0
   -2.7137   -1.1743   -0.3993 C   0  0  0  0  0  0  0  0  0  0  0  0
   -2.2111   -1.7438    0.5437 O   0  0  0  0  0  0  0  0  0  0  0  0
   -2.1330   -0.1109   -1.0592 N   0  0  0  0  0  0  0  0  0  0  0  0
   -2.7504    0.3089   -1.7508 H   0  0  0  0  0  0  0  0  0  0  0  0
   -0.8513    0.6167   -0.8845 C   0  0  1  0  0  0  0  0  0  0  0  0
   -1.0046    1.3228   -0.0617 H   0  0  0  0  0  0  0  0  0  0  0  0
    0.4973   -0.1019   -0.5771 C   0  0  0  0  0  0  0  0  0  0  0  0
    0.6419   -0.8673   -1.3454 H   0  0  0  0  0  0  0  0  0  0  0  0
    1.3135    0.6205   -0.6828 H   0  0  0  0  0  0  0  0  0  0  0  0
    0.6843   -0.7899    0.7516 C   0  0  0  0  0  0  0  0  0  0  0  0
    0.5306   -2.1189    1.0654 C   0  0  0  0  0  0  0  0  0  0  0  0
    0.1939   -2.8921    0.3793 H   0  0  0  0  0  0  0  0  0  0  0  0
    0.8423   -2.2806    2.4136 N   0  0  0  0  0  0  0  0  0  0  0  0
    0.7349   -3.1457    2.9366 H   0  0  0  0  0  0  0  0  0  0  0  0
    1.1888   -1.0644    2.9759 C   0  0  0  0  0  0  0  0  0  0  0  0
    1.5588   -0.7124    4.2739 C   0  0  0  0  0  0  0  0  0  0  0  0
    1.6117   -1.4683    5.0492 H   0  0  0  0  0  0  0  0  0  0  0  0
    1.8601    0.6267    4.5593 C   0  0  0  0  0  0  0  0  0  0  0  0
    2.1497    0.9142    5.5654 H   0  0  0  0  0  0  0  0  0  0  0  0
    1.7855    1.5956    3.5470 C   0  0  0  0  0  0  0  0  0  0  0  0
    2.0191    2.6320    3.7704 H   0  0  0  0  0  0  0  0  0  0  0  0
    1.4054    1.2308    2.2472 C   0  0  0  0  0  0  0  0  0  0  0  0
    1.3393    1.9789    1.4644 H   0  0  0  0  0  0  0  0  0  0  0  0
    1.1076   -0.1083    1.9704 C   0  0  0  0  0  0  0  0  0  0  0  0
   -0.6357    1.4455   -2.1690 C   0  0  0  0  0  0  0  0  0  0  0  0
   -1.2285    2.5077   -2.2962 O   0  0  0  0  0  0  0  0  0  0  0  0
    0.0453    0.9356   -3.2616 N   0  0  0  0  0  0  0  0  0  0  0  0
    0.4747    0.0205   -3.1610 H   0  0  0  0  0  0  0  0  0  0  0  0
    0.1901    1.6478   -4.5255 C   0  0  0  0  0  0  0  0  0  0  0  0
    0.6603    2.6236   -4.3640 H   0  0  0  0  0  0  0  0  0  0  0  0
    0.8180    1.0728   -5.2128 H   0  0  0  0  0  0  0  0  0  0  0  0
   -0.7874    1.8004   -4.9946 H   0  0  0  0  0  0  0  0  0  0  0  0
  1  2  1  0  0  0  0
  2  3  1  0  0  0  0
  2  4  1  0  0  0  0
  2  5  1  0  0  0  0
  5  6  2  0  0  0  0
  5  7  1  0  0  0  0
  7  8  1  0  0  0  0
  7  9  1  0  0  0  0
  9 10  1  0  0  0  0
  9 11  1  0  0  0  0
  9 29  1  0  0  0  0
 11 12  1  0  0  0  0
 11 13  1  0  0  0  0
 11 14  1  0  0  0  0
 14 15  2  0  0  0  0
 14 28  1  0  0  0  0
 15 16  1  0  0  0  0
 15 17  1  0  0  0  0
 17 18  1  0  0  0  0
 17 19  1  0  0  0  0
 19 20  1  0  0  0  0
 19 28  2  0  0  0  0
 20 21  1  0  0  0  0
 20 22  2  0  0  0  0
 22 23  1  0  0  0  0
 22 24  1  0  0  0  0
 24 25  1  0  0  0  0
 24 26  2  0  0  0  0
 26 27  1  0  0  0  0
 26 28  1  0  0  0  0
 29 30  2  0  0  0  0
 29 31  1  0  0  0  0
 31 32  1  0  0  0  0
 31 33  1  0  0  0  0
 33 34  1  0  0  0  0
 33 35  1  0  0  0  0
 33 36  1  0  0  0  0
M  END
$$$$

  -OEChem-01062216103D

 36 37  0     1  0  0  0  0  0999 V2000
   -4.4200   -2.4793   -0.1681 H   0  0  0  0  0  0  0  0  0  0  0  0
   -4.0592   -1.6987   -0.8440 C   0  0  0  0  0  0  0  0  0  0  0  0
   -4.8116   -0.9080   -0.8961 H   0  0  0  0  0  0  0  0  0  0  0  0
   -3.9226   -2.1303   -1.8383 H   0  0  0  0  0  0  0  0  0  0  0  0
   -2.7447   -1.1332   -0.3381 C   0  0  0  0  0  0  0  0  0  0  0  0
   -2.2869   -1.5802    0.6905 O   0  0  0  0  0  0  0  0  0  0  0  0
   -2.1794   -0.0862   -1.0369 N   0  0  0  0  0  0  0  0  0  0  0  0
   -2.7680    0.2507   -1.7945 H   0  0  0  0  0  0  0  0  0  0  0  0
   -0.9045    0.6568   -0.8742 C   0  0  1  0  0  0  0  0  0  0  0  0
   -1.0517    1.3736   -0.0594 H   0  0  0  0  0  0  0  0  0  0  0  0
    0.4448   -0.0663   -0.5874 C   0  0  0  0  0  0  0  0  0  0  0  0
    0.5861   -0.8236   -1.3640 H   0  0  0  0  0  0  0  0  0  0  0  0
    1.2602    0.6571   -0.6934 H   0  0  0  0  0  0  0  0  0  0  0  0
    0.6415   -0.7643    0.7333 C   0  0  0  0  0  0  0  0  0  0  0  0
    0.4851   -2.0962    1.0337 C   0  0  0  0  0  0  0  0  0  0  0  0
    0.1334   -2.8597    0.3448 H   0  0  0  0  0  0  0  0  0  0  0  0
    0.8251   -2.2755    2.3729 N   0  0  0  0  0  0  0  0  0  0  0  0
    0.7251   -3.1459    2.8885 H   0  0  0  0  0  0  0  0  0  0  0  0
    1.1897   -1.0675    2.9426 C   0  0  0  0  0  0  0  0  0  0  0  0
    1.5914   -0.7318    4.2356 C   0  0  0  0  0  0  0  0  0  0  0  0
    1.6607   -1.4971    5.0003 H   0  0  0  0  0  0  0  0  0  0  0  0
    1.9017    0.6034    4.5302 C   0  0  0  0  0  0  0  0  0  0  0  0
    2.2170    0.8777    5.5324 H   0  0  0  0  0  0  0  0  0  0  0  0
    1.8018    1.5854    3.5326 C   0  0  0  0  0  0  0  0  0  0  0  0
    2.0370    2.6196    3.7643 H   0  0  0  0  0  0  0  0  0  0  0  0
    1.3936    1.2365    2.2372 C   0  0  0  0  0  0  0  0  0  0  0  0
    1.3094    1.9937    1.4647 H   0  0  0  0  0  0  0  0  0  0  0  0
    1.0898   -0.0990    1.9511 C   0  0  0  0  0  0  0  0  0  0  0  0
   -0.6739    1.4516   -2.1757 C   0  0  0  0  0  0  0  0  0  0  0  0
   -0.9849    2.6324   -2.2284 O   0  0  0  0  0  0  0  0  0  0  0  0
   -0.2552    0.8205   -3.3348 N   0  0  0  0  0  0  0  0  0  0  0  0
   -0.0128   -0.1640   -3.2692 H   0  0  0  0  0  0  0  0  0  0  0  0
   -0.0494    1.5173   -4.5991 C   0  0  0  0  0  0  0  0  0  0  0  0
    0.7033    2.3045   -4.4846 H   0  0  0  0  0  0  0  0  0  0  0  0
    0.2977    0.8175   -5.3654 H   0  0  0  0  0  0  0  0  0  0  0  0
   -0.9846    1.9707   -4.9442 H   0  0  0  0  0  0  0  0  0  0  0  0
  1  2  1  0  0  0  0
  2  3  1  0  0  0  0
  2  4  1  0  0  0  0
  2  5  1  0  0  0  0
  5  6  2  0  0  0  0
  5  7  1  0  0  0  0
  7  8  1  0  0  0  0
  7  9  1  0  0  0  0
  9 10  1  0  0  0  0
  9 11  1  0  0  0  0
  9 29  1  0  0  0  0
 11 12  1  0  0  0  0
 11 13  1  0  0  0  0
 11 14  1  0  0  0  0
 14 15  2  0  0  0  0
 14 28  1  0  0  0  0
 15 16  1  0  0  0  0
 15 17  1  0  0  0  0
 17 18  1  0  0  0  0
 17 19  1  0  0  0  0
 19 20  1  0  0  0  0
 19 28  2  0  0  0  0
 20 21  1  0  0  0  0
 20 22  2  0  0  0  0
 22 23  1  0  0  0  0
 22 24  1  0  0  0  0
 24 25  1  0  0  0  0
 24 26  2  0  0  0  0
 26 27  1  0  0  0  0
 26 28  1  0  0  0  0
 29 30  2  0  0  0  0
 29 31  1  0  0  0  0
 31 32  1  0  0  0  0
 31 33  1  0  0  0  0
 33 34  1  0  0  0  0
 33 35  1  0  0  0  0
 33 36  1  0  0  0  0
M  END
$$$$

  -OEChem-01062216103D

 36 37  0     1  0  0  0  0  0999 V2000
   -4.3412   -2.5426   -0.0966 H   0  0  0  0  0  0  0  0  0  0  0  0
   -4.0123   -1.7679   -0.7953 C   0  0  0  0  0  0  0  0  0  0  0  0
   -4.8166   -1.0373   -0.9118 H   0  0  0  0  0  0  0  0  0  0  0  0
   -3.8059   -2.2327   -1.7623 H   0  0  0  0  0  0  0  0  0  0  0  0
   -2.7632   -1.0852   -0.2693 C   0  0  0  0  0  0  0  0  0  0  0  0
   -2.3463   -1.4094    0.8213 O   0  0  0  0  0  0  0  0  0  0  0  0
   -2.2241   -0.0521   -1.0082 N   0  0  0  0  0  0  0  0  0  0  0  0
   -2.7838    0.1999   -1.8185 H   0  0  0  0  0  0  0  0  0  0  0  0
   -0.9555    0.7064   -0.8634 C   0  0  1  0  0  0  0  0  0  0  0  0
   -1.0932    1.4313   -0.0539 H   0  0  0  0  0  0  0  0  0  0  0  0
    0.3940   -0.0258   -0.6051 C   0  0  0  0  0  0  0  0  0  0  0  0
    0.5230   -0.7732   -1.3937 H   0  0  0  0  0  0  0  0  0  0  0  0
    1.2112    0.6957   -0.7131 H   0  0  0  0  0  0  0  0  0  0  0  0
    0.6025   -0.7356    0.7075 C   0  0  0  0  0  0  0  0  0  0  0  0
    0.4387   -2.0702    0.9925 C   0  0  0  0  0  0  0  0  0  0  0  0
    0.0762   -2.8228    0.2981 H   0  0  0  0  0  0  0  0  0  0  0  0
    0.7890   -2.2682    2.3265 N   0  0  0  0  0  0  0  0  0  0  0  0
    0.6865   -3.1431    2.8337 H   0  0  0  0  0  0  0  0  0  0  0  0
    1.1710   -1.0701    2.9065 C   0  0  0  0  0  0  0  0  0  0  0  0
    1.5893   -0.7548    4.1994 C   0  0  0  0  0  0  0  0  0  0  0  0
    1.6577   -1.5297    4.9545 H   0  0  0  0  0  0  0  0  0  0  0  0
    1.9189    0.5729    4.5066 C   0  0  0  0  0  0  0  0  0  0  0  0
    2.2460    0.8319    5.5091 H   0  0  0  0  0  0  0  0  0  0  0  0
    1.8238    1.5674    3.5209 C   0  0  0  0  0  0  0  0  0  0  0  0
    2.0780    2.5952    3.7614 H   0  0  0  0  0  0  0  0  0  0  0  0
    1.3966    1.2393    2.2258 C   0  0  0  0  0  0  0  0  0  0  0  0
    1.3147    2.0064    1.4627 H   0  0  0  0  0  0  0  0  0  0  0  0
    1.0717   -0.0887    1.9275 C   0  0  0  0  0  0  0  0  0  0  0  0
   -0.7209    1.4745   -2.1792 C   0  0  0  0  0  0  0  0  0  0  0  0
   -0.7053    2.6963   -2.1849 O   0  0  0  0  0  0  0  0  0  0  0  0
   -0.5954    0.7929   -3.3782 N   0  0  0  0  0  0  0  0  0  0  0  0
   -0.5448   -0.2208   -3.3322 H   0  0  0  0  0  0  0  0  0  0  0  0
   -0.3209    1.4561   -4.6477 C   0  0  0  0  0  0  0  0  0  0  0  0
    0.6363    1.9865   -4.6033 H   0  0  0  0  0  0  0  0  0  0  0  0
   -0.2717    0.7207   -5.4565 H   0  0  0  0  0  0  0  0  0  0  0  0
   -1.1118    2.1757   -4.8845 H   0  0  0  0  0  0  0  0  0  0  0  0
  1  2  1  0  0  0  0
  2  3  1  0  0  0  0
  2  4  1  0  0  0  0
  2  5  1  0  0  0  0
  5  6  2  0  0  0  0
  5  7  1  0  0  0  0
  7  8  1  0  0  0  0
  7  9  1  0  0  0  0
  9 10  1  0  0  0  0
  9 11  1  0  0  0  0
  9 29  1  0  0  0  0
 11 12  1  0  0  0  0
 11 13  1  0  0  0  0
 11 14  1  0  0  0  0
 14 15  2  0  0  0  0
 14 28  1  0  0  0  0
 15 16  1  0  0  0  0
 15 17  1  0  0  0  0
 17 18  1  0  0  0  0
 17 19  1  0  0  0  0
 19 20  1  0  0  0  0
 19 28  2  0  0  0  0
 20 21  1  0  0  0  0
 20 22  2  0  0  0  0
 22 23  1  0  0  0  0
 22 24  1  0  0  0  0
 24 25  1  0  0  0  0
 24 26  2  0  0  0  0
 26 27  1  0  0  0  0
 26 28  1  0  0  0  0
 29 30  2  0  0  0  0
 29 31  1  0  0  0  0
 31 32  1  0  0  0  0
 31 33  1  0  0  0  0
 33 34  1  0  0  0  0
 33 35  1  0  0  0  0
 33 36  1  0  0  0  0
M  END
$$$$

  -OEChem-01062216103D

 36 37  0     1  0  0  0  0  0999 V2000
   -4.2741   -2.5891   -0.0453 H   0  0  0  0  0  0  0  0  0  0  0  0
   -3.9822   -1.8054   -0.7504 C   0  0  0  0  0  0  0  0  0  0  0  0
   -4.8230   -1.1197   -0.8797 H   0  0  0  0  0  0  0  0  0  0  0  0
   -3.7451   -2.2693   -1.7105 H   0  0  0  0  0  0  0  0  0  0  0  0
   -2.7754   -1.0514   -0.2236 C   0  0  0  0  0  0  0  0  0  0  0  0
   -2.3868   -1.2952    0.8984 O   0  0  0  0  0  0  0  0  0  0  0  0
   -2.2548   -0.0291   -0.9902 N   0  0  0  0  0  0  0  0  0  0  0  0
   -2.8043    0.1799   -1.8192 H   0  0  0  0  0  0  0  0  0  0  0  0
   -0.9978    0.7512   -0.8518 C   0  0  1  0  0  0  0  0  0  0  0  0
   -1.1350    1.4836   -0.0491 H   0  0  0  0  0  0  0  0  0  0  0  0
    0.3520    0.0147   -0.6101 C   0  0  0  0  0  0  0  0  0  0  0  0
    0.4754   -0.7232   -1.4087 H   0  0  0  0  0  0  0  0  0  0  0  0
    1.1703    0.7357   -0.7144 H   0  0  0  0  0  0  0  0  0  0  0  0
    0.5671   -0.7072    0.6938 C   0  0  0  0  0  0  0  0  0  0  0  0
    0.4004   -2.0451    0.9613 C   0  0  0  0  0  0  0  0  0  0  0  0
    0.0307   -2.7871    0.2592 H   0  0  0  0  0  0  0  0  0  0  0  0
    0.7655   -2.2634    2.2881 N   0  0  0  0  0  0  0  0  0  0  0  0
    0.6674   -3.1451    2.7842 H   0  0  0  0  0  0  0  0  0  0  0  0
    1.1606   -1.0752    2.8795 C   0  0  0  0  0  0  0  0  0  0  0  0
    1.5980   -0.7804    4.1706 C   0  0  0  0  0  0  0  0  0  0  0  0
    1.6744   -1.5665    4.9130 H   0  0  0  0  0  0  0  0  0  0  0  0
    1.9369    0.5416    4.4921 C   0  0  0  0  0  0  0  0  0  0  0  0
    2.2794    0.7850    5.4933 H   0  0  0  0  0  0  0  0  0  0  0  0
    1.8310    1.5511    3.5226 C   0  0  0  0  0  0  0  0  0  0  0  0
    2.0908    2.5747    3.7746 H   0  0  0  0  0  0  0  0  0  0  0  0
    1.3856    1.2433    2.2288 C   0  0  0  0  0  0  0  0  0  0  0  0
    1.2952    2.0213    1.4778 H   0  0  0  0  0  0  0  0  0  0  0  0
    1.0529   -0.0793    1.9164 C   0  0  0  0  0  0  0  0  0  0  0  0
   -0.7516    1.4969   -2.1785 C   0  0  0  0  0  0  0  0  0  0  0  0
   -0.4590    2.6834   -2.1769 O   0  0  0  0  0  0  0  0  0  0  0  0
   -0.9067    0.8377   -3.3871 N   0  0  0  0  0  0  0  0  0  0  0  0
   -0.9989   -0.1730   -3.3467 H   0  0  0  0  0  0  0  0  0  0  0  0
   -0.6150    1.4614   -4.6726 C   0  0  0  0  0  0  0  0  0  0  0  0
    0.4431    1.7372   -4.7333 H   0  0  0  0  0  0  0  0  0  0  0  0
   -0.8406    0.7680   -5.4886 H   0  0  0  0  0  0  0  0  0  0  0  0
   -1.2225    2.3624   -4.8095 H   0  0  0  0  0  0  0  0  0  0  0  0
  1  2  1  0  0  0  0
  2  3  1  0  0  0  0
  2  4  1  0  0  0  0
  2  5  1  0  0  0  0
  5  6  2  0  0  0  0
  5  7  1  0  0  0  0
  7  8  1  0  0  0  0
  7  9  1  0  0  0  0
  9 10  1  0  0  0  0
  9 11  1  0  0  0  0
  9 29  1  0  0  0  0
 11 12  1  0  0  0  0
 11 13  1  0  0  0  0
 11 14  1  0  0  0  0
 14 15  2  0  0  0  0
 14 28  1  0  0  0  0
 15 16  1  0  0  0  0
 15 17  1  0  0  0  0
 17 18  1  0  0  0  0
 17 19  1  0  0  0  0
 19 20  1  0  0  0  0
 19 28  2  0  0  0  0
 20 21  1  0  0  0  0
 20 22  2  0  0  0  0
 22 23  1  0  0  0  0
 22 24  1  0  0  0  0
 24 25  1  0  0  0  0
 24 26  2  0  0  0  0
 26 27  1  0  0  0  0
 26 28  1  0  0  0  0
 29 30  2  0  0  0  0
 29 31  1  0  0  0  0
 31 32  1  0  0  0  0
 31 33  1  0  0  0  0
 33 34  1  0  0  0  0
 33 35  1  0  0  0  0
 33 36  1  0  0  0  0
M  END
$$$$

  -OEChem-01062216103D

 36 37  0     1  0  0  0  0  0999 V2000
   -4.3059   -2.5802   -0.0218 H   0  0  0  0  0  0  0  0  0  0  0  0
   -4.0023   -1.8052   -0.7317 C   0  0  0  0  0  0  0  0  0  0  0  0
   -4.8305   -1.1039   -0.8601 H   0  0  0  0  0  0  0  0  0  0  0  0
   -3.7796   -2.2774   -1.6913 H   0  0  0  0  0  0  0  0  0  0  0  0
   -2.7774   -1.0735   -0.2146 C   0  0  0  0  0  0  0  0  0  0  0  0
   -2.3779   -1.3323    0.8998 O   0  0  0  0  0  0  0  0  0  0  0  0
   -2.2585   -0.0497   -0.9807 N   0  0  0  0  0  0  0  0  0  0  0  0
   -2.8351    0.1892   -1.7822 H   0  0  0  0  0  0  0  0  0  0  0  0
   -1.0051    0.7396   -0.8475 C   0  0  1  0  0  0  0  0  0  0  0  0
   -1.1435    1.4714   -0.0449 H   0  0  0  0  0  0  0  0  0  0  0  0
    0.3477    0.0053   -0.6092 C   0  0  0  0  0  0  0  0  0  0  0  0
    0.4689   -0.7303   -1.4105 H   0  0  0  0  0  0  0  0  0  0  0  0
    1.1654    0.7268   -0.7140 H   0  0  0  0  0  0  0  0  0  0  0  0
    0.5706   -0.7161    0.6947 C   0  0  0  0  0  0  0  0  0  0  0  0
    0.4096   -2.0540    0.9671 C   0  0  0  0  0  0  0  0  0  0  0  0
    0.0420   -2.7996    0.2676 H   0  0  0  0  0  0  0  0  0  0  0  0
    0.7760   -2.2667    2.2946 N   0  0  0  0  0  0  0  0  0  0  0  0
    0.6827   -3.1474    2.7931 H   0  0  0  0  0  0  0  0  0  0  0  0
    1.1658   -1.0750    2.8826 C   0  0  0  0  0  0  0  0  0  0  0  0
    1.5993   -0.7728    4.1737 C   0  0  0  0  0  0  0  0  0  0  0  0
    1.6751   -1.5553    4.9203 H   0  0  0  0  0  0  0  0  0  0  0  0
    1.9329    0.5520    4.4901 C   0  0  0  0  0  0  0  0  0  0  0  0
    2.2715    0.8011    5.4910 H   0  0  0  0  0  0  0  0  0  0  0  0
    1.8273    1.5564    3.5154 C   0  0  0  0  0  0  0  0  0  0  0  0
    2.0850    2.5818    3.7624 H   0  0  0  0  0  0  0  0  0  0  0  0
    1.3854    1.2413    2.2221 C   0  0  0  0  0  0  0  0  0  0  0  0
    1.2965    2.0148    1.4658 H   0  0  0  0  0  0  0  0  0  0  0  0
    1.0554   -0.0832    1.9153 C   0  0  0  0  0  0  0  0  0  0  0  0
   -0.7550    1.4892   -2.1738 C   0  0  0  0  0  0  0  0  0  0  0  0
   -0.2328    2.5945   -2.1680 O   0  0  0  0  0  0  0  0  0  0  0  0
   -1.1875    0.9548   -3.3777 N   0  0  0  0  0  0  0  0  0  0  0  0
   -1.4312   -0.0309   -3.3730 H   0  0  0  0  0  0  0  0  0  0  0  0
   -0.9327    1.5996   -4.6610 C   0  0  0  0  0  0  0  0  0  0  0  0
    0.1435    1.6559   -4.8547 H   0  0  0  0  0  0  0  0  0  0  0  0
   -1.4028    1.0320   -5.4698 H   0  0  0  0  0  0  0  0  0  0  0  0
   -1.3454    2.6140   -4.6697 H   0  0  0  0  0  0  0  0  0  0  0  0
  1  2  1  0  0  0  0
  2  3  1  0  0  0  0
  2  4  1  0  0  0  0
  2  5  1  0  0  0  0
  5  6  2  0  0  0  0
  5  7  1  0  0  0  0
  7  8  1  0  0  0  0
  7  9  1  0  0  0  0
  9 10  1  0  0  0  0
  9 11  1  0  0  0  0
  9 29  1  0  0  0  0
 11 12  1  0  0  0  0
 11 13  1  0  0  0  0
 11 14  1  0  0  0  0
 14 15  2  0  0  0  0
 14 28  1  0  0  0  0
 15 16  1  0  0  0  0
 15 17  1  0  0  0  0
 17 18  1  0  0  0  0
 17 19  1  0  0  0  0
 19 20  1  0  0  0  0
 19 28  2  0  0  0  0
 20 21  1  0  0  0  0
 20 22  2  0  0  0  0
 22 23  1  0  0  0  0
 22 24  1  0  0  0  0
 24 25  1  0  0  0  0
 24 26  2  0  0  0  0
 26 27  1  0  0  0  0
 26 28  1  0  0  0  0
 29 30  2  0  0  0  0
 29 31  1  0  0  0  0
 31 32  1  0  0  0  0
 31 33  1  0  0  0  0
 33 34  1  0  0  0  0
 33 35  1  0  0  0  0
 33 36  1  0  0  0  0
M  END
$$$$

  -OEChem-01062216103D

 36 37  0     1  0  0  0  0  0999 V2000
   -4.3101   -2.5925    0.0109 H   0  0  0  0  0  0  0  0  0  0  0  0
   -4.0103   -1.8191   -0.7024 C   0  0  0  0  0  0  0  0  0  0  0  0
   -4.8359   -1.1131   -0.8207 H   0  0  0  0  0  0  0  0  0  0  0  0
   -3.8020   -2.2925   -1.6646 H   0  0  0  0  0  0  0  0  0  0  0  0
   -2.7743   -1.0948   -0.2004 C   0  0  0  0  0  0  0  0  0  0  0  0
   -2.3710   -1.3490    0.9135 O   0  0  0  0  0  0  0  0  0  0  0  0
   -2.2616   -0.0710   -0.9713 N   0  0  0  0  0  0  0  0  0  0  0  0
   -2.8697    0.1967   -1.7386 H   0  0  0  0  0  0  0  0  0  0  0  0
   -1.0099    0.7254   -0.8479 C   0  0  1  0  0  0  0  0  0  0  0  0
   -1.1463    1.4578   -0.0455 H   0  0  0  0  0  0  0  0  0  0  0  0
    0.3421   -0.0160   -0.6088 C   0  0  0  0  0  0  0  0  0  0  0  0
    0.4552   -0.7555   -1.4077 H   0  0  0  0  0  0  0  0  0  0  0  0
    1.1668    0.6966   -0.7184 H   0  0  0  0  0  0  0  0  0  0  0  0
    0.5705   -0.7332    0.6966 C   0  0  0  0  0  0  0  0  0  0  0  0
    0.4082   -2.0687    0.9791 C   0  0  0  0  0  0  0  0  0  0  0  0
    0.0390   -2.8185    0.2851 H   0  0  0  0  0  0  0  0  0  0  0  0
    0.7769   -2.2718    2.3080 N   0  0  0  0  0  0  0  0  0  0  0  0
    0.6859   -3.1495    2.8123 H   0  0  0  0  0  0  0  0  0  0  0  0
    1.1672   -1.0756    2.8872 C   0  0  0  0  0  0  0  0  0  0  0  0
    1.6028   -0.7619    4.1752 C   0  0  0  0  0  0  0  0  0  0  0  0
    1.6841   -1.5380    4.9278 H   0  0  0  0  0  0  0  0  0  0  0  0
    1.9310    0.5666    4.4815 C   0  0  0  0  0  0  0  0  0  0  0  0
    2.2688    0.8248    5.4805 H   0  0  0  0  0  0  0  0  0  0  0  0
    1.8202    1.5633    3.4994 C   0  0  0  0  0  0  0  0  0  0  0  0
    2.0736    2.5915    3.7382 H   0  0  0  0  0  0  0  0  0  0  0  0
    1.3790    1.2366    2.2089 C   0  0  0  0  0  0  0  0  0  0  0  0
    1.2864    2.0036    1.4467 H   0  0  0  0  0  0  0  0  0  0  0  0
    1.0540   -0.0914    1.9128 C   0  0  0  0  0  0  0  0  0  0  0  0
   -0.7539    1.4810   -2.1746 C   0  0  0  0  0  0  0  0  0  0  0  0
   -0.0448    2.4777   -2.1856 O   0  0  0  0  0  0  0  0  0  0  0  0
   -1.4251    1.1349   -3.3383 N   0  0  0  0  0  0  0  0  0  0  0  0
   -1.8138    0.1984   -3.3703 H   0  0  0  0  0  0  0  0  0  0  0  0
   -1.2063    1.8283   -4.6035 C   0  0  0  0  0  0  0  0  0  0  0  0
   -0.1645    1.7225   -4.9242 H   0  0  0  0  0  0  0  0  0  0  0  0
   -1.8537    1.4105   -5.3804 H   0  0  0  0  0  0  0  0  0  0  0  0
   -1.4366    2.8944   -4.5029 H   0  0  0  0  0  0  0  0  0  0  0  0
  1  2  1  0  0  0  0
  2  3  1  0  0  0  0
  2  4  1  0  0  0  0
  2  5  1  0  0  0  0
  5  6  2  0  0  0  0
  5  7  1  0  0  0  0
  7  8  1  0  0  0  0
  7  9  1  0  0  0  0
  9 10  1  0  0  0  0
  9 11  1  0  0  0  0
  9 29  1  0  0  0  0
 11 12  1  0  0  0  0
 11 13  1  0  0  0  0
 11 14  1  0  0  0  0
 14 15  2  0  0  0  0
 14 28  1  0  0  0  0
 15 16  1  0  0  0  0
 15 17  1  0  0  0  0
 17 18  1  0  0  0  0
 17 19  1  0  0  0  0
 19 20  1  0  0  0  0
 19 28  2  0  0  0  0
 20 21  1  0  0  0  0
 20 22  2  0  0  0  0
 22 23  1  0  0  0  0
 22 24  1  0  0  0  0
 24 25  1  0  0  0  0
 24 26  2  0  0  0  0
 26 27  1  0  0  0  0
 26 28  1  0  0  0  0
 29 30  2  0  0  0  0
 29 31  1  0  0  0  0
 31 32  1  0  0  0  0
 31 33  1  0  0  0  0
 33 34  1  0  0  0  0
 33 35  1  0  0  0  0
 33 36  1  0  0  0  0
M  END
$$$$

  -OEChem-01062216103D

 36 37  0     1  0  0  0  0  0999 V2000
   -3.6994   -2.7645    0.2799 H   0  0  0  0  0  0  0  0  0  0  0  0
   -3.4983   -2.0744   -0.5446 C   0  0  0  0  0  0  0  0  0  0  0  0
   -4.4503   -1.7334   -0.9583 H   0  0  0  0  0  0  0  0  0  0  0  0
   -2.9393   -2.6062   -1.3181 H   0  0  0  0  0  0  0  0  0  0  0  0
   -2.6953   -0.8886   -0.0442 C   0  0  0  0  0  0  0  0  0  0  0  0
   -2.5843   -0.7034    1.1521 O   0  0  0  0  0  0  0  0  0  0  0  0
   -2.2946    0.0844   -0.9337 N   0  0  0  0  0  0  0  0  0  0  0  0
   -2.5674   -0.1638   -1.8777 H   0  0  0  0  0  0  0  0  0  0  0  0
   -1.0078    0.8268   -0.8741 C   0  0  1  0  0  0  0  0  0  0  0  0
   -1.0675    1.5733   -0.0753 H   0  0  0  0  0  0  0  0  0  0  0  0
    0.2714   -0.0455   -0.6563 C   0  0  0  0  0  0  0  0  0  0  0  0
    0.2955   -0.8048   -1.4442 H   0  0  0  0  0  0  0  0  0  0  0  0
    1.1667    0.5715   -0.7846 H   0  0  0  0  0  0  0  0  0  0  0  0
    0.4337   -0.7472    0.6682 C   0  0  0  0  0  0  0  0  0  0  0  0
    0.1268   -2.0501    0.9848 C   0  0  0  0  0  0  0  0  0  0  0  0
   -0.3027   -2.7818    0.3069 H   0  0  0  0  0  0  0  0  0  0  0  0
    0.4601   -2.2532    2.3223 N   0  0  0  0  0  0  0  0  0  0  0  0
    0.2868   -3.1051    2.8492 H   0  0  0  0  0  0  0  0  0  0  0  0
    0.9704   -1.0890    2.8729 C   0  0  0  0  0  0  0  0  0  0  0  0
    1.4258   -0.7881    4.1567 C   0  0  0  0  0  0  0  0  0  0  0  0
    1.4146   -1.5465    4.9311 H   0  0  0  0  0  0  0  0  0  0  0  0
    1.8942    0.5049    4.4305 C   0  0  0  0  0  0  0  0  0  0  0  0
    2.2512    0.7528    5.4255 H   0  0  0  0  0  0  0  0  0  0  0  0
    1.8995    1.4800    3.4210 C   0  0  0  0  0  0  0  0  0  0  0  0
    2.2600    2.4813    3.6355 H   0  0  0  0  0  0  0  0  0  0  0  0
    1.4368    1.1667    2.1349 C   0  0  0  0  0  0  0  0  0  0  0  0
    1.4352    1.9168    1.3509 H   0  0  0  0  0  0  0  0  0  0  0  0
    0.9728   -0.1262    1.8710 C   0  0  0  0  0  0  0  0  0  0  0  0
   -0.7616    1.5586   -2.2232 C   0  0  0  0  0  0  0  0  0  0  0  0
    0.2668    2.1916   -2.4227 O   0  0  0  0  0  0  0  0  0  0  0  0
   -1.6759    1.4671   -3.2638 N   0  0  0  0  0  0  0  0  0  0  0  0
   -2.6264    1.2351   -2.9970 H   0  0  0  0  0  0  0  0  0  0  0  0
   -1.4873    2.1675   -4.5308 C   0  0  0  0  0  0  0  0  0  0  0  0
   -0.5422    1.8699   -4.9979 H   0  0  0  0  0  0  0  0  0  0  0  0
   -2.3005    1.9250   -5.2216 H   0  0  0  0  0  0  0  0  0  0  0  0
   -1.4756    3.2512   -4.3734 H   0  0  0  0  0  0  0  0  0  0  0  0
  1  2  1  0  0  0  0
  2  3  1  0  0  0  0
  2  4  1  0  0  0  0
  2  5  1  0  0  0  0
  5  6  2  0  0  0  0
  5  7  1  0  0  0  0
  7  8  1  0  0  0  0
  7  9  1  0  0  0  0
  9 10  1  0  0  0  0
  9 11  1  0  0  0  0
  9 29  1  0  0  0  0
 11 12  1  0  0  0  0
 11 13  1  0  0  0  0
 11 14  1  0  0  0  0
 14 15  2  0  0  0  0
 14 28  1  0  0  0  0
 15 16  1  0  0  0  0
 15 17  1  0  0  0  0
 17 18  1  0  0  0  0
 17 19  1  0  0  0  0
 19 20  1  0  0  0  0
 19 28  2  0  0  0  0
 20 21  1  0  0  0  0
 20 22  2  0  0  0  0
 22 23  1  0  0  0  0
 22 24  1  0  0  0  0
 24 25  1  0  0  0  0
 24 26  2  0  0  0  0
 26 27  1  0  0  0  0
 26 28  1  0  0  0  0
 29 30  2  0  0  0  0
 29 31  1  0  0  0  0
 31 32  1  0  0  0  0
 31 33  1  0  0  0  0
 33 34  1  0  0  0  0
 33 35  1  0  0  0  0
 33 36  1  0  0  0  0
M  END
$$$$

  -OEChem-01062216103D

 36 37  0     1  0  0  0  0  0999 V2000
   -3.7242   -2.7565    0.2192 H   0  0  0  0  0  0  0  0  0  0  0  0
   -3.5035   -2.0586   -0.5935 C   0  0  0  0  0  0  0  0  0  0  0  0
   -4.4455   -1.6938   -1.0097 H   0  0  0  0  0  0  0  0  0  0  0  0
   -2.9488   -2.5893   -1.3707 H   0  0  0  0  0  0  0  0  0  0  0  0
   -2.6816   -0.8952   -0.0713 C   0  0  0  0  0  0  0  0  0  0  0  0
   -2.5731   -0.7296    1.1280 O   0  0  0  0  0  0  0  0  0  0  0  0
   -2.2661    0.0864   -0.9440 N   0  0  0  0  0  0  0  0  0  0  0  0
   -2.5496   -0.1313   -1.8943 H   0  0  0  0  0  0  0  0  0  0  0  0
   -0.9745    0.8200   -0.8800 C   0  0  1  0  0  0  0  0  0  0  0  0
   -1.0330    1.5681   -0.0828 H   0  0  0  0  0  0  0  0  0  0  0  0
    0.3026   -0.0530   -0.6515 C   0  0  0  0  0  0  0  0  0  0  0  0
    0.3312   -0.8149   -1.4367 H   0  0  0  0  0  0  0  0  0  0  0  0
    1.1993    0.5633   -0.7735 H   0  0  0  0  0  0  0  0  0  0  0  0
    0.4534   -0.7473    0.6784 C   0  0  0  0  0  0  0  0  0  0  0  0
    0.1396   -2.0482    0.9959 C   0  0  0  0  0  0  0  0  0  0  0  0
   -0.2874   -2.7799    0.3165 H   0  0  0  0  0  0  0  0  0  0  0  0
    0.4588   -2.2482    2.3372 N   0  0  0  0  0  0  0  0  0  0  0  0
    0.2767   -3.0979    2.8646 H   0  0  0  0  0  0  0  0  0  0  0  0
    0.9686   -1.0844    2.8890 C   0  0  0  0  0  0  0  0  0  0  0  0
    1.4115   -0.7831    4.1771 C   0  0  0  0  0  0  0  0  0  0  0  0
    1.3870   -1.5394    4.9532 H   0  0  0  0  0  0  0  0  0  0  0  0
    1.8855    0.5074    4.4524 C   0  0  0  0  0  0  0  0  0  0  0  0
    2.2331    0.7557    5.4506 H   0  0  0  0  0  0  0  0  0  0  0  0
    1.9094    1.4790    3.4399 C   0  0  0  0  0  0  0  0  0  0  0  0
    2.2763    2.4776    3.6556 H   0  0  0  0  0  0  0  0  0  0  0  0
    1.4583    1.1654    2.1494 C   0  0  0  0  0  0  0  0  0  0  0  0
    1.4724    1.9131    1.3633 H   0  0  0  0  0  0  0  0  0  0  0  0
    0.9862   -0.1246    1.8841 C   0  0  0  0  0  0  0  0  0  0  0  0
   -0.7611    1.5518   -2.2363 C   0  0  0  0  0  0  0  0  0  0  0  0
    0.3335    1.9669   -2.5939 O   0  0  0  0  0  0  0  0  0  0  0  0
   -1.8255    1.7059   -3.1132 N   0  0  0  0  0  0  0  0  0  0  0  0
   -2.7497    1.6166   -2.7012 H   0  0  0  0  0  0  0  0  0  0  0  0
   -1.7108    2.4404   -4.3692 C   0  0  0  0  0  0  0  0  0  0  0  0
   -0.9332    2.0005   -5.0027 H   0  0  0  0  0  0  0  0  0  0  0  0
   -2.6582    2.4041   -4.9156 H   0  0  0  0  0  0  0  0  0  0  0  0
   -1.4586    3.4891   -4.1794 H   0  0  0  0  0  0  0  0  0  0  0  0
  1  2  1  0  0  0  0
  2  3  1  0  0  0  0
  2  4  1  0  0  0  0
  2  5  1  0  0  0  0
  5  6  2  0  0  0  0
  5  7  1  0  0  0  0
  7  8  1  0  0  0  0
  7  9  1  0  0  0  0
  9 10  1  0  0  0  0
  9 11  1  0  0  0  0
  9 29  1  0  0  0  0
 11 12  1  0  0  0  0
 11 13  1  0  0  0  0
 11 14  1  0  0  0  0
 14 15  2  0  0  0  0
 14 28  1  0  0  0  0
 15 16  1  0  0  0  0
 15 17  1  0  0  0  0
 17 18  1  0  0  0  0
 17 19  1  0  0  0  0
 19 20  1  0  0  0  0
 19 28  2  0  0  0  0
 20 21  1  0  0  0  0
 20 22  2  0  0  0  0
 22 23  1  0  0  0  0
 22 24  1  0  0  0  0
 24 25  1  0  0  0  0
 24 26  2  0  0  0  0
 26 27  1  0  0  0  0
 26 28  1  0  0  0  0
 29 30  2  0  0  0  0
 29 31  1  0  0  0  0
 31 32  1  0  0  0  0
 31 33  1  0  0  0  0
 33 34  1  0  0  0  0
 33 35  1  0  0  0  0
 33 36  1  0  0  0  0
M  END
$$$$

  -OEChem-01062216103D

 36 37  0     1  0  0  0  0  0999 V2000
   -3.7414   -2.7658    0.1497 H   0  0  0  0  0  0  0  0  0  0  0  0
   -3.5278   -2.0457   -0.6455 C   0  0  0  0  0  0  0  0  0  0  0  0
   -4.4730   -1.6594   -1.0346 H   0  0  0  0  0  0  0  0  0  0  0  0
   -2.9920   -2.5589   -1.4476 H   0  0  0  0  0  0  0  0  0  0  0  0
   -2.6851   -0.9071   -0.1024 C   0  0  0  0  0  0  0  0  0  0  0  0
   -2.5712   -0.7680    1.0998 O   0  0  0  0  0  0  0  0  0  0  0  0
   -2.2557    0.0851   -0.9558 N   0  0  0  0  0  0  0  0  0  0  0  0
   -2.5601   -0.0871   -1.9101 H   0  0  0  0  0  0  0  0  0  0  0  0
   -0.9619    0.8117   -0.8797 C   0  0  1  0  0  0  0  0  0  0  0  0
   -1.0246    1.5577   -0.0811 H   0  0  0  0  0  0  0  0  0  0  0  0
    0.3161   -0.0550   -0.6390 C   0  0  0  0  0  0  0  0  0  0  0  0
    0.3564   -0.8174   -1.4231 H   0  0  0  0  0  0  0  0  0  0  0  0
    1.2081    0.5692   -0.7547 H   0  0  0  0  0  0  0  0  0  0  0  0
    0.4591   -0.7469    0.6931 C   0  0  0  0  0  0  0  0  0  0  0  0
    0.1490   -2.0483    1.0119 C   0  0  0  0  0  0  0  0  0  0  0  0
   -0.2745   -2.7818    0.3321 H   0  0  0  0  0  0  0  0  0  0  0  0
    0.4698   -2.2463    2.3535 N   0  0  0  0  0  0  0  0  0  0  0  0
    0.2911   -3.0966    2.8815 H   0  0  0  0  0  0  0  0  0  0  0  0
    0.9779   -1.0810    2.9035 C   0  0  0  0  0  0  0  0  0  0  0  0
    1.4253   -0.7773    4.1894 C   0  0  0  0  0  0  0  0  0  0  0  0
    1.4071   -1.5338    4.9658 H   0  0  0  0  0  0  0  0  0  0  0  0
    1.8959    0.5153    4.4620 C   0  0  0  0  0  0  0  0  0  0  0  0
    2.2472    0.7656    5.4584 H   0  0  0  0  0  0  0  0  0  0  0  0
    1.9118    1.4866    3.4489 C   0  0  0  0  0  0  0  0  0  0  0  0
    2.2750    2.4872    3.6617 H   0  0  0  0  0  0  0  0  0  0  0  0
    1.4576    1.1698    2.1607 C   0  0  0  0  0  0  0  0  0  0  0  0
    1.4671    1.9166    1.3738 H   0  0  0  0  0  0  0  0  0  0  0  0
    0.9899   -0.1221    1.8982 C   0  0  0  0  0  0  0  0  0  0  0  0
   -0.7651    1.5504   -2.2339 C   0  0  0  0  0  0  0  0  0  0  0  0
    0.3300    1.7239   -2.7531 O   0  0  0  0  0  0  0  0  0  0  0  0
   -1.8837    1.9741   -2.9349 N   0  0  0  0  0  0  0  0  0  0  0  0
   -2.7557    1.9953   -2.4124 H   0  0  0  0  0  0  0  0  0  0  0  0
   -1.8036    2.7337   -4.1780 C   0  0  0  0  0  0  0  0  0  0  0  0
   -1.2704    2.1611   -4.9443 H   0  0  0  0  0  0  0  0  0  0  0  0
   -2.8082    2.9546   -4.5515 H   0  0  0  0  0  0  0  0  0  0  0  0
   -1.2777    3.6806   -4.0164 H   0  0  0  0  0  0  0  0  0  0  0  0
  1  2  1  0  0  0  0
  2  3  1  0  0  0  0
  2  4  1  0  0  0  0
  2  5  1  0  0  0  0
  5  6  2  0  0  0  0
  5  7  1  0  0  0  0
  7  8  1  0  0  0  0
  7  9  1  0  0  0  0
  9 10  1  0  0  0  0
  9 11  1  0  0  0  0
  9 29  1  0  0  0  0
 11 12  1  0  0  0  0
 11 13  1  0  0  0  0
 11 14  1  0  0  0  0
 14 15  2  0  0  0  0
 14 28  1  0  0  0  0
 15 16  1  0  0  0  0
 15 17  1  0  0  0  0
 17 18  1  0  0  0  0
 17 19  1  0  0  0  0
 19 20  1  0  0  0  0
 19 28  2  0  0  0  0
 20 21  1  0  0  0  0
 20 22  2  0  0  0  0
 22 23  1  0  0  0  0
 22 24  1  0  0  0  0
 24 25  1  0  0  0  0
 24 26  2  0  0  0  0
 26 27  1  0  0  0  0
 26 28  1  0  0  0  0
 29 30  2  0  0  0  0
 29 31  1  0  0  0  0
 31 32  1  0  0  0  0
 31 33  1  0  0  0  0
 33 34  1  0  0  0  0
 33 35  1  0  0  0  0
 33 36  1  0  0  0  0
M  END
$$$$

  -OEChem-01062216103D

 36 37  0     1  0  0  0  0  0999 V2000
   -3.7994   -2.7436    0.1179 H   0  0  0  0  0  0  0  0  0  0  0  0
   -3.5667   -2.0212   -0.6698 C   0  0  0  0  0  0  0  0  0  0  0  0
   -4.5013   -1.6003   -1.0485 H   0  0  0  0  0  0  0  0  0  0  0  0
   -3.0523   -2.5419   -1.4811 H   0  0  0  0  0  0  0  0  0  0  0  0
   -2.6847   -0.9160   -0.1192 C   0  0  0  0  0  0  0  0  0  0  0  0
   -2.5479   -0.8059    1.0835 O   0  0  0  0  0  0  0  0  0  0  0  0
   -2.2472    0.0839   -0.9594 N   0  0  0  0  0  0  0  0  0  0  0  0
   -2.5719   -0.0534   -1.9128 H   0  0  0  0  0  0  0  0  0  0  0  0
   -0.9547    0.8092   -0.8764 C   0  0  1  0  0  0  0  0  0  0  0  0
   -1.0212    1.5524   -0.0752 H   0  0  0  0  0  0  0  0  0  0  0  0
    0.3307   -0.0443   -0.6347 C   0  0  0  0  0  0  0  0  0  0  0  0
    0.3781   -0.8080   -1.4175 H   0  0  0  0  0  0  0  0  0  0  0  0
    1.2140    0.5918   -0.7548 H   0  0  0  0  0  0  0  0  0  0  0  0
    0.4788   -0.7374    0.6956 C   0  0  0  0  0  0  0  0  0  0  0  0
    0.1799   -2.0434    1.0054 C   0  0  0  0  0  0  0  0  0  0  0  0
   -0.2355   -2.7760    0.3193 H   0  0  0  0  0  0  0  0  0  0  0  0
    0.4960   -2.2455    2.3474 N   0  0  0  0  0  0  0  0  0  0  0  0
    0.3221   -3.1001    2.8696 H   0  0  0  0  0  0  0  0  0  0  0  0
    0.9917   -1.0791    2.9059 C   0  0  0  0  0  0  0  0  0  0  0  0
    1.4302   -0.7796    4.1959 C   0  0  0  0  0  0  0  0  0  0  0  0
    1.4132   -1.5404    4.9680 H   0  0  0  0  0  0  0  0  0  0  0  0
    1.8918    0.5140    4.4781 C   0  0  0  0  0  0  0  0  0  0  0  0
    2.2370    0.7600    5.4777 H   0  0  0  0  0  0  0  0  0  0  0  0
    1.9077    1.4904    3.4703 C   0  0  0  0  0  0  0  0  0  0  0  0
    2.2652    2.4914    3.6912 H   0  0  0  0  0  0  0  0  0  0  0  0
    1.4612    1.1781    2.1781 C   0  0  0  0  0  0  0  0  0  0  0  0
    1.4700    1.9293    1.3958 H   0  0  0  0  0  0  0  0  0  0  0  0
    1.0018   -0.1147    1.9055 C   0  0  0  0  0  0  0  0  0  0  0  0
   -0.7707    1.5518   -2.2277 C   0  0  0  0  0  0  0  0  0  0  0  0
    0.2498    1.4929   -2.9020 O   0  0  0  0  0  0  0  0  0  0  0  0
   -1.8527    2.2393   -2.7516 N   0  0  0  0  0  0  0  0  0  0  0  0
   -2.6557    2.3584   -2.1390 H   0  0  0  0  0  0  0  0  0  0  0  0
   -1.7916    3.0120   -3.9872 C   0  0  0  0  0  0  0  0  0  0  0  0
   -1.5353    2.3652   -4.8329 H   0  0  0  0  0  0  0  0  0  0  0  0
   -2.7613    3.4765   -4.1907 H   0  0  0  0  0  0  0  0  0  0  0  0
   -1.0386    3.8032   -3.9080 H   0  0  0  0  0  0  0  0  0  0  0  0
  1  2  1  0  0  0  0
  2  3  1  0  0  0  0
  2  4  1  0  0  0  0
  2  5  1  0  0  0  0
  5  6  2  0  0  0  0
  5  7  1  0  0  0  0
  7  8  1  0  0  0  0
  7  9  1  0  0  0  0
  9 10  1  0  0  0  0
  9 11  1  0  0  0  0
  9 29  1  0  0  0  0
 11 12  1  0  0  0  0
 11 13  1  0  0  0  0
 11 14  1  0  0  0  0
 14 15  2  0  0  0  0
 14 28  1  0  0  0  0
 15 16  1  0  0  0  0
 15 17  1  0  0  0  0
 17 18  1  0  0  0  0
 17 19  1  0  0  0  0
 19 20  1  0  0  0  0
 19 28  2  0  0  0  0
 20 21  1  0  0  0  0
 20 22  2  0  0  0  0
 22 23  1  0  0  0  0
 22 24  1  0  0  0  0
 24 25  1  0  0  0  0
 24 26  2  0  0  0  0
 26 27  1  0  0  0  0
 26 28  1  0  0  0  0
 29 30  2  0  0  0  0
 29 31  1  0  0  0  0
 31 32  1  0  0  0  0
 31 33  1  0  0  0  0
 33 34  1  0  0  0  0
 33 35  1  0  0  0  0
 33 36  1  0  0  0  0
M  END
$$$$

  -OEChem-01062216103D

 36 37  0     1  0  0  0  0  0999 V2000
   -3.7474   -2.7880    0.0491 H   0  0  0  0  0  0  0  0  0  0  0  0
   -3.5987   -1.9985   -0.6931 C   0  0  0  0  0  0  0  0  0  0  0  0
   -4.5699   -1.5699   -0.9518 H   0  0  0  0  0  0  0  0  0  0  0  0
   -3.1512   -2.4389   -1.5873 H   0  0  0  0  0  0  0  0  0  0  0  0
   -2.6901   -0.9211   -0.1315 C   0  0  0  0  0  0  0  0  0  0  0  0
   -2.5360   -0.8405    1.0715 O   0  0  0  0  0  0  0  0  0  0  0  0
   -2.2461    0.0870   -0.9584 N   0  0  0  0  0  0  0  0  0  0  0  0
   -2.5807   -0.0257   -1.9117 H   0  0  0  0  0  0  0  0  0  0  0  0
   -0.9557    0.8114   -0.8659 C   0  0  1  0  0  0  0  0  0  0  0  0
   -1.0273    1.5467   -0.0581 H   0  0  0  0  0  0  0  0  0  0  0  0
    0.3366   -0.0298   -0.6258 C   0  0  0  0  0  0  0  0  0  0  0  0
    0.3901   -0.7946   -1.4073 H   0  0  0  0  0  0  0  0  0  0  0  0
    1.2122    0.6161   -0.7511 H   0  0  0  0  0  0  0  0  0  0  0  0
    0.4877   -0.7276    0.7013 C   0  0  0  0  0  0  0  0  0  0  0  0
    0.2002   -2.0379    1.0025 C   0  0  0  0  0  0  0  0  0  0  0  0
   -0.2094   -2.7688    0.3110 H   0  0  0  0  0  0  0  0  0  0  0  0
    0.5162   -2.2454    2.3435 N   0  0  0  0  0  0  0  0  0  0  0  0
    0.3485   -3.1049    2.8597 H   0  0  0  0  0  0  0  0  0  0  0  0
    1.0030   -1.0787    2.9093 C   0  0  0  0  0  0  0  0  0  0  0  0
    1.4402   -0.7838    4.2008 C   0  0  0  0  0  0  0  0  0  0  0  0
    1.4272   -1.5491    4.9685 H   0  0  0  0  0  0  0  0  0  0  0  0
    1.8952    0.5106    4.4900 C   0  0  0  0  0  0  0  0  0  0  0  0
    2.2398    0.7528    5.4908 H   0  0  0  0  0  0  0  0  0  0  0  0
    1.9048    1.4930    3.4878 C   0  0  0  0  0  0  0  0  0  0  0  0
    2.2585    2.4941    3.7138 H   0  0  0  0  0  0  0  0  0  0  0  0
    1.4572    1.1862    2.1946 C   0  0  0  0  0  0  0  0  0  0  0  0
    1.4609    1.9419    1.4167 H   0  0  0  0  0  0  0  0  0  0  0  0
    1.0056   -0.1079    1.9150 C   0  0  0  0  0  0  0  0  0  0  0  0
   -0.7714    1.5633   -2.2082 C   0  0  0  0  0  0  0  0  0  0  0  0
    0.1008    1.2847   -3.0218 O   0  0  0  0  0  0  0  0  0  0  0  0
   -1.7246    2.4983   -2.5712 N   0  0  0  0  0  0  0  0  0  0  0  0
   -2.4314    2.7312   -1.8780 H   0  0  0  0  0  0  0  0  0  0  0  0
   -1.6757    3.2596   -3.8142 C   0  0  0  0  0  0  0  0  0  0  0  0
   -1.7035    2.5876   -4.6785 H   0  0  0  0  0  0  0  0  0  0  0  0
   -2.5331    3.9365   -3.8771 H   0  0  0  0  0  0  0  0  0  0  0  0
   -0.7589    3.8568   -3.8617 H   0  0  0  0  0  0  0  0  0  0  0  0
  1  2  1  0  0  0  0
  2  3  1  0  0  0  0
  2  4  1  0  0  0  0
  2  5  1  0  0  0  0
  5  6  2  0  0  0  0
  5  7  1  0  0  0  0
  7  8  1  0  0  0  0
  7  9  1  0  0  0  0
  9 10  1  0  0  0  0
  9 11  1  0  0  0  0
  9 29  1  0  0  0  0
 11 12  1  0  0  0  0
 11 13  1  0  0  0  0
 11 14  1  0  0  0  0
 14 15  2  0  0  0  0
 14 28  1  0  0  0  0
 15 16  1  0  0  0  0
 15 17  1  0  0  0  0
 17 18  1  0  0  0  0
 17 19  1  0  0  0  0
 19 20  1  0  0  0  0
 19 28  2  0  0  0  0
 20 21  1  0  0  0  0
 20 22  2  0  0  0  0
 22 23  1  0  0  0  0
 22 24  1  0  0  0  0
 24 25  1  0  0  0  0
 24 26  2  0  0  0  0
 26 27  1  0  0  0  0
 26 28  1  0  0  0  0
 29 30  2  0  0  0  0
 29 31  1  0  0  0  0
 31 32  1  0  0  0  0
 31 33  1  0  0  0  0
 33 34  1  0  0  0  0
 33 35  1  0  0  0  0
 33 36  1  0  0  0  0
M  END
$$$$

  -OEChem-01062216103D

 36 37  0     1  0  0  0  0  0999 V2000
   -3.8157   -2.7221    0.0941 H   0  0  0  0  0  0  0  0  0  0  0  0
   -3.5862   -1.9852   -0.6809 C   0  0  0  0  0  0  0  0  0  0  0  0
   -4.5209   -1.5458   -1.0374 H   0  0  0  0  0  0  0  0  0  0  0  0
   -3.0886   -2.4925   -1.5109 H   0  0  0  0  0  0  0  0  0  0  0  0
   -2.6856   -0.9012   -0.1194 C   0  0  0  0  0  0  0  0  0  0  0  0
   -2.5271   -0.8209    1.0835 O   0  0  0  0  0  0  0  0  0  0  0  0
   -2.2450    0.1076   -0.9469 N   0  0  0  0  0  0  0  0  0  0  0  0
   -2.5714   -0.0115   -1.9025 H   0  0  0  0  0  0  0  0  0  0  0  0
   -0.9562    0.8310   -0.8520 C   0  0  1  0  0  0  0  0  0  0  0  0
   -1.0252    1.5600   -0.0386 H   0  0  0  0  0  0  0  0  0  0  0  0
    0.3390   -0.0081   -0.6265 C   0  0  0  0  0  0  0  0  0  0  0  0
    0.3881   -0.7694   -1.4119 H   0  0  0  0  0  0  0  0  0  0  0  0
    1.2114    0.6409   -0.7566 H   0  0  0  0  0  0  0  0  0  0  0  0
    0.4959   -0.7178    0.6936 C   0  0  0  0  0  0  0  0  0  0  0  0
    0.2119   -2.0319    0.9816 C   0  0  0  0  0  0  0  0  0  0  0  0
   -0.1956   -2.7575    0.2832 H   0  0  0  0  0  0  0  0  0  0  0  0
    0.5282   -2.2518    2.3205 N   0  0  0  0  0  0  0  0  0  0  0  0
    0.3617   -3.1165    2.8285 H   0  0  0  0  0  0  0  0  0  0  0  0
    1.0082   -1.0884    2.8988 C   0  0  0  0  0  0  0  0  0  0  0  0
    1.4397   -0.8047    4.1948 C   0  0  0  0  0  0  0  0  0  0  0  0
    1.4291   -1.5782    4.9545 H   0  0  0  0  0  0  0  0  0  0  0  0
    1.8850    0.4894    4.4992 C   0  0  0  0  0  0  0  0  0  0  0  0
    2.2249    0.7226    5.5037 H   0  0  0  0  0  0  0  0  0  0  0  0
    1.8903    1.4828    3.5079 C   0  0  0  0  0  0  0  0  0  0  0  0
    2.2348    2.4842    3.7469 H   0  0  0  0  0  0  0  0  0  0  0  0
    1.4495    1.1868    2.2095 C   0  0  0  0  0  0  0  0  0  0  0  0
    1.4492    1.9514    1.4402 H   0  0  0  0  0  0  0  0  0  0  0  0
    1.0081   -0.1074    1.9143 C   0  0  0  0  0  0  0  0  0  0  0  0
   -0.7664    1.5853   -2.1887 C   0  0  0  0  0  0  0  0  0  0  0  0
   -0.1098    1.1277   -3.1159 O   0  0  0  0  0  0  0  0  0  0  0  0
   -1.5144    2.7261   -2.4155 N   0  0  0  0  0  0  0  0  0  0  0  0
   -2.1079    3.0526   -1.6572 H   0  0  0  0  0  0  0  0  0  0  0  0
   -1.4910    3.4732   -3.6674 C   0  0  0  0  0  0  0  0  0  0  0  0
   -1.8463    2.8493   -4.4942 H   0  0  0  0  0  0  0  0  0  0  0  0
   -2.1390    4.3521   -3.5949 H   0  0  0  0  0  0  0  0  0  0  0  0
   -0.4742    3.8120   -3.8926 H   0  0  0  0  0  0  0  0  0  0  0  0
  1  2  1  0  0  0  0
  2  3  1  0  0  0  0
  2  4  1  0  0  0  0
  2  5  1  0  0  0  0
  5  6  2  0  0  0  0
  5  7  1  0  0  0  0
  7  8  1  0  0  0  0
  7  9  1  0  0  0  0
  9 10  1  0  0  0  0
  9 11  1  0  0  0  0
  9 29  1  0  0  0  0
 11 12  1  0  0  0  0
 11 13  1  0  0  0  0
 11 14  1  0  0  0  0
 14 15  2  0  0  0  0
 14 28  1  0  0  0  0
 15 16  1  0  0  0  0
 15 17  1  0  0  0  0
 17 18  1  0  0  0  0
 17 19  1  0  0  0  0
 19 20  1  0  0  0  0
 19 28  2  0  0  0  0
 20 21  1  0  0  0  0
 20 22  2  0  0  0  0
 22 23  1  0  0  0  0
 22 24  1  0  0  0  0
 24 25  1  0  0  0  0
 24 26  2  0  0  0  0
 26 27  1  0  0  0  0
 26 28  1  0  0  0  0
 29 30  2  0  0  0  0
 29 31  1  0  0  0  0
 31 32  1  0  0  0  0
 31 33  1  0  0  0  0
 33 34  1  0  0  0  0
 33 35  1  0  0  0  0
 33 36  1  0  0  0  0
M  END
$$$$

  -OEChem-01062216103D

 36 37  0     1  0  0  0  0  0999 V2000
   -3.8046   -2.7203    0.0847 H   0  0  0  0  0  0  0  0  0  0  0  0
   -3.5810   -1.9792   -0.6878 C   0  0  0  0  0  0  0  0  0  0  0  0
   -4.5194   -1.5509   -1.0479 H   0  0  0  0  0  0  0  0  0  0  0  0
   -3.0735   -2.4786   -1.5166 H   0  0  0  0  0  0  0  0  0  0  0  0
   -2.6957   -0.8861   -0.1197 C   0  0  0  0  0  0  0  0  0  0  0  0
   -2.5424   -0.8057    1.0841 O   0  0  0  0  0  0  0  0  0  0  0  0
   -2.2504    0.1210   -0.9462 N   0  0  0  0  0  0  0  0  0  0  0  0
   -2.5557   -0.0086   -1.9081 H   0  0  0  0  0  0  0  0  0  0  0  0
   -0.9671    0.8491   -0.8373 C   0  0  1  0  0  0  0  0  0  0  0  0
   -1.0462    1.5739   -0.0212 H   0  0  0  0  0  0  0  0  0  0  0  0
    0.3314    0.0185   -0.6130 C   0  0  0  0  0  0  0  0  0  0  0  0
    0.3897   -0.7365   -1.4039 H   0  0  0  0  0  0  0  0  0  0  0  0
    1.1999    0.6742   -0.7355 H   0  0  0  0  0  0  0  0  0  0  0  0
    0.4852   -0.7014    0.7015 C   0  0  0  0  0  0  0  0  0  0  0  0
    0.2080   -2.0197    0.9758 C   0  0  0  0  0  0  0  0  0  0  0  0
   -0.1979   -2.7394    0.2703 H   0  0  0  0  0  0  0  0  0  0  0  0
    0.5323   -2.2530    2.3108 N   0  0  0  0  0  0  0  0  0  0  0  0
    0.3725   -3.1241    2.8099 H   0  0  0  0  0  0  0  0  0  0  0  0
    1.0132   -1.0949    2.8991 C   0  0  0  0  0  0  0  0  0  0  0  0
    1.4548   -0.8247    4.1947 C   0  0  0  0  0  0  0  0  0  0  0  0
    1.4548   -1.6069    4.9453 H   0  0  0  0  0  0  0  0  0  0  0  0
    1.8968    0.4679    4.5110 C   0  0  0  0  0  0  0  0  0  0  0  0
    2.2434    0.6915    5.5154 H   0  0  0  0  0  0  0  0  0  0  0  0
    1.8905    1.4727    3.5314 C   0  0  0  0  0  0  0  0  0  0  0  0
    2.2326    2.4726    3.7795 H   0  0  0  0  0  0  0  0  0  0  0  0
    1.4415    1.1898    2.2332 C   0  0  0  0  0  0  0  0  0  0  0  0
    1.4331    1.9638    1.4737 H   0  0  0  0  0  0  0  0  0  0  0  0
    1.0025   -0.1026    1.9261 C   0  0  0  0  0  0  0  0  0  0  0  0
   -0.7574    1.6001   -2.1698 C   0  0  0  0  0  0  0  0  0  0  0  0
   -0.3577    1.0192   -3.1717 O   0  0  0  0  0  0  0  0  0  0  0  0
   -1.2450    2.8870   -2.3033 N   0  0  0  0  0  0  0  0  0  0  0  0
   -1.6737    3.3118   -1.4852 H   0  0  0  0  0  0  0  0  0  0  0  0
   -1.2311    3.6291   -3.5583 C   0  0  0  0  0  0  0  0  0  0  0  0
   -1.8638    3.1354   -4.3032 H   0  0  0  0  0  0  0  0  0  0  0  0
   -1.6085    4.6441   -3.4010 H   0  0  0  0  0  0  0  0  0  0  0  0
   -0.2114    3.6985   -3.9519 H   0  0  0  0  0  0  0  0  0  0  0  0
  1  2  1  0  0  0  0
  2  3  1  0  0  0  0
  2  4  1  0  0  0  0
  2  5  1  0  0  0  0
  5  6  2  0  0  0  0
  5  7  1  0  0  0  0
  7  8  1  0  0  0  0
  7  9  1  0  0  0  0
  9 10  1  0  0  0  0
  9 11  1  0  0  0  0
  9 29  1  0  0  0  0
 11 12  1  0  0  0  0
 11 13  1  0  0  0  0
 11 14  1  0  0  0  0
 14 15  2  0  0  0  0
 14 28  1  0  0  0  0
 15 16  1  0  0  0  0
 15 17  1  0  0  0  0
 17 18  1  0  0  0  0
 17 19  1  0  0  0  0
 19 20  1  0  0  0  0
 19 28  2  0  0  0  0
 20 21  1  0  0  0  0
 20 22  2  0  0  0  0
 22 23  1  0  0  0  0
 22 24  1  0  0  0  0
 24 25  1  0  0  0  0
 24 26  2  0  0  0  0
 26 27  1  0  0  0  0
 26 28  1  0  0  0  0
 29 30  2  0  0  0  0
 29 31  1  0  0  0  0
 31 32  1  0  0  0  0
 31 33  1  0  0  0  0
 33 34  1  0  0  0  0
 33 35  1  0  0  0  0
 33 36  1  0  0  0  0
M  END
$$$$

  -OEChem-01062216103D

 36 37  0     1  0  0  0  0  0999 V2000
   -3.8201   -2.6919    0.1088 H   0  0  0  0  0  0  0  0  0  0  0  0
   -3.5888   -1.9583   -0.6685 C   0  0  0  0  0  0  0  0  0  0  0  0
   -4.5228   -1.5218   -1.0306 H   0  0  0  0  0  0  0  0  0  0  0  0
   -3.0876   -2.4685   -1.4945 H   0  0  0  0  0  0  0  0  0  0  0  0
   -2.6910   -0.8714   -0.1085 C   0  0  0  0  0  0  0  0  0  0  0  0
   -2.5262   -0.7924    1.0941 O   0  0  0  0  0  0  0  0  0  0  0  0
   -2.2412    0.1299   -0.9391 N   0  0  0  0  0  0  0  0  0  0  0  0
   -2.5380   -0.0013   -1.9042 H   0  0  0  0  0  0  0  0  0  0  0  0
   -0.9630    0.8635   -0.8251 C   0  0  1  0  0  0  0  0  0  0  0  0
   -1.0473    1.5882   -0.0095 H   0  0  0  0  0  0  0  0  0  0  0  0
    0.3402    0.0396   -0.6122 C   0  0  0  0  0  0  0  0  0  0  0  0
    0.4038   -0.7052   -1.4125 H   0  0  0  0  0  0  0  0  0  0  0  0
    1.2042    0.7024   -0.7260 H   0  0  0  0  0  0  0  0  0  0  0  0
    0.4983   -0.6921    0.6946 C   0  0  0  0  0  0  0  0  0  0  0  0
    0.2280   -2.0148    0.9543 C   0  0  0  0  0  0  0  0  0  0  0  0
   -0.1719   -2.7297    0.2402 H   0  0  0  0  0  0  0  0  0  0  0  0
    0.5468   -2.2592    2.2886 N   0  0  0  0  0  0  0  0  0  0  0  0
    0.3881   -3.1356    2.7788 H   0  0  0  0  0  0  0  0  0  0  0  0
    1.0155   -1.1033    2.8909 C   0  0  0  0  0  0  0  0  0  0  0  0
    1.4454   -0.8429    4.1923 C   0  0  0  0  0  0  0  0  0  0  0  0
    1.4422   -1.6323    4.9353 H   0  0  0  0  0  0  0  0  0  0  0  0
    1.8799    0.4485    4.5231 C   0  0  0  0  0  0  0  0  0  0  0  0
    2.2185    0.6643    5.5318 H   0  0  0  0  0  0  0  0  0  0  0  0
    1.8762    1.4620    3.5523 C   0  0  0  0  0  0  0  0  0  0  0  0
    2.2126    2.4611    3.8115 H   0  0  0  0  0  0  0  0  0  0  0  0
    1.4365    1.1893    2.2488 C   0  0  0  0  0  0  0  0  0  0  0  0
    1.4294    1.9699    1.4963 H   0  0  0  0  0  0  0  0  0  0  0  0
    1.0056   -0.1021    1.9271 C   0  0  0  0  0  0  0  0  0  0  0  0
   -0.7444    1.6019   -2.1607 C   0  0  0  0  0  0  0  0  0  0  0  0
   -0.5984    0.9703   -3.2010 O   0  0  0  0  0  0  0  0  0  0  0  0
   -0.9430    2.9683   -2.2312 N   0  0  0  0  0  0  0  0  0  0  0  0
   -1.1878    3.4512   -1.3710 H   0  0  0  0  0  0  0  0  0  0  0  0
   -0.9274    3.7197   -3.4804 C   0  0  0  0  0  0  0  0  0  0  0  0
   -1.7355    3.3852   -4.1393 H   0  0  0  0  0  0  0  0  0  0  0  0
   -1.0626    4.7871   -3.2807 H   0  0  0  0  0  0  0  0  0  0  0  0
    0.0285    3.5844   -3.9973 H   0  0  0  0  0  0  0  0  0  0  0  0
  1  2  1  0  0  0  0
  2  3  1  0  0  0  0
  2  4  1  0  0  0  0
  2  5  1  0  0  0  0
  5  6  2  0  0  0  0
  5  7  1  0  0  0  0
  7  8  1  0  0  0  0
  7  9  1  0  0  0  0
  9 10  1  0  0  0  0
  9 11  1  0  0  0  0
  9 29  1  0  0  0  0
 11 12  1  0  0  0  0
 11 13  1  0  0  0  0
 11 14  1  0  0  0  0
 14 15  2  0  0  0  0
 14 28  1  0  0  0  0
 15 16  1  0  0  0  0
 15 17  1  0  0  0  0
 17 18  1  0  0  0  0
 17 19  1  0  0  0  0
 19 20  1  0  0  0  0
 19 28  2  0  0  0  0
 20 21  1  0  0  0  0
 20 22  2  0  0  0  0
 22 23  1  0  0  0  0
 22 24  1  0  0  0  0
 24 25  1  0  0  0  0
 24 26  2  0  0  0  0
 26 27  1  0  0  0  0
 26 28  1  0  0  0  0
 29 30  2  0  0  0  0
 29 31  1  0  0  0  0
 31 32  1  0  0  0  0
 31 33  1  0  0  0  0
 33 34  1  0  0  0  0
 33 35  1  0  0  0  0
 33 36  1  0  0  0  0
M  END
$$$$

  -OEChem-01062216103D

 36 37  0     1  0  0  0  0  0999 V2000
   -3.8403   -2.6838    0.1103 H   0  0  0  0  0  0  0  0  0  0  0  0
   -3.6014   -1.9515   -0.6658 C   0  0  0  0  0  0  0  0  0  0  0  0
   -4.5307   -1.5082   -1.0315 H   0  0  0  0  0  0  0  0  0  0  0  0
   -3.1000   -2.4641   -1.4903 H   0  0  0  0  0  0  0  0  0  0  0  0
   -2.6988   -0.8700   -0.1029 C   0  0  0  0  0  0  0  0  0  0  0  0
   -2.5262   -0.7991    1.0994 O   0  0  0  0  0  0  0  0  0  0  0  0
   -2.2431    0.1274   -0.9348 N   0  0  0  0  0  0  0  0  0  0  0  0
   -2.5383    0.0011   -1.9021 H   0  0  0  0  0  0  0  0  0  0  0  0
   -0.9714    0.8711   -0.8175 C   0  0  1  0  0  0  0  0  0  0  0  0
   -1.0649    1.5982   -0.0052 H   0  0  0  0  0  0  0  0  0  0  0  0
    0.3358    0.0552   -0.6082 C   0  0  0  0  0  0  0  0  0  0  0  0
    0.4031   -0.6839   -1.4140 H   0  0  0  0  0  0  0  0  0  0  0  0
    1.1965    0.7233   -0.7169 H   0  0  0  0  0  0  0  0  0  0  0  0
    0.4975   -0.6813    0.6953 C   0  0  0  0  0  0  0  0  0  0  0  0
    0.2344   -2.0071    0.9465 C   0  0  0  0  0  0  0  0  0  0  0  0
   -0.1640   -2.7187    0.2287 H   0  0  0  0  0  0  0  0  0  0  0  0
    0.5587   -2.2594    2.2777 N   0  0  0  0  0  0  0  0  0  0  0  0
    0.4033   -3.1395    2.7624 H   0  0  0  0  0  0  0  0  0  0  0  0
    1.0241   -1.1056    2.8869 C   0  0  0  0  0  0  0  0  0  0  0  0
    1.4567   -0.8526    4.1889 C   0  0  0  0  0  0  0  0  0  0  0  0
    1.4612   -1.6473    4.9263 H   0  0  0  0  0  0  0  0  0  0  0  0
    1.8829    0.4391    4.5284 C   0  0  0  0  0  0  0  0  0  0  0  0
    2.2217    0.6492    5.5382 H   0  0  0  0  0  0  0  0  0  0  0  0
    1.8699    1.4604    3.5659 C   0  0  0  0  0  0  0  0  0  0  0  0
    2.1990    2.4599    3.8335 H   0  0  0  0  0  0  0  0  0  0  0  0
    1.4292    1.1948    2.2612 C   0  0  0  0  0  0  0  0  0  0  0  0
    1.4139    1.9813    1.5151 H   0  0  0  0  0  0  0  0  0  0  0  0
    1.0057   -0.0970    1.9306 C   0  0  0  0  0  0  0  0  0  0  0  0
   -0.7444    1.5996   -2.1568 C   0  0  0  0  0  0  0  0  0  0  0  0
   -0.8223    0.9781   -3.2112 O   0  0  0  0  0  0  0  0  0  0  0  0
   -0.6423    2.9779   -2.1934 N   0  0  0  0  0  0  0  0  0  0  0  0
   -0.6864    3.4767   -1.3091 H   0  0  0  0  0  0  0  0  0  0  0  0
   -0.5747    3.7437   -3.4320 C   0  0  0  0  0  0  0  0  0  0  0  0
   -1.4920    3.6115   -4.0150 H   0  0  0  0  0  0  0  0  0  0  0  0
   -0.4548    4.8088   -3.2119 H   0  0  0  0  0  0  0  0  0  0  0  0
    0.2782    3.4190   -4.0373 H   0  0  0  0  0  0  0  0  0  0  0  0
  1  2  1  0  0  0  0
  2  3  1  0  0  0  0
  2  4  1  0  0  0  0
  2  5  1  0  0  0  0
  5  6  2  0  0  0  0
  5  7  1  0  0  0  0
  7  8  1  0  0  0  0
  7  9  1  0  0  0  0
  9 10  1  0  0  0  0
  9 11  1  0  0  0  0
  9 29  1  0  0  0  0
 11 12  1  0  0  0  0
 11 13  1  0  0  0  0
 11 14  1  0  0  0  0
 14 15  2  0  0  0  0
 14 28  1  0  0  0  0
 15 16  1  0  0  0  0
 15 17  1  0  0  0  0
 17 18  1  0  0  0  0
 17 19  1  0  0  0  0
 19 20  1  0  0  0  0
 19 28  2  0  0  0  0
 20 21  1  0  0  0  0
 20 22  2  0  0  0  0
 22 23  1  0  0  0  0
 22 24  1  0  0  0  0
 24 25  1  0  0  0  0
 24 26  2  0  0  0  0
 26 27  1  0  0  0  0
 26 28  1  0  0  0  0
 29 30  2  0  0  0  0
 29 31  1  0  0  0  0
 31 32  1  0  0  0  0
 31 33  1  0  0  0  0
 33 34  1  0  0  0  0
 33 35  1  0  0  0  0
 33 36  1  0  0  0  0
M  END
$$$$

  -OEChem-01062216103D

 36 37  0     1  0  0  0  0  0999 V2000
   -3.8633   -2.6859    0.1050 H   0  0  0  0  0  0  0  0  0  0  0  0
   -3.6307   -1.9448   -0.6649 C   0  0  0  0  0  0  0  0  0  0  0  0
   -4.5617   -1.4848   -1.0050 H   0  0  0  0  0  0  0  0  0  0  0  0
   -3.1527   -2.4507   -1.5071 H   0  0  0  0  0  0  0  0  0  0  0  0
   -2.7041   -0.8829   -0.1039 C   0  0  0  0  0  0  0  0  0  0  0  0
   -2.5159   -0.8275    1.0968 O   0  0  0  0  0  0  0  0  0  0  0  0
   -2.2433    0.1141   -0.9336 N   0  0  0  0  0  0  0  0  0  0  0  0
   -2.5471    0.0040   -1.9008 H   0  0  0  0  0  0  0  0  0  0  0  0
   -0.9800    0.8720   -0.8155 C   0  0  1  0  0  0  0  0  0  0  0  0
   -1.0824    1.6014   -0.0062 H   0  0  0  0  0  0  0  0  0  0  0  0
    0.3326    0.0654   -0.6085 C   0  0  0  0  0  0  0  0  0  0  0  0
    0.4035   -0.6701   -1.4172 H   0  0  0  0  0  0  0  0  0  0  0  0
    1.1894    0.7390   -0.7155 H   0  0  0  0  0  0  0  0  0  0  0  0
    0.5009   -0.6734    0.6927 C   0  0  0  0  0  0  0  0  0  0  0  0
    0.2477   -2.0019    0.9396 C   0  0  0  0  0  0  0  0  0  0  0  0
   -0.1478   -2.7132    0.2197 H   0  0  0  0  0  0  0  0  0  0  0  0
    0.5748   -2.2568    2.2696 N   0  0  0  0  0  0  0  0  0  0  0  0
    0.4213   -3.1383    2.7523 H   0  0  0  0  0  0  0  0  0  0  0  0
    1.0334   -1.1022    2.8821 C   0  0  0  0  0  0  0  0  0  0  0  0
    1.4657   -0.8507    4.1843 C   0  0  0  0  0  0  0  0  0  0  0  0
    1.4754   -1.6479    4.9190 H   0  0  0  0  0  0  0  0  0  0  0  0
    1.8848    0.4424    4.5279 C   0  0  0  0  0  0  0  0  0  0  0  0
    2.2236    0.6512    5.5381 H   0  0  0  0  0  0  0  0  0  0  0  0
    1.8648    1.4665    3.5686 C   0  0  0  0  0  0  0  0  0  0  0  0
    2.1889    2.4668    3.8384 H   0  0  0  0  0  0  0  0  0  0  0  0
    1.4237    1.2025    2.2638 C   0  0  0  0  0  0  0  0  0  0  0  0
    1.4032    1.9912    1.5206 H   0  0  0  0  0  0  0  0  0  0  0  0
    1.0072   -0.0905    1.9294 C   0  0  0  0  0  0  0  0  0  0  0  0
   -0.7461    1.5958   -2.1570 C   0  0  0  0  0  0  0  0  0  0  0  0
   -1.0150    1.0297   -3.2119 O   0  0  0  0  0  0  0  0  0  0  0  0
   -0.3503    2.9205   -2.1808 N   0  0  0  0  0  0  0  0  0  0  0  0
   -0.2075    3.3868   -1.2893 H   0  0  0  0  0  0  0  0  0  0  0  0
   -0.2063    3.6906   -3.4103 C   0  0  0  0  0  0  0  0  0  0  0  0
   -1.1662    3.7626   -3.9323 H   0  0  0  0  0  0  0  0  0  0  0  0
    0.1410    4.7032   -3.1841 H   0  0  0  0  0  0  0  0  0  0  0  0
    0.5227    3.2171   -4.0763 H   0  0  0  0  0  0  0  0  0  0  0  0
  1  2  1  0  0  0  0
  2  3  1  0  0  0  0
  2  4  1  0  0  0  0
  2  5  1  0  0  0  0
  5  6  2  0  0  0  0
  5  7  1  0  0  0  0
  7  8  1  0  0  0  0
  7  9  1  0  0  0  0
  9 10  1  0  0  0  0
  9 11  1  0  0  0  0
  9 29  1  0  0  0  0
 11 12  1  0  0  0  0
 11 13  1  0  0  0  0
 11 14  1  0  0  0  0
 14 15  2  0  0  0  0
 14 28  1  0  0  0  0
 15 16  1  0  0  0  0
 15 17  1  0  0  0  0
 17 18  1  0  0  0  0
 17 19  1  0  0  0  0
 19 20  1  0  0  0  0
 19 28  2  0  0  0  0
 20 21  1  0  0  0  0
 20 22  2  0  0  0  0
 22 23  1  0  0  0  0
 22 24  1  0  0  0  0
 24 25  1  0  0  0  0
 24 26  2  0  0  0  0
 26 27  1  0  0  0  0
 26 28  1  0  0  0  0
 29 30  2  0  0  0  0
 29 31  1  0  0  0  0
 31 32  1  0  0  0  0
 31 33  1  0  0  0  0
 33 34  1  0  0  0  0
 33 35  1  0  0  0  0
 33 36  1  0  0  0  0
M  END
$$$$

  -OEChem-01062216103D

 36 37  0     1  0  0  0  0  0999 V2000
   -3.9032   -2.6810    0.0884 H   0  0  0  0  0  0  0  0  0  0  0  0
   -3.6625   -1.9372   -0.6762 C   0  0  0  0  0  0  0  0  0  0  0  0
   -4.5868   -1.4546   -1.0027 H   0  0  0  0  0  0  0  0  0  0  0  0
   -3.2032   -2.4442   -1.5283 H   0  0  0  0  0  0  0  0  0  0  0  0
   -2.7096   -0.8998   -0.1135 C   0  0  0  0  0  0  0  0  0  0  0  0
   -2.5062   -0.8653    1.0852 O   0  0  0  0  0  0  0  0  0  0  0  0
   -2.2424    0.0991   -0.9372 N   0  0  0  0  0  0  0  0  0  0  0  0
   -2.5665    0.0188   -1.9014 H   0  0  0  0  0  0  0  0  0  0  0  0
   -0.9862    0.8701   -0.8188 C   0  0  1  0  0  0  0  0  0  0  0  0
   -1.0971    1.6027   -0.0137 H   0  0  0  0  0  0  0  0  0  0  0  0
    0.3311    0.0705   -0.6077 C   0  0  0  0  0  0  0  0  0  0  0  0
    0.4064   -0.6643   -1.4162 H   0  0  0  0  0  0  0  0  0  0  0  0
    1.1857    0.7466   -0.7128 H   0  0  0  0  0  0  0  0  0  0  0  0
    0.5051   -0.6665    0.6938 C   0  0  0  0  0  0  0  0  0  0  0  0
    0.2600   -1.9968    0.9391 C   0  0  0  0  0  0  0  0  0  0  0  0
   -0.1347   -2.7091    0.2196 H   0  0  0  0  0  0  0  0  0  0  0  0
    0.5921   -2.2518    2.2679 N   0  0  0  0  0  0  0  0  0  0  0  0
    0.4415   -3.1341    2.7503 H   0  0  0  0  0  0  0  0  0  0  0  0
    1.0464   -1.0959    2.8810 C   0  0  0  0  0  0  0  0  0  0  0  0
    1.4809   -0.8452    4.1827 C   0  0  0  0  0  0  0  0  0  0  0  0
    1.4967   -1.6442    4.9152 H   0  0  0  0  0  0  0  0  0  0  0  0
    1.8941    0.4492    4.5282 C   0  0  0  0  0  0  0  0  0  0  0  0
    2.2345    0.6575    5.5380 H   0  0  0  0  0  0  0  0  0  0  0  0
    1.8655    1.4753    3.5713 C   0  0  0  0  0  0  0  0  0  0  0  0
    2.1844    2.4768    3.8430 H   0  0  0  0  0  0  0  0  0  0  0  0
    1.4222    1.2120    2.2671 C   0  0  0  0  0  0  0  0  0  0  0  0
    1.3944    2.0032    1.5270 H   0  0  0  0  0  0  0  0  0  0  0  0
    1.0122   -0.0825    1.9302 C   0  0  0  0  0  0  0  0  0  0  0  0
   -0.7484    1.5933   -2.1621 C   0  0  0  0  0  0  0  0  0  0  0  0
   -1.1994    1.1226   -3.2023 O   0  0  0  0  0  0  0  0  0  0  0  0
   -0.0775    2.8022   -2.2019 N   0  0  0  0  0  0  0  0  0  0  0  0
    0.2476    3.1913   -1.3214 H   0  0  0  0  0  0  0  0  0  0  0  0
    0.1355    3.5601   -3.4290 C   0  0  0  0  0  0  0  0  0  0  0  0
   -0.8232    3.8440   -3.8758 H   0  0  0  0  0  0  0  0  0  0  0  0
    0.7015    4.4723   -3.2165 H   0  0  0  0  0  0  0  0  0  0  0  0
    0.7003    2.9649   -4.1542 H   0  0  0  0  0  0  0  0  0  0  0  0
  1  2  1  0  0  0  0
  2  3  1  0  0  0  0
  2  4  1  0  0  0  0
  2  5  1  0  0  0  0
  5  6  2  0  0  0  0
  5  7  1  0  0  0  0
  7  8  1  0  0  0  0
  7  9  1  0  0  0  0
  9 10  1  0  0  0  0
  9 11  1  0  0  0  0
  9 29  1  0  0  0  0
 11 12  1  0  0  0  0
 11 13  1  0  0  0  0
 11 14  1  0  0  0  0
 14 15  2  0  0  0  0
 14 28  1  0  0  0  0
 15 16  1  0  0  0  0
 15 17  1  0  0  0  0
 17 18  1  0  0  0  0
 17 19  1  0  0  0  0
 19 20  1  0  0  0  0
 19 28  2  0  0  0  0
 20 21  1  0  0  0  0
 20 22  2  0  0  0  0
 22 23  1  0  0  0  0
 22 24  1  0  0  0  0
 24 25  1  0  0  0  0
 24 26  2  0  0  0  0
 26 27  1  0  0  0  0
 26 28  1  0  0  0  0
 29 30  2  0  0  0  0
 29 31  1  0  0  0  0
 31 32  1  0  0  0  0
 31 33  1  0  0  0  0
 33 34  1  0  0  0  0
 33 35  1  0  0  0  0
 33 36  1  0  0  0  0
M  END
$$$$

  -OEChem-01062216103D

 36 37  0     1  0  0  0  0  0999 V2000
   -3.9282   -2.6796    0.0491 H   0  0  0  0  0  0  0  0  0  0  0  0
   -3.6932   -1.9165   -0.6980 C   0  0  0  0  0  0  0  0  0  0  0  0
   -4.6159   -1.4066   -0.9853 H   0  0  0  0  0  0  0  0  0  0  0  0
   -3.2652   -2.4051   -1.5767 H   0  0  0  0  0  0  0  0  0  0  0  0
   -2.7068   -0.9148   -0.1282 C   0  0  0  0  0  0  0  0  0  0  0  0
   -2.4867   -0.9128    1.0679 O   0  0  0  0  0  0  0  0  0  0  0  0
   -2.2288    0.0892   -0.9397 N   0  0  0  0  0  0  0  0  0  0  0  0
   -2.5834    0.0529   -1.8962 H   0  0  0  0  0  0  0  0  0  0  0  0
   -0.9768    0.8685   -0.8208 C   0  0  1  0  0  0  0  0  0  0  0  0
   -1.0908    1.6032   -0.0181 H   0  0  0  0  0  0  0  0  0  0  0  0
    0.3401    0.0662   -0.6025 C   0  0  0  0  0  0  0  0  0  0  0  0
    0.4145   -0.6700   -1.4099 H   0  0  0  0  0  0  0  0  0  0  0  0
    1.1993    0.7360   -0.7049 H   0  0  0  0  0  0  0  0  0  0  0  0
    0.5162   -0.6701    0.6996 C   0  0  0  0  0  0  0  0  0  0  0  0
    0.2733   -2.0004    0.9481 C   0  0  0  0  0  0  0  0  0  0  0  0
   -0.1238   -2.7144    0.2318 H   0  0  0  0  0  0  0  0  0  0  0  0
    0.6110   -2.2536    2.2758 N   0  0  0  0  0  0  0  0  0  0  0  0
    0.4628   -3.1354    2.7596 H   0  0  0  0  0  0  0  0  0  0  0  0
    1.0616   -1.0956    2.8874 C   0  0  0  0  0  0  0  0  0  0  0  0
    1.4964   -0.8421    4.1886 C   0  0  0  0  0  0  0  0  0  0  0  0
    1.5194   -1.6409    4.9214 H   0  0  0  0  0  0  0  0  0  0  0  0
    1.9002    0.4555    4.5338 C   0  0  0  0  0  0  0  0  0  0  0  0
    2.2399    0.6664    5.5433 H   0  0  0  0  0  0  0  0  0  0  0  0
    1.8623    1.4818    3.5775 C   0  0  0  0  0  0  0  0  0  0  0  0
    2.1718    2.4861    3.8499 H   0  0  0  0  0  0  0  0  0  0  0  0
    1.4208    1.2152    2.2733 C   0  0  0  0  0  0  0  0  0  0  0  0
    1.3843    2.0072    1.5343 H   0  0  0  0  0  0  0  0  0  0  0  0
    1.0208   -0.0826    1.9359 C   0  0  0  0  0  0  0  0  0  0  0  0
   -0.7424    1.5951   -2.1675 C   0  0  0  0  0  0  0  0  0  0  0  0
   -1.3684    1.2562   -3.1683 O   0  0  0  0  0  0  0  0  0  0  0  0
    0.1675    2.6332   -2.2690 N   0  0  0  0  0  0  0  0  0  0  0  0
    0.6593    2.9146   -1.4256 H   0  0  0  0  0  0  0  0  0  0  0  0
    0.4140    3.3652   -3.5055 C   0  0  0  0  0  0  0  0  0  0  0  0
   -0.5061    3.8438   -3.8576 H   0  0  0  0  0  0  0  0  0  0  0  0
    1.1663    4.1428   -3.3411 H   0  0  0  0  0  0  0  0  0  0  0  0
    0.7808    2.6887   -4.2848 H   0  0  0  0  0  0  0  0  0  0  0  0
  1  2  1  0  0  0  0
  2  3  1  0  0  0  0
  2  4  1  0  0  0  0
  2  5  1  0  0  0  0
  5  6  2  0  0  0  0
  5  7  1  0  0  0  0
  7  8  1  0  0  0  0
  7  9  1  0  0  0  0
  9 10  1  0  0  0  0
  9 11  1  0  0  0  0
  9 29  1  0  0  0  0
 11 12  1  0  0  0  0
 11 13  1  0  0  0  0
 11 14  1  0  0  0  0
 14 15  2  0  0  0  0
 14 28  1  0  0  0  0
 15 16  1  0  0  0  0
 15 17  1  0  0  0  0
 17 18  1  0  0  0  0
 17 19  1  0  0  0  0
 19 20  1  0  0  0  0
 19 28  2  0  0  0  0
 20 21  1  0  0  0  0
 20 22  2  0  0  0  0
 22 23  1  0  0  0  0
 22 24  1  0  0  0  0
 24 25  1  0  0  0  0
 24 26  2  0  0  0  0
 26 27  1  0  0  0  0
 26 28  1  0  0  0  0
 29 30  2  0  0  0  0
 29 31  1  0  0  0  0
 31 32  1  0  0  0  0
 31 33  1  0  0  0  0
 33 34  1  0  0  0  0
 33 35  1  0  0  0  0
 33 36  1  0  0  0  0
M  END
$$$$
