default_name
  -OEChem-01062215323D

 29 28  0     1  0  0  0  0  0999 V2000
   -3.5781   -3.7296    1.2702 H   0  0  0  0  0  0  0  0  0  0  0  0
   -3.5311   -2.7616    0.7732 C   0  0  0  0  0  0  0  0  0  0  0  0
   -4.2371   -2.0766    1.2382 H   0  0  0  0  0  0  0  0  0  0  0  0
   -3.7681   -2.8816   -0.2818 H   0  0  0  0  0  0  0  0  0  0  0  0
   -2.1321   -2.2086    0.9112 C   0  0  0  0  0  0  0  0  0  0  0  0
   -1.2751   -2.8426    1.5112 O   0  0  0  0  0  0  0  0  0  0  0  0
   -1.9041   -1.0186    0.3602 N   0  0  0  0  0  0  0  0  0  0  0  0
   -2.6671   -0.5416   -0.0988 H   0  0  0  0  0  0  0  0  0  0  0  0
   -0.6131   -0.3236    0.3832 C   0  0  1  0  0  0  0  0  0  0  0  0
   -0.3420   -0.1272    1.4217 H   0  0  0  0  0  0  0  0  0  0  0  0
    0.4625   -1.2382   -0.2313 C   0  0  0  0  0  0  0  0  0  0  0  0
    0.1346   -1.5463   -1.2264 H   0  0  0  0  0  0  0  0  0  0  0  0
    1.3930   -0.6785   -0.3372 H   0  0  0  0  0  0  0  0  0  0  0  0
    0.7403   -2.4985    0.5961 C   0  0  0  0  0  0  0  0  0  0  0  0
   -0.1785   -3.0773    0.6850 H   0  0  0  0  0  0  0  0  0  0  0  0
    1.4857   -3.1014    0.0764 H   0  0  0  0  0  0  0  0  0  0  0  0
    1.3492   -2.1509    2.2659 S   0  0  0  0  0  0  0  0  0  0  0  0
    2.9880   -1.4900    1.8666 C   0  0  0  0  0  0  0  0  0  0  0  0
    2.8842   -0.6010    1.2438 H   0  0  0  0  0  0  0  0  0  0  0  0
    3.5049   -1.2238    2.7890 H   0  0  0  0  0  0  0  0  0  0  0  0
    3.5690   -2.2439    1.3346 H   0  0  0  0  0  0  0  0  0  0  0  0
   -0.7150    1.0229   -0.3474 C   0  0  0  0  0  0  0  0  0  0  0  0
   -1.7797    1.3702   -0.8544 O   0  0  0  0  0  0  0  0  0  0  0  0
    0.3912    1.7753   -0.4093 N   0  0  0  0  0  0  0  0  0  0  0  0
    1.2232    1.4316    0.0430 H   0  0  0  0  0  0  0  0  0  0  0  0
    0.4596    3.0722   -1.0809 C   0  0  0  0  0  0  0  0  0  0  0  0
   -0.2787    3.7505   -0.6467 H   0  0  0  0  0  0  0  0  0  0  0  0
    1.4544    3.5057   -0.9702 H   0  0  0  0  0  0  0  0  0  0  0  0
    0.2344    2.9498   -2.1418 H   0  0  0  0  0  0  0  0  0  0  0  0
  5  6  2  0  0  0  0
  5  7  1  0  0  0  0
  2  3  1  0  0  0  0
  2  4  1  0  0  0  0
  2  5  1  0  0  0  0
  1  2  1  0  0  0  0
 22 23  2  0  0  0  0
 22 24  1  0  0  0  0
 18 19  1  0  0  0  0
 18 20  1  0  0  0  0
 18 21  1  0  0  0  0
 17 18  1  0  0  0  0
 14 15  1  0  0  0  0
 14 16  1  0  0  0  0
 14 17  1  0  0  0  0
 11 12  1  0  0  0  0
 11 13  1  0  0  0  0
 11 14  1  0  0  0  0
  9 10  1  0  0  0  0
  9 11  1  0  0  0  0
  9 22  1  0  0  0  0
  7  8  1  0  0  0  0
  7  9  1  0  0  0  0
 26 27  1  0  0  0  0
 26 28  1  0  0  0  0
 26 29  1  0  0  0  0
 24 25  1  0  0  0  0
 24 26  1  0  0  0  0
M  END
$$$$
default_name
  -OEChem-01062215323D

 29 28  0     1  0  0  0  0  0999 V2000
   -3.5781   -3.7296    1.2702 H   0  0  0  0  0  0  0  0  0  0  0  0
   -3.5311   -2.7616    0.7732 C   0  0  0  0  0  0  0  0  0  0  0  0
   -4.2371   -2.0766    1.2382 H   0  0  0  0  0  0  0  0  0  0  0  0
   -3.7681   -2.8816   -0.2818 H   0  0  0  0  0  0  0  0  0  0  0  0
   -2.1321   -2.2086    0.9112 C   0  0  0  0  0  0  0  0  0  0  0  0
   -1.2751   -2.8426    1.5112 O   0  0  0  0  0  0  0  0  0  0  0  0
   -1.9041   -1.0186    0.3602 N   0  0  0  0  0  0  0  0  0  0  0  0
   -2.6671   -0.5416   -0.0988 H   0  0  0  0  0  0  0  0  0  0  0  0
   -0.6131   -0.3236    0.3832 C   0  0  1  0  0  0  0  0  0  0  0  0
   -0.3420   -0.1272    1.4217 H   0  0  0  0  0  0  0  0  0  0  0  0
    0.4625   -1.2382   -0.2313 C   0  0  0  0  0  0  0  0  0  0  0  0
    0.1346   -1.5463   -1.2264 H   0  0  0  0  0  0  0  0  0  0  0  0
    1.3930   -0.6785   -0.3372 H   0  0  0  0  0  0  0  0  0  0  0  0
    0.7403   -2.4985    0.5961 C   0  0  0  0  0  0  0  0  0  0  0  0
   -0.1785   -3.0773    0.6850 H   0  0  0  0  0  0  0  0  0  0  0  0
    1.4857   -3.1014    0.0764 H   0  0  0  0  0  0  0  0  0  0  0  0
    1.3492   -2.1509    2.2659 S   0  0  0  0  0  0  0  0  0  0  0  0
    2.9880   -1.4900    1.8666 C   0  0  0  0  0  0  0  0  0  0  0  0
    2.8842   -0.6010    1.2438 H   0  0  0  0  0  0  0  0  0  0  0  0
    3.5049   -1.2238    2.7890 H   0  0  0  0  0  0  0  0  0  0  0  0
    3.5690   -2.2439    1.3346 H   0  0  0  0  0  0  0  0  0  0  0  0
   -0.7150    1.0229   -0.3474 C   0  0  0  0  0  0  0  0  0  0  0  0
   -1.8171    1.4992   -0.6115 O   0  0  0  0  0  0  0  0  0  0  0  0
    0.4307    1.6307   -0.6812 N   0  0  0  0  0  0  0  0  0  0  0  0
    1.2961    1.1870   -0.4179 H   0  0  0  0  0  0  0  0  0  0  0  0
    0.5008    2.9069   -1.3913 C   0  0  0  0  0  0  0  0  0  0  0  0
   -0.0312    3.6736   -0.8231 H   0  0  0  0  0  0  0  0  0  0  0  0
    1.5396    3.2128   -1.5218 H   0  0  0  0  0  0  0  0  0  0  0  0
    0.0264    2.8106   -2.3695 H   0  0  0  0  0  0  0  0  0  0  0  0
  5  6  2  0  0  0  0
  5  7  1  0  0  0  0
  2  3  1  0  0  0  0
  2  4  1  0  0  0  0
  2  5  1  0  0  0  0
  1  2  1  0  0  0  0
 22 23  2  0  0  0  0
 22 24  1  0  0  0  0
 18 19  1  0  0  0  0
 18 20  1  0  0  0  0
 18 21  1  0  0  0  0
 17 18  1  0  0  0  0
 14 15  1  0  0  0  0
 14 16  1  0  0  0  0
 14 17  1  0  0  0  0
 11 12  1  0  0  0  0
 11 13  1  0  0  0  0
 11 14  1  0  0  0  0
  9 10  1  0  0  0  0
  9 11  1  0  0  0  0
  9 22  1  0  0  0  0
  7  8  1  0  0  0  0
  7  9  1  0  0  0  0
 26 27  1  0  0  0  0
 26 28  1  0  0  0  0
 26 29  1  0  0  0  0
 24 25  1  0  0  0  0
 24 26  1  0  0  0  0
M  END
$$$$
default_name
  -OEChem-01062215323D

 29 28  0     1  0  0  0  0  0999 V2000
   -3.5781   -3.7296    1.2702 H   0  0  0  0  0  0  0  0  0  0  0  0
   -3.5311   -2.7616    0.7732 C   0  0  0  0  0  0  0  0  0  0  0  0
   -4.2371   -2.0766    1.2382 H   0  0  0  0  0  0  0  0  0  0  0  0
   -3.7681   -2.8816   -0.2818 H   0  0  0  0  0  0  0  0  0  0  0  0
   -2.1321   -2.2086    0.9112 C   0  0  0  0  0  0  0  0  0  0  0  0
   -1.2751   -2.8426    1.5112 O   0  0  0  0  0  0  0  0  0  0  0  0
   -1.9041   -1.0186    0.3602 N   0  0  0  0  0  0  0  0  0  0  0  0
   -2.6671   -0.5416   -0.0988 H   0  0  0  0  0  0  0  0  0  0  0  0
   -0.6131   -0.3236    0.3832 C   0  0  1  0  0  0  0  0  0  0  0  0
   -0.3420   -0.1272    1.4217 H   0  0  0  0  0  0  0  0  0  0  0  0
    0.4625   -1.2382   -0.2313 C   0  0  0  0  0  0  0  0  0  0  0  0
    0.1346   -1.5463   -1.2264 H   0  0  0  0  0  0  0  0  0  0  0  0
    1.3930   -0.6785   -0.3372 H   0  0  0  0  0  0  0  0  0  0  0  0
    0.7403   -2.4985    0.5961 C   0  0  0  0  0  0  0  0  0  0  0  0
   -0.1785   -3.0773    0.6850 H   0  0  0  0  0  0  0  0  0  0  0  0
    1.4857   -3.1014    0.0764 H   0  0  0  0  0  0  0  0  0  0  0  0
    1.3492   -2.1509    2.2659 S   0  0  0  0  0  0  0  0  0  0  0  0
    2.9880   -1.4900    1.8666 C   0  0  0  0  0  0  0  0  0  0  0  0
    2.8842   -0.6010    1.2438 H   0  0  0  0  0  0  0  0  0  0  0  0
    3.5049   -1.2238    2.7890 H   0  0  0  0  0  0  0  0  0  0  0  0
    3.5690   -2.2439    1.3346 H   0  0  0  0  0  0  0  0  0  0  0  0
   -0.7150    1.0229   -0.3474 C   0  0  0  0  0  0  0  0  0  0  0  0
   -1.7822    1.6326   -0.3705 O   0  0  0  0  0  0  0  0  0  0  0  0
    0.3894    1.4816   -0.9503 N   0  0  0  0  0  0  0  0  0  0  0  0
    1.2317    0.9338   -0.8755 H   0  0  0  0  0  0  0  0  0  0  0  0
    0.4498    2.7369   -1.6976 C   0  0  0  0  0  0  0  0  0  0  0  0
    0.1583    3.5657   -1.0482 H   0  0  0  0  0  0  0  0  0  0  0  0
    1.4607    2.9099   -2.0690 H   0  0  0  0  0  0  0  0  0  0  0  0
   -0.2432    2.6977   -2.5398 H   0  0  0  0  0  0  0  0  0  0  0  0
  5  6  2  0  0  0  0
  5  7  1  0  0  0  0
  2  3  1  0  0  0  0
  2  4  1  0  0  0  0
  2  5  1  0  0  0  0
  1  2  1  0  0  0  0
 22 23  2  0  0  0  0
 22 24  1  0  0  0  0
 18 19  1  0  0  0  0
 18 20  1  0  0  0  0
 18 21  1  0  0  0  0
 17 18  1  0  0  0  0
 14 15  1  0  0  0  0
 14 16  1  0  0  0  0
 14 17  1  0  0  0  0
 11 12  1  0  0  0  0
 11 13  1  0  0  0  0
 11 14  1  0  0  0  0
  9 10  1  0  0  0  0
  9 11  1  0  0  0  0
  9 22  1  0  0  0  0
  7  8  1  0  0  0  0
  7  9  1  0  0  0  0
 26 27  1  0  0  0  0
 26 28  1  0  0  0  0
 26 29  1  0  0  0  0
 24 25  1  0  0  0  0
 24 26  1  0  0  0  0
M  END
$$$$
default_name
  -OEChem-01062215323D

 29 28  0     1  0  0  0  0  0999 V2000
   -3.5781   -3.7296    1.2702 H   0  0  0  0  0  0  0  0  0  0  0  0
   -3.5311   -2.7616    0.7732 C   0  0  0  0  0  0  0  0  0  0  0  0
   -4.2371   -2.0766    1.2382 H   0  0  0  0  0  0  0  0  0  0  0  0
   -3.7681   -2.8816   -0.2818 H   0  0  0  0  0  0  0  0  0  0  0  0
   -2.1321   -2.2086    0.9112 C   0  0  0  0  0  0  0  0  0  0  0  0
   -1.2751   -2.8426    1.5112 O   0  0  0  0  0  0  0  0  0  0  0  0
   -1.9041   -1.0186    0.3602 N   0  0  0  0  0  0  0  0  0  0  0  0
   -2.6671   -0.5416   -0.0988 H   0  0  0  0  0  0  0  0  0  0  0  0
   -0.6131   -0.3236    0.3832 C   0  0  1  0  0  0  0  0  0  0  0  0
   -0.3420   -0.1272    1.4217 H   0  0  0  0  0  0  0  0  0  0  0  0
    0.4625   -1.2382   -0.2313 C   0  0  0  0  0  0  0  0  0  0  0  0
    0.1346   -1.5463   -1.2264 H   0  0  0  0  0  0  0  0  0  0  0  0
    1.3930   -0.6785   -0.3372 H   0  0  0  0  0  0  0  0  0  0  0  0
    0.7403   -2.4985    0.5961 C   0  0  0  0  0  0  0  0  0  0  0  0
   -0.1785   -3.0773    0.6850 H   0  0  0  0  0  0  0  0  0  0  0  0
    1.4857   -3.1014    0.0764 H   0  0  0  0  0  0  0  0  0  0  0  0
    1.3492   -2.1509    2.2659 S   0  0  0  0  0  0  0  0  0  0  0  0
    2.9880   -1.4900    1.8666 C   0  0  0  0  0  0  0  0  0  0  0  0
    2.8842   -0.6010    1.2438 H   0  0  0  0  0  0  0  0  0  0  0  0
    3.5049   -1.2238    2.7890 H   0  0  0  0  0  0  0  0  0  0  0  0
    3.5690   -2.2439    1.3346 H   0  0  0  0  0  0  0  0  0  0  0  0
   -0.7150    1.0229   -0.3474 C   0  0  0  0  0  0  0  0  0  0  0  0
   -1.6774    1.7613   -0.1479 O   0  0  0  0  0  0  0  0  0  0  0  0
    0.2700    1.3380   -1.1983 N   0  0  0  0  0  0  0  0  0  0  0  0
    1.0344    0.6893   -1.2986 H   0  0  0  0  0  0  0  0  0  0  0  0
    0.3101    2.5736   -1.9789 C   0  0  0  0  0  0  0  0  0  0  0  0
    0.2770    3.4344   -1.3069 H   0  0  0  0  0  0  0  0  0  0  0  0
    1.2229    2.6177   -2.5744 H   0  0  0  0  0  0  0  0  0  0  0  0
   -0.5563    2.6190   -2.6412 H   0  0  0  0  0  0  0  0  0  0  0  0
  5  6  2  0  0  0  0
  5  7  1  0  0  0  0
  2  3  1  0  0  0  0
  2  4  1  0  0  0  0
  2  5  1  0  0  0  0
  1  2  1  0  0  0  0
 22 23  2  0  0  0  0
 22 24  1  0  0  0  0
 18 19  1  0  0  0  0
 18 20  1  0  0  0  0
 18 21  1  0  0  0  0
 17 18  1  0  0  0  0
 14 15  1  0  0  0  0
 14 16  1  0  0  0  0
 14 17  1  0  0  0  0
 11 12  1  0  0  0  0
 11 13  1  0  0  0  0
 11 14  1  0  0  0  0
  9 10  1  0  0  0  0
  9 11  1  0  0  0  0
  9 22  1  0  0  0  0
  7  8  1  0  0  0  0
  7  9  1  0  0  0  0
 26 27  1  0  0  0  0
 26 28  1  0  0  0  0
 26 29  1  0  0  0  0
 24 25  1  0  0  0  0
 24 26  1  0  0  0  0
M  END
$$$$
default_name
  -OEChem-01062215323D

 29 28  0     1  0  0  0  0  0999 V2000
   -3.5781   -3.7296    1.2702 H   0  0  0  0  0  0  0  0  0  0  0  0
   -3.5311   -2.7616    0.7732 C   0  0  0  0  0  0  0  0  0  0  0  0
   -4.2371   -2.0766    1.2382 H   0  0  0  0  0  0  0  0  0  0  0  0
   -3.7681   -2.8816   -0.2818 H   0  0  0  0  0  0  0  0  0  0  0  0
   -2.1321   -2.2086    0.9112 C   0  0  0  0  0  0  0  0  0  0  0  0
   -1.2751   -2.8426    1.5112 O   0  0  0  0  0  0  0  0  0  0  0  0
   -1.9041   -1.0186    0.3602 N   0  0  0  0  0  0  0  0  0  0  0  0
   -2.6671   -0.5416   -0.0988 H   0  0  0  0  0  0  0  0  0  0  0  0
   -0.6131   -0.3236    0.3832 C   0  0  1  0  0  0  0  0  0  0  0  0
   -0.3420   -0.1272    1.4217 H   0  0  0  0  0  0  0  0  0  0  0  0
    0.4625   -1.2382   -0.2313 C   0  0  0  0  0  0  0  0  0  0  0  0
    0.1346   -1.5463   -1.2264 H   0  0  0  0  0  0  0  0  0  0  0  0
    1.3930   -0.6785   -0.3372 H   0  0  0  0  0  0  0  0  0  0  0  0
    0.7403   -2.4985    0.5961 C   0  0  0  0  0  0  0  0  0  0  0  0
   -0.1785   -3.0773    0.6850 H   0  0  0  0  0  0  0  0  0  0  0  0
    1.4857   -3.1014    0.0764 H   0  0  0  0  0  0  0  0  0  0  0  0
    1.3492   -2.1509    2.2659 S   0  0  0  0  0  0  0  0  0  0  0  0
    2.9880   -1.4900    1.8666 C   0  0  0  0  0  0  0  0  0  0  0  0
    2.8842   -0.6010    1.2438 H   0  0  0  0  0  0  0  0  0  0  0  0
    3.5049   -1.2238    2.7890 H   0  0  0  0  0  0  0  0  0  0  0  0
    3.5690   -2.2439    1.3346 H   0  0  0  0  0  0  0  0  0  0  0  0
   -0.7150    1.0229   -0.3474 C   0  0  0  0  0  0  0  0  0  0  0  0
   -1.5097    1.8765    0.0411 O   0  0  0  0  0  0  0  0  0  0  0  0
    0.0807    1.2097   -1.4083 N   0  0  0  0  0  0  0  0  0  0  0  0
    0.7177    0.4702   -1.6582 H   0  0  0  0  0  0  0  0  0  0  0  0
    0.0911    2.4283   -2.2162 C   0  0  0  0  0  0  0  0  0  0  0  0
    0.3168    3.2884   -1.5814 H   0  0  0  0  0  0  0  0  0  0  0  0
    0.8426    2.3560   -3.0035 H   0  0  0  0  0  0  0  0  0  0  0  0
   -0.8914    2.5798   -2.6667 H   0  0  0  0  0  0  0  0  0  0  0  0
  5  6  2  0  0  0  0
  5  7  1  0  0  0  0
  2  3  1  0  0  0  0
  2  4  1  0  0  0  0
  2  5  1  0  0  0  0
  1  2  1  0  0  0  0
 22 23  2  0  0  0  0
 22 24  1  0  0  0  0
 18 19  1  0  0  0  0
 18 20  1  0  0  0  0
 18 21  1  0  0  0  0
 17 18  1  0  0  0  0
 14 15  1  0  0  0  0
 14 16  1  0  0  0  0
 14 17  1  0  0  0  0
 11 12  1  0  0  0  0
 11 13  1  0  0  0  0
 11 14  1  0  0  0  0
  9 10  1  0  0  0  0
  9 11  1  0  0  0  0
  9 22  1  0  0  0  0
  7  8  1  0  0  0  0
  7  9  1  0  0  0  0
 26 27  1  0  0  0  0
 26 28  1  0  0  0  0
 26 29  1  0  0  0  0
 24 25  1  0  0  0  0
 24 26  1  0  0  0  0
M  END
$$$$
default_name
  -OEChem-01062215323D

 29 28  0     1  0  0  0  0  0999 V2000
   -3.5781   -3.7296    1.2702 H   0  0  0  0  0  0  0  0  0  0  0  0
   -3.5311   -2.7616    0.7732 C   0  0  0  0  0  0  0  0  0  0  0  0
   -4.2371   -2.0766    1.2382 H   0  0  0  0  0  0  0  0  0  0  0  0
   -3.7681   -2.8816   -0.2818 H   0  0  0  0  0  0  0  0  0  0  0  0
   -2.1321   -2.2086    0.9112 C   0  0  0  0  0  0  0  0  0  0  0  0
   -1.2751   -2.8426    1.5112 O   0  0  0  0  0  0  0  0  0  0  0  0
   -1.9041   -1.0186    0.3602 N   0  0  0  0  0  0  0  0  0  0  0  0
   -2.6671   -0.5416   -0.0988 H   0  0  0  0  0  0  0  0  0  0  0  0
   -0.6131   -0.3236    0.3832 C   0  0  1  0  0  0  0  0  0  0  0  0
   -0.3420   -0.1272    1.4217 H   0  0  0  0  0  0  0  0  0  0  0  0
    0.4625   -1.2382   -0.2313 C   0  0  0  0  0  0  0  0  0  0  0  0
    0.1346   -1.5463   -1.2264 H   0  0  0  0  0  0  0  0  0  0  0  0
    1.3930   -0.6785   -0.3372 H   0  0  0  0  0  0  0  0  0  0  0  0
    0.7403   -2.4985    0.5961 C   0  0  0  0  0  0  0  0  0  0  0  0
   -0.1785   -3.0773    0.6850 H   0  0  0  0  0  0  0  0  0  0  0  0
    1.4857   -3.1014    0.0764 H   0  0  0  0  0  0  0  0  0  0  0  0
    1.3492   -2.1509    2.2659 S   0  0  0  0  0  0  0  0  0  0  0  0
    2.9880   -1.4900    1.8666 C   0  0  0  0  0  0  0  0  0  0  0  0
    2.8842   -0.6010    1.2438 H   0  0  0  0  0  0  0  0  0  0  0  0
    3.5049   -1.2238    2.7890 H   0  0  0  0  0  0  0  0  0  0  0  0
    3.5690   -2.2439    1.3346 H   0  0  0  0  0  0  0  0  0  0  0  0
   -0.7150    1.0229   -0.3474 C   0  0  0  0  0  0  0  0  0  0  0  0
   -1.2907    1.9704    0.1836 O   0  0  0  0  0  0  0  0  0  0  0  0
   -0.1656    1.1055   -1.5659 N   0  0  0  0  0  0  0  0  0  0  0  0
    0.3032    0.2914   -1.9300 H   0  0  0  0  0  0  0  0  0  0  0  0
   -0.1921    2.3108   -2.3932 C   0  0  0  0  0  0  0  0  0  0  0  0
    0.2749    3.1378   -1.8531 H   0  0  0  0  0  0  0  0  0  0  0  0
    0.3455    2.1428   -3.3272 H   0  0  0  0  0  0  0  0  0  0  0  0
   -1.2257    2.5828   -2.6146 H   0  0  0  0  0  0  0  0  0  0  0  0
  5  6  2  0  0  0  0
  5  7  1  0  0  0  0
  2  3  1  0  0  0  0
  2  4  1  0  0  0  0
  2  5  1  0  0  0  0
  1  2  1  0  0  0  0
 22 23  2  0  0  0  0
 22 24  1  0  0  0  0
 18 19  1  0  0  0  0
 18 20  1  0  0  0  0
 18 21  1  0  0  0  0
 17 18  1  0  0  0  0
 14 15  1  0  0  0  0
 14 16  1  0  0  0  0
 14 17  1  0  0  0  0
 11 12  1  0  0  0  0
 11 13  1  0  0  0  0
 11 14  1  0  0  0  0
  9 10  1  0  0  0  0
  9 11  1  0  0  0  0
  9 22  1  0  0  0  0
  7  8  1  0  0  0  0
  7  9  1  0  0  0  0
 26 27  1  0  0  0  0
 26 28  1  0  0  0  0
 26 29  1  0  0  0  0
 24 25  1  0  0  0  0
 24 26  1  0  0  0  0
M  END
$$$$
default_name
  -OEChem-01062215323D

 29 28  0     1  0  0  0  0  0999 V2000
   -3.5781   -3.7296    1.2702 H   0  0  0  0  0  0  0  0  0  0  0  0
   -3.5311   -2.7616    0.7732 C   0  0  0  0  0  0  0  0  0  0  0  0
   -4.2371   -2.0766    1.2382 H   0  0  0  0  0  0  0  0  0  0  0  0
   -3.7681   -2.8816   -0.2818 H   0  0  0  0  0  0  0  0  0  0  0  0
   -2.1321   -2.2086    0.9112 C   0  0  0  0  0  0  0  0  0  0  0  0
   -1.2751   -2.8426    1.5112 O   0  0  0  0  0  0  0  0  0  0  0  0
   -1.9041   -1.0186    0.3602 N   0  0  0  0  0  0  0  0  0  0  0  0
   -2.6671   -0.5416   -0.0988 H   0  0  0  0  0  0  0  0  0  0  0  0
   -0.6131   -0.3236    0.3832 C   0  0  1  0  0  0  0  0  0  0  0  0
   -0.3420   -0.1272    1.4217 H   0  0  0  0  0  0  0  0  0  0  0  0
    0.4625   -1.2382   -0.2313 C   0  0  0  0  0  0  0  0  0  0  0  0
    0.1346   -1.5463   -1.2264 H   0  0  0  0  0  0  0  0  0  0  0  0
    1.3930   -0.6785   -0.3372 H   0  0  0  0  0  0  0  0  0  0  0  0
    0.7403   -2.4985    0.5961 C   0  0  0  0  0  0  0  0  0  0  0  0
   -0.1785   -3.0773    0.6850 H   0  0  0  0  0  0  0  0  0  0  0  0
    1.4857   -3.1014    0.0764 H   0  0  0  0  0  0  0  0  0  0  0  0
    1.3492   -2.1509    2.2659 S   0  0  0  0  0  0  0  0  0  0  0  0
    2.9880   -1.4900    1.8666 C   0  0  0  0  0  0  0  0  0  0  0  0
    2.8842   -0.6010    1.2438 H   0  0  0  0  0  0  0  0  0  0  0  0
    3.5049   -1.2238    2.7890 H   0  0  0  0  0  0  0  0  0  0  0  0
    3.5690   -2.2439    1.3346 H   0  0  0  0  0  0  0  0  0  0  0  0
   -0.7150    1.0229   -0.3474 C   0  0  0  0  0  0  0  0  0  0  0  0
   -1.0353    2.0366    0.2699 O   0  0  0  0  0  0  0  0  0  0  0  0
   -0.4521    1.0325   -1.6605 N   0  0  0  0  0  0  0  0  0  0  0  0
   -0.1810    0.1650   -2.0953 H   0  0  0  0  0  0  0  0  0  0  0  0
   -0.5203    2.2292   -2.4978 C   0  0  0  0  0  0  0  0  0  0  0  0
    0.1542    2.9928   -2.1034 H   0  0  0  0  0  0  0  0  0  0  0  0
   -0.2343    1.9924   -3.5235 H   0  0  0  0  0  0  0  0  0  0  0  0
   -1.5364    2.6277   -2.4885 H   0  0  0  0  0  0  0  0  0  0  0  0
  5  6  2  0  0  0  0
  5  7  1  0  0  0  0
  2  3  1  0  0  0  0
  2  4  1  0  0  0  0
  2  5  1  0  0  0  0
  1  2  1  0  0  0  0
 22 23  2  0  0  0  0
 22 24  1  0  0  0  0
 18 19  1  0  0  0  0
 18 20  1  0  0  0  0
 18 21  1  0  0  0  0
 17 18  1  0  0  0  0
 14 15  1  0  0  0  0
 14 16  1  0  0  0  0
 14 17  1  0  0  0  0
 11 12  1  0  0  0  0
 11 13  1  0  0  0  0
 11 14  1  0  0  0  0
  9 10  1  0  0  0  0
  9 11  1  0  0  0  0
  9 22  1  0  0  0  0
  7  8  1  0  0  0  0
  7  9  1  0  0  0  0
 26 27  1  0  0  0  0
 26 28  1  0  0  0  0
 26 29  1  0  0  0  0
 24 25  1  0  0  0  0
 24 26  1  0  0  0  0
M  END
$$$$
default_name
  -OEChem-01062215323D

 29 28  0     1  0  0  0  0  0999 V2000
   -3.5781   -3.7296    1.2702 H   0  0  0  0  0  0  0  0  0  0  0  0
   -3.5311   -2.7616    0.7732 C   0  0  0  0  0  0  0  0  0  0  0  0
   -4.2371   -2.0766    1.2382 H   0  0  0  0  0  0  0  0  0  0  0  0
   -3.7681   -2.8816   -0.2818 H   0  0  0  0  0  0  0  0  0  0  0  0
   -2.1321   -2.2086    0.9112 C   0  0  0  0  0  0  0  0  0  0  0  0
   -1.2751   -2.8426    1.5112 O   0  0  0  0  0  0  0  0  0  0  0  0
   -1.9041   -1.0186    0.3602 N   0  0  0  0  0  0  0  0  0  0  0  0
   -2.6671   -0.5416   -0.0988 H   0  0  0  0  0  0  0  0  0  0  0  0
   -0.6131   -0.3236    0.3832 C   0  0  1  0  0  0  0  0  0  0  0  0
   -0.3420   -0.1272    1.4217 H   0  0  0  0  0  0  0  0  0  0  0  0
    0.4625   -1.2382   -0.2313 C   0  0  0  0  0  0  0  0  0  0  0  0
    0.1346   -1.5463   -1.2264 H   0  0  0  0  0  0  0  0  0  0  0  0
    1.3930   -0.6785   -0.3372 H   0  0  0  0  0  0  0  0  0  0  0  0
    0.7403   -2.4985    0.5961 C   0  0  0  0  0  0  0  0  0  0  0  0
   -0.1785   -3.0773    0.6850 H   0  0  0  0  0  0  0  0  0  0  0  0
    1.4857   -3.1014    0.0764 H   0  0  0  0  0  0  0  0  0  0  0  0
    1.3492   -2.1509    2.2659 S   0  0  0  0  0  0  0  0  0  0  0  0
    2.9880   -1.4900    1.8666 C   0  0  0  0  0  0  0  0  0  0  0  0
    2.8842   -0.6010    1.2438 H   0  0  0  0  0  0  0  0  0  0  0  0
    3.5049   -1.2238    2.7890 H   0  0  0  0  0  0  0  0  0  0  0  0
    3.5690   -2.2439    1.3346 H   0  0  0  0  0  0  0  0  0  0  0  0
   -0.7150    1.0229   -0.3474 C   0  0  0  0  0  0  0  0  0  0  0  0
   -0.7608    2.0705    0.2942 O   0  0  0  0  0  0  0  0  0  0  0  0
   -0.7593    0.9957   -1.6856 N   0  0  0  0  0  0  0  0  0  0  0  0
   -0.7017    0.0998   -2.1429 H   0  0  0  0  0  0  0  0  0  0  0  0
   -0.8711    2.1890   -2.5230 C   0  0  0  0  0  0  0  0  0  0  0  0
   -0.0370    2.8634   -2.3154 H   0  0  0  0  0  0  0  0  0  0  0  0
   -0.8574    1.9152   -3.5788 H   0  0  0  0  0  0  0  0  0  0  0  0
   -1.8023    2.7116   -2.2969 H   0  0  0  0  0  0  0  0  0  0  0  0
  5  6  2  0  0  0  0
  5  7  1  0  0  0  0
  2  3  1  0  0  0  0
  2  4  1  0  0  0  0
  2  5  1  0  0  0  0
  1  2  1  0  0  0  0
 22 23  2  0  0  0  0
 22 24  1  0  0  0  0
 18 19  1  0  0  0  0
 18 20  1  0  0  0  0
 18 21  1  0  0  0  0
 17 18  1  0  0  0  0
 14 15  1  0  0  0  0
 14 16  1  0  0  0  0
 14 17  1  0  0  0  0
 11 12  1  0  0  0  0
 11 13  1  0  0  0  0
 11 14  1  0  0  0  0
  9 10  1  0  0  0  0
  9 11  1  0  0  0  0
  9 22  1  0  0  0  0
  7  8  1  0  0  0  0
  7  9  1  0  0  0  0
 26 27  1  0  0  0  0
 26 28  1  0  0  0  0
 26 29  1  0  0  0  0
 24 25  1  0  0  0  0
 24 26  1  0  0  0  0
M  END
$$$$
default_name
  -OEChem-01062215323D

 29 28  0     1  0  0  0  0  0999 V2000
   -3.5781   -3.7296    1.2702 H   0  0  0  0  0  0  0  0  0  0  0  0
   -3.5311   -2.7616    0.7732 C   0  0  0  0  0  0  0  0  0  0  0  0
   -4.2371   -2.0766    1.2382 H   0  0  0  0  0  0  0  0  0  0  0  0
   -3.7681   -2.8816   -0.2818 H   0  0  0  0  0  0  0  0  0  0  0  0
   -2.1321   -2.2086    0.9112 C   0  0  0  0  0  0  0  0  0  0  0  0
   -1.2751   -2.8426    1.5112 O   0  0  0  0  0  0  0  0  0  0  0  0
   -1.9041   -1.0186    0.3602 N   0  0  0  0  0  0  0  0  0  0  0  0
   -2.6671   -0.5416   -0.0988 H   0  0  0  0  0  0  0  0  0  0  0  0
   -0.6131   -0.3236    0.3832 C   0  0  1  0  0  0  0  0  0  0  0  0
   -0.3420   -0.1272    1.4217 H   0  0  0  0  0  0  0  0  0  0  0  0
    0.4625   -1.2382   -0.2313 C   0  0  0  0  0  0  0  0  0  0  0  0
    0.1346   -1.5463   -1.2264 H   0  0  0  0  0  0  0  0  0  0  0  0
    1.3930   -0.6785   -0.3372 H   0  0  0  0  0  0  0  0  0  0  0  0
    0.7403   -2.4985    0.5961 C   0  0  0  0  0  0  0  0  0  0  0  0
   -0.1785   -3.0773    0.6850 H   0  0  0  0  0  0  0  0  0  0  0  0
    1.4857   -3.1014    0.0764 H   0  0  0  0  0  0  0  0  0  0  0  0
    1.3492   -2.1509    2.2659 S   0  0  0  0  0  0  0  0  0  0  0  0
    2.9880   -1.4900    1.8666 C   0  0  0  0  0  0  0  0  0  0  0  0
    2.8842   -0.6010    1.2438 H   0  0  0  0  0  0  0  0  0  0  0  0
    3.5049   -1.2238    2.7890 H   0  0  0  0  0  0  0  0  0  0  0  0
    3.5690   -2.2439    1.3346 H   0  0  0  0  0  0  0  0  0  0  0  0
   -0.7150    1.0229   -0.3474 C   0  0  0  0  0  0  0  0  0  0  0  0
   -0.4860    2.0699    0.2547 O   0  0  0  0  0  0  0  0  0  0  0  0
   -1.0663    0.9975   -1.6395 N   0  0  0  0  0  0  0  0  0  0  0  0
   -1.2235    0.1001   -2.0696 H   0  0  0  0  0  0  0  0  0  0  0  0
   -1.2207    2.1929   -2.4670 C   0  0  0  0  0  0  0  0  0  0  0  0
   -0.2858    2.7582   -2.4744 H   0  0  0  0  0  0  0  0  0  0  0  0
   -1.4814    1.9165   -3.4894 H   0  0  0  0  0  0  0  0  0  0  0  0
   -2.0054    2.8286   -2.0529 H   0  0  0  0  0  0  0  0  0  0  0  0
  5  6  2  0  0  0  0
  5  7  1  0  0  0  0
  2  3  1  0  0  0  0
  2  4  1  0  0  0  0
  2  5  1  0  0  0  0
  1  2  1  0  0  0  0
 22 23  2  0  0  0  0
 22 24  1  0  0  0  0
 18 19  1  0  0  0  0
 18 20  1  0  0  0  0
 18 21  1  0  0  0  0
 17 18  1  0  0  0  0
 14 15  1  0  0  0  0
 14 16  1  0  0  0  0
 14 17  1  0  0  0  0
 11 12  1  0  0  0  0
 11 13  1  0  0  0  0
 11 14  1  0  0  0  0
  9 10  1  0  0  0  0
  9 11  1  0  0  0  0
  9 22  1  0  0  0  0
  7  8  1  0  0  0  0
  7  9  1  0  0  0  0
 26 27  1  0  0  0  0
 26 28  1  0  0  0  0
 26 29  1  0  0  0  0
 24 25  1  0  0  0  0
 24 26  1  0  0  0  0
M  END
$$$$
default_name
  -OEChem-01062215323D

 29 28  0     1  0  0  0  0  0999 V2000
   -3.5781   -3.7296    1.2702 H   0  0  0  0  0  0  0  0  0  0  0  0
   -3.5311   -2.7616    0.7732 C   0  0  0  0  0  0  0  0  0  0  0  0
   -4.2371   -2.0766    1.2382 H   0  0  0  0  0  0  0  0  0  0  0  0
   -3.7681   -2.8816   -0.2818 H   0  0  0  0  0  0  0  0  0  0  0  0
   -2.1321   -2.2086    0.9112 C   0  0  0  0  0  0  0  0  0  0  0  0
   -1.2751   -2.8426    1.5112 O   0  0  0  0  0  0  0  0  0  0  0  0
   -1.9041   -1.0186    0.3602 N   0  0  0  0  0  0  0  0  0  0  0  0
   -2.6671   -0.5416   -0.0988 H   0  0  0  0  0  0  0  0  0  0  0  0
   -0.6131   -0.3236    0.3832 C   0  0  1  0  0  0  0  0  0  0  0  0
   -0.3420   -0.1272    1.4217 H   0  0  0  0  0  0  0  0  0  0  0  0
    0.4625   -1.2382   -0.2313 C   0  0  0  0  0  0  0  0  0  0  0  0
    0.1346   -1.5463   -1.2264 H   0  0  0  0  0  0  0  0  0  0  0  0
    1.3930   -0.6785   -0.3372 H   0  0  0  0  0  0  0  0  0  0  0  0
    0.7403   -2.4985    0.5961 C   0  0  0  0  0  0  0  0  0  0  0  0
   -0.1785   -3.0773    0.6850 H   0  0  0  0  0  0  0  0  0  0  0  0
    1.4857   -3.1014    0.0764 H   0  0  0  0  0  0  0  0  0  0  0  0
    1.3492   -2.1509    2.2659 S   0  0  0  0  0  0  0  0  0  0  0  0
    2.9880   -1.4900    1.8666 C   0  0  0  0  0  0  0  0  0  0  0  0
    2.8842   -0.6010    1.2438 H   0  0  0  0  0  0  0  0  0  0  0  0
    3.5049   -1.2238    2.7890 H   0  0  0  0  0  0  0  0  0  0  0  0
    3.5690   -2.2439    1.3346 H   0  0  0  0  0  0  0  0  0  0  0  0
   -0.7150    1.0229   -0.3474 C   0  0  0  0  0  0  0  0  0  0  0  0
   -0.2295    2.0348    0.1542 O   0  0  0  0  0  0  0  0  0  0  0  0
   -1.3521    1.0378   -1.5252 N   0  0  0  0  0  0  0  0  0  0  0  0
   -1.7108    0.1659   -1.8804 H   0  0  0  0  0  0  0  0  0  0  0  0
   -1.5451    2.2407   -2.3336 C   0  0  0  0  0  0  0  0  0  0  0  0
   -0.5751    2.6846   -2.5698 H   0  0  0  0  0  0  0  0  0  0  0  0
   -2.0637    1.9961   -3.2615 H   0  0  0  0  0  0  0  0  0  0  0  0
   -2.1317    2.9708   -1.7731 H   0  0  0  0  0  0  0  0  0  0  0  0
  5  6  2  0  0  0  0
  5  7  1  0  0  0  0
  2  3  1  0  0  0  0
  2  4  1  0  0  0  0
  2  5  1  0  0  0  0
  1  2  1  0  0  0  0
 22 23  2  0  0  0  0
 22 24  1  0  0  0  0
 18 19  1  0  0  0  0
 18 20  1  0  0  0  0
 18 21  1  0  0  0  0
 17 18  1  0  0  0  0
 14 15  1  0  0  0  0
 14 16  1  0  0  0  0
 14 17  1  0  0  0  0
 11 12  1  0  0  0  0
 11 13  1  0  0  0  0
 11 14  1  0  0  0  0
  9 10  1  0  0  0  0
  9 11  1  0  0  0  0
  9 22  1  0  0  0  0
  7  8  1  0  0  0  0
  7  9  1  0  0  0  0
 26 27  1  0  0  0  0
 26 28  1  0  0  0  0
 26 29  1  0  0  0  0
 24 25  1  0  0  0  0
 24 26  1  0  0  0  0
M  END
$$$$
default_name
  -OEChem-01062215323D

 29 28  0     1  0  0  0  0  0999 V2000
   -3.5781   -3.7296    1.2702 H   0  0  0  0  0  0  0  0  0  0  0  0
   -3.5311   -2.7616    0.7732 C   0  0  0  0  0  0  0  0  0  0  0  0
   -4.2371   -2.0766    1.2382 H   0  0  0  0  0  0  0  0  0  0  0  0
   -3.7681   -2.8816   -0.2818 H   0  0  0  0  0  0  0  0  0  0  0  0
   -2.1321   -2.2086    0.9112 C   0  0  0  0  0  0  0  0  0  0  0  0
   -1.2751   -2.8426    1.5112 O   0  0  0  0  0  0  0  0  0  0  0  0
   -1.9041   -1.0186    0.3602 N   0  0  0  0  0  0  0  0  0  0  0  0
   -2.6671   -0.5416   -0.0988 H   0  0  0  0  0  0  0  0  0  0  0  0
   -0.6131   -0.3236    0.3832 C   0  0  1  0  0  0  0  0  0  0  0  0
   -0.3420   -0.1272    1.4217 H   0  0  0  0  0  0  0  0  0  0  0  0
    0.4625   -1.2382   -0.2313 C   0  0  0  0  0  0  0  0  0  0  0  0
    0.1346   -1.5463   -1.2264 H   0  0  0  0  0  0  0  0  0  0  0  0
    1.3930   -0.6785   -0.3372 H   0  0  0  0  0  0  0  0  0  0  0  0
    0.7403   -2.4985    0.5961 C   0  0  0  0  0  0  0  0  0  0  0  0
   -0.1785   -3.0773    0.6850 H   0  0  0  0  0  0  0  0  0  0  0  0
    1.4857   -3.1014    0.0764 H   0  0  0  0  0  0  0  0  0  0  0  0
    1.3492   -2.1509    2.2659 S   0  0  0  0  0  0  0  0  0  0  0  0
    2.9880   -1.4900    1.8666 C   0  0  0  0  0  0  0  0  0  0  0  0
    2.8842   -0.6010    1.2438 H   0  0  0  0  0  0  0  0  0  0  0  0
    3.5049   -1.2238    2.7890 H   0  0  0  0  0  0  0  0  0  0  0  0
    3.5690   -2.2439    1.3346 H   0  0  0  0  0  0  0  0  0  0  0  0
   -0.7150    1.0229   -0.3474 C   0  0  0  0  0  0  0  0  0  0  0  0
   -0.0090    1.9676   -0.0004 O   0  0  0  0  0  0  0  0  0  0  0  0
   -1.5973    1.1140   -1.3507 N   0  0  0  0  0  0  0  0  0  0  0  0
   -2.1305    0.2927   -1.5881 H   0  0  0  0  0  0  0  0  0  0  0  0
   -1.8224    2.3292   -2.1320 C   0  0  0  0  0  0  0  0  0  0  0  0
   -0.8854    2.6474   -2.5950 H   0  0  0  0  0  0  0  0  0  0  0  0
   -2.5646    2.1486   -2.9106 H   0  0  0  0  0  0  0  0  0  0  0  0
   -2.1728    3.1286   -1.4767 H   0  0  0  0  0  0  0  0  0  0  0  0
  5  6  2  0  0  0  0
  5  7  1  0  0  0  0
  2  3  1  0  0  0  0
  2  4  1  0  0  0  0
  2  5  1  0  0  0  0
  1  2  1  0  0  0  0
 22 23  2  0  0  0  0
 22 24  1  0  0  0  0
 18 19  1  0  0  0  0
 18 20  1  0  0  0  0
 18 21  1  0  0  0  0
 17 18  1  0  0  0  0
 14 15  1  0  0  0  0
 14 16  1  0  0  0  0
 14 17  1  0  0  0  0
 11 12  1  0  0  0  0
 11 13  1  0  0  0  0
 11 14  1  0  0  0  0
  9 10  1  0  0  0  0
  9 11  1  0  0  0  0
  9 22  1  0  0  0  0
  7  8  1  0  0  0  0
  7  9  1  0  0  0  0
 26 27  1  0  0  0  0
 26 28  1  0  0  0  0
 26 29  1  0  0  0  0
 24 25  1  0  0  0  0
 24 26  1  0  0  0  0
M  END
$$$$
default_name
  -OEChem-01062215323D

 29 28  0     1  0  0  0  0  0999 V2000
   -3.5781   -3.7296    1.2702 H   0  0  0  0  0  0  0  0  0  0  0  0
   -3.5311   -2.7616    0.7732 C   0  0  0  0  0  0  0  0  0  0  0  0
   -4.2371   -2.0766    1.2382 H   0  0  0  0  0  0  0  0  0  0  0  0
   -3.7681   -2.8816   -0.2818 H   0  0  0  0  0  0  0  0  0  0  0  0
   -2.1321   -2.2086    0.9112 C   0  0  0  0  0  0  0  0  0  0  0  0
   -1.2751   -2.8426    1.5112 O   0  0  0  0  0  0  0  0  0  0  0  0
   -1.9041   -1.0186    0.3602 N   0  0  0  0  0  0  0  0  0  0  0  0
   -2.6671   -0.5416   -0.0988 H   0  0  0  0  0  0  0  0  0  0  0  0
   -0.6131   -0.3236    0.3832 C   0  0  1  0  0  0  0  0  0  0  0  0
   -0.3420   -0.1272    1.4217 H   0  0  0  0  0  0  0  0  0  0  0  0
    0.4625   -1.2382   -0.2313 C   0  0  0  0  0  0  0  0  0  0  0  0
    0.1346   -1.5463   -1.2264 H   0  0  0  0  0  0  0  0  0  0  0  0
    1.3930   -0.6785   -0.3372 H   0  0  0  0  0  0  0  0  0  0  0  0
    0.7403   -2.4985    0.5961 C   0  0  0  0  0  0  0  0  0  0  0  0
   -0.1785   -3.0773    0.6850 H   0  0  0  0  0  0  0  0  0  0  0  0
    1.4857   -3.1014    0.0764 H   0  0  0  0  0  0  0  0  0  0  0  0
    1.3492   -2.1509    2.2659 S   0  0  0  0  0  0  0  0  0  0  0  0
    2.9880   -1.4900    1.8666 C   0  0  0  0  0  0  0  0  0  0  0  0
    2.8842   -0.6010    1.2438 H   0  0  0  0  0  0  0  0  0  0  0  0
    3.5049   -1.2238    2.7890 H   0  0  0  0  0  0  0  0  0  0  0  0
    3.5690   -2.2439    1.3346 H   0  0  0  0  0  0  0  0  0  0  0  0
   -0.7150    1.0229   -0.3474 C   0  0  0  0  0  0  0  0  0  0  0  0
    0.1607    1.8728   -0.1987 O   0  0  0  0  0  0  0  0  0  0  0  0
   -1.7852    1.2207   -1.1278 N   0  0  0  0  0  0  0  0  0  0  0  0
   -2.4539    0.4719   -1.2127 H   0  0  0  0  0  0  0  0  0  0  0  0
   -2.0335    2.4522   -1.8758 C   0  0  0  0  0  0  0  0  0  0  0  0
   -1.1953    2.6493   -2.5483 H   0  0  0  0  0  0  0  0  0  0  0  0
   -2.9500    2.3637   -2.4605 H   0  0  0  0  0  0  0  0  0  0  0  0
   -2.1257    3.2912   -1.1837 H   0  0  0  0  0  0  0  0  0  0  0  0
  5  6  2  0  0  0  0
  5  7  1  0  0  0  0
  2  3  1  0  0  0  0
  2  4  1  0  0  0  0
  2  5  1  0  0  0  0
  1  2  1  0  0  0  0
 22 23  2  0  0  0  0
 22 24  1  0  0  0  0
 18 19  1  0  0  0  0
 18 20  1  0  0  0  0
 18 21  1  0  0  0  0
 17 18  1  0  0  0  0
 14 15  1  0  0  0  0
 14 16  1  0  0  0  0
 14 17  1  0  0  0  0
 11 12  1  0  0  0  0
 11 13  1  0  0  0  0
 11 14  1  0  0  0  0
  9 10  1  0  0  0  0
  9 11  1  0  0  0  0
  9 22  1  0  0  0  0
  7  8  1  0  0  0  0
  7  9  1  0  0  0  0
 26 27  1  0  0  0  0
 26 28  1  0  0  0  0
 26 29  1  0  0  0  0
 24 25  1  0  0  0  0
 24 26  1  0  0  0  0
M  END
$$$$
default_name
  -OEChem-01062215323D

 29 28  0     1  0  0  0  0  0999 V2000
   -3.5781   -3.7296    1.2702 H   0  0  0  0  0  0  0  0  0  0  0  0
   -3.5311   -2.7616    0.7732 C   0  0  0  0  0  0  0  0  0  0  0  0
   -4.2371   -2.0766    1.2382 H   0  0  0  0  0  0  0  0  0  0  0  0
   -3.7681   -2.8816   -0.2818 H   0  0  0  0  0  0  0  0  0  0  0  0
   -2.1321   -2.2086    0.9112 C   0  0  0  0  0  0  0  0  0  0  0  0
   -1.2751   -2.8426    1.5112 O   0  0  0  0  0  0  0  0  0  0  0  0
   -1.9041   -1.0186    0.3602 N   0  0  0  0  0  0  0  0  0  0  0  0
   -2.6671   -0.5416   -0.0988 H   0  0  0  0  0  0  0  0  0  0  0  0
   -0.6131   -0.3236    0.3832 C   0  0  1  0  0  0  0  0  0  0  0  0
   -0.3420   -0.1272    1.4217 H   0  0  0  0  0  0  0  0  0  0  0  0
    0.4625   -1.2382   -0.2313 C   0  0  0  0  0  0  0  0  0  0  0  0
    0.1346   -1.5463   -1.2264 H   0  0  0  0  0  0  0  0  0  0  0  0
    1.3930   -0.6785   -0.3372 H   0  0  0  0  0  0  0  0  0  0  0  0
    0.7403   -2.4985    0.5961 C   0  0  0  0  0  0  0  0  0  0  0  0
   -0.1785   -3.0773    0.6850 H   0  0  0  0  0  0  0  0  0  0  0  0
    1.4857   -3.1014    0.0764 H   0  0  0  0  0  0  0  0  0  0  0  0
    1.3492   -2.1509    2.2659 S   0  0  0  0  0  0  0  0  0  0  0  0
    2.9880   -1.4900    1.8666 C   0  0  0  0  0  0  0  0  0  0  0  0
    2.8842   -0.6010    1.2438 H   0  0  0  0  0  0  0  0  0  0  0  0
    3.5049   -1.2238    2.7890 H   0  0  0  0  0  0  0  0  0  0  0  0
    3.5690   -2.2439    1.3346 H   0  0  0  0  0  0  0  0  0  0  0  0
   -0.7150    1.0229   -0.3474 C   0  0  0  0  0  0  0  0  0  0  0  0
    0.2679    1.7570   -0.4272 O   0  0  0  0  0  0  0  0  0  0  0  0
   -1.9029    1.3508   -0.8717 N   0  0  0  0  0  0  0  0  0  0  0  0
   -2.6590    0.6913   -0.7797 H   0  0  0  0  0  0  0  0  0  0  0  0
   -2.1641    2.6015   -1.5825 C   0  0  0  0  0  0  0  0  0  0  0  0
   -1.4838    2.6901   -2.4328 H   0  0  0  0  0  0  0  0  0  0  0  0
   -3.1936    2.6266   -1.9420 H   0  0  0  0  0  0  0  0  0  0  0  0
   -1.9936    3.4474   -0.9142 H   0  0  0  0  0  0  0  0  0  0  0  0
  5  6  2  0  0  0  0
  5  7  1  0  0  0  0
  2  3  1  0  0  0  0
  2  4  1  0  0  0  0
  2  5  1  0  0  0  0
  1  2  1  0  0  0  0
 22 23  2  0  0  0  0
 22 24  1  0  0  0  0
 18 19  1  0  0  0  0
 18 20  1  0  0  0  0
 18 21  1  0  0  0  0
 17 18  1  0  0  0  0
 14 15  1  0  0  0  0
 14 16  1  0  0  0  0
 14 17  1  0  0  0  0
 11 12  1  0  0  0  0
 11 13  1  0  0  0  0
 11 14  1  0  0  0  0
  9 10  1  0  0  0  0
  9 11  1  0  0  0  0
  9 22  1  0  0  0  0
  7  8  1  0  0  0  0
  7  9  1  0  0  0  0
 26 27  1  0  0  0  0
 26 28  1  0  0  0  0
 26 29  1  0  0  0  0
 24 25  1  0  0  0  0
 24 26  1  0  0  0  0
M  END
$$$$
default_name
  -OEChem-01062215323D

 29 28  0     1  0  0  0  0  0999 V2000
   -3.5781   -3.7296    1.2702 H   0  0  0  0  0  0  0  0  0  0  0  0
   -3.5311   -2.7616    0.7732 C   0  0  0  0  0  0  0  0  0  0  0  0
   -4.2371   -2.0766    1.2382 H   0  0  0  0  0  0  0  0  0  0  0  0
   -3.7681   -2.8816   -0.2818 H   0  0  0  0  0  0  0  0  0  0  0  0
   -2.1321   -2.2086    0.9112 C   0  0  0  0  0  0  0  0  0  0  0  0
   -1.2751   -2.8426    1.5112 O   0  0  0  0  0  0  0  0  0  0  0  0
   -1.9041   -1.0186    0.3602 N   0  0  0  0  0  0  0  0  0  0  0  0
   -2.6671   -0.5416   -0.0988 H   0  0  0  0  0  0  0  0  0  0  0  0
   -0.6131   -0.3236    0.3832 C   0  0  1  0  0  0  0  0  0  0  0  0
   -0.3420   -0.1272    1.4217 H   0  0  0  0  0  0  0  0  0  0  0  0
    0.4625   -1.2382   -0.2313 C   0  0  0  0  0  0  0  0  0  0  0  0
    0.1346   -1.5463   -1.2264 H   0  0  0  0  0  0  0  0  0  0  0  0
    1.3930   -0.6785   -0.3372 H   0  0  0  0  0  0  0  0  0  0  0  0
    0.7403   -2.4985    0.5961 C   0  0  0  0  0  0  0  0  0  0  0  0
   -0.1785   -3.0773    0.6850 H   0  0  0  0  0  0  0  0  0  0  0  0
    1.4857   -3.1014    0.0764 H   0  0  0  0  0  0  0  0  0  0  0  0
    1.3492   -2.1509    2.2659 S   0  0  0  0  0  0  0  0  0  0  0  0
    2.9880   -1.4900    1.8666 C   0  0  0  0  0  0  0  0  0  0  0  0
    2.8842   -0.6010    1.2438 H   0  0  0  0  0  0  0  0  0  0  0  0
    3.5049   -1.2238    2.7890 H   0  0  0  0  0  0  0  0  0  0  0  0
    3.5690   -2.2439    1.3346 H   0  0  0  0  0  0  0  0  0  0  0  0
   -0.7150    1.0229   -0.3474 C   0  0  0  0  0  0  0  0  0  0  0  0
    0.3053    1.6280   -0.6701 O   0  0  0  0  0  0  0  0  0  0  0  0
   -1.9424    1.4953   -0.5998 N   0  0  0  0  0  0  0  0  0  0  0  0
   -2.7319    0.9360   -0.3188 H   0  0  0  0  0  0  0  0  0  0  0  0
   -2.2053    2.7668   -1.2721 C   0  0  0  0  0  0  0  0  0  0  0  0
   -1.7313    2.7671   -2.2565 H   0  0  0  0  0  0  0  0  0  0  0  0
   -3.2789    2.9194   -1.3904 H   0  0  0  0  0  0  0  0  0  0  0  0
   -1.7857    3.5867   -0.6865 H   0  0  0  0  0  0  0  0  0  0  0  0
  5  6  2  0  0  0  0
  5  7  1  0  0  0  0
  2  3  1  0  0  0  0
  2  4  1  0  0  0  0
  2  5  1  0  0  0  0
  1  2  1  0  0  0  0
 22 23  2  0  0  0  0
 22 24  1  0  0  0  0
 18 19  1  0  0  0  0
 18 20  1  0  0  0  0
 18 21  1  0  0  0  0
 17 18  1  0  0  0  0
 14 15  1  0  0  0  0
 14 16  1  0  0  0  0
 14 17  1  0  0  0  0
 11 12  1  0  0  0  0
 11 13  1  0  0  0  0
 11 14  1  0  0  0  0
  9 10  1  0  0  0  0
  9 11  1  0  0  0  0
  9 22  1  0  0  0  0
  7  8  1  0  0  0  0
  7  9  1  0  0  0  0
 26 27  1  0  0  0  0
 26 28  1  0  0  0  0
 26 29  1  0  0  0  0
 24 25  1  0  0  0  0
 24 26  1  0  0  0  0
M  END
$$$$
default_name
  -OEChem-01062215323D

 29 28  0     1  0  0  0  0  0999 V2000
   -3.5781   -3.7296    1.2702 H   0  0  0  0  0  0  0  0  0  0  0  0
   -3.5311   -2.7616    0.7732 C   0  0  0  0  0  0  0  0  0  0  0  0
   -4.2371   -2.0766    1.2382 H   0  0  0  0  0  0  0  0  0  0  0  0
   -3.7681   -2.8816   -0.2818 H   0  0  0  0  0  0  0  0  0  0  0  0
   -2.1321   -2.2086    0.9112 C   0  0  0  0  0  0  0  0  0  0  0  0
   -1.2751   -2.8426    1.5112 O   0  0  0  0  0  0  0  0  0  0  0  0
   -1.9041   -1.0186    0.3602 N   0  0  0  0  0  0  0  0  0  0  0  0
   -2.6671   -0.5416   -0.0988 H   0  0  0  0  0  0  0  0  0  0  0  0
   -0.6131   -0.3236    0.3832 C   0  0  1  0  0  0  0  0  0  0  0  0
   -0.3420   -0.1272    1.4217 H   0  0  0  0  0  0  0  0  0  0  0  0
    0.4625   -1.2382   -0.2313 C   0  0  0  0  0  0  0  0  0  0  0  0
    0.1346   -1.5463   -1.2264 H   0  0  0  0  0  0  0  0  0  0  0  0
    1.3930   -0.6785   -0.3372 H   0  0  0  0  0  0  0  0  0  0  0  0
    0.7403   -2.4985    0.5961 C   0  0  0  0  0  0  0  0  0  0  0  0
   -0.1785   -3.0773    0.6850 H   0  0  0  0  0  0  0  0  0  0  0  0
    1.4857   -3.1014    0.0764 H   0  0  0  0  0  0  0  0  0  0  0  0
    1.3492   -2.1509    2.2659 S   0  0  0  0  0  0  0  0  0  0  0  0
    2.9880   -1.4900    1.8666 C   0  0  0  0  0  0  0  0  0  0  0  0
    2.8842   -0.6010    1.2438 H   0  0  0  0  0  0  0  0  0  0  0  0
    3.5049   -1.2238    2.7890 H   0  0  0  0  0  0  0  0  0  0  0  0
    3.5690   -2.2439    1.3346 H   0  0  0  0  0  0  0  0  0  0  0  0
   -0.7150    1.0229   -0.3474 C   0  0  0  0  0  0  0  0  0  0  0  0
    0.2704    1.4946   -0.9111 O   0  0  0  0  0  0  0  0  0  0  0  0
   -1.9011    1.6445   -0.3307 N   0  0  0  0  0  0  0  0  0  0  0  0
   -2.6674    1.1891    0.1388 H   0  0  0  0  0  0  0  0  0  0  0  0
   -2.1543    2.9368   -0.9658 C   0  0  0  0  0  0  0  0  0  0  0  0
   -1.9209    2.8749   -2.0314 H   0  0  0  0  0  0  0  0  0  0  0  0
   -3.1999    3.2223   -0.8432 H   0  0  0  0  0  0  0  0  0  0  0  0
   -1.5160    3.6995   -0.5162 H   0  0  0  0  0  0  0  0  0  0  0  0
  5  6  2  0  0  0  0
  5  7  1  0  0  0  0
  2  3  1  0  0  0  0
  2  4  1  0  0  0  0
  2  5  1  0  0  0  0
  1  2  1  0  0  0  0
 22 23  2  0  0  0  0
 22 24  1  0  0  0  0
 18 19  1  0  0  0  0
 18 20  1  0  0  0  0
 18 21  1  0  0  0  0
 17 18  1  0  0  0  0
 14 15  1  0  0  0  0
 14 16  1  0  0  0  0
 14 17  1  0  0  0  0
 11 12  1  0  0  0  0
 11 13  1  0  0  0  0
 11 14  1  0  0  0  0
  9 10  1  0  0  0  0
  9 11  1  0  0  0  0
  9 22  1  0  0  0  0
  7  8  1  0  0  0  0
  7  9  1  0  0  0  0
 26 27  1  0  0  0  0
 26 28  1  0  0  0  0
 26 29  1  0  0  0  0
 24 25  1  0  0  0  0
 24 26  1  0  0  0  0
M  END
$$$$
default_name
  -OEChem-01062215323D

 29 28  0     1  0  0  0  0  0999 V2000
   -3.5781   -3.7296    1.2702 H   0  0  0  0  0  0  0  0  0  0  0  0
   -3.5311   -2.7616    0.7732 C   0  0  0  0  0  0  0  0  0  0  0  0
   -4.2371   -2.0766    1.2382 H   0  0  0  0  0  0  0  0  0  0  0  0
   -3.7681   -2.8816   -0.2818 H   0  0  0  0  0  0  0  0  0  0  0  0
   -2.1321   -2.2086    0.9112 C   0  0  0  0  0  0  0  0  0  0  0  0
   -1.2751   -2.8426    1.5112 O   0  0  0  0  0  0  0  0  0  0  0  0
   -1.9041   -1.0186    0.3602 N   0  0  0  0  0  0  0  0  0  0  0  0
   -2.6671   -0.5416   -0.0988 H   0  0  0  0  0  0  0  0  0  0  0  0
   -0.6131   -0.3236    0.3832 C   0  0  1  0  0  0  0  0  0  0  0  0
   -0.3420   -0.1272    1.4217 H   0  0  0  0  0  0  0  0  0  0  0  0
    0.4625   -1.2382   -0.2313 C   0  0  0  0  0  0  0  0  0  0  0  0
    0.1346   -1.5463   -1.2264 H   0  0  0  0  0  0  0  0  0  0  0  0
    1.3930   -0.6785   -0.3372 H   0  0  0  0  0  0  0  0  0  0  0  0
    0.7403   -2.4985    0.5961 C   0  0  0  0  0  0  0  0  0  0  0  0
   -0.1785   -3.0773    0.6850 H   0  0  0  0  0  0  0  0  0  0  0  0
    1.4857   -3.1014    0.0764 H   0  0  0  0  0  0  0  0  0  0  0  0
    1.3492   -2.1509    2.2659 S   0  0  0  0  0  0  0  0  0  0  0  0
    2.9880   -1.4900    1.8666 C   0  0  0  0  0  0  0  0  0  0  0  0
    2.8842   -0.6010    1.2438 H   0  0  0  0  0  0  0  0  0  0  0  0
    3.5049   -1.2238    2.7890 H   0  0  0  0  0  0  0  0  0  0  0  0
    3.5690   -2.2439    1.3346 H   0  0  0  0  0  0  0  0  0  0  0  0
   -0.7150    1.0229   -0.3474 C   0  0  0  0  0  0  0  0  0  0  0  0
    0.1656    1.3659   -1.1337 O   0  0  0  0  0  0  0  0  0  0  0  0
   -1.7817    1.7881   -0.0827 N   0  0  0  0  0  0  0  0  0  0  0  0
   -2.4702    1.4336    0.5619 H   0  0  0  0  0  0  0  0  0  0  0  0
   -2.0146    3.1001   -0.6845 C   0  0  0  0  0  0  0  0  0  0  0  0
   -2.0396    3.0063   -1.7727 H   0  0  0  0  0  0  0  0  0  0  0  0
   -2.9622    3.5145   -0.3379 H   0  0  0  0  0  0  0  0  0  0  0  0
   -1.2030    3.7782   -0.4148 H   0  0  0  0  0  0  0  0  0  0  0  0
  5  6  2  0  0  0  0
  5  7  1  0  0  0  0
  2  3  1  0  0  0  0
  2  4  1  0  0  0  0
  2  5  1  0  0  0  0
  1  2  1  0  0  0  0
 22 23  2  0  0  0  0
 22 24  1  0  0  0  0
 18 19  1  0  0  0  0
 18 20  1  0  0  0  0
 18 21  1  0  0  0  0
 17 18  1  0  0  0  0
 14 15  1  0  0  0  0
 14 16  1  0  0  0  0
 14 17  1  0  0  0  0
 11 12  1  0  0  0  0
 11 13  1  0  0  0  0
 11 14  1  0  0  0  0
  9 10  1  0  0  0  0
  9 11  1  0  0  0  0
  9 22  1  0  0  0  0
  7  8  1  0  0  0  0
  7  9  1  0  0  0  0
 26 27  1  0  0  0  0
 26 28  1  0  0  0  0
 26 29  1  0  0  0  0
 24 25  1  0  0  0  0
 24 26  1  0  0  0  0
M  END
$$$$
default_name
  -OEChem-01062215323D

 29 28  0     1  0  0  0  0  0999 V2000
   -3.5781   -3.7296    1.2702 H   0  0  0  0  0  0  0  0  0  0  0  0
   -3.5311   -2.7616    0.7732 C   0  0  0  0  0  0  0  0  0  0  0  0
   -4.2371   -2.0766    1.2382 H   0  0  0  0  0  0  0  0  0  0  0  0
   -3.7681   -2.8816   -0.2818 H   0  0  0  0  0  0  0  0  0  0  0  0
   -2.1321   -2.2086    0.9112 C   0  0  0  0  0  0  0  0  0  0  0  0
   -1.2751   -2.8426    1.5112 O   0  0  0  0  0  0  0  0  0  0  0  0
   -1.9041   -1.0186    0.3602 N   0  0  0  0  0  0  0  0  0  0  0  0
   -2.6671   -0.5416   -0.0988 H   0  0  0  0  0  0  0  0  0  0  0  0
   -0.6131   -0.3236    0.3832 C   0  0  1  0  0  0  0  0  0  0  0  0
   -0.3420   -0.1272    1.4217 H   0  0  0  0  0  0  0  0  0  0  0  0
    0.4625   -1.2382   -0.2313 C   0  0  0  0  0  0  0  0  0  0  0  0
    0.1346   -1.5463   -1.2264 H   0  0  0  0  0  0  0  0  0  0  0  0
    1.3930   -0.6785   -0.3372 H   0  0  0  0  0  0  0  0  0  0  0  0
    0.7403   -2.4985    0.5961 C   0  0  0  0  0  0  0  0  0  0  0  0
   -0.1785   -3.0773    0.6850 H   0  0  0  0  0  0  0  0  0  0  0  0
    1.4857   -3.1014    0.0764 H   0  0  0  0  0  0  0  0  0  0  0  0
    1.3492   -2.1509    2.2659 S   0  0  0  0  0  0  0  0  0  0  0  0
    2.9880   -1.4900    1.8666 C   0  0  0  0  0  0  0  0  0  0  0  0
    2.8842   -0.6010    1.2438 H   0  0  0  0  0  0  0  0  0  0  0  0
    3.5049   -1.2238    2.7890 H   0  0  0  0  0  0  0  0  0  0  0  0
    3.5690   -2.2439    1.3346 H   0  0  0  0  0  0  0  0  0  0  0  0
   -0.7150    1.0229   -0.3474 C   0  0  0  0  0  0  0  0  0  0  0  0
   -0.0020    1.2506   -1.3227 O   0  0  0  0  0  0  0  0  0  0  0  0
   -1.5924    1.9163    0.1273 N   0  0  0  0  0  0  0  0  0  0  0  0
   -2.1535    1.6527    0.9215 H   0  0  0  0  0  0  0  0  0  0  0  0
   -1.7957    3.2454   -0.4472 C   0  0  0  0  0  0  0  0  0  0  0  0
   -2.0793    3.1522   -1.4982 H   0  0  0  0  0  0  0  0  0  0  0  0
   -2.5818    3.7762    0.0913 H   0  0  0  0  0  0  0  0  0  0  0  0
   -0.8679    3.8174   -0.3893 H   0  0  0  0  0  0  0  0  0  0  0  0
  5  6  2  0  0  0  0
  5  7  1  0  0  0  0
  2  3  1  0  0  0  0
  2  4  1  0  0  0  0
  2  5  1  0  0  0  0
  1  2  1  0  0  0  0
 22 23  2  0  0  0  0
 22 24  1  0  0  0  0
 18 19  1  0  0  0  0
 18 20  1  0  0  0  0
 18 21  1  0  0  0  0
 17 18  1  0  0  0  0
 14 15  1  0  0  0  0
 14 16  1  0  0  0  0
 14 17  1  0  0  0  0
 11 12  1  0  0  0  0
 11 13  1  0  0  0  0
 11 14  1  0  0  0  0
  9 10  1  0  0  0  0
  9 11  1  0  0  0  0
  9 22  1  0  0  0  0
  7  8  1  0  0  0  0
  7  9  1  0  0  0  0
 26 27  1  0  0  0  0
 26 28  1  0  0  0  0
 26 29  1  0  0  0  0
 24 25  1  0  0  0  0
 24 26  1  0  0  0  0
M  END
$$$$
default_name
  -OEChem-01062215323D

 29 28  0     1  0  0  0  0  0999 V2000
   -3.5781   -3.7296    1.2702 H   0  0  0  0  0  0  0  0  0  0  0  0
   -3.5311   -2.7616    0.7732 C   0  0  0  0  0  0  0  0  0  0  0  0
   -4.2371   -2.0766    1.2382 H   0  0  0  0  0  0  0  0  0  0  0  0
   -3.7681   -2.8816   -0.2818 H   0  0  0  0  0  0  0  0  0  0  0  0
   -2.1321   -2.2086    0.9112 C   0  0  0  0  0  0  0  0  0  0  0  0
   -1.2751   -2.8426    1.5112 O   0  0  0  0  0  0  0  0  0  0  0  0
   -1.9041   -1.0186    0.3602 N   0  0  0  0  0  0  0  0  0  0  0  0
   -2.6671   -0.5416   -0.0988 H   0  0  0  0  0  0  0  0  0  0  0  0
   -0.6131   -0.3236    0.3832 C   0  0  1  0  0  0  0  0  0  0  0  0
   -0.3420   -0.1272    1.4217 H   0  0  0  0  0  0  0  0  0  0  0  0
    0.4625   -1.2382   -0.2313 C   0  0  0  0  0  0  0  0  0  0  0  0
    0.1346   -1.5463   -1.2264 H   0  0  0  0  0  0  0  0  0  0  0  0
    1.3930   -0.6785   -0.3372 H   0  0  0  0  0  0  0  0  0  0  0  0
    0.7403   -2.4985    0.5961 C   0  0  0  0  0  0  0  0  0  0  0  0
   -0.1785   -3.0773    0.6850 H   0  0  0  0  0  0  0  0  0  0  0  0
    1.4857   -3.1014    0.0764 H   0  0  0  0  0  0  0  0  0  0  0  0
    1.3492   -2.1509    2.2659 S   0  0  0  0  0  0  0  0  0  0  0  0
    2.9880   -1.4900    1.8666 C   0  0  0  0  0  0  0  0  0  0  0  0
    2.8842   -0.6010    1.2438 H   0  0  0  0  0  0  0  0  0  0  0  0
    3.5049   -1.2238    2.7890 H   0  0  0  0  0  0  0  0  0  0  0  0
    3.5690   -2.2439    1.3346 H   0  0  0  0  0  0  0  0  0  0  0  0
   -0.7150    1.0229   -0.3474 C   0  0  0  0  0  0  0  0  0  0  0  0
   -0.2210    1.1567   -1.4652 O   0  0  0  0  0  0  0  0  0  0  0  0
   -1.3461    2.0205    0.2849 N   0  0  0  0  0  0  0  0  0  0  0  0
   -1.7389    1.8316    1.1933 H   0  0  0  0  0  0  0  0  0  0  0  0
   -1.5124    3.3628   -0.2702 C   0  0  0  0  0  0  0  0  0  0  0  0
   -2.0375    3.3028   -1.2265 H   0  0  0  0  0  0  0  0  0  0  0  0
   -2.0848    3.9895    0.4150 H   0  0  0  0  0  0  0  0  0  0  0  0
   -0.5336    3.8144   -0.4414 H   0  0  0  0  0  0  0  0  0  0  0  0
  5  6  2  0  0  0  0
  5  7  1  0  0  0  0
  2  3  1  0  0  0  0
  2  4  1  0  0  0  0
  2  5  1  0  0  0  0
  1  2  1  0  0  0  0
 22 23  2  0  0  0  0
 22 24  1  0  0  0  0
 18 19  1  0  0  0  0
 18 20  1  0  0  0  0
 18 21  1  0  0  0  0
 17 18  1  0  0  0  0
 14 15  1  0  0  0  0
 14 16  1  0  0  0  0
 14 17  1  0  0  0  0
 11 12  1  0  0  0  0
 11 13  1  0  0  0  0
 11 14  1  0  0  0  0
  9 10  1  0  0  0  0
  9 11  1  0  0  0  0
  9 22  1  0  0  0  0
  7  8  1  0  0  0  0
  7  9  1  0  0  0  0
 26 27  1  0  0  0  0
 26 28  1  0  0  0  0
 26 29  1  0  0  0  0
 24 25  1  0  0  0  0
 24 26  1  0  0  0  0
M  END
$$$$
default_name
  -OEChem-01062215323D

 29 28  0     1  0  0  0  0  0999 V2000
   -3.5781   -3.7296    1.2702 H   0  0  0  0  0  0  0  0  0  0  0  0
   -3.5311   -2.7616    0.7732 C   0  0  0  0  0  0  0  0  0  0  0  0
   -4.2371   -2.0766    1.2382 H   0  0  0  0  0  0  0  0  0  0  0  0
   -3.7681   -2.8816   -0.2818 H   0  0  0  0  0  0  0  0  0  0  0  0
   -2.1321   -2.2086    0.9112 C   0  0  0  0  0  0  0  0  0  0  0  0
   -1.2751   -2.8426    1.5112 O   0  0  0  0  0  0  0  0  0  0  0  0
   -1.9041   -1.0186    0.3602 N   0  0  0  0  0  0  0  0  0  0  0  0
   -2.6671   -0.5416   -0.0988 H   0  0  0  0  0  0  0  0  0  0  0  0
   -0.6131   -0.3236    0.3832 C   0  0  1  0  0  0  0  0  0  0  0  0
   -0.3420   -0.1272    1.4217 H   0  0  0  0  0  0  0  0  0  0  0  0
    0.4625   -1.2382   -0.2313 C   0  0  0  0  0  0  0  0  0  0  0  0
    0.1346   -1.5463   -1.2264 H   0  0  0  0  0  0  0  0  0  0  0  0
    1.3930   -0.6785   -0.3372 H   0  0  0  0  0  0  0  0  0  0  0  0
    0.7403   -2.4985    0.5961 C   0  0  0  0  0  0  0  0  0  0  0  0
   -0.1785   -3.0773    0.6850 H   0  0  0  0  0  0  0  0  0  0  0  0
    1.4857   -3.1014    0.0764 H   0  0  0  0  0  0  0  0  0  0  0  0
    1.3492   -2.1509    2.2659 S   0  0  0  0  0  0  0  0  0  0  0  0
    2.9880   -1.4900    1.8666 C   0  0  0  0  0  0  0  0  0  0  0  0
    2.8842   -0.6010    1.2438 H   0  0  0  0  0  0  0  0  0  0  0  0
    3.5049   -1.2238    2.7890 H   0  0  0  0  0  0  0  0  0  0  0  0
    3.5690   -2.2439    1.3346 H   0  0  0  0  0  0  0  0  0  0  0  0
   -0.7150    1.0229   -0.3474 C   0  0  0  0  0  0  0  0  0  0  0  0
   -0.4765    1.0906   -1.5515 O   0  0  0  0  0  0  0  0  0  0  0  0
   -1.0596    2.0935    0.3795 N   0  0  0  0  0  0  0  0  0  0  0  0
   -1.2548    1.9579    1.3586 H   0  0  0  0  0  0  0  0  0  0  0  0
   -1.1842    3.4445   -0.1656 C   0  0  0  0  0  0  0  0  0  0  0  0
   -1.9168    3.4478   -0.9762 H   0  0  0  0  0  0  0  0  0  0  0  0
   -1.5049    4.1398    0.6112 H   0  0  0  0  0  0  0  0  0  0  0  0
   -0.2229    3.7695   -0.5675 H   0  0  0  0  0  0  0  0  0  0  0  0
  5  6  2  0  0  0  0
  5  7  1  0  0  0  0
  2  3  1  0  0  0  0
  2  4  1  0  0  0  0
  2  5  1  0  0  0  0
  1  2  1  0  0  0  0
 22 23  2  0  0  0  0
 22 24  1  0  0  0  0
 18 19  1  0  0  0  0
 18 20  1  0  0  0  0
 18 21  1  0  0  0  0
 17 18  1  0  0  0  0
 14 15  1  0  0  0  0
 14 16  1  0  0  0  0
 14 17  1  0  0  0  0
 11 12  1  0  0  0  0
 11 13  1  0  0  0  0
 11 14  1  0  0  0  0
  9 10  1  0  0  0  0
  9 11  1  0  0  0  0
  9 22  1  0  0  0  0
  7  8  1  0  0  0  0
  7  9  1  0  0  0  0
 26 27  1  0  0  0  0
 26 28  1  0  0  0  0
 26 29  1  0  0  0  0
 24 25  1  0  0  0  0
 24 26  1  0  0  0  0
M  END
$$$$
default_name
  -OEChem-01062215323D

 29 28  0     1  0  0  0  0  0999 V2000
   -3.5781   -3.7296    1.2702 H   0  0  0  0  0  0  0  0  0  0  0  0
   -3.5311   -2.7616    0.7732 C   0  0  0  0  0  0  0  0  0  0  0  0
   -4.2371   -2.0766    1.2382 H   0  0  0  0  0  0  0  0  0  0  0  0
   -3.7681   -2.8816   -0.2818 H   0  0  0  0  0  0  0  0  0  0  0  0
   -2.1321   -2.2086    0.9112 C   0  0  0  0  0  0  0  0  0  0  0  0
   -1.2751   -2.8426    1.5112 O   0  0  0  0  0  0  0  0  0  0  0  0
   -1.9041   -1.0186    0.3602 N   0  0  0  0  0  0  0  0  0  0  0  0
   -2.6671   -0.5416   -0.0988 H   0  0  0  0  0  0  0  0  0  0  0  0
   -0.6131   -0.3236    0.3832 C   0  0  1  0  0  0  0  0  0  0  0  0
   -0.3420   -0.1272    1.4217 H   0  0  0  0  0  0  0  0  0  0  0  0
    0.4625   -1.2382   -0.2313 C   0  0  0  0  0  0  0  0  0  0  0  0
    0.1346   -1.5463   -1.2264 H   0  0  0  0  0  0  0  0  0  0  0  0
    1.3930   -0.6785   -0.3372 H   0  0  0  0  0  0  0  0  0  0  0  0
    0.7403   -2.4985    0.5961 C   0  0  0  0  0  0  0  0  0  0  0  0
   -0.1785   -3.0773    0.6850 H   0  0  0  0  0  0  0  0  0  0  0  0
    1.4857   -3.1014    0.0764 H   0  0  0  0  0  0  0  0  0  0  0  0
    1.3492   -2.1509    2.2659 S   0  0  0  0  0  0  0  0  0  0  0  0
    2.9880   -1.4900    1.8666 C   0  0  0  0  0  0  0  0  0  0  0  0
    2.8842   -0.6010    1.2438 H   0  0  0  0  0  0  0  0  0  0  0  0
    3.5049   -1.2238    2.7890 H   0  0  0  0  0  0  0  0  0  0  0  0
    3.5690   -2.2439    1.3346 H   0  0  0  0  0  0  0  0  0  0  0  0
   -0.7150    1.0229   -0.3474 C   0  0  0  0  0  0  0  0  0  0  0  0
   -0.7510    1.0566   -1.5758 O   0  0  0  0  0  0  0  0  0  0  0  0
   -0.7524    2.1304    0.4046 N   0  0  0  0  0  0  0  0  0  0  0  0
   -0.7341    2.0232    1.4062 H   0  0  0  0  0  0  0  0  0  0  0  0
   -0.8334    3.4847   -0.1404 C   0  0  0  0  0  0  0  0  0  0  0  0
   -1.7255    3.5773   -0.7642 H   0  0  0  0  0  0  0  0  0  0  0  0
   -0.8818    4.2170    0.6665 H   0  0  0  0  0  0  0  0  0  0  0  0
    0.0430    3.6857   -0.7591 H   0  0  0  0  0  0  0  0  0  0  0  0
  5  6  2  0  0  0  0
  5  7  1  0  0  0  0
  2  3  1  0  0  0  0
  2  4  1  0  0  0  0
  2  5  1  0  0  0  0
  1  2  1  0  0  0  0
 22 23  2  0  0  0  0
 22 24  1  0  0  0  0
 18 19  1  0  0  0  0
 18 20  1  0  0  0  0
 18 21  1  0  0  0  0
 17 18  1  0  0  0  0
 14 15  1  0  0  0  0
 14 16  1  0  0  0  0
 14 17  1  0  0  0  0
 11 12  1  0  0  0  0
 11 13  1  0  0  0  0
 11 14  1  0  0  0  0
  9 10  1  0  0  0  0
  9 11  1  0  0  0  0
  9 22  1  0  0  0  0
  7  8  1  0  0  0  0
  7  9  1  0  0  0  0
 26 27  1  0  0  0  0
 26 28  1  0  0  0  0
 26 29  1  0  0  0  0
 24 25  1  0  0  0  0
 24 26  1  0  0  0  0
M  END
$$$$
default_name
  -OEChem-01062215323D

 29 28  0     1  0  0  0  0  0999 V2000
   -3.5781   -3.7296    1.2702 H   0  0  0  0  0  0  0  0  0  0  0  0
   -3.5311   -2.7616    0.7732 C   0  0  0  0  0  0  0  0  0  0  0  0
   -4.2371   -2.0766    1.2382 H   0  0  0  0  0  0  0  0  0  0  0  0
   -3.7681   -2.8816   -0.2818 H   0  0  0  0  0  0  0  0  0  0  0  0
   -2.1321   -2.2086    0.9112 C   0  0  0  0  0  0  0  0  0  0  0  0
   -1.2751   -2.8426    1.5112 O   0  0  0  0  0  0  0  0  0  0  0  0
   -1.9041   -1.0186    0.3602 N   0  0  0  0  0  0  0  0  0  0  0  0
   -2.6671   -0.5416   -0.0988 H   0  0  0  0  0  0  0  0  0  0  0  0
   -0.6131   -0.3236    0.3832 C   0  0  1  0  0  0  0  0  0  0  0  0
   -0.3420   -0.1272    1.4217 H   0  0  0  0  0  0  0  0  0  0  0  0
    0.4625   -1.2382   -0.2313 C   0  0  0  0  0  0  0  0  0  0  0  0
    0.1346   -1.5463   -1.2264 H   0  0  0  0  0  0  0  0  0  0  0  0
    1.3930   -0.6785   -0.3372 H   0  0  0  0  0  0  0  0  0  0  0  0
    0.7403   -2.4985    0.5961 C   0  0  0  0  0  0  0  0  0  0  0  0
   -0.1785   -3.0773    0.6850 H   0  0  0  0  0  0  0  0  0  0  0  0
    1.4857   -3.1014    0.0764 H   0  0  0  0  0  0  0  0  0  0  0  0
    1.3492   -2.1509    2.2659 S   0  0  0  0  0  0  0  0  0  0  0  0
    2.9880   -1.4900    1.8666 C   0  0  0  0  0  0  0  0  0  0  0  0
    2.8842   -0.6010    1.2438 H   0  0  0  0  0  0  0  0  0  0  0  0
    3.5049   -1.2238    2.7890 H   0  0  0  0  0  0  0  0  0  0  0  0
    3.5690   -2.2439    1.3346 H   0  0  0  0  0  0  0  0  0  0  0  0
   -0.7150    1.0229   -0.3474 C   0  0  0  0  0  0  0  0  0  0  0  0
   -1.0258    1.0572   -1.5363 O   0  0  0  0  0  0  0  0  0  0  0  0
   -0.4454    2.1286    0.3585 N   0  0  0  0  0  0  0  0  0  0  0  0
   -0.2123    2.0229    1.3329 H   0  0  0  0  0  0  0  0  0  0  0  0
   -0.4838    3.4807   -0.1964 C   0  0  0  0  0  0  0  0  0  0  0  0
   -1.4768    3.6824   -0.6051 H   0  0  0  0  0  0  0  0  0  0  0  0
   -0.2578    4.2157    0.5772 H   0  0  0  0  0  0  0  0  0  0  0  0
    0.2461    3.5686   -1.0031 H   0  0  0  0  0  0  0  0  0  0  0  0
  5  6  2  0  0  0  0
  5  7  1  0  0  0  0
  2  3  1  0  0  0  0
  2  4  1  0  0  0  0
  2  5  1  0  0  0  0
  1  2  1  0  0  0  0
 22 23  2  0  0  0  0
 22 24  1  0  0  0  0
 18 19  1  0  0  0  0
 18 20  1  0  0  0  0
 18 21  1  0  0  0  0
 17 18  1  0  0  0  0
 14 15  1  0  0  0  0
 14 16  1  0  0  0  0
 14 17  1  0  0  0  0
 11 12  1  0  0  0  0
 11 13  1  0  0  0  0
 11 14  1  0  0  0  0
  9 10  1  0  0  0  0
  9 11  1  0  0  0  0
  9 22  1  0  0  0  0
  7  8  1  0  0  0  0
  7  9  1  0  0  0  0
 26 27  1  0  0  0  0
 26 28  1  0  0  0  0
 26 29  1  0  0  0  0
 24 25  1  0  0  0  0
 24 26  1  0  0  0  0
M  END
$$$$
default_name
  -OEChem-01062215323D

 29 28  0     1  0  0  0  0  0999 V2000
   -3.5781   -3.7296    1.2702 H   0  0  0  0  0  0  0  0  0  0  0  0
   -3.5311   -2.7616    0.7732 C   0  0  0  0  0  0  0  0  0  0  0  0
   -4.2371   -2.0766    1.2382 H   0  0  0  0  0  0  0  0  0  0  0  0
   -3.7681   -2.8816   -0.2818 H   0  0  0  0  0  0  0  0  0  0  0  0
   -2.1321   -2.2086    0.9112 C   0  0  0  0  0  0  0  0  0  0  0  0
   -1.2751   -2.8426    1.5112 O   0  0  0  0  0  0  0  0  0  0  0  0
   -1.9041   -1.0186    0.3602 N   0  0  0  0  0  0  0  0  0  0  0  0
   -2.6671   -0.5416   -0.0988 H   0  0  0  0  0  0  0  0  0  0  0  0
   -0.6131   -0.3236    0.3832 C   0  0  1  0  0  0  0  0  0  0  0  0
   -0.3420   -0.1272    1.4217 H   0  0  0  0  0  0  0  0  0  0  0  0
    0.4625   -1.2382   -0.2313 C   0  0  0  0  0  0  0  0  0  0  0  0
    0.1346   -1.5463   -1.2264 H   0  0  0  0  0  0  0  0  0  0  0  0
    1.3930   -0.6785   -0.3372 H   0  0  0  0  0  0  0  0  0  0  0  0
    0.7403   -2.4985    0.5961 C   0  0  0  0  0  0  0  0  0  0  0  0
   -0.1785   -3.0773    0.6850 H   0  0  0  0  0  0  0  0  0  0  0  0
    1.4857   -3.1014    0.0764 H   0  0  0  0  0  0  0  0  0  0  0  0
    1.3492   -2.1509    2.2659 S   0  0  0  0  0  0  0  0  0  0  0  0
    2.9880   -1.4900    1.8666 C   0  0  0  0  0  0  0  0  0  0  0  0
    2.8842   -0.6010    1.2438 H   0  0  0  0  0  0  0  0  0  0  0  0
    3.5049   -1.2238    2.7890 H   0  0  0  0  0  0  0  0  0  0  0  0
    3.5690   -2.2439    1.3346 H   0  0  0  0  0  0  0  0  0  0  0  0
   -0.7150    1.0229   -0.3474 C   0  0  0  0  0  0  0  0  0  0  0  0
   -1.2822    1.0923   -1.4358 O   0  0  0  0  0  0  0  0  0  0  0  0
   -0.1596    2.0882    0.2442 N   0  0  0  0  0  0  0  0  0  0  0  0
    0.2750    1.9571    1.1437 H   0  0  0  0  0  0  0  0  0  0  0  0
   -0.1594    3.4329   -0.3298 C   0  0  0  0  0  0  0  0  0  0  0  0
   -1.1874    3.7561   -0.5098 H   0  0  0  0  0  0  0  0  0  0  0  0
    0.3245    4.1361    0.3493 H   0  0  0  0  0  0  0  0  0  0  0  0
    0.3725    3.4264   -1.2829 H   0  0  0  0  0  0  0  0  0  0  0  0
  5  6  2  0  0  0  0
  5  7  1  0  0  0  0
  2  3  1  0  0  0  0
  2  4  1  0  0  0  0
  2  5  1  0  0  0  0
  1  2  1  0  0  0  0
 22 23  2  0  0  0  0
 22 24  1  0  0  0  0
 18 19  1  0  0  0  0
 18 20  1  0  0  0  0
 18 21  1  0  0  0  0
 17 18  1  0  0  0  0
 14 15  1  0  0  0  0
 14 16  1  0  0  0  0
 14 17  1  0  0  0  0
 11 12  1  0  0  0  0
 11 13  1  0  0  0  0
 11 14  1  0  0  0  0
  9 10  1  0  0  0  0
  9 11  1  0  0  0  0
  9 22  1  0  0  0  0
  7  8  1  0  0  0  0
  7  9  1  0  0  0  0
 26 27  1  0  0  0  0
 26 28  1  0  0  0  0
 26 29  1  0  0  0  0
 24 25  1  0  0  0  0
 24 26  1  0  0  0  0
M  END
$$$$
default_name
  -OEChem-01062215323D

 29 28  0     1  0  0  0  0  0999 V2000
   -3.5781   -3.7296    1.2702 H   0  0  0  0  0  0  0  0  0  0  0  0
   -3.5311   -2.7616    0.7732 C   0  0  0  0  0  0  0  0  0  0  0  0
   -4.2371   -2.0766    1.2382 H   0  0  0  0  0  0  0  0  0  0  0  0
   -3.7681   -2.8816   -0.2818 H   0  0  0  0  0  0  0  0  0  0  0  0
   -2.1321   -2.2086    0.9112 C   0  0  0  0  0  0  0  0  0  0  0  0
   -1.2751   -2.8426    1.5112 O   0  0  0  0  0  0  0  0  0  0  0  0
   -1.9041   -1.0186    0.3602 N   0  0  0  0  0  0  0  0  0  0  0  0
   -2.6671   -0.5416   -0.0988 H   0  0  0  0  0  0  0  0  0  0  0  0
   -0.6131   -0.3236    0.3832 C   0  0  1  0  0  0  0  0  0  0  0  0
   -0.3420   -0.1272    1.4217 H   0  0  0  0  0  0  0  0  0  0  0  0
    0.4625   -1.2382   -0.2313 C   0  0  0  0  0  0  0  0  0  0  0  0
    0.1346   -1.5463   -1.2264 H   0  0  0  0  0  0  0  0  0  0  0  0
    1.3930   -0.6785   -0.3372 H   0  0  0  0  0  0  0  0  0  0  0  0
    0.7403   -2.4985    0.5961 C   0  0  0  0  0  0  0  0  0  0  0  0
   -0.1785   -3.0773    0.6850 H   0  0  0  0  0  0  0  0  0  0  0  0
    1.4857   -3.1014    0.0764 H   0  0  0  0  0  0  0  0  0  0  0  0
    1.3492   -2.1509    2.2659 S   0  0  0  0  0  0  0  0  0  0  0  0
    2.9880   -1.4900    1.8666 C   0  0  0  0  0  0  0  0  0  0  0  0
    2.8842   -0.6010    1.2438 H   0  0  0  0  0  0  0  0  0  0  0  0
    3.5049   -1.2238    2.7890 H   0  0  0  0  0  0  0  0  0  0  0  0
    3.5690   -2.2439    1.3346 H   0  0  0  0  0  0  0  0  0  0  0  0
   -0.7150    1.0229   -0.3474 C   0  0  0  0  0  0  0  0  0  0  0  0
   -1.5028    1.1596   -1.2812 O   0  0  0  0  0  0  0  0  0  0  0  0
    0.0856    2.0121    0.0697 N   0  0  0  0  0  0  0  0  0  0  0  0
    0.6947    1.8302    0.8514 H   0  0  0  0  0  0  0  0  0  0  0  0
    0.1178    3.3445   -0.5315 C   0  0  0  0  0  0  0  0  0  0  0  0
   -0.8772    3.7932   -0.4846 H   0  0  0  0  0  0  0  0  0  0  0  0
    0.8254    3.9836   -0.0016 H   0  0  0  0  0  0  0  0  0  0  0  0
    0.4135    3.2686   -1.5794 H   0  0  0  0  0  0  0  0  0  0  0  0
  5  6  2  0  0  0  0
  5  7  1  0  0  0  0
  2  3  1  0  0  0  0
  2  4  1  0  0  0  0
  2  5  1  0  0  0  0
  1  2  1  0  0  0  0
 22 23  2  0  0  0  0
 22 24  1  0  0  0  0
 18 19  1  0  0  0  0
 18 20  1  0  0  0  0
 18 21  1  0  0  0  0
 17 18  1  0  0  0  0
 14 15  1  0  0  0  0
 14 16  1  0  0  0  0
 14 17  1  0  0  0  0
 11 12  1  0  0  0  0
 11 13  1  0  0  0  0
 11 14  1  0  0  0  0
  9 10  1  0  0  0  0
  9 11  1  0  0  0  0
  9 22  1  0  0  0  0
  7  8  1  0  0  0  0
  7  9  1  0  0  0  0
 26 27  1  0  0  0  0
 26 28  1  0  0  0  0
 26 29  1  0  0  0  0
 24 25  1  0  0  0  0
 24 26  1  0  0  0  0
M  END
$$$$
default_name
  -OEChem-01062215323D

 29 28  0     1  0  0  0  0  0999 V2000
   -3.5781   -3.7296    1.2702 H   0  0  0  0  0  0  0  0  0  0  0  0
   -3.5311   -2.7616    0.7732 C   0  0  0  0  0  0  0  0  0  0  0  0
   -4.2371   -2.0766    1.2382 H   0  0  0  0  0  0  0  0  0  0  0  0
   -3.7681   -2.8816   -0.2818 H   0  0  0  0  0  0  0  0  0  0  0  0
   -2.1321   -2.2086    0.9112 C   0  0  0  0  0  0  0  0  0  0  0  0
   -1.2751   -2.8426    1.5112 O   0  0  0  0  0  0  0  0  0  0  0  0
   -1.9041   -1.0186    0.3602 N   0  0  0  0  0  0  0  0  0  0  0  0
   -2.6671   -0.5416   -0.0988 H   0  0  0  0  0  0  0  0  0  0  0  0
   -0.6131   -0.3236    0.3832 C   0  0  1  0  0  0  0  0  0  0  0  0
   -0.3420   -0.1272    1.4217 H   0  0  0  0  0  0  0  0  0  0  0  0
    0.4625   -1.2382   -0.2313 C   0  0  0  0  0  0  0  0  0  0  0  0
    0.1346   -1.5463   -1.2264 H   0  0  0  0  0  0  0  0  0  0  0  0
    1.3930   -0.6785   -0.3372 H   0  0  0  0  0  0  0  0  0  0  0  0
    0.7403   -2.4985    0.5961 C   0  0  0  0  0  0  0  0  0  0  0  0
   -0.1785   -3.0773    0.6850 H   0  0  0  0  0  0  0  0  0  0  0  0
    1.4857   -3.1014    0.0764 H   0  0  0  0  0  0  0  0  0  0  0  0
    1.3492   -2.1509    2.2659 S   0  0  0  0  0  0  0  0  0  0  0  0
    2.9880   -1.4900    1.8666 C   0  0  0  0  0  0  0  0  0  0  0  0
    2.8842   -0.6010    1.2438 H   0  0  0  0  0  0  0  0  0  0  0  0
    3.5049   -1.2238    2.7890 H   0  0  0  0  0  0  0  0  0  0  0  0
    3.5690   -2.2439    1.3346 H   0  0  0  0  0  0  0  0  0  0  0  0
   -0.7150    1.0229   -0.3474 C   0  0  0  0  0  0  0  0  0  0  0  0
   -1.6725    1.2543   -1.0829 O   0  0  0  0  0  0  0  0  0  0  0  0
    0.2735    1.9053   -0.1532 N   0  0  0  0  0  0  0  0  0  0  0  0
    1.0181    1.6510    0.4760 H   0  0  0  0  0  0  0  0  0  0  0  0
    0.3290    3.2215   -0.7876 C   0  0  0  0  0  0  0  0  0  0  0  0
   -0.5673    3.7913   -0.5313 H   0  0  0  0  0  0  0  0  0  0  0  0
    1.2108    3.7686   -0.4517 H   0  0  0  0  0  0  0  0  0  0  0  0
    0.3664    3.1061   -1.8723 H   0  0  0  0  0  0  0  0  0  0  0  0
  5  6  2  0  0  0  0
  5  7  1  0  0  0  0
  2  3  1  0  0  0  0
  2  4  1  0  0  0  0
  2  5  1  0  0  0  0
  1  2  1  0  0  0  0
 22 23  2  0  0  0  0
 22 24  1  0  0  0  0
 18 19  1  0  0  0  0
 18 20  1  0  0  0  0
 18 21  1  0  0  0  0
 17 18  1  0  0  0  0
 14 15  1  0  0  0  0
 14 16  1  0  0  0  0
 14 17  1  0  0  0  0
 11 12  1  0  0  0  0
 11 13  1  0  0  0  0
 11 14  1  0  0  0  0
  9 10  1  0  0  0  0
  9 11  1  0  0  0  0
  9 22  1  0  0  0  0
  7  8  1  0  0  0  0
  7  9  1  0  0  0  0
 26 27  1  0  0  0  0
 26 28  1  0  0  0  0
 26 29  1  0  0  0  0
 24 25  1  0  0  0  0
 24 26  1  0  0  0  0
M  END
$$$$
default_name
  -OEChem-01062215323D

 29 28  0     1  0  0  0  0  0999 V2000
   -3.5781   -3.7296    1.2702 H   0  0  0  0  0  0  0  0  0  0  0  0
   -3.5311   -2.7616    0.7732 C   0  0  0  0  0  0  0  0  0  0  0  0
   -4.2371   -2.0766    1.2382 H   0  0  0  0  0  0  0  0  0  0  0  0
   -3.7681   -2.8816   -0.2818 H   0  0  0  0  0  0  0  0  0  0  0  0
   -2.1321   -2.2086    0.9112 C   0  0  0  0  0  0  0  0  0  0  0  0
   -1.2751   -2.8426    1.5112 O   0  0  0  0  0  0  0  0  0  0  0  0
   -1.9041   -1.0186    0.3602 N   0  0  0  0  0  0  0  0  0  0  0  0
   -2.6671   -0.5416   -0.0988 H   0  0  0  0  0  0  0  0  0  0  0  0
   -0.6131   -0.3236    0.3832 C   0  0  1  0  0  0  0  0  0  0  0  0
   -0.2142   -0.3639    1.3980 H   0  0  0  0  0  0  0  0  0  0  0  0
    0.3693   -1.0545   -0.5505 C   0  0  0  0  0  0  0  0  0  0  0  0
   -0.0818   -1.1340   -1.5418 H   0  0  0  0  0  0  0  0  0  0  0  0
    1.2853   -0.4685   -0.6387 H   0  0  0  0  0  0  0  0  0  0  0  0
    0.7340   -2.4647   -0.0726 C   0  0  0  0  0  0  0  0  0  0  0  0
   -0.1726   -3.0653   -0.0065 H   0  0  0  0  0  0  0  0  0  0  0  0
    1.4037   -2.9199   -0.8033 H   0  0  0  0  0  0  0  0  0  0  0  0
    1.5474   -2.4953    1.5451 S   0  0  0  0  0  0  0  0  0  0  0  0
    3.1312   -1.7310    1.1099 C   0  0  0  0  0  0  0  0  0  0  0  0
    2.9605   -0.7256    0.7239 H   0  0  0  0  0  0  0  0  0  0  0  0
    3.7605   -1.6723    1.9984 H   0  0  0  0  0  0  0  0  0  0  0  0
    3.6346   -2.3332    0.3531 H   0  0  0  0  0  0  0  0  0  0  0  0
   -0.7905    1.1517   -0.0029 C   0  0  0  0  0  0  0  0  0  0  0  0
   -1.9059    1.5858   -0.2833 O   0  0  0  0  0  0  0  0  0  0  0  0
    0.3072    1.9186   -0.0262 N   0  0  0  0  0  0  0  0  0  0  0  0
    1.1851    1.4962    0.2306 H   0  0  0  0  0  0  0  0  0  0  0  0
    0.3056    3.3353   -0.3875 C   0  0  0  0  0  0  0  0  0  0  0  0
   -0.3667    3.8834    0.2769 H   0  0  0  0  0  0  0  0  0  0  0  0
    1.3108    3.7503   -0.3032 H   0  0  0  0  0  0  0  0  0  0  0  0
   -0.0498    3.4536   -1.4127 H   0  0  0  0  0  0  0  0  0  0  0  0
  5  6  2  0  0  0  0
  5  7  1  0  0  0  0
  2  3  1  0  0  0  0
  2  4  1  0  0  0  0
  2  5  1  0  0  0  0
  1  2  1  0  0  0  0
 22 23  2  0  0  0  0
 22 24  1  0  0  0  0
 18 19  1  0  0  0  0
 18 20  1  0  0  0  0
 18 21  1  0  0  0  0
 17 18  1  0  0  0  0
 14 15  1  0  0  0  0
 14 16  1  0  0  0  0
 14 17  1  0  0  0  0
 11 12  1  0  0  0  0
 11 13  1  0  0  0  0
 11 14  1  0  0  0  0
  9 10  1  0  0  0  0
  9 11  1  0  0  0  0
  9 22  1  0  0  0  0
  7  8  1  0  0  0  0
  7  9  1  0  0  0  0
 26 27  1  0  0  0  0
 26 28  1  0  0  0  0
 26 29  1  0  0  0  0
 24 25  1  0  0  0  0
 24 26  1  0  0  0  0
M  END
$$$$
default_name
  -OEChem-01062215323D

 29 28  0     1  0  0  0  0  0999 V2000
   -3.5781   -3.7296    1.2702 H   0  0  0  0  0  0  0  0  0  0  0  0
   -3.5311   -2.7616    0.7732 C   0  0  0  0  0  0  0  0  0  0  0  0
   -4.2371   -2.0766    1.2382 H   0  0  0  0  0  0  0  0  0  0  0  0
   -3.7681   -2.8816   -0.2818 H   0  0  0  0  0  0  0  0  0  0  0  0
   -2.1321   -2.2086    0.9112 C   0  0  0  0  0  0  0  0  0  0  0  0
   -1.2751   -2.8426    1.5112 O   0  0  0  0  0  0  0  0  0  0  0  0
   -1.9041   -1.0186    0.3602 N   0  0  0  0  0  0  0  0  0  0  0  0
   -2.6671   -0.5416   -0.0988 H   0  0  0  0  0  0  0  0  0  0  0  0
   -0.6131   -0.3236    0.3832 C   0  0  1  0  0  0  0  0  0  0  0  0
   -0.2142   -0.3639    1.3980 H   0  0  0  0  0  0  0  0  0  0  0  0
    0.3693   -1.0545   -0.5505 C   0  0  0  0  0  0  0  0  0  0  0  0
   -0.0818   -1.1340   -1.5418 H   0  0  0  0  0  0  0  0  0  0  0  0
    1.2853   -0.4685   -0.6387 H   0  0  0  0  0  0  0  0  0  0  0  0
    0.7340   -2.4647   -0.0726 C   0  0  0  0  0  0  0  0  0  0  0  0
   -0.1726   -3.0653   -0.0065 H   0  0  0  0  0  0  0  0  0  0  0  0
    1.4037   -2.9199   -0.8033 H   0  0  0  0  0  0  0  0  0  0  0  0
    1.5474   -2.4953    1.5451 S   0  0  0  0  0  0  0  0  0  0  0  0
    3.1312   -1.7310    1.1099 C   0  0  0  0  0  0  0  0  0  0  0  0
    2.9605   -0.7256    0.7239 H   0  0  0  0  0  0  0  0  0  0  0  0
    3.7605   -1.6723    1.9984 H   0  0  0  0  0  0  0  0  0  0  0  0
    3.6346   -2.3332    0.3531 H   0  0  0  0  0  0  0  0  0  0  0  0
   -0.7905    1.1517   -0.0029 C   0  0  0  0  0  0  0  0  0  0  0  0
   -1.9118    1.6554   -0.0146 O   0  0  0  0  0  0  0  0  0  0  0  0
    0.3115    1.8405   -0.3267 N   0  0  0  0  0  0  0  0  0  0  0  0
    1.1981    1.3643   -0.2794 H   0  0  0  0  0  0  0  0  0  0  0  0
    0.3066    3.2458   -0.7300 C   0  0  0  0  0  0  0  0  0  0  0  0
   -0.1436    3.8532    0.0588 H   0  0  0  0  0  0  0  0  0  0  0  0
    1.3245    3.5923   -0.9133 H   0  0  0  0  0  0  0  0  0  0  0  0
   -0.2856    3.3660   -1.6389 H   0  0  0  0  0  0  0  0  0  0  0  0
  5  6  2  0  0  0  0
  5  7  1  0  0  0  0
  2  3  1  0  0  0  0
  2  4  1  0  0  0  0
  2  5  1  0  0  0  0
  1  2  1  0  0  0  0
 22 23  2  0  0  0  0
 22 24  1  0  0  0  0
 18 19  1  0  0  0  0
 18 20  1  0  0  0  0
 18 21  1  0  0  0  0
 17 18  1  0  0  0  0
 14 15  1  0  0  0  0
 14 16  1  0  0  0  0
 14 17  1  0  0  0  0
 11 12  1  0  0  0  0
 11 13  1  0  0  0  0
 11 14  1  0  0  0  0
  9 10  1  0  0  0  0
  9 11  1  0  0  0  0
  9 22  1  0  0  0  0
  7  8  1  0  0  0  0
  7  9  1  0  0  0  0
 26 27  1  0  0  0  0
 26 28  1  0  0  0  0
 26 29  1  0  0  0  0
 24 25  1  0  0  0  0
 24 26  1  0  0  0  0
M  END
$$$$
default_name
  -OEChem-01062215323D

 29 28  0     1  0  0  0  0  0999 V2000
   -3.5781   -3.7296    1.2702 H   0  0  0  0  0  0  0  0  0  0  0  0
   -3.5311   -2.7616    0.7732 C   0  0  0  0  0  0  0  0  0  0  0  0
   -4.2371   -2.0766    1.2382 H   0  0  0  0  0  0  0  0  0  0  0  0
   -3.7681   -2.8816   -0.2818 H   0  0  0  0  0  0  0  0  0  0  0  0
   -2.1321   -2.2086    0.9112 C   0  0  0  0  0  0  0  0  0  0  0  0
   -1.2751   -2.8426    1.5112 O   0  0  0  0  0  0  0  0  0  0  0  0
   -1.9041   -1.0186    0.3602 N   0  0  0  0  0  0  0  0  0  0  0  0
   -2.6671   -0.5416   -0.0988 H   0  0  0  0  0  0  0  0  0  0  0  0
   -0.6131   -0.3236    0.3832 C   0  0  1  0  0  0  0  0  0  0  0  0
   -0.2142   -0.3639    1.3980 H   0  0  0  0  0  0  0  0  0  0  0  0
    0.3693   -1.0545   -0.5505 C   0  0  0  0  0  0  0  0  0  0  0  0
   -0.0818   -1.1340   -1.5418 H   0  0  0  0  0  0  0  0  0  0  0  0
    1.2853   -0.4685   -0.6387 H   0  0  0  0  0  0  0  0  0  0  0  0
    0.7340   -2.4647   -0.0726 C   0  0  0  0  0  0  0  0  0  0  0  0
   -0.1726   -3.0653   -0.0065 H   0  0  0  0  0  0  0  0  0  0  0  0
    1.4037   -2.9199   -0.8033 H   0  0  0  0  0  0  0  0  0  0  0  0
    1.5474   -2.4953    1.5451 S   0  0  0  0  0  0  0  0  0  0  0  0
    3.1312   -1.7310    1.1099 C   0  0  0  0  0  0  0  0  0  0  0  0
    2.9605   -0.7256    0.7239 H   0  0  0  0  0  0  0  0  0  0  0  0
    3.7605   -1.6723    1.9984 H   0  0  0  0  0  0  0  0  0  0  0  0
    3.6346   -2.3332    0.3531 H   0  0  0  0  0  0  0  0  0  0  0  0
   -0.7905    1.1517   -0.0029 C   0  0  0  0  0  0  0  0  0  0  0  0
   -1.8462    1.7311    0.2443 O   0  0  0  0  0  0  0  0  0  0  0  0
    0.2358    1.7557   -0.6156 N   0  0  0  0  0  0  0  0  0  0  0  0
    1.0753    1.2208   -0.7713 H   0  0  0  0  0  0  0  0  0  0  0  0
    0.2165    3.1490   -1.0584 C   0  0  0  0  0  0  0  0  0  0  0  0
    0.0156    3.8029   -0.2065 H   0  0  0  0  0  0  0  0  0  0  0  0
    1.1757    3.4205   -1.5012 H   0  0  0  0  0  0  0  0  0  0  0  0
   -0.5753    3.2900   -1.7962 H   0  0  0  0  0  0  0  0  0  0  0  0
  5  6  2  0  0  0  0
  5  7  1  0  0  0  0
  2  3  1  0  0  0  0
  2  4  1  0  0  0  0
  2  5  1  0  0  0  0
  1  2  1  0  0  0  0
 22 23  2  0  0  0  0
 22 24  1  0  0  0  0
 18 19  1  0  0  0  0
 18 20  1  0  0  0  0
 18 21  1  0  0  0  0
 17 18  1  0  0  0  0
 14 15  1  0  0  0  0
 14 16  1  0  0  0  0
 14 17  1  0  0  0  0
 11 12  1  0  0  0  0
 11 13  1  0  0  0  0
 11 14  1  0  0  0  0
  9 10  1  0  0  0  0
  9 11  1  0  0  0  0
  9 22  1  0  0  0  0
  7  8  1  0  0  0  0
  7  9  1  0  0  0  0
 26 27  1  0  0  0  0
 26 28  1  0  0  0  0
 26 29  1  0  0  0  0
 24 25  1  0  0  0  0
 24 26  1  0  0  0  0
M  END
$$$$
default_name
  -OEChem-01062215323D

 29 28  0     1  0  0  0  0  0999 V2000
   -3.5781   -3.7296    1.2702 H   0  0  0  0  0  0  0  0  0  0  0  0
   -3.5311   -2.7616    0.7732 C   0  0  0  0  0  0  0  0  0  0  0  0
   -4.2371   -2.0766    1.2382 H   0  0  0  0  0  0  0  0  0  0  0  0
   -3.7681   -2.8816   -0.2818 H   0  0  0  0  0  0  0  0  0  0  0  0
   -2.1321   -2.2086    0.9112 C   0  0  0  0  0  0  0  0  0  0  0  0
   -1.2751   -2.8426    1.5112 O   0  0  0  0  0  0  0  0  0  0  0  0
   -1.9041   -1.0186    0.3602 N   0  0  0  0  0  0  0  0  0  0  0  0
   -2.6671   -0.5416   -0.0988 H   0  0  0  0  0  0  0  0  0  0  0  0
   -0.6131   -0.3236    0.3832 C   0  0  1  0  0  0  0  0  0  0  0  0
   -0.2142   -0.3639    1.3980 H   0  0  0  0  0  0  0  0  0  0  0  0
    0.3693   -1.0545   -0.5505 C   0  0  0  0  0  0  0  0  0  0  0  0
   -0.0818   -1.1340   -1.5418 H   0  0  0  0  0  0  0  0  0  0  0  0
    1.2853   -0.4685   -0.6387 H   0  0  0  0  0  0  0  0  0  0  0  0
    0.7340   -2.4647   -0.0726 C   0  0  0  0  0  0  0  0  0  0  0  0
   -0.1726   -3.0653   -0.0065 H   0  0  0  0  0  0  0  0  0  0  0  0
    1.4037   -2.9199   -0.8033 H   0  0  0  0  0  0  0  0  0  0  0  0
    1.5474   -2.4953    1.5451 S   0  0  0  0  0  0  0  0  0  0  0  0
    3.1312   -1.7310    1.1099 C   0  0  0  0  0  0  0  0  0  0  0  0
    2.9605   -0.7256    0.7239 H   0  0  0  0  0  0  0  0  0  0  0  0
    3.7605   -1.6723    1.9984 H   0  0  0  0  0  0  0  0  0  0  0  0
    3.6346   -2.3332    0.3531 H   0  0  0  0  0  0  0  0  0  0  0  0
   -0.7905    1.1517   -0.0029 C   0  0  0  0  0  0  0  0  0  0  0  0
   -1.7134    1.8076    0.4758 O   0  0  0  0  0  0  0  0  0  0  0  0
    0.0854    1.6702   -0.8733 N   0  0  0  0  0  0  0  0  0  0  0  0
    0.8249    1.0755   -1.2116 H   0  0  0  0  0  0  0  0  0  0  0  0
    0.0416    3.0516   -1.3504 C   0  0  0  0  0  0  0  0  0  0  0  0
    0.1002    3.7360   -0.5008 H   0  0  0  0  0  0  0  0  0  0  0  0
    0.8746    3.2467   -2.0270 H   0  0  0  0  0  0  0  0  0  0  0  0
   -0.8993    3.2307   -1.8739 H   0  0  0  0  0  0  0  0  0  0  0  0
  5  6  2  0  0  0  0
  5  7  1  0  0  0  0
  2  3  1  0  0  0  0
  2  4  1  0  0  0  0
  2  5  1  0  0  0  0
  1  2  1  0  0  0  0
 22 23  2  0  0  0  0
 22 24  1  0  0  0  0
 18 19  1  0  0  0  0
 18 20  1  0  0  0  0
 18 21  1  0  0  0  0
 17 18  1  0  0  0  0
 14 15  1  0  0  0  0
 14 16  1  0  0  0  0
 14 17  1  0  0  0  0
 11 12  1  0  0  0  0
 11 13  1  0  0  0  0
 11 14  1  0  0  0  0
  9 10  1  0  0  0  0
  9 11  1  0  0  0  0
  9 22  1  0  0  0  0
  7  8  1  0  0  0  0
  7  9  1  0  0  0  0
 26 27  1  0  0  0  0
 26 28  1  0  0  0  0
 26 29  1  0  0  0  0
 24 25  1  0  0  0  0
 24 26  1  0  0  0  0
M  END
$$$$
default_name
  -OEChem-01062215323D

 29 28  0     1  0  0  0  0  0999 V2000
   -3.5781   -3.7296    1.2702 H   0  0  0  0  0  0  0  0  0  0  0  0
   -3.5311   -2.7616    0.7732 C   0  0  0  0  0  0  0  0  0  0  0  0
   -4.2371   -2.0766    1.2382 H   0  0  0  0  0  0  0  0  0  0  0  0
   -3.7681   -2.8816   -0.2818 H   0  0  0  0  0  0  0  0  0  0  0  0
   -2.1321   -2.2086    0.9112 C   0  0  0  0  0  0  0  0  0  0  0  0
   -1.2751   -2.8426    1.5112 O   0  0  0  0  0  0  0  0  0  0  0  0
   -1.9041   -1.0186    0.3602 N   0  0  0  0  0  0  0  0  0  0  0  0
   -2.6671   -0.5416   -0.0988 H   0  0  0  0  0  0  0  0  0  0  0  0
   -0.6131   -0.3236    0.3832 C   0  0  1  0  0  0  0  0  0  0  0  0
   -0.2142   -0.3639    1.3980 H   0  0  0  0  0  0  0  0  0  0  0  0
    0.3693   -1.0545   -0.5505 C   0  0  0  0  0  0  0  0  0  0  0  0
   -0.0818   -1.1340   -1.5418 H   0  0  0  0  0  0  0  0  0  0  0  0
    1.2853   -0.4685   -0.6387 H   0  0  0  0  0  0  0  0  0  0  0  0
    0.7340   -2.4647   -0.0726 C   0  0  0  0  0  0  0  0  0  0  0  0
   -0.1726   -3.0653   -0.0065 H   0  0  0  0  0  0  0  0  0  0  0  0
    1.4037   -2.9199   -0.8033 H   0  0  0  0  0  0  0  0  0  0  0  0
    1.5474   -2.4953    1.5451 S   0  0  0  0  0  0  0  0  0  0  0  0
    3.1312   -1.7310    1.1099 C   0  0  0  0  0  0  0  0  0  0  0  0
    2.9605   -0.7256    0.7239 H   0  0  0  0  0  0  0  0  0  0  0  0
    3.7605   -1.6723    1.9984 H   0  0  0  0  0  0  0  0  0  0  0  0
    3.6346   -2.3332    0.3531 H   0  0  0  0  0  0  0  0  0  0  0  0
   -0.7905    1.1517   -0.0029 C   0  0  0  0  0  0  0  0  0  0  0  0
   -1.5227    1.8799    0.6642 O   0  0  0  0  0  0  0  0  0  0  0  0
   -0.1296    1.5897   -1.0823 N   0  0  0  0  0  0  0  0  0  0  0  0
    0.4642    0.9382   -1.5702 H   0  0  0  0  0  0  0  0  0  0  0  0
   -0.2064    2.9601   -1.5859 C   0  0  0  0  0  0  0  0  0  0  0  0
    0.1044    3.6571   -0.8041 H   0  0  0  0  0  0  0  0  0  0  0  0
    0.4416    3.0827   -2.4548 H   0  0  0  0  0  0  0  0  0  0  0  0
   -1.2353    3.1922   -1.8665 H   0  0  0  0  0  0  0  0  0  0  0  0
  5  6  2  0  0  0  0
  5  7  1  0  0  0  0
  2  3  1  0  0  0  0
  2  4  1  0  0  0  0
  2  5  1  0  0  0  0
  1  2  1  0  0  0  0
 22 23  2  0  0  0  0
 22 24  1  0  0  0  0
 18 19  1  0  0  0  0
 18 20  1  0  0  0  0
 18 21  1  0  0  0  0
 17 18  1  0  0  0  0
 14 15  1  0  0  0  0
 14 16  1  0  0  0  0
 14 17  1  0  0  0  0
 11 12  1  0  0  0  0
 11 13  1  0  0  0  0
 11 14  1  0  0  0  0
  9 10  1  0  0  0  0
  9 11  1  0  0  0  0
  9 22  1  0  0  0  0
  7  8  1  0  0  0  0
  7  9  1  0  0  0  0
 26 27  1  0  0  0  0
 26 28  1  0  0  0  0
 26 29  1  0  0  0  0
 24 25  1  0  0  0  0
 24 26  1  0  0  0  0
M  END
$$$$
default_name
  -OEChem-01062215323D

 29 28  0     1  0  0  0  0  0999 V2000
   -3.5781   -3.7296    1.2702 H   0  0  0  0  0  0  0  0  0  0  0  0
   -3.5311   -2.7616    0.7732 C   0  0  0  0  0  0  0  0  0  0  0  0
   -4.2371   -2.0766    1.2382 H   0  0  0  0  0  0  0  0  0  0  0  0
   -3.7681   -2.8816   -0.2818 H   0  0  0  0  0  0  0  0  0  0  0  0
   -2.1321   -2.2086    0.9112 C   0  0  0  0  0  0  0  0  0  0  0  0
   -1.2751   -2.8426    1.5112 O   0  0  0  0  0  0  0  0  0  0  0  0
   -1.9041   -1.0186    0.3602 N   0  0  0  0  0  0  0  0  0  0  0  0
   -2.6671   -0.5416   -0.0988 H   0  0  0  0  0  0  0  0  0  0  0  0
   -0.6131   -0.3236    0.3832 C   0  0  1  0  0  0  0  0  0  0  0  0
   -0.2142   -0.3639    1.3980 H   0  0  0  0  0  0  0  0  0  0  0  0
    0.3693   -1.0545   -0.5505 C   0  0  0  0  0  0  0  0  0  0  0  0
   -0.0818   -1.1340   -1.5418 H   0  0  0  0  0  0  0  0  0  0  0  0
    1.2853   -0.4685   -0.6387 H   0  0  0  0  0  0  0  0  0  0  0  0
    0.7340   -2.4647   -0.0726 C   0  0  0  0  0  0  0  0  0  0  0  0
   -0.1726   -3.0653   -0.0065 H   0  0  0  0  0  0  0  0  0  0  0  0
    1.4037   -2.9199   -0.8033 H   0  0  0  0  0  0  0  0  0  0  0  0
    1.5474   -2.4953    1.5451 S   0  0  0  0  0  0  0  0  0  0  0  0
    3.1312   -1.7310    1.1099 C   0  0  0  0  0  0  0  0  0  0  0  0
    2.9605   -0.7256    0.7239 H   0  0  0  0  0  0  0  0  0  0  0  0
    3.7605   -1.6723    1.9984 H   0  0  0  0  0  0  0  0  0  0  0  0
    3.6346   -2.3332    0.3531 H   0  0  0  0  0  0  0  0  0  0  0  0
   -0.7905    1.1517   -0.0029 C   0  0  0  0  0  0  0  0  0  0  0  0
   -1.2868    1.9429    0.7965 O   0  0  0  0  0  0  0  0  0  0  0  0
   -0.3945    1.5196   -1.2282 N   0  0  0  0  0  0  0  0  0  0  0  0
    0.0175    0.8184   -1.8229 H   0  0  0  0  0  0  0  0  0  0  0  0
   -0.5104    2.8809   -1.7491 C   0  0  0  0  0  0  0  0  0  0  0  0
    0.0279    3.5716   -1.0958 H   0  0  0  0  0  0  0  0  0  0  0  0
   -0.0936    2.9397   -2.7554 H   0  0  0  0  0  0  0  0  0  0  0  0
   -1.5606    3.1772   -1.7746 H   0  0  0  0  0  0  0  0  0  0  0  0
  5  6  2  0  0  0  0
  5  7  1  0  0  0  0
  2  3  1  0  0  0  0
  2  4  1  0  0  0  0
  2  5  1  0  0  0  0
  1  2  1  0  0  0  0
 22 23  2  0  0  0  0
 22 24  1  0  0  0  0
 18 19  1  0  0  0  0
 18 20  1  0  0  0  0
 18 21  1  0  0  0  0
 17 18  1  0  0  0  0
 14 15  1  0  0  0  0
 14 16  1  0  0  0  0
 14 17  1  0  0  0  0
 11 12  1  0  0  0  0
 11 13  1  0  0  0  0
 11 14  1  0  0  0  0
  9 10  1  0  0  0  0
  9 11  1  0  0  0  0
  9 22  1  0  0  0  0
  7  8  1  0  0  0  0
  7  9  1  0  0  0  0
 26 27  1  0  0  0  0
 26 28  1  0  0  0  0
 26 29  1  0  0  0  0
 24 25  1  0  0  0  0
 24 26  1  0  0  0  0
M  END
$$$$
default_name
  -OEChem-01062215323D

 29 28  0     1  0  0  0  0  0999 V2000
   -3.5781   -3.7296    1.2702 H   0  0  0  0  0  0  0  0  0  0  0  0
   -3.5311   -2.7616    0.7732 C   0  0  0  0  0  0  0  0  0  0  0  0
   -4.2371   -2.0766    1.2382 H   0  0  0  0  0  0  0  0  0  0  0  0
   -3.7681   -2.8816   -0.2818 H   0  0  0  0  0  0  0  0  0  0  0  0
   -2.1321   -2.2086    0.9112 C   0  0  0  0  0  0  0  0  0  0  0  0
   -1.2751   -2.8426    1.5112 O   0  0  0  0  0  0  0  0  0  0  0  0
   -1.9041   -1.0186    0.3602 N   0  0  0  0  0  0  0  0  0  0  0  0
   -2.6671   -0.5416   -0.0988 H   0  0  0  0  0  0  0  0  0  0  0  0
   -0.6131   -0.3236    0.3832 C   0  0  1  0  0  0  0  0  0  0  0  0
   -0.2142   -0.3639    1.3980 H   0  0  0  0  0  0  0  0  0  0  0  0
    0.3693   -1.0545   -0.5505 C   0  0  0  0  0  0  0  0  0  0  0  0
   -0.0818   -1.1340   -1.5418 H   0  0  0  0  0  0  0  0  0  0  0  0
    1.2853   -0.4685   -0.6387 H   0  0  0  0  0  0  0  0  0  0  0  0
    0.7340   -2.4647   -0.0726 C   0  0  0  0  0  0  0  0  0  0  0  0
   -0.1726   -3.0653   -0.0065 H   0  0  0  0  0  0  0  0  0  0  0  0
    1.4037   -2.9199   -0.8033 H   0  0  0  0  0  0  0  0  0  0  0  0
    1.5474   -2.4953    1.5451 S   0  0  0  0  0  0  0  0  0  0  0  0
    3.1312   -1.7310    1.1099 C   0  0  0  0  0  0  0  0  0  0  0  0
    2.9605   -0.7256    0.7239 H   0  0  0  0  0  0  0  0  0  0  0  0
    3.7605   -1.6723    1.9984 H   0  0  0  0  0  0  0  0  0  0  0  0
    3.6346   -2.3332    0.3531 H   0  0  0  0  0  0  0  0  0  0  0  0
   -0.7905    1.1517   -0.0029 C   0  0  0  0  0  0  0  0  0  0  0  0
   -1.0220    1.9923    0.8637 O   0  0  0  0  0  0  0  0  0  0  0  0
   -0.6912    1.4648   -1.3012 N   0  0  0  0  0  0  0  0  0  0  0  0
   -0.4845    0.7242   -1.9522 H   0  0  0  0  0  0  0  0  0  0  0  0
   -0.8498    2.8192   -1.8287 C   0  0  0  0  0  0  0  0  0  0  0  0
   -0.1242    3.4852   -1.3559 H   0  0  0  0  0  0  0  0  0  0  0  0
   -0.6947    2.8274   -2.9083 H   0  0  0  0  0  0  0  0  0  0  0  0
   -1.8529    3.1865   -1.6046 H   0  0  0  0  0  0  0  0  0  0  0  0
  5  6  2  0  0  0  0
  5  7  1  0  0  0  0
  2  3  1  0  0  0  0
  2  4  1  0  0  0  0
  2  5  1  0  0  0  0
  1  2  1  0  0  0  0
 22 23  2  0  0  0  0
 22 24  1  0  0  0  0
 18 19  1  0  0  0  0
 18 20  1  0  0  0  0
 18 21  1  0  0  0  0
 17 18  1  0  0  0  0
 14 15  1  0  0  0  0
 14 16  1  0  0  0  0
 14 17  1  0  0  0  0
 11 12  1  0  0  0  0
 11 13  1  0  0  0  0
 11 14  1  0  0  0  0
  9 10  1  0  0  0  0
  9 11  1  0  0  0  0
  9 22  1  0  0  0  0
  7  8  1  0  0  0  0
  7  9  1  0  0  0  0
 26 27  1  0  0  0  0
 26 28  1  0  0  0  0
 26 29  1  0  0  0  0
 24 25  1  0  0  0  0
 24 26  1  0  0  0  0
M  END
$$$$
default_name
  -OEChem-01062215323D

 29 28  0     1  0  0  0  0  0999 V2000
   -3.5781   -3.7296    1.2702 H   0  0  0  0  0  0  0  0  0  0  0  0
   -3.5311   -2.7616    0.7732 C   0  0  0  0  0  0  0  0  0  0  0  0
   -4.2371   -2.0766    1.2382 H   0  0  0  0  0  0  0  0  0  0  0  0
   -3.7681   -2.8816   -0.2818 H   0  0  0  0  0  0  0  0  0  0  0  0
   -2.1321   -2.2086    0.9112 C   0  0  0  0  0  0  0  0  0  0  0  0
   -1.2751   -2.8426    1.5112 O   0  0  0  0  0  0  0  0  0  0  0  0
   -1.9041   -1.0186    0.3602 N   0  0  0  0  0  0  0  0  0  0  0  0
   -2.6671   -0.5416   -0.0988 H   0  0  0  0  0  0  0  0  0  0  0  0
   -0.6131   -0.3236    0.3832 C   0  0  1  0  0  0  0  0  0  0  0  0
   -0.2142   -0.3639    1.3980 H   0  0  0  0  0  0  0  0  0  0  0  0
    0.3693   -1.0545   -0.5505 C   0  0  0  0  0  0  0  0  0  0  0  0
   -0.0818   -1.1340   -1.5418 H   0  0  0  0  0  0  0  0  0  0  0  0
    1.2853   -0.4685   -0.6387 H   0  0  0  0  0  0  0  0  0  0  0  0
    0.7340   -2.4647   -0.0726 C   0  0  0  0  0  0  0  0  0  0  0  0
   -0.1726   -3.0653   -0.0065 H   0  0  0  0  0  0  0  0  0  0  0  0
    1.4037   -2.9199   -0.8033 H   0  0  0  0  0  0  0  0  0  0  0  0
    1.5474   -2.4953    1.5451 S   0  0  0  0  0  0  0  0  0  0  0  0
    3.1312   -1.7310    1.1099 C   0  0  0  0  0  0  0  0  0  0  0  0
    2.9605   -0.7256    0.7239 H   0  0  0  0  0  0  0  0  0  0  0  0
    3.7605   -1.6723    1.9984 H   0  0  0  0  0  0  0  0  0  0  0  0
    3.6346   -2.3332    0.3531 H   0  0  0  0  0  0  0  0  0  0  0  0
   -0.7905    1.1517   -0.0029 C   0  0  0  0  0  0  0  0  0  0  0  0
   -0.7463    2.0248    0.8614 O   0  0  0  0  0  0  0  0  0  0  0  0
   -0.9995    1.4290   -1.2963 N   0  0  0  0  0  0  0  0  0  0  0  0
   -1.0077    0.6619   -1.9495 H   0  0  0  0  0  0  0  0  0  0  0  0
   -1.2015    2.7794   -1.8193 C   0  0  0  0  0  0  0  0  0  0  0  0
   -0.3414    3.4039   -1.5668 H   0  0  0  0  0  0  0  0  0  0  0  0
   -1.3207    2.7534   -2.9032 H   0  0  0  0  0  0  0  0  0  0  0  0
   -2.0924    3.2197   -1.3679 H   0  0  0  0  0  0  0  0  0  0  0  0
  5  6  2  0  0  0  0
  5  7  1  0  0  0  0
  2  3  1  0  0  0  0
  2  4  1  0  0  0  0
  2  5  1  0  0  0  0
  1  2  1  0  0  0  0
 22 23  2  0  0  0  0
 22 24  1  0  0  0  0
 18 19  1  0  0  0  0
 18 20  1  0  0  0  0
 18 21  1  0  0  0  0
 17 18  1  0  0  0  0
 14 15  1  0  0  0  0
 14 16  1  0  0  0  0
 14 17  1  0  0  0  0
 11 12  1  0  0  0  0
 11 13  1  0  0  0  0
 11 14  1  0  0  0  0
  9 10  1  0  0  0  0
  9 11  1  0  0  0  0
  9 22  1  0  0  0  0
  7  8  1  0  0  0  0
  7  9  1  0  0  0  0
 26 27  1  0  0  0  0
 26 28  1  0  0  0  0
 26 29  1  0  0  0  0
 24 25  1  0  0  0  0
 24 26  1  0  0  0  0
M  END
$$$$
default_name
  -OEChem-01062215323D

 29 28  0     1  0  0  0  0  0999 V2000
   -3.5781   -3.7296    1.2702 H   0  0  0  0  0  0  0  0  0  0  0  0
   -3.5311   -2.7616    0.7732 C   0  0  0  0  0  0  0  0  0  0  0  0
   -4.2371   -2.0766    1.2382 H   0  0  0  0  0  0  0  0  0  0  0  0
   -3.7681   -2.8816   -0.2818 H   0  0  0  0  0  0  0  0  0  0  0  0
   -2.1321   -2.2086    0.9112 C   0  0  0  0  0  0  0  0  0  0  0  0
   -1.2751   -2.8426    1.5112 O   0  0  0  0  0  0  0  0  0  0  0  0
   -1.9041   -1.0186    0.3602 N   0  0  0  0  0  0  0  0  0  0  0  0
   -2.6671   -0.5416   -0.0988 H   0  0  0  0  0  0  0  0  0  0  0  0
   -0.6131   -0.3236    0.3832 C   0  0  1  0  0  0  0  0  0  0  0  0
   -0.2142   -0.3639    1.3980 H   0  0  0  0  0  0  0  0  0  0  0  0
    0.3693   -1.0545   -0.5505 C   0  0  0  0  0  0  0  0  0  0  0  0
   -0.0818   -1.1340   -1.5418 H   0  0  0  0  0  0  0  0  0  0  0  0
    1.2853   -0.4685   -0.6387 H   0  0  0  0  0  0  0  0  0  0  0  0
    0.7340   -2.4647   -0.0726 C   0  0  0  0  0  0  0  0  0  0  0  0
   -0.1726   -3.0653   -0.0065 H   0  0  0  0  0  0  0  0  0  0  0  0
    1.4037   -2.9199   -0.8033 H   0  0  0  0  0  0  0  0  0  0  0  0
    1.5474   -2.4953    1.5451 S   0  0  0  0  0  0  0  0  0  0  0  0
    3.1312   -1.7310    1.1099 C   0  0  0  0  0  0  0  0  0  0  0  0
    2.9605   -0.7256    0.7239 H   0  0  0  0  0  0  0  0  0  0  0  0
    3.7605   -1.6723    1.9984 H   0  0  0  0  0  0  0  0  0  0  0  0
    3.6346   -2.3332    0.3531 H   0  0  0  0  0  0  0  0  0  0  0  0
   -0.7905    1.1517   -0.0029 C   0  0  0  0  0  0  0  0  0  0  0  0
   -0.4785    2.0382    0.7895 O   0  0  0  0  0  0  0  0  0  0  0  0
   -1.2985    1.4147   -1.2138 N   0  0  0  0  0  0  0  0  0  0  0  0
   -1.5165    0.6360   -1.8148 H   0  0  0  0  0  0  0  0  0  0  0  0
   -1.5414    2.7641   -1.7216 C   0  0  0  0  0  0  0  0  0  0  0  0
   -0.6089    3.3332   -1.7141 H   0  0  0  0  0  0  0  0  0  0  0  0
   -1.9289    2.7229   -2.7404 H   0  0  0  0  0  0  0  0  0  0  0  0
   -2.2627    3.2744   -1.0807 H   0  0  0  0  0  0  0  0  0  0  0  0
  5  6  2  0  0  0  0
  5  7  1  0  0  0  0
  2  3  1  0  0  0  0
  2  4  1  0  0  0  0
  2  5  1  0  0  0  0
  1  2  1  0  0  0  0
 22 23  2  0  0  0  0
 22 24  1  0  0  0  0
 18 19  1  0  0  0  0
 18 20  1  0  0  0  0
 18 21  1  0  0  0  0
 17 18  1  0  0  0  0
 14 15  1  0  0  0  0
 14 16  1  0  0  0  0
 14 17  1  0  0  0  0
 11 12  1  0  0  0  0
 11 13  1  0  0  0  0
 11 14  1  0  0  0  0
  9 10  1  0  0  0  0
  9 11  1  0  0  0  0
  9 22  1  0  0  0  0
  7  8  1  0  0  0  0
  7  9  1  0  0  0  0
 26 27  1  0  0  0  0
 26 28  1  0  0  0  0
 26 29  1  0  0  0  0
 24 25  1  0  0  0  0
 24 26  1  0  0  0  0
M  END
$$$$
default_name
  -OEChem-01062215323D

 29 28  0     1  0  0  0  0  0999 V2000
   -3.5781   -3.7296    1.2702 H   0  0  0  0  0  0  0  0  0  0  0  0
   -3.5311   -2.7616    0.7732 C   0  0  0  0  0  0  0  0  0  0  0  0
   -4.2371   -2.0766    1.2382 H   0  0  0  0  0  0  0  0  0  0  0  0
   -3.7681   -2.8816   -0.2818 H   0  0  0  0  0  0  0  0  0  0  0  0
   -2.1321   -2.2086    0.9112 C   0  0  0  0  0  0  0  0  0  0  0  0
   -1.2751   -2.8426    1.5112 O   0  0  0  0  0  0  0  0  0  0  0  0
   -1.9041   -1.0186    0.3602 N   0  0  0  0  0  0  0  0  0  0  0  0
   -2.6671   -0.5416   -0.0988 H   0  0  0  0  0  0  0  0  0  0  0  0
   -0.6131   -0.3236    0.3832 C   0  0  1  0  0  0  0  0  0  0  0  0
   -0.2142   -0.3639    1.3980 H   0  0  0  0  0  0  0  0  0  0  0  0
    0.3693   -1.0545   -0.5505 C   0  0  0  0  0  0  0  0  0  0  0  0
   -0.0818   -1.1340   -1.5418 H   0  0  0  0  0  0  0  0  0  0  0  0
    1.2853   -0.4685   -0.6387 H   0  0  0  0  0  0  0  0  0  0  0  0
    0.7340   -2.4647   -0.0726 C   0  0  0  0  0  0  0  0  0  0  0  0
   -0.1726   -3.0653   -0.0065 H   0  0  0  0  0  0  0  0  0  0  0  0
    1.4037   -2.9199   -0.8033 H   0  0  0  0  0  0  0  0  0  0  0  0
    1.5474   -2.4953    1.5451 S   0  0  0  0  0  0  0  0  0  0  0  0
    3.1312   -1.7310    1.1099 C   0  0  0  0  0  0  0  0  0  0  0  0
    2.9605   -0.7256    0.7239 H   0  0  0  0  0  0  0  0  0  0  0  0
    3.7605   -1.6723    1.9984 H   0  0  0  0  0  0  0  0  0  0  0  0
    3.6346   -2.3332    0.3531 H   0  0  0  0  0  0  0  0  0  0  0  0
   -0.7905    1.1517   -0.0029 C   0  0  0  0  0  0  0  0  0  0  0  0
   -0.2367    2.0316    0.6531 O   0  0  0  0  0  0  0  0  0  0  0  0
   -1.5676    1.4227   -1.0594 N   0  0  0  0  0  0  0  0  0  0  0  0
   -1.9762    0.6481   -1.5575 H   0  0  0  0  0  0  0  0  0  0  0  0
   -1.8465    2.7743   -1.5422 C   0  0  0  0  0  0  0  0  0  0  0  0
   -0.9085    3.2779   -1.7876 H   0  0  0  0  0  0  0  0  0  0  0  0
   -2.4778    2.7379   -2.4309 H   0  0  0  0  0  0  0  0  0  0  0  0
   -2.3522    3.3469   -0.7626 H   0  0  0  0  0  0  0  0  0  0  0  0
  5  6  2  0  0  0  0
  5  7  1  0  0  0  0
  2  3  1  0  0  0  0
  2  4  1  0  0  0  0
  2  5  1  0  0  0  0
  1  2  1  0  0  0  0
 22 23  2  0  0  0  0
 22 24  1  0  0  0  0
 18 19  1  0  0  0  0
 18 20  1  0  0  0  0
 18 21  1  0  0  0  0
 17 18  1  0  0  0  0
 14 15  1  0  0  0  0
 14 16  1  0  0  0  0
 14 17  1  0  0  0  0
 11 12  1  0  0  0  0
 11 13  1  0  0  0  0
 11 14  1  0  0  0  0
  9 10  1  0  0  0  0
  9 11  1  0  0  0  0
  9 22  1  0  0  0  0
  7  8  1  0  0  0  0
  7  9  1  0  0  0  0
 26 27  1  0  0  0  0
 26 28  1  0  0  0  0
 26 29  1  0  0  0  0
 24 25  1  0  0  0  0
 24 26  1  0  0  0  0
M  END
$$$$
default_name
  -OEChem-01062215323D

 29 28  0     1  0  0  0  0  0999 V2000
   -3.5781   -3.7296    1.2702 H   0  0  0  0  0  0  0  0  0  0  0  0
   -3.5311   -2.7616    0.7732 C   0  0  0  0  0  0  0  0  0  0  0  0
   -4.2371   -2.0766    1.2382 H   0  0  0  0  0  0  0  0  0  0  0  0
   -3.7681   -2.8816   -0.2818 H   0  0  0  0  0  0  0  0  0  0  0  0
   -2.1321   -2.2086    0.9112 C   0  0  0  0  0  0  0  0  0  0  0  0
   -1.2751   -2.8426    1.5112 O   0  0  0  0  0  0  0  0  0  0  0  0
   -1.9041   -1.0186    0.3602 N   0  0  0  0  0  0  0  0  0  0  0  0
   -2.6671   -0.5416   -0.0988 H   0  0  0  0  0  0  0  0  0  0  0  0
   -0.6131   -0.3236    0.3832 C   0  0  1  0  0  0  0  0  0  0  0  0
   -0.2142   -0.3639    1.3980 H   0  0  0  0  0  0  0  0  0  0  0  0
    0.3693   -1.0545   -0.5505 C   0  0  0  0  0  0  0  0  0  0  0  0
   -0.0818   -1.1340   -1.5418 H   0  0  0  0  0  0  0  0  0  0  0  0
    1.2853   -0.4685   -0.6387 H   0  0  0  0  0  0  0  0  0  0  0  0
    0.7340   -2.4647   -0.0726 C   0  0  0  0  0  0  0  0  0  0  0  0
   -0.1726   -3.0653   -0.0065 H   0  0  0  0  0  0  0  0  0  0  0  0
    1.4037   -2.9199   -0.8033 H   0  0  0  0  0  0  0  0  0  0  0  0
    1.5474   -2.4953    1.5451 S   0  0  0  0  0  0  0  0  0  0  0  0
    3.1312   -1.7310    1.1099 C   0  0  0  0  0  0  0  0  0  0  0  0
    2.9605   -0.7256    0.7239 H   0  0  0  0  0  0  0  0  0  0  0  0
    3.7605   -1.6723    1.9984 H   0  0  0  0  0  0  0  0  0  0  0  0
    3.6346   -2.3332    0.3531 H   0  0  0  0  0  0  0  0  0  0  0  0
   -0.7905    1.1517   -0.0029 C   0  0  0  0  0  0  0  0  0  0  0  0
   -0.0376    2.0054    0.4615 O   0  0  0  0  0  0  0  0  0  0  0  0
   -1.7887    1.4527   -0.8435 N   0  0  0  0  0  0  0  0  0  0  0  0
   -2.3554    0.6974   -1.1949 H   0  0  0  0  0  0  0  0  0  0  0  0
   -2.0959    2.8095   -1.2933 C   0  0  0  0  0  0  0  0  0  0  0  0
   -1.2198    3.2418   -1.7825 H   0  0  0  0  0  0  0  0  0  0  0  0
   -2.9301    2.7973   -1.9959 H   0  0  0  0  0  0  0  0  0  0  0  0
   -2.3548    3.4322   -0.4352 H   0  0  0  0  0  0  0  0  0  0  0  0
  5  6  2  0  0  0  0
  5  7  1  0  0  0  0
  2  3  1  0  0  0  0
  2  4  1  0  0  0  0
  2  5  1  0  0  0  0
  1  2  1  0  0  0  0
 22 23  2  0  0  0  0
 22 24  1  0  0  0  0
 18 19  1  0  0  0  0
 18 20  1  0  0  0  0
 18 21  1  0  0  0  0
 17 18  1  0  0  0  0
 14 15  1  0  0  0  0
 14 16  1  0  0  0  0
 14 17  1  0  0  0  0
 11 12  1  0  0  0  0
 11 13  1  0  0  0  0
 11 14  1  0  0  0  0
  9 10  1  0  0  0  0
  9 11  1  0  0  0  0
  9 22  1  0  0  0  0
  7  8  1  0  0  0  0
  7  9  1  0  0  0  0
 26 27  1  0  0  0  0
 26 28  1  0  0  0  0
 26 29  1  0  0  0  0
 24 25  1  0  0  0  0
 24 26  1  0  0  0  0
M  END
$$$$
default_name
  -OEChem-01062215323D

 29 28  0     1  0  0  0  0  0999 V2000
   -3.5781   -3.7296    1.2702 H   0  0  0  0  0  0  0  0  0  0  0  0
   -3.5311   -2.7616    0.7732 C   0  0  0  0  0  0  0  0  0  0  0  0
   -4.2371   -2.0766    1.2382 H   0  0  0  0  0  0  0  0  0  0  0  0
   -3.7681   -2.8816   -0.2818 H   0  0  0  0  0  0  0  0  0  0  0  0
   -2.1321   -2.2086    0.9112 C   0  0  0  0  0  0  0  0  0  0  0  0
   -1.2751   -2.8426    1.5112 O   0  0  0  0  0  0  0  0  0  0  0  0
   -1.9041   -1.0186    0.3602 N   0  0  0  0  0  0  0  0  0  0  0  0
   -2.6671   -0.5416   -0.0988 H   0  0  0  0  0  0  0  0  0  0  0  0
   -0.6131   -0.3236    0.3832 C   0  0  1  0  0  0  0  0  0  0  0  0
   -0.2142   -0.3639    1.3980 H   0  0  0  0  0  0  0  0  0  0  0  0
    0.3693   -1.0545   -0.5505 C   0  0  0  0  0  0  0  0  0  0  0  0
   -0.0818   -1.1340   -1.5418 H   0  0  0  0  0  0  0  0  0  0  0  0
    1.2853   -0.4685   -0.6387 H   0  0  0  0  0  0  0  0  0  0  0  0
    0.7340   -2.4647   -0.0726 C   0  0  0  0  0  0  0  0  0  0  0  0
   -0.1726   -3.0653   -0.0065 H   0  0  0  0  0  0  0  0  0  0  0  0
    1.4037   -2.9199   -0.8033 H   0  0  0  0  0  0  0  0  0  0  0  0
    1.5474   -2.4953    1.5451 S   0  0  0  0  0  0  0  0  0  0  0  0
    3.1312   -1.7310    1.1099 C   0  0  0  0  0  0  0  0  0  0  0  0
    2.9605   -0.7256    0.7239 H   0  0  0  0  0  0  0  0  0  0  0  0
    3.7605   -1.6723    1.9984 H   0  0  0  0  0  0  0  0  0  0  0  0
    3.6346   -2.3332    0.3531 H   0  0  0  0  0  0  0  0  0  0  0  0
   -0.7905    1.1517   -0.0029 C   0  0  0  0  0  0  0  0  0  0  0  0
    0.1054    1.9614    0.2276 O   0  0  0  0  0  0  0  0  0  0  0  0
   -1.9466    1.5024   -0.5808 N   0  0  0  0  0  0  0  0  0  0  0  0
   -2.6282    0.7805   -0.7519 H   0  0  0  0  0  0  0  0  0  0  0  0
   -2.2726    2.8671   -0.9920 C   0  0  0  0  0  0  0  0  0  0  0  0
   -1.5216    3.2274   -1.6991 H   0  0  0  0  0  0  0  0  0  0  0  0
   -3.2550    2.8972   -1.4651 H   0  0  0  0  0  0  0  0  0  0  0  0
   -2.2703    3.5246   -0.1209 H   0  0  0  0  0  0  0  0  0  0  0  0
  5  6  2  0  0  0  0
  5  7  1  0  0  0  0
  2  3  1  0  0  0  0
  2  4  1  0  0  0  0
  2  5  1  0  0  0  0
  1  2  1  0  0  0  0
 22 23  2  0  0  0  0
 22 24  1  0  0  0  0
 18 19  1  0  0  0  0
 18 20  1  0  0  0  0
 18 21  1  0  0  0  0
 17 18  1  0  0  0  0
 14 15  1  0  0  0  0
 14 16  1  0  0  0  0
 14 17  1  0  0  0  0
 11 12  1  0  0  0  0
 11 13  1  0  0  0  0
 11 14  1  0  0  0  0
  9 10  1  0  0  0  0
  9 11  1  0  0  0  0
  9 22  1  0  0  0  0
  7  8  1  0  0  0  0
  7  9  1  0  0  0  0
 26 27  1  0  0  0  0
 26 28  1  0  0  0  0
 26 29  1  0  0  0  0
 24 25  1  0  0  0  0
 24 26  1  0  0  0  0
M  END
$$$$
default_name
  -OEChem-01062215323D

 29 28  0     1  0  0  0  0  0999 V2000
   -3.5781   -3.7296    1.2702 H   0  0  0  0  0  0  0  0  0  0  0  0
   -3.5311   -2.7616    0.7732 C   0  0  0  0  0  0  0  0  0  0  0  0
   -4.2371   -2.0766    1.2382 H   0  0  0  0  0  0  0  0  0  0  0  0
   -3.7681   -2.8816   -0.2818 H   0  0  0  0  0  0  0  0  0  0  0  0
   -2.1321   -2.2086    0.9112 C   0  0  0  0  0  0  0  0  0  0  0  0
   -1.2751   -2.8426    1.5112 O   0  0  0  0  0  0  0  0  0  0  0  0
   -1.9041   -1.0186    0.3602 N   0  0  0  0  0  0  0  0  0  0  0  0
   -2.6671   -0.5416   -0.0988 H   0  0  0  0  0  0  0  0  0  0  0  0
   -0.6131   -0.3236    0.3832 C   0  0  1  0  0  0  0  0  0  0  0  0
   -0.2142   -0.3639    1.3980 H   0  0  0  0  0  0  0  0  0  0  0  0
    0.3693   -1.0545   -0.5505 C   0  0  0  0  0  0  0  0  0  0  0  0
   -0.0818   -1.1340   -1.5418 H   0  0  0  0  0  0  0  0  0  0  0  0
    1.2853   -0.4685   -0.6387 H   0  0  0  0  0  0  0  0  0  0  0  0
    0.7340   -2.4647   -0.0726 C   0  0  0  0  0  0  0  0  0  0  0  0
   -0.1726   -3.0653   -0.0065 H   0  0  0  0  0  0  0  0  0  0  0  0
    1.4037   -2.9199   -0.8033 H   0  0  0  0  0  0  0  0  0  0  0  0
    1.5474   -2.4953    1.5451 S   0  0  0  0  0  0  0  0  0  0  0  0
    3.1312   -1.7310    1.1099 C   0  0  0  0  0  0  0  0  0  0  0  0
    2.9605   -0.7256    0.7239 H   0  0  0  0  0  0  0  0  0  0  0  0
    3.7605   -1.6723    1.9984 H   0  0  0  0  0  0  0  0  0  0  0  0
    3.6346   -2.3332    0.3531 H   0  0  0  0  0  0  0  0  0  0  0  0
   -0.7905    1.1517   -0.0029 C   0  0  0  0  0  0  0  0  0  0  0  0
    0.1825    1.9026   -0.0326 O   0  0  0  0  0  0  0  0  0  0  0  0
   -2.0305    1.5686   -0.2894 N   0  0  0  0  0  0  0  0  0  0  0  0
   -2.7762    0.8918   -0.2586 H   0  0  0  0  0  0  0  0  0  0  0  0
   -2.3645    2.9433   -0.6587 C   0  0  0  0  0  0  0  0  0  0  0  0
   -1.7933    3.2356   -1.5430 H   0  0  0  0  0  0  0  0  0  0  0  0
   -3.4302    3.0307   -0.8745 H   0  0  0  0  0  0  0  0  0  0  0  0
   -2.1045    3.6178    0.1590 H   0  0  0  0  0  0  0  0  0  0  0  0
  5  6  2  0  0  0  0
  5  7  1  0  0  0  0
  2  3  1  0  0  0  0
  2  4  1  0  0  0  0
  2  5  1  0  0  0  0
  1  2  1  0  0  0  0
 22 23  2  0  0  0  0
 22 24  1  0  0  0  0
 18 19  1  0  0  0  0
 18 20  1  0  0  0  0
 18 21  1  0  0  0  0
 17 18  1  0  0  0  0
 14 15  1  0  0  0  0
 14 16  1  0  0  0  0
 14 17  1  0  0  0  0
 11 12  1  0  0  0  0
 11 13  1  0  0  0  0
 11 14  1  0  0  0  0
  9 10  1  0  0  0  0
  9 11  1  0  0  0  0
  9 22  1  0  0  0  0
  7  8  1  0  0  0  0
  7  9  1  0  0  0  0
 26 27  1  0  0  0  0
 26 28  1  0  0  0  0
 26 29  1  0  0  0  0
 24 25  1  0  0  0  0
 24 26  1  0  0  0  0
M  END
$$$$
default_name
  -OEChem-01062215323D

 29 28  0     1  0  0  0  0  0999 V2000
   -3.5781   -3.7296    1.2702 H   0  0  0  0  0  0  0  0  0  0  0  0
   -3.5311   -2.7616    0.7732 C   0  0  0  0  0  0  0  0  0  0  0  0
   -4.2371   -2.0766    1.2382 H   0  0  0  0  0  0  0  0  0  0  0  0
   -3.7681   -2.8816   -0.2818 H   0  0  0  0  0  0  0  0  0  0  0  0
   -2.1321   -2.2086    0.9112 C   0  0  0  0  0  0  0  0  0  0  0  0
   -1.2751   -2.8426    1.5112 O   0  0  0  0  0  0  0  0  0  0  0  0
   -1.9041   -1.0186    0.3602 N   0  0  0  0  0  0  0  0  0  0  0  0
   -2.6671   -0.5416   -0.0988 H   0  0  0  0  0  0  0  0  0  0  0  0
   -0.6131   -0.3236    0.3832 C   0  0  1  0  0  0  0  0  0  0  0  0
   -0.2142   -0.3639    1.3980 H   0  0  0  0  0  0  0  0  0  0  0  0
    0.3693   -1.0545   -0.5505 C   0  0  0  0  0  0  0  0  0  0  0  0
   -0.0818   -1.1340   -1.5418 H   0  0  0  0  0  0  0  0  0  0  0  0
    1.2853   -0.4685   -0.6387 H   0  0  0  0  0  0  0  0  0  0  0  0
    0.7340   -2.4647   -0.0726 C   0  0  0  0  0  0  0  0  0  0  0  0
   -0.1726   -3.0653   -0.0065 H   0  0  0  0  0  0  0  0  0  0  0  0
    1.4037   -2.9199   -0.8033 H   0  0  0  0  0  0  0  0  0  0  0  0
    1.5474   -2.4953    1.5451 S   0  0  0  0  0  0  0  0  0  0  0  0
    3.1312   -1.7310    1.1099 C   0  0  0  0  0  0  0  0  0  0  0  0
    2.9605   -0.7256    0.7239 H   0  0  0  0  0  0  0  0  0  0  0  0
    3.7605   -1.6723    1.9984 H   0  0  0  0  0  0  0  0  0  0  0  0
    3.6346   -2.3332    0.3531 H   0  0  0  0  0  0  0  0  0  0  0  0
   -0.7905    1.1517   -0.0029 C   0  0  0  0  0  0  0  0  0  0  0  0
    0.1884    1.8329   -0.3013 O   0  0  0  0  0  0  0  0  0  0  0  0
   -2.0348    1.6467    0.0110 N   0  0  0  0  0  0  0  0  0  0  0  0
   -2.7893    1.0237    0.2514 H   0  0  0  0  0  0  0  0  0  0  0  0
   -2.3656    3.0328   -0.3162 C   0  0  0  0  0  0  0  0  0  0  0  0
   -2.0164    3.2658   -1.3249 H   0  0  0  0  0  0  0  0  0  0  0  0
   -3.4439    3.1887   -0.2644 H   0  0  0  0  0  0  0  0  0  0  0  0
   -1.8687    3.7054    0.3852 H   0  0  0  0  0  0  0  0  0  0  0  0
  5  6  2  0  0  0  0
  5  7  1  0  0  0  0
  2  3  1  0  0  0  0
  2  4  1  0  0  0  0
  2  5  1  0  0  0  0
  1  2  1  0  0  0  0
 22 23  2  0  0  0  0
 22 24  1  0  0  0  0
 18 19  1  0  0  0  0
 18 20  1  0  0  0  0
 18 21  1  0  0  0  0
 17 18  1  0  0  0  0
 14 15  1  0  0  0  0
 14 16  1  0  0  0  0
 14 17  1  0  0  0  0
 11 12  1  0  0  0  0
 11 13  1  0  0  0  0
 11 14  1  0  0  0  0
  9 10  1  0  0  0  0
  9 11  1  0  0  0  0
  9 22  1  0  0  0  0
  7  8  1  0  0  0  0
  7  9  1  0  0  0  0
 26 27  1  0  0  0  0
 26 28  1  0  0  0  0
 26 29  1  0  0  0  0
 24 25  1  0  0  0  0
 24 26  1  0  0  0  0
M  END
$$$$
default_name
  -OEChem-01062215323D

 29 28  0     1  0  0  0  0  0999 V2000
   -3.5781   -3.7296    1.2702 H   0  0  0  0  0  0  0  0  0  0  0  0
   -3.5311   -2.7616    0.7732 C   0  0  0  0  0  0  0  0  0  0  0  0
   -4.2371   -2.0766    1.2382 H   0  0  0  0  0  0  0  0  0  0  0  0
   -3.7681   -2.8816   -0.2818 H   0  0  0  0  0  0  0  0  0  0  0  0
   -2.1321   -2.2086    0.9112 C   0  0  0  0  0  0  0  0  0  0  0  0
   -1.2751   -2.8426    1.5112 O   0  0  0  0  0  0  0  0  0  0  0  0
   -1.9041   -1.0186    0.3602 N   0  0  0  0  0  0  0  0  0  0  0  0
   -2.6671   -0.5416   -0.0988 H   0  0  0  0  0  0  0  0  0  0  0  0
   -0.6131   -0.3236    0.3832 C   0  0  1  0  0  0  0  0  0  0  0  0
   -0.2142   -0.3639    1.3980 H   0  0  0  0  0  0  0  0  0  0  0  0
    0.3693   -1.0545   -0.5505 C   0  0  0  0  0  0  0  0  0  0  0  0
   -0.0818   -1.1340   -1.5418 H   0  0  0  0  0  0  0  0  0  0  0  0
    1.2853   -0.4685   -0.6387 H   0  0  0  0  0  0  0  0  0  0  0  0
    0.7340   -2.4647   -0.0726 C   0  0  0  0  0  0  0  0  0  0  0  0
   -0.1726   -3.0653   -0.0065 H   0  0  0  0  0  0  0  0  0  0  0  0
    1.4037   -2.9199   -0.8033 H   0  0  0  0  0  0  0  0  0  0  0  0
    1.5474   -2.4953    1.5451 S   0  0  0  0  0  0  0  0  0  0  0  0
    3.1312   -1.7310    1.1099 C   0  0  0  0  0  0  0  0  0  0  0  0
    2.9605   -0.7256    0.7239 H   0  0  0  0  0  0  0  0  0  0  0  0
    3.7605   -1.6723    1.9984 H   0  0  0  0  0  0  0  0  0  0  0  0
    3.6346   -2.3332    0.3531 H   0  0  0  0  0  0  0  0  0  0  0  0
   -0.7905    1.1517   -0.0029 C   0  0  0  0  0  0  0  0  0  0  0  0
    0.1227    1.7573   -0.5602 O   0  0  0  0  0  0  0  0  0  0  0  0
   -1.9591    1.7314    0.3000 N   0  0  0  0  0  0  0  0  0  0  0  0
   -2.6664    1.1672    0.7433 H   0  0  0  0  0  0  0  0  0  0  0  0
   -2.2755    3.1296    0.0122 C   0  0  0  0  0  0  0  0  0  0  0  0
   -2.1757    3.3161   -1.0597 H   0  0  0  0  0  0  0  0  0  0  0  0
   -3.2951    3.3605    0.3235 H   0  0  0  0  0  0  0  0  0  0  0  0
   -1.5790    3.7814    0.5425 H   0  0  0  0  0  0  0  0  0  0  0  0
  5  6  2  0  0  0  0
  5  7  1  0  0  0  0
  2  3  1  0  0  0  0
  2  4  1  0  0  0  0
  2  5  1  0  0  0  0
  1  2  1  0  0  0  0
 22 23  2  0  0  0  0
 22 24  1  0  0  0  0
 18 19  1  0  0  0  0
 18 20  1  0  0  0  0
 18 21  1  0  0  0  0
 17 18  1  0  0  0  0
 14 15  1  0  0  0  0
 14 16  1  0  0  0  0
 14 17  1  0  0  0  0
 11 12  1  0  0  0  0
 11 13  1  0  0  0  0
 11 14  1  0  0  0  0
  9 10  1  0  0  0  0
  9 11  1  0  0  0  0
  9 22  1  0  0  0  0
  7  8  1  0  0  0  0
  7  9  1  0  0  0  0
 26 27  1  0  0  0  0
 26 28  1  0  0  0  0
 26 29  1  0  0  0  0
 24 25  1  0  0  0  0
 24 26  1  0  0  0  0
M  END
$$$$
default_name
  -OEChem-01062215323D

 29 28  0     1  0  0  0  0  0999 V2000
   -3.5781   -3.7296    1.2702 H   0  0  0  0  0  0  0  0  0  0  0  0
   -3.5311   -2.7616    0.7732 C   0  0  0  0  0  0  0  0  0  0  0  0
   -4.2371   -2.0766    1.2382 H   0  0  0  0  0  0  0  0  0  0  0  0
   -3.7681   -2.8816   -0.2818 H   0  0  0  0  0  0  0  0  0  0  0  0
   -2.1321   -2.2086    0.9112 C   0  0  0  0  0  0  0  0  0  0  0  0
   -1.2751   -2.8426    1.5112 O   0  0  0  0  0  0  0  0  0  0  0  0
   -1.9041   -1.0186    0.3602 N   0  0  0  0  0  0  0  0  0  0  0  0
   -2.6671   -0.5416   -0.0988 H   0  0  0  0  0  0  0  0  0  0  0  0
   -0.6131   -0.3236    0.3832 C   0  0  1  0  0  0  0  0  0  0  0  0
   -0.2142   -0.3639    1.3980 H   0  0  0  0  0  0  0  0  0  0  0  0
    0.3693   -1.0545   -0.5505 C   0  0  0  0  0  0  0  0  0  0  0  0
   -0.0818   -1.1340   -1.5418 H   0  0  0  0  0  0  0  0  0  0  0  0
    1.2853   -0.4685   -0.6387 H   0  0  0  0  0  0  0  0  0  0  0  0
    0.7340   -2.4647   -0.0726 C   0  0  0  0  0  0  0  0  0  0  0  0
   -0.1726   -3.0653   -0.0065 H   0  0  0  0  0  0  0  0  0  0  0  0
    1.4037   -2.9199   -0.8033 H   0  0  0  0  0  0  0  0  0  0  0  0
    1.5474   -2.4953    1.5451 S   0  0  0  0  0  0  0  0  0  0  0  0
    3.1312   -1.7310    1.1099 C   0  0  0  0  0  0  0  0  0  0  0  0
    2.9605   -0.7256    0.7239 H   0  0  0  0  0  0  0  0  0  0  0  0
    3.7605   -1.6723    1.9984 H   0  0  0  0  0  0  0  0  0  0  0  0
    3.6346   -2.3332    0.3531 H   0  0  0  0  0  0  0  0  0  0  0  0
   -0.7905    1.1517   -0.0029 C   0  0  0  0  0  0  0  0  0  0  0  0
   -0.0100    1.6807   -0.7918 O   0  0  0  0  0  0  0  0  0  0  0  0
   -1.8087    1.8170    0.5577 N   0  0  0  0  0  0  0  0  0  0  0  0
   -2.4161    1.3126    1.1836 H   0  0  0  0  0  0  0  0  0  0  0  0
   -2.1005    3.2270    0.3042 C   0  0  0  0  0  0  0  0  0  0  0  0
   -2.2603    3.3829   -0.7653 H   0  0  0  0  0  0  0  0  0  0  0  0
   -2.9940    3.5343    0.8493 H   0  0  0  0  0  0  0  0  0  0  0  0
   -1.2551    3.8407    0.6202 H   0  0  0  0  0  0  0  0  0  0  0  0
  5  6  2  0  0  0  0
  5  7  1  0  0  0  0
  2  3  1  0  0  0  0
  2  4  1  0  0  0  0
  2  5  1  0  0  0  0
  1  2  1  0  0  0  0
 22 23  2  0  0  0  0
 22 24  1  0  0  0  0
 18 19  1  0  0  0  0
 18 20  1  0  0  0  0
 18 21  1  0  0  0  0
 17 18  1  0  0  0  0
 14 15  1  0  0  0  0
 14 16  1  0  0  0  0
 14 17  1  0  0  0  0
 11 12  1  0  0  0  0
 11 13  1  0  0  0  0
 11 14  1  0  0  0  0
  9 10  1  0  0  0  0
  9 11  1  0  0  0  0
  9 22  1  0  0  0  0
  7  8  1  0  0  0  0
  7  9  1  0  0  0  0
 26 27  1  0  0  0  0
 26 28  1  0  0  0  0
 26 29  1  0  0  0  0
 24 25  1  0  0  0  0
 24 26  1  0  0  0  0
M  END
$$$$
default_name
  -OEChem-01062215323D

 29 28  0     1  0  0  0  0  0999 V2000
   -3.5781   -3.7296    1.2702 H   0  0  0  0  0  0  0  0  0  0  0  0
   -3.5311   -2.7616    0.7732 C   0  0  0  0  0  0  0  0  0  0  0  0
   -4.2371   -2.0766    1.2382 H   0  0  0  0  0  0  0  0  0  0  0  0
   -3.7681   -2.8816   -0.2818 H   0  0  0  0  0  0  0  0  0  0  0  0
   -2.1321   -2.2086    0.9112 C   0  0  0  0  0  0  0  0  0  0  0  0
   -1.2751   -2.8426    1.5112 O   0  0  0  0  0  0  0  0  0  0  0  0
   -1.9041   -1.0186    0.3602 N   0  0  0  0  0  0  0  0  0  0  0  0
   -2.6671   -0.5416   -0.0988 H   0  0  0  0  0  0  0  0  0  0  0  0
   -0.6131   -0.3236    0.3832 C   0  0  1  0  0  0  0  0  0  0  0  0
   -0.2142   -0.3639    1.3980 H   0  0  0  0  0  0  0  0  0  0  0  0
    0.3693   -1.0545   -0.5505 C   0  0  0  0  0  0  0  0  0  0  0  0
   -0.0818   -1.1340   -1.5418 H   0  0  0  0  0  0  0  0  0  0  0  0
    1.2853   -0.4685   -0.6387 H   0  0  0  0  0  0  0  0  0  0  0  0
    0.7340   -2.4647   -0.0726 C   0  0  0  0  0  0  0  0  0  0  0  0
   -0.1726   -3.0653   -0.0065 H   0  0  0  0  0  0  0  0  0  0  0  0
    1.4037   -2.9199   -0.8033 H   0  0  0  0  0  0  0  0  0  0  0  0
    1.5474   -2.4953    1.5451 S   0  0  0  0  0  0  0  0  0  0  0  0
    3.1312   -1.7310    1.1099 C   0  0  0  0  0  0  0  0  0  0  0  0
    2.9605   -0.7256    0.7239 H   0  0  0  0  0  0  0  0  0  0  0  0
    3.7605   -1.6723    1.9984 H   0  0  0  0  0  0  0  0  0  0  0  0
    3.6346   -2.3332    0.3531 H   0  0  0  0  0  0  0  0  0  0  0  0
   -0.7905    1.1517   -0.0029 C   0  0  0  0  0  0  0  0  0  0  0  0
   -0.2008    1.6085   -0.9801 O   0  0  0  0  0  0  0  0  0  0  0  0
   -1.5937    1.8975    0.7666 N   0  0  0  0  0  0  0  0  0  0  0  0
   -2.0553    1.4498    1.5423 H   0  0  0  0  0  0  0  0  0  0  0  0
   -1.8526    3.3185    0.5397 C   0  0  0  0  0  0  0  0  0  0  0  0
   -2.2645    3.4618   -0.4620 H   0  0  0  0  0  0  0  0  0  0  0  0
   -2.5610    3.6983    1.2771 H   0  0  0  0  0  0  0  0  0  0  0  0
   -0.9190    3.8792    0.6128 H   0  0  0  0  0  0  0  0  0  0  0  0
  5  6  2  0  0  0  0
  5  7  1  0  0  0  0
  2  3  1  0  0  0  0
  2  4  1  0  0  0  0
  2  5  1  0  0  0  0
  1  2  1  0  0  0  0
 22 23  2  0  0  0  0
 22 24  1  0  0  0  0
 18 19  1  0  0  0  0
 18 20  1  0  0  0  0
 18 21  1  0  0  0  0
 17 18  1  0  0  0  0
 14 15  1  0  0  0  0
 14 16  1  0  0  0  0
 14 17  1  0  0  0  0
 11 12  1  0  0  0  0
 11 13  1  0  0  0  0
 11 14  1  0  0  0  0
  9 10  1  0  0  0  0
  9 11  1  0  0  0  0
  9 22  1  0  0  0  0
  7  8  1  0  0  0  0
  7  9  1  0  0  0  0
 26 27  1  0  0  0  0
 26 28  1  0  0  0  0
 26 29  1  0  0  0  0
 24 25  1  0  0  0  0
 24 26  1  0  0  0  0
M  END
$$$$
default_name
  -OEChem-01062215323D

 29 28  0     1  0  0  0  0  0999 V2000
   -3.5781   -3.7296    1.2702 H   0  0  0  0  0  0  0  0  0  0  0  0
   -3.5311   -2.7616    0.7732 C   0  0  0  0  0  0  0  0  0  0  0  0
   -4.2371   -2.0766    1.2382 H   0  0  0  0  0  0  0  0  0  0  0  0
   -3.7681   -2.8816   -0.2818 H   0  0  0  0  0  0  0  0  0  0  0  0
   -2.1321   -2.2086    0.9112 C   0  0  0  0  0  0  0  0  0  0  0  0
   -1.2751   -2.8426    1.5112 O   0  0  0  0  0  0  0  0  0  0  0  0
   -1.9041   -1.0186    0.3602 N   0  0  0  0  0  0  0  0  0  0  0  0
   -2.6671   -0.5416   -0.0988 H   0  0  0  0  0  0  0  0  0  0  0  0
   -0.6131   -0.3236    0.3832 C   0  0  1  0  0  0  0  0  0  0  0  0
   -0.2142   -0.3639    1.3980 H   0  0  0  0  0  0  0  0  0  0  0  0
    0.3693   -1.0545   -0.5505 C   0  0  0  0  0  0  0  0  0  0  0  0
   -0.0818   -1.1340   -1.5418 H   0  0  0  0  0  0  0  0  0  0  0  0
    1.2853   -0.4685   -0.6387 H   0  0  0  0  0  0  0  0  0  0  0  0
    0.7340   -2.4647   -0.0726 C   0  0  0  0  0  0  0  0  0  0  0  0
   -0.1726   -3.0653   -0.0065 H   0  0  0  0  0  0  0  0  0  0  0  0
    1.4037   -2.9199   -0.8033 H   0  0  0  0  0  0  0  0  0  0  0  0
    1.5474   -2.4953    1.5451 S   0  0  0  0  0  0  0  0  0  0  0  0
    3.1312   -1.7310    1.1099 C   0  0  0  0  0  0  0  0  0  0  0  0
    2.9605   -0.7256    0.7239 H   0  0  0  0  0  0  0  0  0  0  0  0
    3.7605   -1.6723    1.9984 H   0  0  0  0  0  0  0  0  0  0  0  0
    3.6346   -2.3332    0.3531 H   0  0  0  0  0  0  0  0  0  0  0  0
   -0.7905    1.1517   -0.0029 C   0  0  0  0  0  0  0  0  0  0  0  0
   -0.4366    1.5455   -1.1124 O   0  0  0  0  0  0  0  0  0  0  0  0
   -1.3288    1.9675    0.9126 N   0  0  0  0  0  0  0  0  0  0  0  0
   -1.6087    1.5697    1.7949 H   0  0  0  0  0  0  0  0  0  0  0  0
   -1.5486    3.3977    0.7029 C   0  0  0  0  0  0  0  0  0  0  0  0
   -2.1879    3.5474   -0.1703 H   0  0  0  0  0  0  0  0  0  0  0  0
   -2.0258    3.8414    1.5777 H   0  0  0  0  0  0  0  0  0  0  0  0
   -0.5937    3.8942    0.5210 H   0  0  0  0  0  0  0  0  0  0  0  0
  5  6  2  0  0  0  0
  5  7  1  0  0  0  0
  2  3  1  0  0  0  0
  2  4  1  0  0  0  0
  2  5  1  0  0  0  0
  1  2  1  0  0  0  0
 22 23  2  0  0  0  0
 22 24  1  0  0  0  0
 18 19  1  0  0  0  0
 18 20  1  0  0  0  0
 18 21  1  0  0  0  0
 17 18  1  0  0  0  0
 14 15  1  0  0  0  0
 14 16  1  0  0  0  0
 14 17  1  0  0  0  0
 11 12  1  0  0  0  0
 11 13  1  0  0  0  0
 11 14  1  0  0  0  0
  9 10  1  0  0  0  0
  9 11  1  0  0  0  0
  9 22  1  0  0  0  0
  7  8  1  0  0  0  0
  7  9  1  0  0  0  0
 26 27  1  0  0  0  0
 26 28  1  0  0  0  0
 26 29  1  0  0  0  0
 24 25  1  0  0  0  0
 24 26  1  0  0  0  0
M  END
$$$$
default_name
  -OEChem-01062215323D

 29 28  0     1  0  0  0  0  0999 V2000
   -3.5781   -3.7296    1.2702 H   0  0  0  0  0  0  0  0  0  0  0  0
   -3.5311   -2.7616    0.7732 C   0  0  0  0  0  0  0  0  0  0  0  0
   -4.2371   -2.0766    1.2382 H   0  0  0  0  0  0  0  0  0  0  0  0
   -3.7681   -2.8816   -0.2818 H   0  0  0  0  0  0  0  0  0  0  0  0
   -2.1321   -2.2086    0.9112 C   0  0  0  0  0  0  0  0  0  0  0  0
   -1.2751   -2.8426    1.5112 O   0  0  0  0  0  0  0  0  0  0  0  0
   -1.9041   -1.0186    0.3602 N   0  0  0  0  0  0  0  0  0  0  0  0
   -2.6671   -0.5416   -0.0988 H   0  0  0  0  0  0  0  0  0  0  0  0
   -0.6131   -0.3236    0.3832 C   0  0  1  0  0  0  0  0  0  0  0  0
   -0.2142   -0.3639    1.3980 H   0  0  0  0  0  0  0  0  0  0  0  0
    0.3693   -1.0545   -0.5505 C   0  0  0  0  0  0  0  0  0  0  0  0
   -0.0818   -1.1340   -1.5418 H   0  0  0  0  0  0  0  0  0  0  0  0
    1.2853   -0.4685   -0.6387 H   0  0  0  0  0  0  0  0  0  0  0  0
    0.7340   -2.4647   -0.0726 C   0  0  0  0  0  0  0  0  0  0  0  0
   -0.1726   -3.0653   -0.0065 H   0  0  0  0  0  0  0  0  0  0  0  0
    1.4037   -2.9199   -0.8033 H   0  0  0  0  0  0  0  0  0  0  0  0
    1.5474   -2.4953    1.5451 S   0  0  0  0  0  0  0  0  0  0  0  0
    3.1312   -1.7310    1.1099 C   0  0  0  0  0  0  0  0  0  0  0  0
    2.9605   -0.7256    0.7239 H   0  0  0  0  0  0  0  0  0  0  0  0
    3.7605   -1.6723    1.9984 H   0  0  0  0  0  0  0  0  0  0  0  0
    3.6346   -2.3332    0.3531 H   0  0  0  0  0  0  0  0  0  0  0  0
   -0.7905    1.1517   -0.0029 C   0  0  0  0  0  0  0  0  0  0  0  0
   -0.7014    1.4960   -1.1797 O   0  0  0  0  0  0  0  0  0  0  0  0
   -1.0321    2.0223    0.9856 N   0  0  0  0  0  0  0  0  0  0  0  0
   -1.1066    1.6639    1.9242 H   0  0  0  0  0  0  0  0  0  0  0  0
   -1.2091    3.4594    0.7825 C   0  0  0  0  0  0  0  0  0  0  0  0
   -2.0359    3.6337    0.0898 H   0  0  0  0  0  0  0  0  0  0  0  0
   -1.4247    3.9537    1.7306 H   0  0  0  0  0  0  0  0  0  0  0  0
   -0.3014    3.8849    0.3509 H   0  0  0  0  0  0  0  0  0  0  0  0
  5  6  2  0  0  0  0
  5  7  1  0  0  0  0
  2  3  1  0  0  0  0
  2  4  1  0  0  0  0
  2  5  1  0  0  0  0
  1  2  1  0  0  0  0
 22 23  2  0  0  0  0
 22 24  1  0  0  0  0
 18 19  1  0  0  0  0
 18 20  1  0  0  0  0
 18 21  1  0  0  0  0
 17 18  1  0  0  0  0
 14 15  1  0  0  0  0
 14 16  1  0  0  0  0
 14 17  1  0  0  0  0
 11 12  1  0  0  0  0
 11 13  1  0  0  0  0
 11 14  1  0  0  0  0
  9 10  1  0  0  0  0
  9 11  1  0  0  0  0
  9 22  1  0  0  0  0
  7  8  1  0  0  0  0
  7  9  1  0  0  0  0
 26 27  1  0  0  0  0
 26 28  1  0  0  0  0
 26 29  1  0  0  0  0
 24 25  1  0  0  0  0
 24 26  1  0  0  0  0
M  END
$$$$
default_name
  -OEChem-01062215323D

 29 28  0     1  0  0  0  0  0999 V2000
   -3.5781   -3.7296    1.2702 H   0  0  0  0  0  0  0  0  0  0  0  0
   -3.5311   -2.7616    0.7732 C   0  0  0  0  0  0  0  0  0  0  0  0
   -4.2371   -2.0766    1.2382 H   0  0  0  0  0  0  0  0  0  0  0  0
   -3.7681   -2.8816   -0.2818 H   0  0  0  0  0  0  0  0  0  0  0  0
   -2.1321   -2.2086    0.9112 C   0  0  0  0  0  0  0  0  0  0  0  0
   -1.2751   -2.8426    1.5112 O   0  0  0  0  0  0  0  0  0  0  0  0
   -1.9041   -1.0186    0.3602 N   0  0  0  0  0  0  0  0  0  0  0  0
   -2.6671   -0.5416   -0.0988 H   0  0  0  0  0  0  0  0  0  0  0  0
   -0.6131   -0.3236    0.3832 C   0  0  1  0  0  0  0  0  0  0  0  0
   -0.2142   -0.3639    1.3980 H   0  0  0  0  0  0  0  0  0  0  0  0
    0.3693   -1.0545   -0.5505 C   0  0  0  0  0  0  0  0  0  0  0  0
   -0.0818   -1.1340   -1.5418 H   0  0  0  0  0  0  0  0  0  0  0  0
    1.2853   -0.4685   -0.6387 H   0  0  0  0  0  0  0  0  0  0  0  0
    0.7340   -2.4647   -0.0726 C   0  0  0  0  0  0  0  0  0  0  0  0
   -0.1726   -3.0653   -0.0065 H   0  0  0  0  0  0  0  0  0  0  0  0
    1.4037   -2.9199   -0.8033 H   0  0  0  0  0  0  0  0  0  0  0  0
    1.5474   -2.4953    1.5451 S   0  0  0  0  0  0  0  0  0  0  0  0
    3.1312   -1.7310    1.1099 C   0  0  0  0  0  0  0  0  0  0  0  0
    2.9605   -0.7256    0.7239 H   0  0  0  0  0  0  0  0  0  0  0  0
    3.7605   -1.6723    1.9984 H   0  0  0  0  0  0  0  0  0  0  0  0
    3.6346   -2.3332    0.3531 H   0  0  0  0  0  0  0  0  0  0  0  0
   -0.7905    1.1517   -0.0029 C   0  0  0  0  0  0  0  0  0  0  0  0
   -0.9771    1.4635   -1.1773 O   0  0  0  0  0  0  0  0  0  0  0  0
   -0.7238    2.0581    0.9807 N   0  0  0  0  0  0  0  0  0  0  0  0
   -0.5834    1.7261    1.9215 H   0  0  0  0  0  0  0  0  0  0  0  0
   -0.8575    3.4992    0.7731 C   0  0  0  0  0  0  0  0  0  0  0  0
   -1.8187    3.7150    0.3007 H   0  0  0  0  0  0  0  0  0  0  0  0
   -0.7987    4.0276    1.7255 H   0  0  0  0  0  0  0  0  0  0  0  0
   -0.0619    3.8517    0.1142 H   0  0  0  0  0  0  0  0  0  0  0  0
  5  6  2  0  0  0  0
  5  7  1  0  0  0  0
  2  3  1  0  0  0  0
  2  4  1  0  0  0  0
  2  5  1  0  0  0  0
  1  2  1  0  0  0  0
 22 23  2  0  0  0  0
 22 24  1  0  0  0  0
 18 19  1  0  0  0  0
 18 20  1  0  0  0  0
 18 21  1  0  0  0  0
 17 18  1  0  0  0  0
 14 15  1  0  0  0  0
 14 16  1  0  0  0  0
 14 17  1  0  0  0  0
 11 12  1  0  0  0  0
 11 13  1  0  0  0  0
 11 14  1  0  0  0  0
  9 10  1  0  0  0  0
  9 11  1  0  0  0  0
  9 22  1  0  0  0  0
  7  8  1  0  0  0  0
  7  9  1  0  0  0  0
 26 27  1  0  0  0  0
 26 28  1  0  0  0  0
 26 29  1  0  0  0  0
 24 25  1  0  0  0  0
 24 26  1  0  0  0  0
M  END
$$$$
default_name
  -OEChem-01062215323D

 29 28  0     1  0  0  0  0  0999 V2000
   -3.5781   -3.7296    1.2702 H   0  0  0  0  0  0  0  0  0  0  0  0
   -3.5311   -2.7616    0.7732 C   0  0  0  0  0  0  0  0  0  0  0  0
   -4.2371   -2.0766    1.2382 H   0  0  0  0  0  0  0  0  0  0  0  0
   -3.7681   -2.8816   -0.2818 H   0  0  0  0  0  0  0  0  0  0  0  0
   -2.1321   -2.2086    0.9112 C   0  0  0  0  0  0  0  0  0  0  0  0
   -1.2751   -2.8426    1.5112 O   0  0  0  0  0  0  0  0  0  0  0  0
   -1.9041   -1.0186    0.3602 N   0  0  0  0  0  0  0  0  0  0  0  0
   -2.6671   -0.5416   -0.0988 H   0  0  0  0  0  0  0  0  0  0  0  0
   -0.6131   -0.3236    0.3832 C   0  0  1  0  0  0  0  0  0  0  0  0
   -0.2142   -0.3639    1.3980 H   0  0  0  0  0  0  0  0  0  0  0  0
    0.3693   -1.0545   -0.5505 C   0  0  0  0  0  0  0  0  0  0  0  0
   -0.0818   -1.1340   -1.5418 H   0  0  0  0  0  0  0  0  0  0  0  0
    1.2853   -0.4685   -0.6387 H   0  0  0  0  0  0  0  0  0  0  0  0
    0.7340   -2.4647   -0.0726 C   0  0  0  0  0  0  0  0  0  0  0  0
   -0.1726   -3.0653   -0.0065 H   0  0  0  0  0  0  0  0  0  0  0  0
    1.4037   -2.9199   -0.8033 H   0  0  0  0  0  0  0  0  0  0  0  0
    1.5474   -2.4953    1.5451 S   0  0  0  0  0  0  0  0  0  0  0  0
    3.1312   -1.7310    1.1099 C   0  0  0  0  0  0  0  0  0  0  0  0
    2.9605   -0.7256    0.7239 H   0  0  0  0  0  0  0  0  0  0  0  0
    3.7605   -1.6723    1.9984 H   0  0  0  0  0  0  0  0  0  0  0  0
    3.6346   -2.3332    0.3531 H   0  0  0  0  0  0  0  0  0  0  0  0
   -0.7905    1.1517   -0.0029 C   0  0  0  0  0  0  0  0  0  0  0  0
   -1.2450    1.4501   -1.1055 O   0  0  0  0  0  0  0  0  0  0  0  0
   -0.4248    2.0725    0.8982 N   0  0  0  0  0  0  0  0  0  0  0  0
   -0.0746    1.7520    1.7869 H   0  0  0  0  0  0  0  0  0  0  0  0
   -0.5175    3.5145    0.6754 C   0  0  0  0  0  0  0  0  0  0  0  0
   -1.5512    3.7857    0.4479 H   0  0  0  0  0  0  0  0  0  0  0  0
   -0.1905    4.0581    1.5627 H   0  0  0  0  0  0  0  0  0  0  0  0
    0.1083    3.7970   -0.1730 H   0  0  0  0  0  0  0  0  0  0  0  0
  5  6  2  0  0  0  0
  5  7  1  0  0  0  0
  2  3  1  0  0  0  0
  2  4  1  0  0  0  0
  2  5  1  0  0  0  0
  1  2  1  0  0  0  0
 22 23  2  0  0  0  0
 22 24  1  0  0  0  0
 18 19  1  0  0  0  0
 18 20  1  0  0  0  0
 18 21  1  0  0  0  0
 17 18  1  0  0  0  0
 14 15  1  0  0  0  0
 14 16  1  0  0  0  0
 14 17  1  0  0  0  0
 11 12  1  0  0  0  0
 11 13  1  0  0  0  0
 11 14  1  0  0  0  0
  9 10  1  0  0  0  0
  9 11  1  0  0  0  0
  9 22  1  0  0  0  0
  7  8  1  0  0  0  0
  7  9  1  0  0  0  0
 26 27  1  0  0  0  0
 26 28  1  0  0  0  0
 26 29  1  0  0  0  0
 24 25  1  0  0  0  0
 24 26  1  0  0  0  0
M  END
$$$$
default_name
  -OEChem-01062215323D

 29 28  0     1  0  0  0  0  0999 V2000
   -3.5781   -3.7296    1.2702 H   0  0  0  0  0  0  0  0  0  0  0  0
   -3.5311   -2.7616    0.7732 C   0  0  0  0  0  0  0  0  0  0  0  0
   -4.2371   -2.0766    1.2382 H   0  0  0  0  0  0  0  0  0  0  0  0
   -3.7681   -2.8816   -0.2818 H   0  0  0  0  0  0  0  0  0  0  0  0
   -2.1321   -2.2086    0.9112 C   0  0  0  0  0  0  0  0  0  0  0  0
   -1.2751   -2.8426    1.5112 O   0  0  0  0  0  0  0  0  0  0  0  0
   -1.9041   -1.0186    0.3602 N   0  0  0  0  0  0  0  0  0  0  0  0
   -2.6671   -0.5416   -0.0988 H   0  0  0  0  0  0  0  0  0  0  0  0
   -0.6131   -0.3236    0.3832 C   0  0  1  0  0  0  0  0  0  0  0  0
   -0.2142   -0.3639    1.3980 H   0  0  0  0  0  0  0  0  0  0  0  0
    0.3693   -1.0545   -0.5505 C   0  0  0  0  0  0  0  0  0  0  0  0
   -0.0818   -1.1340   -1.5418 H   0  0  0  0  0  0  0  0  0  0  0  0
    1.2853   -0.4685   -0.6387 H   0  0  0  0  0  0  0  0  0  0  0  0
    0.7340   -2.4647   -0.0726 C   0  0  0  0  0  0  0  0  0  0  0  0
   -0.1726   -3.0653   -0.0065 H   0  0  0  0  0  0  0  0  0  0  0  0
    1.4037   -2.9199   -0.8033 H   0  0  0  0  0  0  0  0  0  0  0  0
    1.5474   -2.4953    1.5451 S   0  0  0  0  0  0  0  0  0  0  0  0
    3.1312   -1.7310    1.1099 C   0  0  0  0  0  0  0  0  0  0  0  0
    2.9605   -0.7256    0.7239 H   0  0  0  0  0  0  0  0  0  0  0  0
    3.7605   -1.6723    1.9984 H   0  0  0  0  0  0  0  0  0  0  0  0
    3.6346   -2.3332    0.3531 H   0  0  0  0  0  0  0  0  0  0  0  0
   -0.7905    1.1517   -0.0029 C   0  0  0  0  0  0  0  0  0  0  0  0
   -1.4867    1.4567   -0.9691 O   0  0  0  0  0  0  0  0  0  0  0  0
   -0.1557    2.0644    0.7437 N   0  0  0  0  0  0  0  0  0  0  0  0
    0.3850    1.7400    1.5295 H   0  0  0  0  0  0  0  0  0  0  0  0
   -0.2125    3.5043    0.4960 C   0  0  0  0  0  0  0  0  0  0  0  0
   -1.2515    3.8410    0.5215 H   0  0  0  0  0  0  0  0  0  0  0  0
    0.3584    4.0432    1.2532 H   0  0  0  0  0  0  0  0  0  0  0  0
    0.1978    3.7245   -0.4911 H   0  0  0  0  0  0  0  0  0  0  0  0
  5  6  2  0  0  0  0
  5  7  1  0  0  0  0
  2  3  1  0  0  0  0
  2  4  1  0  0  0  0
  2  5  1  0  0  0  0
  1  2  1  0  0  0  0
 22 23  2  0  0  0  0
 22 24  1  0  0  0  0
 18 19  1  0  0  0  0
 18 20  1  0  0  0  0
 18 21  1  0  0  0  0
 17 18  1  0  0  0  0
 14 15  1  0  0  0  0
 14 16  1  0  0  0  0
 14 17  1  0  0  0  0
 11 12  1  0  0  0  0
 11 13  1  0  0  0  0
 11 14  1  0  0  0  0
  9 10  1  0  0  0  0
  9 11  1  0  0  0  0
  9 22  1  0  0  0  0
  7  8  1  0  0  0  0
  7  9  1  0  0  0  0
 26 27  1  0  0  0  0
 26 28  1  0  0  0  0
 26 29  1  0  0  0  0
 24 25  1  0  0  0  0
 24 26  1  0  0  0  0
M  END
$$$$
default_name
  -OEChem-01062215323D

 29 28  0     1  0  0  0  0  0999 V2000
   -3.5781   -3.7296    1.2702 H   0  0  0  0  0  0  0  0  0  0  0  0
   -3.5311   -2.7616    0.7732 C   0  0  0  0  0  0  0  0  0  0  0  0
   -4.2371   -2.0766    1.2382 H   0  0  0  0  0  0  0  0  0  0  0  0
   -3.7681   -2.8816   -0.2818 H   0  0  0  0  0  0  0  0  0  0  0  0
   -2.1321   -2.2086    0.9112 C   0  0  0  0  0  0  0  0  0  0  0  0
   -1.2751   -2.8426    1.5112 O   0  0  0  0  0  0  0  0  0  0  0  0
   -1.9041   -1.0186    0.3602 N   0  0  0  0  0  0  0  0  0  0  0  0
   -2.6671   -0.5416   -0.0988 H   0  0  0  0  0  0  0  0  0  0  0  0
   -0.6131   -0.3236    0.3832 C   0  0  1  0  0  0  0  0  0  0  0  0
   -0.2142   -0.3639    1.3980 H   0  0  0  0  0  0  0  0  0  0  0  0
    0.3693   -1.0545   -0.5505 C   0  0  0  0  0  0  0  0  0  0  0  0
   -0.0818   -1.1340   -1.5418 H   0  0  0  0  0  0  0  0  0  0  0  0
    1.2853   -0.4685   -0.6387 H   0  0  0  0  0  0  0  0  0  0  0  0
    0.7340   -2.4647   -0.0726 C   0  0  0  0  0  0  0  0  0  0  0  0
   -0.1726   -3.0653   -0.0065 H   0  0  0  0  0  0  0  0  0  0  0  0
    1.4037   -2.9199   -0.8033 H   0  0  0  0  0  0  0  0  0  0  0  0
    1.5474   -2.4953    1.5451 S   0  0  0  0  0  0  0  0  0  0  0  0
    3.1312   -1.7310    1.1099 C   0  0  0  0  0  0  0  0  0  0  0  0
    2.9605   -0.7256    0.7239 H   0  0  0  0  0  0  0  0  0  0  0  0
    3.7605   -1.6723    1.9984 H   0  0  0  0  0  0  0  0  0  0  0  0
    3.6346   -2.3332    0.3531 H   0  0  0  0  0  0  0  0  0  0  0  0
   -0.7905    1.1517   -0.0029 C   0  0  0  0  0  0  0  0  0  0  0  0
   -1.6859    1.4829   -0.7774 O   0  0  0  0  0  0  0  0  0  0  0  0
    0.0654    2.0345    0.5278 N   0  0  0  0  0  0  0  0  0  0  0  0
    0.7642    1.6907    1.1670 H   0  0  0  0  0  0  0  0  0  0  0  0
    0.0369    3.4691    0.2471 C   0  0  0  0  0  0  0  0  0  0  0  0
   -0.9402    3.8771    0.5164 H   0  0  0  0  0  0  0  0  0  0  0  0
    0.8107    3.9837    0.8182 H   0  0  0  0  0  0  0  0  0  0  0  0
    0.2004    3.6392   -0.8185 H   0  0  0  0  0  0  0  0  0  0  0  0
  5  6  2  0  0  0  0
  5  7  1  0  0  0  0
  2  3  1  0  0  0  0
  2  4  1  0  0  0  0
  2  5  1  0  0  0  0
  1  2  1  0  0  0  0
 22 23  2  0  0  0  0
 22 24  1  0  0  0  0
 18 19  1  0  0  0  0
 18 20  1  0  0  0  0
 18 21  1  0  0  0  0
 17 18  1  0  0  0  0
 14 15  1  0  0  0  0
 14 16  1  0  0  0  0
 14 17  1  0  0  0  0
 11 12  1  0  0  0  0
 11 13  1  0  0  0  0
 11 14  1  0  0  0  0
  9 10  1  0  0  0  0
  9 11  1  0  0  0  0
  9 22  1  0  0  0  0
  7  8  1  0  0  0  0
  7  9  1  0  0  0  0
 26 27  1  0  0  0  0
 26 28  1  0  0  0  0
 26 29  1  0  0  0  0
 24 25  1  0  0  0  0
 24 26  1  0  0  0  0
M  END
$$$$
default_name
  -OEChem-01062215323D

 29 28  0     1  0  0  0  0  0999 V2000
   -3.5781   -3.7296    1.2702 H   0  0  0  0  0  0  0  0  0  0  0  0
   -3.5311   -2.7616    0.7732 C   0  0  0  0  0  0  0  0  0  0  0  0
   -4.2371   -2.0766    1.2382 H   0  0  0  0  0  0  0  0  0  0  0  0
   -3.7681   -2.8816   -0.2818 H   0  0  0  0  0  0  0  0  0  0  0  0
   -2.1321   -2.2086    0.9112 C   0  0  0  0  0  0  0  0  0  0  0  0
   -1.2751   -2.8426    1.5112 O   0  0  0  0  0  0  0  0  0  0  0  0
   -1.9041   -1.0186    0.3602 N   0  0  0  0  0  0  0  0  0  0  0  0
   -2.6671   -0.5416   -0.0988 H   0  0  0  0  0  0  0  0  0  0  0  0
   -0.6131   -0.3236    0.3832 C   0  0  1  0  0  0  0  0  0  0  0  0
   -0.2142   -0.3639    1.3980 H   0  0  0  0  0  0  0  0  0  0  0  0
    0.3693   -1.0545   -0.5505 C   0  0  0  0  0  0  0  0  0  0  0  0
   -0.0818   -1.1340   -1.5418 H   0  0  0  0  0  0  0  0  0  0  0  0
    1.2853   -0.4685   -0.6387 H   0  0  0  0  0  0  0  0  0  0  0  0
    0.7340   -2.4647   -0.0726 C   0  0  0  0  0  0  0  0  0  0  0  0
   -0.1726   -3.0653   -0.0065 H   0  0  0  0  0  0  0  0  0  0  0  0
    1.4037   -2.9199   -0.8033 H   0  0  0  0  0  0  0  0  0  0  0  0
    1.5474   -2.4953    1.5451 S   0  0  0  0  0  0  0  0  0  0  0  0
    3.1312   -1.7310    1.1099 C   0  0  0  0  0  0  0  0  0  0  0  0
    2.9605   -0.7256    0.7239 H   0  0  0  0  0  0  0  0  0  0  0  0
    3.7605   -1.6723    1.9984 H   0  0  0  0  0  0  0  0  0  0  0  0
    3.6346   -2.3332    0.3531 H   0  0  0  0  0  0  0  0  0  0  0  0
   -0.7905    1.1517   -0.0029 C   0  0  0  0  0  0  0  0  0  0  0  0
   -1.8289    1.5270   -0.5435 O   0  0  0  0  0  0  0  0  0  0  0  0
    0.2233    1.9848    0.2652 N   0  0  0  0  0  0  0  0  0  0  0  0
    1.0371    1.6075    0.7239 H   0  0  0  0  0  0  0  0  0  0  0  0
    0.2136    3.4115   -0.0542 C   0  0  0  0  0  0  0  0  0  0  0  0
   -0.6384    3.8916    0.4329 H   0  0  0  0  0  0  0  0  0  0  0  0
    1.1356    3.8838    0.2874 H   0  0  0  0  0  0  0  0  0  0  0  0
    0.1160    3.5468   -1.1328 H   0  0  0  0  0  0  0  0  0  0  0  0
  5  6  2  0  0  0  0
  5  7  1  0  0  0  0
  2  3  1  0  0  0  0
  2  4  1  0  0  0  0
  2  5  1  0  0  0  0
  1  2  1  0  0  0  0
 22 23  2  0  0  0  0
 22 24  1  0  0  0  0
 18 19  1  0  0  0  0
 18 20  1  0  0  0  0
 18 21  1  0  0  0  0
 17 18  1  0  0  0  0
 14 15  1  0  0  0  0
 14 16  1  0  0  0  0
 14 17  1  0  0  0  0
 11 12  1  0  0  0  0
 11 13  1  0  0  0  0
 11 14  1  0  0  0  0
  9 10  1  0  0  0  0
  9 11  1  0  0  0  0
  9 22  1  0  0  0  0
  7  8  1  0  0  0  0
  7  9  1  0  0  0  0
 26 27  1  0  0  0  0
 26 28  1  0  0  0  0
 26 29  1  0  0  0  0
 24 25  1  0  0  0  0
 24 26  1  0  0  0  0
M  END
$$$$
default_name
  -OEChem-01062215323D

 29 28  0     1  0  0  0  0  0999 V2000
   -3.5781   -3.7296    1.2702 H   0  0  0  0  0  0  0  0  0  0  0  0
   -3.5311   -2.7616    0.7732 C   0  0  0  0  0  0  0  0  0  0  0  0
   -4.2371   -2.0766    1.2382 H   0  0  0  0  0  0  0  0  0  0  0  0
   -3.7681   -2.8816   -0.2818 H   0  0  0  0  0  0  0  0  0  0  0  0
   -2.1321   -2.2086    0.9112 C   0  0  0  0  0  0  0  0  0  0  0  0
   -1.2751   -2.8426    1.5112 O   0  0  0  0  0  0  0  0  0  0  0  0
   -1.9041   -1.0186    0.3602 N   0  0  0  0  0  0  0  0  0  0  0  0
   -2.6671   -0.5416   -0.0988 H   0  0  0  0  0  0  0  0  0  0  0  0
   -0.6131   -0.3236    0.3832 C   0  0  1  0  0  0  0  0  0  0  0  0
   -0.0927   -0.5865    1.3055 H   0  0  0  0  0  0  0  0  0  0  0  0
    0.2394   -0.8047   -0.8054 C   0  0  0  0  0  0  0  0  0  0  0  0
   -0.3312   -0.6647   -1.7260 H   0  0  0  0  0  0  0  0  0  0  0  0
    1.1434   -0.1974   -0.8690 H   0  0  0  0  0  0  0  0  0  0  0  0
    0.6458   -2.2798   -0.7101 C   0  0  0  0  0  0  0  0  0  0  0  0
   -0.2518   -2.8962   -0.6725 H   0  0  0  0  0  0  0  0  0  0  0  0
    1.2157   -2.5444   -1.6015 H   0  0  0  0  0  0  0  0  0  0  0  0
    1.6519   -2.6629    0.7461 S   0  0  0  0  0  0  0  0  0  0  0  0
    3.1777   -1.7908    0.3066 C   0  0  0  0  0  0  0  0  0  0  0  0
    2.9710   -0.7272    0.1839 H   0  0  0  0  0  0  0  0  0  0  0  0
    3.9121   -1.9244    1.1013 H   0  0  0  0  0  0  0  0  0  0  0  0
    3.5779   -2.1956   -0.6234 H   0  0  0  0  0  0  0  0  0  0  0  0
   -0.8217    1.1974    0.3685 C   0  0  0  0  0  0  0  0  0  0  0  0
   -1.9587    1.6634    0.3329 O   0  0  0  0  0  0  0  0  0  0  0  0
    0.2725    1.9694    0.3867 N   0  0  0  0  0  0  0  0  0  0  0  0
    1.1710    1.5157    0.4312 H   0  0  0  0  0  0  0  0  0  0  0  0
    0.2408    3.4309    0.3612 C   0  0  0  0  0  0  0  0  0  0  0  0
   -0.3390    3.8010    1.2101 H   0  0  0  0  0  0  0  0  0  0  0  0
    1.2529    3.8341    0.4144 H   0  0  0  0  0  0  0  0  0  0  0  0
   -0.2369    3.7728   -0.5587 H   0  0  0  0  0  0  0  0  0  0  0  0
  5  6  2  0  0  0  0
  5  7  1  0  0  0  0
  2  3  1  0  0  0  0
  2  4  1  0  0  0  0
  2  5  1  0  0  0  0
  1  2  1  0  0  0  0
 22 23  2  0  0  0  0
 22 24  1  0  0  0  0
 18 19  1  0  0  0  0
 18 20  1  0  0  0  0
 18 21  1  0  0  0  0
 17 18  1  0  0  0  0
 14 15  1  0  0  0  0
 14 16  1  0  0  0  0
 14 17  1  0  0  0  0
 11 12  1  0  0  0  0
 11 13  1  0  0  0  0
 11 14  1  0  0  0  0
  9 10  1  0  0  0  0
  9 11  1  0  0  0  0
  9 22  1  0  0  0  0
  7  8  1  0  0  0  0
  7  9  1  0  0  0  0
 26 27  1  0  0  0  0
 26 28  1  0  0  0  0
 26 29  1  0  0  0  0
 24 25  1  0  0  0  0
 24 26  1  0  0  0  0
M  END
$$$$
default_name
  -OEChem-01062215323D

 29 28  0     1  0  0  0  0  0999 V2000
   -3.5781   -3.7296    1.2702 H   0  0  0  0  0  0  0  0  0  0  0  0
   -3.5311   -2.7616    0.7732 C   0  0  0  0  0  0  0  0  0  0  0  0
   -4.2371   -2.0766    1.2382 H   0  0  0  0  0  0  0  0  0  0  0  0
   -3.7681   -2.8816   -0.2818 H   0  0  0  0  0  0  0  0  0  0  0  0
   -2.1321   -2.2086    0.9112 C   0  0  0  0  0  0  0  0  0  0  0  0
   -1.2751   -2.8426    1.5112 O   0  0  0  0  0  0  0  0  0  0  0  0
   -1.9041   -1.0186    0.3602 N   0  0  0  0  0  0  0  0  0  0  0  0
   -2.6671   -0.5416   -0.0988 H   0  0  0  0  0  0  0  0  0  0  0  0
   -0.6131   -0.3236    0.3832 C   0  0  1  0  0  0  0  0  0  0  0  0
   -0.0927   -0.5865    1.3055 H   0  0  0  0  0  0  0  0  0  0  0  0
    0.2394   -0.8047   -0.8054 C   0  0  0  0  0  0  0  0  0  0  0  0
   -0.3312   -0.6647   -1.7260 H   0  0  0  0  0  0  0  0  0  0  0  0
    1.1434   -0.1974   -0.8690 H   0  0  0  0  0  0  0  0  0  0  0  0
    0.6458   -2.2798   -0.7101 C   0  0  0  0  0  0  0  0  0  0  0  0
   -0.2518   -2.8962   -0.6725 H   0  0  0  0  0  0  0  0  0  0  0  0
    1.2157   -2.5444   -1.6015 H   0  0  0  0  0  0  0  0  0  0  0  0
    1.6519   -2.6629    0.7461 S   0  0  0  0  0  0  0  0  0  0  0  0
    3.1777   -1.7908    0.3066 C   0  0  0  0  0  0  0  0  0  0  0  0
    2.9710   -0.7272    0.1839 H   0  0  0  0  0  0  0  0  0  0  0  0
    3.9121   -1.9244    1.1013 H   0  0  0  0  0  0  0  0  0  0  0  0
    3.5779   -2.1956   -0.6234 H   0  0  0  0  0  0  0  0  0  0  0  0
   -0.8217    1.1974    0.3685 C   0  0  0  0  0  0  0  0  0  0  0  0
   -1.9308    1.6699    0.6091 O   0  0  0  0  0  0  0  0  0  0  0  0
    0.2390    1.9618    0.0782 N   0  0  0  0  0  0  0  0  0  0  0  0
    1.1198    1.5036   -0.0931 H   0  0  0  0  0  0  0  0  0  0  0  0
    0.1987    3.4217    0.0098 C   0  0  0  0  0  0  0  0  0  0  0  0
   -0.1447    3.8252    0.9652 H   0  0  0  0  0  0  0  0  0  0  0  0
    1.1898    3.8194   -0.2126 H   0  0  0  0  0  0  0  0  0  0  0  0
   -0.4996    3.7348   -0.7684 H   0  0  0  0  0  0  0  0  0  0  0  0
  5  6  2  0  0  0  0
  5  7  1  0  0  0  0
  2  3  1  0  0  0  0
  2  4  1  0  0  0  0
  2  5  1  0  0  0  0
  1  2  1  0  0  0  0
 22 23  2  0  0  0  0
 22 24  1  0  0  0  0
 18 19  1  0  0  0  0
 18 20  1  0  0  0  0
 18 21  1  0  0  0  0
 17 18  1  0  0  0  0
 14 15  1  0  0  0  0
 14 16  1  0  0  0  0
 14 17  1  0  0  0  0
 11 12  1  0  0  0  0
 11 13  1  0  0  0  0
 11 14  1  0  0  0  0
  9 10  1  0  0  0  0
  9 11  1  0  0  0  0
  9 22  1  0  0  0  0
  7  8  1  0  0  0  0
  7  9  1  0  0  0  0
 26 27  1  0  0  0  0
 26 28  1  0  0  0  0
 26 29  1  0  0  0  0
 24 25  1  0  0  0  0
 24 26  1  0  0  0  0
M  END
$$$$
default_name
  -OEChem-01062215323D

 29 28  0     1  0  0  0  0  0999 V2000
   -3.5781   -3.7296    1.2702 H   0  0  0  0  0  0  0  0  0  0  0  0
   -3.5311   -2.7616    0.7732 C   0  0  0  0  0  0  0  0  0  0  0  0
   -4.2371   -2.0766    1.2382 H   0  0  0  0  0  0  0  0  0  0  0  0
   -3.7681   -2.8816   -0.2818 H   0  0  0  0  0  0  0  0  0  0  0  0
   -2.1321   -2.2086    0.9112 C   0  0  0  0  0  0  0  0  0  0  0  0
   -1.2751   -2.8426    1.5112 O   0  0  0  0  0  0  0  0  0  0  0  0
   -1.9041   -1.0186    0.3602 N   0  0  0  0  0  0  0  0  0  0  0  0
   -2.6671   -0.5416   -0.0988 H   0  0  0  0  0  0  0  0  0  0  0  0
   -0.6131   -0.3236    0.3832 C   0  0  1  0  0  0  0  0  0  0  0  0
   -0.0927   -0.5865    1.3055 H   0  0  0  0  0  0  0  0  0  0  0  0
    0.2394   -0.8047   -0.8054 C   0  0  0  0  0  0  0  0  0  0  0  0
   -0.3312   -0.6647   -1.7260 H   0  0  0  0  0  0  0  0  0  0  0  0
    1.1434   -0.1974   -0.8690 H   0  0  0  0  0  0  0  0  0  0  0  0
    0.6458   -2.2798   -0.7101 C   0  0  0  0  0  0  0  0  0  0  0  0
   -0.2518   -2.8962   -0.6725 H   0  0  0  0  0  0  0  0  0  0  0  0
    1.2157   -2.5444   -1.6015 H   0  0  0  0  0  0  0  0  0  0  0  0
    1.6519   -2.6629    0.7461 S   0  0  0  0  0  0  0  0  0  0  0  0
    3.1777   -1.7908    0.3066 C   0  0  0  0  0  0  0  0  0  0  0  0
    2.9710   -0.7272    0.1839 H   0  0  0  0  0  0  0  0  0  0  0  0
    3.9121   -1.9244    1.1013 H   0  0  0  0  0  0  0  0  0  0  0  0
    3.5779   -2.1956   -0.6234 H   0  0  0  0  0  0  0  0  0  0  0  0
   -0.8217    1.1974    0.3685 C   0  0  0  0  0  0  0  0  0  0  0  0
   -1.8330    1.6859    0.8684 O   0  0  0  0  0  0  0  0  0  0  0  0
    0.1274    1.9437   -0.2110 N   0  0  0  0  0  0  0  0  0  0  0  0
    0.9359    1.4736   -0.5859 H   0  0  0  0  0  0  0  0  0  0  0  0
    0.0679    3.4006   -0.3185 C   0  0  0  0  0  0  0  0  0  0  0  0
   -0.0199    3.8396    0.6781 H   0  0  0  0  0  0  0  0  0  0  0  0
    0.9680    3.7832   -0.8015 H   0  0  0  0  0  0  0  0  0  0  0  0
   -0.8073    3.6913   -0.9023 H   0  0  0  0  0  0  0  0  0  0  0  0
  5  6  2  0  0  0  0
  5  7  1  0  0  0  0
  2  3  1  0  0  0  0
  2  4  1  0  0  0  0
  2  5  1  0  0  0  0
  1  2  1  0  0  0  0
 22 23  2  0  0  0  0
 22 24  1  0  0  0  0
 18 19  1  0  0  0  0
 18 20  1  0  0  0  0
 18 21  1  0  0  0  0
 17 18  1  0  0  0  0
 14 15  1  0  0  0  0
 14 16  1  0  0  0  0
 14 17  1  0  0  0  0
 11 12  1  0  0  0  0
 11 13  1  0  0  0  0
 11 14  1  0  0  0  0
  9 10  1  0  0  0  0
  9 11  1  0  0  0  0
  9 22  1  0  0  0  0
  7  8  1  0  0  0  0
  7  9  1  0  0  0  0
 26 27  1  0  0  0  0
 26 28  1  0  0  0  0
 26 29  1  0  0  0  0
 24 25  1  0  0  0  0
 24 26  1  0  0  0  0
M  END
$$$$
default_name
  -OEChem-01062215323D

 29 28  0     1  0  0  0  0  0999 V2000
   -3.5781   -3.7296    1.2702 H   0  0  0  0  0  0  0  0  0  0  0  0
   -3.5311   -2.7616    0.7732 C   0  0  0  0  0  0  0  0  0  0  0  0
   -4.2371   -2.0766    1.2382 H   0  0  0  0  0  0  0  0  0  0  0  0
   -3.7681   -2.8816   -0.2818 H   0  0  0  0  0  0  0  0  0  0  0  0
   -2.1321   -2.2086    0.9112 C   0  0  0  0  0  0  0  0  0  0  0  0
   -1.2751   -2.8426    1.5112 O   0  0  0  0  0  0  0  0  0  0  0  0
   -1.9041   -1.0186    0.3602 N   0  0  0  0  0  0  0  0  0  0  0  0
   -2.6671   -0.5416   -0.0988 H   0  0  0  0  0  0  0  0  0  0  0  0
   -0.6131   -0.3236    0.3832 C   0  0  1  0  0  0  0  0  0  0  0  0
   -0.0927   -0.5865    1.3055 H   0  0  0  0  0  0  0  0  0  0  0  0
    0.2394   -0.8047   -0.8054 C   0  0  0  0  0  0  0  0  0  0  0  0
   -0.3312   -0.6647   -1.7260 H   0  0  0  0  0  0  0  0  0  0  0  0
    1.1434   -0.1974   -0.8690 H   0  0  0  0  0  0  0  0  0  0  0  0
    0.6458   -2.2798   -0.7101 C   0  0  0  0  0  0  0  0  0  0  0  0
   -0.2518   -2.8962   -0.6725 H   0  0  0  0  0  0  0  0  0  0  0  0
    1.2157   -2.5444   -1.6015 H   0  0  0  0  0  0  0  0  0  0  0  0
    1.6519   -2.6629    0.7461 S   0  0  0  0  0  0  0  0  0  0  0  0
    3.1777   -1.7908    0.3066 C   0  0  0  0  0  0  0  0  0  0  0  0
    2.9710   -0.7272    0.1839 H   0  0  0  0  0  0  0  0  0  0  0  0
    3.9121   -1.9244    1.1013 H   0  0  0  0  0  0  0  0  0  0  0  0
    3.5779   -2.1956   -0.6234 H   0  0  0  0  0  0  0  0  0  0  0  0
   -0.8217    1.1974    0.3685 C   0  0  0  0  0  0  0  0  0  0  0  0
   -1.6720    1.7101    1.0933 O   0  0  0  0  0  0  0  0  0  0  0  0
   -0.0545    1.9163   -0.4610 N   0  0  0  0  0  0  0  0  0  0  0  0
    0.6318    1.4278   -1.0138 H   0  0  0  0  0  0  0  0  0  0  0  0
   -0.1426    3.3690   -0.6014 C   0  0  0  0  0  0  0  0  0  0  0  0
    0.0272    3.8430    0.3682 H   0  0  0  0  0  0  0  0  0  0  0  0
    0.6026    3.7282   -1.3122 H   0  0  0  0  0  0  0  0  0  0  0  0
   -1.1389    3.6453   -0.9512 H   0  0  0  0  0  0  0  0  0  0  0  0
  5  6  2  0  0  0  0
  5  7  1  0  0  0  0
  2  3  1  0  0  0  0
  2  4  1  0  0  0  0
  2  5  1  0  0  0  0
  1  2  1  0  0  0  0
 22 23  2  0  0  0  0
 22 24  1  0  0  0  0
 18 19  1  0  0  0  0
 18 20  1  0  0  0  0
 18 21  1  0  0  0  0
 17 18  1  0  0  0  0
 14 15  1  0  0  0  0
 14 16  1  0  0  0  0
 14 17  1  0  0  0  0
 11 12  1  0  0  0  0
 11 13  1  0  0  0  0
 11 14  1  0  0  0  0
  9 10  1  0  0  0  0
  9 11  1  0  0  0  0
  9 22  1  0  0  0  0
  7  8  1  0  0  0  0
  7  9  1  0  0  0  0
 26 27  1  0  0  0  0
 26 28  1  0  0  0  0
 26 29  1  0  0  0  0
 24 25  1  0  0  0  0
 24 26  1  0  0  0  0
M  END
$$$$
default_name
  -OEChem-01062215323D

 29 28  0     1  0  0  0  0  0999 V2000
   -3.5781   -3.7296    1.2702 H   0  0  0  0  0  0  0  0  0  0  0  0
   -3.5311   -2.7616    0.7732 C   0  0  0  0  0  0  0  0  0  0  0  0
   -4.2371   -2.0766    1.2382 H   0  0  0  0  0  0  0  0  0  0  0  0
   -3.7681   -2.8816   -0.2818 H   0  0  0  0  0  0  0  0  0  0  0  0
   -2.1321   -2.2086    0.9112 C   0  0  0  0  0  0  0  0  0  0  0  0
   -1.2751   -2.8426    1.5112 O   0  0  0  0  0  0  0  0  0  0  0  0
   -1.9041   -1.0186    0.3602 N   0  0  0  0  0  0  0  0  0  0  0  0
   -2.6671   -0.5416   -0.0988 H   0  0  0  0  0  0  0  0  0  0  0  0
   -0.6131   -0.3236    0.3832 C   0  0  1  0  0  0  0  0  0  0  0  0
   -0.0927   -0.5865    1.3055 H   0  0  0  0  0  0  0  0  0  0  0  0
    0.2394   -0.8047   -0.8054 C   0  0  0  0  0  0  0  0  0  0  0  0
   -0.3312   -0.6647   -1.7260 H   0  0  0  0  0  0  0  0  0  0  0  0
    1.1434   -0.1974   -0.8690 H   0  0  0  0  0  0  0  0  0  0  0  0
    0.6458   -2.2798   -0.7101 C   0  0  0  0  0  0  0  0  0  0  0  0
   -0.2518   -2.8962   -0.6725 H   0  0  0  0  0  0  0  0  0  0  0  0
    1.2157   -2.5444   -1.6015 H   0  0  0  0  0  0  0  0  0  0  0  0
    1.6519   -2.6629    0.7461 S   0  0  0  0  0  0  0  0  0  0  0  0
    3.1777   -1.7908    0.3066 C   0  0  0  0  0  0  0  0  0  0  0  0
    2.9710   -0.7272    0.1839 H   0  0  0  0  0  0  0  0  0  0  0  0
    3.9121   -1.9244    1.1013 H   0  0  0  0  0  0  0  0  0  0  0  0
    3.5779   -2.1956   -0.6234 H   0  0  0  0  0  0  0  0  0  0  0  0
   -0.8217    1.1974    0.3685 C   0  0  0  0  0  0  0  0  0  0  0  0
   -1.4587    1.7411    1.2684 O   0  0  0  0  0  0  0  0  0  0  0  0
   -0.2943    1.8815   -0.6550 N   0  0  0  0  0  0  0  0  0  0  0  0
    0.2282    1.3692   -1.3475 H   0  0  0  0  0  0  0  0  0  0  0  0
   -0.4186    3.3290   -0.8195 C   0  0  0  0  0  0  0  0  0  0  0  0
   -0.0068    3.8353    0.0567 H   0  0  0  0  0  0  0  0  0  0  0  0
    0.1187    3.6580   -1.7099 H   0  0  0  0  0  0  0  0  0  0  0  0
   -1.4719    3.6000   -0.9118 H   0  0  0  0  0  0  0  0  0  0  0  0
  5  6  2  0  0  0  0
  5  7  1  0  0  0  0
  2  3  1  0  0  0  0
  2  4  1  0  0  0  0
  2  5  1  0  0  0  0
  1  2  1  0  0  0  0
 22 23  2  0  0  0  0
 22 24  1  0  0  0  0
 18 19  1  0  0  0  0
 18 20  1  0  0  0  0
 18 21  1  0  0  0  0
 17 18  1  0  0  0  0
 14 15  1  0  0  0  0
 14 16  1  0  0  0  0
 14 17  1  0  0  0  0
 11 12  1  0  0  0  0
 11 13  1  0  0  0  0
 11 14  1  0  0  0  0
  9 10  1  0  0  0  0
  9 11  1  0  0  0  0
  9 22  1  0  0  0  0
  7  8  1  0  0  0  0
  7  9  1  0  0  0  0
 26 27  1  0  0  0  0
 26 28  1  0  0  0  0
 26 29  1  0  0  0  0
 24 25  1  0  0  0  0
 24 26  1  0  0  0  0
M  END
$$$$
default_name
  -OEChem-01062215323D

 29 28  0     1  0  0  0  0  0999 V2000
   -3.5781   -3.7296    1.2702 H   0  0  0  0  0  0  0  0  0  0  0  0
   -3.5311   -2.7616    0.7732 C   0  0  0  0  0  0  0  0  0  0  0  0
   -4.2371   -2.0766    1.2382 H   0  0  0  0  0  0  0  0  0  0  0  0
   -3.7681   -2.8816   -0.2818 H   0  0  0  0  0  0  0  0  0  0  0  0
   -2.1321   -2.2086    0.9112 C   0  0  0  0  0  0  0  0  0  0  0  0
   -1.2751   -2.8426    1.5112 O   0  0  0  0  0  0  0  0  0  0  0  0
   -1.9041   -1.0186    0.3602 N   0  0  0  0  0  0  0  0  0  0  0  0
   -2.6671   -0.5416   -0.0988 H   0  0  0  0  0  0  0  0  0  0  0  0
   -0.6131   -0.3236    0.3832 C   0  0  1  0  0  0  0  0  0  0  0  0
   -0.0927   -0.5865    1.3055 H   0  0  0  0  0  0  0  0  0  0  0  0
    0.2394   -0.8047   -0.8054 C   0  0  0  0  0  0  0  0  0  0  0  0
   -0.3312   -0.6647   -1.7260 H   0  0  0  0  0  0  0  0  0  0  0  0
    1.1434   -0.1974   -0.8690 H   0  0  0  0  0  0  0  0  0  0  0  0
    0.6458   -2.2798   -0.7101 C   0  0  0  0  0  0  0  0  0  0  0  0
   -0.2518   -2.8962   -0.6725 H   0  0  0  0  0  0  0  0  0  0  0  0
    1.2157   -2.5444   -1.6015 H   0  0  0  0  0  0  0  0  0  0  0  0
    1.6519   -2.6629    0.7461 S   0  0  0  0  0  0  0  0  0  0  0  0
    3.1777   -1.7908    0.3066 C   0  0  0  0  0  0  0  0  0  0  0  0
    2.9710   -0.7272    0.1839 H   0  0  0  0  0  0  0  0  0  0  0  0
    3.9121   -1.9244    1.1013 H   0  0  0  0  0  0  0  0  0  0  0  0
    3.5779   -2.1956   -0.6234 H   0  0  0  0  0  0  0  0  0  0  0  0
   -0.8217    1.1974    0.3685 C   0  0  0  0  0  0  0  0  0  0  0  0
   -1.2078    1.7766    1.3818 O   0  0  0  0  0  0  0  0  0  0  0  0
   -0.5759    1.8417   -0.7796 N   0  0  0  0  0  0  0  0  0  0  0  0
   -0.2474    1.3019   -1.5643 H   0  0  0  0  0  0  0  0  0  0  0  0
   -0.7412    3.2834   -0.9580 C   0  0  0  0  0  0  0  0  0  0  0  0
   -0.1196    3.8171   -0.2352 H   0  0  0  0  0  0  0  0  0  0  0  0
   -0.4510    3.5773   -1.9675 H   0  0  0  0  0  0  0  0  0  0  0  0
   -1.7835    3.5585   -0.7868 H   0  0  0  0  0  0  0  0  0  0  0  0
  5  6  2  0  0  0  0
  5  7  1  0  0  0  0
  2  3  1  0  0  0  0
  2  4  1  0  0  0  0
  2  5  1  0  0  0  0
  1  2  1  0  0  0  0
 22 23  2  0  0  0  0
 22 24  1  0  0  0  0
 18 19  1  0  0  0  0
 18 20  1  0  0  0  0
 18 21  1  0  0  0  0
 17 18  1  0  0  0  0
 14 15  1  0  0  0  0
 14 16  1  0  0  0  0
 14 17  1  0  0  0  0
 11 12  1  0  0  0  0
 11 13  1  0  0  0  0
 11 14  1  0  0  0  0
  9 10  1  0  0  0  0
  9 11  1  0  0  0  0
  9 22  1  0  0  0  0
  7  8  1  0  0  0  0
  7  9  1  0  0  0  0
 26 27  1  0  0  0  0
 26 28  1  0  0  0  0
 26 29  1  0  0  0  0
 24 25  1  0  0  0  0
 24 26  1  0  0  0  0
M  END
$$$$
default_name
  -OEChem-01062215323D

 29 28  0     1  0  0  0  0  0999 V2000
   -3.5781   -3.7296    1.2702 H   0  0  0  0  0  0  0  0  0  0  0  0
   -3.5311   -2.7616    0.7732 C   0  0  0  0  0  0  0  0  0  0  0  0
   -4.2371   -2.0766    1.2382 H   0  0  0  0  0  0  0  0  0  0  0  0
   -3.7681   -2.8816   -0.2818 H   0  0  0  0  0  0  0  0  0  0  0  0
   -2.1321   -2.2086    0.9112 C   0  0  0  0  0  0  0  0  0  0  0  0
   -1.2751   -2.8426    1.5112 O   0  0  0  0  0  0  0  0  0  0  0  0
   -1.9041   -1.0186    0.3602 N   0  0  0  0  0  0  0  0  0  0  0  0
   -2.6671   -0.5416   -0.0988 H   0  0  0  0  0  0  0  0  0  0  0  0
   -0.6131   -0.3236    0.3832 C   0  0  1  0  0  0  0  0  0  0  0  0
   -0.0927   -0.5865    1.3055 H   0  0  0  0  0  0  0  0  0  0  0  0
    0.2394   -0.8047   -0.8054 C   0  0  0  0  0  0  0  0  0  0  0  0
   -0.3312   -0.6647   -1.7260 H   0  0  0  0  0  0  0  0  0  0  0  0
    1.1434   -0.1974   -0.8690 H   0  0  0  0  0  0  0  0  0  0  0  0
    0.6458   -2.2798   -0.7101 C   0  0  0  0  0  0  0  0  0  0  0  0
   -0.2518   -2.8962   -0.6725 H   0  0  0  0  0  0  0  0  0  0  0  0
    1.2157   -2.5444   -1.6015 H   0  0  0  0  0  0  0  0  0  0  0  0
    1.6519   -2.6629    0.7461 S   0  0  0  0  0  0  0  0  0  0  0  0
    3.1777   -1.7908    0.3066 C   0  0  0  0  0  0  0  0  0  0  0  0
    2.9710   -0.7272    0.1839 H   0  0  0  0  0  0  0  0  0  0  0  0
    3.9121   -1.9244    1.1013 H   0  0  0  0  0  0  0  0  0  0  0  0
    3.5779   -2.1956   -0.6234 H   0  0  0  0  0  0  0  0  0  0  0  0
   -0.8217    1.1974    0.3685 C   0  0  0  0  0  0  0  0  0  0  0  0
   -0.9362    1.8143    1.4256 O   0  0  0  0  0  0  0  0  0  0  0  0
   -0.8799    1.7995   -0.8263 N   0  0  0  0  0  0  0  0  0  0  0  0
   -0.7624    1.2304   -1.6494 H   0  0  0  0  0  0  0  0  0  0  0  0
   -1.0885    3.2353   -1.0074 C   0  0  0  0  0  0  0  0  0  0  0  0
   -0.3034    3.7894   -0.4876 H   0  0  0  0  0  0  0  0  0  0  0  0
   -1.0674    3.4918   -2.0674 H   0  0  0  0  0  0  0  0  0  0  0  0
   -2.0525    3.5236   -0.5846 H   0  0  0  0  0  0  0  0  0  0  0  0
  5  6  2  0  0  0  0
  5  7  1  0  0  0  0
  2  3  1  0  0  0  0
  2  4  1  0  0  0  0
  2  5  1  0  0  0  0
  1  2  1  0  0  0  0
 22 23  2  0  0  0  0
 22 24  1  0  0  0  0
 18 19  1  0  0  0  0
 18 20  1  0  0  0  0
 18 21  1  0  0  0  0
 17 18  1  0  0  0  0
 14 15  1  0  0  0  0
 14 16  1  0  0  0  0
 14 17  1  0  0  0  0
 11 12  1  0  0  0  0
 11 13  1  0  0  0  0
 11 14  1  0  0  0  0
  9 10  1  0  0  0  0
  9 11  1  0  0  0  0
  9 22  1  0  0  0  0
  7  8  1  0  0  0  0
  7  9  1  0  0  0  0
 26 27  1  0  0  0  0
 26 28  1  0  0  0  0
 26 29  1  0  0  0  0
 24 25  1  0  0  0  0
 24 26  1  0  0  0  0
M  END
$$$$
default_name
  -OEChem-01062215323D

 29 28  0     1  0  0  0  0  0999 V2000
   -3.5781   -3.7296    1.2702 H   0  0  0  0  0  0  0  0  0  0  0  0
   -3.5311   -2.7616    0.7732 C   0  0  0  0  0  0  0  0  0  0  0  0
   -4.2371   -2.0766    1.2382 H   0  0  0  0  0  0  0  0  0  0  0  0
   -3.7681   -2.8816   -0.2818 H   0  0  0  0  0  0  0  0  0  0  0  0
   -2.1321   -2.2086    0.9112 C   0  0  0  0  0  0  0  0  0  0  0  0
   -1.2751   -2.8426    1.5112 O   0  0  0  0  0  0  0  0  0  0  0  0
   -1.9041   -1.0186    0.3602 N   0  0  0  0  0  0  0  0  0  0  0  0
   -2.6671   -0.5416   -0.0988 H   0  0  0  0  0  0  0  0  0  0  0  0
   -0.6131   -0.3236    0.3832 C   0  0  1  0  0  0  0  0  0  0  0  0
   -0.0927   -0.5865    1.3055 H   0  0  0  0  0  0  0  0  0  0  0  0
    0.2394   -0.8047   -0.8054 C   0  0  0  0  0  0  0  0  0  0  0  0
   -0.3312   -0.6647   -1.7260 H   0  0  0  0  0  0  0  0  0  0  0  0
    1.1434   -0.1974   -0.8690 H   0  0  0  0  0  0  0  0  0  0  0  0
    0.6458   -2.2798   -0.7101 C   0  0  0  0  0  0  0  0  0  0  0  0
   -0.2518   -2.8962   -0.6725 H   0  0  0  0  0  0  0  0  0  0  0  0
    1.2157   -2.5444   -1.6015 H   0  0  0  0  0  0  0  0  0  0  0  0
    1.6519   -2.6629    0.7461 S   0  0  0  0  0  0  0  0  0  0  0  0
    3.1777   -1.7908    0.3066 C   0  0  0  0  0  0  0  0  0  0  0  0
    2.9710   -0.7272    0.1839 H   0  0  0  0  0  0  0  0  0  0  0  0
    3.9121   -1.9244    1.1013 H   0  0  0  0  0  0  0  0  0  0  0  0
    3.5779   -2.1956   -0.6234 H   0  0  0  0  0  0  0  0  0  0  0  0
   -0.8217    1.1974    0.3685 C   0  0  0  0  0  0  0  0  0  0  0  0
   -0.6626    1.8515    1.3971 O   0  0  0  0  0  0  0  0  0  0  0  0
   -1.1856    1.7579   -0.7921 N   0  0  0  0  0  0  0  0  0  0  0  0
   -1.2820    1.1596   -1.5970 H   0  0  0  0  0  0  0  0  0  0  0  0
   -1.4367    3.1880   -0.9645 C   0  0  0  0  0  0  0  0  0  0  0  0
   -0.5457    3.7543   -0.6833 H   0  0  0  0  0  0  0  0  0  0  0  0
   -1.6887    3.4072   -2.0029 H   0  0  0  0  0  0  0  0  0  0  0  0
   -2.2607    3.4976   -0.3192 H   0  0  0  0  0  0  0  0  0  0  0  0
  5  6  2  0  0  0  0
  5  7  1  0  0  0  0
  2  3  1  0  0  0  0
  2  4  1  0  0  0  0
  2  5  1  0  0  0  0
  1  2  1  0  0  0  0
 22 23  2  0  0  0  0
 22 24  1  0  0  0  0
 18 19  1  0  0  0  0
 18 20  1  0  0  0  0
 18 21  1  0  0  0  0
 17 18  1  0  0  0  0
 14 15  1  0  0  0  0
 14 16  1  0  0  0  0
 14 17  1  0  0  0  0
 11 12  1  0  0  0  0
 11 13  1  0  0  0  0
 11 14  1  0  0  0  0
  9 10  1  0  0  0  0
  9 11  1  0  0  0  0
  9 22  1  0  0  0  0
  7  8  1  0  0  0  0
  7  9  1  0  0  0  0
 26 27  1  0  0  0  0
 26 28  1  0  0  0  0
 26 29  1  0  0  0  0
 24 25  1  0  0  0  0
 24 26  1  0  0  0  0
M  END
$$$$
default_name
  -OEChem-01062215323D

 29 28  0     1  0  0  0  0  0999 V2000
   -3.5781   -3.7296    1.2702 H   0  0  0  0  0  0  0  0  0  0  0  0
   -3.5311   -2.7616    0.7732 C   0  0  0  0  0  0  0  0  0  0  0  0
   -4.2371   -2.0766    1.2382 H   0  0  0  0  0  0  0  0  0  0  0  0
   -3.7681   -2.8816   -0.2818 H   0  0  0  0  0  0  0  0  0  0  0  0
   -2.1321   -2.2086    0.9112 C   0  0  0  0  0  0  0  0  0  0  0  0
   -1.2751   -2.8426    1.5112 O   0  0  0  0  0  0  0  0  0  0  0  0
   -1.9041   -1.0186    0.3602 N   0  0  0  0  0  0  0  0  0  0  0  0
   -2.6671   -0.5416   -0.0988 H   0  0  0  0  0  0  0  0  0  0  0  0
   -0.6131   -0.3236    0.3832 C   0  0  1  0  0  0  0  0  0  0  0  0
   -0.0927   -0.5865    1.3055 H   0  0  0  0  0  0  0  0  0  0  0  0
    0.2394   -0.8047   -0.8054 C   0  0  0  0  0  0  0  0  0  0  0  0
   -0.3312   -0.6647   -1.7260 H   0  0  0  0  0  0  0  0  0  0  0  0
    1.1434   -0.1974   -0.8690 H   0  0  0  0  0  0  0  0  0  0  0  0
    0.6458   -2.2798   -0.7101 C   0  0  0  0  0  0  0  0  0  0  0  0
   -0.2518   -2.8962   -0.6725 H   0  0  0  0  0  0  0  0  0  0  0  0
    1.2157   -2.5444   -1.6015 H   0  0  0  0  0  0  0  0  0  0  0  0
    1.6519   -2.6629    0.7461 S   0  0  0  0  0  0  0  0  0  0  0  0
    3.1777   -1.7908    0.3066 C   0  0  0  0  0  0  0  0  0  0  0  0
    2.9710   -0.7272    0.1839 H   0  0  0  0  0  0  0  0  0  0  0  0
    3.9121   -1.9244    1.1013 H   0  0  0  0  0  0  0  0  0  0  0  0
    3.5779   -2.1956   -0.6234 H   0  0  0  0  0  0  0  0  0  0  0  0
   -0.8217    1.1974    0.3685 C   0  0  0  0  0  0  0  0  0  0  0  0
   -0.4055    1.8858    1.2980 O   0  0  0  0  0  0  0  0  0  0  0  0
   -1.4722    1.7197   -0.6791 N   0  0  0  0  0  0  0  0  0  0  0  0
   -1.7705    1.0944   -1.4107 H   0  0  0  0  0  0  0  0  0  0  0  0
   -1.7621    3.1446   -0.8321 C   0  0  0  0  0  0  0  0  0  0  0  0
   -0.8300    3.7141   -0.8089 H   0  0  0  0  0  0  0  0  0  0  0  0
   -2.2725    3.3293   -1.7782 H   0  0  0  0  0  0  0  0  0  0  0  0
   -2.3937    3.4824   -0.0085 H   0  0  0  0  0  0  0  0  0  0  0  0
  5  6  2  0  0  0  0
  5  7  1  0  0  0  0
  2  3  1  0  0  0  0
  2  4  1  0  0  0  0
  2  5  1  0  0  0  0
  1  2  1  0  0  0  0
 22 23  2  0  0  0  0
 22 24  1  0  0  0  0
 18 19  1  0  0  0  0
 18 20  1  0  0  0  0
 18 21  1  0  0  0  0
 17 18  1  0  0  0  0
 14 15  1  0  0  0  0
 14 16  1  0  0  0  0
 14 17  1  0  0  0  0
 11 12  1  0  0  0  0
 11 13  1  0  0  0  0
 11 14  1  0  0  0  0
  9 10  1  0  0  0  0
  9 11  1  0  0  0  0
  9 22  1  0  0  0  0
  7  8  1  0  0  0  0
  7  9  1  0  0  0  0
 26 27  1  0  0  0  0
 26 28  1  0  0  0  0
 26 29  1  0  0  0  0
 24 25  1  0  0  0  0
 24 26  1  0  0  0  0
M  END
$$$$
default_name
  -OEChem-01062215323D

 29 28  0     1  0  0  0  0  0999 V2000
   -3.5781   -3.7296    1.2702 H   0  0  0  0  0  0  0  0  0  0  0  0
   -3.5311   -2.7616    0.7732 C   0  0  0  0  0  0  0  0  0  0  0  0
   -4.2371   -2.0766    1.2382 H   0  0  0  0  0  0  0  0  0  0  0  0
   -3.7681   -2.8816   -0.2818 H   0  0  0  0  0  0  0  0  0  0  0  0
   -2.1321   -2.2086    0.9112 C   0  0  0  0  0  0  0  0  0  0  0  0
   -1.2751   -2.8426    1.5112 O   0  0  0  0  0  0  0  0  0  0  0  0
   -1.9041   -1.0186    0.3602 N   0  0  0  0  0  0  0  0  0  0  0  0
   -2.6671   -0.5416   -0.0988 H   0  0  0  0  0  0  0  0  0  0  0  0
   -0.6131   -0.3236    0.3832 C   0  0  1  0  0  0  0  0  0  0  0  0
   -0.0927   -0.5865    1.3055 H   0  0  0  0  0  0  0  0  0  0  0  0
    0.2394   -0.8047   -0.8054 C   0  0  0  0  0  0  0  0  0  0  0  0
   -0.3312   -0.6647   -1.7260 H   0  0  0  0  0  0  0  0  0  0  0  0
    1.1434   -0.1974   -0.8690 H   0  0  0  0  0  0  0  0  0  0  0  0
    0.6458   -2.2798   -0.7101 C   0  0  0  0  0  0  0  0  0  0  0  0
   -0.2518   -2.8962   -0.6725 H   0  0  0  0  0  0  0  0  0  0  0  0
    1.2157   -2.5444   -1.6015 H   0  0  0  0  0  0  0  0  0  0  0  0
    1.6519   -2.6629    0.7461 S   0  0  0  0  0  0  0  0  0  0  0  0
    3.1777   -1.7908    0.3066 C   0  0  0  0  0  0  0  0  0  0  0  0
    2.9710   -0.7272    0.1839 H   0  0  0  0  0  0  0  0  0  0  0  0
    3.9121   -1.9244    1.1013 H   0  0  0  0  0  0  0  0  0  0  0  0
    3.5779   -2.1956   -0.6234 H   0  0  0  0  0  0  0  0  0  0  0  0
   -0.8217    1.1974    0.3685 C   0  0  0  0  0  0  0  0  0  0  0  0
   -0.1824    1.9148    1.1352 O   0  0  0  0  0  0  0  0  0  0  0  0
   -1.7202    1.6875   -0.4952 N   0  0  0  0  0  0  0  0  0  0  0  0
   -2.1948    1.0392   -1.1031 H   0  0  0  0  0  0  0  0  0  0  0  0
   -2.0427    3.1082   -0.6192 C   0  0  0  0  0  0  0  0  0  0  0  0
   -1.1370    3.6715   -0.8560 H   0  0  0  0  0  0  0  0  0  0  0  0
   -2.7790    3.2634   -1.4088 H   0  0  0  0  0  0  0  0  0  0  0  0
   -2.4426    3.4789    0.3263 H   0  0  0  0  0  0  0  0  0  0  0  0
  5  6  2  0  0  0  0
  5  7  1  0  0  0  0
  2  3  1  0  0  0  0
  2  4  1  0  0  0  0
  2  5  1  0  0  0  0
  1  2  1  0  0  0  0
 22 23  2  0  0  0  0
 22 24  1  0  0  0  0
 18 19  1  0  0  0  0
 18 20  1  0  0  0  0
 18 21  1  0  0  0  0
 17 18  1  0  0  0  0
 14 15  1  0  0  0  0
 14 16  1  0  0  0  0
 14 17  1  0  0  0  0
 11 12  1  0  0  0  0
 11 13  1  0  0  0  0
 11 14  1  0  0  0  0
  9 10  1  0  0  0  0
  9 11  1  0  0  0  0
  9 22  1  0  0  0  0
  7  8  1  0  0  0  0
  7  9  1  0  0  0  0
 26 27  1  0  0  0  0
 26 28  1  0  0  0  0
 26 29  1  0  0  0  0
 24 25  1  0  0  0  0
 24 26  1  0  0  0  0
M  END
$$$$
default_name
  -OEChem-01062215323D

 29 28  0     1  0  0  0  0  0999 V2000
   -3.5781   -3.7296    1.2702 H   0  0  0  0  0  0  0  0  0  0  0  0
   -3.5311   -2.7616    0.7732 C   0  0  0  0  0  0  0  0  0  0  0  0
   -4.2371   -2.0766    1.2382 H   0  0  0  0  0  0  0  0  0  0  0  0
   -3.7681   -2.8816   -0.2818 H   0  0  0  0  0  0  0  0  0  0  0  0
   -2.1321   -2.2086    0.9112 C   0  0  0  0  0  0  0  0  0  0  0  0
   -1.2751   -2.8426    1.5112 O   0  0  0  0  0  0  0  0  0  0  0  0
   -1.9041   -1.0186    0.3602 N   0  0  0  0  0  0  0  0  0  0  0  0
   -2.6671   -0.5416   -0.0988 H   0  0  0  0  0  0  0  0  0  0  0  0
   -0.6131   -0.3236    0.3832 C   0  0  1  0  0  0  0  0  0  0  0  0
   -0.0927   -0.5865    1.3055 H   0  0  0  0  0  0  0  0  0  0  0  0
    0.2394   -0.8047   -0.8054 C   0  0  0  0  0  0  0  0  0  0  0  0
   -0.3312   -0.6647   -1.7260 H   0  0  0  0  0  0  0  0  0  0  0  0
    1.1434   -0.1974   -0.8690 H   0  0  0  0  0  0  0  0  0  0  0  0
    0.6458   -2.2798   -0.7101 C   0  0  0  0  0  0  0  0  0  0  0  0
   -0.2518   -2.8962   -0.6725 H   0  0  0  0  0  0  0  0  0  0  0  0
    1.2157   -2.5444   -1.6015 H   0  0  0  0  0  0  0  0  0  0  0  0
    1.6519   -2.6629    0.7461 S   0  0  0  0  0  0  0  0  0  0  0  0
    3.1777   -1.7908    0.3066 C   0  0  0  0  0  0  0  0  0  0  0  0
    2.9710   -0.7272    0.1839 H   0  0  0  0  0  0  0  0  0  0  0  0
    3.9121   -1.9244    1.1013 H   0  0  0  0  0  0  0  0  0  0  0  0
    3.5779   -2.1956   -0.6234 H   0  0  0  0  0  0  0  0  0  0  0  0
   -0.8217    1.1974    0.3685 C   0  0  0  0  0  0  0  0  0  0  0  0
   -0.0087    1.9366    0.9198 O   0  0  0  0  0  0  0  0  0  0  0  0
   -1.9127    1.6634   -0.2528 N   0  0  0  0  0  0  0  0  0  0  0  0
   -2.5260    0.9978   -0.6954 H   0  0  0  0  0  0  0  0  0  0  0  0
   -2.2591    3.0812   -0.3403 C   0  0  0  0  0  0  0  0  0  0  0  0
   -1.4456    3.6295   -0.8213 H   0  0  0  0  0  0  0  0  0  0  0  0
   -3.1736    3.2141   -0.9198 H   0  0  0  0  0  0  0  0  0  0  0  0
   -2.4040    3.4874    0.6623 H   0  0  0  0  0  0  0  0  0  0  0  0
  5  6  2  0  0  0  0
  5  7  1  0  0  0  0
  2  3  1  0  0  0  0
  2  4  1  0  0  0  0
  2  5  1  0  0  0  0
  1  2  1  0  0  0  0
 22 23  2  0  0  0  0
 22 24  1  0  0  0  0
 18 19  1  0  0  0  0
 18 20  1  0  0  0  0
 18 21  1  0  0  0  0
 17 18  1  0  0  0  0
 14 15  1  0  0  0  0
 14 16  1  0  0  0  0
 14 17  1  0  0  0  0
 11 12  1  0  0  0  0
 11 13  1  0  0  0  0
 11 14  1  0  0  0  0
  9 10  1  0  0  0  0
  9 11  1  0  0  0  0
  9 22  1  0  0  0  0
  7  8  1  0  0  0  0
  7  9  1  0  0  0  0
 26 27  1  0  0  0  0
 26 28  1  0  0  0  0
 26 29  1  0  0  0  0
 24 25  1  0  0  0  0
 24 26  1  0  0  0  0
M  END
$$$$
default_name
  -OEChem-01062215323D

 29 28  0     1  0  0  0  0  0999 V2000
   -3.5781   -3.7296    1.2702 H   0  0  0  0  0  0  0  0  0  0  0  0
   -3.5311   -2.7616    0.7732 C   0  0  0  0  0  0  0  0  0  0  0  0
   -4.2371   -2.0766    1.2382 H   0  0  0  0  0  0  0  0  0  0  0  0
   -3.7681   -2.8816   -0.2818 H   0  0  0  0  0  0  0  0  0  0  0  0
   -2.1321   -2.2086    0.9112 C   0  0  0  0  0  0  0  0  0  0  0  0
   -1.2751   -2.8426    1.5112 O   0  0  0  0  0  0  0  0  0  0  0  0
   -1.9041   -1.0186    0.3602 N   0  0  0  0  0  0  0  0  0  0  0  0
   -2.6671   -0.5416   -0.0988 H   0  0  0  0  0  0  0  0  0  0  0  0
   -0.6131   -0.3236    0.3832 C   0  0  1  0  0  0  0  0  0  0  0  0
   -0.0927   -0.5865    1.3055 H   0  0  0  0  0  0  0  0  0  0  0  0
    0.2394   -0.8047   -0.8054 C   0  0  0  0  0  0  0  0  0  0  0  0
   -0.3312   -0.6647   -1.7260 H   0  0  0  0  0  0  0  0  0  0  0  0
    1.1434   -0.1974   -0.8690 H   0  0  0  0  0  0  0  0  0  0  0  0
    0.6458   -2.2798   -0.7101 C   0  0  0  0  0  0  0  0  0  0  0  0
   -0.2518   -2.8962   -0.6725 H   0  0  0  0  0  0  0  0  0  0  0  0
    1.2157   -2.5444   -1.6015 H   0  0  0  0  0  0  0  0  0  0  0  0
    1.6519   -2.6629    0.7461 S   0  0  0  0  0  0  0  0  0  0  0  0
    3.1777   -1.7908    0.3066 C   0  0  0  0  0  0  0  0  0  0  0  0
    2.9710   -0.7272    0.1839 H   0  0  0  0  0  0  0  0  0  0  0  0
    3.9121   -1.9244    1.1013 H   0  0  0  0  0  0  0  0  0  0  0  0
    3.5779   -2.1956   -0.6234 H   0  0  0  0  0  0  0  0  0  0  0  0
   -0.8217    1.1974    0.3685 C   0  0  0  0  0  0  0  0  0  0  0  0
    0.1039    1.9496    0.6663 O   0  0  0  0  0  0  0  0  0  0  0  0
   -2.0365    1.6492    0.0315 N   0  0  0  0  0  0  0  0  0  0  0  0
   -2.7414    0.9729   -0.2151 H   0  0  0  0  0  0  0  0  0  0  0  0
   -2.3968    3.0655   -0.0145 C   0  0  0  0  0  0  0  0  0  0  0  0
   -1.7350    3.5909   -0.7071 H   0  0  0  0  0  0  0  0  0  0  0  0
   -3.4296    3.1845   -0.3445 H   0  0  0  0  0  0  0  0  0  0  0  0
   -2.2806    3.5074    0.9767 H   0  0  0  0  0  0  0  0  0  0  0  0
  5  6  2  0  0  0  0
  5  7  1  0  0  0  0
  2  3  1  0  0  0  0
  2  4  1  0  0  0  0
  2  5  1  0  0  0  0
  1  2  1  0  0  0  0
 22 23  2  0  0  0  0
 22 24  1  0  0  0  0
 18 19  1  0  0  0  0
 18 20  1  0  0  0  0
 18 21  1  0  0  0  0
 17 18  1  0  0  0  0
 14 15  1  0  0  0  0
 14 16  1  0  0  0  0
 14 17  1  0  0  0  0
 11 12  1  0  0  0  0
 11 13  1  0  0  0  0
 11 14  1  0  0  0  0
  9 10  1  0  0  0  0
  9 11  1  0  0  0  0
  9 22  1  0  0  0  0
  7  8  1  0  0  0  0
  7  9  1  0  0  0  0
 26 27  1  0  0  0  0
 26 28  1  0  0  0  0
 26 29  1  0  0  0  0
 24 25  1  0  0  0  0
 24 26  1  0  0  0  0
M  END
$$$$
default_name
  -OEChem-01062215323D

 29 28  0     1  0  0  0  0  0999 V2000
   -3.5781   -3.7296    1.2702 H   0  0  0  0  0  0  0  0  0  0  0  0
   -3.5311   -2.7616    0.7732 C   0  0  0  0  0  0  0  0  0  0  0  0
   -4.2371   -2.0766    1.2382 H   0  0  0  0  0  0  0  0  0  0  0  0
   -3.7681   -2.8816   -0.2818 H   0  0  0  0  0  0  0  0  0  0  0  0
   -2.1321   -2.2086    0.9112 C   0  0  0  0  0  0  0  0  0  0  0  0
   -1.2751   -2.8426    1.5112 O   0  0  0  0  0  0  0  0  0  0  0  0
   -1.9041   -1.0186    0.3602 N   0  0  0  0  0  0  0  0  0  0  0  0
   -2.6671   -0.5416   -0.0988 H   0  0  0  0  0  0  0  0  0  0  0  0
   -0.6131   -0.3236    0.3832 C   0  0  1  0  0  0  0  0  0  0  0  0
   -0.0927   -0.5865    1.3055 H   0  0  0  0  0  0  0  0  0  0  0  0
    0.2394   -0.8047   -0.8054 C   0  0  0  0  0  0  0  0  0  0  0  0
   -0.3312   -0.6647   -1.7260 H   0  0  0  0  0  0  0  0  0  0  0  0
    1.1434   -0.1974   -0.8690 H   0  0  0  0  0  0  0  0  0  0  0  0
    0.6458   -2.2798   -0.7101 C   0  0  0  0  0  0  0  0  0  0  0  0
   -0.2518   -2.8962   -0.6725 H   0  0  0  0  0  0  0  0  0  0  0  0
    1.2157   -2.5444   -1.6015 H   0  0  0  0  0  0  0  0  0  0  0  0
    1.6519   -2.6629    0.7461 S   0  0  0  0  0  0  0  0  0  0  0  0
    3.1777   -1.7908    0.3066 C   0  0  0  0  0  0  0  0  0  0  0  0
    2.9710   -0.7272    0.1839 H   0  0  0  0  0  0  0  0  0  0  0  0
    3.9121   -1.9244    1.1013 H   0  0  0  0  0  0  0  0  0  0  0  0
    3.5779   -2.1956   -0.6234 H   0  0  0  0  0  0  0  0  0  0  0  0
   -0.8217    1.1974    0.3685 C   0  0  0  0  0  0  0  0  0  0  0  0
    0.1478    1.9529    0.3922 O   0  0  0  0  0  0  0  0  0  0  0  0
   -2.0832    1.6458    0.3384 N   0  0  0  0  0  0  0  0  0  0  0  0
   -2.8264    0.9662    0.3049 H   0  0  0  0  0  0  0  0  0  0  0  0
   -2.4462    3.0621    0.3360 C   0  0  0  0  0  0  0  0  0  0  0  0
   -1.9853    3.5584   -0.5212 H   0  0  0  0  0  0  0  0  0  0  0  0
   -3.5294    3.1769    0.2778 H   0  0  0  0  0  0  0  0  0  0  0  0
   -2.0807    3.5375    1.2480 H   0  0  0  0  0  0  0  0  0  0  0  0
  5  6  2  0  0  0  0
  5  7  1  0  0  0  0
  2  3  1  0  0  0  0
  2  4  1  0  0  0  0
  2  5  1  0  0  0  0
  1  2  1  0  0  0  0
 22 23  2  0  0  0  0
 22 24  1  0  0  0  0
 18 19  1  0  0  0  0
 18 20  1  0  0  0  0
 18 21  1  0  0  0  0
 17 18  1  0  0  0  0
 14 15  1  0  0  0  0
 14 16  1  0  0  0  0
 14 17  1  0  0  0  0
 11 12  1  0  0  0  0
 11 13  1  0  0  0  0
 11 14  1  0  0  0  0
  9 10  1  0  0  0  0
  9 11  1  0  0  0  0
  9 22  1  0  0  0  0
  7  8  1  0  0  0  0
  7  9  1  0  0  0  0
 26 27  1  0  0  0  0
 26 28  1  0  0  0  0
 26 29  1  0  0  0  0
 24 25  1  0  0  0  0
 24 26  1  0  0  0  0
M  END
$$$$
default_name
  -OEChem-01062215323D

 29 28  0     1  0  0  0  0  0999 V2000
   -3.5781   -3.7296    1.2702 H   0  0  0  0  0  0  0  0  0  0  0  0
   -3.5311   -2.7616    0.7732 C   0  0  0  0  0  0  0  0  0  0  0  0
   -4.2371   -2.0766    1.2382 H   0  0  0  0  0  0  0  0  0  0  0  0
   -3.7681   -2.8816   -0.2818 H   0  0  0  0  0  0  0  0  0  0  0  0
   -2.1321   -2.2086    0.9112 C   0  0  0  0  0  0  0  0  0  0  0  0
   -1.2751   -2.8426    1.5112 O   0  0  0  0  0  0  0  0  0  0  0  0
   -1.9041   -1.0186    0.3602 N   0  0  0  0  0  0  0  0  0  0  0  0
   -2.6671   -0.5416   -0.0988 H   0  0  0  0  0  0  0  0  0  0  0  0
   -0.6131   -0.3236    0.3832 C   0  0  1  0  0  0  0  0  0  0  0  0
   -0.0927   -0.5865    1.3055 H   0  0  0  0  0  0  0  0  0  0  0  0
    0.2394   -0.8047   -0.8054 C   0  0  0  0  0  0  0  0  0  0  0  0
   -0.3312   -0.6647   -1.7260 H   0  0  0  0  0  0  0  0  0  0  0  0
    1.1434   -0.1974   -0.8690 H   0  0  0  0  0  0  0  0  0  0  0  0
    0.6458   -2.2798   -0.7101 C   0  0  0  0  0  0  0  0  0  0  0  0
   -0.2518   -2.8962   -0.6725 H   0  0  0  0  0  0  0  0  0  0  0  0
    1.2157   -2.5444   -1.6015 H   0  0  0  0  0  0  0  0  0  0  0  0
    1.6519   -2.6629    0.7461 S   0  0  0  0  0  0  0  0  0  0  0  0
    3.1777   -1.7908    0.3066 C   0  0  0  0  0  0  0  0  0  0  0  0
    2.9710   -0.7272    0.1839 H   0  0  0  0  0  0  0  0  0  0  0  0
    3.9121   -1.9244    1.1013 H   0  0  0  0  0  0  0  0  0  0  0  0
    3.5779   -2.1956   -0.6234 H   0  0  0  0  0  0  0  0  0  0  0  0
   -0.8217    1.1974    0.3685 C   0  0  0  0  0  0  0  0  0  0  0  0
    0.1199    1.9464    0.1160 O   0  0  0  0  0  0  0  0  0  0  0  0
   -2.0497    1.6534    0.6469 N   0  0  0  0  0  0  0  0  0  0  0  0
   -2.7751    0.9784    0.8292 H   0  0  0  0  0  0  0  0  0  0  0  0
   -2.4042    3.0713    0.6874 C   0  0  0  0  0  0  0  0  0  0  0  0
   -2.1795    3.5341   -0.2764 H   0  0  0  0  0  0  0  0  0  0  0  0
   -3.4663    3.1916    0.9048 H   0  0  0  0  0  0  0  0  0  0  0  0
   -1.8179    3.5755    1.4577 H   0  0  0  0  0  0  0  0  0  0  0  0
  5  6  2  0  0  0  0
  5  7  1  0  0  0  0
  2  3  1  0  0  0  0
  2  4  1  0  0  0  0
  2  5  1  0  0  0  0
  1  2  1  0  0  0  0
 22 23  2  0  0  0  0
 22 24  1  0  0  0  0
 18 19  1  0  0  0  0
 18 20  1  0  0  0  0
 18 21  1  0  0  0  0
 17 18  1  0  0  0  0
 14 15  1  0  0  0  0
 14 16  1  0  0  0  0
 14 17  1  0  0  0  0
 11 12  1  0  0  0  0
 11 13  1  0  0  0  0
 11 14  1  0  0  0  0
  9 10  1  0  0  0  0
  9 11  1  0  0  0  0
  9 22  1  0  0  0  0
  7  8  1  0  0  0  0
  7  9  1  0  0  0  0
 26 27  1  0  0  0  0
 26 28  1  0  0  0  0
 26 29  1  0  0  0  0
 24 25  1  0  0  0  0
 24 26  1  0  0  0  0
M  END
$$$$
default_name
  -OEChem-01062215323D

 29 28  0     1  0  0  0  0  0999 V2000
   -3.5781   -3.7296    1.2702 H   0  0  0  0  0  0  0  0  0  0  0  0
   -3.5311   -2.7616    0.7732 C   0  0  0  0  0  0  0  0  0  0  0  0
   -4.2371   -2.0766    1.2382 H   0  0  0  0  0  0  0  0  0  0  0  0
   -3.7681   -2.8816   -0.2818 H   0  0  0  0  0  0  0  0  0  0  0  0
   -2.1321   -2.2086    0.9112 C   0  0  0  0  0  0  0  0  0  0  0  0
   -1.2751   -2.8426    1.5112 O   0  0  0  0  0  0  0  0  0  0  0  0
   -1.9041   -1.0186    0.3602 N   0  0  0  0  0  0  0  0  0  0  0  0
   -2.6671   -0.5416   -0.0988 H   0  0  0  0  0  0  0  0  0  0  0  0
   -0.6131   -0.3236    0.3832 C   0  0  1  0  0  0  0  0  0  0  0  0
   -0.0927   -0.5865    1.3055 H   0  0  0  0  0  0  0  0  0  0  0  0
    0.2394   -0.8047   -0.8054 C   0  0  0  0  0  0  0  0  0  0  0  0
   -0.3312   -0.6647   -1.7260 H   0  0  0  0  0  0  0  0  0  0  0  0
    1.1434   -0.1974   -0.8690 H   0  0  0  0  0  0  0  0  0  0  0  0
    0.6458   -2.2798   -0.7101 C   0  0  0  0  0  0  0  0  0  0  0  0
   -0.2518   -2.8962   -0.6725 H   0  0  0  0  0  0  0  0  0  0  0  0
    1.2157   -2.5444   -1.6015 H   0  0  0  0  0  0  0  0  0  0  0  0
    1.6519   -2.6629    0.7461 S   0  0  0  0  0  0  0  0  0  0  0  0
    3.1777   -1.7908    0.3066 C   0  0  0  0  0  0  0  0  0  0  0  0
    2.9710   -0.7272    0.1839 H   0  0  0  0  0  0  0  0  0  0  0  0
    3.9121   -1.9244    1.1013 H   0  0  0  0  0  0  0  0  0  0  0  0
    3.5779   -2.1956   -0.6234 H   0  0  0  0  0  0  0  0  0  0  0  0
   -0.8217    1.1974    0.3685 C   0  0  0  0  0  0  0  0  0  0  0  0
    0.0221    1.9305   -0.1433 O   0  0  0  0  0  0  0  0  0  0  0  0
   -1.9382    1.6715    0.9361 N   0  0  0  0  0  0  0  0  0  0  0  0
   -2.5912    1.0084    1.3220 H   0  0  0  0  0  0  0  0  0  0  0  0
   -2.2734    3.0924    1.0157 C   0  0  0  0  0  0  0  0  0  0  0  0
   -2.3044    3.5198    0.0107 H   0  0  0  0  0  0  0  0  0  0  0  0
   -3.2445    3.2277    1.4937 H   0  0  0  0  0  0  0  0  0  0  0  0
   -1.5103    3.6190    1.5916 H   0  0  0  0  0  0  0  0  0  0  0  0
  5  6  2  0  0  0  0
  5  7  1  0  0  0  0
  2  3  1  0  0  0  0
  2  4  1  0  0  0  0
  2  5  1  0  0  0  0
  1  2  1  0  0  0  0
 22 23  2  0  0  0  0
 22 24  1  0  0  0  0
 18 19  1  0  0  0  0
 18 20  1  0  0  0  0
 18 21  1  0  0  0  0
 17 18  1  0  0  0  0
 14 15  1  0  0  0  0
 14 16  1  0  0  0  0
 14 17  1  0  0  0  0
 11 12  1  0  0  0  0
 11 13  1  0  0  0  0
 11 14  1  0  0  0  0
  9 10  1  0  0  0  0
  9 11  1  0  0  0  0
  9 22  1  0  0  0  0
  7  8  1  0  0  0  0
  7  9  1  0  0  0  0
 26 27  1  0  0  0  0
 26 28  1  0  0  0  0
 26 29  1  0  0  0  0
 24 25  1  0  0  0  0
 24 26  1  0  0  0  0
M  END
$$$$
default_name
  -OEChem-01062215323D

 29 28  0     1  0  0  0  0  0999 V2000
   -3.5781   -3.7296    1.2702 H   0  0  0  0  0  0  0  0  0  0  0  0
   -3.5311   -2.7616    0.7732 C   0  0  0  0  0  0  0  0  0  0  0  0
   -4.2371   -2.0766    1.2382 H   0  0  0  0  0  0  0  0  0  0  0  0
   -3.7681   -2.8816   -0.2818 H   0  0  0  0  0  0  0  0  0  0  0  0
   -2.1321   -2.2086    0.9112 C   0  0  0  0  0  0  0  0  0  0  0  0
   -1.2751   -2.8426    1.5112 O   0  0  0  0  0  0  0  0  0  0  0  0
   -1.9041   -1.0186    0.3602 N   0  0  0  0  0  0  0  0  0  0  0  0
   -2.6671   -0.5416   -0.0988 H   0  0  0  0  0  0  0  0  0  0  0  0
   -0.6131   -0.3236    0.3832 C   0  0  1  0  0  0  0  0  0  0  0  0
   -0.0927   -0.5865    1.3055 H   0  0  0  0  0  0  0  0  0  0  0  0
    0.2394   -0.8047   -0.8054 C   0  0  0  0  0  0  0  0  0  0  0  0
   -0.3312   -0.6647   -1.7260 H   0  0  0  0  0  0  0  0  0  0  0  0
    1.1434   -0.1974   -0.8690 H   0  0  0  0  0  0  0  0  0  0  0  0
    0.6458   -2.2798   -0.7101 C   0  0  0  0  0  0  0  0  0  0  0  0
   -0.2518   -2.8962   -0.6725 H   0  0  0  0  0  0  0  0  0  0  0  0
    1.2157   -2.5444   -1.6015 H   0  0  0  0  0  0  0  0  0  0  0  0
    1.6519   -2.6629    0.7461 S   0  0  0  0  0  0  0  0  0  0  0  0
    3.1777   -1.7908    0.3066 C   0  0  0  0  0  0  0  0  0  0  0  0
    2.9710   -0.7272    0.1839 H   0  0  0  0  0  0  0  0  0  0  0  0
    3.9121   -1.9244    1.1013 H   0  0  0  0  0  0  0  0  0  0  0  0
    3.5779   -2.1956   -0.6234 H   0  0  0  0  0  0  0  0  0  0  0  0
   -0.8217    1.1974    0.3685 C   0  0  0  0  0  0  0  0  0  0  0  0
   -0.1390    1.9062   -0.3682 O   0  0  0  0  0  0  0  0  0  0  0  0
   -1.7563    1.6988    1.1861 N   0  0  0  0  0  0  0  0  0  0  0  0
   -2.2871    1.0542    1.7499 H   0  0  0  0  0  0  0  0  0  0  0  0
   -2.0628    3.1240    1.2986 C   0  0  0  0  0  0  0  0  0  0  0  0
   -2.3514    3.5163    0.3206 H   0  0  0  0  0  0  0  0  0  0  0  0
   -2.8791    3.2828    2.0044 H   0  0  0  0  0  0  0  0  0  0  0  0
   -1.1787    3.6650    1.6405 H   0  0  0  0  0  0  0  0  0  0  0  0
  5  6  2  0  0  0  0
  5  7  1  0  0  0  0
  2  3  1  0  0  0  0
  2  4  1  0  0  0  0
  2  5  1  0  0  0  0
  1  2  1  0  0  0  0
 22 23  2  0  0  0  0
 22 24  1  0  0  0  0
 18 19  1  0  0  0  0
 18 20  1  0  0  0  0
 18 21  1  0  0  0  0
 17 18  1  0  0  0  0
 14 15  1  0  0  0  0
 14 16  1  0  0  0  0
 14 17  1  0  0  0  0
 11 12  1  0  0  0  0
 11 13  1  0  0  0  0
 11 14  1  0  0  0  0
  9 10  1  0  0  0  0
  9 11  1  0  0  0  0
  9 22  1  0  0  0  0
  7  8  1  0  0  0  0
  7  9  1  0  0  0  0
 26 27  1  0  0  0  0
 26 28  1  0  0  0  0
 26 29  1  0  0  0  0
 24 25  1  0  0  0  0
 24 26  1  0  0  0  0
M  END
$$$$
default_name
  -OEChem-01062215323D

 29 28  0     1  0  0  0  0  0999 V2000
   -3.5781   -3.7296    1.2702 H   0  0  0  0  0  0  0  0  0  0  0  0
   -3.5311   -2.7616    0.7732 C   0  0  0  0  0  0  0  0  0  0  0  0
   -4.2371   -2.0766    1.2382 H   0  0  0  0  0  0  0  0  0  0  0  0
   -3.7681   -2.8816   -0.2818 H   0  0  0  0  0  0  0  0  0  0  0  0
   -2.1321   -2.2086    0.9112 C   0  0  0  0  0  0  0  0  0  0  0  0
   -1.2751   -2.8426    1.5112 O   0  0  0  0  0  0  0  0  0  0  0  0
   -1.9041   -1.0186    0.3602 N   0  0  0  0  0  0  0  0  0  0  0  0
   -2.6671   -0.5416   -0.0988 H   0  0  0  0  0  0  0  0  0  0  0  0
   -0.6131   -0.3236    0.3832 C   0  0  1  0  0  0  0  0  0  0  0  0
   -0.0927   -0.5865    1.3055 H   0  0  0  0  0  0  0  0  0  0  0  0
    0.2394   -0.8047   -0.8054 C   0  0  0  0  0  0  0  0  0  0  0  0
   -0.3312   -0.6647   -1.7260 H   0  0  0  0  0  0  0  0  0  0  0  0
    1.1434   -0.1974   -0.8690 H   0  0  0  0  0  0  0  0  0  0  0  0
    0.6458   -2.2798   -0.7101 C   0  0  0  0  0  0  0  0  0  0  0  0
   -0.2518   -2.8962   -0.6725 H   0  0  0  0  0  0  0  0  0  0  0  0
    1.2157   -2.5444   -1.6015 H   0  0  0  0  0  0  0  0  0  0  0  0
    1.6519   -2.6629    0.7461 S   0  0  0  0  0  0  0  0  0  0  0  0
    3.1777   -1.7908    0.3066 C   0  0  0  0  0  0  0  0  0  0  0  0
    2.9710   -0.7272    0.1839 H   0  0  0  0  0  0  0  0  0  0  0  0
    3.9121   -1.9244    1.1013 H   0  0  0  0  0  0  0  0  0  0  0  0
    3.5779   -2.1956   -0.6234 H   0  0  0  0  0  0  0  0  0  0  0  0
   -0.8217    1.1974    0.3685 C   0  0  0  0  0  0  0  0  0  0  0  0
   -0.3522    1.8753   -0.5433 O   0  0  0  0  0  0  0  0  0  0  0  0
   -1.5164    1.7336    1.3801 N   0  0  0  0  0  0  0  0  0  0  0  0
   -1.8835    1.1128    2.0836 H   0  0  0  0  0  0  0  0  0  0  0  0
   -1.7868    3.1640    1.5167 C   0  0  0  0  0  0  0  0  0  0  0  0
   -2.3174    3.5240    0.6321 H   0  0  0  0  0  0  0  0  0  0  0  0
   -2.3952    3.3530    2.4021 H   0  0  0  0  0  0  0  0  0  0  0  0
   -0.8457    3.7103    1.6011 H   0  0  0  0  0  0  0  0  0  0  0  0
  5  6  2  0  0  0  0
  5  7  1  0  0  0  0
  2  3  1  0  0  0  0
  2  4  1  0  0  0  0
  2  5  1  0  0  0  0
  1  2  1  0  0  0  0
 22 23  2  0  0  0  0
 22 24  1  0  0  0  0
 18 19  1  0  0  0  0
 18 20  1  0  0  0  0
 18 21  1  0  0  0  0
 17 18  1  0  0  0  0
 14 15  1  0  0  0  0
 14 16  1  0  0  0  0
 14 17  1  0  0  0  0
 11 12  1  0  0  0  0
 11 13  1  0  0  0  0
 11 14  1  0  0  0  0
  9 10  1  0  0  0  0
  9 11  1  0  0  0  0
  9 22  1  0  0  0  0
  7  8  1  0  0  0  0
  7  9  1  0  0  0  0
 26 27  1  0  0  0  0
 26 28  1  0  0  0  0
 26 29  1  0  0  0  0
 24 25  1  0  0  0  0
 24 26  1  0  0  0  0
M  END
$$$$
default_name
  -OEChem-01062215323D

 29 28  0     1  0  0  0  0  0999 V2000
   -3.5781   -3.7296    1.2702 H   0  0  0  0  0  0  0  0  0  0  0  0
   -3.5311   -2.7616    0.7732 C   0  0  0  0  0  0  0  0  0  0  0  0
   -4.2371   -2.0766    1.2382 H   0  0  0  0  0  0  0  0  0  0  0  0
   -3.7681   -2.8816   -0.2818 H   0  0  0  0  0  0  0  0  0  0  0  0
   -2.1321   -2.2086    0.9112 C   0  0  0  0  0  0  0  0  0  0  0  0
   -1.2751   -2.8426    1.5112 O   0  0  0  0  0  0  0  0  0  0  0  0
   -1.9041   -1.0186    0.3602 N   0  0  0  0  0  0  0  0  0  0  0  0
   -2.6671   -0.5416   -0.0988 H   0  0  0  0  0  0  0  0  0  0  0  0
   -0.6131   -0.3236    0.3832 C   0  0  1  0  0  0  0  0  0  0  0  0
   -0.0927   -0.5865    1.3055 H   0  0  0  0  0  0  0  0  0  0  0  0
    0.2394   -0.8047   -0.8054 C   0  0  0  0  0  0  0  0  0  0  0  0
   -0.3312   -0.6647   -1.7260 H   0  0  0  0  0  0  0  0  0  0  0  0
    1.1434   -0.1974   -0.8690 H   0  0  0  0  0  0  0  0  0  0  0  0
    0.6458   -2.2798   -0.7101 C   0  0  0  0  0  0  0  0  0  0  0  0
   -0.2518   -2.8962   -0.6725 H   0  0  0  0  0  0  0  0  0  0  0  0
    1.2157   -2.5444   -1.6015 H   0  0  0  0  0  0  0  0  0  0  0  0
    1.6519   -2.6629    0.7461 S   0  0  0  0  0  0  0  0  0  0  0  0
    3.1777   -1.7908    0.3066 C   0  0  0  0  0  0  0  0  0  0  0  0
    2.9710   -0.7272    0.1839 H   0  0  0  0  0  0  0  0  0  0  0  0
    3.9121   -1.9244    1.1013 H   0  0  0  0  0  0  0  0  0  0  0  0
    3.5779   -2.1956   -0.6234 H   0  0  0  0  0  0  0  0  0  0  0  0
   -0.8217    1.1974    0.3685 C   0  0  0  0  0  0  0  0  0  0  0  0
   -0.6031    1.8398   -0.6567 O   0  0  0  0  0  0  0  0  0  0  0  0
   -1.2349    1.7734    1.5047 N   0  0  0  0  0  0  0  0  0  0  0  0
   -1.4080    1.1801    2.3004 H   0  0  0  0  0  0  0  0  0  0  0  0
   -1.4642    3.2096    1.6552 C   0  0  0  0  0  0  0  0  0  0  0  0
   -2.2047    3.5423    0.9240 H   0  0  0  0  0  0  0  0  0  0  0  0
   -1.8255    3.4336    2.6597 H   0  0  0  0  0  0  0  0  0  0  0  0
   -0.5341    3.7518    1.4761 H   0  0  0  0  0  0  0  0  0  0  0  0
  5  6  2  0  0  0  0
  5  7  1  0  0  0  0
  2  3  1  0  0  0  0
  2  4  1  0  0  0  0
  2  5  1  0  0  0  0
  1  2  1  0  0  0  0
 22 23  2  0  0  0  0
 22 24  1  0  0  0  0
 18 19  1  0  0  0  0
 18 20  1  0  0  0  0
 18 21  1  0  0  0  0
 17 18  1  0  0  0  0
 14 15  1  0  0  0  0
 14 16  1  0  0  0  0
 14 17  1  0  0  0  0
 11 12  1  0  0  0  0
 11 13  1  0  0  0  0
 11 14  1  0  0  0  0
  9 10  1  0  0  0  0
  9 11  1  0  0  0  0
  9 22  1  0  0  0  0
  7  8  1  0  0  0  0
  7  9  1  0  0  0  0
 26 27  1  0  0  0  0
 26 28  1  0  0  0  0
 26 29  1  0  0  0  0
 24 25  1  0  0  0  0
 24 26  1  0  0  0  0
M  END
$$$$
default_name
  -OEChem-01062215323D

 29 28  0     1  0  0  0  0  0999 V2000
   -3.5781   -3.7296    1.2702 H   0  0  0  0  0  0  0  0  0  0  0  0
   -3.5311   -2.7616    0.7732 C   0  0  0  0  0  0  0  0  0  0  0  0
   -4.2371   -2.0766    1.2382 H   0  0  0  0  0  0  0  0  0  0  0  0
   -3.7681   -2.8816   -0.2818 H   0  0  0  0  0  0  0  0  0  0  0  0
   -2.1321   -2.2086    0.9112 C   0  0  0  0  0  0  0  0  0  0  0  0
   -1.2751   -2.8426    1.5112 O   0  0  0  0  0  0  0  0  0  0  0  0
   -1.9041   -1.0186    0.3602 N   0  0  0  0  0  0  0  0  0  0  0  0
   -2.6671   -0.5416   -0.0988 H   0  0  0  0  0  0  0  0  0  0  0  0
   -0.6131   -0.3236    0.3832 C   0  0  1  0  0  0  0  0  0  0  0  0
   -0.0927   -0.5865    1.3055 H   0  0  0  0  0  0  0  0  0  0  0  0
    0.2394   -0.8047   -0.8054 C   0  0  0  0  0  0  0  0  0  0  0  0
   -0.3312   -0.6647   -1.7260 H   0  0  0  0  0  0  0  0  0  0  0  0
    1.1434   -0.1974   -0.8690 H   0  0  0  0  0  0  0  0  0  0  0  0
    0.6458   -2.2798   -0.7101 C   0  0  0  0  0  0  0  0  0  0  0  0
   -0.2518   -2.8962   -0.6725 H   0  0  0  0  0  0  0  0  0  0  0  0
    1.2157   -2.5444   -1.6015 H   0  0  0  0  0  0  0  0  0  0  0  0
    1.6519   -2.6629    0.7461 S   0  0  0  0  0  0  0  0  0  0  0  0
    3.1777   -1.7908    0.3066 C   0  0  0  0  0  0  0  0  0  0  0  0
    2.9710   -0.7272    0.1839 H   0  0  0  0  0  0  0  0  0  0  0  0
    3.9121   -1.9244    1.1013 H   0  0  0  0  0  0  0  0  0  0  0  0
    3.5779   -2.1956   -0.6234 H   0  0  0  0  0  0  0  0  0  0  0  0
   -0.8217    1.1974    0.3685 C   0  0  0  0  0  0  0  0  0  0  0  0
   -0.8747    1.8021   -0.7005 O   0  0  0  0  0  0  0  0  0  0  0  0
   -0.9309    1.8156    1.5514 N   0  0  0  0  0  0  0  0  0  0  0  0
   -0.8929    1.2516    2.3854 H   0  0  0  0  0  0  0  0  0  0  0  0
   -1.1170    3.2577    1.7047 C   0  0  0  0  0  0  0  0  0  0  0  0
   -2.0209    3.5700    1.1764 H   0  0  0  0  0  0  0  0  0  0  0  0
   -1.2091    3.5192    2.7596 H   0  0  0  0  0  0  0  0  0  0  0  0
   -0.2650    3.7867    1.2739 H   0  0  0  0  0  0  0  0  0  0  0  0
  5  6  2  0  0  0  0
  5  7  1  0  0  0  0
  2  3  1  0  0  0  0
  2  4  1  0  0  0  0
  2  5  1  0  0  0  0
  1  2  1  0  0  0  0
 22 23  2  0  0  0  0
 22 24  1  0  0  0  0
 18 19  1  0  0  0  0
 18 20  1  0  0  0  0
 18 21  1  0  0  0  0
 17 18  1  0  0  0  0
 14 15  1  0  0  0  0
 14 16  1  0  0  0  0
 14 17  1  0  0  0  0
 11 12  1  0  0  0  0
 11 13  1  0  0  0  0
 11 14  1  0  0  0  0
  9 10  1  0  0  0  0
  9 11  1  0  0  0  0
  9 22  1  0  0  0  0
  7  8  1  0  0  0  0
  7  9  1  0  0  0  0
 26 27  1  0  0  0  0
 26 28  1  0  0  0  0
 26 29  1  0  0  0  0
 24 25  1  0  0  0  0
 24 26  1  0  0  0  0
M  END
$$$$
default_name
  -OEChem-01062215323D

 29 28  0     1  0  0  0  0  0999 V2000
   -3.5781   -3.7296    1.2702 H   0  0  0  0  0  0  0  0  0  0  0  0
   -3.5311   -2.7616    0.7732 C   0  0  0  0  0  0  0  0  0  0  0  0
   -4.2371   -2.0766    1.2382 H   0  0  0  0  0  0  0  0  0  0  0  0
   -3.7681   -2.8816   -0.2818 H   0  0  0  0  0  0  0  0  0  0  0  0
   -2.1321   -2.2086    0.9112 C   0  0  0  0  0  0  0  0  0  0  0  0
   -1.2751   -2.8426    1.5112 O   0  0  0  0  0  0  0  0  0  0  0  0
   -1.9041   -1.0186    0.3602 N   0  0  0  0  0  0  0  0  0  0  0  0
   -2.6671   -0.5416   -0.0988 H   0  0  0  0  0  0  0  0  0  0  0  0
   -0.6131   -0.3236    0.3832 C   0  0  1  0  0  0  0  0  0  0  0  0
   -0.0927   -0.5865    1.3055 H   0  0  0  0  0  0  0  0  0  0  0  0
    0.2394   -0.8047   -0.8054 C   0  0  0  0  0  0  0  0  0  0  0  0
   -0.3312   -0.6647   -1.7260 H   0  0  0  0  0  0  0  0  0  0  0  0
    1.1434   -0.1974   -0.8690 H   0  0  0  0  0  0  0  0  0  0  0  0
    0.6458   -2.2798   -0.7101 C   0  0  0  0  0  0  0  0  0  0  0  0
   -0.2518   -2.8962   -0.6725 H   0  0  0  0  0  0  0  0  0  0  0  0
    1.2157   -2.5444   -1.6015 H   0  0  0  0  0  0  0  0  0  0  0  0
    1.6519   -2.6629    0.7461 S   0  0  0  0  0  0  0  0  0  0  0  0
    3.1777   -1.7908    0.3066 C   0  0  0  0  0  0  0  0  0  0  0  0
    2.9710   -0.7272    0.1839 H   0  0  0  0  0  0  0  0  0  0  0  0
    3.9121   -1.9244    1.1013 H   0  0  0  0  0  0  0  0  0  0  0  0
    3.5779   -2.1956   -0.6234 H   0  0  0  0  0  0  0  0  0  0  0  0
   -0.8217    1.1974    0.3685 C   0  0  0  0  0  0  0  0  0  0  0  0
   -1.1484    1.7648   -0.6720 O   0  0  0  0  0  0  0  0  0  0  0  0
   -0.6251    1.8572    1.5172 N   0  0  0  0  0  0  0  0  0  0  0  0
   -0.3734    1.3223    2.3331 H   0  0  0  0  0  0  0  0  0  0  0  0
   -0.7688    3.3050    1.6617 C   0  0  0  0  0  0  0  0  0  0  0  0
   -1.7786    3.6051    1.3721 H   0  0  0  0  0  0  0  0  0  0  0  0
   -0.5878    3.6037    2.6951 H   0  0  0  0  0  0  0  0  0  0  0  0
   -0.0569    3.8127    1.0085 H   0  0  0  0  0  0  0  0  0  0  0  0
  5  6  2  0  0  0  0
  5  7  1  0  0  0  0
  2  3  1  0  0  0  0
  2  4  1  0  0  0  0
  2  5  1  0  0  0  0
  1  2  1  0  0  0  0
 22 23  2  0  0  0  0
 22 24  1  0  0  0  0
 18 19  1  0  0  0  0
 18 20  1  0  0  0  0
 18 21  1  0  0  0  0
 17 18  1  0  0  0  0
 14 15  1  0  0  0  0
 14 16  1  0  0  0  0
 14 17  1  0  0  0  0
 11 12  1  0  0  0  0
 11 13  1  0  0  0  0
 11 14  1  0  0  0  0
  9 10  1  0  0  0  0
  9 11  1  0  0  0  0
  9 22  1  0  0  0  0
  7  8  1  0  0  0  0
  7  9  1  0  0  0  0
 26 27  1  0  0  0  0
 26 28  1  0  0  0  0
 26 29  1  0  0  0  0
 24 25  1  0  0  0  0
 24 26  1  0  0  0  0
M  END
$$$$
default_name
  -OEChem-01062215323D

 29 28  0     1  0  0  0  0  0999 V2000
   -3.5781   -3.7296    1.2702 H   0  0  0  0  0  0  0  0  0  0  0  0
   -3.5311   -2.7616    0.7732 C   0  0  0  0  0  0  0  0  0  0  0  0
   -4.2371   -2.0766    1.2382 H   0  0  0  0  0  0  0  0  0  0  0  0
   -3.7681   -2.8816   -0.2818 H   0  0  0  0  0  0  0  0  0  0  0  0
   -2.1321   -2.2086    0.9112 C   0  0  0  0  0  0  0  0  0  0  0  0
   -1.2751   -2.8426    1.5112 O   0  0  0  0  0  0  0  0  0  0  0  0
   -1.9041   -1.0186    0.3602 N   0  0  0  0  0  0  0  0  0  0  0  0
   -2.6671   -0.5416   -0.0988 H   0  0  0  0  0  0  0  0  0  0  0  0
   -0.6131   -0.3236    0.3832 C   0  0  1  0  0  0  0  0  0  0  0  0
   -0.0927   -0.5865    1.3055 H   0  0  0  0  0  0  0  0  0  0  0  0
    0.2394   -0.8047   -0.8054 C   0  0  0  0  0  0  0  0  0  0  0  0
   -0.3312   -0.6647   -1.7260 H   0  0  0  0  0  0  0  0  0  0  0  0
    1.1434   -0.1974   -0.8690 H   0  0  0  0  0  0  0  0  0  0  0  0
    0.6458   -2.2798   -0.7101 C   0  0  0  0  0  0  0  0  0  0  0  0
   -0.2518   -2.8962   -0.6725 H   0  0  0  0  0  0  0  0  0  0  0  0
    1.2157   -2.5444   -1.6015 H   0  0  0  0  0  0  0  0  0  0  0  0
    1.6519   -2.6629    0.7461 S   0  0  0  0  0  0  0  0  0  0  0  0
    3.1777   -1.7908    0.3066 C   0  0  0  0  0  0  0  0  0  0  0  0
    2.9710   -0.7272    0.1839 H   0  0  0  0  0  0  0  0  0  0  0  0
    3.9121   -1.9244    1.1013 H   0  0  0  0  0  0  0  0  0  0  0  0
    3.5779   -2.1956   -0.6234 H   0  0  0  0  0  0  0  0  0  0  0  0
   -0.8217    1.1974    0.3685 C   0  0  0  0  0  0  0  0  0  0  0  0
   -1.4054    1.7305   -0.5729 O   0  0  0  0  0  0  0  0  0  0  0  0
   -0.3385    1.8954    1.4042 N   0  0  0  0  0  0  0  0  0  0  0  0
    0.1152    1.3875    2.1468 H   0  0  0  0  0  0  0  0  0  0  0  0
   -0.4433    3.3484    1.5293 C   0  0  0  0  0  0  0  0  0  0  0  0
   -1.4943    3.6453    1.4978 H   0  0  0  0  0  0  0  0  0  0  0  0
   -0.0040    3.6816    2.4704 H   0  0  0  0  0  0  0  0  0  0  0  0
    0.0762    3.8280    0.6978 H   0  0  0  0  0  0  0  0  0  0  0  0
  5  6  2  0  0  0  0
  5  7  1  0  0  0  0
  2  3  1  0  0  0  0
  2  4  1  0  0  0  0
  2  5  1  0  0  0  0
  1  2  1  0  0  0  0
 22 23  2  0  0  0  0
 22 24  1  0  0  0  0
 18 19  1  0  0  0  0
 18 20  1  0  0  0  0
 18 21  1  0  0  0  0
 17 18  1  0  0  0  0
 14 15  1  0  0  0  0
 14 16  1  0  0  0  0
 14 17  1  0  0  0  0
 11 12  1  0  0  0  0
 11 13  1  0  0  0  0
 11 14  1  0  0  0  0
  9 10  1  0  0  0  0
  9 11  1  0  0  0  0
  9 22  1  0  0  0  0
  7  8  1  0  0  0  0
  7  9  1  0  0  0  0
 26 27  1  0  0  0  0
 26 28  1  0  0  0  0
 26 29  1  0  0  0  0
 24 25  1  0  0  0  0
 24 26  1  0  0  0  0
M  END
$$$$
default_name
  -OEChem-01062215323D

 29 28  0     1  0  0  0  0  0999 V2000
   -3.5781   -3.7296    1.2702 H   0  0  0  0  0  0  0  0  0  0  0  0
   -3.5311   -2.7616    0.7732 C   0  0  0  0  0  0  0  0  0  0  0  0
   -4.2371   -2.0766    1.2382 H   0  0  0  0  0  0  0  0  0  0  0  0
   -3.7681   -2.8816   -0.2818 H   0  0  0  0  0  0  0  0  0  0  0  0
   -2.1321   -2.2086    0.9112 C   0  0  0  0  0  0  0  0  0  0  0  0
   -1.2751   -2.8426    1.5112 O   0  0  0  0  0  0  0  0  0  0  0  0
   -1.9041   -1.0186    0.3602 N   0  0  0  0  0  0  0  0  0  0  0  0
   -2.6671   -0.5416   -0.0988 H   0  0  0  0  0  0  0  0  0  0  0  0
   -0.6131   -0.3236    0.3832 C   0  0  1  0  0  0  0  0  0  0  0  0
   -0.0927   -0.5865    1.3055 H   0  0  0  0  0  0  0  0  0  0  0  0
    0.2394   -0.8047   -0.8054 C   0  0  0  0  0  0  0  0  0  0  0  0
   -0.3312   -0.6647   -1.7260 H   0  0  0  0  0  0  0  0  0  0  0  0
    1.1434   -0.1974   -0.8690 H   0  0  0  0  0  0  0  0  0  0  0  0
    0.6458   -2.2798   -0.7101 C   0  0  0  0  0  0  0  0  0  0  0  0
   -0.2518   -2.8962   -0.6725 H   0  0  0  0  0  0  0  0  0  0  0  0
    1.2157   -2.5444   -1.6015 H   0  0  0  0  0  0  0  0  0  0  0  0
    1.6519   -2.6629    0.7461 S   0  0  0  0  0  0  0  0  0  0  0  0
    3.1777   -1.7908    0.3066 C   0  0  0  0  0  0  0  0  0  0  0  0
    2.9710   -0.7272    0.1839 H   0  0  0  0  0  0  0  0  0  0  0  0
    3.9121   -1.9244    1.1013 H   0  0  0  0  0  0  0  0  0  0  0  0
    3.5779   -2.1956   -0.6234 H   0  0  0  0  0  0  0  0  0  0  0  0
   -0.8217    1.1974    0.3685 C   0  0  0  0  0  0  0  0  0  0  0  0
   -1.6285    1.7015   -0.4101 O   0  0  0  0  0  0  0  0  0  0  0  0
   -0.0905    1.9276    1.2203 N   0  0  0  0  0  0  0  0  0  0  0  0
    0.5395    1.4428    1.8392 H   0  0  0  0  0  0  0  0  0  0  0  0
   -0.1628    3.3848    1.3164 C   0  0  0  0  0  0  0  0  0  0  0  0
   -1.1873    3.6879    1.5448 H   0  0  0  0  0  0  0  0  0  0  0  0
    0.5025    3.7475    2.1010 H   0  0  0  0  0  0  0  0  0  0  0  0
    0.1251    3.8314    0.3630 H   0  0  0  0  0  0  0  0  0  0  0  0
  5  6  2  0  0  0  0
  5  7  1  0  0  0  0
  2  3  1  0  0  0  0
  2  4  1  0  0  0  0
  2  5  1  0  0  0  0
  1  2  1  0  0  0  0
 22 23  2  0  0  0  0
 22 24  1  0  0  0  0
 18 19  1  0  0  0  0
 18 20  1  0  0  0  0
 18 21  1  0  0  0  0
 17 18  1  0  0  0  0
 14 15  1  0  0  0  0
 14 16  1  0  0  0  0
 14 17  1  0  0  0  0
 11 12  1  0  0  0  0
 11 13  1  0  0  0  0
 11 14  1  0  0  0  0
  9 10  1  0  0  0  0
  9 11  1  0  0  0  0
  9 22  1  0  0  0  0
  7  8  1  0  0  0  0
  7  9  1  0  0  0  0
 26 27  1  0  0  0  0
 26 28  1  0  0  0  0
 26 29  1  0  0  0  0
 24 25  1  0  0  0  0
 24 26  1  0  0  0  0
M  END
$$$$
default_name
  -OEChem-01062215323D

 29 28  0     1  0  0  0  0  0999 V2000
   -3.5781   -3.7296    1.2702 H   0  0  0  0  0  0  0  0  0  0  0  0
   -3.5311   -2.7616    0.7732 C   0  0  0  0  0  0  0  0  0  0  0  0
   -4.2371   -2.0766    1.2382 H   0  0  0  0  0  0  0  0  0  0  0  0
   -3.7681   -2.8816   -0.2818 H   0  0  0  0  0  0  0  0  0  0  0  0
   -2.1321   -2.2086    0.9112 C   0  0  0  0  0  0  0  0  0  0  0  0
   -1.2751   -2.8426    1.5112 O   0  0  0  0  0  0  0  0  0  0  0  0
   -1.9041   -1.0186    0.3602 N   0  0  0  0  0  0  0  0  0  0  0  0
   -2.6671   -0.5416   -0.0988 H   0  0  0  0  0  0  0  0  0  0  0  0
   -0.6131   -0.3236    0.3832 C   0  0  1  0  0  0  0  0  0  0  0  0
   -0.0927   -0.5865    1.3055 H   0  0  0  0  0  0  0  0  0  0  0  0
    0.2394   -0.8047   -0.8054 C   0  0  0  0  0  0  0  0  0  0  0  0
   -0.3312   -0.6647   -1.7260 H   0  0  0  0  0  0  0  0  0  0  0  0
    1.1434   -0.1974   -0.8690 H   0  0  0  0  0  0  0  0  0  0  0  0
    0.6458   -2.2798   -0.7101 C   0  0  0  0  0  0  0  0  0  0  0  0
   -0.2518   -2.8962   -0.6725 H   0  0  0  0  0  0  0  0  0  0  0  0
    1.2157   -2.5444   -1.6015 H   0  0  0  0  0  0  0  0  0  0  0  0
    1.6519   -2.6629    0.7461 S   0  0  0  0  0  0  0  0  0  0  0  0
    3.1777   -1.7908    0.3066 C   0  0  0  0  0  0  0  0  0  0  0  0
    2.9710   -0.7272    0.1839 H   0  0  0  0  0  0  0  0  0  0  0  0
    3.9121   -1.9244    1.1013 H   0  0  0  0  0  0  0  0  0  0  0  0
    3.5779   -2.1956   -0.6234 H   0  0  0  0  0  0  0  0  0  0  0  0
   -0.8217    1.1974    0.3685 C   0  0  0  0  0  0  0  0  0  0  0  0
   -1.8022    1.6798   -0.1947 O   0  0  0  0  0  0  0  0  0  0  0  0
    0.1019    1.9517    0.9779 N   0  0  0  0  0  0  0  0  0  0  0  0
    0.8706    1.4842    1.4315 H   0  0  0  0  0  0  0  0  0  0  0  0
    0.0537    3.4118    1.0375 C   0  0  0  0  0  0  0  0  0  0  0  0
   -0.8786    3.7299    1.5101 H   0  0  0  0  0  0  0  0  0  0  0  0
    0.8972    3.7969    1.6120 H   0  0  0  0  0  0  0  0  0  0  0  0
    0.0865    3.8229    0.0270 H   0  0  0  0  0  0  0  0  0  0  0  0
  5  6  2  0  0  0  0
  5  7  1  0  0  0  0
  2  3  1  0  0  0  0
  2  4  1  0  0  0  0
  2  5  1  0  0  0  0
  1  2  1  0  0  0  0
 22 23  2  0  0  0  0
 22 24  1  0  0  0  0
 18 19  1  0  0  0  0
 18 20  1  0  0  0  0
 18 21  1  0  0  0  0
 17 18  1  0  0  0  0
 14 15  1  0  0  0  0
 14 16  1  0  0  0  0
 14 17  1  0  0  0  0
 11 12  1  0  0  0  0
 11 13  1  0  0  0  0
 11 14  1  0  0  0  0
  9 10  1  0  0  0  0
  9 11  1  0  0  0  0
  9 22  1  0  0  0  0
  7  8  1  0  0  0  0
  7  9  1  0  0  0  0
 26 27  1  0  0  0  0
 26 28  1  0  0  0  0
 26 29  1  0  0  0  0
 24 25  1  0  0  0  0
 24 26  1  0  0  0  0
M  END
$$$$
default_name
  -OEChem-01062215323D

 29 28  0     1  0  0  0  0  0999 V2000
   -3.5781   -3.7296    1.2702 H   0  0  0  0  0  0  0  0  0  0  0  0
   -3.5311   -2.7616    0.7732 C   0  0  0  0  0  0  0  0  0  0  0  0
   -4.2371   -2.0766    1.2382 H   0  0  0  0  0  0  0  0  0  0  0  0
   -3.7681   -2.8816   -0.2818 H   0  0  0  0  0  0  0  0  0  0  0  0
   -2.1321   -2.2086    0.9112 C   0  0  0  0  0  0  0  0  0  0  0  0
   -1.2751   -2.8426    1.5112 O   0  0  0  0  0  0  0  0  0  0  0  0
   -1.9041   -1.0186    0.3602 N   0  0  0  0  0  0  0  0  0  0  0  0
   -2.6671   -0.5416   -0.0988 H   0  0  0  0  0  0  0  0  0  0  0  0
   -0.6131   -0.3236    0.3832 C   0  0  1  0  0  0  0  0  0  0  0  0
   -0.0927   -0.5865    1.3055 H   0  0  0  0  0  0  0  0  0  0  0  0
    0.2394   -0.8047   -0.8054 C   0  0  0  0  0  0  0  0  0  0  0  0
   -0.3312   -0.6647   -1.7260 H   0  0  0  0  0  0  0  0  0  0  0  0
    1.1434   -0.1974   -0.8690 H   0  0  0  0  0  0  0  0  0  0  0  0
    0.6458   -2.2798   -0.7101 C   0  0  0  0  0  0  0  0  0  0  0  0
   -0.2518   -2.8962   -0.6725 H   0  0  0  0  0  0  0  0  0  0  0  0
    1.2157   -2.5444   -1.6015 H   0  0  0  0  0  0  0  0  0  0  0  0
    1.6519   -2.6629    0.7461 S   0  0  0  0  0  0  0  0  0  0  0  0
    3.1777   -1.7908    0.3066 C   0  0  0  0  0  0  0  0  0  0  0  0
    2.9710   -0.7272    0.1839 H   0  0  0  0  0  0  0  0  0  0  0  0
    3.9121   -1.9244    1.1013 H   0  0  0  0  0  0  0  0  0  0  0  0
    3.5779   -2.1956   -0.6234 H   0  0  0  0  0  0  0  0  0  0  0  0
   -0.8217    1.1974    0.3685 C   0  0  0  0  0  0  0  0  0  0  0  0
   -1.9149    1.6668    0.0588 O   0  0  0  0  0  0  0  0  0  0  0  0
    0.2258    1.9659    0.6936 N   0  0  0  0  0  0  0  0  0  0  0  0
    1.0861    1.5091    0.9512 H   0  0  0  0  0  0  0  0  0  0  0  0
    0.1913    3.4275    0.7118 C   0  0  0  0  0  0  0  0  0  0  0  0
   -0.5893    3.7684    1.3959 H   0  0  0  0  0  0  0  0  0  0  0  0
    1.1531    3.8264    1.0367 H   0  0  0  0  0  0  0  0  0  0  0  0
   -0.0370    3.8029   -0.2874 H   0  0  0  0  0  0  0  0  0  0  0  0
  5  6  2  0  0  0  0
  5  7  1  0  0  0  0
  2  3  1  0  0  0  0
  2  4  1  0  0  0  0
  2  5  1  0  0  0  0
  1  2  1  0  0  0  0
 22 23  2  0  0  0  0
 22 24  1  0  0  0  0
 18 19  1  0  0  0  0
 18 20  1  0  0  0  0
 18 21  1  0  0  0  0
 17 18  1  0  0  0  0
 14 15  1  0  0  0  0
 14 16  1  0  0  0  0
 14 17  1  0  0  0  0
 11 12  1  0  0  0  0
 11 13  1  0  0  0  0
 11 14  1  0  0  0  0
  9 10  1  0  0  0  0
  9 11  1  0  0  0  0
  9 22  1  0  0  0  0
  7  8  1  0  0  0  0
  7  9  1  0  0  0  0
 26 27  1  0  0  0  0
 26 28  1  0  0  0  0
 26 29  1  0  0  0  0
 24 25  1  0  0  0  0
 24 26  1  0  0  0  0
M  END
$$$$
default_name
  -OEChem-01062215323D

 29 28  0     1  0  0  0  0  0999 V2000
   -3.5781   -3.7296    1.2702 H   0  0  0  0  0  0  0  0  0  0  0  0
   -3.5311   -2.7616    0.7732 C   0  0  0  0  0  0  0  0  0  0  0  0
   -4.2371   -2.0766    1.2382 H   0  0  0  0  0  0  0  0  0  0  0  0
   -3.7681   -2.8816   -0.2818 H   0  0  0  0  0  0  0  0  0  0  0  0
   -2.1321   -2.2086    0.9112 C   0  0  0  0  0  0  0  0  0  0  0  0
   -1.2751   -2.8426    1.5112 O   0  0  0  0  0  0  0  0  0  0  0  0
   -1.9041   -1.0186    0.3602 N   0  0  0  0  0  0  0  0  0  0  0  0
   -2.6671   -0.5416   -0.0988 H   0  0  0  0  0  0  0  0  0  0  0  0
   -0.6131   -0.3236    0.3832 C   0  0  1  0  0  0  0  0  0  0  0  0
    0.0142   -0.7800    1.1506 H   0  0  0  0  0  0  0  0  0  0  0  0
    0.0816   -0.5059   -0.9788 C   0  0  0  0  0  0  0  0  0  0  0  0
   -0.5965   -0.1704   -1.7664 H   0  0  0  0  0  0  0  0  0  0  0  0
    0.9771    0.1164   -1.0122 H   0  0  0  0  0  0  0  0  0  0  0  0
    0.4817   -1.9562   -1.2730 C   0  0  0  0  0  0  0  0  0  0  0  0
   -0.4108   -2.5813   -1.2675 H   0  0  0  0  0  0  0  0  0  0  0  0
    0.9348   -2.0005   -2.2640 H   0  0  0  0  0  0  0  0  0  0  0  0
    1.6555   -2.6423   -0.0766 S   0  0  0  0  0  0  0  0  0  0  0  0
    3.1243   -1.6653   -0.4888 C   0  0  0  0  0  0  0  0  0  0  0  0
    2.9149   -0.6057   -0.3394 H   0  0  0  0  0  0  0  0  0  0  0  0
    3.9496   -1.9629    0.1587 H   0  0  0  0  0  0  0  0  0  0  0  0
    3.4028   -1.8404   -1.5283 H   0  0  0  0  0  0  0  0  0  0  0  0
   -0.8064    1.1568    0.7414 C   0  0  0  0  0  0  0  0  0  0  0  0
   -1.9344    1.5978    0.9523 O   0  0  0  0  0  0  0  0  0  0  0  0
    0.2894    1.9242    0.8015 N   0  0  0  0  0  0  0  0  0  0  0  0
    1.1820    1.4888    0.6312 H   0  0  0  0  0  0  0  0  0  0  0  0
    0.2697    3.3523    1.1141 C   0  0  0  0  0  0  0  0  0  0  0  0
   -0.1973    3.5088    2.0893 H   0  0  0  0  0  0  0  0  0  0  0  0
    1.2847    3.7513    1.1338 H   0  0  0  0  0  0  0  0  0  0  0  0
   -0.3141    3.8859    0.3619 H   0  0  0  0  0  0  0  0  0  0  0  0
  5  6  2  0  0  0  0
  5  7  1  0  0  0  0
  2  3  1  0  0  0  0
  2  4  1  0  0  0  0
  2  5  1  0  0  0  0
  1  2  1  0  0  0  0
 22 23  2  0  0  0  0
 22 24  1  0  0  0  0
 18 19  1  0  0  0  0
 18 20  1  0  0  0  0
 18 21  1  0  0  0  0
 17 18  1  0  0  0  0
 14 15  1  0  0  0  0
 14 16  1  0  0  0  0
 14 17  1  0  0  0  0
 11 12  1  0  0  0  0
 11 13  1  0  0  0  0
 11 14  1  0  0  0  0
  9 10  1  0  0  0  0
  9 11  1  0  0  0  0
  9 22  1  0  0  0  0
  7  8  1  0  0  0  0
  7  9  1  0  0  0  0
 26 27  1  0  0  0  0
 26 28  1  0  0  0  0
 26 29  1  0  0  0  0
 24 25  1  0  0  0  0
 24 26  1  0  0  0  0
M  END
$$$$
default_name
  -OEChem-01062215323D

 29 28  0     1  0  0  0  0  0999 V2000
   -3.5781   -3.7296    1.2702 H   0  0  0  0  0  0  0  0  0  0  0  0
   -3.5311   -2.7616    0.7732 C   0  0  0  0  0  0  0  0  0  0  0  0
   -4.2371   -2.0766    1.2382 H   0  0  0  0  0  0  0  0  0  0  0  0
   -3.7681   -2.8816   -0.2818 H   0  0  0  0  0  0  0  0  0  0  0  0
   -2.1321   -2.2086    0.9112 C   0  0  0  0  0  0  0  0  0  0  0  0
   -1.2751   -2.8426    1.5112 O   0  0  0  0  0  0  0  0  0  0  0  0
   -1.9041   -1.0186    0.3602 N   0  0  0  0  0  0  0  0  0  0  0  0
   -2.6671   -0.5416   -0.0988 H   0  0  0  0  0  0  0  0  0  0  0  0
   -0.6131   -0.3236    0.3832 C   0  0  1  0  0  0  0  0  0  0  0  0
    0.0142   -0.7800    1.1506 H   0  0  0  0  0  0  0  0  0  0  0  0
    0.0816   -0.5059   -0.9788 C   0  0  0  0  0  0  0  0  0  0  0  0
   -0.5965   -0.1704   -1.7664 H   0  0  0  0  0  0  0  0  0  0  0  0
    0.9771    0.1164   -1.0122 H   0  0  0  0  0  0  0  0  0  0  0  0
    0.4817   -1.9562   -1.2730 C   0  0  0  0  0  0  0  0  0  0  0  0
   -0.4108   -2.5813   -1.2675 H   0  0  0  0  0  0  0  0  0  0  0  0
    0.9348   -2.0005   -2.2640 H   0  0  0  0  0  0  0  0  0  0  0  0
    1.6555   -2.6423   -0.0766 S   0  0  0  0  0  0  0  0  0  0  0  0
    3.1243   -1.6653   -0.4888 C   0  0  0  0  0  0  0  0  0  0  0  0
    2.9149   -0.6057   -0.3394 H   0  0  0  0  0  0  0  0  0  0  0  0
    3.9496   -1.9629    0.1587 H   0  0  0  0  0  0  0  0  0  0  0  0
    3.4028   -1.8404   -1.5283 H   0  0  0  0  0  0  0  0  0  0  0  0
   -0.8064    1.1568    0.7414 C   0  0  0  0  0  0  0  0  0  0  0  0
   -1.8726    1.5418    1.2172 O   0  0  0  0  0  0  0  0  0  0  0  0
    0.2181    1.9864    0.5058 N   0  0  0  0  0  0  0  0  0  0  0  0
    1.0665    1.5954    0.1282 H   0  0  0  0  0  0  0  0  0  0  0  0
    0.1846    3.4226    0.7777 C   0  0  0  0  0  0  0  0  0  0  0  0
   -0.0345    3.5917    1.8346 H   0  0  0  0  0  0  0  0  0  0  0  0
    1.1447    3.8785    0.5325 H   0  0  0  0  0  0  0  0  0  0  0  0
   -0.6011    3.8918    0.1828 H   0  0  0  0  0  0  0  0  0  0  0  0
  5  6  2  0  0  0  0
  5  7  1  0  0  0  0
  2  3  1  0  0  0  0
  2  4  1  0  0  0  0
  2  5  1  0  0  0  0
  1  2  1  0  0  0  0
 22 23  2  0  0  0  0
 22 24  1  0  0  0  0
 18 19  1  0  0  0  0
 18 20  1  0  0  0  0
 18 21  1  0  0  0  0
 17 18  1  0  0  0  0
 14 15  1  0  0  0  0
 14 16  1  0  0  0  0
 14 17  1  0  0  0  0
 11 12  1  0  0  0  0
 11 13  1  0  0  0  0
 11 14  1  0  0  0  0
  9 10  1  0  0  0  0
  9 11  1  0  0  0  0
  9 22  1  0  0  0  0
  7  8  1  0  0  0  0
  7  9  1  0  0  0  0
 26 27  1  0  0  0  0
 26 28  1  0  0  0  0
 26 29  1  0  0  0  0
 24 25  1  0  0  0  0
 24 26  1  0  0  0  0
M  END
$$$$
default_name
  -OEChem-01062215323D

 29 28  0     1  0  0  0  0  0999 V2000
   -3.5781   -3.7296    1.2702 H   0  0  0  0  0  0  0  0  0  0  0  0
   -3.5311   -2.7616    0.7732 C   0  0  0  0  0  0  0  0  0  0  0  0
   -4.2371   -2.0766    1.2382 H   0  0  0  0  0  0  0  0  0  0  0  0
   -3.7681   -2.8816   -0.2818 H   0  0  0  0  0  0  0  0  0  0  0  0
   -2.1321   -2.2086    0.9112 C   0  0  0  0  0  0  0  0  0  0  0  0
   -1.2751   -2.8426    1.5112 O   0  0  0  0  0  0  0  0  0  0  0  0
   -1.9041   -1.0186    0.3602 N   0  0  0  0  0  0  0  0  0  0  0  0
   -2.6671   -0.5416   -0.0988 H   0  0  0  0  0  0  0  0  0  0  0  0
   -0.6131   -0.3236    0.3832 C   0  0  1  0  0  0  0  0  0  0  0  0
    0.0142   -0.7800    1.1506 H   0  0  0  0  0  0  0  0  0  0  0  0
    0.0816   -0.5059   -0.9788 C   0  0  0  0  0  0  0  0  0  0  0  0
   -0.5965   -0.1704   -1.7664 H   0  0  0  0  0  0  0  0  0  0  0  0
    0.9771    0.1164   -1.0122 H   0  0  0  0  0  0  0  0  0  0  0  0
    0.4817   -1.9562   -1.2730 C   0  0  0  0  0  0  0  0  0  0  0  0
   -0.4108   -2.5813   -1.2675 H   0  0  0  0  0  0  0  0  0  0  0  0
    0.9348   -2.0005   -2.2640 H   0  0  0  0  0  0  0  0  0  0  0  0
    1.6555   -2.6423   -0.0766 S   0  0  0  0  0  0  0  0  0  0  0  0
    3.1243   -1.6653   -0.4888 C   0  0  0  0  0  0  0  0  0  0  0  0
    2.9149   -0.6057   -0.3394 H   0  0  0  0  0  0  0  0  0  0  0  0
    3.9496   -1.9629    0.1587 H   0  0  0  0  0  0  0  0  0  0  0  0
    3.4028   -1.8404   -1.5283 H   0  0  0  0  0  0  0  0  0  0  0  0
   -0.8064    1.1568    0.7414 C   0  0  0  0  0  0  0  0  0  0  0  0
   -1.7435    1.5000    1.4594 O   0  0  0  0  0  0  0  0  0  0  0  0
    0.0716    2.0325    0.2360 N   0  0  0  0  0  0  0  0  0  0  0  0
    0.8229    1.6750   -0.3322 H   0  0  0  0  0  0  0  0  0  0  0  0
    0.0141    3.4744    0.4717 C   0  0  0  0  0  0  0  0  0  0  0  0
    0.0542    3.6733    1.5453 H   0  0  0  0  0  0  0  0  0  0  0  0
    0.8517    3.9733   -0.0175 H   0  0  0  0  0  0  0  0  0  0  0  0
   -0.9233    3.8743    0.0811 H   0  0  0  0  0  0  0  0  0  0  0  0
  5  6  2  0  0  0  0
  5  7  1  0  0  0  0
  2  3  1  0  0  0  0
  2  4  1  0  0  0  0
  2  5  1  0  0  0  0
  1  2  1  0  0  0  0
 22 23  2  0  0  0  0
 22 24  1  0  0  0  0
 18 19  1  0  0  0  0
 18 20  1  0  0  0  0
 18 21  1  0  0  0  0
 17 18  1  0  0  0  0
 14 15  1  0  0  0  0
 14 16  1  0  0  0  0
 14 17  1  0  0  0  0
 11 12  1  0  0  0  0
 11 13  1  0  0  0  0
 11 14  1  0  0  0  0
  9 10  1  0  0  0  0
  9 11  1  0  0  0  0
  9 22  1  0  0  0  0
  7  8  1  0  0  0  0
  7  9  1  0  0  0  0
 26 27  1  0  0  0  0
 26 28  1  0  0  0  0
 26 29  1  0  0  0  0
 24 25  1  0  0  0  0
 24 26  1  0  0  0  0
M  END
$$$$
default_name
  -OEChem-01062215323D

 29 28  0     1  0  0  0  0  0999 V2000
   -3.5781   -3.7296    1.2702 H   0  0  0  0  0  0  0  0  0  0  0  0
   -3.5311   -2.7616    0.7732 C   0  0  0  0  0  0  0  0  0  0  0  0
   -4.2371   -2.0766    1.2382 H   0  0  0  0  0  0  0  0  0  0  0  0
   -3.7681   -2.8816   -0.2818 H   0  0  0  0  0  0  0  0  0  0  0  0
   -2.1321   -2.2086    0.9112 C   0  0  0  0  0  0  0  0  0  0  0  0
   -1.2751   -2.8426    1.5112 O   0  0  0  0  0  0  0  0  0  0  0  0
   -1.9041   -1.0186    0.3602 N   0  0  0  0  0  0  0  0  0  0  0  0
   -2.6671   -0.5416   -0.0988 H   0  0  0  0  0  0  0  0  0  0  0  0
   -0.6131   -0.3236    0.3832 C   0  0  1  0  0  0  0  0  0  0  0  0
    0.0142   -0.7800    1.1506 H   0  0  0  0  0  0  0  0  0  0  0  0
    0.0816   -0.5059   -0.9788 C   0  0  0  0  0  0  0  0  0  0  0  0
   -0.5965   -0.1704   -1.7664 H   0  0  0  0  0  0  0  0  0  0  0  0
    0.9771    0.1164   -1.0122 H   0  0  0  0  0  0  0  0  0  0  0  0
    0.4817   -1.9562   -1.2730 C   0  0  0  0  0  0  0  0  0  0  0  0
   -0.4108   -2.5813   -1.2675 H   0  0  0  0  0  0  0  0  0  0  0  0
    0.9348   -2.0005   -2.2640 H   0  0  0  0  0  0  0  0  0  0  0  0
    1.6555   -2.6423   -0.0766 S   0  0  0  0  0  0  0  0  0  0  0  0
    3.1243   -1.6653   -0.4888 C   0  0  0  0  0  0  0  0  0  0  0  0
    2.9149   -0.6057   -0.3394 H   0  0  0  0  0  0  0  0  0  0  0  0
    3.9496   -1.9629    0.1587 H   0  0  0  0  0  0  0  0  0  0  0  0
    3.4028   -1.8404   -1.5283 H   0  0  0  0  0  0  0  0  0  0  0  0
   -0.8064    1.1568    0.7414 C   0  0  0  0  0  0  0  0  0  0  0  0
   -1.5557    1.4754    1.6625 O   0  0  0  0  0  0  0  0  0  0  0  0
   -0.1399    2.0595    0.0104 N   0  0  0  0  0  0  0  0  0  0  0  0
    0.4680    1.7222   -0.7188 H   0  0  0  0  0  0  0  0  0  0  0  0
   -0.2300    3.5041    0.2170 C   0  0  0  0  0  0  0  0  0  0  0  0
    0.0627    3.7481    1.2410 H   0  0  0  0  0  0  0  0  0  0  0  0
    0.4257    4.0293   -0.4787 H   0  0  0  0  0  0  0  0  0  0  0  0
   -1.2589    3.8346    0.0639 H   0  0  0  0  0  0  0  0  0  0  0  0
  5  6  2  0  0  0  0
  5  7  1  0  0  0  0
  2  3  1  0  0  0  0
  2  4  1  0  0  0  0
  2  5  1  0  0  0  0
  1  2  1  0  0  0  0
 22 23  2  0  0  0  0
 22 24  1  0  0  0  0
 18 19  1  0  0  0  0
 18 20  1  0  0  0  0
 18 21  1  0  0  0  0
 17 18  1  0  0  0  0
 14 15  1  0  0  0  0
 14 16  1  0  0  0  0
 14 17  1  0  0  0  0
 11 12  1  0  0  0  0
 11 13  1  0  0  0  0
 11 14  1  0  0  0  0
  9 10  1  0  0  0  0
  9 11  1  0  0  0  0
  9 22  1  0  0  0  0
  7  8  1  0  0  0  0
  7  9  1  0  0  0  0
 26 27  1  0  0  0  0
 26 28  1  0  0  0  0
 26 29  1  0  0  0  0
 24 25  1  0  0  0  0
 24 26  1  0  0  0  0
M  END
$$$$
default_name
  -OEChem-01062215323D

 29 28  0     1  0  0  0  0  0999 V2000
   -3.5781   -3.7296    1.2702 H   0  0  0  0  0  0  0  0  0  0  0  0
   -3.5311   -2.7616    0.7732 C   0  0  0  0  0  0  0  0  0  0  0  0
   -4.2371   -2.0766    1.2382 H   0  0  0  0  0  0  0  0  0  0  0  0
   -3.7681   -2.8816   -0.2818 H   0  0  0  0  0  0  0  0  0  0  0  0
   -2.1321   -2.2086    0.9112 C   0  0  0  0  0  0  0  0  0  0  0  0
   -1.2751   -2.8426    1.5112 O   0  0  0  0  0  0  0  0  0  0  0  0
   -1.9041   -1.0186    0.3602 N   0  0  0  0  0  0  0  0  0  0  0  0
   -2.6671   -0.5416   -0.0988 H   0  0  0  0  0  0  0  0  0  0  0  0
   -0.6131   -0.3236    0.3832 C   0  0  1  0  0  0  0  0  0  0  0  0
    0.0142   -0.7800    1.1506 H   0  0  0  0  0  0  0  0  0  0  0  0
    0.0816   -0.5059   -0.9788 C   0  0  0  0  0  0  0  0  0  0  0  0
   -0.5965   -0.1704   -1.7664 H   0  0  0  0  0  0  0  0  0  0  0  0
    0.9771    0.1164   -1.0122 H   0  0  0  0  0  0  0  0  0  0  0  0
    0.4817   -1.9562   -1.2730 C   0  0  0  0  0  0  0  0  0  0  0  0
   -0.4108   -2.5813   -1.2675 H   0  0  0  0  0  0  0  0  0  0  0  0
    0.9348   -2.0005   -2.2640 H   0  0  0  0  0  0  0  0  0  0  0  0
    1.6555   -2.6423   -0.0766 S   0  0  0  0  0  0  0  0  0  0  0  0
    3.1243   -1.6653   -0.4888 C   0  0  0  0  0  0  0  0  0  0  0  0
    2.9149   -0.6057   -0.3394 H   0  0  0  0  0  0  0  0  0  0  0  0
    3.9496   -1.9629    0.1587 H   0  0  0  0  0  0  0  0  0  0  0  0
    3.4028   -1.8404   -1.5283 H   0  0  0  0  0  0  0  0  0  0  0  0
   -0.8064    1.1568    0.7414 C   0  0  0  0  0  0  0  0  0  0  0  0
   -1.3222    1.4696    1.8126 O   0  0  0  0  0  0  0  0  0  0  0  0
   -0.4022    2.0654   -0.1555 N   0  0  0  0  0  0  0  0  0  0  0  0
    0.0258    1.7338   -1.0052 H   0  0  0  0  0  0  0  0  0  0  0  0
   -0.5311    3.5098    0.0310 C   0  0  0  0  0  0  0  0  0  0  0  0
   -0.0094    3.8109    0.9425 H   0  0  0  0  0  0  0  0  0  0  0  0
   -0.1042    4.0426   -0.8198 H   0  0  0  0  0  0  0  0  0  0  0  0
   -1.5849    3.7754    0.1323 H   0  0  0  0  0  0  0  0  0  0  0  0
  5  6  2  0  0  0  0
  5  7  1  0  0  0  0
  2  3  1  0  0  0  0
  2  4  1  0  0  0  0
  2  5  1  0  0  0  0
  1  2  1  0  0  0  0
 22 23  2  0  0  0  0
 22 24  1  0  0  0  0
 18 19  1  0  0  0  0
 18 20  1  0  0  0  0
 18 21  1  0  0  0  0
 17 18  1  0  0  0  0
 14 15  1  0  0  0  0
 14 16  1  0  0  0  0
 14 17  1  0  0  0  0
 11 12  1  0  0  0  0
 11 13  1  0  0  0  0
 11 14  1  0  0  0  0
  9 10  1  0  0  0  0
  9 11  1  0  0  0  0
  9 22  1  0  0  0  0
  7  8  1  0  0  0  0
  7  9  1  0  0  0  0
 26 27  1  0  0  0  0
 26 28  1  0  0  0  0
 26 29  1  0  0  0  0
 24 25  1  0  0  0  0
 24 26  1  0  0  0  0
M  END
$$$$
default_name
  -OEChem-01062215323D

 29 28  0     1  0  0  0  0  0999 V2000
   -3.5781   -3.7296    1.2702 H   0  0  0  0  0  0  0  0  0  0  0  0
   -3.5311   -2.7616    0.7732 C   0  0  0  0  0  0  0  0  0  0  0  0
   -4.2371   -2.0766    1.2382 H   0  0  0  0  0  0  0  0  0  0  0  0
   -3.7681   -2.8816   -0.2818 H   0  0  0  0  0  0  0  0  0  0  0  0
   -2.1321   -2.2086    0.9112 C   0  0  0  0  0  0  0  0  0  0  0  0
   -1.2751   -2.8426    1.5112 O   0  0  0  0  0  0  0  0  0  0  0  0
   -1.9041   -1.0186    0.3602 N   0  0  0  0  0  0  0  0  0  0  0  0
   -2.6671   -0.5416   -0.0988 H   0  0  0  0  0  0  0  0  0  0  0  0
   -0.6131   -0.3236    0.3832 C   0  0  1  0  0  0  0  0  0  0  0  0
    0.0142   -0.7800    1.1506 H   0  0  0  0  0  0  0  0  0  0  0  0
    0.0816   -0.5059   -0.9788 C   0  0  0  0  0  0  0  0  0  0  0  0
   -0.5965   -0.1704   -1.7664 H   0  0  0  0  0  0  0  0  0  0  0  0
    0.9771    0.1164   -1.0122 H   0  0  0  0  0  0  0  0  0  0  0  0
    0.4817   -1.9562   -1.2730 C   0  0  0  0  0  0  0  0  0  0  0  0
   -0.4108   -2.5813   -1.2675 H   0  0  0  0  0  0  0  0  0  0  0  0
    0.9348   -2.0005   -2.2640 H   0  0  0  0  0  0  0  0  0  0  0  0
    1.6555   -2.6423   -0.0766 S   0  0  0  0  0  0  0  0  0  0  0  0
    3.1243   -1.6653   -0.4888 C   0  0  0  0  0  0  0  0  0  0  0  0
    2.9149   -0.6057   -0.3394 H   0  0  0  0  0  0  0  0  0  0  0  0
    3.9496   -1.9629    0.1587 H   0  0  0  0  0  0  0  0  0  0  0  0
    3.4028   -1.8404   -1.5283 H   0  0  0  0  0  0  0  0  0  0  0  0
   -0.8064    1.1568    0.7414 C   0  0  0  0  0  0  0  0  0  0  0  0
   -1.0589    1.4830    1.8995 O   0  0  0  0  0  0  0  0  0  0  0  0
   -0.6974    2.0498   -0.2505 N   0  0  0  0  0  0  0  0  0  0  0  0
   -0.4735    1.7089   -1.1718 H   0  0  0  0  0  0  0  0  0  0  0  0
   -0.8688    3.4910   -0.0738 C   0  0  0  0  0  0  0  0  0  0  0  0
   -0.1575    3.8574    0.6702 H   0  0  0  0  0  0  0  0  0  0  0  0
   -0.7020    4.0123   -1.0174 H   0  0  0  0  0  0  0  0  0  0  0  0
   -1.8791    3.7009    0.2817 H   0  0  0  0  0  0  0  0  0  0  0  0
  5  6  2  0  0  0  0
  5  7  1  0  0  0  0
  2  3  1  0  0  0  0
  2  4  1  0  0  0  0
  2  5  1  0  0  0  0
  1  2  1  0  0  0  0
 22 23  2  0  0  0  0
 22 24  1  0  0  0  0
 18 19  1  0  0  0  0
 18 20  1  0  0  0  0
 18 21  1  0  0  0  0
 17 18  1  0  0  0  0
 14 15  1  0  0  0  0
 14 16  1  0  0  0  0
 14 17  1  0  0  0  0
 11 12  1  0  0  0  0
 11 13  1  0  0  0  0
 11 14  1  0  0  0  0
  9 10  1  0  0  0  0
  9 11  1  0  0  0  0
  9 22  1  0  0  0  0
  7  8  1  0  0  0  0
  7  9  1  0  0  0  0
 26 27  1  0  0  0  0
 26 28  1  0  0  0  0
 26 29  1  0  0  0  0
 24 25  1  0  0  0  0
 24 26  1  0  0  0  0
M  END
$$$$
default_name
  -OEChem-01062215323D

 29 28  0     1  0  0  0  0  0999 V2000
   -3.5781   -3.7296    1.2702 H   0  0  0  0  0  0  0  0  0  0  0  0
   -3.5311   -2.7616    0.7732 C   0  0  0  0  0  0  0  0  0  0  0  0
   -4.2371   -2.0766    1.2382 H   0  0  0  0  0  0  0  0  0  0  0  0
   -3.7681   -2.8816   -0.2818 H   0  0  0  0  0  0  0  0  0  0  0  0
   -2.1321   -2.2086    0.9112 C   0  0  0  0  0  0  0  0  0  0  0  0
   -1.2751   -2.8426    1.5112 O   0  0  0  0  0  0  0  0  0  0  0  0
   -1.9041   -1.0186    0.3602 N   0  0  0  0  0  0  0  0  0  0  0  0
   -2.6671   -0.5416   -0.0988 H   0  0  0  0  0  0  0  0  0  0  0  0
   -0.6131   -0.3236    0.3832 C   0  0  1  0  0  0  0  0  0  0  0  0
    0.0142   -0.7800    1.1506 H   0  0  0  0  0  0  0  0  0  0  0  0
    0.0816   -0.5059   -0.9788 C   0  0  0  0  0  0  0  0  0  0  0  0
   -0.5965   -0.1704   -1.7664 H   0  0  0  0  0  0  0  0  0  0  0  0
    0.9771    0.1164   -1.0122 H   0  0  0  0  0  0  0  0  0  0  0  0
    0.4817   -1.9562   -1.2730 C   0  0  0  0  0  0  0  0  0  0  0  0
   -0.4108   -2.5813   -1.2675 H   0  0  0  0  0  0  0  0  0  0  0  0
    0.9348   -2.0005   -2.2640 H   0  0  0  0  0  0  0  0  0  0  0  0
    1.6555   -2.6423   -0.0766 S   0  0  0  0  0  0  0  0  0  0  0  0
    3.1243   -1.6653   -0.4888 C   0  0  0  0  0  0  0  0  0  0  0  0
    2.9149   -0.6057   -0.3394 H   0  0  0  0  0  0  0  0  0  0  0  0
    3.9496   -1.9629    0.1587 H   0  0  0  0  0  0  0  0  0  0  0  0
    3.4028   -1.8404   -1.5283 H   0  0  0  0  0  0  0  0  0  0  0  0
   -0.8064    1.1568    0.7414 C   0  0  0  0  0  0  0  0  0  0  0  0
   -0.7836    1.5146    1.9173 O   0  0  0  0  0  0  0  0  0  0  0  0
   -1.0052    2.0139   -0.2682 N   0  0  0  0  0  0  0  0  0  0  0  0
   -0.9958    1.6492   -1.2074 H   0  0  0  0  0  0  0  0  0  0  0  0
   -1.2199    3.4491   -0.0901 C   0  0  0  0  0  0  0  0  0  0  0  0
   -0.3712    3.8846    0.4425 H   0  0  0  0  0  0  0  0  0  0  0  0
   -1.3270    3.9405   -1.0581 H   0  0  0  0  0  0  0  0  0  0  0  0
   -2.1216    3.6159    0.5018 H   0  0  0  0  0  0  0  0  0  0  0  0
  5  6  2  0  0  0  0
  5  7  1  0  0  0  0
  2  3  1  0  0  0  0
  2  4  1  0  0  0  0
  2  5  1  0  0  0  0
  1  2  1  0  0  0  0
 22 23  2  0  0  0  0
 22 24  1  0  0  0  0
 18 19  1  0  0  0  0
 18 20  1  0  0  0  0
 18 21  1  0  0  0  0
 17 18  1  0  0  0  0
 14 15  1  0  0  0  0
 14 16  1  0  0  0  0
 14 17  1  0  0  0  0
 11 12  1  0  0  0  0
 11 13  1  0  0  0  0
 11 14  1  0  0  0  0
  9 10  1  0  0  0  0
  9 11  1  0  0  0  0
  9 22  1  0  0  0  0
  7  8  1  0  0  0  0
  7  9  1  0  0  0  0
 26 27  1  0  0  0  0
 26 28  1  0  0  0  0
 26 29  1  0  0  0  0
 24 25  1  0  0  0  0
 24 26  1  0  0  0  0
M  END
$$$$
default_name
  -OEChem-01062215323D

 29 28  0     1  0  0  0  0  0999 V2000
   -3.5781   -3.7296    1.2702 H   0  0  0  0  0  0  0  0  0  0  0  0
   -3.5311   -2.7616    0.7732 C   0  0  0  0  0  0  0  0  0  0  0  0
   -4.2371   -2.0766    1.2382 H   0  0  0  0  0  0  0  0  0  0  0  0
   -3.7681   -2.8816   -0.2818 H   0  0  0  0  0  0  0  0  0  0  0  0
   -2.1321   -2.2086    0.9112 C   0  0  0  0  0  0  0  0  0  0  0  0
   -1.2751   -2.8426    1.5112 O   0  0  0  0  0  0  0  0  0  0  0  0
   -1.9041   -1.0186    0.3602 N   0  0  0  0  0  0  0  0  0  0  0  0
   -2.6671   -0.5416   -0.0988 H   0  0  0  0  0  0  0  0  0  0  0  0
   -0.6131   -0.3236    0.3832 C   0  0  1  0  0  0  0  0  0  0  0  0
    0.0142   -0.7800    1.1506 H   0  0  0  0  0  0  0  0  0  0  0  0
    0.0816   -0.5059   -0.9788 C   0  0  0  0  0  0  0  0  0  0  0  0
   -0.5965   -0.1704   -1.7664 H   0  0  0  0  0  0  0  0  0  0  0  0
    0.9771    0.1164   -1.0122 H   0  0  0  0  0  0  0  0  0  0  0  0
    0.4817   -1.9562   -1.2730 C   0  0  0  0  0  0  0  0  0  0  0  0
   -0.4108   -2.5813   -1.2675 H   0  0  0  0  0  0  0  0  0  0  0  0
    0.9348   -2.0005   -2.2640 H   0  0  0  0  0  0  0  0  0  0  0  0
    1.6555   -2.6423   -0.0766 S   0  0  0  0  0  0  0  0  0  0  0  0
    3.1243   -1.6653   -0.4888 C   0  0  0  0  0  0  0  0  0  0  0  0
    2.9149   -0.6057   -0.3394 H   0  0  0  0  0  0  0  0  0  0  0  0
    3.9496   -1.9629    0.1587 H   0  0  0  0  0  0  0  0  0  0  0  0
    3.4028   -1.8404   -1.5283 H   0  0  0  0  0  0  0  0  0  0  0  0
   -0.8064    1.1568    0.7414 C   0  0  0  0  0  0  0  0  0  0  0  0
   -0.5152    1.5624    1.8648 O   0  0  0  0  0  0  0  0  0  0  0  0
   -1.3048    1.9600   -0.2072 N   0  0  0  0  0  0  0  0  0  0  0  0
   -1.5056    1.5589   -1.1094 H   0  0  0  0  0  0  0  0  0  0  0  0
   -1.5607    3.3869   -0.0169 C   0  0  0  0  0  0  0  0  0  0  0  0
   -0.6361    3.8905    0.2751 H   0  0  0  0  0  0  0  0  0  0  0  0
   -1.9364    3.8321   -0.9391 H   0  0  0  0  0  0  0  0  0  0  0  0
   -2.2957    3.5264    0.7778 H   0  0  0  0  0  0  0  0  0  0  0  0
  5  6  2  0  0  0  0
  5  7  1  0  0  0  0
  2  3  1  0  0  0  0
  2  4  1  0  0  0  0
  2  5  1  0  0  0  0
  1  2  1  0  0  0  0
 22 23  2  0  0  0  0
 22 24  1  0  0  0  0
 18 19  1  0  0  0  0
 18 20  1  0  0  0  0
 18 21  1  0  0  0  0
 17 18  1  0  0  0  0
 14 15  1  0  0  0  0
 14 16  1  0  0  0  0
 14 17  1  0  0  0  0
 11 12  1  0  0  0  0
 11 13  1  0  0  0  0
 11 14  1  0  0  0  0
  9 10  1  0  0  0  0
  9 11  1  0  0  0  0
  9 22  1  0  0  0  0
  7  8  1  0  0  0  0
  7  9  1  0  0  0  0
 26 27  1  0  0  0  0
 26 28  1  0  0  0  0
 26 29  1  0  0  0  0
 24 25  1  0  0  0  0
 24 26  1  0  0  0  0
M  END
$$$$
default_name
  -OEChem-01062215323D

 29 28  0     1  0  0  0  0  0999 V2000
   -3.5781   -3.7296    1.2702 H   0  0  0  0  0  0  0  0  0  0  0  0
   -3.5311   -2.7616    0.7732 C   0  0  0  0  0  0  0  0  0  0  0  0
   -4.2371   -2.0766    1.2382 H   0  0  0  0  0  0  0  0  0  0  0  0
   -3.7681   -2.8816   -0.2818 H   0  0  0  0  0  0  0  0  0  0  0  0
   -2.1321   -2.2086    0.9112 C   0  0  0  0  0  0  0  0  0  0  0  0
   -1.2751   -2.8426    1.5112 O   0  0  0  0  0  0  0  0  0  0  0  0
   -1.9041   -1.0186    0.3602 N   0  0  0  0  0  0  0  0  0  0  0  0
   -2.6671   -0.5416   -0.0988 H   0  0  0  0  0  0  0  0  0  0  0  0
   -0.6131   -0.3236    0.3832 C   0  0  1  0  0  0  0  0  0  0  0  0
    0.0142   -0.7800    1.1506 H   0  0  0  0  0  0  0  0  0  0  0  0
    0.0816   -0.5059   -0.9788 C   0  0  0  0  0  0  0  0  0  0  0  0
   -0.5965   -0.1704   -1.7664 H   0  0  0  0  0  0  0  0  0  0  0  0
    0.9771    0.1164   -1.0122 H   0  0  0  0  0  0  0  0  0  0  0  0
    0.4817   -1.9562   -1.2730 C   0  0  0  0  0  0  0  0  0  0  0  0
   -0.4108   -2.5813   -1.2675 H   0  0  0  0  0  0  0  0  0  0  0  0
    0.9348   -2.0005   -2.2640 H   0  0  0  0  0  0  0  0  0  0  0  0
    1.6555   -2.6423   -0.0766 S   0  0  0  0  0  0  0  0  0  0  0  0
    3.1243   -1.6653   -0.4888 C   0  0  0  0  0  0  0  0  0  0  0  0
    2.9149   -0.6057   -0.3394 H   0  0  0  0  0  0  0  0  0  0  0  0
    3.9496   -1.9629    0.1587 H   0  0  0  0  0  0  0  0  0  0  0  0
    3.4028   -1.8404   -1.5283 H   0  0  0  0  0  0  0  0  0  0  0  0
   -0.8064    1.1568    0.7414 C   0  0  0  0  0  0  0  0  0  0  0  0
   -0.2720    1.6230    1.7455 O   0  0  0  0  0  0  0  0  0  0  0  0
   -1.5757    1.8918   -0.0718 N   0  0  0  0  0  0  0  0  0  0  0  0
   -1.9681    1.4441   -0.8846 H   0  0  0  0  0  0  0  0  0  0  0  0
   -1.8678    3.3086    0.1409 C   0  0  0  0  0  0  0  0  0  0  0  0
   -0.9341    3.8748    0.1792 H   0  0  0  0  0  0  0  0  0  0  0  0
   -2.4888    3.6945   -0.6685 H   0  0  0  0  0  0  0  0  0  0  0  0
   -2.3897    3.4384    1.0907 H   0  0  0  0  0  0  0  0  0  0  0  0
  5  6  2  0  0  0  0
  5  7  1  0  0  0  0
  2  3  1  0  0  0  0
  2  4  1  0  0  0  0
  2  5  1  0  0  0  0
  1  2  1  0  0  0  0
 22 23  2  0  0  0  0
 22 24  1  0  0  0  0
 18 19  1  0  0  0  0
 18 20  1  0  0  0  0
 18 21  1  0  0  0  0
 17 18  1  0  0  0  0
 14 15  1  0  0  0  0
 14 16  1  0  0  0  0
 14 17  1  0  0  0  0
 11 12  1  0  0  0  0
 11 13  1  0  0  0  0
 11 14  1  0  0  0  0
  9 10  1  0  0  0  0
  9 11  1  0  0  0  0
  9 22  1  0  0  0  0
  7  8  1  0  0  0  0
  7  9  1  0  0  0  0
 26 27  1  0  0  0  0
 26 28  1  0  0  0  0
 26 29  1  0  0  0  0
 24 25  1  0  0  0  0
 24 26  1  0  0  0  0
M  END
$$$$
default_name
  -OEChem-01062215323D

 29 28  0     1  0  0  0  0  0999 V2000
   -3.5781   -3.7296    1.2702 H   0  0  0  0  0  0  0  0  0  0  0  0
   -3.5311   -2.7616    0.7732 C   0  0  0  0  0  0  0  0  0  0  0  0
   -4.2371   -2.0766    1.2382 H   0  0  0  0  0  0  0  0  0  0  0  0
   -3.7681   -2.8816   -0.2818 H   0  0  0  0  0  0  0  0  0  0  0  0
   -2.1321   -2.2086    0.9112 C   0  0  0  0  0  0  0  0  0  0  0  0
   -1.2751   -2.8426    1.5112 O   0  0  0  0  0  0  0  0  0  0  0  0
   -1.9041   -1.0186    0.3602 N   0  0  0  0  0  0  0  0  0  0  0  0
   -2.6671   -0.5416   -0.0988 H   0  0  0  0  0  0  0  0  0  0  0  0
   -0.6131   -0.3236    0.3832 C   0  0  1  0  0  0  0  0  0  0  0  0
    0.0142   -0.7800    1.1506 H   0  0  0  0  0  0  0  0  0  0  0  0
    0.0816   -0.5059   -0.9788 C   0  0  0  0  0  0  0  0  0  0  0  0
   -0.5965   -0.1704   -1.7664 H   0  0  0  0  0  0  0  0  0  0  0  0
    0.9771    0.1164   -1.0122 H   0  0  0  0  0  0  0  0  0  0  0  0
    0.4817   -1.9562   -1.2730 C   0  0  0  0  0  0  0  0  0  0  0  0
   -0.4108   -2.5813   -1.2675 H   0  0  0  0  0  0  0  0  0  0  0  0
    0.9348   -2.0005   -2.2640 H   0  0  0  0  0  0  0  0  0  0  0  0
    1.6555   -2.6423   -0.0766 S   0  0  0  0  0  0  0  0  0  0  0  0
    3.1243   -1.6653   -0.4888 C   0  0  0  0  0  0  0  0  0  0  0  0
    2.9149   -0.6057   -0.3394 H   0  0  0  0  0  0  0  0  0  0  0  0
    3.9496   -1.9629    0.1587 H   0  0  0  0  0  0  0  0  0  0  0  0
    3.4028   -1.8404   -1.5283 H   0  0  0  0  0  0  0  0  0  0  0  0
   -0.8064    1.1568    0.7414 C   0  0  0  0  0  0  0  0  0  0  0  0
   -0.0704    1.6924    1.5676 O   0  0  0  0  0  0  0  0  0  0  0  0
   -1.7995    1.8141    0.1288 N   0  0  0  0  0  0  0  0  0  0  0  0
   -2.3519    1.3126   -0.5483 H   0  0  0  0  0  0  0  0  0  0  0  0
   -2.1203    3.2196    0.3725 C   0  0  0  0  0  0  0  0  0  0  0  0
   -1.2450    3.8384    0.1616 H   0  0  0  0  0  0  0  0  0  0  0  0
   -2.9466    3.5370   -0.2648 H   0  0  0  0  0  0  0  0  0  0  0  0
   -2.3970    3.3579    1.4192 H   0  0  0  0  0  0  0  0  0  0  0  0
  5  6  2  0  0  0  0
  5  7  1  0  0  0  0
  2  3  1  0  0  0  0
  2  4  1  0  0  0  0
  2  5  1  0  0  0  0
  1  2  1  0  0  0  0
 22 23  2  0  0  0  0
 22 24  1  0  0  0  0
 18 19  1  0  0  0  0
 18 20  1  0  0  0  0
 18 21  1  0  0  0  0
 17 18  1  0  0  0  0
 14 15  1  0  0  0  0
 14 16  1  0  0  0  0
 14 17  1  0  0  0  0
 11 12  1  0  0  0  0
 11 13  1  0  0  0  0
 11 14  1  0  0  0  0
  9 10  1  0  0  0  0
  9 11  1  0  0  0  0
  9 22  1  0  0  0  0
  7  8  1  0  0  0  0
  7  9  1  0  0  0  0
 26 27  1  0  0  0  0
 26 28  1  0  0  0  0
 26 29  1  0  0  0  0
 24 25  1  0  0  0  0
 24 26  1  0  0  0  0
M  END
$$$$
default_name
  -OEChem-01062215323D

 29 28  0     1  0  0  0  0  0999 V2000
   -3.5781   -3.7296    1.2702 H   0  0  0  0  0  0  0  0  0  0  0  0
   -3.5311   -2.7616    0.7732 C   0  0  0  0  0  0  0  0  0  0  0  0
   -4.2371   -2.0766    1.2382 H   0  0  0  0  0  0  0  0  0  0  0  0
   -3.7681   -2.8816   -0.2818 H   0  0  0  0  0  0  0  0  0  0  0  0
   -2.1321   -2.2086    0.9112 C   0  0  0  0  0  0  0  0  0  0  0  0
   -1.2751   -2.8426    1.5112 O   0  0  0  0  0  0  0  0  0  0  0  0
   -1.9041   -1.0186    0.3602 N   0  0  0  0  0  0  0  0  0  0  0  0
   -2.6671   -0.5416   -0.0988 H   0  0  0  0  0  0  0  0  0  0  0  0
   -0.6131   -0.3236    0.3832 C   0  0  1  0  0  0  0  0  0  0  0  0
    0.0142   -0.7800    1.1506 H   0  0  0  0  0  0  0  0  0  0  0  0
    0.0816   -0.5059   -0.9788 C   0  0  0  0  0  0  0  0  0  0  0  0
   -0.5965   -0.1704   -1.7664 H   0  0  0  0  0  0  0  0  0  0  0  0
    0.9771    0.1164   -1.0122 H   0  0  0  0  0  0  0  0  0  0  0  0
    0.4817   -1.9562   -1.2730 C   0  0  0  0  0  0  0  0  0  0  0  0
   -0.4108   -2.5813   -1.2675 H   0  0  0  0  0  0  0  0  0  0  0  0
    0.9348   -2.0005   -2.2640 H   0  0  0  0  0  0  0  0  0  0  0  0
    1.6555   -2.6423   -0.0766 S   0  0  0  0  0  0  0  0  0  0  0  0
    3.1243   -1.6653   -0.4888 C   0  0  0  0  0  0  0  0  0  0  0  0
    2.9149   -0.6057   -0.3394 H   0  0  0  0  0  0  0  0  0  0  0  0
    3.9496   -1.9629    0.1587 H   0  0  0  0  0  0  0  0  0  0  0  0
    3.4028   -1.8404   -1.5283 H   0  0  0  0  0  0  0  0  0  0  0  0
   -0.8064    1.1568    0.7414 C   0  0  0  0  0  0  0  0  0  0  0  0
    0.0757    1.7658    1.3432 O   0  0  0  0  0  0  0  0  0  0  0  0
   -1.9609    1.7320    0.3809 N   0  0  0  0  0  0  0  0  0  0  0  0
   -2.6307    1.1734   -0.1234 H   0  0  0  0  0  0  0  0  0  0  0  0
   -2.3010    3.1259    0.6622 C   0  0  0  0  0  0  0  0  0  0  0  0
   -1.5474    3.7840    0.2233 H   0  0  0  0  0  0  0  0  0  0  0  0
   -3.2785    3.3704    0.2445 H   0  0  0  0  0  0  0  0  0  0  0  0
   -2.3172    3.2905    1.7410 H   0  0  0  0  0  0  0  0  0  0  0  0
  5  6  2  0  0  0  0
  5  7  1  0  0  0  0
  2  3  1  0  0  0  0
  2  4  1  0  0  0  0
  2  5  1  0  0  0  0
  1  2  1  0  0  0  0
 22 23  2  0  0  0  0
 22 24  1  0  0  0  0
 18 19  1  0  0  0  0
 18 20  1  0  0  0  0
 18 21  1  0  0  0  0
 17 18  1  0  0  0  0
 14 15  1  0  0  0  0
 14 16  1  0  0  0  0
 14 17  1  0  0  0  0
 11 12  1  0  0  0  0
 11 13  1  0  0  0  0
 11 14  1  0  0  0  0
  9 10  1  0  0  0  0
  9 11  1  0  0  0  0
  9 22  1  0  0  0  0
  7  8  1  0  0  0  0
  7  9  1  0  0  0  0
 26 27  1  0  0  0  0
 26 28  1  0  0  0  0
 26 29  1  0  0  0  0
 24 25  1  0  0  0  0
 24 26  1  0  0  0  0
M  END
$$$$
default_name
  -OEChem-01062215323D

 29 28  0     1  0  0  0  0  0999 V2000
   -3.5781   -3.7296    1.2702 H   0  0  0  0  0  0  0  0  0  0  0  0
   -3.5311   -2.7616    0.7732 C   0  0  0  0  0  0  0  0  0  0  0  0
   -4.2371   -2.0766    1.2382 H   0  0  0  0  0  0  0  0  0  0  0  0
   -3.7681   -2.8816   -0.2818 H   0  0  0  0  0  0  0  0  0  0  0  0
   -2.1321   -2.2086    0.9112 C   0  0  0  0  0  0  0  0  0  0  0  0
   -1.2751   -2.8426    1.5112 O   0  0  0  0  0  0  0  0  0  0  0  0
   -1.9041   -1.0186    0.3602 N   0  0  0  0  0  0  0  0  0  0  0  0
   -2.6671   -0.5416   -0.0988 H   0  0  0  0  0  0  0  0  0  0  0  0
   -0.6131   -0.3236    0.3832 C   0  0  1  0  0  0  0  0  0  0  0  0
    0.0142   -0.7800    1.1506 H   0  0  0  0  0  0  0  0  0  0  0  0
    0.0816   -0.5059   -0.9788 C   0  0  0  0  0  0  0  0  0  0  0  0
   -0.5965   -0.1704   -1.7664 H   0  0  0  0  0  0  0  0  0  0  0  0
    0.9771    0.1164   -1.0122 H   0  0  0  0  0  0  0  0  0  0  0  0
    0.4817   -1.9562   -1.2730 C   0  0  0  0  0  0  0  0  0  0  0  0
   -0.4108   -2.5813   -1.2675 H   0  0  0  0  0  0  0  0  0  0  0  0
    0.9348   -2.0005   -2.2640 H   0  0  0  0  0  0  0  0  0  0  0  0
    1.6555   -2.6423   -0.0766 S   0  0  0  0  0  0  0  0  0  0  0  0
    3.1243   -1.6653   -0.4888 C   0  0  0  0  0  0  0  0  0  0  0  0
    2.9149   -0.6057   -0.3394 H   0  0  0  0  0  0  0  0  0  0  0  0
    3.9496   -1.9629    0.1587 H   0  0  0  0  0  0  0  0  0  0  0  0
    3.4028   -1.8404   -1.5283 H   0  0  0  0  0  0  0  0  0  0  0  0
   -0.8064    1.1568    0.7414 C   0  0  0  0  0  0  0  0  0  0  0  0
    0.1564    1.8382    1.0876 O   0  0  0  0  0  0  0  0  0  0  0  0
   -2.0489    1.6511    0.6675 N   0  0  0  0  0  0  0  0  0  0  0  0
   -2.7856    1.0359    0.3611 H   0  0  0  0  0  0  0  0  0  0  0  0
   -2.3977    3.0339    0.9901 C   0  0  0  0  0  0  0  0  0  0  0  0
   -1.8209    3.7152    0.3601 H   0  0  0  0  0  0  0  0  0  0  0  0
   -3.4620    3.2060    0.8247 H   0  0  0  0  0  0  0  0  0  0  0  0
   -2.1558    3.2407    2.0341 H   0  0  0  0  0  0  0  0  0  0  0  0
  5  6  2  0  0  0  0
  5  7  1  0  0  0  0
  2  3  1  0  0  0  0
  2  4  1  0  0  0  0
  2  5  1  0  0  0  0
  1  2  1  0  0  0  0
 22 23  2  0  0  0  0
 22 24  1  0  0  0  0
 18 19  1  0  0  0  0
 18 20  1  0  0  0  0
 18 21  1  0  0  0  0
 17 18  1  0  0  0  0
 14 15  1  0  0  0  0
 14 16  1  0  0  0  0
 14 17  1  0  0  0  0
 11 12  1  0  0  0  0
 11 13  1  0  0  0  0
 11 14  1  0  0  0  0
  9 10  1  0  0  0  0
  9 11  1  0  0  0  0
  9 22  1  0  0  0  0
  7  8  1  0  0  0  0
  7  9  1  0  0  0  0
 26 27  1  0  0  0  0
 26 28  1  0  0  0  0
 26 29  1  0  0  0  0
 24 25  1  0  0  0  0
 24 26  1  0  0  0  0
M  END
$$$$
default_name
  -OEChem-01062215323D

 29 28  0     1  0  0  0  0  0999 V2000
   -3.5781   -3.7296    1.2702 H   0  0  0  0  0  0  0  0  0  0  0  0
   -3.5311   -2.7616    0.7732 C   0  0  0  0  0  0  0  0  0  0  0  0
   -4.2371   -2.0766    1.2382 H   0  0  0  0  0  0  0  0  0  0  0  0
   -3.7681   -2.8816   -0.2818 H   0  0  0  0  0  0  0  0  0  0  0  0
   -2.1321   -2.2086    0.9112 C   0  0  0  0  0  0  0  0  0  0  0  0
   -1.2751   -2.8426    1.5112 O   0  0  0  0  0  0  0  0  0  0  0  0
   -1.9041   -1.0186    0.3602 N   0  0  0  0  0  0  0  0  0  0  0  0
   -2.6671   -0.5416   -0.0988 H   0  0  0  0  0  0  0  0  0  0  0  0
   -0.6131   -0.3236    0.3832 C   0  0  1  0  0  0  0  0  0  0  0  0
    0.0142   -0.7800    1.1506 H   0  0  0  0  0  0  0  0  0  0  0  0
    0.0816   -0.5059   -0.9788 C   0  0  0  0  0  0  0  0  0  0  0  0
   -0.5965   -0.1704   -1.7664 H   0  0  0  0  0  0  0  0  0  0  0  0
    0.9771    0.1164   -1.0122 H   0  0  0  0  0  0  0  0  0  0  0  0
    0.4817   -1.9562   -1.2730 C   0  0  0  0  0  0  0  0  0  0  0  0
   -0.4108   -2.5813   -1.2675 H   0  0  0  0  0  0  0  0  0  0  0  0
    0.9348   -2.0005   -2.2640 H   0  0  0  0  0  0  0  0  0  0  0  0
    1.6555   -2.6423   -0.0766 S   0  0  0  0  0  0  0  0  0  0  0  0
    3.1243   -1.6653   -0.4888 C   0  0  0  0  0  0  0  0  0  0  0  0
    2.9149   -0.6057   -0.3394 H   0  0  0  0  0  0  0  0  0  0  0  0
    3.9496   -1.9629    0.1587 H   0  0  0  0  0  0  0  0  0  0  0  0
    3.4028   -1.8404   -1.5283 H   0  0  0  0  0  0  0  0  0  0  0  0
   -0.8064    1.1568    0.7414 C   0  0  0  0  0  0  0  0  0  0  0  0
    0.1662    1.9046    0.8182 O   0  0  0  0  0  0  0  0  0  0  0  0
   -2.0575    1.5771    0.9688 N   0  0  0  0  0  0  0  0  0  0  0  0
   -2.8059    0.9095    0.8722 H   0  0  0  0  0  0  0  0  0  0  0  0
   -2.4036    2.9499    1.3340 C   0  0  0  0  0  0  0  0  0  0  0  0
   -2.0467    3.6366    0.5628 H   0  0  0  0  0  0  0  0  0  0  0  0
   -3.4845    3.0551    1.4363 H   0  0  0  0  0  0  0  0  0  0  0  0
   -1.9237    3.2118    2.2786 H   0  0  0  0  0  0  0  0  0  0  0  0
  5  6  2  0  0  0  0
  5  7  1  0  0  0  0
  2  3  1  0  0  0  0
  2  4  1  0  0  0  0
  2  5  1  0  0  0  0
  1  2  1  0  0  0  0
 22 23  2  0  0  0  0
 22 24  1  0  0  0  0
 18 19  1  0  0  0  0
 18 20  1  0  0  0  0
 18 21  1  0  0  0  0
 17 18  1  0  0  0  0
 14 15  1  0  0  0  0
 14 16  1  0  0  0  0
 14 17  1  0  0  0  0
 11 12  1  0  0  0  0
 11 13  1  0  0  0  0
 11 14  1  0  0  0  0
  9 10  1  0  0  0  0
  9 11  1  0  0  0  0
  9 22  1  0  0  0  0
  7  8  1  0  0  0  0
  7  9  1  0  0  0  0
 26 27  1  0  0  0  0
 26 28  1  0  0  0  0
 26 29  1  0  0  0  0
 24 25  1  0  0  0  0
 24 26  1  0  0  0  0
M  END
$$$$
default_name
  -OEChem-01062215323D

 29 28  0     1  0  0  0  0  0999 V2000
   -3.5781   -3.7296    1.2702 H   0  0  0  0  0  0  0  0  0  0  0  0
   -3.5311   -2.7616    0.7732 C   0  0  0  0  0  0  0  0  0  0  0  0
   -4.2371   -2.0766    1.2382 H   0  0  0  0  0  0  0  0  0  0  0  0
   -3.7681   -2.8816   -0.2818 H   0  0  0  0  0  0  0  0  0  0  0  0
   -2.1321   -2.2086    0.9112 C   0  0  0  0  0  0  0  0  0  0  0  0
   -1.2751   -2.8426    1.5112 O   0  0  0  0  0  0  0  0  0  0  0  0
   -1.9041   -1.0186    0.3602 N   0  0  0  0  0  0  0  0  0  0  0  0
   -2.6671   -0.5416   -0.0988 H   0  0  0  0  0  0  0  0  0  0  0  0
   -0.6131   -0.3236    0.3832 C   0  0  1  0  0  0  0  0  0  0  0  0
    0.0142   -0.7800    1.1506 H   0  0  0  0  0  0  0  0  0  0  0  0
    0.0816   -0.5059   -0.9788 C   0  0  0  0  0  0  0  0  0  0  0  0
   -0.5965   -0.1704   -1.7664 H   0  0  0  0  0  0  0  0  0  0  0  0
    0.9771    0.1164   -1.0122 H   0  0  0  0  0  0  0  0  0  0  0  0
    0.4817   -1.9562   -1.2730 C   0  0  0  0  0  0  0  0  0  0  0  0
   -0.4108   -2.5813   -1.2675 H   0  0  0  0  0  0  0  0  0  0  0  0
    0.9348   -2.0005   -2.2640 H   0  0  0  0  0  0  0  0  0  0  0  0
    1.6555   -2.6423   -0.0766 S   0  0  0  0  0  0  0  0  0  0  0  0
    3.1243   -1.6653   -0.4888 C   0  0  0  0  0  0  0  0  0  0  0  0
    2.9149   -0.6057   -0.3394 H   0  0  0  0  0  0  0  0  0  0  0  0
    3.9496   -1.9629    0.1587 H   0  0  0  0  0  0  0  0  0  0  0  0
    3.4028   -1.8404   -1.5283 H   0  0  0  0  0  0  0  0  0  0  0  0
   -0.8064    1.1568    0.7414 C   0  0  0  0  0  0  0  0  0  0  0  0
    0.1044    1.9607    0.5534 O   0  0  0  0  0  0  0  0  0  0  0  0
   -1.9861    1.5149    1.2645 N   0  0  0  0  0  0  0  0  0  0  0  0
   -2.6904    0.8029    1.3752 H   0  0  0  0  0  0  0  0  0  0  0  0
   -2.3185    2.8796    1.6704 C   0  0  0  0  0  0  0  0  0  0  0  0
   -2.2096    3.5537    0.8175 H   0  0  0  0  0  0  0  0  0  0  0  0
   -3.3445    2.9279    2.0376 H   0  0  0  0  0  0  0  0  0  0  0  0
   -1.6368    3.2059    2.4578 H   0  0  0  0  0  0  0  0  0  0  0  0
  5  6  2  0  0  0  0
  5  7  1  0  0  0  0
  2  3  1  0  0  0  0
  2  4  1  0  0  0  0
  2  5  1  0  0  0  0
  1  2  1  0  0  0  0
 22 23  2  0  0  0  0
 22 24  1  0  0  0  0
 18 19  1  0  0  0  0
 18 20  1  0  0  0  0
 18 21  1  0  0  0  0
 17 18  1  0  0  0  0
 14 15  1  0  0  0  0
 14 16  1  0  0  0  0
 14 17  1  0  0  0  0
 11 12  1  0  0  0  0
 11 13  1  0  0  0  0
 11 14  1  0  0  0  0
  9 10  1  0  0  0  0
  9 11  1  0  0  0  0
  9 22  1  0  0  0  0
  7  8  1  0  0  0  0
  7  9  1  0  0  0  0
 26 27  1  0  0  0  0
 26 28  1  0  0  0  0
 26 29  1  0  0  0  0
 24 25  1  0  0  0  0
 24 26  1  0  0  0  0
M  END
$$$$
default_name
  -OEChem-01062215323D

 29 28  0     1  0  0  0  0  0999 V2000
   -3.5781   -3.7296    1.2702 H   0  0  0  0  0  0  0  0  0  0  0  0
   -3.5311   -2.7616    0.7732 C   0  0  0  0  0  0  0  0  0  0  0  0
   -4.2371   -2.0766    1.2382 H   0  0  0  0  0  0  0  0  0  0  0  0
   -3.7681   -2.8816   -0.2818 H   0  0  0  0  0  0  0  0  0  0  0  0
   -2.1321   -2.2086    0.9112 C   0  0  0  0  0  0  0  0  0  0  0  0
   -1.2751   -2.8426    1.5112 O   0  0  0  0  0  0  0  0  0  0  0  0
   -1.9041   -1.0186    0.3602 N   0  0  0  0  0  0  0  0  0  0  0  0
   -2.6671   -0.5416   -0.0988 H   0  0  0  0  0  0  0  0  0  0  0  0
   -0.6131   -0.3236    0.3832 C   0  0  1  0  0  0  0  0  0  0  0  0
    0.0142   -0.7800    1.1506 H   0  0  0  0  0  0  0  0  0  0  0  0
    0.0816   -0.5059   -0.9788 C   0  0  0  0  0  0  0  0  0  0  0  0
   -0.5965   -0.1704   -1.7664 H   0  0  0  0  0  0  0  0  0  0  0  0
    0.9771    0.1164   -1.0122 H   0  0  0  0  0  0  0  0  0  0  0  0
    0.4817   -1.9562   -1.2730 C   0  0  0  0  0  0  0  0  0  0  0  0
   -0.4108   -2.5813   -1.2675 H   0  0  0  0  0  0  0  0  0  0  0  0
    0.9348   -2.0005   -2.2640 H   0  0  0  0  0  0  0  0  0  0  0  0
    1.6555   -2.6423   -0.0766 S   0  0  0  0  0  0  0  0  0  0  0  0
    3.1243   -1.6653   -0.4888 C   0  0  0  0  0  0  0  0  0  0  0  0
    2.9149   -0.6057   -0.3394 H   0  0  0  0  0  0  0  0  0  0  0  0
    3.9496   -1.9629    0.1587 H   0  0  0  0  0  0  0  0  0  0  0  0
    3.4028   -1.8404   -1.5283 H   0  0  0  0  0  0  0  0  0  0  0  0
   -0.8064    1.1568    0.7414 C   0  0  0  0  0  0  0  0  0  0  0  0
   -0.0247    2.0024    0.3112 O   0  0  0  0  0  0  0  0  0  0  0  0
   -1.8397    1.4687    1.5343 N   0  0  0  0  0  0  0  0  0  0  0  0
   -2.4469    0.7233    1.8356 H   0  0  0  0  0  0  0  0  0  0  0  0
   -2.1481    2.8278    1.9763 C   0  0  0  0  0  0  0  0  0  0  0  0
   -2.2983    3.4721    1.1068 H   0  0  0  0  0  0  0  0  0  0  0  0
   -3.0515    2.8330    2.5876 H   0  0  0  0  0  0  0  0  0  0  0  0
   -1.3145    3.2234    2.5594 H   0  0  0  0  0  0  0  0  0  0  0  0
  5  6  2  0  0  0  0
  5  7  1  0  0  0  0
  2  3  1  0  0  0  0
  2  4  1  0  0  0  0
  2  5  1  0  0  0  0
  1  2  1  0  0  0  0
 22 23  2  0  0  0  0
 22 24  1  0  0  0  0
 18 19  1  0  0  0  0
 18 20  1  0  0  0  0
 18 21  1  0  0  0  0
 17 18  1  0  0  0  0
 14 15  1  0  0  0  0
 14 16  1  0  0  0  0
 14 17  1  0  0  0  0
 11 12  1  0  0  0  0
 11 13  1  0  0  0  0
 11 14  1  0  0  0  0
  9 10  1  0  0  0  0
  9 11  1  0  0  0  0
  9 22  1  0  0  0  0
  7  8  1  0  0  0  0
  7  9  1  0  0  0  0
 26 27  1  0  0  0  0
 26 28  1  0  0  0  0
 26 29  1  0  0  0  0
 24 25  1  0  0  0  0
 24 26  1  0  0  0  0
M  END
$$$$
default_name
  -OEChem-01062215323D

 29 28  0     1  0  0  0  0  0999 V2000
   -3.5781   -3.7296    1.2702 H   0  0  0  0  0  0  0  0  0  0  0  0
   -3.5311   -2.7616    0.7732 C   0  0  0  0  0  0  0  0  0  0  0  0
   -4.2371   -2.0766    1.2382 H   0  0  0  0  0  0  0  0  0  0  0  0
   -3.7681   -2.8816   -0.2818 H   0  0  0  0  0  0  0  0  0  0  0  0
   -2.1321   -2.2086    0.9112 C   0  0  0  0  0  0  0  0  0  0  0  0
   -1.2751   -2.8426    1.5112 O   0  0  0  0  0  0  0  0  0  0  0  0
   -1.9041   -1.0186    0.3602 N   0  0  0  0  0  0  0  0  0  0  0  0
   -2.6671   -0.5416   -0.0988 H   0  0  0  0  0  0  0  0  0  0  0  0
   -0.6131   -0.3236    0.3832 C   0  0  1  0  0  0  0  0  0  0  0  0
    0.0142   -0.7800    1.1506 H   0  0  0  0  0  0  0  0  0  0  0  0
    0.0816   -0.5059   -0.9788 C   0  0  0  0  0  0  0  0  0  0  0  0
   -0.5965   -0.1704   -1.7664 H   0  0  0  0  0  0  0  0  0  0  0  0
    0.9771    0.1164   -1.0122 H   0  0  0  0  0  0  0  0  0  0  0  0
    0.4817   -1.9562   -1.2730 C   0  0  0  0  0  0  0  0  0  0  0  0
   -0.4108   -2.5813   -1.2675 H   0  0  0  0  0  0  0  0  0  0  0  0
    0.9348   -2.0005   -2.2640 H   0  0  0  0  0  0  0  0  0  0  0  0
    1.6555   -2.6423   -0.0766 S   0  0  0  0  0  0  0  0  0  0  0  0
    3.1243   -1.6653   -0.4888 C   0  0  0  0  0  0  0  0  0  0  0  0
    2.9149   -0.6057   -0.3394 H   0  0  0  0  0  0  0  0  0  0  0  0
    3.9496   -1.9629    0.1587 H   0  0  0  0  0  0  0  0  0  0  0  0
    3.4028   -1.8404   -1.5283 H   0  0  0  0  0  0  0  0  0  0  0  0
   -0.8064    1.1568    0.7414 C   0  0  0  0  0  0  0  0  0  0  0  0
   -0.2125    2.0270    0.1081 O   0  0  0  0  0  0  0  0  0  0  0  0
   -1.6281    1.4418    1.7598 N   0  0  0  0  0  0  0  0  0  0  0  0
   -2.0920    0.6761    2.2222 H   0  0  0  0  0  0  0  0  0  0  0  0
   -1.9040    2.7981    2.2310 C   0  0  0  0  0  0  0  0  0  0  0  0
   -2.3068    3.3974    1.4111 H   0  0  0  0  0  0  0  0  0  0  0  0
   -2.6255    2.7771    3.0488 H   0  0  0  0  0  0  0  0  0  0  0  0
   -0.9790    3.2631    2.5766 H   0  0  0  0  0  0  0  0  0  0  0  0
  5  6  2  0  0  0  0
  5  7  1  0  0  0  0
  2  3  1  0  0  0  0
  2  4  1  0  0  0  0
  2  5  1  0  0  0  0
  1  2  1  0  0  0  0
 22 23  2  0  0  0  0
 22 24  1  0  0  0  0
 18 19  1  0  0  0  0
 18 20  1  0  0  0  0
 18 21  1  0  0  0  0
 17 18  1  0  0  0  0
 14 15  1  0  0  0  0
 14 16  1  0  0  0  0
 14 17  1  0  0  0  0
 11 12  1  0  0  0  0
 11 13  1  0  0  0  0
 11 14  1  0  0  0  0
  9 10  1  0  0  0  0
  9 11  1  0  0  0  0
  9 22  1  0  0  0  0
  7  8  1  0  0  0  0
  7  9  1  0  0  0  0
 26 27  1  0  0  0  0
 26 28  1  0  0  0  0
 26 29  1  0  0  0  0
 24 25  1  0  0  0  0
 24 26  1  0  0  0  0
M  END
$$$$
default_name
  -OEChem-01062215323D

 29 28  0     1  0  0  0  0  0999 V2000
   -3.5781   -3.7296    1.2702 H   0  0  0  0  0  0  0  0  0  0  0  0
   -3.5311   -2.7616    0.7732 C   0  0  0  0  0  0  0  0  0  0  0  0
   -4.2371   -2.0766    1.2382 H   0  0  0  0  0  0  0  0  0  0  0  0
   -3.7681   -2.8816   -0.2818 H   0  0  0  0  0  0  0  0  0  0  0  0
   -2.1321   -2.2086    0.9112 C   0  0  0  0  0  0  0  0  0  0  0  0
   -1.2751   -2.8426    1.5112 O   0  0  0  0  0  0  0  0  0  0  0  0
   -1.9041   -1.0186    0.3602 N   0  0  0  0  0  0  0  0  0  0  0  0
   -2.6671   -0.5416   -0.0988 H   0  0  0  0  0  0  0  0  0  0  0  0
   -0.6131   -0.3236    0.3832 C   0  0  1  0  0  0  0  0  0  0  0  0
    0.0142   -0.7800    1.1506 H   0  0  0  0  0  0  0  0  0  0  0  0
    0.0816   -0.5059   -0.9788 C   0  0  0  0  0  0  0  0  0  0  0  0
   -0.5965   -0.1704   -1.7664 H   0  0  0  0  0  0  0  0  0  0  0  0
    0.9771    0.1164   -1.0122 H   0  0  0  0  0  0  0  0  0  0  0  0
    0.4817   -1.9562   -1.2730 C   0  0  0  0  0  0  0  0  0  0  0  0
   -0.4108   -2.5813   -1.2675 H   0  0  0  0  0  0  0  0  0  0  0  0
    0.9348   -2.0005   -2.2640 H   0  0  0  0  0  0  0  0  0  0  0  0
    1.6555   -2.6423   -0.0766 S   0  0  0  0  0  0  0  0  0  0  0  0
    3.1243   -1.6653   -0.4888 C   0  0  0  0  0  0  0  0  0  0  0  0
    2.9149   -0.6057   -0.3394 H   0  0  0  0  0  0  0  0  0  0  0  0
    3.9496   -1.9629    0.1587 H   0  0  0  0  0  0  0  0  0  0  0  0
    3.4028   -1.8404   -1.5283 H   0  0  0  0  0  0  0  0  0  0  0  0
   -0.8064    1.1568    0.7414 C   0  0  0  0  0  0  0  0  0  0  0  0
   -0.4459    2.0328   -0.0420 O   0  0  0  0  0  0  0  0  0  0  0  0
   -1.3658    1.4359    1.9258 N   0  0  0  0  0  0  0  0  0  0  0  0
   -1.6498    0.6646    2.5086 H   0  0  0  0  0  0  0  0  0  0  0  0
   -1.6028    2.7924    2.4171 C   0  0  0  0  0  0  0  0  0  0  0  0
   -2.2346    3.3346    1.7096 H   0  0  0  0  0  0  0  0  0  0  0  0
   -2.0955    2.7638    3.3898 H   0  0  0  0  0  0  0  0  0  0  0  0
   -0.6530    3.3222    2.5082 H   0  0  0  0  0  0  0  0  0  0  0  0
  5  6  2  0  0  0  0
  5  7  1  0  0  0  0
  2  3  1  0  0  0  0
  2  4  1  0  0  0  0
  2  5  1  0  0  0  0
  1  2  1  0  0  0  0
 22 23  2  0  0  0  0
 22 24  1  0  0  0  0
 18 19  1  0  0  0  0
 18 20  1  0  0  0  0
 18 21  1  0  0  0  0
 17 18  1  0  0  0  0
 14 15  1  0  0  0  0
 14 16  1  0  0  0  0
 14 17  1  0  0  0  0
 11 12  1  0  0  0  0
 11 13  1  0  0  0  0
 11 14  1  0  0  0  0
  9 10  1  0  0  0  0
  9 11  1  0  0  0  0
  9 22  1  0  0  0  0
  7  8  1  0  0  0  0
  7  9  1  0  0  0  0
 26 27  1  0  0  0  0
 26 28  1  0  0  0  0
 26 29  1  0  0  0  0
 24 25  1  0  0  0  0
 24 26  1  0  0  0  0
M  END
$$$$
default_name
  -OEChem-01062215323D

 29 28  0     1  0  0  0  0  0999 V2000
   -3.5781   -3.7296    1.2702 H   0  0  0  0  0  0  0  0  0  0  0  0
   -3.5311   -2.7616    0.7732 C   0  0  0  0  0  0  0  0  0  0  0  0
   -4.2371   -2.0766    1.2382 H   0  0  0  0  0  0  0  0  0  0  0  0
   -3.7681   -2.8816   -0.2818 H   0  0  0  0  0  0  0  0  0  0  0  0
   -2.1321   -2.2086    0.9112 C   0  0  0  0  0  0  0  0  0  0  0  0
   -1.2751   -2.8426    1.5112 O   0  0  0  0  0  0  0  0  0  0  0  0
   -1.9041   -1.0186    0.3602 N   0  0  0  0  0  0  0  0  0  0  0  0
   -2.6671   -0.5416   -0.0988 H   0  0  0  0  0  0  0  0  0  0  0  0
   -0.6131   -0.3236    0.3832 C   0  0  1  0  0  0  0  0  0  0  0  0
    0.0142   -0.7800    1.1506 H   0  0  0  0  0  0  0  0  0  0  0  0
    0.0816   -0.5059   -0.9788 C   0  0  0  0  0  0  0  0  0  0  0  0
   -0.5965   -0.1704   -1.7664 H   0  0  0  0  0  0  0  0  0  0  0  0
    0.9771    0.1164   -1.0122 H   0  0  0  0  0  0  0  0  0  0  0  0
    0.4817   -1.9562   -1.2730 C   0  0  0  0  0  0  0  0  0  0  0  0
   -0.4108   -2.5813   -1.2675 H   0  0  0  0  0  0  0  0  0  0  0  0
    0.9348   -2.0005   -2.2640 H   0  0  0  0  0  0  0  0  0  0  0  0
    1.6555   -2.6423   -0.0766 S   0  0  0  0  0  0  0  0  0  0  0  0
    3.1243   -1.6653   -0.4888 C   0  0  0  0  0  0  0  0  0  0  0  0
    2.9149   -0.6057   -0.3394 H   0  0  0  0  0  0  0  0  0  0  0  0
    3.9496   -1.9629    0.1587 H   0  0  0  0  0  0  0  0  0  0  0  0
    3.4028   -1.8404   -1.5283 H   0  0  0  0  0  0  0  0  0  0  0  0
   -0.8064    1.1568    0.7414 C   0  0  0  0  0  0  0  0  0  0  0  0
   -0.7093    2.0195   -0.1289 O   0  0  0  0  0  0  0  0  0  0  0  0
   -1.0707    1.4514    2.0208 N   0  0  0  0  0  0  0  0  0  0  0  0
   -1.1505    0.6895    2.6752 H   0  0  0  0  0  0  0  0  0  0  0  0
   -1.2652    2.8111    2.5219 C   0  0  0  0  0  0  0  0  0  0  0  0
   -2.0866    3.2880    1.9820 H   0  0  0  0  0  0  0  0  0  0  0  0
   -1.4977    2.7941    3.5874 H   0  0  0  0  0  0  0  0  0  0  0  0
   -0.3587    3.3968    2.3589 H   0  0  0  0  0  0  0  0  0  0  0  0
  5  6  2  0  0  0  0
  5  7  1  0  0  0  0
  2  3  1  0  0  0  0
  2  4  1  0  0  0  0
  2  5  1  0  0  0  0
  1  2  1  0  0  0  0
 22 23  2  0  0  0  0
 22 24  1  0  0  0  0
 18 19  1  0  0  0  0
 18 20  1  0  0  0  0
 18 21  1  0  0  0  0
 17 18  1  0  0  0  0
 14 15  1  0  0  0  0
 14 16  1  0  0  0  0
 14 17  1  0  0  0  0
 11 12  1  0  0  0  0
 11 13  1  0  0  0  0
 11 14  1  0  0  0  0
  9 10  1  0  0  0  0
  9 11  1  0  0  0  0
  9 22  1  0  0  0  0
  7  8  1  0  0  0  0
  7  9  1  0  0  0  0
 26 27  1  0  0  0  0
 26 28  1  0  0  0  0
 26 29  1  0  0  0  0
 24 25  1  0  0  0  0
 24 26  1  0  0  0  0
M  END
$$$$
default_name
  -OEChem-01062215323D

 29 28  0     1  0  0  0  0  0999 V2000
   -3.5781   -3.7296    1.2702 H   0  0  0  0  0  0  0  0  0  0  0  0
   -3.5311   -2.7616    0.7732 C   0  0  0  0  0  0  0  0  0  0  0  0
   -4.2371   -2.0766    1.2382 H   0  0  0  0  0  0  0  0  0  0  0  0
   -3.7681   -2.8816   -0.2818 H   0  0  0  0  0  0  0  0  0  0  0  0
   -2.1321   -2.2086    0.9112 C   0  0  0  0  0  0  0  0  0  0  0  0
   -1.2751   -2.8426    1.5112 O   0  0  0  0  0  0  0  0  0  0  0  0
   -1.9041   -1.0186    0.3602 N   0  0  0  0  0  0  0  0  0  0  0  0
   -2.6671   -0.5416   -0.0988 H   0  0  0  0  0  0  0  0  0  0  0  0
   -0.6131   -0.3236    0.3832 C   0  0  1  0  0  0  0  0  0  0  0  0
    0.0142   -0.7800    1.1506 H   0  0  0  0  0  0  0  0  0  0  0  0
    0.0816   -0.5059   -0.9788 C   0  0  0  0  0  0  0  0  0  0  0  0
   -0.5965   -0.1704   -1.7664 H   0  0  0  0  0  0  0  0  0  0  0  0
    0.9771    0.1164   -1.0122 H   0  0  0  0  0  0  0  0  0  0  0  0
    0.4817   -1.9562   -1.2730 C   0  0  0  0  0  0  0  0  0  0  0  0
   -0.4108   -2.5813   -1.2675 H   0  0  0  0  0  0  0  0  0  0  0  0
    0.9348   -2.0005   -2.2640 H   0  0  0  0  0  0  0  0  0  0  0  0
    1.6555   -2.6423   -0.0766 S   0  0  0  0  0  0  0  0  0  0  0  0
    3.1243   -1.6653   -0.4888 C   0  0  0  0  0  0  0  0  0  0  0  0
    2.9149   -0.6057   -0.3394 H   0  0  0  0  0  0  0  0  0  0  0  0
    3.9496   -1.9629    0.1587 H   0  0  0  0  0  0  0  0  0  0  0  0
    3.4028   -1.8404   -1.5283 H   0  0  0  0  0  0  0  0  0  0  0  0
   -0.8064    1.1568    0.7414 C   0  0  0  0  0  0  0  0  0  0  0  0
   -0.9846    1.9878   -0.1468 O   0  0  0  0  0  0  0  0  0  0  0  0
   -0.7628    1.4874    2.0385 N   0  0  0  0  0  0  0  0  0  0  0  0
   -0.6282    0.7491    2.7108 H   0  0  0  0  0  0  0  0  0  0  0  0
   -0.9140    2.8531    2.5382 C   0  0  0  0  0  0  0  0  0  0  0  0
   -1.8729    3.2608    2.2096 H   0  0  0  0  0  0  0  0  0  0  0  0
   -0.8728    2.8658    3.6281 H   0  0  0  0  0  0  0  0  0  0  0  0
   -0.1162    3.4818    2.1387 H   0  0  0  0  0  0  0  0  0  0  0  0
  5  6  2  0  0  0  0
  5  7  1  0  0  0  0
  2  3  1  0  0  0  0
  2  4  1  0  0  0  0
  2  5  1  0  0  0  0
  1  2  1  0  0  0  0
 22 23  2  0  0  0  0
 22 24  1  0  0  0  0
 18 19  1  0  0  0  0
 18 20  1  0  0  0  0
 18 21  1  0  0  0  0
 17 18  1  0  0  0  0
 14 15  1  0  0  0  0
 14 16  1  0  0  0  0
 14 17  1  0  0  0  0
 11 12  1  0  0  0  0
 11 13  1  0  0  0  0
 11 14  1  0  0  0  0
  9 10  1  0  0  0  0
  9 11  1  0  0  0  0
  9 22  1  0  0  0  0
  7  8  1  0  0  0  0
  7  9  1  0  0  0  0
 26 27  1  0  0  0  0
 26 28  1  0  0  0  0
 26 29  1  0  0  0  0
 24 25  1  0  0  0  0
 24 26  1  0  0  0  0
M  END
$$$$
default_name
  -OEChem-01062215323D

 29 28  0     1  0  0  0  0  0999 V2000
   -3.5781   -3.7296    1.2702 H   0  0  0  0  0  0  0  0  0  0  0  0
   -3.5311   -2.7616    0.7732 C   0  0  0  0  0  0  0  0  0  0  0  0
   -4.2371   -2.0766    1.2382 H   0  0  0  0  0  0  0  0  0  0  0  0
   -3.7681   -2.8816   -0.2818 H   0  0  0  0  0  0  0  0  0  0  0  0
   -2.1321   -2.2086    0.9112 C   0  0  0  0  0  0  0  0  0  0  0  0
   -1.2751   -2.8426    1.5112 O   0  0  0  0  0  0  0  0  0  0  0  0
   -1.9041   -1.0186    0.3602 N   0  0  0  0  0  0  0  0  0  0  0  0
   -2.6671   -0.5416   -0.0988 H   0  0  0  0  0  0  0  0  0  0  0  0
   -0.6131   -0.3236    0.3832 C   0  0  1  0  0  0  0  0  0  0  0  0
    0.0142   -0.7800    1.1506 H   0  0  0  0  0  0  0  0  0  0  0  0
    0.0816   -0.5059   -0.9788 C   0  0  0  0  0  0  0  0  0  0  0  0
   -0.5965   -0.1704   -1.7664 H   0  0  0  0  0  0  0  0  0  0  0  0
    0.9771    0.1164   -1.0122 H   0  0  0  0  0  0  0  0  0  0  0  0
    0.4817   -1.9562   -1.2730 C   0  0  0  0  0  0  0  0  0  0  0  0
   -0.4108   -2.5813   -1.2675 H   0  0  0  0  0  0  0  0  0  0  0  0
    0.9348   -2.0005   -2.2640 H   0  0  0  0  0  0  0  0  0  0  0  0
    1.6555   -2.6423   -0.0766 S   0  0  0  0  0  0  0  0  0  0  0  0
    3.1243   -1.6653   -0.4888 C   0  0  0  0  0  0  0  0  0  0  0  0
    2.9149   -0.6057   -0.3394 H   0  0  0  0  0  0  0  0  0  0  0  0
    3.9496   -1.9629    0.1587 H   0  0  0  0  0  0  0  0  0  0  0  0
    3.4028   -1.8404   -1.5283 H   0  0  0  0  0  0  0  0  0  0  0  0
   -0.8064    1.1568    0.7414 C   0  0  0  0  0  0  0  0  0  0  0  0
   -1.2530    1.9401   -0.0942 O   0  0  0  0  0  0  0  0  0  0  0  0
   -0.4633    1.5412    1.9775 N   0  0  0  0  0  0  0  0  0  0  0  0
   -0.1184    0.8394    2.6128 H   0  0  0  0  0  0  0  0  0  0  0  0
   -0.5733    2.9153    2.4649 C   0  0  0  0  0  0  0  0  0  0  0  0
   -1.6080    3.2549    2.3770 H   0  0  0  0  0  0  0  0  0  0  0  0
   -0.2634    2.9742    3.5091 H   0  0  0  0  0  0  0  0  0  0  0  0
    0.0579    3.5713    1.8628 H   0  0  0  0  0  0  0  0  0  0  0  0
  5  6  2  0  0  0  0
  5  7  1  0  0  0  0
  2  3  1  0  0  0  0
  2  4  1  0  0  0  0
  2  5  1  0  0  0  0
  1  2  1  0  0  0  0
 22 23  2  0  0  0  0
 22 24  1  0  0  0  0
 18 19  1  0  0  0  0
 18 20  1  0  0  0  0
 18 21  1  0  0  0  0
 17 18  1  0  0  0  0
 14 15  1  0  0  0  0
 14 16  1  0  0  0  0
 14 17  1  0  0  0  0
 11 12  1  0  0  0  0
 11 13  1  0  0  0  0
 11 14  1  0  0  0  0
  9 10  1  0  0  0  0
  9 11  1  0  0  0  0
  9 22  1  0  0  0  0
  7  8  1  0  0  0  0
  7  9  1  0  0  0  0
 26 27  1  0  0  0  0
 26 28  1  0  0  0  0
 26 29  1  0  0  0  0
 24 25  1  0  0  0  0
 24 26  1  0  0  0  0
M  END
$$$$
default_name
  -OEChem-01062215323D

 29 28  0     1  0  0  0  0  0999 V2000
   -3.5781   -3.7296    1.2702 H   0  0  0  0  0  0  0  0  0  0  0  0
   -3.5311   -2.7616    0.7732 C   0  0  0  0  0  0  0  0  0  0  0  0
   -4.2371   -2.0766    1.2382 H   0  0  0  0  0  0  0  0  0  0  0  0
   -3.7681   -2.8816   -0.2818 H   0  0  0  0  0  0  0  0  0  0  0  0
   -2.1321   -2.2086    0.9112 C   0  0  0  0  0  0  0  0  0  0  0  0
   -1.2751   -2.8426    1.5112 O   0  0  0  0  0  0  0  0  0  0  0  0
   -1.9041   -1.0186    0.3602 N   0  0  0  0  0  0  0  0  0  0  0  0
   -2.6671   -0.5416   -0.0988 H   0  0  0  0  0  0  0  0  0  0  0  0
   -0.6131   -0.3236    0.3832 C   0  0  1  0  0  0  0  0  0  0  0  0
    0.0142   -0.7800    1.1506 H   0  0  0  0  0  0  0  0  0  0  0  0
    0.0816   -0.5059   -0.9788 C   0  0  0  0  0  0  0  0  0  0  0  0
   -0.5965   -0.1704   -1.7664 H   0  0  0  0  0  0  0  0  0  0  0  0
    0.9771    0.1164   -1.0122 H   0  0  0  0  0  0  0  0  0  0  0  0
    0.4817   -1.9562   -1.2730 C   0  0  0  0  0  0  0  0  0  0  0  0
   -0.4108   -2.5813   -1.2675 H   0  0  0  0  0  0  0  0  0  0  0  0
    0.9348   -2.0005   -2.2640 H   0  0  0  0  0  0  0  0  0  0  0  0
    1.6555   -2.6423   -0.0766 S   0  0  0  0  0  0  0  0  0  0  0  0
    3.1243   -1.6653   -0.4888 C   0  0  0  0  0  0  0  0  0  0  0  0
    2.9149   -0.6057   -0.3394 H   0  0  0  0  0  0  0  0  0  0  0  0
    3.9496   -1.9629    0.1587 H   0  0  0  0  0  0  0  0  0  0  0  0
    3.4028   -1.8404   -1.5283 H   0  0  0  0  0  0  0  0  0  0  0  0
   -0.8064    1.1568    0.7414 C   0  0  0  0  0  0  0  0  0  0  0  0
   -1.4962    1.8794    0.0250 O   0  0  0  0  0  0  0  0  0  0  0  0
   -0.1923    1.6094    1.8421 N   0  0  0  0  0  0  0  0  0  0  0  0
    0.3442    0.9542    2.3880 H   0  0  0  0  0  0  0  0  0  0  0  0
   -0.2662    2.9936    2.3071 C   0  0  0  0  0  0  0  0  0  0  0  0
   -1.3099    3.2707    2.4729 H   0  0  0  0  0  0  0  0  0  0  0  0
    0.2890    3.1119    3.2386 H   0  0  0  0  0  0  0  0  0  0  0  0
    0.1518    3.6593    1.5499 H   0  0  0  0  0  0  0  0  0  0  0  0
  5  6  2  0  0  0  0
  5  7  1  0  0  0  0
  2  3  1  0  0  0  0
  2  4  1  0  0  0  0
  2  5  1  0  0  0  0
  1  2  1  0  0  0  0
 22 23  2  0  0  0  0
 22 24  1  0  0  0  0
 18 19  1  0  0  0  0
 18 20  1  0  0  0  0
 18 21  1  0  0  0  0
 17 18  1  0  0  0  0
 14 15  1  0  0  0  0
 14 16  1  0  0  0  0
 14 17  1  0  0  0  0
 11 12  1  0  0  0  0
 11 13  1  0  0  0  0
 11 14  1  0  0  0  0
  9 10  1  0  0  0  0
  9 11  1  0  0  0  0
  9 22  1  0  0  0  0
  7  8  1  0  0  0  0
  7  9  1  0  0  0  0
 26 27  1  0  0  0  0
 26 28  1  0  0  0  0
 26 29  1  0  0  0  0
 24 25  1  0  0  0  0
 24 26  1  0  0  0  0
M  END
$$$$
default_name
  -OEChem-01062215323D

 29 28  0     1  0  0  0  0  0999 V2000
   -3.5781   -3.7296    1.2702 H   0  0  0  0  0  0  0  0  0  0  0  0
   -3.5311   -2.7616    0.7732 C   0  0  0  0  0  0  0  0  0  0  0  0
   -4.2371   -2.0766    1.2382 H   0  0  0  0  0  0  0  0  0  0  0  0
   -3.7681   -2.8816   -0.2818 H   0  0  0  0  0  0  0  0  0  0  0  0
   -2.1321   -2.2086    0.9112 C   0  0  0  0  0  0  0  0  0  0  0  0
   -1.2751   -2.8426    1.5112 O   0  0  0  0  0  0  0  0  0  0  0  0
   -1.9041   -1.0186    0.3602 N   0  0  0  0  0  0  0  0  0  0  0  0
   -2.6671   -0.5416   -0.0988 H   0  0  0  0  0  0  0  0  0  0  0  0
   -0.6131   -0.3236    0.3832 C   0  0  1  0  0  0  0  0  0  0  0  0
    0.0142   -0.7800    1.1506 H   0  0  0  0  0  0  0  0  0  0  0  0
    0.0816   -0.5059   -0.9788 C   0  0  0  0  0  0  0  0  0  0  0  0
   -0.5965   -0.1704   -1.7664 H   0  0  0  0  0  0  0  0  0  0  0  0
    0.9771    0.1164   -1.0122 H   0  0  0  0  0  0  0  0  0  0  0  0
    0.4817   -1.9562   -1.2730 C   0  0  0  0  0  0  0  0  0  0  0  0
   -0.4108   -2.5813   -1.2675 H   0  0  0  0  0  0  0  0  0  0  0  0
    0.9348   -2.0005   -2.2640 H   0  0  0  0  0  0  0  0  0  0  0  0
    1.6555   -2.6423   -0.0766 S   0  0  0  0  0  0  0  0  0  0  0  0
    3.1243   -1.6653   -0.4888 C   0  0  0  0  0  0  0  0  0  0  0  0
    2.9149   -0.6057   -0.3394 H   0  0  0  0  0  0  0  0  0  0  0  0
    3.9496   -1.9629    0.1587 H   0  0  0  0  0  0  0  0  0  0  0  0
    3.4028   -1.8404   -1.5283 H   0  0  0  0  0  0  0  0  0  0  0  0
   -0.8064    1.1568    0.7414 C   0  0  0  0  0  0  0  0  0  0  0  0
   -1.6978    1.8100    0.2029 O   0  0  0  0  0  0  0  0  0  0  0  0
    0.0314    1.6872    1.6415 N   0  0  0  0  0  0  0  0  0  0  0  0
    0.7279    1.0858    2.0517 H   0  0  0  0  0  0  0  0  0  0  0  0
   -0.0137    3.0826    2.0755 C   0  0  0  0  0  0  0  0  0  0  0  0
   -0.9991    3.3070    2.4905 H   0  0  0  0  0  0  0  0  0  0  0  0
    0.7468    3.2694    2.8349 H   0  0  0  0  0  0  0  0  0  0  0  0
    0.1592    3.7397    1.2213 H   0  0  0  0  0  0  0  0  0  0  0  0
  5  6  2  0  0  0  0
  5  7  1  0  0  0  0
  2  3  1  0  0  0  0
  2  4  1  0  0  0  0
  2  5  1  0  0  0  0
  1  2  1  0  0  0  0
 22 23  2  0  0  0  0
 22 24  1  0  0  0  0
 18 19  1  0  0  0  0
 18 20  1  0  0  0  0
 18 21  1  0  0  0  0
 17 18  1  0  0  0  0
 14 15  1  0  0  0  0
 14 16  1  0  0  0  0
 14 17  1  0  0  0  0
 11 12  1  0  0  0  0
 11 13  1  0  0  0  0
 11 14  1  0  0  0  0
  9 10  1  0  0  0  0
  9 11  1  0  0  0  0
  9 22  1  0  0  0  0
  7  8  1  0  0  0  0
  7  9  1  0  0  0  0
 26 27  1  0  0  0  0
 26 28  1  0  0  0  0
 26 29  1  0  0  0  0
 24 25  1  0  0  0  0
 24 26  1  0  0  0  0
M  END
$$$$
default_name
  -OEChem-01062215323D

 29 28  0     1  0  0  0  0  0999 V2000
   -3.5781   -3.7296    1.2702 H   0  0  0  0  0  0  0  0  0  0  0  0
   -3.5311   -2.7616    0.7732 C   0  0  0  0  0  0  0  0  0  0  0  0
   -4.2371   -2.0766    1.2382 H   0  0  0  0  0  0  0  0  0  0  0  0
   -3.7681   -2.8816   -0.2818 H   0  0  0  0  0  0  0  0  0  0  0  0
   -2.1321   -2.2086    0.9112 C   0  0  0  0  0  0  0  0  0  0  0  0
   -1.2751   -2.8426    1.5112 O   0  0  0  0  0  0  0  0  0  0  0  0
   -1.9041   -1.0186    0.3602 N   0  0  0  0  0  0  0  0  0  0  0  0
   -2.6671   -0.5416   -0.0988 H   0  0  0  0  0  0  0  0  0  0  0  0
   -0.6131   -0.3236    0.3832 C   0  0  1  0  0  0  0  0  0  0  0  0
    0.0142   -0.7800    1.1506 H   0  0  0  0  0  0  0  0  0  0  0  0
    0.0816   -0.5059   -0.9788 C   0  0  0  0  0  0  0  0  0  0  0  0
   -0.5965   -0.1704   -1.7664 H   0  0  0  0  0  0  0  0  0  0  0  0
    0.9771    0.1164   -1.0122 H   0  0  0  0  0  0  0  0  0  0  0  0
    0.4817   -1.9562   -1.2730 C   0  0  0  0  0  0  0  0  0  0  0  0
   -0.4108   -2.5813   -1.2675 H   0  0  0  0  0  0  0  0  0  0  0  0
    0.9348   -2.0005   -2.2640 H   0  0  0  0  0  0  0  0  0  0  0  0
    1.6555   -2.6423   -0.0766 S   0  0  0  0  0  0  0  0  0  0  0  0
    3.1243   -1.6653   -0.4888 C   0  0  0  0  0  0  0  0  0  0  0  0
    2.9149   -0.6057   -0.3394 H   0  0  0  0  0  0  0  0  0  0  0  0
    3.9496   -1.9629    0.1587 H   0  0  0  0  0  0  0  0  0  0  0  0
    3.4028   -1.8404   -1.5283 H   0  0  0  0  0  0  0  0  0  0  0  0
   -0.8064    1.1568    0.7414 C   0  0  0  0  0  0  0  0  0  0  0  0
   -1.8439    1.7366    0.4273 O   0  0  0  0  0  0  0  0  0  0  0  0
    0.1928    1.7693    1.3893 N   0  0  0  0  0  0  0  0  0  0  0  0
    1.0067    1.2250    1.6268 H   0  0  0  0  0  0  0  0  0  0  0  0
    0.1671    3.1763    1.7859 C   0  0  0  0  0  0  0  0  0  0  0  0
   -0.6966    3.3614    2.4288 H   0  0  0  0  0  0  0  0  0  0  0  0
    1.0788    3.4360    2.3256 H   0  0  0  0  0  0  0  0  0  0  0  0
    0.0794    3.8072    0.8995 H   0  0  0  0  0  0  0  0  0  0  0  0
  5  6  2  0  0  0  0
  5  7  1  0  0  0  0
  2  3  1  0  0  0  0
  2  4  1  0  0  0  0
  2  5  1  0  0  0  0
  1  2  1  0  0  0  0
 22 23  2  0  0  0  0
 22 24  1  0  0  0  0
 18 19  1  0  0  0  0
 18 20  1  0  0  0  0
 18 21  1  0  0  0  0
 17 18  1  0  0  0  0
 14 15  1  0  0  0  0
 14 16  1  0  0  0  0
 14 17  1  0  0  0  0
 11 12  1  0  0  0  0
 11 13  1  0  0  0  0
 11 14  1  0  0  0  0
  9 10  1  0  0  0  0
  9 11  1  0  0  0  0
  9 22  1  0  0  0  0
  7  8  1  0  0  0  0
  7  9  1  0  0  0  0
 26 27  1  0  0  0  0
 26 28  1  0  0  0  0
 26 29  1  0  0  0  0
 24 25  1  0  0  0  0
 24 26  1  0  0  0  0
M  END
$$$$
default_name
  -OEChem-01062215323D

 29 28  0     1  0  0  0  0  0999 V2000
   -3.5781   -3.7296    1.2702 H   0  0  0  0  0  0  0  0  0  0  0  0
   -3.5311   -2.7616    0.7732 C   0  0  0  0  0  0  0  0  0  0  0  0
   -4.2371   -2.0766    1.2382 H   0  0  0  0  0  0  0  0  0  0  0  0
   -3.7681   -2.8816   -0.2818 H   0  0  0  0  0  0  0  0  0  0  0  0
   -2.1321   -2.2086    0.9112 C   0  0  0  0  0  0  0  0  0  0  0  0
   -1.2751   -2.8426    1.5112 O   0  0  0  0  0  0  0  0  0  0  0  0
   -1.9041   -1.0186    0.3602 N   0  0  0  0  0  0  0  0  0  0  0  0
   -2.6671   -0.5416   -0.0988 H   0  0  0  0  0  0  0  0  0  0  0  0
   -0.6131   -0.3236    0.3832 C   0  0  1  0  0  0  0  0  0  0  0  0
    0.0142   -0.7800    1.1506 H   0  0  0  0  0  0  0  0  0  0  0  0
    0.0816   -0.5059   -0.9788 C   0  0  0  0  0  0  0  0  0  0  0  0
   -0.5965   -0.1704   -1.7664 H   0  0  0  0  0  0  0  0  0  0  0  0
    0.9771    0.1164   -1.0122 H   0  0  0  0  0  0  0  0  0  0  0  0
    0.4817   -1.9562   -1.2730 C   0  0  0  0  0  0  0  0  0  0  0  0
   -0.4108   -2.5813   -1.2675 H   0  0  0  0  0  0  0  0  0  0  0  0
    0.9348   -2.0005   -2.2640 H   0  0  0  0  0  0  0  0  0  0  0  0
    1.6555   -2.6423   -0.0766 S   0  0  0  0  0  0  0  0  0  0  0  0
    3.1243   -1.6653   -0.4888 C   0  0  0  0  0  0  0  0  0  0  0  0
    2.9149   -0.6057   -0.3394 H   0  0  0  0  0  0  0  0  0  0  0  0
    3.9496   -1.9629    0.1587 H   0  0  0  0  0  0  0  0  0  0  0  0
    3.4028   -1.8404   -1.5283 H   0  0  0  0  0  0  0  0  0  0  0  0
   -0.8064    1.1568    0.7414 C   0  0  0  0  0  0  0  0  0  0  0  0
   -1.9246    1.6643    0.6829 O   0  0  0  0  0  0  0  0  0  0  0  0
    0.2808    1.8501    1.1028 N   0  0  0  0  0  0  0  0  0  0  0  0
    1.1616    1.3625    1.1423 H   0  0  0  0  0  0  0  0  0  0  0  0
    0.2637    3.2683    1.4580 C   0  0  0  0  0  0  0  0  0  0  0  0
   -0.4232    3.4303    2.2920 H   0  0  0  0  0  0  0  0  0  0  0  0
    1.2622    3.6003    1.7454 H   0  0  0  0  0  0  0  0  0  0  0  0
   -0.0820    3.8570    0.6064 H   0  0  0  0  0  0  0  0  0  0  0  0
  5  6  2  0  0  0  0
  5  7  1  0  0  0  0
  2  3  1  0  0  0  0
  2  4  1  0  0  0  0
  2  5  1  0  0  0  0
  1  2  1  0  0  0  0
 22 23  2  0  0  0  0
 22 24  1  0  0  0  0
 18 19  1  0  0  0  0
 18 20  1  0  0  0  0
 18 21  1  0  0  0  0
 17 18  1  0  0  0  0
 14 15  1  0  0  0  0
 14 16  1  0  0  0  0
 14 17  1  0  0  0  0
 11 12  1  0  0  0  0
 11 13  1  0  0  0  0
 11 14  1  0  0  0  0
  9 10  1  0  0  0  0
  9 11  1  0  0  0  0
  9 22  1  0  0  0  0
  7  8  1  0  0  0  0
  7  9  1  0  0  0  0
 26 27  1  0  0  0  0
 26 28  1  0  0  0  0
 26 29  1  0  0  0  0
 24 25  1  0  0  0  0
 24 26  1  0  0  0  0
M  END
$$$$
default_name
  -OEChem-01062215323D

 29 28  0     1  0  0  0  0  0999 V2000
   -3.5781   -3.7296    1.2702 H   0  0  0  0  0  0  0  0  0  0  0  0
   -3.5311   -2.7616    0.7732 C   0  0  0  0  0  0  0  0  0  0  0  0
   -4.2371   -2.0766    1.2382 H   0  0  0  0  0  0  0  0  0  0  0  0
   -3.7681   -2.8816   -0.2818 H   0  0  0  0  0  0  0  0  0  0  0  0
   -2.1321   -2.2086    0.9112 C   0  0  0  0  0  0  0  0  0  0  0  0
   -1.2751   -2.8426    1.5112 O   0  0  0  0  0  0  0  0  0  0  0  0
   -1.9041   -1.0186    0.3602 N   0  0  0  0  0  0  0  0  0  0  0  0
   -2.6671   -0.5416   -0.0988 H   0  0  0  0  0  0  0  0  0  0  0  0
   -0.6131   -0.3236    0.3832 C   0  0  1  0  0  0  0  0  0  0  0  0
    0.0993   -0.9311    0.9437 H   0  0  0  0  0  0  0  0  0  0  0  0
   -0.0933   -0.1783   -1.0589 C   0  0  0  0  0  0  0  0  0  0  0  0
   -0.8598    0.3151   -1.6603 H   0  0  0  0  0  0  0  0  0  0  0  0
    0.7975    0.4514   -1.0586 H   0  0  0  0  0  0  0  0  0  0  0  0
    0.2528   -1.5161   -1.7228 C   0  0  0  0  0  0  0  0  0  0  0  0
   -0.6385   -2.1422   -1.7511 H   0  0  0  0  0  0  0  0  0  0  0  0
    0.5799   -1.3254   -2.7455 H   0  0  0  0  0  0  0  0  0  0  0  0
    1.5579   -2.4349   -0.8671 S   0  0  0  0  0  0  0  0  0  0  0  0
    2.9747   -1.3631   -1.2218 C   0  0  0  0  0  0  0  0  0  0  0  0
    2.7960   -0.3693   -0.8103 H   0  0  0  0  0  0  0  0  0  0  0  0
    3.8704   -1.7851   -0.7652 H   0  0  0  0  0  0  0  0  0  0  0  0
    3.1212   -1.2919   -2.2999 H   0  0  0  0  0  0  0  0  0  0  0  0
   -0.7458    1.0326    1.0906 C   0  0  0  0  0  0  0  0  0  0  0  0
   -1.8347    1.3933    1.5327 O   0  0  0  0  0  0  0  0  0  0  0  0
    0.3569    1.7861    1.1897 N   0  0  0  0  0  0  0  0  0  0  0  0
    1.2172    1.4173    0.8168 H   0  0  0  0  0  0  0  0  0  0  0  0
    0.3903    3.1050    1.8199 C   0  0  0  0  0  0  0  0  0  0  0  0
    0.0485    3.0268    2.8546 H   0  0  0  0  0  0  0  0  0  0  0  0
    1.4040    3.5075    1.8058 H   0  0  0  0  0  0  0  0  0  0  0  0
   -0.2763    3.7850    1.2864 H   0  0  0  0  0  0  0  0  0  0  0  0
  5  6  2  0  0  0  0
  5  7  1  0  0  0  0
  2  3  1  0  0  0  0
  2  4  1  0  0  0  0
  2  5  1  0  0  0  0
  1  2  1  0  0  0  0
 22 23  2  0  0  0  0
 22 24  1  0  0  0  0
 18 19  1  0  0  0  0
 18 20  1  0  0  0  0
 18 21  1  0  0  0  0
 17 18  1  0  0  0  0
 14 15  1  0  0  0  0
 14 16  1  0  0  0  0
 14 17  1  0  0  0  0
 11 12  1  0  0  0  0
 11 13  1  0  0  0  0
 11 14  1  0  0  0  0
  9 10  1  0  0  0  0
  9 11  1  0  0  0  0
  9 22  1  0  0  0  0
  7  8  1  0  0  0  0
  7  9  1  0  0  0  0
 26 27  1  0  0  0  0
 26 28  1  0  0  0  0
 26 29  1  0  0  0  0
 24 25  1  0  0  0  0
 24 26  1  0  0  0  0
M  END
$$$$
default_name
  -OEChem-01062215323D

 29 28  0     1  0  0  0  0  0999 V2000
   -3.5781   -3.7296    1.2702 H   0  0  0  0  0  0  0  0  0  0  0  0
   -3.5311   -2.7616    0.7732 C   0  0  0  0  0  0  0  0  0  0  0  0
   -4.2371   -2.0766    1.2382 H   0  0  0  0  0  0  0  0  0  0  0  0
   -3.7681   -2.8816   -0.2818 H   0  0  0  0  0  0  0  0  0  0  0  0
   -2.1321   -2.2086    0.9112 C   0  0  0  0  0  0  0  0  0  0  0  0
   -1.2751   -2.8426    1.5112 O   0  0  0  0  0  0  0  0  0  0  0  0
   -1.9041   -1.0186    0.3602 N   0  0  0  0  0  0  0  0  0  0  0  0
   -2.6671   -0.5416   -0.0988 H   0  0  0  0  0  0  0  0  0  0  0  0
   -0.6131   -0.3236    0.3832 C   0  0  1  0  0  0  0  0  0  0  0  0
    0.0993   -0.9311    0.9437 H   0  0  0  0  0  0  0  0  0  0  0  0
   -0.0933   -0.1783   -1.0589 C   0  0  0  0  0  0  0  0  0  0  0  0
   -0.8598    0.3151   -1.6603 H   0  0  0  0  0  0  0  0  0  0  0  0
    0.7975    0.4514   -1.0586 H   0  0  0  0  0  0  0  0  0  0  0  0
    0.2528   -1.5161   -1.7228 C   0  0  0  0  0  0  0  0  0  0  0  0
   -0.6385   -2.1422   -1.7511 H   0  0  0  0  0  0  0  0  0  0  0  0
    0.5799   -1.3254   -2.7455 H   0  0  0  0  0  0  0  0  0  0  0  0
    1.5579   -2.4349   -0.8671 S   0  0  0  0  0  0  0  0  0  0  0  0
    2.9747   -1.3631   -1.2218 C   0  0  0  0  0  0  0  0  0  0  0  0
    2.7960   -0.3693   -0.8103 H   0  0  0  0  0  0  0  0  0  0  0  0
    3.8704   -1.7851   -0.7652 H   0  0  0  0  0  0  0  0  0  0  0  0
    3.1212   -1.2919   -2.2999 H   0  0  0  0  0  0  0  0  0  0  0  0
   -0.7458    1.0326    1.0906 C   0  0  0  0  0  0  0  0  0  0  0  0
   -1.7413    1.2797    1.7682 O   0  0  0  0  0  0  0  0  0  0  0  0
    0.2503    1.9126    0.9270 N   0  0  0  0  0  0  0  0  0  0  0  0
    1.0417    1.6335    0.3694 H   0  0  0  0  0  0  0  0  0  0  0  0
    0.2651    3.2484    1.5214 C   0  0  0  0  0  0  0  0  0  0  0  0
    0.1796    3.1685    2.6076 H   0  0  0  0  0  0  0  0  0  0  0  0
    1.1923    3.7656    1.2712 H   0  0  0  0  0  0  0  0  0  0  0  0
   -0.5830    3.8262    1.1497 H   0  0  0  0  0  0  0  0  0  0  0  0
  5  6  2  0  0  0  0
  5  7  1  0  0  0  0
  2  3  1  0  0  0  0
  2  4  1  0  0  0  0
  2  5  1  0  0  0  0
  1  2  1  0  0  0  0
 22 23  2  0  0  0  0
 22 24  1  0  0  0  0
 18 19  1  0  0  0  0
 18 20  1  0  0  0  0
 18 21  1  0  0  0  0
 17 18  1  0  0  0  0
 14 15  1  0  0  0  0
 14 16  1  0  0  0  0
 14 17  1  0  0  0  0
 11 12  1  0  0  0  0
 11 13  1  0  0  0  0
 11 14  1  0  0  0  0
  9 10  1  0  0  0  0
  9 11  1  0  0  0  0
  9 22  1  0  0  0  0
  7  8  1  0  0  0  0
  7  9  1  0  0  0  0
 26 27  1  0  0  0  0
 26 28  1  0  0  0  0
 26 29  1  0  0  0  0
 24 25  1  0  0  0  0
 24 26  1  0  0  0  0
M  END
$$$$
default_name
  -OEChem-01062215323D

 29 28  0     1  0  0  0  0  0999 V2000
   -3.5781   -3.7296    1.2702 H   0  0  0  0  0  0  0  0  0  0  0  0
   -3.5311   -2.7616    0.7732 C   0  0  0  0  0  0  0  0  0  0  0  0
   -4.2371   -2.0766    1.2382 H   0  0  0  0  0  0  0  0  0  0  0  0
   -3.7681   -2.8816   -0.2818 H   0  0  0  0  0  0  0  0  0  0  0  0
   -2.1321   -2.2086    0.9112 C   0  0  0  0  0  0  0  0  0  0  0  0
   -1.2751   -2.8426    1.5112 O   0  0  0  0  0  0  0  0  0  0  0  0
   -1.9041   -1.0186    0.3602 N   0  0  0  0  0  0  0  0  0  0  0  0
   -2.6671   -0.5416   -0.0988 H   0  0  0  0  0  0  0  0  0  0  0  0
   -0.6131   -0.3236    0.3832 C   0  0  1  0  0  0  0  0  0  0  0  0
    0.0993   -0.9311    0.9437 H   0  0  0  0  0  0  0  0  0  0  0  0
   -0.0933   -0.1783   -1.0589 C   0  0  0  0  0  0  0  0  0  0  0  0
   -0.8598    0.3151   -1.6603 H   0  0  0  0  0  0  0  0  0  0  0  0
    0.7975    0.4514   -1.0586 H   0  0  0  0  0  0  0  0  0  0  0  0
    0.2528   -1.5161   -1.7228 C   0  0  0  0  0  0  0  0  0  0  0  0
   -0.6385   -2.1422   -1.7511 H   0  0  0  0  0  0  0  0  0  0  0  0
    0.5799   -1.3254   -2.7455 H   0  0  0  0  0  0  0  0  0  0  0  0
    1.5579   -2.4349   -0.8671 S   0  0  0  0  0  0  0  0  0  0  0  0
    2.9747   -1.3631   -1.2218 C   0  0  0  0  0  0  0  0  0  0  0  0
    2.7960   -0.3693   -0.8103 H   0  0  0  0  0  0  0  0  0  0  0  0
    3.8704   -1.7851   -0.7652 H   0  0  0  0  0  0  0  0  0  0  0  0
    3.1212   -1.2919   -2.2999 H   0  0  0  0  0  0  0  0  0  0  0  0
   -0.7458    1.0326    1.0906 C   0  0  0  0  0  0  0  0  0  0  0  0
   -1.5837    1.1862    1.9768 O   0  0  0  0  0  0  0  0  0  0  0  0
    0.0722    2.0163    0.6948 N   0  0  0  0  0  0  0  0  0  0  0  0
    0.7441    1.8113   -0.0274 H   0  0  0  0  0  0  0  0  0  0  0  0
    0.0588    3.3653    1.2585 C   0  0  0  0  0  0  0  0  0  0  0  0
    0.2328    3.3154    2.3359 H   0  0  0  0  0  0  0  0  0  0  0  0
    0.8348    3.9778    0.7974 H   0  0  0  0  0  0  0  0  0  0  0  0
   -0.9155    3.8264    1.0869 H   0  0  0  0  0  0  0  0  0  0  0  0
  5  6  2  0  0  0  0
  5  7  1  0  0  0  0
  2  3  1  0  0  0  0
  2  4  1  0  0  0  0
  2  5  1  0  0  0  0
  1  2  1  0  0  0  0
 22 23  2  0  0  0  0
 22 24  1  0  0  0  0
 18 19  1  0  0  0  0
 18 20  1  0  0  0  0
 18 21  1  0  0  0  0
 17 18  1  0  0  0  0
 14 15  1  0  0  0  0
 14 16  1  0  0  0  0
 14 17  1  0  0  0  0
 11 12  1  0  0  0  0
 11 13  1  0  0  0  0
 11 14  1  0  0  0  0
  9 10  1  0  0  0  0
  9 11  1  0  0  0  0
  9 22  1  0  0  0  0
  7  8  1  0  0  0  0
  7  9  1  0  0  0  0
 26 27  1  0  0  0  0
 26 28  1  0  0  0  0
 26 29  1  0  0  0  0
 24 25  1  0  0  0  0
 24 26  1  0  0  0  0
M  END
$$$$
default_name
  -OEChem-01062215323D

 29 28  0     1  0  0  0  0  0999 V2000
   -3.5781   -3.7296    1.2702 H   0  0  0  0  0  0  0  0  0  0  0  0
   -3.5311   -2.7616    0.7732 C   0  0  0  0  0  0  0  0  0  0  0  0
   -4.2371   -2.0766    1.2382 H   0  0  0  0  0  0  0  0  0  0  0  0
   -3.7681   -2.8816   -0.2818 H   0  0  0  0  0  0  0  0  0  0  0  0
   -2.1321   -2.2086    0.9112 C   0  0  0  0  0  0  0  0  0  0  0  0
   -1.2751   -2.8426    1.5112 O   0  0  0  0  0  0  0  0  0  0  0  0
   -1.9041   -1.0186    0.3602 N   0  0  0  0  0  0  0  0  0  0  0  0
   -2.6671   -0.5416   -0.0988 H   0  0  0  0  0  0  0  0  0  0  0  0
   -0.6131   -0.3236    0.3832 C   0  0  1  0  0  0  0  0  0  0  0  0
    0.0993   -0.9311    0.9437 H   0  0  0  0  0  0  0  0  0  0  0  0
   -0.0933   -0.1783   -1.0589 C   0  0  0  0  0  0  0  0  0  0  0  0
   -0.8598    0.3151   -1.6603 H   0  0  0  0  0  0  0  0  0  0  0  0
    0.7975    0.4514   -1.0586 H   0  0  0  0  0  0  0  0  0  0  0  0
    0.2528   -1.5161   -1.7228 C   0  0  0  0  0  0  0  0  0  0  0  0
   -0.6385   -2.1422   -1.7511 H   0  0  0  0  0  0  0  0  0  0  0  0
    0.5799   -1.3254   -2.7455 H   0  0  0  0  0  0  0  0  0  0  0  0
    1.5579   -2.4349   -0.8671 S   0  0  0  0  0  0  0  0  0  0  0  0
    2.9747   -1.3631   -1.2218 C   0  0  0  0  0  0  0  0  0  0  0  0
    2.7960   -0.3693   -0.8103 H   0  0  0  0  0  0  0  0  0  0  0  0
    3.8704   -1.7851   -0.7652 H   0  0  0  0  0  0  0  0  0  0  0  0
    3.1212   -1.2919   -2.2999 H   0  0  0  0  0  0  0  0  0  0  0  0
   -0.7458    1.0326    1.0906 C   0  0  0  0  0  0  0  0  0  0  0  0
   -1.3727    1.1195    2.1445 O   0  0  0  0  0  0  0  0  0  0  0  0
   -0.1653    2.0900    0.5089 N   0  0  0  0  0  0  0  0  0  0  0  0
    0.3448    1.9388   -0.3467 H   0  0  0  0  0  0  0  0  0  0  0  0
   -0.2145    3.4478    1.0491 C   0  0  0  0  0  0  0  0  0  0  0  0
    0.2046    3.4576    2.0580 H   0  0  0  0  0  0  0  0  0  0  0  0
    0.3558    4.1294    0.4167 H   0  0  0  0  0  0  0  0  0  0  0  0
   -1.2510    3.7856    1.1023 H   0  0  0  0  0  0  0  0  0  0  0  0
  5  6  2  0  0  0  0
  5  7  1  0  0  0  0
  2  3  1  0  0  0  0
  2  4  1  0  0  0  0
  2  5  1  0  0  0  0
  1  2  1  0  0  0  0
 22 23  2  0  0  0  0
 22 24  1  0  0  0  0
 18 19  1  0  0  0  0
 18 20  1  0  0  0  0
 18 21  1  0  0  0  0
 17 18  1  0  0  0  0
 14 15  1  0  0  0  0
 14 16  1  0  0  0  0
 14 17  1  0  0  0  0
 11 12  1  0  0  0  0
 11 13  1  0  0  0  0
 11 14  1  0  0  0  0
  9 10  1  0  0  0  0
  9 11  1  0  0  0  0
  9 22  1  0  0  0  0
  7  8  1  0  0  0  0
  7  9  1  0  0  0  0
 26 27  1  0  0  0  0
 26 28  1  0  0  0  0
 26 29  1  0  0  0  0
 24 25  1  0  0  0  0
 24 26  1  0  0  0  0
M  END
$$$$
default_name
  -OEChem-01062215323D

 29 28  0     1  0  0  0  0  0999 V2000
   -3.5781   -3.7296    1.2702 H   0  0  0  0  0  0  0  0  0  0  0  0
   -3.5311   -2.7616    0.7732 C   0  0  0  0  0  0  0  0  0  0  0  0
   -4.2371   -2.0766    1.2382 H   0  0  0  0  0  0  0  0  0  0  0  0
   -3.7681   -2.8816   -0.2818 H   0  0  0  0  0  0  0  0  0  0  0  0
   -2.1321   -2.2086    0.9112 C   0  0  0  0  0  0  0  0  0  0  0  0
   -1.2751   -2.8426    1.5112 O   0  0  0  0  0  0  0  0  0  0  0  0
   -1.9041   -1.0186    0.3602 N   0  0  0  0  0  0  0  0  0  0  0  0
   -2.6671   -0.5416   -0.0988 H   0  0  0  0  0  0  0  0  0  0  0  0
   -0.6131   -0.3236    0.3832 C   0  0  1  0  0  0  0  0  0  0  0  0
    0.0993   -0.9311    0.9437 H   0  0  0  0  0  0  0  0  0  0  0  0
   -0.0933   -0.1783   -1.0589 C   0  0  0  0  0  0  0  0  0  0  0  0
   -0.8598    0.3151   -1.6603 H   0  0  0  0  0  0  0  0  0  0  0  0
    0.7975    0.4514   -1.0586 H   0  0  0  0  0  0  0  0  0  0  0  0
    0.2528   -1.5161   -1.7228 C   0  0  0  0  0  0  0  0  0  0  0  0
   -0.6385   -2.1422   -1.7511 H   0  0  0  0  0  0  0  0  0  0  0  0
    0.5799   -1.3254   -2.7455 H   0  0  0  0  0  0  0  0  0  0  0  0
    1.5579   -2.4349   -0.8671 S   0  0  0  0  0  0  0  0  0  0  0  0
    2.9747   -1.3631   -1.2218 C   0  0  0  0  0  0  0  0  0  0  0  0
    2.7960   -0.3693   -0.8103 H   0  0  0  0  0  0  0  0  0  0  0  0
    3.8704   -1.7851   -0.7652 H   0  0  0  0  0  0  0  0  0  0  0  0
    3.1212   -1.2919   -2.2999 H   0  0  0  0  0  0  0  0  0  0  0  0
   -0.7458    1.0326    1.0906 C   0  0  0  0  0  0  0  0  0  0  0  0
   -1.1226    1.0839    2.2596 O   0  0  0  0  0  0  0  0  0  0  0  0
   -0.4459    2.1287    0.3820 N   0  0  0  0  0  0  0  0  0  0  0  0
   -0.1291    2.0071   -0.5666 H   0  0  0  0  0  0  0  0  0  0  0  0
   -0.5362    3.4902    0.9074 C   0  0  0  0  0  0  0  0  0  0  0  0
    0.0968    3.5854    1.7928 H   0  0  0  0  0  0  0  0  0  0  0  0
   -0.2119    4.2103    0.1550 H   0  0  0  0  0  0  0  0  0  0  0  0
   -1.5667    3.7065    1.1947 H   0  0  0  0  0  0  0  0  0  0  0  0
  5  6  2  0  0  0  0
  5  7  1  0  0  0  0
  2  3  1  0  0  0  0
  2  4  1  0  0  0  0
  2  5  1  0  0  0  0
  1  2  1  0  0  0  0
 22 23  2  0  0  0  0
 22 24  1  0  0  0  0
 18 19  1  0  0  0  0
 18 20  1  0  0  0  0
 18 21  1  0  0  0  0
 17 18  1  0  0  0  0
 14 15  1  0  0  0  0
 14 16  1  0  0  0  0
 14 17  1  0  0  0  0
 11 12  1  0  0  0  0
 11 13  1  0  0  0  0
 11 14  1  0  0  0  0
  9 10  1  0  0  0  0
  9 11  1  0  0  0  0
  9 22  1  0  0  0  0
  7  8  1  0  0  0  0
  7  9  1  0  0  0  0
 26 27  1  0  0  0  0
 26 28  1  0  0  0  0
 26 29  1  0  0  0  0
 24 25  1  0  0  0  0
 24 26  1  0  0  0  0
M  END
$$$$
default_name
  -OEChem-01062215323D

 29 28  0     1  0  0  0  0  0999 V2000
   -3.5781   -3.7296    1.2702 H   0  0  0  0  0  0  0  0  0  0  0  0
   -3.5311   -2.7616    0.7732 C   0  0  0  0  0  0  0  0  0  0  0  0
   -4.2371   -2.0766    1.2382 H   0  0  0  0  0  0  0  0  0  0  0  0
   -3.7681   -2.8816   -0.2818 H   0  0  0  0  0  0  0  0  0  0  0  0
   -2.1321   -2.2086    0.9112 C   0  0  0  0  0  0  0  0  0  0  0  0
   -1.2751   -2.8426    1.5112 O   0  0  0  0  0  0  0  0  0  0  0  0
   -1.9041   -1.0186    0.3602 N   0  0  0  0  0  0  0  0  0  0  0  0
   -2.6671   -0.5416   -0.0988 H   0  0  0  0  0  0  0  0  0  0  0  0
   -0.6131   -0.3236    0.3832 C   0  0  1  0  0  0  0  0  0  0  0  0
    0.0993   -0.9311    0.9437 H   0  0  0  0  0  0  0  0  0  0  0  0
   -0.0933   -0.1783   -1.0589 C   0  0  0  0  0  0  0  0  0  0  0  0
   -0.8598    0.3151   -1.6603 H   0  0  0  0  0  0  0  0  0  0  0  0
    0.7975    0.4514   -1.0586 H   0  0  0  0  0  0  0  0  0  0  0  0
    0.2528   -1.5161   -1.7228 C   0  0  0  0  0  0  0  0  0  0  0  0
   -0.6385   -2.1422   -1.7511 H   0  0  0  0  0  0  0  0  0  0  0  0
    0.5799   -1.3254   -2.7455 H   0  0  0  0  0  0  0  0  0  0  0  0
    1.5579   -2.4349   -0.8671 S   0  0  0  0  0  0  0  0  0  0  0  0
    2.9747   -1.3631   -1.2218 C   0  0  0  0  0  0  0  0  0  0  0  0
    2.7960   -0.3693   -0.8103 H   0  0  0  0  0  0  0  0  0  0  0  0
    3.8704   -1.7851   -0.7652 H   0  0  0  0  0  0  0  0  0  0  0  0
    3.1212   -1.2919   -2.2999 H   0  0  0  0  0  0  0  0  0  0  0  0
   -0.7458    1.0326    1.0906 C   0  0  0  0  0  0  0  0  0  0  0  0
   -0.8504    1.0819    2.3144 O   0  0  0  0  0  0  0  0  0  0  0  0
   -0.7506    2.1298    0.3228 N   0  0  0  0  0  0  0  0  0  0  0  0
   -0.6454    2.0117   -0.6723 H   0  0  0  0  0  0  0  0  0  0  0  0
   -0.8843    3.4896    0.8432 C   0  0  0  0  0  0  0  0  0  0  0  0
   -0.0831    3.6900    1.5585 H   0  0  0  0  0  0  0  0  0  0  0  0
   -0.8298    4.2149    0.0303 H   0  0  0  0  0  0  0  0  0  0  0  0
   -1.8411    3.5945    1.3579 H   0  0  0  0  0  0  0  0  0  0  0  0
  5  6  2  0  0  0  0
  5  7  1  0  0  0  0
  2  3  1  0  0  0  0
  2  4  1  0  0  0  0
  2  5  1  0  0  0  0
  1  2  1  0  0  0  0
 22 23  2  0  0  0  0
 22 24  1  0  0  0  0
 18 19  1  0  0  0  0
 18 20  1  0  0  0  0
 18 21  1  0  0  0  0
 17 18  1  0  0  0  0
 14 15  1  0  0  0  0
 14 16  1  0  0  0  0
 14 17  1  0  0  0  0
 11 12  1  0  0  0  0
 11 13  1  0  0  0  0
 11 14  1  0  0  0  0
  9 10  1  0  0  0  0
  9 11  1  0  0  0  0
  9 22  1  0  0  0  0
  7  8  1  0  0  0  0
  7  9  1  0  0  0  0
 26 27  1  0  0  0  0
 26 28  1  0  0  0  0
 26 29  1  0  0  0  0
 24 25  1  0  0  0  0
 24 26  1  0  0  0  0
M  END
$$$$
default_name
  -OEChem-01062215323D

 29 28  0     1  0  0  0  0  0999 V2000
   -3.5781   -3.7296    1.2702 H   0  0  0  0  0  0  0  0  0  0  0  0
   -3.5311   -2.7616    0.7732 C   0  0  0  0  0  0  0  0  0  0  0  0
   -4.2371   -2.0766    1.2382 H   0  0  0  0  0  0  0  0  0  0  0  0
   -3.7681   -2.8816   -0.2818 H   0  0  0  0  0  0  0  0  0  0  0  0
   -2.1321   -2.2086    0.9112 C   0  0  0  0  0  0  0  0  0  0  0  0
   -1.2751   -2.8426    1.5112 O   0  0  0  0  0  0  0  0  0  0  0  0
   -1.9041   -1.0186    0.3602 N   0  0  0  0  0  0  0  0  0  0  0  0
   -2.6671   -0.5416   -0.0988 H   0  0  0  0  0  0  0  0  0  0  0  0
   -0.6131   -0.3236    0.3832 C   0  0  1  0  0  0  0  0  0  0  0  0
    0.0993   -0.9311    0.9437 H   0  0  0  0  0  0  0  0  0  0  0  0
   -0.0933   -0.1783   -1.0589 C   0  0  0  0  0  0  0  0  0  0  0  0
   -0.8598    0.3151   -1.6603 H   0  0  0  0  0  0  0  0  0  0  0  0
    0.7975    0.4514   -1.0586 H   0  0  0  0  0  0  0  0  0  0  0  0
    0.2528   -1.5161   -1.7228 C   0  0  0  0  0  0  0  0  0  0  0  0
   -0.6385   -2.1422   -1.7511 H   0  0  0  0  0  0  0  0  0  0  0  0
    0.5799   -1.3254   -2.7455 H   0  0  0  0  0  0  0  0  0  0  0  0
    1.5579   -2.4349   -0.8671 S   0  0  0  0  0  0  0  0  0  0  0  0
    2.9747   -1.3631   -1.2218 C   0  0  0  0  0  0  0  0  0  0  0  0
    2.7960   -0.3693   -0.8103 H   0  0  0  0  0  0  0  0  0  0  0  0
    3.8704   -1.7851   -0.7652 H   0  0  0  0  0  0  0  0  0  0  0  0
    3.1212   -1.2919   -2.2999 H   0  0  0  0  0  0  0  0  0  0  0  0
   -0.7458    1.0326    1.0906 C   0  0  0  0  0  0  0  0  0  0  0  0
   -0.5747    1.1137    2.3052 O   0  0  0  0  0  0  0  0  0  0  0  0
   -1.0587    2.0932    0.3351 N   0  0  0  0  0  0  0  0  0  0  0  0
   -1.1687    1.9522   -0.6564 H   0  0  0  0  0  0  0  0  0  0  0  0
   -1.2352    3.4461    0.8608 C   0  0  0  0  0  0  0  0  0  0  0  0
   -0.3230    3.7643    1.3709 H   0  0  0  0  0  0  0  0  0  0  0  0
   -1.4556    4.1428    0.0510 H   0  0  0  0  0  0  0  0  0  0  0  0
   -2.0554    3.4573    1.5808 H   0  0  0  0  0  0  0  0  0  0  0  0
  5  6  2  0  0  0  0
  5  7  1  0  0  0  0
  2  3  1  0  0  0  0
  2  4  1  0  0  0  0
  2  5  1  0  0  0  0
  1  2  1  0  0  0  0
 22 23  2  0  0  0  0
 22 24  1  0  0  0  0
 18 19  1  0  0  0  0
 18 20  1  0  0  0  0
 18 21  1  0  0  0  0
 17 18  1  0  0  0  0
 14 15  1  0  0  0  0
 14 16  1  0  0  0  0
 14 17  1  0  0  0  0
 11 12  1  0  0  0  0
 11 13  1  0  0  0  0
 11 14  1  0  0  0  0
  9 10  1  0  0  0  0
  9 11  1  0  0  0  0
  9 22  1  0  0  0  0
  7  8  1  0  0  0  0
  7  9  1  0  0  0  0
 26 27  1  0  0  0  0
 26 28  1  0  0  0  0
 26 29  1  0  0  0  0
 24 25  1  0  0  0  0
 24 26  1  0  0  0  0
M  END
$$$$
default_name
  -OEChem-01062215323D

 29 28  0     1  0  0  0  0  0999 V2000
   -3.5781   -3.7296    1.2702 H   0  0  0  0  0  0  0  0  0  0  0  0
   -3.5311   -2.7616    0.7732 C   0  0  0  0  0  0  0  0  0  0  0  0
   -4.2371   -2.0766    1.2382 H   0  0  0  0  0  0  0  0  0  0  0  0
   -3.7681   -2.8816   -0.2818 H   0  0  0  0  0  0  0  0  0  0  0  0
   -2.1321   -2.2086    0.9112 C   0  0  0  0  0  0  0  0  0  0  0  0
   -1.2751   -2.8426    1.5112 O   0  0  0  0  0  0  0  0  0  0  0  0
   -1.9041   -1.0186    0.3602 N   0  0  0  0  0  0  0  0  0  0  0  0
   -2.6671   -0.5416   -0.0988 H   0  0  0  0  0  0  0  0  0  0  0  0
   -0.6131   -0.3236    0.3832 C   0  0  1  0  0  0  0  0  0  0  0  0
    0.0993   -0.9311    0.9437 H   0  0  0  0  0  0  0  0  0  0  0  0
   -0.0933   -0.1783   -1.0589 C   0  0  0  0  0  0  0  0  0  0  0  0
   -0.8598    0.3151   -1.6603 H   0  0  0  0  0  0  0  0  0  0  0  0
    0.7975    0.4514   -1.0586 H   0  0  0  0  0  0  0  0  0  0  0  0
    0.2528   -1.5161   -1.7228 C   0  0  0  0  0  0  0  0  0  0  0  0
   -0.6385   -2.1422   -1.7511 H   0  0  0  0  0  0  0  0  0  0  0  0
    0.5799   -1.3254   -2.7455 H   0  0  0  0  0  0  0  0  0  0  0  0
    1.5579   -2.4349   -0.8671 S   0  0  0  0  0  0  0  0  0  0  0  0
    2.9747   -1.3631   -1.2218 C   0  0  0  0  0  0  0  0  0  0  0  0
    2.7960   -0.3693   -0.8103 H   0  0  0  0  0  0  0  0  0  0  0  0
    3.8704   -1.7851   -0.7652 H   0  0  0  0  0  0  0  0  0  0  0  0
    3.1212   -1.2919   -2.2999 H   0  0  0  0  0  0  0  0  0  0  0  0
   -0.7458    1.0326    1.0906 C   0  0  0  0  0  0  0  0  0  0  0  0
   -0.3144    1.1771    2.2326 O   0  0  0  0  0  0  0  0  0  0  0  0
   -1.3490    2.0214    0.4183 N   0  0  0  0  0  0  0  0  0  0  0  0
   -1.6634    1.8326   -0.5201 H   0  0  0  0  0  0  0  0  0  0  0  0
   -1.5650    3.3626    0.9590 C   0  0  0  0  0  0  0  0  0  0  0  0
   -0.6064    3.8034    1.2429 H   0  0  0  0  0  0  0  0  0  0  0  0
   -2.0469    3.9991    0.2157 H   0  0  0  0  0  0  0  0  0  0  0  0
   -2.1951    3.3041    1.8482 H   0  0  0  0  0  0  0  0  0  0  0  0
  5  6  2  0  0  0  0
  5  7  1  0  0  0  0
  2  3  1  0  0  0  0
  2  4  1  0  0  0  0
  2  5  1  0  0  0  0
  1  2  1  0  0  0  0
 22 23  2  0  0  0  0
 22 24  1  0  0  0  0
 18 19  1  0  0  0  0
 18 20  1  0  0  0  0
 18 21  1  0  0  0  0
 17 18  1  0  0  0  0
 14 15  1  0  0  0  0
 14 16  1  0  0  0  0
 14 17  1  0  0  0  0
 11 12  1  0  0  0  0
 11 13  1  0  0  0  0
 11 14  1  0  0  0  0
  9 10  1  0  0  0  0
  9 11  1  0  0  0  0
  9 22  1  0  0  0  0
  7  8  1  0  0  0  0
  7  9  1  0  0  0  0
 26 27  1  0  0  0  0
 26 28  1  0  0  0  0
 26 29  1  0  0  0  0
 24 25  1  0  0  0  0
 24 26  1  0  0  0  0
M  END
$$$$
default_name
  -OEChem-01062215323D

 29 28  0     1  0  0  0  0  0999 V2000
   -3.5781   -3.7296    1.2702 H   0  0  0  0  0  0  0  0  0  0  0  0
   -3.5311   -2.7616    0.7732 C   0  0  0  0  0  0  0  0  0  0  0  0
   -4.2371   -2.0766    1.2382 H   0  0  0  0  0  0  0  0  0  0  0  0
   -3.7681   -2.8816   -0.2818 H   0  0  0  0  0  0  0  0  0  0  0  0
   -2.1321   -2.2086    0.9112 C   0  0  0  0  0  0  0  0  0  0  0  0
   -1.2751   -2.8426    1.5112 O   0  0  0  0  0  0  0  0  0  0  0  0
   -1.9041   -1.0186    0.3602 N   0  0  0  0  0  0  0  0  0  0  0  0
   -2.6671   -0.5416   -0.0988 H   0  0  0  0  0  0  0  0  0  0  0  0
   -0.6131   -0.3236    0.3832 C   0  0  1  0  0  0  0  0  0  0  0  0
    0.0993   -0.9311    0.9437 H   0  0  0  0  0  0  0  0  0  0  0  0
   -0.0933   -0.1783   -1.0589 C   0  0  0  0  0  0  0  0  0  0  0  0
   -0.8598    0.3151   -1.6603 H   0  0  0  0  0  0  0  0  0  0  0  0
    0.7975    0.4514   -1.0586 H   0  0  0  0  0  0  0  0  0  0  0  0
    0.2528   -1.5161   -1.7228 C   0  0  0  0  0  0  0  0  0  0  0  0
   -0.6385   -2.1422   -1.7511 H   0  0  0  0  0  0  0  0  0  0  0  0
    0.5799   -1.3254   -2.7455 H   0  0  0  0  0  0  0  0  0  0  0  0
    1.5579   -2.4349   -0.8671 S   0  0  0  0  0  0  0  0  0  0  0  0
    2.9747   -1.3631   -1.2218 C   0  0  0  0  0  0  0  0  0  0  0  0
    2.7960   -0.3693   -0.8103 H   0  0  0  0  0  0  0  0  0  0  0  0
    3.8704   -1.7851   -0.7652 H   0  0  0  0  0  0  0  0  0  0  0  0
    3.1212   -1.2919   -2.2999 H   0  0  0  0  0  0  0  0  0  0  0  0
   -0.7458    1.0326    1.0906 C   0  0  0  0  0  0  0  0  0  0  0  0
   -0.0870    1.2677    2.1015 O   0  0  0  0  0  0  0  0  0  0  0  0
   -1.6018    1.9193    0.5667 N   0  0  0  0  0  0  0  0  0  0  0  0
   -2.0959    1.6612   -0.2726 H   0  0  0  0  0  0  0  0  0  0  0  0
   -1.8511    3.2448    1.1311 C   0  0  0  0  0  0  0  0  0  0  0  0
   -0.9141    3.8044    1.1832 H   0  0  0  0  0  0  0  0  0  0  0  0
   -2.5631    3.7934    0.5131 H   0  0  0  0  0  0  0  0  0  0  0  0
   -2.2507    3.1455    2.1419 H   0  0  0  0  0  0  0  0  0  0  0  0
  5  6  2  0  0  0  0
  5  7  1  0  0  0  0
  2  3  1  0  0  0  0
  2  4  1  0  0  0  0
  2  5  1  0  0  0  0
  1  2  1  0  0  0  0
 22 23  2  0  0  0  0
 22 24  1  0  0  0  0
 18 19  1  0  0  0  0
 18 20  1  0  0  0  0
 18 21  1  0  0  0  0
 17 18  1  0  0  0  0
 14 15  1  0  0  0  0
 14 16  1  0  0  0  0
 14 17  1  0  0  0  0
 11 12  1  0  0  0  0
 11 13  1  0  0  0  0
 11 14  1  0  0  0  0
  9 10  1  0  0  0  0
  9 11  1  0  0  0  0
  9 22  1  0  0  0  0
  7  8  1  0  0  0  0
  7  9  1  0  0  0  0
 26 27  1  0  0  0  0
 26 28  1  0  0  0  0
 26 29  1  0  0  0  0
 24 25  1  0  0  0  0
 24 26  1  0  0  0  0
M  END
$$$$
default_name
  -OEChem-01062215323D

 29 28  0     1  0  0  0  0  0999 V2000
   -3.5781   -3.7296    1.2702 H   0  0  0  0  0  0  0  0  0  0  0  0
   -3.5311   -2.7616    0.7732 C   0  0  0  0  0  0  0  0  0  0  0  0
   -4.2371   -2.0766    1.2382 H   0  0  0  0  0  0  0  0  0  0  0  0
   -3.7681   -2.8816   -0.2818 H   0  0  0  0  0  0  0  0  0  0  0  0
   -2.1321   -2.2086    0.9112 C   0  0  0  0  0  0  0  0  0  0  0  0
   -1.2751   -2.8426    1.5112 O   0  0  0  0  0  0  0  0  0  0  0  0
   -1.9041   -1.0186    0.3602 N   0  0  0  0  0  0  0  0  0  0  0  0
   -2.6671   -0.5416   -0.0988 H   0  0  0  0  0  0  0  0  0  0  0  0
   -0.6131   -0.3236    0.3832 C   0  0  1  0  0  0  0  0  0  0  0  0
    0.0993   -0.9311    0.9437 H   0  0  0  0  0  0  0  0  0  0  0  0
   -0.0933   -0.1783   -1.0589 C   0  0  0  0  0  0  0  0  0  0  0  0
   -0.8598    0.3151   -1.6603 H   0  0  0  0  0  0  0  0  0  0  0  0
    0.7975    0.4514   -1.0586 H   0  0  0  0  0  0  0  0  0  0  0  0
    0.2528   -1.5161   -1.7228 C   0  0  0  0  0  0  0  0  0  0  0  0
   -0.6385   -2.1422   -1.7511 H   0  0  0  0  0  0  0  0  0  0  0  0
    0.5799   -1.3254   -2.7455 H   0  0  0  0  0  0  0  0  0  0  0  0
    1.5579   -2.4349   -0.8671 S   0  0  0  0  0  0  0  0  0  0  0  0
    2.9747   -1.3631   -1.2218 C   0  0  0  0  0  0  0  0  0  0  0  0
    2.7960   -0.3693   -0.8103 H   0  0  0  0  0  0  0  0  0  0  0  0
    3.8704   -1.7851   -0.7652 H   0  0  0  0  0  0  0  0  0  0  0  0
    3.1212   -1.2919   -2.2999 H   0  0  0  0  0  0  0  0  0  0  0  0
   -0.7458    1.0326    1.0906 C   0  0  0  0  0  0  0  0  0  0  0  0
    0.0918    1.3795    1.9208 O   0  0  0  0  0  0  0  0  0  0  0  0
   -1.8000    1.7938    0.7701 N   0  0  0  0  0  0  0  0  0  0  0  0
   -2.4367    1.4496    0.0691 H   0  0  0  0  0  0  0  0  0  0  0  0
   -2.0740    3.1008    1.3653 C   0  0  0  0  0  0  0  0  0  0  0  0
   -1.2251    3.7674    1.1958 H   0  0  0  0  0  0  0  0  0  0  0  0
   -2.9693    3.5398    0.9231 H   0  0  0  0  0  0  0  0  0  0  0  0
   -2.2183    2.9923    2.4417 H   0  0  0  0  0  0  0  0  0  0  0  0
  5  6  2  0  0  0  0
  5  7  1  0  0  0  0
  2  3  1  0  0  0  0
  2  4  1  0  0  0  0
  2  5  1  0  0  0  0
  1  2  1  0  0  0  0
 22 23  2  0  0  0  0
 22 24  1  0  0  0  0
 18 19  1  0  0  0  0
 18 20  1  0  0  0  0
 18 21  1  0  0  0  0
 17 18  1  0  0  0  0
 14 15  1  0  0  0  0
 14 16  1  0  0  0  0
 14 17  1  0  0  0  0
 11 12  1  0  0  0  0
 11 13  1  0  0  0  0
 11 14  1  0  0  0  0
  9 10  1  0  0  0  0
  9 11  1  0  0  0  0
  9 22  1  0  0  0  0
  7  8  1  0  0  0  0
  7  9  1  0  0  0  0
 26 27  1  0  0  0  0
 26 28  1  0  0  0  0
 26 29  1  0  0  0  0
 24 25  1  0  0  0  0
 24 26  1  0  0  0  0
M  END
$$$$
default_name
  -OEChem-01062215323D

 29 28  0     1  0  0  0  0  0999 V2000
   -3.5781   -3.7296    1.2702 H   0  0  0  0  0  0  0  0  0  0  0  0
   -3.5311   -2.7616    0.7732 C   0  0  0  0  0  0  0  0  0  0  0  0
   -4.2371   -2.0766    1.2382 H   0  0  0  0  0  0  0  0  0  0  0  0
   -3.7681   -2.8816   -0.2818 H   0  0  0  0  0  0  0  0  0  0  0  0
   -2.1321   -2.2086    0.9112 C   0  0  0  0  0  0  0  0  0  0  0  0
   -1.2751   -2.8426    1.5112 O   0  0  0  0  0  0  0  0  0  0  0  0
   -1.9041   -1.0186    0.3602 N   0  0  0  0  0  0  0  0  0  0  0  0
   -2.6671   -0.5416   -0.0988 H   0  0  0  0  0  0  0  0  0  0  0  0
   -0.6131   -0.3236    0.3832 C   0  0  1  0  0  0  0  0  0  0  0  0
    0.0993   -0.9311    0.9437 H   0  0  0  0  0  0  0  0  0  0  0  0
   -0.0933   -0.1783   -1.0589 C   0  0  0  0  0  0  0  0  0  0  0  0
   -0.8598    0.3151   -1.6603 H   0  0  0  0  0  0  0  0  0  0  0  0
    0.7975    0.4514   -1.0586 H   0  0  0  0  0  0  0  0  0  0  0  0
    0.2528   -1.5161   -1.7228 C   0  0  0  0  0  0  0  0  0  0  0  0
   -0.6385   -2.1422   -1.7511 H   0  0  0  0  0  0  0  0  0  0  0  0
    0.5799   -1.3254   -2.7455 H   0  0  0  0  0  0  0  0  0  0  0  0
    1.5579   -2.4349   -0.8671 S   0  0  0  0  0  0  0  0  0  0  0  0
    2.9747   -1.3631   -1.2218 C   0  0  0  0  0  0  0  0  0  0  0  0
    2.7960   -0.3693   -0.8103 H   0  0  0  0  0  0  0  0  0  0  0  0
    3.8704   -1.7851   -0.7652 H   0  0  0  0  0  0  0  0  0  0  0  0
    3.1212   -1.2919   -2.2999 H   0  0  0  0  0  0  0  0  0  0  0  0
   -0.7458    1.0326    1.0906 C   0  0  0  0  0  0  0  0  0  0  0  0
    0.2099    1.5047    1.7030 O   0  0  0  0  0  0  0  0  0  0  0  0
   -1.9299    1.6535    1.0146 N   0  0  0  0  0  0  0  0  0  0  0  0
   -2.6624    1.2123    0.4819 H   0  0  0  0  0  0  0  0  0  0  0  0
   -2.2187    2.9404    1.6458 C   0  0  0  0  0  0  0  0  0  0  0  0
   -1.5182    3.6948    1.2799 H   0  0  0  0  0  0  0  0  0  0  0  0
   -3.2377    3.2556    1.4176 H   0  0  0  0  0  0  0  0  0  0  0  0
   -2.1003    2.8548    2.7275 H   0  0  0  0  0  0  0  0  0  0  0  0
  5  6  2  0  0  0  0
  5  7  1  0  0  0  0
  2  3  1  0  0  0  0
  2  4  1  0  0  0  0
  2  5  1  0  0  0  0
  1  2  1  0  0  0  0
 22 23  2  0  0  0  0
 22 24  1  0  0  0  0
 18 19  1  0  0  0  0
 18 20  1  0  0  0  0
 18 21  1  0  0  0  0
 17 18  1  0  0  0  0
 14 15  1  0  0  0  0
 14 16  1  0  0  0  0
 14 17  1  0  0  0  0
 11 12  1  0  0  0  0
 11 13  1  0  0  0  0
 11 14  1  0  0  0  0
  9 10  1  0  0  0  0
  9 11  1  0  0  0  0
  9 22  1  0  0  0  0
  7  8  1  0  0  0  0
  7  9  1  0  0  0  0
 26 27  1  0  0  0  0
 26 28  1  0  0  0  0
 26 29  1  0  0  0  0
 24 25  1  0  0  0  0
 24 26  1  0  0  0  0
M  END
$$$$
default_name
  -OEChem-01062215323D

 29 28  0     1  0  0  0  0  0999 V2000
   -3.5781   -3.7296    1.2702 H   0  0  0  0  0  0  0  0  0  0  0  0
   -3.5311   -2.7616    0.7732 C   0  0  0  0  0  0  0  0  0  0  0  0
   -4.2371   -2.0766    1.2382 H   0  0  0  0  0  0  0  0  0  0  0  0
   -3.7681   -2.8816   -0.2818 H   0  0  0  0  0  0  0  0  0  0  0  0
   -2.1321   -2.2086    0.9112 C   0  0  0  0  0  0  0  0  0  0  0  0
   -1.2751   -2.8426    1.5112 O   0  0  0  0  0  0  0  0  0  0  0  0
   -1.9041   -1.0186    0.3602 N   0  0  0  0  0  0  0  0  0  0  0  0
   -2.6671   -0.5416   -0.0988 H   0  0  0  0  0  0  0  0  0  0  0  0
   -0.6131   -0.3236    0.3832 C   0  0  1  0  0  0  0  0  0  0  0  0
    0.0993   -0.9311    0.9437 H   0  0  0  0  0  0  0  0  0  0  0  0
   -0.0933   -0.1783   -1.0589 C   0  0  0  0  0  0  0  0  0  0  0  0
   -0.8598    0.3151   -1.6603 H   0  0  0  0  0  0  0  0  0  0  0  0
    0.7975    0.4514   -1.0586 H   0  0  0  0  0  0  0  0  0  0  0  0
    0.2528   -1.5161   -1.7228 C   0  0  0  0  0  0  0  0  0  0  0  0
   -0.6385   -2.1422   -1.7511 H   0  0  0  0  0  0  0  0  0  0  0  0
    0.5799   -1.3254   -2.7455 H   0  0  0  0  0  0  0  0  0  0  0  0
    1.5579   -2.4349   -0.8671 S   0  0  0  0  0  0  0  0  0  0  0  0
    2.9747   -1.3631   -1.2218 C   0  0  0  0  0  0  0  0  0  0  0  0
    2.7960   -0.3693   -0.8103 H   0  0  0  0  0  0  0  0  0  0  0  0
    3.8704   -1.7851   -0.7652 H   0  0  0  0  0  0  0  0  0  0  0  0
    3.1212   -1.2919   -2.2999 H   0  0  0  0  0  0  0  0  0  0  0  0
   -0.7458    1.0326    1.0906 C   0  0  0  0  0  0  0  0  0  0  0  0
    0.2592    1.6348    1.4627 O   0  0  0  0  0  0  0  0  0  0  0  0
   -1.9828    1.5080    1.2837 N   0  0  0  0  0  0  0  0  0  0  0  0
   -2.7578    0.9653    0.9374 H   0  0  0  0  0  0  0  0  0  0  0  0
   -2.2751    2.7744    1.9534 C   0  0  0  0  0  0  0  0  0  0  0  0
   -1.7735    3.5916    1.4298 H   0  0  0  0  0  0  0  0  0  0  0  0
   -3.3499    2.9602    1.9630 H   0  0  0  0  0  0  0  0  0  0  0  0
   -1.9045    2.7425    2.9795 H   0  0  0  0  0  0  0  0  0  0  0  0
  5  6  2  0  0  0  0
  5  7  1  0  0  0  0
  2  3  1  0  0  0  0
  2  4  1  0  0  0  0
  2  5  1  0  0  0  0
  1  2  1  0  0  0  0
 22 23  2  0  0  0  0
 22 24  1  0  0  0  0
 18 19  1  0  0  0  0
 18 20  1  0  0  0  0
 18 21  1  0  0  0  0
 17 18  1  0  0  0  0
 14 15  1  0  0  0  0
 14 16  1  0  0  0  0
 14 17  1  0  0  0  0
 11 12  1  0  0  0  0
 11 13  1  0  0  0  0
 11 14  1  0  0  0  0
  9 10  1  0  0  0  0
  9 11  1  0  0  0  0
  9 22  1  0  0  0  0
  7  8  1  0  0  0  0
  7  9  1  0  0  0  0
 26 27  1  0  0  0  0
 26 28  1  0  0  0  0
 26 29  1  0  0  0  0
 24 25  1  0  0  0  0
 24 26  1  0  0  0  0
M  END
$$$$
default_name
  -OEChem-01062215323D

 29 28  0     1  0  0  0  0  0999 V2000
   -3.5781   -3.7296    1.2702 H   0  0  0  0  0  0  0  0  0  0  0  0
   -3.5311   -2.7616    0.7732 C   0  0  0  0  0  0  0  0  0  0  0  0
   -4.2371   -2.0766    1.2382 H   0  0  0  0  0  0  0  0  0  0  0  0
   -3.7681   -2.8816   -0.2818 H   0  0  0  0  0  0  0  0  0  0  0  0
   -2.1321   -2.2086    0.9112 C   0  0  0  0  0  0  0  0  0  0  0  0
   -1.2751   -2.8426    1.5112 O   0  0  0  0  0  0  0  0  0  0  0  0
   -1.9041   -1.0186    0.3602 N   0  0  0  0  0  0  0  0  0  0  0  0
   -2.6671   -0.5416   -0.0988 H   0  0  0  0  0  0  0  0  0  0  0  0
   -0.6131   -0.3236    0.3832 C   0  0  1  0  0  0  0  0  0  0  0  0
    0.0993   -0.9311    0.9437 H   0  0  0  0  0  0  0  0  0  0  0  0
   -0.0933   -0.1783   -1.0589 C   0  0  0  0  0  0  0  0  0  0  0  0
   -0.8598    0.3151   -1.6603 H   0  0  0  0  0  0  0  0  0  0  0  0
    0.7975    0.4514   -1.0586 H   0  0  0  0  0  0  0  0  0  0  0  0
    0.2528   -1.5161   -1.7228 C   0  0  0  0  0  0  0  0  0  0  0  0
   -0.6385   -2.1422   -1.7511 H   0  0  0  0  0  0  0  0  0  0  0  0
    0.5799   -1.3254   -2.7455 H   0  0  0  0  0  0  0  0  0  0  0  0
    1.5579   -2.4349   -0.8671 S   0  0  0  0  0  0  0  0  0  0  0  0
    2.9747   -1.3631   -1.2218 C   0  0  0  0  0  0  0  0  0  0  0  0
    2.7960   -0.3693   -0.8103 H   0  0  0  0  0  0  0  0  0  0  0  0
    3.8704   -1.7851   -0.7652 H   0  0  0  0  0  0  0  0  0  0  0  0
    3.1212   -1.2919   -2.2999 H   0  0  0  0  0  0  0  0  0  0  0  0
   -0.7458    1.0326    1.0906 C   0  0  0  0  0  0  0  0  0  0  0  0
    0.2364    1.7610    1.2165 O   0  0  0  0  0  0  0  0  0  0  0  0
   -1.9550    1.3672    1.5590 N   0  0  0  0  0  0  0  0  0  0  0  0
   -2.7164    0.7256    1.4048 H   0  0  0  0  0  0  0  0  0  0  0  0
   -2.2396    2.6143    2.2671 C   0  0  0  0  0  0  0  0  0  0  0  0
   -1.9734    3.4649    1.6353 H   0  0  0  0  0  0  0  0  0  0  0  0
   -3.2985    2.6736    2.5220 H   0  0  0  0  0  0  0  0  0  0  0  0
   -1.6443    2.6630    3.1807 H   0  0  0  0  0  0  0  0  0  0  0  0
  5  6  2  0  0  0  0
  5  7  1  0  0  0  0
  2  3  1  0  0  0  0
  2  4  1  0  0  0  0
  2  5  1  0  0  0  0
  1  2  1  0  0  0  0
 22 23  2  0  0  0  0
 22 24  1  0  0  0  0
 18 19  1  0  0  0  0
 18 20  1  0  0  0  0
 18 21  1  0  0  0  0
 17 18  1  0  0  0  0
 14 15  1  0  0  0  0
 14 16  1  0  0  0  0
 14 17  1  0  0  0  0
 11 12  1  0  0  0  0
 11 13  1  0  0  0  0
 11 14  1  0  0  0  0
  9 10  1  0  0  0  0
  9 11  1  0  0  0  0
  9 22  1  0  0  0  0
  7  8  1  0  0  0  0
  7  9  1  0  0  0  0
 26 27  1  0  0  0  0
 26 28  1  0  0  0  0
 26 29  1  0  0  0  0
 24 25  1  0  0  0  0
 24 26  1  0  0  0  0
M  END
$$$$
default_name
  -OEChem-01062215323D

 29 28  0     1  0  0  0  0  0999 V2000
   -3.5781   -3.7296    1.2702 H   0  0  0  0  0  0  0  0  0  0  0  0
   -3.5311   -2.7616    0.7732 C   0  0  0  0  0  0  0  0  0  0  0  0
   -4.2371   -2.0766    1.2382 H   0  0  0  0  0  0  0  0  0  0  0  0
   -3.7681   -2.8816   -0.2818 H   0  0  0  0  0  0  0  0  0  0  0  0
   -2.1321   -2.2086    0.9112 C   0  0  0  0  0  0  0  0  0  0  0  0
   -1.2751   -2.8426    1.5112 O   0  0  0  0  0  0  0  0  0  0  0  0
   -1.9041   -1.0186    0.3602 N   0  0  0  0  0  0  0  0  0  0  0  0
   -2.6671   -0.5416   -0.0988 H   0  0  0  0  0  0  0  0  0  0  0  0
   -0.6131   -0.3236    0.3832 C   0  0  1  0  0  0  0  0  0  0  0  0
    0.0993   -0.9311    0.9437 H   0  0  0  0  0  0  0  0  0  0  0  0
   -0.0933   -0.1783   -1.0589 C   0  0  0  0  0  0  0  0  0  0  0  0
   -0.8598    0.3151   -1.6603 H   0  0  0  0  0  0  0  0  0  0  0  0
    0.7975    0.4514   -1.0586 H   0  0  0  0  0  0  0  0  0  0  0  0
    0.2528   -1.5161   -1.7228 C   0  0  0  0  0  0  0  0  0  0  0  0
   -0.6385   -2.1422   -1.7511 H   0  0  0  0  0  0  0  0  0  0  0  0
    0.5799   -1.3254   -2.7455 H   0  0  0  0  0  0  0  0  0  0  0  0
    1.5579   -2.4349   -0.8671 S   0  0  0  0  0  0  0  0  0  0  0  0
    2.9747   -1.3631   -1.2218 C   0  0  0  0  0  0  0  0  0  0  0  0
    2.7960   -0.3693   -0.8103 H   0  0  0  0  0  0  0  0  0  0  0  0
    3.8704   -1.7851   -0.7652 H   0  0  0  0  0  0  0  0  0  0  0  0
    3.1212   -1.2919   -2.2999 H   0  0  0  0  0  0  0  0  0  0  0  0
   -0.7458    1.0326    1.0906 C   0  0  0  0  0  0  0  0  0  0  0  0
    0.1431    1.8747    0.9810 O   0  0  0  0  0  0  0  0  0  0  0  0
   -1.8484    1.2406    1.8216 N   0  0  0  0  0  0  0  0  0  0  0  0
   -2.5409    0.5094    1.8522 H   0  0  0  0  0  0  0  0  0  0  0  0
   -2.1144    2.4708    2.5656 C   0  0  0  0  0  0  0  0  0  0  0  0
   -2.1045    3.3232    1.8823 H   0  0  0  0  0  0  0  0  0  0  0  0
   -3.0868    2.4155    3.0567 H   0  0  0  0  0  0  0  0  0  0  0  0
   -1.3376    2.6218    3.3174 H   0  0  0  0  0  0  0  0  0  0  0  0
  5  6  2  0  0  0  0
  5  7  1  0  0  0  0
  2  3  1  0  0  0  0
  2  4  1  0  0  0  0
  2  5  1  0  0  0  0
  1  2  1  0  0  0  0
 22 23  2  0  0  0  0
 22 24  1  0  0  0  0
 18 19  1  0  0  0  0
 18 20  1  0  0  0  0
 18 21  1  0  0  0  0
 17 18  1  0  0  0  0
 14 15  1  0  0  0  0
 14 16  1  0  0  0  0
 14 17  1  0  0  0  0
 11 12  1  0  0  0  0
 11 13  1  0  0  0  0
 11 14  1  0  0  0  0
  9 10  1  0  0  0  0
  9 11  1  0  0  0  0
  9 22  1  0  0  0  0
  7  8  1  0  0  0  0
  7  9  1  0  0  0  0
 26 27  1  0  0  0  0
 26 28  1  0  0  0  0
 26 29  1  0  0  0  0
 24 25  1  0  0  0  0
 24 26  1  0  0  0  0
M  END
$$$$
default_name
  -OEChem-01062215323D

 29 28  0     1  0  0  0  0  0999 V2000
   -3.5781   -3.7296    1.2702 H   0  0  0  0  0  0  0  0  0  0  0  0
   -3.5311   -2.7616    0.7732 C   0  0  0  0  0  0  0  0  0  0  0  0
   -4.2371   -2.0766    1.2382 H   0  0  0  0  0  0  0  0  0  0  0  0
   -3.7681   -2.8816   -0.2818 H   0  0  0  0  0  0  0  0  0  0  0  0
   -2.1321   -2.2086    0.9112 C   0  0  0  0  0  0  0  0  0  0  0  0
   -1.2751   -2.8426    1.5112 O   0  0  0  0  0  0  0  0  0  0  0  0
   -1.9041   -1.0186    0.3602 N   0  0  0  0  0  0  0  0  0  0  0  0
   -2.6671   -0.5416   -0.0988 H   0  0  0  0  0  0  0  0  0  0  0  0
   -0.6131   -0.3236    0.3832 C   0  0  1  0  0  0  0  0  0  0  0  0
    0.0993   -0.9311    0.9437 H   0  0  0  0  0  0  0  0  0  0  0  0
   -0.0933   -0.1783   -1.0589 C   0  0  0  0  0  0  0  0  0  0  0  0
   -0.8598    0.3151   -1.6603 H   0  0  0  0  0  0  0  0  0  0  0  0
    0.7975    0.4514   -1.0586 H   0  0  0  0  0  0  0  0  0  0  0  0
    0.2528   -1.5161   -1.7228 C   0  0  0  0  0  0  0  0  0  0  0  0
   -0.6385   -2.1422   -1.7511 H   0  0  0  0  0  0  0  0  0  0  0  0
    0.5799   -1.3254   -2.7455 H   0  0  0  0  0  0  0  0  0  0  0  0
    1.5579   -2.4349   -0.8671 S   0  0  0  0  0  0  0  0  0  0  0  0
    2.9747   -1.3631   -1.2218 C   0  0  0  0  0  0  0  0  0  0  0  0
    2.7960   -0.3693   -0.8103 H   0  0  0  0  0  0  0  0  0  0  0  0
    3.8704   -1.7851   -0.7652 H   0  0  0  0  0  0  0  0  0  0  0  0
    3.1212   -1.2919   -2.2999 H   0  0  0  0  0  0  0  0  0  0  0  0
   -0.7458    1.0326    1.0906 C   0  0  0  0  0  0  0  0  0  0  0  0
   -0.0145    1.9681    0.7723 O   0  0  0  0  0  0  0  0  0  0  0  0
   -1.6703    1.1369    2.0538 N   0  0  0  0  0  0  0  0  0  0  0  0
   -2.2434    0.3316    2.2491 H   0  0  0  0  0  0  0  0  0  0  0  0
   -1.9081    2.3539    2.8285 C   0  0  0  0  0  0  0  0  0  0  0  0
   -2.1577    3.1763    2.1540 H   0  0  0  0  0  0  0  0  0  0  0  0
   -2.7293    2.2033    3.5305 H   0  0  0  0  0  0  0  0  0  0  0  0
   -1.0052    2.6216    3.3802 H   0  0  0  0  0  0  0  0  0  0  0  0
  5  6  2  0  0  0  0
  5  7  1  0  0  0  0
  2  3  1  0  0  0  0
  2  4  1  0  0  0  0
  2  5  1  0  0  0  0
  1  2  1  0  0  0  0
 22 23  2  0  0  0  0
 22 24  1  0  0  0  0
 18 19  1  0  0  0  0
 18 20  1  0  0  0  0
 18 21  1  0  0  0  0
 17 18  1  0  0  0  0
 14 15  1  0  0  0  0
 14 16  1  0  0  0  0
 14 17  1  0  0  0  0
 11 12  1  0  0  0  0
 11 13  1  0  0  0  0
 11 14  1  0  0  0  0
  9 10  1  0  0  0  0
  9 11  1  0  0  0  0
  9 22  1  0  0  0  0
  7  8  1  0  0  0  0
  7  9  1  0  0  0  0
 26 27  1  0  0  0  0
 26 28  1  0  0  0  0
 26 29  1  0  0  0  0
 24 25  1  0  0  0  0
 24 26  1  0  0  0  0
M  END
$$$$
default_name
  -OEChem-01062215323D

 29 28  0     1  0  0  0  0  0999 V2000
   -3.5781   -3.7296    1.2702 H   0  0  0  0  0  0  0  0  0  0  0  0
   -3.5311   -2.7616    0.7732 C   0  0  0  0  0  0  0  0  0  0  0  0
   -4.2371   -2.0766    1.2382 H   0  0  0  0  0  0  0  0  0  0  0  0
   -3.7681   -2.8816   -0.2818 H   0  0  0  0  0  0  0  0  0  0  0  0
   -2.1321   -2.2086    0.9112 C   0  0  0  0  0  0  0  0  0  0  0  0
   -1.2751   -2.8426    1.5112 O   0  0  0  0  0  0  0  0  0  0  0  0
   -1.9041   -1.0186    0.3602 N   0  0  0  0  0  0  0  0  0  0  0  0
   -2.6671   -0.5416   -0.0988 H   0  0  0  0  0  0  0  0  0  0  0  0
   -0.6131   -0.3236    0.3832 C   0  0  1  0  0  0  0  0  0  0  0  0
    0.0993   -0.9311    0.9437 H   0  0  0  0  0  0  0  0  0  0  0  0
   -0.0933   -0.1783   -1.0589 C   0  0  0  0  0  0  0  0  0  0  0  0
   -0.8598    0.3151   -1.6603 H   0  0  0  0  0  0  0  0  0  0  0  0
    0.7975    0.4514   -1.0586 H   0  0  0  0  0  0  0  0  0  0  0  0
    0.2528   -1.5161   -1.7228 C   0  0  0  0  0  0  0  0  0  0  0  0
   -0.6385   -2.1422   -1.7511 H   0  0  0  0  0  0  0  0  0  0  0  0
    0.5799   -1.3254   -2.7455 H   0  0  0  0  0  0  0  0  0  0  0  0
    1.5579   -2.4349   -0.8671 S   0  0  0  0  0  0  0  0  0  0  0  0
    2.9747   -1.3631   -1.2218 C   0  0  0  0  0  0  0  0  0  0  0  0
    2.7960   -0.3693   -0.8103 H   0  0  0  0  0  0  0  0  0  0  0  0
    3.8704   -1.7851   -0.7652 H   0  0  0  0  0  0  0  0  0  0  0  0
    3.1212   -1.2919   -2.2999 H   0  0  0  0  0  0  0  0  0  0  0  0
   -0.7458    1.0326    1.0906 C   0  0  0  0  0  0  0  0  0  0  0  0
   -0.2255    2.0349    0.6047 O   0  0  0  0  0  0  0  0  0  0  0  0
   -1.4329    1.0632    2.2397 N   0  0  0  0  0  0  0  0  0  0  0  0
   -1.8440    0.2041    2.5683 H   0  0  0  0  0  0  0  0  0  0  0  0
   -1.6348    2.2714    3.0379 C   0  0  0  0  0  0  0  0  0  0  0  0
   -2.1295    3.0341    2.4319 H   0  0  0  0  0  0  0  0  0  0  0  0
   -2.2503    2.0517    3.9112 H   0  0  0  0  0  0  0  0  0  0  0  0
   -0.6696    2.6624    3.3648 H   0  0  0  0  0  0  0  0  0  0  0  0
  5  6  2  0  0  0  0
  5  7  1  0  0  0  0
  2  3  1  0  0  0  0
  2  4  1  0  0  0  0
  2  5  1  0  0  0  0
  1  2  1  0  0  0  0
 22 23  2  0  0  0  0
 22 24  1  0  0  0  0
 18 19  1  0  0  0  0
 18 20  1  0  0  0  0
 18 21  1  0  0  0  0
 17 18  1  0  0  0  0
 14 15  1  0  0  0  0
 14 16  1  0  0  0  0
 14 17  1  0  0  0  0
 11 12  1  0  0  0  0
 11 13  1  0  0  0  0
 11 14  1  0  0  0  0
  9 10  1  0  0  0  0
  9 11  1  0  0  0  0
  9 22  1  0  0  0  0
  7  8  1  0  0  0  0
  7  9  1  0  0  0  0
 26 27  1  0  0  0  0
 26 28  1  0  0  0  0
 26 29  1  0  0  0  0
 24 25  1  0  0  0  0
 24 26  1  0  0  0  0
M  END
$$$$
default_name
  -OEChem-01062215323D

 29 28  0     1  0  0  0  0  0999 V2000
   -3.5781   -3.7296    1.2702 H   0  0  0  0  0  0  0  0  0  0  0  0
   -3.5311   -2.7616    0.7732 C   0  0  0  0  0  0  0  0  0  0  0  0
   -4.2371   -2.0766    1.2382 H   0  0  0  0  0  0  0  0  0  0  0  0
   -3.7681   -2.8816   -0.2818 H   0  0  0  0  0  0  0  0  0  0  0  0
   -2.1321   -2.2086    0.9112 C   0  0  0  0  0  0  0  0  0  0  0  0
   -1.2751   -2.8426    1.5112 O   0  0  0  0  0  0  0  0  0  0  0  0
   -1.9041   -1.0186    0.3602 N   0  0  0  0  0  0  0  0  0  0  0  0
   -2.6671   -0.5416   -0.0988 H   0  0  0  0  0  0  0  0  0  0  0  0
   -0.6131   -0.3236    0.3832 C   0  0  1  0  0  0  0  0  0  0  0  0
    0.0993   -0.9311    0.9437 H   0  0  0  0  0  0  0  0  0  0  0  0
   -0.0933   -0.1783   -1.0589 C   0  0  0  0  0  0  0  0  0  0  0  0
   -0.8598    0.3151   -1.6603 H   0  0  0  0  0  0  0  0  0  0  0  0
    0.7975    0.4514   -1.0586 H   0  0  0  0  0  0  0  0  0  0  0  0
    0.2528   -1.5161   -1.7228 C   0  0  0  0  0  0  0  0  0  0  0  0
   -0.6385   -2.1422   -1.7511 H   0  0  0  0  0  0  0  0  0  0  0  0
    0.5799   -1.3254   -2.7455 H   0  0  0  0  0  0  0  0  0  0  0  0
    1.5579   -2.4349   -0.8671 S   0  0  0  0  0  0  0  0  0  0  0  0
    2.9747   -1.3631   -1.2218 C   0  0  0  0  0  0  0  0  0  0  0  0
    2.7960   -0.3693   -0.8103 H   0  0  0  0  0  0  0  0  0  0  0  0
    3.8704   -1.7851   -0.7652 H   0  0  0  0  0  0  0  0  0  0  0  0
    3.1212   -1.2919   -2.2999 H   0  0  0  0  0  0  0  0  0  0  0  0
   -0.7458    1.0326    1.0906 C   0  0  0  0  0  0  0  0  0  0  0  0
   -0.4757    2.0704    0.4896 O   0  0  0  0  0  0  0  0  0  0  0  0
   -1.1522    1.0245    2.3666 N   0  0  0  0  0  0  0  0  0  0  0  0
   -1.3701    0.1358    2.7883 H   0  0  0  0  0  0  0  0  0  0  0  0
   -1.3131    2.2290    3.1796 C   0  0  0  0  0  0  0  0  0  0  0  0
   -2.0217    2.9064    2.6971 H   0  0  0  0  0  0  0  0  0  0  0  0
   -1.6826    1.9708    4.1728 H   0  0  0  0  0  0  0  0  0  0  0  0
   -0.3539    2.7415    3.2724 H   0  0  0  0  0  0  0  0  0  0  0  0
  5  6  2  0  0  0  0
  5  7  1  0  0  0  0
  2  3  1  0  0  0  0
  2  4  1  0  0  0  0
  2  5  1  0  0  0  0
  1  2  1  0  0  0  0
 22 23  2  0  0  0  0
 22 24  1  0  0  0  0
 18 19  1  0  0  0  0
 18 20  1  0  0  0  0
 18 21  1  0  0  0  0
 17 18  1  0  0  0  0
 14 15  1  0  0  0  0
 14 16  1  0  0  0  0
 14 17  1  0  0  0  0
 11 12  1  0  0  0  0
 11 13  1  0  0  0  0
 11 14  1  0  0  0  0
  9 10  1  0  0  0  0
  9 11  1  0  0  0  0
  9 22  1  0  0  0  0
  7  8  1  0  0  0  0
  7  9  1  0  0  0  0
 26 27  1  0  0  0  0
 26 28  1  0  0  0  0
 26 29  1  0  0  0  0
 24 25  1  0  0  0  0
 24 26  1  0  0  0  0
M  END
$$$$
default_name
  -OEChem-01062215323D

 29 28  0     1  0  0  0  0  0999 V2000
   -3.5781   -3.7296    1.2702 H   0  0  0  0  0  0  0  0  0  0  0  0
   -3.5311   -2.7616    0.7732 C   0  0  0  0  0  0  0  0  0  0  0  0
   -4.2371   -2.0766    1.2382 H   0  0  0  0  0  0  0  0  0  0  0  0
   -3.7681   -2.8816   -0.2818 H   0  0  0  0  0  0  0  0  0  0  0  0
   -2.1321   -2.2086    0.9112 C   0  0  0  0  0  0  0  0  0  0  0  0
   -1.2751   -2.8426    1.5112 O   0  0  0  0  0  0  0  0  0  0  0  0
   -1.9041   -1.0186    0.3602 N   0  0  0  0  0  0  0  0  0  0  0  0
   -2.6671   -0.5416   -0.0988 H   0  0  0  0  0  0  0  0  0  0  0  0
   -0.6131   -0.3236    0.3832 C   0  0  1  0  0  0  0  0  0  0  0  0
    0.0993   -0.9311    0.9437 H   0  0  0  0  0  0  0  0  0  0  0  0
   -0.0933   -0.1783   -1.0589 C   0  0  0  0  0  0  0  0  0  0  0  0
   -0.8598    0.3151   -1.6603 H   0  0  0  0  0  0  0  0  0  0  0  0
    0.7975    0.4514   -1.0586 H   0  0  0  0  0  0  0  0  0  0  0  0
    0.2528   -1.5161   -1.7228 C   0  0  0  0  0  0  0  0  0  0  0  0
   -0.6385   -2.1422   -1.7511 H   0  0  0  0  0  0  0  0  0  0  0  0
    0.5799   -1.3254   -2.7455 H   0  0  0  0  0  0  0  0  0  0  0  0
    1.5579   -2.4349   -0.8671 S   0  0  0  0  0  0  0  0  0  0  0  0
    2.9747   -1.3631   -1.2218 C   0  0  0  0  0  0  0  0  0  0  0  0
    2.7960   -0.3693   -0.8103 H   0  0  0  0  0  0  0  0  0  0  0  0
    3.8704   -1.7851   -0.7652 H   0  0  0  0  0  0  0  0  0  0  0  0
    3.1212   -1.2919   -2.2999 H   0  0  0  0  0  0  0  0  0  0  0  0
   -0.7458    1.0326    1.0906 C   0  0  0  0  0  0  0  0  0  0  0  0
   -0.7478    2.0724    0.4348 O   0  0  0  0  0  0  0  0  0  0  0  0
   -0.8475    1.0234    2.4259 N   0  0  0  0  0  0  0  0  0  0  0  0
   -0.8539    0.1312    2.8939 H   0  0  0  0  0  0  0  0  0  0  0  0
   -0.9650    2.2296    3.2438 C   0  0  0  0  0  0  0  0  0  0  0  0
   -1.8418    2.8017    2.9314 H   0  0  0  0  0  0  0  0  0  0  0  0
   -1.0647    1.9662    4.2976 H   0  0  0  0  0  0  0  0  0  0  0  0
   -0.0796    2.8535    3.1092 H   0  0  0  0  0  0  0  0  0  0  0  0
  5  6  2  0  0  0  0
  5  7  1  0  0  0  0
  2  3  1  0  0  0  0
  2  4  1  0  0  0  0
  2  5  1  0  0  0  0
  1  2  1  0  0  0  0
 22 23  2  0  0  0  0
 22 24  1  0  0  0  0
 18 19  1  0  0  0  0
 18 20  1  0  0  0  0
 18 21  1  0  0  0  0
 17 18  1  0  0  0  0
 14 15  1  0  0  0  0
 14 16  1  0  0  0  0
 14 17  1  0  0  0  0
 11 12  1  0  0  0  0
 11 13  1  0  0  0  0
 11 14  1  0  0  0  0
  9 10  1  0  0  0  0
  9 11  1  0  0  0  0
  9 22  1  0  0  0  0
  7  8  1  0  0  0  0
  7  9  1  0  0  0  0
 26 27  1  0  0  0  0
 26 28  1  0  0  0  0
 26 29  1  0  0  0  0
 24 25  1  0  0  0  0
 24 26  1  0  0  0  0
M  END
$$$$
default_name
  -OEChem-01062215323D

 29 28  0     1  0  0  0  0  0999 V2000
   -3.5781   -3.7296    1.2702 H   0  0  0  0  0  0  0  0  0  0  0  0
   -3.5311   -2.7616    0.7732 C   0  0  0  0  0  0  0  0  0  0  0  0
   -4.2371   -2.0766    1.2382 H   0  0  0  0  0  0  0  0  0  0  0  0
   -3.7681   -2.8816   -0.2818 H   0  0  0  0  0  0  0  0  0  0  0  0
   -2.1321   -2.2086    0.9112 C   0  0  0  0  0  0  0  0  0  0  0  0
   -1.2751   -2.8426    1.5112 O   0  0  0  0  0  0  0  0  0  0  0  0
   -1.9041   -1.0186    0.3602 N   0  0  0  0  0  0  0  0  0  0  0  0
   -2.6671   -0.5416   -0.0988 H   0  0  0  0  0  0  0  0  0  0  0  0
   -0.6131   -0.3236    0.3832 C   0  0  1  0  0  0  0  0  0  0  0  0
    0.0993   -0.9311    0.9437 H   0  0  0  0  0  0  0  0  0  0  0  0
   -0.0933   -0.1783   -1.0589 C   0  0  0  0  0  0  0  0  0  0  0  0
   -0.8598    0.3151   -1.6603 H   0  0  0  0  0  0  0  0  0  0  0  0
    0.7975    0.4514   -1.0586 H   0  0  0  0  0  0  0  0  0  0  0  0
    0.2528   -1.5161   -1.7228 C   0  0  0  0  0  0  0  0  0  0  0  0
   -0.6385   -2.1422   -1.7511 H   0  0  0  0  0  0  0  0  0  0  0  0
    0.5799   -1.3254   -2.7455 H   0  0  0  0  0  0  0  0  0  0  0  0
    1.5579   -2.4349   -0.8671 S   0  0  0  0  0  0  0  0  0  0  0  0
    2.9747   -1.3631   -1.2218 C   0  0  0  0  0  0  0  0  0  0  0  0
    2.7960   -0.3693   -0.8103 H   0  0  0  0  0  0  0  0  0  0  0  0
    3.8704   -1.7851   -0.7652 H   0  0  0  0  0  0  0  0  0  0  0  0
    3.1212   -1.2919   -2.2999 H   0  0  0  0  0  0  0  0  0  0  0  0
   -0.7458    1.0326    1.0906 C   0  0  0  0  0  0  0  0  0  0  0  0
   -1.0235    2.0406    0.4440 O   0  0  0  0  0  0  0  0  0  0  0  0
   -0.5395    1.0600    2.4135 N   0  0  0  0  0  0  0  0  0  0  0  0
   -0.3306    0.1907    2.8780 H   0  0  0  0  0  0  0  0  0  0  0  0
   -0.6141    2.2731    3.2262 C   0  0  0  0  0  0  0  0  0  0  0  0
   -1.6019    2.7274    3.1190 H   0  0  0  0  0  0  0  0  0  0  0  0
   -0.4389    2.0382    4.2769 H   0  0  0  0  0  0  0  0  0  0  0  0
    0.1348    2.9907    2.8863 H   0  0  0  0  0  0  0  0  0  0  0  0
  5  6  2  0  0  0  0
  5  7  1  0  0  0  0
  2  3  1  0  0  0  0
  2  4  1  0  0  0  0
  2  5  1  0  0  0  0
  1  2  1  0  0  0  0
 22 23  2  0  0  0  0
 22 24  1  0  0  0  0
 18 19  1  0  0  0  0
 18 20  1  0  0  0  0
 18 21  1  0  0  0  0
 17 18  1  0  0  0  0
 14 15  1  0  0  0  0
 14 16  1  0  0  0  0
 14 17  1  0  0  0  0
 11 12  1  0  0  0  0
 11 13  1  0  0  0  0
 11 14  1  0  0  0  0
  9 10  1  0  0  0  0
  9 11  1  0  0  0  0
  9 22  1  0  0  0  0
  7  8  1  0  0  0  0
  7  9  1  0  0  0  0
 26 27  1  0  0  0  0
 26 28  1  0  0  0  0
 26 29  1  0  0  0  0
 24 25  1  0  0  0  0
 24 26  1  0  0  0  0
M  END
$$$$
default_name
  -OEChem-01062215323D

 29 28  0     1  0  0  0  0  0999 V2000
   -3.5781   -3.7296    1.2702 H   0  0  0  0  0  0  0  0  0  0  0  0
   -3.5311   -2.7616    0.7732 C   0  0  0  0  0  0  0  0  0  0  0  0
   -4.2371   -2.0766    1.2382 H   0  0  0  0  0  0  0  0  0  0  0  0
   -3.7681   -2.8816   -0.2818 H   0  0  0  0  0  0  0  0  0  0  0  0
   -2.1321   -2.2086    0.9112 C   0  0  0  0  0  0  0  0  0  0  0  0
   -1.2751   -2.8426    1.5112 O   0  0  0  0  0  0  0  0  0  0  0  0
   -1.9041   -1.0186    0.3602 N   0  0  0  0  0  0  0  0  0  0  0  0
   -2.6671   -0.5416   -0.0988 H   0  0  0  0  0  0  0  0  0  0  0  0
   -0.6131   -0.3236    0.3832 C   0  0  1  0  0  0  0  0  0  0  0  0
    0.0993   -0.9311    0.9437 H   0  0  0  0  0  0  0  0  0  0  0  0
   -0.0933   -0.1783   -1.0589 C   0  0  0  0  0  0  0  0  0  0  0  0
   -0.8598    0.3151   -1.6603 H   0  0  0  0  0  0  0  0  0  0  0  0
    0.7975    0.4514   -1.0586 H   0  0  0  0  0  0  0  0  0  0  0  0
    0.2528   -1.5161   -1.7228 C   0  0  0  0  0  0  0  0  0  0  0  0
   -0.6385   -2.1422   -1.7511 H   0  0  0  0  0  0  0  0  0  0  0  0
    0.5799   -1.3254   -2.7455 H   0  0  0  0  0  0  0  0  0  0  0  0
    1.5579   -2.4349   -0.8671 S   0  0  0  0  0  0  0  0  0  0  0  0
    2.9747   -1.3631   -1.2218 C   0  0  0  0  0  0  0  0  0  0  0  0
    2.7960   -0.3693   -0.8103 H   0  0  0  0  0  0  0  0  0  0  0  0
    3.8704   -1.7851   -0.7652 H   0  0  0  0  0  0  0  0  0  0  0  0
    3.1212   -1.2919   -2.2999 H   0  0  0  0  0  0  0  0  0  0  0  0
   -0.7458    1.0326    1.0906 C   0  0  0  0  0  0  0  0  0  0  0  0
   -1.2839    1.9772    0.5166 O   0  0  0  0  0  0  0  0  0  0  0  0
   -0.2491    1.1318    2.3303 N   0  0  0  0  0  0  0  0  0  0  0  0
    0.1642    0.3103    2.7417 H   0  0  0  0  0  0  0  0  0  0  0  0
   -0.2843    2.3566    3.1280 C   0  0  0  0  0  0  0  0  0  0  0  0
   -1.3185    2.6884    3.2470 H   0  0  0  0  0  0  0  0  0  0  0  0
    0.1524    2.1820    4.1122 H   0  0  0  0  0  0  0  0  0  0  0  0
    0.2745    3.1439    2.6189 H   0  0  0  0  0  0  0  0  0  0  0  0
  5  6  2  0  0  0  0
  5  7  1  0  0  0  0
  2  3  1  0  0  0  0
  2  4  1  0  0  0  0
  2  5  1  0  0  0  0
  1  2  1  0  0  0  0
 22 23  2  0  0  0  0
 22 24  1  0  0  0  0
 18 19  1  0  0  0  0
 18 20  1  0  0  0  0
 18 21  1  0  0  0  0
 17 18  1  0  0  0  0
 14 15  1  0  0  0  0
 14 16  1  0  0  0  0
 14 17  1  0  0  0  0
 11 12  1  0  0  0  0
 11 13  1  0  0  0  0
 11 14  1  0  0  0  0
  9 10  1  0  0  0  0
  9 11  1  0  0  0  0
  9 22  1  0  0  0  0
  7  8  1  0  0  0  0
  7  9  1  0  0  0  0
 26 27  1  0  0  0  0
 26 28  1  0  0  0  0
 26 29  1  0  0  0  0
 24 25  1  0  0  0  0
 24 26  1  0  0  0  0
M  END
$$$$
default_name
  -OEChem-01062215323D

 29 28  0     1  0  0  0  0  0999 V2000
   -3.5781   -3.7296    1.2702 H   0  0  0  0  0  0  0  0  0  0  0  0
   -3.5311   -2.7616    0.7732 C   0  0  0  0  0  0  0  0  0  0  0  0
   -4.2371   -2.0766    1.2382 H   0  0  0  0  0  0  0  0  0  0  0  0
   -3.7681   -2.8816   -0.2818 H   0  0  0  0  0  0  0  0  0  0  0  0
   -2.1321   -2.2086    0.9112 C   0  0  0  0  0  0  0  0  0  0  0  0
   -1.2751   -2.8426    1.5112 O   0  0  0  0  0  0  0  0  0  0  0  0
   -1.9041   -1.0186    0.3602 N   0  0  0  0  0  0  0  0  0  0  0  0
   -2.6671   -0.5416   -0.0988 H   0  0  0  0  0  0  0  0  0  0  0  0
   -0.6131   -0.3236    0.3832 C   0  0  1  0  0  0  0  0  0  0  0  0
    0.0993   -0.9311    0.9437 H   0  0  0  0  0  0  0  0  0  0  0  0
   -0.0933   -0.1783   -1.0589 C   0  0  0  0  0  0  0  0  0  0  0  0
   -0.8598    0.3151   -1.6603 H   0  0  0  0  0  0  0  0  0  0  0  0
    0.7975    0.4514   -1.0586 H   0  0  0  0  0  0  0  0  0  0  0  0
    0.2528   -1.5161   -1.7228 C   0  0  0  0  0  0  0  0  0  0  0  0
   -0.6385   -2.1422   -1.7511 H   0  0  0  0  0  0  0  0  0  0  0  0
    0.5799   -1.3254   -2.7455 H   0  0  0  0  0  0  0  0  0  0  0  0
    1.5579   -2.4349   -0.8671 S   0  0  0  0  0  0  0  0  0  0  0  0
    2.9747   -1.3631   -1.2218 C   0  0  0  0  0  0  0  0  0  0  0  0
    2.7960   -0.3693   -0.8103 H   0  0  0  0  0  0  0  0  0  0  0  0
    3.8704   -1.7851   -0.7652 H   0  0  0  0  0  0  0  0  0  0  0  0
    3.1212   -1.2919   -2.2999 H   0  0  0  0  0  0  0  0  0  0  0  0
   -0.7458    1.0326    1.0906 C   0  0  0  0  0  0  0  0  0  0  0  0
   -1.5112    1.8866    0.6477 O   0  0  0  0  0  0  0  0  0  0  0  0
    0.0037    1.2340    2.1819 N   0  0  0  0  0  0  0  0  0  0  0  0
    0.5967    0.4817    2.4943 H   0  0  0  0  0  0  0  0  0  0  0  0
    0.0018    2.4744    2.9559 C   0  0  0  0  0  0  0  0  0  0  0  0
   -1.0108    2.6873    3.3067 H   0  0  0  0  0  0  0  0  0  0  0  0
    0.6686    2.3877    3.8148 H   0  0  0  0  0  0  0  0  0  0  0  0
    0.3301    3.3025    2.3252 H   0  0  0  0  0  0  0  0  0  0  0  0
  5  6  2  0  0  0  0
  5  7  1  0  0  0  0
  2  3  1  0  0  0  0
  2  4  1  0  0  0  0
  2  5  1  0  0  0  0
  1  2  1  0  0  0  0
 22 23  2  0  0  0  0
 22 24  1  0  0  0  0
 18 19  1  0  0  0  0
 18 20  1  0  0  0  0
 18 21  1  0  0  0  0
 17 18  1  0  0  0  0
 14 15  1  0  0  0  0
 14 16  1  0  0  0  0
 14 17  1  0  0  0  0
 11 12  1  0  0  0  0
 11 13  1  0  0  0  0
 11 14  1  0  0  0  0
  9 10  1  0  0  0  0
  9 11  1  0  0  0  0
  9 22  1  0  0  0  0
  7  8  1  0  0  0  0
  7  9  1  0  0  0  0
 26 27  1  0  0  0  0
 26 28  1  0  0  0  0
 26 29  1  0  0  0  0
 24 25  1  0  0  0  0
 24 26  1  0  0  0  0
M  END
$$$$
default_name
  -OEChem-01062215323D

 29 28  0     1  0  0  0  0  0999 V2000
   -3.5781   -3.7296    1.2702 H   0  0  0  0  0  0  0  0  0  0  0  0
   -3.5311   -2.7616    0.7732 C   0  0  0  0  0  0  0  0  0  0  0  0
   -4.2371   -2.0766    1.2382 H   0  0  0  0  0  0  0  0  0  0  0  0
   -3.7681   -2.8816   -0.2818 H   0  0  0  0  0  0  0  0  0  0  0  0
   -2.1321   -2.2086    0.9112 C   0  0  0  0  0  0  0  0  0  0  0  0
   -1.2751   -2.8426    1.5112 O   0  0  0  0  0  0  0  0  0  0  0  0
   -1.9041   -1.0186    0.3602 N   0  0  0  0  0  0  0  0  0  0  0  0
   -2.6671   -0.5416   -0.0988 H   0  0  0  0  0  0  0  0  0  0  0  0
   -0.6131   -0.3236    0.3832 C   0  0  1  0  0  0  0  0  0  0  0  0
    0.0993   -0.9311    0.9437 H   0  0  0  0  0  0  0  0  0  0  0  0
   -0.0933   -0.1783   -1.0589 C   0  0  0  0  0  0  0  0  0  0  0  0
   -0.8598    0.3151   -1.6603 H   0  0  0  0  0  0  0  0  0  0  0  0
    0.7975    0.4514   -1.0586 H   0  0  0  0  0  0  0  0  0  0  0  0
    0.2528   -1.5161   -1.7228 C   0  0  0  0  0  0  0  0  0  0  0  0
   -0.6385   -2.1422   -1.7511 H   0  0  0  0  0  0  0  0  0  0  0  0
    0.5799   -1.3254   -2.7455 H   0  0  0  0  0  0  0  0  0  0  0  0
    1.5579   -2.4349   -0.8671 S   0  0  0  0  0  0  0  0  0  0  0  0
    2.9747   -1.3631   -1.2218 C   0  0  0  0  0  0  0  0  0  0  0  0
    2.7960   -0.3693   -0.8103 H   0  0  0  0  0  0  0  0  0  0  0  0
    3.8704   -1.7851   -0.7652 H   0  0  0  0  0  0  0  0  0  0  0  0
    3.1212   -1.2919   -2.2999 H   0  0  0  0  0  0  0  0  0  0  0  0
   -0.7458    1.0326    1.0906 C   0  0  0  0  0  0  0  0  0  0  0  0
   -1.6900    1.7749    0.8284 O   0  0  0  0  0  0  0  0  0  0  0  0
    0.2019    1.3594    1.9786 N   0  0  0  0  0  0  0  0  0  0  0  0
    0.9374    0.6933    2.1525 H   0  0  0  0  0  0  0  0  0  0  0  0
    0.2248    2.6184    2.7217 C   0  0  0  0  0  0  0  0  0  0  0  0
   -0.6998    2.7244    3.2941 H   0  0  0  0  0  0  0  0  0  0  0  0
    1.0748    2.6413    3.4048 H   0  0  0  0  0  0  0  0  0  0  0  0
    0.2977    3.4557    2.0253 H   0  0  0  0  0  0  0  0  0  0  0  0
  5  6  2  0  0  0  0
  5  7  1  0  0  0  0
  2  3  1  0  0  0  0
  2  4  1  0  0  0  0
  2  5  1  0  0  0  0
  1  2  1  0  0  0  0
 22 23  2  0  0  0  0
 22 24  1  0  0  0  0
 18 19  1  0  0  0  0
 18 20  1  0  0  0  0
 18 21  1  0  0  0  0
 17 18  1  0  0  0  0
 14 15  1  0  0  0  0
 14 16  1  0  0  0  0
 14 17  1  0  0  0  0
 11 12  1  0  0  0  0
 11 13  1  0  0  0  0
 11 14  1  0  0  0  0
  9 10  1  0  0  0  0
  9 11  1  0  0  0  0
  9 22  1  0  0  0  0
  7  8  1  0  0  0  0
  7  9  1  0  0  0  0
 26 27  1  0  0  0  0
 26 28  1  0  0  0  0
 26 29  1  0  0  0  0
 24 25  1  0  0  0  0
 24 26  1  0  0  0  0
M  END
$$$$
default_name
  -OEChem-01062215323D

 29 28  0     1  0  0  0  0  0999 V2000
   -3.5781   -3.7296    1.2702 H   0  0  0  0  0  0  0  0  0  0  0  0
   -3.5311   -2.7616    0.7732 C   0  0  0  0  0  0  0  0  0  0  0  0
   -4.2371   -2.0766    1.2382 H   0  0  0  0  0  0  0  0  0  0  0  0
   -3.7681   -2.8816   -0.2818 H   0  0  0  0  0  0  0  0  0  0  0  0
   -2.1321   -2.2086    0.9112 C   0  0  0  0  0  0  0  0  0  0  0  0
   -1.2751   -2.8426    1.5112 O   0  0  0  0  0  0  0  0  0  0  0  0
   -1.9041   -1.0186    0.3602 N   0  0  0  0  0  0  0  0  0  0  0  0
   -2.6671   -0.5416   -0.0988 H   0  0  0  0  0  0  0  0  0  0  0  0
   -0.6131   -0.3236    0.3832 C   0  0  1  0  0  0  0  0  0  0  0  0
    0.0993   -0.9311    0.9437 H   0  0  0  0  0  0  0  0  0  0  0  0
   -0.0933   -0.1783   -1.0589 C   0  0  0  0  0  0  0  0  0  0  0  0
   -0.8598    0.3151   -1.6603 H   0  0  0  0  0  0  0  0  0  0  0  0
    0.7975    0.4514   -1.0586 H   0  0  0  0  0  0  0  0  0  0  0  0
    0.2528   -1.5161   -1.7228 C   0  0  0  0  0  0  0  0  0  0  0  0
   -0.6385   -2.1422   -1.7511 H   0  0  0  0  0  0  0  0  0  0  0  0
    0.5799   -1.3254   -2.7455 H   0  0  0  0  0  0  0  0  0  0  0  0
    1.5579   -2.4349   -0.8671 S   0  0  0  0  0  0  0  0  0  0  0  0
    2.9747   -1.3631   -1.2218 C   0  0  0  0  0  0  0  0  0  0  0  0
    2.7960   -0.3693   -0.8103 H   0  0  0  0  0  0  0  0  0  0  0  0
    3.8704   -1.7851   -0.7652 H   0  0  0  0  0  0  0  0  0  0  0  0
    3.1212   -1.2919   -2.2999 H   0  0  0  0  0  0  0  0  0  0  0  0
   -0.7458    1.0326    1.0906 C   0  0  0  0  0  0  0  0  0  0  0  0
   -1.8081    1.6497    1.0462 O   0  0  0  0  0  0  0  0  0  0  0  0
    0.3318    1.4997    1.7340 N   0  0  0  0  0  0  0  0  0  0  0  0
    1.1632    0.9306    1.7398 H   0  0  0  0  0  0  0  0  0  0  0  0
    0.3694    2.7789    2.4412 C   0  0  0  0  0  0  0  0  0  0  0  0
   -0.4067    2.7969    3.2100 H   0  0  0  0  0  0  0  0  0  0  0  0
    1.3432    2.9255    2.9103 H   0  0  0  0  0  0  0  0  0  0  0  0
    0.1796    3.5932    1.7396 H   0  0  0  0  0  0  0  0  0  0  0  0
  5  6  2  0  0  0  0
  5  7  1  0  0  0  0
  2  3  1  0  0  0  0
  2  4  1  0  0  0  0
  2  5  1  0  0  0  0
  1  2  1  0  0  0  0
 22 23  2  0  0  0  0
 22 24  1  0  0  0  0
 18 19  1  0  0  0  0
 18 20  1  0  0  0  0
 18 21  1  0  0  0  0
 17 18  1  0  0  0  0
 14 15  1  0  0  0  0
 14 16  1  0  0  0  0
 14 17  1  0  0  0  0
 11 12  1  0  0  0  0
 11 13  1  0  0  0  0
 11 14  1  0  0  0  0
  9 10  1  0  0  0  0
  9 11  1  0  0  0  0
  9 22  1  0  0  0  0
  7  8  1  0  0  0  0
  7  9  1  0  0  0  0
 26 27  1  0  0  0  0
 26 28  1  0  0  0  0
 26 29  1  0  0  0  0
 24 25  1  0  0  0  0
 24 26  1  0  0  0  0
M  END
$$$$
default_name
  -OEChem-01062215323D

 29 28  0     1  0  0  0  0  0999 V2000
   -3.5781   -3.7296    1.2702 H   0  0  0  0  0  0  0  0  0  0  0  0
   -3.5311   -2.7616    0.7732 C   0  0  0  0  0  0  0  0  0  0  0  0
   -4.2371   -2.0766    1.2382 H   0  0  0  0  0  0  0  0  0  0  0  0
   -3.7681   -2.8816   -0.2818 H   0  0  0  0  0  0  0  0  0  0  0  0
   -2.1321   -2.2086    0.9112 C   0  0  0  0  0  0  0  0  0  0  0  0
   -1.2751   -2.8426    1.5112 O   0  0  0  0  0  0  0  0  0  0  0  0
   -1.9041   -1.0186    0.3602 N   0  0  0  0  0  0  0  0  0  0  0  0
   -2.6671   -0.5416   -0.0988 H   0  0  0  0  0  0  0  0  0  0  0  0
   -0.6131   -0.3236    0.3832 C   0  0  1  0  0  0  0  0  0  0  0  0
    0.0993   -0.9311    0.9437 H   0  0  0  0  0  0  0  0  0  0  0  0
   -0.0933   -0.1783   -1.0589 C   0  0  0  0  0  0  0  0  0  0  0  0
   -0.8598    0.3151   -1.6603 H   0  0  0  0  0  0  0  0  0  0  0  0
    0.7975    0.4514   -1.0586 H   0  0  0  0  0  0  0  0  0  0  0  0
    0.2528   -1.5161   -1.7228 C   0  0  0  0  0  0  0  0  0  0  0  0
   -0.6385   -2.1422   -1.7511 H   0  0  0  0  0  0  0  0  0  0  0  0
    0.5799   -1.3254   -2.7455 H   0  0  0  0  0  0  0  0  0  0  0  0
    1.5579   -2.4349   -0.8671 S   0  0  0  0  0  0  0  0  0  0  0  0
    2.9747   -1.3631   -1.2218 C   0  0  0  0  0  0  0  0  0  0  0  0
    2.7960   -0.3693   -0.8103 H   0  0  0  0  0  0  0  0  0  0  0  0
    3.8704   -1.7851   -0.7652 H   0  0  0  0  0  0  0  0  0  0  0  0
    3.1212   -1.2919   -2.2999 H   0  0  0  0  0  0  0  0  0  0  0  0
   -0.7458    1.0326    1.0906 C   0  0  0  0  0  0  0  0  0  0  0  0
   -1.8575    1.5195    1.2865 O   0  0  0  0  0  0  0  0  0  0  0  0
    0.3847    1.6452    1.4649 N   0  0  0  0  0  0  0  0  0  0  0  0
    1.2586    1.1776    1.2842 H   0  0  0  0  0  0  0  0  0  0  0  0
    0.4258    2.9448    2.1336 C   0  0  0  0  0  0  0  0  0  0  0  0
   -0.1515    2.9001    3.0601 H   0  0  0  0  0  0  0  0  0  0  0  0
    1.4554    3.2209    2.3649 H   0  0  0  0  0  0  0  0  0  0  0  0
   -0.0162    3.7055    1.4876 H   0  0  0  0  0  0  0  0  0  0  0  0
  5  6  2  0  0  0  0
  5  7  1  0  0  0  0
  2  3  1  0  0  0  0
  2  4  1  0  0  0  0
  2  5  1  0  0  0  0
  1  2  1  0  0  0  0
 22 23  2  0  0  0  0
 22 24  1  0  0  0  0
 18 19  1  0  0  0  0
 18 20  1  0  0  0  0
 18 21  1  0  0  0  0
 17 18  1  0  0  0  0
 14 15  1  0  0  0  0
 14 16  1  0  0  0  0
 14 17  1  0  0  0  0
 11 12  1  0  0  0  0
 11 13  1  0  0  0  0
 11 14  1  0  0  0  0
  9 10  1  0  0  0  0
  9 11  1  0  0  0  0
  9 22  1  0  0  0  0
  7  8  1  0  0  0  0
  7  9  1  0  0  0  0
 26 27  1  0  0  0  0
 26 28  1  0  0  0  0
 26 29  1  0  0  0  0
 24 25  1  0  0  0  0
 24 26  1  0  0  0  0
M  END
$$$$
default_name
  -OEChem-01062215323D

 29 28  0     1  0  0  0  0  0999 V2000
   -3.5781   -3.7296    1.2702 H   0  0  0  0  0  0  0  0  0  0  0  0
   -3.5311   -2.7616    0.7732 C   0  0  0  0  0  0  0  0  0  0  0  0
   -4.2371   -2.0766    1.2382 H   0  0  0  0  0  0  0  0  0  0  0  0
   -3.7681   -2.8816   -0.2818 H   0  0  0  0  0  0  0  0  0  0  0  0
   -2.1321   -2.2086    0.9112 C   0  0  0  0  0  0  0  0  0  0  0  0
   -1.2751   -2.8426    1.5112 O   0  0  0  0  0  0  0  0  0  0  0  0
   -1.9041   -1.0186    0.3602 N   0  0  0  0  0  0  0  0  0  0  0  0
   -2.6671   -0.5416   -0.0988 H   0  0  0  0  0  0  0  0  0  0  0  0
   -0.6131   -0.3236    0.3832 C   0  0  1  0  0  0  0  0  0  0  0  0
    0.1566   -1.0296    0.6989 H   0  0  0  0  0  0  0  0  0  0  0  0
   -0.2734    0.1556   -1.0402 C   0  0  0  0  0  0  0  0  0  0  0  0
   -1.1030    0.7589   -1.4148 H   0  0  0  0  0  0  0  0  0  0  0  0
    0.6171    0.7849   -1.0050 H   0  0  0  0  0  0  0  0  0  0  0  0
   -0.0253   -0.9894   -2.0289 C   0  0  0  0  0  0  0  0  0  0  0  0
   -0.9196   -1.6088   -2.0901 H   0  0  0  0  0  0  0  0  0  0  0  0
    0.1753   -0.5650   -3.0132 H   0  0  0  0  0  0  0  0  0  0  0  0
    1.3659   -2.0548   -1.5715 S   0  0  0  0  0  0  0  0  0  0  0  0
    2.7390   -0.9047   -1.8427 C   0  0  0  0  0  0  0  0  0  0  0  0
    2.6225   -0.0341   -1.1966 H   0  0  0  0  0  0  0  0  0  0  0  0
    3.6797   -1.4031   -1.6073 H   0  0  0  0  0  0  0  0  0  0  0  0
    2.7524   -0.5873   -2.8858 H   0  0  0  0  0  0  0  0  0  0  0  0
   -0.6439    0.8333    1.3920 C   0  0  0  0  0  0  0  0  0  0  0  0
   -1.6663    1.0640    2.0345 O   0  0  0  0  0  0  0  0  0  0  0  0
    0.4702    1.5645    1.5249 N   0  0  0  0  0  0  0  0  0  0  0  0
    1.2742    1.3061    0.9755 H   0  0  0  0  0  0  0  0  0  0  0  0
    0.5943    2.7057    2.4304 C   0  0  0  0  0  0  0  0  0  0  0  0
    0.3818    2.3879    3.4539 H   0  0  0  0  0  0  0  0  0  0  0  0
    1.6026    3.1193    2.3848 H   0  0  0  0  0  0  0  0  0  0  0  0
   -0.1259    3.4770    2.1517 H   0  0  0  0  0  0  0  0  0  0  0  0
  5  6  2  0  0  0  0
  5  7  1  0  0  0  0
  2  3  1  0  0  0  0
  2  4  1  0  0  0  0
  2  5  1  0  0  0  0
  1  2  1  0  0  0  0
 22 23  2  0  0  0  0
 22 24  1  0  0  0  0
 18 19  1  0  0  0  0
 18 20  1  0  0  0  0
 18 21  1  0  0  0  0
 17 18  1  0  0  0  0
 14 15  1  0  0  0  0
 14 16  1  0  0  0  0
 14 17  1  0  0  0  0
 11 12  1  0  0  0  0
 11 13  1  0  0  0  0
 11 14  1  0  0  0  0
  9 10  1  0  0  0  0
  9 11  1  0  0  0  0
  9 22  1  0  0  0  0
  7  8  1  0  0  0  0
  7  9  1  0  0  0  0
 26 27  1  0  0  0  0
 26 28  1  0  0  0  0
 26 29  1  0  0  0  0
 24 25  1  0  0  0  0
 24 26  1  0  0  0  0
M  END
$$$$
default_name
  -OEChem-01062215323D

 29 28  0     1  0  0  0  0  0999 V2000
   -3.5781   -3.7296    1.2702 H   0  0  0  0  0  0  0  0  0  0  0  0
   -3.5311   -2.7616    0.7732 C   0  0  0  0  0  0  0  0  0  0  0  0
   -4.2371   -2.0766    1.2382 H   0  0  0  0  0  0  0  0  0  0  0  0
   -3.7681   -2.8816   -0.2818 H   0  0  0  0  0  0  0  0  0  0  0  0
   -2.1321   -2.2086    0.9112 C   0  0  0  0  0  0  0  0  0  0  0  0
   -1.2751   -2.8426    1.5112 O   0  0  0  0  0  0  0  0  0  0  0  0
   -1.9041   -1.0186    0.3602 N   0  0  0  0  0  0  0  0  0  0  0  0
   -2.6671   -0.5416   -0.0988 H   0  0  0  0  0  0  0  0  0  0  0  0
   -0.6131   -0.3236    0.3832 C   0  0  1  0  0  0  0  0  0  0  0  0
    0.1566   -1.0296    0.6989 H   0  0  0  0  0  0  0  0  0  0  0  0
   -0.2734    0.1556   -1.0402 C   0  0  0  0  0  0  0  0  0  0  0  0
   -1.1030    0.7589   -1.4148 H   0  0  0  0  0  0  0  0  0  0  0  0
    0.6171    0.7849   -1.0050 H   0  0  0  0  0  0  0  0  0  0  0  0
   -0.0253   -0.9894   -2.0289 C   0  0  0  0  0  0  0  0  0  0  0  0
   -0.9196   -1.6088   -2.0901 H   0  0  0  0  0  0  0  0  0  0  0  0
    0.1753   -0.5650   -3.0132 H   0  0  0  0  0  0  0  0  0  0  0  0
    1.3659   -2.0548   -1.5715 S   0  0  0  0  0  0  0  0  0  0  0  0
    2.7390   -0.9047   -1.8427 C   0  0  0  0  0  0  0  0  0  0  0  0
    2.6225   -0.0341   -1.1966 H   0  0  0  0  0  0  0  0  0  0  0  0
    3.6797   -1.4031   -1.6073 H   0  0  0  0  0  0  0  0  0  0  0  0
    2.7524   -0.5873   -2.8858 H   0  0  0  0  0  0  0  0  0  0  0  0
   -0.6439    0.8333    1.3920 C   0  0  0  0  0  0  0  0  0  0  0  0
   -1.5458    0.9014    2.2246 O   0  0  0  0  0  0  0  0  0  0  0  0
    0.3334    1.7456    1.3131 N   0  0  0  0  0  0  0  0  0  0  0  0
    1.0472    1.6151    0.6141 H   0  0  0  0  0  0  0  0  0  0  0  0
    0.4348    2.9110    2.1901 C   0  0  0  0  0  0  0  0  0  0  0  0
    0.4829    2.5844    3.2316 H   0  0  0  0  0  0  0  0  0  0  0  0
    1.3293    3.4885    1.9531 H   0  0  0  0  0  0  0  0  0  0  0  0
   -0.4467    3.5427    2.0666 H   0  0  0  0  0  0  0  0  0  0  0  0
  5  6  2  0  0  0  0
  5  7  1  0  0  0  0
  2  3  1  0  0  0  0
  2  4  1  0  0  0  0
  2  5  1  0  0  0  0
  1  2  1  0  0  0  0
 22 23  2  0  0  0  0
 22 24  1  0  0  0  0
 18 19  1  0  0  0  0
 18 20  1  0  0  0  0
 18 21  1  0  0  0  0
 17 18  1  0  0  0  0
 14 15  1  0  0  0  0
 14 16  1  0  0  0  0
 14 17  1  0  0  0  0
 11 12  1  0  0  0  0
 11 13  1  0  0  0  0
 11 14  1  0  0  0  0
  9 10  1  0  0  0  0
  9 11  1  0  0  0  0
  9 22  1  0  0  0  0
  7  8  1  0  0  0  0
  7  9  1  0  0  0  0
 26 27  1  0  0  0  0
 26 28  1  0  0  0  0
 26 29  1  0  0  0  0
 24 25  1  0  0  0  0
 24 26  1  0  0  0  0
M  END
$$$$
default_name
  -OEChem-01062215323D

 29 28  0     1  0  0  0  0  0999 V2000
   -3.5781   -3.7296    1.2702 H   0  0  0  0  0  0  0  0  0  0  0  0
   -3.5311   -2.7616    0.7732 C   0  0  0  0  0  0  0  0  0  0  0  0
   -4.2371   -2.0766    1.2382 H   0  0  0  0  0  0  0  0  0  0  0  0
   -3.7681   -2.8816   -0.2818 H   0  0  0  0  0  0  0  0  0  0  0  0
   -2.1321   -2.2086    0.9112 C   0  0  0  0  0  0  0  0  0  0  0  0
   -1.2751   -2.8426    1.5112 O   0  0  0  0  0  0  0  0  0  0  0  0
   -1.9041   -1.0186    0.3602 N   0  0  0  0  0  0  0  0  0  0  0  0
   -2.6671   -0.5416   -0.0988 H   0  0  0  0  0  0  0  0  0  0  0  0
   -0.6131   -0.3236    0.3832 C   0  0  1  0  0  0  0  0  0  0  0  0
    0.1566   -1.0296    0.6989 H   0  0  0  0  0  0  0  0  0  0  0  0
   -0.2734    0.1556   -1.0402 C   0  0  0  0  0  0  0  0  0  0  0  0
   -1.1030    0.7589   -1.4148 H   0  0  0  0  0  0  0  0  0  0  0  0
    0.6171    0.7849   -1.0050 H   0  0  0  0  0  0  0  0  0  0  0  0
   -0.0253   -0.9894   -2.0289 C   0  0  0  0  0  0  0  0  0  0  0  0
   -0.9196   -1.6088   -2.0901 H   0  0  0  0  0  0  0  0  0  0  0  0
    0.1753   -0.5650   -3.0132 H   0  0  0  0  0  0  0  0  0  0  0  0
    1.3659   -2.0548   -1.5715 S   0  0  0  0  0  0  0  0  0  0  0  0
    2.7390   -0.9047   -1.8427 C   0  0  0  0  0  0  0  0  0  0  0  0
    2.6225   -0.0341   -1.1966 H   0  0  0  0  0  0  0  0  0  0  0  0
    3.6797   -1.4031   -1.6073 H   0  0  0  0  0  0  0  0  0  0  0  0
    2.7524   -0.5873   -2.8858 H   0  0  0  0  0  0  0  0  0  0  0  0
   -0.6439    0.8333    1.3920 C   0  0  0  0  0  0  0  0  0  0  0  0
   -1.3647    0.7659    2.3856 O   0  0  0  0  0  0  0  0  0  0  0  0
    0.1291    1.8961    1.1342 N   0  0  0  0  0  0  0  0  0  0  0  0
    0.7049    1.8732    0.3078 H   0  0  0  0  0  0  0  0  0  0  0  0
    0.1989    3.0809    1.9881 C   0  0  0  0  0  0  0  0  0  0  0  0
    0.5037    2.7903    2.9962 H   0  0  0  0  0  0  0  0  0  0  0  0
    0.9184    3.7963    1.5875 H   0  0  0  0  0  0  0  0  0  0  0  0
   -0.7843    3.5511    2.0466 H   0  0  0  0  0  0  0  0  0  0  0  0
  5  6  2  0  0  0  0
  5  7  1  0  0  0  0
  2  3  1  0  0  0  0
  2  4  1  0  0  0  0
  2  5  1  0  0  0  0
  1  2  1  0  0  0  0
 22 23  2  0  0  0  0
 22 24  1  0  0  0  0
 18 19  1  0  0  0  0
 18 20  1  0  0  0  0
 18 21  1  0  0  0  0
 17 18  1  0  0  0  0
 14 15  1  0  0  0  0
 14 16  1  0  0  0  0
 14 17  1  0  0  0  0
 11 12  1  0  0  0  0
 11 13  1  0  0  0  0
 11 14  1  0  0  0  0
  9 10  1  0  0  0  0
  9 11  1  0  0  0  0
  9 22  1  0  0  0  0
  7  8  1  0  0  0  0
  7  9  1  0  0  0  0
 26 27  1  0  0  0  0
 26 28  1  0  0  0  0
 26 29  1  0  0  0  0
 24 25  1  0  0  0  0
 24 26  1  0  0  0  0
M  END
$$$$
default_name
  -OEChem-01062215323D

 29 28  0     1  0  0  0  0  0999 V2000
   -3.5781   -3.7296    1.2702 H   0  0  0  0  0  0  0  0  0  0  0  0
   -3.5311   -2.7616    0.7732 C   0  0  0  0  0  0  0  0  0  0  0  0
   -4.2371   -2.0766    1.2382 H   0  0  0  0  0  0  0  0  0  0  0  0
   -3.7681   -2.8816   -0.2818 H   0  0  0  0  0  0  0  0  0  0  0  0
   -2.1321   -2.2086    0.9112 C   0  0  0  0  0  0  0  0  0  0  0  0
   -1.2751   -2.8426    1.5112 O   0  0  0  0  0  0  0  0  0  0  0  0
   -1.9041   -1.0186    0.3602 N   0  0  0  0  0  0  0  0  0  0  0  0
   -2.6671   -0.5416   -0.0988 H   0  0  0  0  0  0  0  0  0  0  0  0
   -0.6131   -0.3236    0.3832 C   0  0  1  0  0  0  0  0  0  0  0  0
    0.1566   -1.0296    0.6989 H   0  0  0  0  0  0  0  0  0  0  0  0
   -0.2734    0.1556   -1.0402 C   0  0  0  0  0  0  0  0  0  0  0  0
   -1.1030    0.7589   -1.4148 H   0  0  0  0  0  0  0  0  0  0  0  0
    0.6171    0.7849   -1.0050 H   0  0  0  0  0  0  0  0  0  0  0  0
   -0.0253   -0.9894   -2.0289 C   0  0  0  0  0  0  0  0  0  0  0  0
   -0.9196   -1.6088   -2.0901 H   0  0  0  0  0  0  0  0  0  0  0  0
    0.1753   -0.5650   -3.0132 H   0  0  0  0  0  0  0  0  0  0  0  0
    1.3659   -2.0548   -1.5715 S   0  0  0  0  0  0  0  0  0  0  0  0
    2.7390   -0.9047   -1.8427 C   0  0  0  0  0  0  0  0  0  0  0  0
    2.6225   -0.0341   -1.1966 H   0  0  0  0  0  0  0  0  0  0  0  0
    3.6797   -1.4031   -1.6073 H   0  0  0  0  0  0  0  0  0  0  0  0
    2.7524   -0.5873   -2.8858 H   0  0  0  0  0  0  0  0  0  0  0  0
   -0.6439    0.8333    1.3920 C   0  0  0  0  0  0  0  0  0  0  0  0
   -1.1353    0.6666    2.5065 O   0  0  0  0  0  0  0  0  0  0  0  0
   -0.1287    2.0058    1.0005 N   0  0  0  0  0  0  0  0  0  0  0  0
    0.2705    2.0626    0.0772 H   0  0  0  0  0  0  0  0  0  0  0  0
   -0.0972    3.2039    1.8380 C   0  0  0  0  0  0  0  0  0  0  0  0
    0.4429    2.9914    2.7636 H   0  0  0  0  0  0  0  0  0  0  0  0
    0.3978    4.0219    1.3129 H   0  0  0  0  0  0  0  0  0  0  0  0
   -1.1158    3.5017    2.0931 H   0  0  0  0  0  0  0  0  0  0  0  0
  5  6  2  0  0  0  0
  5  7  1  0  0  0  0
  2  3  1  0  0  0  0
  2  4  1  0  0  0  0
  2  5  1  0  0  0  0
  1  2  1  0  0  0  0
 22 23  2  0  0  0  0
 22 24  1  0  0  0  0
 18 19  1  0  0  0  0
 18 20  1  0  0  0  0
 18 21  1  0  0  0  0
 17 18  1  0  0  0  0
 14 15  1  0  0  0  0
 14 16  1  0  0  0  0
 14 17  1  0  0  0  0
 11 12  1  0  0  0  0
 11 13  1  0  0  0  0
 11 14  1  0  0  0  0
  9 10  1  0  0  0  0
  9 11  1  0  0  0  0
  9 22  1  0  0  0  0
  7  8  1  0  0  0  0
  7  9  1  0  0  0  0
 26 27  1  0  0  0  0
 26 28  1  0  0  0  0
 26 29  1  0  0  0  0
 24 25  1  0  0  0  0
 24 26  1  0  0  0  0
M  END
$$$$
default_name
  -OEChem-01062215323D

 29 28  0     1  0  0  0  0  0999 V2000
   -3.5781   -3.7296    1.2702 H   0  0  0  0  0  0  0  0  0  0  0  0
   -3.5311   -2.7616    0.7732 C   0  0  0  0  0  0  0  0  0  0  0  0
   -4.2371   -2.0766    1.2382 H   0  0  0  0  0  0  0  0  0  0  0  0
   -3.7681   -2.8816   -0.2818 H   0  0  0  0  0  0  0  0  0  0  0  0
   -2.1321   -2.2086    0.9112 C   0  0  0  0  0  0  0  0  0  0  0  0
   -1.2751   -2.8426    1.5112 O   0  0  0  0  0  0  0  0  0  0  0  0
   -1.9041   -1.0186    0.3602 N   0  0  0  0  0  0  0  0  0  0  0  0
   -2.6671   -0.5416   -0.0988 H   0  0  0  0  0  0  0  0  0  0  0  0
   -0.6131   -0.3236    0.3832 C   0  0  1  0  0  0  0  0  0  0  0  0
    0.1566   -1.0296    0.6989 H   0  0  0  0  0  0  0  0  0  0  0  0
   -0.2734    0.1556   -1.0402 C   0  0  0  0  0  0  0  0  0  0  0  0
   -1.1030    0.7589   -1.4148 H   0  0  0  0  0  0  0  0  0  0  0  0
    0.6171    0.7849   -1.0050 H   0  0  0  0  0  0  0  0  0  0  0  0
   -0.0253   -0.9894   -2.0289 C   0  0  0  0  0  0  0  0  0  0  0  0
   -0.9196   -1.6088   -2.0901 H   0  0  0  0  0  0  0  0  0  0  0  0
    0.1753   -0.5650   -3.0132 H   0  0  0  0  0  0  0  0  0  0  0  0
    1.3659   -2.0548   -1.5715 S   0  0  0  0  0  0  0  0  0  0  0  0
    2.7390   -0.9047   -1.8427 C   0  0  0  0  0  0  0  0  0  0  0  0
    2.6225   -0.0341   -1.1966 H   0  0  0  0  0  0  0  0  0  0  0  0
    3.6797   -1.4031   -1.6073 H   0  0  0  0  0  0  0  0  0  0  0  0
    2.7524   -0.5873   -2.8858 H   0  0  0  0  0  0  0  0  0  0  0  0
   -0.6439    0.8333    1.3920 C   0  0  0  0  0  0  0  0  0  0  0  0
   -0.8733    0.6103    2.5790 O   0  0  0  0  0  0  0  0  0  0  0  0
   -0.4224    2.0673    0.9211 N   0  0  0  0  0  0  0  0  0  0  0  0
   -0.2261    2.1706   -0.0617 H   0  0  0  0  0  0  0  0  0  0  0  0
   -0.4335    3.2715    1.7502 C   0  0  0  0  0  0  0  0  0  0  0  0
    0.3047    3.1742    2.5498 H   0  0  0  0  0  0  0  0  0  0  0  0
   -0.1970    4.1498    1.1481 H   0  0  0  0  0  0  0  0  0  0  0  0
   -1.4185    3.3979    2.2029 H   0  0  0  0  0  0  0  0  0  0  0  0
  5  6  2  0  0  0  0
  5  7  1  0  0  0  0
  2  3  1  0  0  0  0
  2  4  1  0  0  0  0
  2  5  1  0  0  0  0
  1  2  1  0  0  0  0
 22 23  2  0  0  0  0
 22 24  1  0  0  0  0
 18 19  1  0  0  0  0
 18 20  1  0  0  0  0
 18 21  1  0  0  0  0
 17 18  1  0  0  0  0
 14 15  1  0  0  0  0
 14 16  1  0  0  0  0
 14 17  1  0  0  0  0
 11 12  1  0  0  0  0
 11 13  1  0  0  0  0
 11 14  1  0  0  0  0
  9 10  1  0  0  0  0
  9 11  1  0  0  0  0
  9 22  1  0  0  0  0
  7  8  1  0  0  0  0
  7  9  1  0  0  0  0
 26 27  1  0  0  0  0
 26 28  1  0  0  0  0
 26 29  1  0  0  0  0
 24 25  1  0  0  0  0
 24 26  1  0  0  0  0
M  END
$$$$
default_name
  -OEChem-01062215323D

 29 28  0     1  0  0  0  0  0999 V2000
   -3.5781   -3.7296    1.2702 H   0  0  0  0  0  0  0  0  0  0  0  0
   -3.5311   -2.7616    0.7732 C   0  0  0  0  0  0  0  0  0  0  0  0
   -4.2371   -2.0766    1.2382 H   0  0  0  0  0  0  0  0  0  0  0  0
   -3.7681   -2.8816   -0.2818 H   0  0  0  0  0  0  0  0  0  0  0  0
   -2.1321   -2.2086    0.9112 C   0  0  0  0  0  0  0  0  0  0  0  0
   -1.2751   -2.8426    1.5112 O   0  0  0  0  0  0  0  0  0  0  0  0
   -1.9041   -1.0186    0.3602 N   0  0  0  0  0  0  0  0  0  0  0  0
   -2.6671   -0.5416   -0.0988 H   0  0  0  0  0  0  0  0  0  0  0  0
   -0.6131   -0.3236    0.3832 C   0  0  1  0  0  0  0  0  0  0  0  0
    0.1566   -1.0296    0.6989 H   0  0  0  0  0  0  0  0  0  0  0  0
   -0.2734    0.1556   -1.0402 C   0  0  0  0  0  0  0  0  0  0  0  0
   -1.1030    0.7589   -1.4148 H   0  0  0  0  0  0  0  0  0  0  0  0
    0.6171    0.7849   -1.0050 H   0  0  0  0  0  0  0  0  0  0  0  0
   -0.0253   -0.9894   -2.0289 C   0  0  0  0  0  0  0  0  0  0  0  0
   -0.9196   -1.6088   -2.0901 H   0  0  0  0  0  0  0  0  0  0  0  0
    0.1753   -0.5650   -3.0132 H   0  0  0  0  0  0  0  0  0  0  0  0
    1.3659   -2.0548   -1.5715 S   0  0  0  0  0  0  0  0  0  0  0  0
    2.7390   -0.9047   -1.8427 C   0  0  0  0  0  0  0  0  0  0  0  0
    2.6225   -0.0341   -1.1966 H   0  0  0  0  0  0  0  0  0  0  0  0
    3.6797   -1.4031   -1.6073 H   0  0  0  0  0  0  0  0  0  0  0  0
    2.7524   -0.5873   -2.8858 H   0  0  0  0  0  0  0  0  0  0  0  0
   -0.6439    0.8333    1.3920 C   0  0  0  0  0  0  0  0  0  0  0  0
   -0.5965    0.6009    2.5983 O   0  0  0  0  0  0  0  0  0  0  0  0
   -0.7321    2.0763    0.9013 N   0  0  0  0  0  0  0  0  0  0  0  0
   -0.7514    2.1896   -0.0996 H   0  0  0  0  0  0  0  0  0  0  0  0
   -0.7869    3.2792    1.7305 C   0  0  0  0  0  0  0  0  0  0  0  0
    0.0983    3.3261    2.3692 H   0  0  0  0  0  0  0  0  0  0  0  0
   -0.8255    4.1714    1.1041 H   0  0  0  0  0  0  0  0  0  0  0  0
   -1.6718    3.2467    2.3686 H   0  0  0  0  0  0  0  0  0  0  0  0
  5  6  2  0  0  0  0
  5  7  1  0  0  0  0
  2  3  1  0  0  0  0
  2  4  1  0  0  0  0
  2  5  1  0  0  0  0
  1  2  1  0  0  0  0
 22 23  2  0  0  0  0
 22 24  1  0  0  0  0
 18 19  1  0  0  0  0
 18 20  1  0  0  0  0
 18 21  1  0  0  0  0
 17 18  1  0  0  0  0
 14 15  1  0  0  0  0
 14 16  1  0  0  0  0
 14 17  1  0  0  0  0
 11 12  1  0  0  0  0
 11 13  1  0  0  0  0
 11 14  1  0  0  0  0
  9 10  1  0  0  0  0
  9 11  1  0  0  0  0
  9 22  1  0  0  0  0
  7  8  1  0  0  0  0
  7  9  1  0  0  0  0
 26 27  1  0  0  0  0
 26 28  1  0  0  0  0
 26 29  1  0  0  0  0
 24 25  1  0  0  0  0
 24 26  1  0  0  0  0
M  END
$$$$
default_name
  -OEChem-01062215323D

 29 28  0     1  0  0  0  0  0999 V2000
   -3.5781   -3.7296    1.2702 H   0  0  0  0  0  0  0  0  0  0  0  0
   -3.5311   -2.7616    0.7732 C   0  0  0  0  0  0  0  0  0  0  0  0
   -4.2371   -2.0766    1.2382 H   0  0  0  0  0  0  0  0  0  0  0  0
   -3.7681   -2.8816   -0.2818 H   0  0  0  0  0  0  0  0  0  0  0  0
   -2.1321   -2.2086    0.9112 C   0  0  0  0  0  0  0  0  0  0  0  0
   -1.2751   -2.8426    1.5112 O   0  0  0  0  0  0  0  0  0  0  0  0
   -1.9041   -1.0186    0.3602 N   0  0  0  0  0  0  0  0  0  0  0  0
   -2.6671   -0.5416   -0.0988 H   0  0  0  0  0  0  0  0  0  0  0  0
   -0.6131   -0.3236    0.3832 C   0  0  1  0  0  0  0  0  0  0  0  0
    0.1566   -1.0296    0.6989 H   0  0  0  0  0  0  0  0  0  0  0  0
   -0.2734    0.1556   -1.0402 C   0  0  0  0  0  0  0  0  0  0  0  0
   -1.1030    0.7589   -1.4148 H   0  0  0  0  0  0  0  0  0  0  0  0
    0.6171    0.7849   -1.0050 H   0  0  0  0  0  0  0  0  0  0  0  0
   -0.0253   -0.9894   -2.0289 C   0  0  0  0  0  0  0  0  0  0  0  0
   -0.9196   -1.6088   -2.0901 H   0  0  0  0  0  0  0  0  0  0  0  0
    0.1753   -0.5650   -3.0132 H   0  0  0  0  0  0  0  0  0  0  0  0
    1.3659   -2.0548   -1.5715 S   0  0  0  0  0  0  0  0  0  0  0  0
    2.7390   -0.9047   -1.8427 C   0  0  0  0  0  0  0  0  0  0  0  0
    2.6225   -0.0341   -1.1966 H   0  0  0  0  0  0  0  0  0  0  0  0
    3.6797   -1.4031   -1.6073 H   0  0  0  0  0  0  0  0  0  0  0  0
    2.7524   -0.5873   -2.8858 H   0  0  0  0  0  0  0  0  0  0  0  0
   -0.6439    0.8333    1.3920 C   0  0  0  0  0  0  0  0  0  0  0  0
   -0.3238    0.6390    2.5629 O   0  0  0  0  0  0  0  0  0  0  0  0
   -1.0366    2.0322    0.9426 N   0  0  0  0  0  0  0  0  0  0  0  0
   -1.2693    2.1185   -0.0339 H   0  0  0  0  0  0  0  0  0  0  0  0
   -1.1334    3.2264    1.7805 C   0  0  0  0  0  0  0  0  0  0  0  0
   -0.1621    3.4368    2.2343 H   0  0  0  0  0  0  0  0  0  0  0  0
   -1.4447    4.0851    1.1842 H   0  0  0  0  0  0  0  0  0  0  0  0
   -1.8585    3.0584    2.5788 H   0  0  0  0  0  0  0  0  0  0  0  0
  5  6  2  0  0  0  0
  5  7  1  0  0  0  0
  2  3  1  0  0  0  0
  2  4  1  0  0  0  0
  2  5  1  0  0  0  0
  1  2  1  0  0  0  0
 22 23  2  0  0  0  0
 22 24  1  0  0  0  0
 18 19  1  0  0  0  0
 18 20  1  0  0  0  0
 18 21  1  0  0  0  0
 17 18  1  0  0  0  0
 14 15  1  0  0  0  0
 14 16  1  0  0  0  0
 14 17  1  0  0  0  0
 11 12  1  0  0  0  0
 11 13  1  0  0  0  0
 11 14  1  0  0  0  0
  9 10  1  0  0  0  0
  9 11  1  0  0  0  0
  9 22  1  0  0  0  0
  7  8  1  0  0  0  0
  7  9  1  0  0  0  0
 26 27  1  0  0  0  0
 26 28  1  0  0  0  0
 26 29  1  0  0  0  0
 24 25  1  0  0  0  0
 24 26  1  0  0  0  0
M  END
$$$$
default_name
  -OEChem-01062215323D

 29 28  0     1  0  0  0  0  0999 V2000
   -3.5781   -3.7296    1.2702 H   0  0  0  0  0  0  0  0  0  0  0  0
   -3.5311   -2.7616    0.7732 C   0  0  0  0  0  0  0  0  0  0  0  0
   -4.2371   -2.0766    1.2382 H   0  0  0  0  0  0  0  0  0  0  0  0
   -3.7681   -2.8816   -0.2818 H   0  0  0  0  0  0  0  0  0  0  0  0
   -2.1321   -2.2086    0.9112 C   0  0  0  0  0  0  0  0  0  0  0  0
   -1.2751   -2.8426    1.5112 O   0  0  0  0  0  0  0  0  0  0  0  0
   -1.9041   -1.0186    0.3602 N   0  0  0  0  0  0  0  0  0  0  0  0
   -2.6671   -0.5416   -0.0988 H   0  0  0  0  0  0  0  0  0  0  0  0
   -0.6131   -0.3236    0.3832 C   0  0  1  0  0  0  0  0  0  0  0  0
    0.1566   -1.0296    0.6989 H   0  0  0  0  0  0  0  0  0  0  0  0
   -0.2734    0.1556   -1.0402 C   0  0  0  0  0  0  0  0  0  0  0  0
   -1.1030    0.7589   -1.4148 H   0  0  0  0  0  0  0  0  0  0  0  0
    0.6171    0.7849   -1.0050 H   0  0  0  0  0  0  0  0  0  0  0  0
   -0.0253   -0.9894   -2.0289 C   0  0  0  0  0  0  0  0  0  0  0  0
   -0.9196   -1.6088   -2.0901 H   0  0  0  0  0  0  0  0  0  0  0  0
    0.1753   -0.5650   -3.0132 H   0  0  0  0  0  0  0  0  0  0  0  0
    1.3659   -2.0548   -1.5715 S   0  0  0  0  0  0  0  0  0  0  0  0
    2.7390   -0.9047   -1.8427 C   0  0  0  0  0  0  0  0  0  0  0  0
    2.6225   -0.0341   -1.1966 H   0  0  0  0  0  0  0  0  0  0  0  0
    3.6797   -1.4031   -1.6073 H   0  0  0  0  0  0  0  0  0  0  0  0
    2.7524   -0.5873   -2.8858 H   0  0  0  0  0  0  0  0  0  0  0  0
   -0.6439    0.8333    1.3920 C   0  0  0  0  0  0  0  0  0  0  0  0
   -0.0737    0.7220    2.4754 O   0  0  0  0  0  0  0  0  0  0  0  0
   -1.3152    1.9380    1.0420 N   0  0  0  0  0  0  0  0  0  0  0  0
   -1.7447    1.9621    0.1309 H   0  0  0  0  0  0  0  0  0  0  0  0
   -1.4493    3.1168    1.8966 C   0  0  0  0  0  0  0  0  0  0  0  0
   -0.4587    3.4988    2.1542 H   0  0  0  0  0  0  0  0  0  0  0  0
   -2.0126    3.8968    1.3827 H   0  0  0  0  0  0  0  0  0  0  0  0
   -1.9658    2.8459    2.8192 H   0  0  0  0  0  0  0  0  0  0  0  0
  5  6  2  0  0  0  0
  5  7  1  0  0  0  0
  2  3  1  0  0  0  0
  2  4  1  0  0  0  0
  2  5  1  0  0  0  0
  1  2  1  0  0  0  0
 22 23  2  0  0  0  0
 22 24  1  0  0  0  0
 18 19  1  0  0  0  0
 18 20  1  0  0  0  0
 18 21  1  0  0  0  0
 17 18  1  0  0  0  0
 14 15  1  0  0  0  0
 14 16  1  0  0  0  0
 14 17  1  0  0  0  0
 11 12  1  0  0  0  0
 11 13  1  0  0  0  0
 11 14  1  0  0  0  0
  9 10  1  0  0  0  0
  9 11  1  0  0  0  0
  9 22  1  0  0  0  0
  7  8  1  0  0  0  0
  7  9  1  0  0  0  0
 26 27  1  0  0  0  0
 26 28  1  0  0  0  0
 26 29  1  0  0  0  0
 24 25  1  0  0  0  0
 24 26  1  0  0  0  0
M  END
$$$$
default_name
  -OEChem-01062215323D

 29 28  0     1  0  0  0  0  0999 V2000
   -3.5781   -3.7296    1.2702 H   0  0  0  0  0  0  0  0  0  0  0  0
   -3.5311   -2.7616    0.7732 C   0  0  0  0  0  0  0  0  0  0  0  0
   -4.2371   -2.0766    1.2382 H   0  0  0  0  0  0  0  0  0  0  0  0
   -3.7681   -2.8816   -0.2818 H   0  0  0  0  0  0  0  0  0  0  0  0
   -2.1321   -2.2086    0.9112 C   0  0  0  0  0  0  0  0  0  0  0  0
   -1.2751   -2.8426    1.5112 O   0  0  0  0  0  0  0  0  0  0  0  0
   -1.9041   -1.0186    0.3602 N   0  0  0  0  0  0  0  0  0  0  0  0
   -2.6671   -0.5416   -0.0988 H   0  0  0  0  0  0  0  0  0  0  0  0
   -0.6131   -0.3236    0.3832 C   0  0  1  0  0  0  0  0  0  0  0  0
    0.1566   -1.0296    0.6989 H   0  0  0  0  0  0  0  0  0  0  0  0
   -0.2734    0.1556   -1.0402 C   0  0  0  0  0  0  0  0  0  0  0  0
   -1.1030    0.7589   -1.4148 H   0  0  0  0  0  0  0  0  0  0  0  0
    0.6171    0.7849   -1.0050 H   0  0  0  0  0  0  0  0  0  0  0  0
   -0.0253   -0.9894   -2.0289 C   0  0  0  0  0  0  0  0  0  0  0  0
   -0.9196   -1.6088   -2.0901 H   0  0  0  0  0  0  0  0  0  0  0  0
    0.1753   -0.5650   -3.0132 H   0  0  0  0  0  0  0  0  0  0  0  0
    1.3659   -2.0548   -1.5715 S   0  0  0  0  0  0  0  0  0  0  0  0
    2.7390   -0.9047   -1.8427 C   0  0  0  0  0  0  0  0  0  0  0  0
    2.6225   -0.0341   -1.1966 H   0  0  0  0  0  0  0  0  0  0  0  0
    3.6797   -1.4031   -1.6073 H   0  0  0  0  0  0  0  0  0  0  0  0
    2.7524   -0.5873   -2.8858 H   0  0  0  0  0  0  0  0  0  0  0  0
   -0.6439    0.8333    1.3920 C   0  0  0  0  0  0  0  0  0  0  0  0
    0.1367    0.8442    2.3417 O   0  0  0  0  0  0  0  0  0  0  0  0
   -1.5489    1.8002    1.1929 N   0  0  0  0  0  0  0  0  0  0  0  0
   -2.1452    1.7310    0.3837 H   0  0  0  0  0  0  0  0  0  0  0  0
   -1.7132    2.9577    2.0709 C   0  0  0  0  0  0  0  0  0  0  0  0
   -0.7714    3.5078    2.1344 H   0  0  0  0  0  0  0  0  0  0  0  0
   -2.4904    3.6194    1.6862 H   0  0  0  0  0  0  0  0  0  0  0  0
   -1.9864    2.6236    3.0734 H   0  0  0  0  0  0  0  0  0  0  0  0
  5  6  2  0  0  0  0
  5  7  1  0  0  0  0
  2  3  1  0  0  0  0
  2  4  1  0  0  0  0
  2  5  1  0  0  0  0
  1  2  1  0  0  0  0
 22 23  2  0  0  0  0
 22 24  1  0  0  0  0
 18 19  1  0  0  0  0
 18 20  1  0  0  0  0
 18 21  1  0  0  0  0
 17 18  1  0  0  0  0
 14 15  1  0  0  0  0
 14 16  1  0  0  0  0
 14 17  1  0  0  0  0
 11 12  1  0  0  0  0
 11 13  1  0  0  0  0
 11 14  1  0  0  0  0
  9 10  1  0  0  0  0
  9 11  1  0  0  0  0
  9 22  1  0  0  0  0
  7  8  1  0  0  0  0
  7  9  1  0  0  0  0
 26 27  1  0  0  0  0
 26 28  1  0  0  0  0
 26 29  1  0  0  0  0
 24 25  1  0  0  0  0
 24 26  1  0  0  0  0
M  END
$$$$
default_name
  -OEChem-01062215323D

 29 28  0     1  0  0  0  0  0999 V2000
   -3.5781   -3.7296    1.2702 H   0  0  0  0  0  0  0  0  0  0  0  0
   -3.5311   -2.7616    0.7732 C   0  0  0  0  0  0  0  0  0  0  0  0
   -4.2371   -2.0766    1.2382 H   0  0  0  0  0  0  0  0  0  0  0  0
   -3.7681   -2.8816   -0.2818 H   0  0  0  0  0  0  0  0  0  0  0  0
   -2.1321   -2.2086    0.9112 C   0  0  0  0  0  0  0  0  0  0  0  0
   -1.2751   -2.8426    1.5112 O   0  0  0  0  0  0  0  0  0  0  0  0
   -1.9041   -1.0186    0.3602 N   0  0  0  0  0  0  0  0  0  0  0  0
   -2.6671   -0.5416   -0.0988 H   0  0  0  0  0  0  0  0  0  0  0  0
   -0.6131   -0.3236    0.3832 C   0  0  1  0  0  0  0  0  0  0  0  0
    0.1566   -1.0296    0.6989 H   0  0  0  0  0  0  0  0  0  0  0  0
   -0.2734    0.1556   -1.0402 C   0  0  0  0  0  0  0  0  0  0  0  0
   -1.1030    0.7589   -1.4148 H   0  0  0  0  0  0  0  0  0  0  0  0
    0.6171    0.7849   -1.0050 H   0  0  0  0  0  0  0  0  0  0  0  0
   -0.0253   -0.9894   -2.0289 C   0  0  0  0  0  0  0  0  0  0  0  0
   -0.9196   -1.6088   -2.0901 H   0  0  0  0  0  0  0  0  0  0  0  0
    0.1753   -0.5650   -3.0132 H   0  0  0  0  0  0  0  0  0  0  0  0
    1.3659   -2.0548   -1.5715 S   0  0  0  0  0  0  0  0  0  0  0  0
    2.7390   -0.9047   -1.8427 C   0  0  0  0  0  0  0  0  0  0  0  0
    2.6225   -0.0341   -1.1966 H   0  0  0  0  0  0  0  0  0  0  0  0
    3.6797   -1.4031   -1.6073 H   0  0  0  0  0  0  0  0  0  0  0  0
    2.7524   -0.5873   -2.8858 H   0  0  0  0  0  0  0  0  0  0  0  0
   -0.6439    0.8333    1.3920 C   0  0  0  0  0  0  0  0  0  0  0  0
    0.2930    0.9974    2.1708 O   0  0  0  0  0  0  0  0  0  0  0  0
   -1.7217    1.6281    1.3849 N   0  0  0  0  0  0  0  0  0  0  0  0
   -2.4433    1.4409    0.7072 H   0  0  0  0  0  0  0  0  0  0  0  0
   -1.9071    2.7601    2.2916 C   0  0  0  0  0  0  0  0  0  0  0  0
   -1.0788    3.4631    2.1761 H   0  0  0  0  0  0  0  0  0  0  0  0
   -2.8455    3.2718    2.0739 H   0  0  0  0  0  0  0  0  0  0  0  0
   -1.9189    2.4068    3.3242 H   0  0  0  0  0  0  0  0  0  0  0  0
  5  6  2  0  0  0  0
  5  7  1  0  0  0  0
  2  3  1  0  0  0  0
  2  4  1  0  0  0  0
  2  5  1  0  0  0  0
  1  2  1  0  0  0  0
 22 23  2  0  0  0  0
 22 24  1  0  0  0  0
 18 19  1  0  0  0  0
 18 20  1  0  0  0  0
 18 21  1  0  0  0  0
 17 18  1  0  0  0  0
 14 15  1  0  0  0  0
 14 16  1  0  0  0  0
 14 17  1  0  0  0  0
 11 12  1  0  0  0  0
 11 13  1  0  0  0  0
 11 14  1  0  0  0  0
  9 10  1  0  0  0  0
  9 11  1  0  0  0  0
  9 22  1  0  0  0  0
  7  8  1  0  0  0  0
  7  9  1  0  0  0  0
 26 27  1  0  0  0  0
 26 28  1  0  0  0  0
 26 29  1  0  0  0  0
 24 25  1  0  0  0  0
 24 26  1  0  0  0  0
M  END
$$$$
default_name
  -OEChem-01062215323D

 29 28  0     1  0  0  0  0  0999 V2000
   -3.5781   -3.7296    1.2702 H   0  0  0  0  0  0  0  0  0  0  0  0
   -3.5311   -2.7616    0.7732 C   0  0  0  0  0  0  0  0  0  0  0  0
   -4.2371   -2.0766    1.2382 H   0  0  0  0  0  0  0  0  0  0  0  0
   -3.7681   -2.8816   -0.2818 H   0  0  0  0  0  0  0  0  0  0  0  0
   -2.1321   -2.2086    0.9112 C   0  0  0  0  0  0  0  0  0  0  0  0
   -1.2751   -2.8426    1.5112 O   0  0  0  0  0  0  0  0  0  0  0  0
   -1.9041   -1.0186    0.3602 N   0  0  0  0  0  0  0  0  0  0  0  0
   -2.6671   -0.5416   -0.0988 H   0  0  0  0  0  0  0  0  0  0  0  0
   -0.6131   -0.3236    0.3832 C   0  0  1  0  0  0  0  0  0  0  0  0
    0.1566   -1.0296    0.6989 H   0  0  0  0  0  0  0  0  0  0  0  0
   -0.2734    0.1556   -1.0402 C   0  0  0  0  0  0  0  0  0  0  0  0
   -1.1030    0.7589   -1.4148 H   0  0  0  0  0  0  0  0  0  0  0  0
    0.6171    0.7849   -1.0050 H   0  0  0  0  0  0  0  0  0  0  0  0
   -0.0253   -0.9894   -2.0289 C   0  0  0  0  0  0  0  0  0  0  0  0
   -0.9196   -1.6088   -2.0901 H   0  0  0  0  0  0  0  0  0  0  0  0
    0.1753   -0.5650   -3.0132 H   0  0  0  0  0  0  0  0  0  0  0  0
    1.3659   -2.0548   -1.5715 S   0  0  0  0  0  0  0  0  0  0  0  0
    2.7390   -0.9047   -1.8427 C   0  0  0  0  0  0  0  0  0  0  0  0
    2.6225   -0.0341   -1.1966 H   0  0  0  0  0  0  0  0  0  0  0  0
    3.6797   -1.4031   -1.6073 H   0  0  0  0  0  0  0  0  0  0  0  0
    2.7524   -0.5873   -2.8858 H   0  0  0  0  0  0  0  0  0  0  0  0
   -0.6439    0.8333    1.3920 C   0  0  0  0  0  0  0  0  0  0  0  0
    0.3847    1.1710    1.9745 O   0  0  0  0  0  0  0  0  0  0  0  0
   -1.8220    1.4335    1.6051 N   0  0  0  0  0  0  0  0  0  0  0  0
   -2.6190    1.1118    1.0793 H   0  0  0  0  0  0  0  0  0  0  0  0
   -2.0177    2.5374    2.5436 C   0  0  0  0  0  0  0  0  0  0  0  0
   -1.3601    3.3680    2.2767 H   0  0  0  0  0  0  0  0  0  0  0  0
   -3.0538    2.8777    2.5196 H   0  0  0  0  0  0  0  0  0  0  0  0
   -1.7679    2.2101    3.5544 H   0  0  0  0  0  0  0  0  0  0  0  0
  5  6  2  0  0  0  0
  5  7  1  0  0  0  0
  2  3  1  0  0  0  0
  2  4  1  0  0  0  0
  2  5  1  0  0  0  0
  1  2  1  0  0  0  0
 22 23  2  0  0  0  0
 22 24  1  0  0  0  0
 18 19  1  0  0  0  0
 18 20  1  0  0  0  0
 18 21  1  0  0  0  0
 17 18  1  0  0  0  0
 14 15  1  0  0  0  0
 14 16  1  0  0  0  0
 14 17  1  0  0  0  0
 11 12  1  0  0  0  0
 11 13  1  0  0  0  0
 11 14  1  0  0  0  0
  9 10  1  0  0  0  0
  9 11  1  0  0  0  0
  9 22  1  0  0  0  0
  7  8  1  0  0  0  0
  7  9  1  0  0  0  0
 26 27  1  0  0  0  0
 26 28  1  0  0  0  0
 26 29  1  0  0  0  0
 24 25  1  0  0  0  0
 24 26  1  0  0  0  0
M  END
$$$$
default_name
  -OEChem-01062215323D

 29 28  0     1  0  0  0  0  0999 V2000
   -3.5781   -3.7296    1.2702 H   0  0  0  0  0  0  0  0  0  0  0  0
   -3.5311   -2.7616    0.7732 C   0  0  0  0  0  0  0  0  0  0  0  0
   -4.2371   -2.0766    1.2382 H   0  0  0  0  0  0  0  0  0  0  0  0
   -3.7681   -2.8816   -0.2818 H   0  0  0  0  0  0  0  0  0  0  0  0
   -2.1321   -2.2086    0.9112 C   0  0  0  0  0  0  0  0  0  0  0  0
   -1.2751   -2.8426    1.5112 O   0  0  0  0  0  0  0  0  0  0  0  0
   -1.9041   -1.0186    0.3602 N   0  0  0  0  0  0  0  0  0  0  0  0
   -2.6671   -0.5416   -0.0988 H   0  0  0  0  0  0  0  0  0  0  0  0
   -0.6131   -0.3236    0.3832 C   0  0  1  0  0  0  0  0  0  0  0  0
    0.1566   -1.0296    0.6989 H   0  0  0  0  0  0  0  0  0  0  0  0
   -0.2734    0.1556   -1.0402 C   0  0  0  0  0  0  0  0  0  0  0  0
   -1.1030    0.7589   -1.4148 H   0  0  0  0  0  0  0  0  0  0  0  0
    0.6171    0.7849   -1.0050 H   0  0  0  0  0  0  0  0  0  0  0  0
   -0.0253   -0.9894   -2.0289 C   0  0  0  0  0  0  0  0  0  0  0  0
   -0.9196   -1.6088   -2.0901 H   0  0  0  0  0  0  0  0  0  0  0  0
    0.1753   -0.5650   -3.0132 H   0  0  0  0  0  0  0  0  0  0  0  0
    1.3659   -2.0548   -1.5715 S   0  0  0  0  0  0  0  0  0  0  0  0
    2.7390   -0.9047   -1.8427 C   0  0  0  0  0  0  0  0  0  0  0  0
    2.6225   -0.0341   -1.1966 H   0  0  0  0  0  0  0  0  0  0  0  0
    3.6797   -1.4031   -1.6073 H   0  0  0  0  0  0  0  0  0  0  0  0
    2.7524   -0.5873   -2.8858 H   0  0  0  0  0  0  0  0  0  0  0  0
   -0.6439    0.8333    1.3920 C   0  0  0  0  0  0  0  0  0  0  0  0
    0.4054    1.3533    1.7661 O   0  0  0  0  0  0  0  0  0  0  0  0
   -1.8428    1.2296    1.8382 N   0  0  0  0  0  0  0  0  0  0  0  0
   -2.6601    0.7659    1.4747 H   0  0  0  0  0  0  0  0  0  0  0  0
   -2.0376    2.3048    2.8097 C   0  0  0  0  0  0  0  0  0  0  0  0
   -1.5959    3.2288    2.4291 H   0  0  0  0  0  0  0  0  0  0  0  0
   -3.1011    2.4638    2.9927 H   0  0  0  0  0  0  0  0  0  0  0  0
   -1.5437    2.0470    3.7483 H   0  0  0  0  0  0  0  0  0  0  0  0
  5  6  2  0  0  0  0
  5  7  1  0  0  0  0
  2  3  1  0  0  0  0
  2  4  1  0  0  0  0
  2  5  1  0  0  0  0
  1  2  1  0  0  0  0
 22 23  2  0  0  0  0
 22 24  1  0  0  0  0
 18 19  1  0  0  0  0
 18 20  1  0  0  0  0
 18 21  1  0  0  0  0
 17 18  1  0  0  0  0
 14 15  1  0  0  0  0
 14 16  1  0  0  0  0
 14 17  1  0  0  0  0
 11 12  1  0  0  0  0
 11 13  1  0  0  0  0
 11 14  1  0  0  0  0
  9 10  1  0  0  0  0
  9 11  1  0  0  0  0
  9 22  1  0  0  0  0
  7  8  1  0  0  0  0
  7  9  1  0  0  0  0
 26 27  1  0  0  0  0
 26 28  1  0  0  0  0
 26 29  1  0  0  0  0
 24 25  1  0  0  0  0
 24 26  1  0  0  0  0
M  END
$$$$
default_name
  -OEChem-01062215323D

 29 28  0     1  0  0  0  0  0999 V2000
   -3.5781   -3.7296    1.2702 H   0  0  0  0  0  0  0  0  0  0  0  0
   -3.5311   -2.7616    0.7732 C   0  0  0  0  0  0  0  0  0  0  0  0
   -4.2371   -2.0766    1.2382 H   0  0  0  0  0  0  0  0  0  0  0  0
   -3.7681   -2.8816   -0.2818 H   0  0  0  0  0  0  0  0  0  0  0  0
   -2.1321   -2.2086    0.9112 C   0  0  0  0  0  0  0  0  0  0  0  0
   -1.2751   -2.8426    1.5112 O   0  0  0  0  0  0  0  0  0  0  0  0
   -1.9041   -1.0186    0.3602 N   0  0  0  0  0  0  0  0  0  0  0  0
   -2.6671   -0.5416   -0.0988 H   0  0  0  0  0  0  0  0  0  0  0  0
   -0.6131   -0.3236    0.3832 C   0  0  1  0  0  0  0  0  0  0  0  0
    0.1566   -1.0296    0.6989 H   0  0  0  0  0  0  0  0  0  0  0  0
   -0.2734    0.1556   -1.0402 C   0  0  0  0  0  0  0  0  0  0  0  0
   -1.1030    0.7589   -1.4148 H   0  0  0  0  0  0  0  0  0  0  0  0
    0.6171    0.7849   -1.0050 H   0  0  0  0  0  0  0  0  0  0  0  0
   -0.0253   -0.9894   -2.0289 C   0  0  0  0  0  0  0  0  0  0  0  0
   -0.9196   -1.6088   -2.0901 H   0  0  0  0  0  0  0  0  0  0  0  0
    0.1753   -0.5650   -3.0132 H   0  0  0  0  0  0  0  0  0  0  0  0
    1.3659   -2.0548   -1.5715 S   0  0  0  0  0  0  0  0  0  0  0  0
    2.7390   -0.9047   -1.8427 C   0  0  0  0  0  0  0  0  0  0  0  0
    2.6225   -0.0341   -1.1966 H   0  0  0  0  0  0  0  0  0  0  0  0
    3.6797   -1.4031   -1.6073 H   0  0  0  0  0  0  0  0  0  0  0  0
    2.7524   -0.5873   -2.8858 H   0  0  0  0  0  0  0  0  0  0  0  0
   -0.6439    0.8333    1.3920 C   0  0  0  0  0  0  0  0  0  0  0  0
    0.3537    1.5318    1.5598 O   0  0  0  0  0  0  0  0  0  0  0  0
   -1.7828    1.0304    2.0686 N   0  0  0  0  0  0  0  0  0  0  0  0
   -2.5638    0.4269    1.8664 H   0  0  0  0  0  0  0  0  0  0  0  0
   -1.9653    2.0781    3.0719 C   0  0  0  0  0  0  0  0  0  0  0  0
   -1.7703    3.0550    2.6231 H   0  0  0  0  0  0  0  0  0  0  0  0
   -2.9841    2.0585    3.4611 H   0  0  0  0  0  0  0  0  0  0  0  0
   -1.2616    1.9285    3.8927 H   0  0  0  0  0  0  0  0  0  0  0  0
  5  6  2  0  0  0  0
  5  7  1  0  0  0  0
  2  3  1  0  0  0  0
  2  4  1  0  0  0  0
  2  5  1  0  0  0  0
  1  2  1  0  0  0  0
 22 23  2  0  0  0  0
 22 24  1  0  0  0  0
 18 19  1  0  0  0  0
 18 20  1  0  0  0  0
 18 21  1  0  0  0  0
 17 18  1  0  0  0  0
 14 15  1  0  0  0  0
 14 16  1  0  0  0  0
 14 17  1  0  0  0  0
 11 12  1  0  0  0  0
 11 13  1  0  0  0  0
 11 14  1  0  0  0  0
  9 10  1  0  0  0  0
  9 11  1  0  0  0  0
  9 22  1  0  0  0  0
  7  8  1  0  0  0  0
  7  9  1  0  0  0  0
 26 27  1  0  0  0  0
 26 28  1  0  0  0  0
 26 29  1  0  0  0  0
 24 25  1  0  0  0  0
 24 26  1  0  0  0  0
M  END
$$$$
default_name
  -OEChem-01062215323D

 29 28  0     1  0  0  0  0  0999 V2000
   -3.5781   -3.7296    1.2702 H   0  0  0  0  0  0  0  0  0  0  0  0
   -3.5311   -2.7616    0.7732 C   0  0  0  0  0  0  0  0  0  0  0  0
   -4.2371   -2.0766    1.2382 H   0  0  0  0  0  0  0  0  0  0  0  0
   -3.7681   -2.8816   -0.2818 H   0  0  0  0  0  0  0  0  0  0  0  0
   -2.1321   -2.2086    0.9112 C   0  0  0  0  0  0  0  0  0  0  0  0
   -1.2751   -2.8426    1.5112 O   0  0  0  0  0  0  0  0  0  0  0  0
   -1.9041   -1.0186    0.3602 N   0  0  0  0  0  0  0  0  0  0  0  0
   -2.6671   -0.5416   -0.0988 H   0  0  0  0  0  0  0  0  0  0  0  0
   -0.6131   -0.3236    0.3832 C   0  0  1  0  0  0  0  0  0  0  0  0
    0.1566   -1.0296    0.6989 H   0  0  0  0  0  0  0  0  0  0  0  0
   -0.2734    0.1556   -1.0402 C   0  0  0  0  0  0  0  0  0  0  0  0
   -1.1030    0.7589   -1.4148 H   0  0  0  0  0  0  0  0  0  0  0  0
    0.6171    0.7849   -1.0050 H   0  0  0  0  0  0  0  0  0  0  0  0
   -0.0253   -0.9894   -2.0289 C   0  0  0  0  0  0  0  0  0  0  0  0
   -0.9196   -1.6088   -2.0901 H   0  0  0  0  0  0  0  0  0  0  0  0
    0.1753   -0.5650   -3.0132 H   0  0  0  0  0  0  0  0  0  0  0  0
    1.3659   -2.0548   -1.5715 S   0  0  0  0  0  0  0  0  0  0  0  0
    2.7390   -0.9047   -1.8427 C   0  0  0  0  0  0  0  0  0  0  0  0
    2.6225   -0.0341   -1.1966 H   0  0  0  0  0  0  0  0  0  0  0  0
    3.6797   -1.4031   -1.6073 H   0  0  0  0  0  0  0  0  0  0  0  0
    2.7524   -0.5873   -2.8858 H   0  0  0  0  0  0  0  0  0  0  0  0
   -0.6439    0.8333    1.3920 C   0  0  0  0  0  0  0  0  0  0  0  0
    0.2332    1.6944    1.3697 O   0  0  0  0  0  0  0  0  0  0  0  0
   -1.6459    0.8493    2.2804 N   0  0  0  0  0  0  0  0  0  0  0  0
   -2.3368    0.1178    2.2278 H   0  0  0  0  0  0  0  0  0  0  0  0
   -1.8057    1.8728    3.3122 C   0  0  0  0  0  0  0  0  0  0  0  0
   -1.8714    2.8584    2.8454 H   0  0  0  0  0  0  0  0  0  0  0  0
   -2.7108    1.6894    3.8927 H   0  0  0  0  0  0  0  0  0  0  0  0
   -0.9408    1.8629    3.9778 H   0  0  0  0  0  0  0  0  0  0  0  0
  5  6  2  0  0  0  0
  5  7  1  0  0  0  0
  2  3  1  0  0  0  0
  2  4  1  0  0  0  0
  2  5  1  0  0  0  0
  1  2  1  0  0  0  0
 22 23  2  0  0  0  0
 22 24  1  0  0  0  0
 18 19  1  0  0  0  0
 18 20  1  0  0  0  0
 18 21  1  0  0  0  0
 17 18  1  0  0  0  0
 14 15  1  0  0  0  0
 14 16  1  0  0  0  0
 14 17  1  0  0  0  0
 11 12  1  0  0  0  0
 11 13  1  0  0  0  0
 11 14  1  0  0  0  0
  9 10  1  0  0  0  0
  9 11  1  0  0  0  0
  9 22  1  0  0  0  0
  7  8  1  0  0  0  0
  7  9  1  0  0  0  0
 26 27  1  0  0  0  0
 26 28  1  0  0  0  0
 26 29  1  0  0  0  0
 24 25  1  0  0  0  0
 24 26  1  0  0  0  0
M  END
$$$$
default_name
  -OEChem-01062215323D

 29 28  0     1  0  0  0  0  0999 V2000
   -3.5781   -3.7296    1.2702 H   0  0  0  0  0  0  0  0  0  0  0  0
   -3.5311   -2.7616    0.7732 C   0  0  0  0  0  0  0  0  0  0  0  0
   -4.2371   -2.0766    1.2382 H   0  0  0  0  0  0  0  0  0  0  0  0
   -3.7681   -2.8816   -0.2818 H   0  0  0  0  0  0  0  0  0  0  0  0
   -2.1321   -2.2086    0.9112 C   0  0  0  0  0  0  0  0  0  0  0  0
   -1.2751   -2.8426    1.5112 O   0  0  0  0  0  0  0  0  0  0  0  0
   -1.9041   -1.0186    0.3602 N   0  0  0  0  0  0  0  0  0  0  0  0
   -2.6671   -0.5416   -0.0988 H   0  0  0  0  0  0  0  0  0  0  0  0
   -0.6131   -0.3236    0.3832 C   0  0  1  0  0  0  0  0  0  0  0  0
    0.1566   -1.0296    0.6989 H   0  0  0  0  0  0  0  0  0  0  0  0
   -0.2734    0.1556   -1.0402 C   0  0  0  0  0  0  0  0  0  0  0  0
   -1.1030    0.7589   -1.4148 H   0  0  0  0  0  0  0  0  0  0  0  0
    0.6171    0.7849   -1.0050 H   0  0  0  0  0  0  0  0  0  0  0  0
   -0.0253   -0.9894   -2.0289 C   0  0  0  0  0  0  0  0  0  0  0  0
   -0.9196   -1.6088   -2.0901 H   0  0  0  0  0  0  0  0  0  0  0  0
    0.1753   -0.5650   -3.0132 H   0  0  0  0  0  0  0  0  0  0  0  0
    1.3659   -2.0548   -1.5715 S   0  0  0  0  0  0  0  0  0  0  0  0
    2.7390   -0.9047   -1.8427 C   0  0  0  0  0  0  0  0  0  0  0  0
    2.6225   -0.0341   -1.1966 H   0  0  0  0  0  0  0  0  0  0  0  0
    3.6797   -1.4031   -1.6073 H   0  0  0  0  0  0  0  0  0  0  0  0
    2.7524   -0.5873   -2.8858 H   0  0  0  0  0  0  0  0  0  0  0  0
   -0.6439    0.8333    1.3920 C   0  0  0  0  0  0  0  0  0  0  0  0
    0.0521    1.8299    1.2087 O   0  0  0  0  0  0  0  0  0  0  0  0
   -1.4417    0.6988    2.4593 N   0  0  0  0  0  0  0  0  0  0  0  0
   -1.9945   -0.1402    2.5342 H   0  0  0  0  0  0  0  0  0  0  0  0
   -1.5699    1.7029    3.5143 C   0  0  0  0  0  0  0  0  0  0  0  0
   -1.8922    2.6526    3.0808 H   0  0  0  0  0  0  0  0  0  0  0  0
   -2.2998    1.3815    4.2584 H   0  0  0  0  0  0  0  0  0  0  0  0
   -0.6032    1.8544    3.9978 H   0  0  0  0  0  0  0  0  0  0  0  0
  5  6  2  0  0  0  0
  5  7  1  0  0  0  0
  2  3  1  0  0  0  0
  2  4  1  0  0  0  0
  2  5  1  0  0  0  0
  1  2  1  0  0  0  0
 22 23  2  0  0  0  0
 22 24  1  0  0  0  0
 18 19  1  0  0  0  0
 18 20  1  0  0  0  0
 18 21  1  0  0  0  0
 17 18  1  0  0  0  0
 14 15  1  0  0  0  0
 14 16  1  0  0  0  0
 14 17  1  0  0  0  0
 11 12  1  0  0  0  0
 11 13  1  0  0  0  0
 11 14  1  0  0  0  0
  9 10  1  0  0  0  0
  9 11  1  0  0  0  0
  9 22  1  0  0  0  0
  7  8  1  0  0  0  0
  7  9  1  0  0  0  0
 26 27  1  0  0  0  0
 26 28  1  0  0  0  0
 26 29  1  0  0  0  0
 24 25  1  0  0  0  0
 24 26  1  0  0  0  0
M  END
$$$$
default_name
  -OEChem-01062215323D

 29 28  0     1  0  0  0  0  0999 V2000
   -3.5781   -3.7296    1.2702 H   0  0  0  0  0  0  0  0  0  0  0  0
   -3.5311   -2.7616    0.7732 C   0  0  0  0  0  0  0  0  0  0  0  0
   -4.2371   -2.0766    1.2382 H   0  0  0  0  0  0  0  0  0  0  0  0
   -3.7681   -2.8816   -0.2818 H   0  0  0  0  0  0  0  0  0  0  0  0
   -2.1321   -2.2086    0.9112 C   0  0  0  0  0  0  0  0  0  0  0  0
   -1.2751   -2.8426    1.5112 O   0  0  0  0  0  0  0  0  0  0  0  0
   -1.9041   -1.0186    0.3602 N   0  0  0  0  0  0  0  0  0  0  0  0
   -2.6671   -0.5416   -0.0988 H   0  0  0  0  0  0  0  0  0  0  0  0
   -0.6131   -0.3236    0.3832 C   0  0  1  0  0  0  0  0  0  0  0  0
    0.1566   -1.0296    0.6989 H   0  0  0  0  0  0  0  0  0  0  0  0
   -0.2734    0.1556   -1.0402 C   0  0  0  0  0  0  0  0  0  0  0  0
   -1.1030    0.7589   -1.4148 H   0  0  0  0  0  0  0  0  0  0  0  0
    0.6171    0.7849   -1.0050 H   0  0  0  0  0  0  0  0  0  0  0  0
   -0.0253   -0.9894   -2.0289 C   0  0  0  0  0  0  0  0  0  0  0  0
   -0.9196   -1.6088   -2.0901 H   0  0  0  0  0  0  0  0  0  0  0  0
    0.1753   -0.5650   -3.0132 H   0  0  0  0  0  0  0  0  0  0  0  0
    1.3659   -2.0548   -1.5715 S   0  0  0  0  0  0  0  0  0  0  0  0
    2.7390   -0.9047   -1.8427 C   0  0  0  0  0  0  0  0  0  0  0  0
    2.6225   -0.0341   -1.1966 H   0  0  0  0  0  0  0  0  0  0  0  0
    3.6797   -1.4031   -1.6073 H   0  0  0  0  0  0  0  0  0  0  0  0
    2.7524   -0.5873   -2.8858 H   0  0  0  0  0  0  0  0  0  0  0  0
   -0.6439    0.8333    1.3920 C   0  0  0  0  0  0  0  0  0  0  0  0
   -0.1773    1.9292    1.0878 O   0  0  0  0  0  0  0  0  0  0  0  0
   -1.1839    0.5890    2.5930 N   0  0  0  0  0  0  0  0  0  0  0  0
   -1.5601   -0.3297    2.7647 H   0  0  0  0  0  0  0  0  0  0  0  0
   -1.2737    1.5799    3.6643 C   0  0  0  0  0  0  0  0  0  0  0  0
   -1.8315    2.4514    3.3134 H   0  0  0  0  0  0  0  0  0  0  0  0
   -1.7792    1.1559    4.5330 H   0  0  0  0  0  0  0  0  0  0  0  0
   -0.2717    1.9038    3.9513 H   0  0  0  0  0  0  0  0  0  0  0  0
  5  6  2  0  0  0  0
  5  7  1  0  0  0  0
  2  3  1  0  0  0  0
  2  4  1  0  0  0  0
  2  5  1  0  0  0  0
  1  2  1  0  0  0  0
 22 23  2  0  0  0  0
 22 24  1  0  0  0  0
 18 19  1  0  0  0  0
 18 20  1  0  0  0  0
 18 21  1  0  0  0  0
 17 18  1  0  0  0  0
 14 15  1  0  0  0  0
 14 16  1  0  0  0  0
 14 17  1  0  0  0  0
 11 12  1  0  0  0  0
 11 13  1  0  0  0  0
 11 14  1  0  0  0  0
  9 10  1  0  0  0  0
  9 11  1  0  0  0  0
  9 22  1  0  0  0  0
  7  8  1  0  0  0  0
  7  9  1  0  0  0  0
 26 27  1  0  0  0  0
 26 28  1  0  0  0  0
 26 29  1  0  0  0  0
 24 25  1  0  0  0  0
 24 26  1  0  0  0  0
M  END
$$$$
default_name
  -OEChem-01062215323D

 29 28  0     1  0  0  0  0  0999 V2000
   -3.5781   -3.7296    1.2702 H   0  0  0  0  0  0  0  0  0  0  0  0
   -3.5311   -2.7616    0.7732 C   0  0  0  0  0  0  0  0  0  0  0  0
   -4.2371   -2.0766    1.2382 H   0  0  0  0  0  0  0  0  0  0  0  0
   -3.7681   -2.8816   -0.2818 H   0  0  0  0  0  0  0  0  0  0  0  0
   -2.1321   -2.2086    0.9112 C   0  0  0  0  0  0  0  0  0  0  0  0
   -1.2751   -2.8426    1.5112 O   0  0  0  0  0  0  0  0  0  0  0  0
   -1.9041   -1.0186    0.3602 N   0  0  0  0  0  0  0  0  0  0  0  0
   -2.6671   -0.5416   -0.0988 H   0  0  0  0  0  0  0  0  0  0  0  0
   -0.6131   -0.3236    0.3832 C   0  0  1  0  0  0  0  0  0  0  0  0
    0.1566   -1.0296    0.6989 H   0  0  0  0  0  0  0  0  0  0  0  0
   -0.2734    0.1556   -1.0402 C   0  0  0  0  0  0  0  0  0  0  0  0
   -1.1030    0.7589   -1.4148 H   0  0  0  0  0  0  0  0  0  0  0  0
    0.6171    0.7849   -1.0050 H   0  0  0  0  0  0  0  0  0  0  0  0
   -0.0253   -0.9894   -2.0289 C   0  0  0  0  0  0  0  0  0  0  0  0
   -0.9196   -1.6088   -2.0901 H   0  0  0  0  0  0  0  0  0  0  0  0
    0.1753   -0.5650   -3.0132 H   0  0  0  0  0  0  0  0  0  0  0  0
    1.3659   -2.0548   -1.5715 S   0  0  0  0  0  0  0  0  0  0  0  0
    2.7390   -0.9047   -1.8427 C   0  0  0  0  0  0  0  0  0  0  0  0
    2.6225   -0.0341   -1.1966 H   0  0  0  0  0  0  0  0  0  0  0  0
    3.6797   -1.4031   -1.6073 H   0  0  0  0  0  0  0  0  0  0  0  0
    2.7524   -0.5873   -2.8858 H   0  0  0  0  0  0  0  0  0  0  0  0
   -0.6439    0.8333    1.3920 C   0  0  0  0  0  0  0  0  0  0  0  0
   -0.4393    1.9855    1.0153 O   0  0  0  0  0  0  0  0  0  0  0  0
   -0.8902    0.5276    2.6724 N   0  0  0  0  0  0  0  0  0  0  0  0
   -1.0635   -0.4376    2.9036 H   0  0  0  0  0  0  0  0  0  0  0  0
   -0.9375    1.5123    3.7522 C   0  0  0  0  0  0  0  0  0  0  0  0
   -1.6932    2.2686    3.5272 H   0  0  0  0  0  0  0  0  0  0  0  0
   -1.1844    1.0280    4.6978 H   0  0  0  0  0  0  0  0  0  0  0  0
    0.0310    2.0076    3.8415 H   0  0  0  0  0  0  0  0  0  0  0  0
  5  6  2  0  0  0  0
  5  7  1  0  0  0  0
  2  3  1  0  0  0  0
  2  4  1  0  0  0  0
  2  5  1  0  0  0  0
  1  2  1  0  0  0  0
 22 23  2  0  0  0  0
 22 24  1  0  0  0  0
 18 19  1  0  0  0  0
 18 20  1  0  0  0  0
 18 21  1  0  0  0  0
 17 18  1  0  0  0  0
 14 15  1  0  0  0  0
 14 16  1  0  0  0  0
 14 17  1  0  0  0  0
 11 12  1  0  0  0  0
 11 13  1  0  0  0  0
 11 14  1  0  0  0  0
  9 10  1  0  0  0  0
  9 11  1  0  0  0  0
  9 22  1  0  0  0  0
  7  8  1  0  0  0  0
  7  9  1  0  0  0  0
 26 27  1  0  0  0  0
 26 28  1  0  0  0  0
 26 29  1  0  0  0  0
 24 25  1  0  0  0  0
 24 26  1  0  0  0  0
M  END
$$$$
default_name
  -OEChem-01062215323D

 29 28  0     1  0  0  0  0  0999 V2000
   -3.5781   -3.7296    1.2702 H   0  0  0  0  0  0  0  0  0  0  0  0
   -3.5311   -2.7616    0.7732 C   0  0  0  0  0  0  0  0  0  0  0  0
   -4.2371   -2.0766    1.2382 H   0  0  0  0  0  0  0  0  0  0  0  0
   -3.7681   -2.8816   -0.2818 H   0  0  0  0  0  0  0  0  0  0  0  0
   -2.1321   -2.2086    0.9112 C   0  0  0  0  0  0  0  0  0  0  0  0
   -1.2751   -2.8426    1.5112 O   0  0  0  0  0  0  0  0  0  0  0  0
   -1.9041   -1.0186    0.3602 N   0  0  0  0  0  0  0  0  0  0  0  0
   -2.6671   -0.5416   -0.0988 H   0  0  0  0  0  0  0  0  0  0  0  0
   -0.6131   -0.3236    0.3832 C   0  0  1  0  0  0  0  0  0  0  0  0
    0.1566   -1.0296    0.6989 H   0  0  0  0  0  0  0  0  0  0  0  0
   -0.2734    0.1556   -1.0402 C   0  0  0  0  0  0  0  0  0  0  0  0
   -1.1030    0.7589   -1.4148 H   0  0  0  0  0  0  0  0  0  0  0  0
    0.6171    0.7849   -1.0050 H   0  0  0  0  0  0  0  0  0  0  0  0
   -0.0253   -0.9894   -2.0289 C   0  0  0  0  0  0  0  0  0  0  0  0
   -0.9196   -1.6088   -2.0901 H   0  0  0  0  0  0  0  0  0  0  0  0
    0.1753   -0.5650   -3.0132 H   0  0  0  0  0  0  0  0  0  0  0  0
    1.3659   -2.0548   -1.5715 S   0  0  0  0  0  0  0  0  0  0  0  0
    2.7390   -0.9047   -1.8427 C   0  0  0  0  0  0  0  0  0  0  0  0
    2.6225   -0.0341   -1.1966 H   0  0  0  0  0  0  0  0  0  0  0  0
    3.6797   -1.4031   -1.6073 H   0  0  0  0  0  0  0  0  0  0  0  0
    2.7524   -0.5873   -2.8858 H   0  0  0  0  0  0  0  0  0  0  0  0
   -0.6439    0.8333    1.3920 C   0  0  0  0  0  0  0  0  0  0  0  0
   -0.7161    1.9949    0.9960 O   0  0  0  0  0  0  0  0  0  0  0  0
   -0.5805    0.5186    2.6922 N   0  0  0  0  0  0  0  0  0  0  0  0
   -0.5382   -0.4567    2.9416 H   0  0  0  0  0  0  0  0  0  0  0  0
   -0.5841    1.5046    3.7718 C   0  0  0  0  0  0  0  0  0  0  0  0
   -1.4868    2.1167    3.7077 H   0  0  0  0  0  0  0  0  0  0  0  0
   -0.5560    1.0065    4.7418 H   0  0  0  0  0  0  0  0  0  0  0  0
    0.2843    2.1589    3.6759 H   0  0  0  0  0  0  0  0  0  0  0  0
  5  6  2  0  0  0  0
  5  7  1  0  0  0  0
  2  3  1  0  0  0  0
  2  4  1  0  0  0  0
  2  5  1  0  0  0  0
  1  2  1  0  0  0  0
 22 23  2  0  0  0  0
 22 24  1  0  0  0  0
 18 19  1  0  0  0  0
 18 20  1  0  0  0  0
 18 21  1  0  0  0  0
 17 18  1  0  0  0  0
 14 15  1  0  0  0  0
 14 16  1  0  0  0  0
 14 17  1  0  0  0  0
 11 12  1  0  0  0  0
 11 13  1  0  0  0  0
 11 14  1  0  0  0  0
  9 10  1  0  0  0  0
  9 11  1  0  0  0  0
  9 22  1  0  0  0  0
  7  8  1  0  0  0  0
  7  9  1  0  0  0  0
 26 27  1  0  0  0  0
 26 28  1  0  0  0  0
 26 29  1  0  0  0  0
 24 25  1  0  0  0  0
 24 26  1  0  0  0  0
M  END
$$$$
default_name
  -OEChem-01062215323D

 29 28  0     1  0  0  0  0  0999 V2000
   -3.5781   -3.7296    1.2702 H   0  0  0  0  0  0  0  0  0  0  0  0
   -3.5311   -2.7616    0.7732 C   0  0  0  0  0  0  0  0  0  0  0  0
   -4.2371   -2.0766    1.2382 H   0  0  0  0  0  0  0  0  0  0  0  0
   -3.7681   -2.8816   -0.2818 H   0  0  0  0  0  0  0  0  0  0  0  0
   -2.1321   -2.2086    0.9112 C   0  0  0  0  0  0  0  0  0  0  0  0
   -1.2751   -2.8426    1.5112 O   0  0  0  0  0  0  0  0  0  0  0  0
   -1.9041   -1.0186    0.3602 N   0  0  0  0  0  0  0  0  0  0  0  0
   -2.6671   -0.5416   -0.0988 H   0  0  0  0  0  0  0  0  0  0  0  0
   -0.6131   -0.3236    0.3832 C   0  0  1  0  0  0  0  0  0  0  0  0
    0.1566   -1.0296    0.6989 H   0  0  0  0  0  0  0  0  0  0  0  0
   -0.2734    0.1556   -1.0402 C   0  0  0  0  0  0  0  0  0  0  0  0
   -1.1030    0.7589   -1.4148 H   0  0  0  0  0  0  0  0  0  0  0  0
    0.6171    0.7849   -1.0050 H   0  0  0  0  0  0  0  0  0  0  0  0
   -0.0253   -0.9894   -2.0289 C   0  0  0  0  0  0  0  0  0  0  0  0
   -0.9196   -1.6088   -2.0901 H   0  0  0  0  0  0  0  0  0  0  0  0
    0.1753   -0.5650   -3.0132 H   0  0  0  0  0  0  0  0  0  0  0  0
    1.3659   -2.0548   -1.5715 S   0  0  0  0  0  0  0  0  0  0  0  0
    2.7390   -0.9047   -1.8427 C   0  0  0  0  0  0  0  0  0  0  0  0
    2.6225   -0.0341   -1.1966 H   0  0  0  0  0  0  0  0  0  0  0  0
    3.6797   -1.4031   -1.6073 H   0  0  0  0  0  0  0  0  0  0  0  0
    2.7524   -0.5873   -2.8858 H   0  0  0  0  0  0  0  0  0  0  0  0
   -0.6439    0.8333    1.3920 C   0  0  0  0  0  0  0  0  0  0  0  0
   -0.9888    1.9568    1.0314 O   0  0  0  0  0  0  0  0  0  0  0  0
   -0.2760    0.5627    2.6510 N   0  0  0  0  0  0  0  0  0  0  0  0
   -0.0203   -0.3855    2.8758 H   0  0  0  0  0  0  0  0  0  0  0  0
   -0.2376    1.5574    3.7218 C   0  0  0  0  0  0  0  0  0  0  0  0
   -1.2264    2.0060    3.8426 H   0  0  0  0  0  0  0  0  0  0  0  0
    0.0633    1.0928    4.6617 H   0  0  0  0  0  0  0  0  0  0  0  0
    0.4710    2.3471    3.4657 H   0  0  0  0  0  0  0  0  0  0  0  0
  5  6  2  0  0  0  0
  5  7  1  0  0  0  0
  2  3  1  0  0  0  0
  2  4  1  0  0  0  0
  2  5  1  0  0  0  0
  1  2  1  0  0  0  0
 22 23  2  0  0  0  0
 22 24  1  0  0  0  0
 18 19  1  0  0  0  0
 18 20  1  0  0  0  0
 18 21  1  0  0  0  0
 17 18  1  0  0  0  0
 14 15  1  0  0  0  0
 14 16  1  0  0  0  0
 14 17  1  0  0  0  0
 11 12  1  0  0  0  0
 11 13  1  0  0  0  0
 11 14  1  0  0  0  0
  9 10  1  0  0  0  0
  9 11  1  0  0  0  0
  9 22  1  0  0  0  0
  7  8  1  0  0  0  0
  7  9  1  0  0  0  0
 26 27  1  0  0  0  0
 26 28  1  0  0  0  0
 26 29  1  0  0  0  0
 24 25  1  0  0  0  0
 24 26  1  0  0  0  0
M  END
$$$$
default_name
  -OEChem-01062215323D

 29 28  0     1  0  0  0  0  0999 V2000
   -3.5781   -3.7296    1.2702 H   0  0  0  0  0  0  0  0  0  0  0  0
   -3.5311   -2.7616    0.7732 C   0  0  0  0  0  0  0  0  0  0  0  0
   -4.2371   -2.0766    1.2382 H   0  0  0  0  0  0  0  0  0  0  0  0
   -3.7681   -2.8816   -0.2818 H   0  0  0  0  0  0  0  0  0  0  0  0
   -2.1321   -2.2086    0.9112 C   0  0  0  0  0  0  0  0  0  0  0  0
   -1.2751   -2.8426    1.5112 O   0  0  0  0  0  0  0  0  0  0  0  0
   -1.9041   -1.0186    0.3602 N   0  0  0  0  0  0  0  0  0  0  0  0
   -2.6671   -0.5416   -0.0988 H   0  0  0  0  0  0  0  0  0  0  0  0
   -0.6131   -0.3236    0.3832 C   0  0  1  0  0  0  0  0  0  0  0  0
    0.1566   -1.0296    0.6989 H   0  0  0  0  0  0  0  0  0  0  0  0
   -0.2734    0.1556   -1.0402 C   0  0  0  0  0  0  0  0  0  0  0  0
   -1.1030    0.7589   -1.4148 H   0  0  0  0  0  0  0  0  0  0  0  0
    0.6171    0.7849   -1.0050 H   0  0  0  0  0  0  0  0  0  0  0  0
   -0.0253   -0.9894   -2.0289 C   0  0  0  0  0  0  0  0  0  0  0  0
   -0.9196   -1.6088   -2.0901 H   0  0  0  0  0  0  0  0  0  0  0  0
    0.1753   -0.5650   -3.0132 H   0  0  0  0  0  0  0  0  0  0  0  0
    1.3659   -2.0548   -1.5715 S   0  0  0  0  0  0  0  0  0  0  0  0
    2.7390   -0.9047   -1.8427 C   0  0  0  0  0  0  0  0  0  0  0  0
    2.6225   -0.0341   -1.1966 H   0  0  0  0  0  0  0  0  0  0  0  0
    3.6797   -1.4031   -1.6073 H   0  0  0  0  0  0  0  0  0  0  0  0
    2.7524   -0.5873   -2.8858 H   0  0  0  0  0  0  0  0  0  0  0  0
   -0.6439    0.8333    1.3920 C   0  0  0  0  0  0  0  0  0  0  0  0
   -1.2389    1.8738    1.1189 O   0  0  0  0  0  0  0  0  0  0  0  0
    0.0026    0.6569    2.5515 N   0  0  0  0  0  0  0  0  0  0  0  0
    0.4551   -0.2291    2.7110 H   0  0  0  0  0  0  0  0  0  0  0  0
    0.0784    1.6671    3.6057 C   0  0  0  0  0  0  0  0  0  0  0  0
   -0.9298    1.9440    3.9227 H   0  0  0  0  0  0  0  0  0  0  0  0
    0.6311    1.2810    4.4632 H   0  0  0  0  0  0  0  0  0  0  0  0
    0.5782    2.5596    3.2253 H   0  0  0  0  0  0  0  0  0  0  0  0
  5  6  2  0  0  0  0
  5  7  1  0  0  0  0
  2  3  1  0  0  0  0
  2  4  1  0  0  0  0
  2  5  1  0  0  0  0
  1  2  1  0  0  0  0
 22 23  2  0  0  0  0
 22 24  1  0  0  0  0
 18 19  1  0  0  0  0
 18 20  1  0  0  0  0
 18 21  1  0  0  0  0
 17 18  1  0  0  0  0
 14 15  1  0  0  0  0
 14 16  1  0  0  0  0
 14 17  1  0  0  0  0
 11 12  1  0  0  0  0
 11 13  1  0  0  0  0
 11 14  1  0  0  0  0
  9 10  1  0  0  0  0
  9 11  1  0  0  0  0
  9 22  1  0  0  0  0
  7  8  1  0  0  0  0
  7  9  1  0  0  0  0
 26 27  1  0  0  0  0
 26 28  1  0  0  0  0
 26 29  1  0  0  0  0
 24 25  1  0  0  0  0
 24 26  1  0  0  0  0
M  END
$$$$
default_name
  -OEChem-01062215323D

 29 28  0     1  0  0  0  0  0999 V2000
   -3.5781   -3.7296    1.2702 H   0  0  0  0  0  0  0  0  0  0  0  0
   -3.5311   -2.7616    0.7732 C   0  0  0  0  0  0  0  0  0  0  0  0
   -4.2371   -2.0766    1.2382 H   0  0  0  0  0  0  0  0  0  0  0  0
   -3.7681   -2.8816   -0.2818 H   0  0  0  0  0  0  0  0  0  0  0  0
   -2.1321   -2.2086    0.9112 C   0  0  0  0  0  0  0  0  0  0  0  0
   -1.2751   -2.8426    1.5112 O   0  0  0  0  0  0  0  0  0  0  0  0
   -1.9041   -1.0186    0.3602 N   0  0  0  0  0  0  0  0  0  0  0  0
   -2.6671   -0.5416   -0.0988 H   0  0  0  0  0  0  0  0  0  0  0  0
   -0.6131   -0.3236    0.3832 C   0  0  1  0  0  0  0  0  0  0  0  0
    0.1566   -1.0296    0.6989 H   0  0  0  0  0  0  0  0  0  0  0  0
   -0.2734    0.1556   -1.0402 C   0  0  0  0  0  0  0  0  0  0  0  0
   -1.1030    0.7589   -1.4148 H   0  0  0  0  0  0  0  0  0  0  0  0
    0.6171    0.7849   -1.0050 H   0  0  0  0  0  0  0  0  0  0  0  0
   -0.0253   -0.9894   -2.0289 C   0  0  0  0  0  0  0  0  0  0  0  0
   -0.9196   -1.6088   -2.0901 H   0  0  0  0  0  0  0  0  0  0  0  0
    0.1753   -0.5650   -3.0132 H   0  0  0  0  0  0  0  0  0  0  0  0
    1.3659   -2.0548   -1.5715 S   0  0  0  0  0  0  0  0  0  0  0  0
    2.7390   -0.9047   -1.8427 C   0  0  0  0  0  0  0  0  0  0  0  0
    2.6225   -0.0341   -1.1966 H   0  0  0  0  0  0  0  0  0  0  0  0
    3.6797   -1.4031   -1.6073 H   0  0  0  0  0  0  0  0  0  0  0  0
    2.7524   -0.5873   -2.8858 H   0  0  0  0  0  0  0  0  0  0  0  0
   -0.6439    0.8333    1.3920 C   0  0  0  0  0  0  0  0  0  0  0  0
   -1.4493    1.7516    1.2526 O   0  0  0  0  0  0  0  0  0  0  0  0
    0.2363    0.7947    2.4006 N   0  0  0  0  0  0  0  0  0  0  0  0
    0.8556    0.0020    2.4582 H   0  0  0  0  0  0  0  0  0  0  0  0
    0.3423    1.8261    3.4314 C   0  0  0  0  0  0  0  0  0  0  0  0
   -0.6171    1.9351    3.9426 H   0  0  0  0  0  0  0  0  0  0  0  0
    1.1089    1.5584    4.1597 H   0  0  0  0  0  0  0  0  0  0  0  0
    0.5988    2.7819    2.9710 H   0  0  0  0  0  0  0  0  0  0  0  0
  5  6  2  0  0  0  0
  5  7  1  0  0  0  0
  2  3  1  0  0  0  0
  2  4  1  0  0  0  0
  2  5  1  0  0  0  0
  1  2  1  0  0  0  0
 22 23  2  0  0  0  0
 22 24  1  0  0  0  0
 18 19  1  0  0  0  0
 18 20  1  0  0  0  0
 18 21  1  0  0  0  0
 17 18  1  0  0  0  0
 14 15  1  0  0  0  0
 14 16  1  0  0  0  0
 14 17  1  0  0  0  0
 11 12  1  0  0  0  0
 11 13  1  0  0  0  0
 11 14  1  0  0  0  0
  9 10  1  0  0  0  0
  9 11  1  0  0  0  0
  9 22  1  0  0  0  0
  7  8  1  0  0  0  0
  7  9  1  0  0  0  0
 26 27  1  0  0  0  0
 26 28  1  0  0  0  0
 26 29  1  0  0  0  0
 24 25  1  0  0  0  0
 24 26  1  0  0  0  0
M  END
$$$$
default_name
  -OEChem-01062215323D

 29 28  0     1  0  0  0  0  0999 V2000
   -3.5781   -3.7296    1.2702 H   0  0  0  0  0  0  0  0  0  0  0  0
   -3.5311   -2.7616    0.7732 C   0  0  0  0  0  0  0  0  0  0  0  0
   -4.2371   -2.0766    1.2382 H   0  0  0  0  0  0  0  0  0  0  0  0
   -3.7681   -2.8816   -0.2818 H   0  0  0  0  0  0  0  0  0  0  0  0
   -2.1321   -2.2086    0.9112 C   0  0  0  0  0  0  0  0  0  0  0  0
   -1.2751   -2.8426    1.5112 O   0  0  0  0  0  0  0  0  0  0  0  0
   -1.9041   -1.0186    0.3602 N   0  0  0  0  0  0  0  0  0  0  0  0
   -2.6671   -0.5416   -0.0988 H   0  0  0  0  0  0  0  0  0  0  0  0
   -0.6131   -0.3236    0.3832 C   0  0  1  0  0  0  0  0  0  0  0  0
    0.1566   -1.0296    0.6989 H   0  0  0  0  0  0  0  0  0  0  0  0
   -0.2734    0.1556   -1.0402 C   0  0  0  0  0  0  0  0  0  0  0  0
   -1.1030    0.7589   -1.4148 H   0  0  0  0  0  0  0  0  0  0  0  0
    0.6171    0.7849   -1.0050 H   0  0  0  0  0  0  0  0  0  0  0  0
   -0.0253   -0.9894   -2.0289 C   0  0  0  0  0  0  0  0  0  0  0  0
   -0.9196   -1.6088   -2.0901 H   0  0  0  0  0  0  0  0  0  0  0  0
    0.1753   -0.5650   -3.0132 H   0  0  0  0  0  0  0  0  0  0  0  0
    1.3659   -2.0548   -1.5715 S   0  0  0  0  0  0  0  0  0  0  0  0
    2.7390   -0.9047   -1.8427 C   0  0  0  0  0  0  0  0  0  0  0  0
    2.6225   -0.0341   -1.1966 H   0  0  0  0  0  0  0  0  0  0  0  0
    3.6797   -1.4031   -1.6073 H   0  0  0  0  0  0  0  0  0  0  0  0
    2.7524   -0.5873   -2.8858 H   0  0  0  0  0  0  0  0  0  0  0  0
   -0.6439    0.8333    1.3920 C   0  0  0  0  0  0  0  0  0  0  0  0
   -1.6056    1.5984    1.4235 O   0  0  0  0  0  0  0  0  0  0  0  0
    0.4092    0.9667    2.2086 N   0  0  0  0  0  0  0  0  0  0  0  0
    1.1537    0.2920    2.1347 H   0  0  0  0  0  0  0  0  0  0  0  0
    0.5362    2.0237    3.2107 C   0  0  0  0  0  0  0  0  0  0  0  0
   -0.3097    1.9797    3.9008 H   0  0  0  0  0  0  0  0  0  0  0  0
    1.4641    1.9060    3.7720 H   0  0  0  0  0  0  0  0  0  0  0  0
    0.5313    2.9988    2.7202 H   0  0  0  0  0  0  0  0  0  0  0  0
  5  6  2  0  0  0  0
  5  7  1  0  0  0  0
  2  3  1  0  0  0  0
  2  4  1  0  0  0  0
  2  5  1  0  0  0  0
  1  2  1  0  0  0  0
 22 23  2  0  0  0  0
 22 24  1  0  0  0  0
 18 19  1  0  0  0  0
 18 20  1  0  0  0  0
 18 21  1  0  0  0  0
 17 18  1  0  0  0  0
 14 15  1  0  0  0  0
 14 16  1  0  0  0  0
 14 17  1  0  0  0  0
 11 12  1  0  0  0  0
 11 13  1  0  0  0  0
 11 14  1  0  0  0  0
  9 10  1  0  0  0  0
  9 11  1  0  0  0  0
  9 22  1  0  0  0  0
  7  8  1  0  0  0  0
  7  9  1  0  0  0  0
 26 27  1  0  0  0  0
 26 28  1  0  0  0  0
 26 29  1  0  0  0  0
 24 25  1  0  0  0  0
 24 26  1  0  0  0  0
M  END
$$$$
default_name
  -OEChem-01062215323D

 29 28  0     1  0  0  0  0  0999 V2000
   -3.5781   -3.7296    1.2702 H   0  0  0  0  0  0  0  0  0  0  0  0
   -3.5311   -2.7616    0.7732 C   0  0  0  0  0  0  0  0  0  0  0  0
   -4.2371   -2.0766    1.2382 H   0  0  0  0  0  0  0  0  0  0  0  0
   -3.7681   -2.8816   -0.2818 H   0  0  0  0  0  0  0  0  0  0  0  0
   -2.1321   -2.2086    0.9112 C   0  0  0  0  0  0  0  0  0  0  0  0
   -1.2751   -2.8426    1.5112 O   0  0  0  0  0  0  0  0  0  0  0  0
   -1.9041   -1.0186    0.3602 N   0  0  0  0  0  0  0  0  0  0  0  0
   -2.6671   -0.5416   -0.0988 H   0  0  0  0  0  0  0  0  0  0  0  0
   -0.6131   -0.3236    0.3832 C   0  0  1  0  0  0  0  0  0  0  0  0
    0.1566   -1.0296    0.6989 H   0  0  0  0  0  0  0  0  0  0  0  0
   -0.2734    0.1556   -1.0402 C   0  0  0  0  0  0  0  0  0  0  0  0
   -1.1030    0.7589   -1.4148 H   0  0  0  0  0  0  0  0  0  0  0  0
    0.6171    0.7849   -1.0050 H   0  0  0  0  0  0  0  0  0  0  0  0
   -0.0253   -0.9894   -2.0289 C   0  0  0  0  0  0  0  0  0  0  0  0
   -0.9196   -1.6088   -2.0901 H   0  0  0  0  0  0  0  0  0  0  0  0
    0.1753   -0.5650   -3.0132 H   0  0  0  0  0  0  0  0  0  0  0  0
    1.3659   -2.0548   -1.5715 S   0  0  0  0  0  0  0  0  0  0  0  0
    2.7390   -0.9047   -1.8427 C   0  0  0  0  0  0  0  0  0  0  0  0
    2.6225   -0.0341   -1.1966 H   0  0  0  0  0  0  0  0  0  0  0  0
    3.6797   -1.4031   -1.6073 H   0  0  0  0  0  0  0  0  0  0  0  0
    2.7524   -0.5873   -2.8858 H   0  0  0  0  0  0  0  0  0  0  0  0
   -0.6439    0.8333    1.3920 C   0  0  0  0  0  0  0  0  0  0  0  0
   -1.6973    1.4248    1.6198 O   0  0  0  0  0  0  0  0  0  0  0  0
    0.5094    1.1614    1.9884 N   0  0  0  0  0  0  0  0  0  0  0  0
    1.3294    0.6212    1.7626 H   0  0  0  0  0  0  0  0  0  0  0  0
    0.6468    2.2464    2.9587 C   0  0  0  0  0  0  0  0  0  0  0  0
   -0.0285    2.0748    3.8003 H   0  0  0  0  0  0  0  0  0  0  0  0
    1.6724    2.3002    3.3263 H   0  0  0  0  0  0  0  0  0  0  0  0
    0.3804    3.1955    2.4901 H   0  0  0  0  0  0  0  0  0  0  0  0
  5  6  2  0  0  0  0
  5  7  1  0  0  0  0
  2  3  1  0  0  0  0
  2  4  1  0  0  0  0
  2  5  1  0  0  0  0
  1  2  1  0  0  0  0
 22 23  2  0  0  0  0
 22 24  1  0  0  0  0
 18 19  1  0  0  0  0
 18 20  1  0  0  0  0
 18 21  1  0  0  0  0
 17 18  1  0  0  0  0
 14 15  1  0  0  0  0
 14 16  1  0  0  0  0
 14 17  1  0  0  0  0
 11 12  1  0  0  0  0
 11 13  1  0  0  0  0
 11 14  1  0  0  0  0
  9 10  1  0  0  0  0
  9 11  1  0  0  0  0
  9 22  1  0  0  0  0
  7  8  1  0  0  0  0
  7  9  1  0  0  0  0
 26 27  1  0  0  0  0
 26 28  1  0  0  0  0
 26 29  1  0  0  0  0
 24 25  1  0  0  0  0
 24 26  1  0  0  0  0
M  END
$$$$
default_name
  -OEChem-01062215323D

 29 28  0     1  0  0  0  0  0999 V2000
   -3.5781   -3.7296    1.2702 H   0  0  0  0  0  0  0  0  0  0  0  0
   -3.5311   -2.7616    0.7732 C   0  0  0  0  0  0  0  0  0  0  0  0
   -4.2371   -2.0766    1.2382 H   0  0  0  0  0  0  0  0  0  0  0  0
   -3.7681   -2.8816   -0.2818 H   0  0  0  0  0  0  0  0  0  0  0  0
   -2.1321   -2.2086    0.9112 C   0  0  0  0  0  0  0  0  0  0  0  0
   -1.2751   -2.8426    1.5112 O   0  0  0  0  0  0  0  0  0  0  0  0
   -1.9041   -1.0186    0.3602 N   0  0  0  0  0  0  0  0  0  0  0  0
   -2.6671   -0.5416   -0.0988 H   0  0  0  0  0  0  0  0  0  0  0  0
   -0.6131   -0.3236    0.3832 C   0  0  1  0  0  0  0  0  0  0  0  0
    0.1566   -1.0296    0.6989 H   0  0  0  0  0  0  0  0  0  0  0  0
   -0.2734    0.1556   -1.0402 C   0  0  0  0  0  0  0  0  0  0  0  0
   -1.1030    0.7589   -1.4148 H   0  0  0  0  0  0  0  0  0  0  0  0
    0.6171    0.7849   -1.0050 H   0  0  0  0  0  0  0  0  0  0  0  0
   -0.0253   -0.9894   -2.0289 C   0  0  0  0  0  0  0  0  0  0  0  0
   -0.9196   -1.6088   -2.0901 H   0  0  0  0  0  0  0  0  0  0  0  0
    0.1753   -0.5650   -3.0132 H   0  0  0  0  0  0  0  0  0  0  0  0
    1.3659   -2.0548   -1.5715 S   0  0  0  0  0  0  0  0  0  0  0  0
    2.7390   -0.9047   -1.8427 C   0  0  0  0  0  0  0  0  0  0  0  0
    2.6225   -0.0341   -1.1966 H   0  0  0  0  0  0  0  0  0  0  0  0
    3.6797   -1.4031   -1.6073 H   0  0  0  0  0  0  0  0  0  0  0  0
    2.7524   -0.5873   -2.8858 H   0  0  0  0  0  0  0  0  0  0  0  0
   -0.6439    0.8333    1.3920 C   0  0  0  0  0  0  0  0  0  0  0  0
   -1.7180    1.2425    1.8282 O   0  0  0  0  0  0  0  0  0  0  0  0
    0.5302    1.3652    1.7553 N   0  0  0  0  0  0  0  0  0  0  0  0
    1.3705    0.9671    1.3672 H   0  0  0  0  0  0  0  0  0  0  0  0
    0.6666    2.4790    2.6926 C   0  0  0  0  0  0  0  0  0  0  0  0
    0.2074    2.2141    3.6479 H   0  0  0  0  0  0  0  0  0  0  0  0
    1.7196    2.7140    2.8532 H   0  0  0  0  0  0  0  0  0  0  0  0
    0.1562    3.3586    2.2961 H   0  0  0  0  0  0  0  0  0  0  0  0
  5  6  2  0  0  0  0
  5  7  1  0  0  0  0
  2  3  1  0  0  0  0
  2  4  1  0  0  0  0
  2  5  1  0  0  0  0
  1  2  1  0  0  0  0
 22 23  2  0  0  0  0
 22 24  1  0  0  0  0
 18 19  1  0  0  0  0
 18 20  1  0  0  0  0
 18 21  1  0  0  0  0
 17 18  1  0  0  0  0
 14 15  1  0  0  0  0
 14 16  1  0  0  0  0
 14 17  1  0  0  0  0
 11 12  1  0  0  0  0
 11 13  1  0  0  0  0
 11 14  1  0  0  0  0
  9 10  1  0  0  0  0
  9 11  1  0  0  0  0
  9 22  1  0  0  0  0
  7  8  1  0  0  0  0
  7  9  1  0  0  0  0
 26 27  1  0  0  0  0
 26 28  1  0  0  0  0
 26 29  1  0  0  0  0
 24 25  1  0  0  0  0
 24 26  1  0  0  0  0
M  END
$$$$
default_name
  -OEChem-01062215323D

 29 28  0     1  0  0  0  0  0999 V2000
   -3.5781   -3.7296    1.2702 H   0  0  0  0  0  0  0  0  0  0  0  0
   -3.5311   -2.7616    0.7732 C   0  0  0  0  0  0  0  0  0  0  0  0
   -4.2371   -2.0766    1.2382 H   0  0  0  0  0  0  0  0  0  0  0  0
   -3.7681   -2.8816   -0.2818 H   0  0  0  0  0  0  0  0  0  0  0  0
   -2.1321   -2.2086    0.9112 C   0  0  0  0  0  0  0  0  0  0  0  0
   -1.2751   -2.8426    1.5112 O   0  0  0  0  0  0  0  0  0  0  0  0
   -1.9041   -1.0186    0.3602 N   0  0  0  0  0  0  0  0  0  0  0  0
   -2.6671   -0.5416   -0.0988 H   0  0  0  0  0  0  0  0  0  0  0  0
   -0.6131   -0.3236    0.3832 C   0  0  1  0  0  0  0  0  0  0  0  0
    0.1824   -1.0687    0.4331 H   0  0  0  0  0  0  0  0  0  0  0  0
   -0.4464    0.4731   -0.9239 C   0  0  0  0  0  0  0  0  0  0  0  0
   -1.3097    1.1306   -1.0468 H   0  0  0  0  0  0  0  0  0  0  0  0
    0.4479    1.0941   -0.8552 H   0  0  0  0  0  0  0  0  0  0  0  0
   -0.3336   -0.4121   -2.1704 C   0  0  0  0  0  0  0  0  0  0  0  0
   -1.2349   -1.0175   -2.2616 H   0  0  0  0  0  0  0  0  0  0  0  0
   -0.2514    0.2289   -3.0489 H   0  0  0  0  0  0  0  0  0  0  0  0
    1.0924   -1.5280   -2.1416 S   0  0  0  0  0  0  0  0  0  0  0  0
    2.4333   -0.3215   -2.3091 C   0  0  0  0  0  0  0  0  0  0  0  0
    2.4061    0.3770   -1.4721 H   0  0  0  0  0  0  0  0  0  0  0  0
    3.3908   -0.8431   -2.3104 H   0  0  0  0  0  0  0  0  0  0  0  0
    2.3214    0.2252   -3.2458 H   0  0  0  0  0  0  0  0  0  0  0  0
   -0.5077    0.5726    1.6254 C   0  0  0  0  0  0  0  0  0  0  0  0
   -1.4408    0.6322    2.4235 O   0  0  0  0  0  0  0  0  0  0  0  0
    0.6216    1.2745    1.7844 N   0  0  0  0  0  0  0  0  0  0  0  0
    1.3492    1.1627    1.0965 H   0  0  0  0  0  0  0  0  0  0  0  0
    0.8679    2.1818    2.9042 C   0  0  0  0  0  0  0  0  0  0  0  0
    0.7798    1.6355    3.8462 H   0  0  0  0  0  0  0  0  0  0  0  0
    1.8671    2.6132    2.8313 H   0  0  0  0  0  0  0  0  0  0  0  0
    0.1267    2.9830    2.8989 H   0  0  0  0  0  0  0  0  0  0  0  0
  5  6  2  0  0  0  0
  5  7  1  0  0  0  0
  2  3  1  0  0  0  0
  2  4  1  0  0  0  0
  2  5  1  0  0  0  0
  1  2  1  0  0  0  0
 22 23  2  0  0  0  0
 22 24  1  0  0  0  0
 18 19  1  0  0  0  0
 18 20  1  0  0  0  0
 18 21  1  0  0  0  0
 17 18  1  0  0  0  0
 14 15  1  0  0  0  0
 14 16  1  0  0  0  0
 14 17  1  0  0  0  0
 11 12  1  0  0  0  0
 11 13  1  0  0  0  0
 11 14  1  0  0  0  0
  9 10  1  0  0  0  0
  9 11  1  0  0  0  0
  9 22  1  0  0  0  0
  7  8  1  0  0  0  0
  7  9  1  0  0  0  0
 26 27  1  0  0  0  0
 26 28  1  0  0  0  0
 26 29  1  0  0  0  0
 24 25  1  0  0  0  0
 24 26  1  0  0  0  0
M  END
$$$$
default_name
  -OEChem-01062215323D

 29 28  0     1  0  0  0  0  0999 V2000
   -3.5781   -3.7296    1.2702 H   0  0  0  0  0  0  0  0  0  0  0  0
   -3.5311   -2.7616    0.7732 C   0  0  0  0  0  0  0  0  0  0  0  0
   -4.2371   -2.0766    1.2382 H   0  0  0  0  0  0  0  0  0  0  0  0
   -3.7681   -2.8816   -0.2818 H   0  0  0  0  0  0  0  0  0  0  0  0
   -2.1321   -2.2086    0.9112 C   0  0  0  0  0  0  0  0  0  0  0  0
   -1.2751   -2.8426    1.5112 O   0  0  0  0  0  0  0  0  0  0  0  0
   -1.9041   -1.0186    0.3602 N   0  0  0  0  0  0  0  0  0  0  0  0
   -2.6671   -0.5416   -0.0988 H   0  0  0  0  0  0  0  0  0  0  0  0
   -0.6131   -0.3236    0.3832 C   0  0  1  0  0  0  0  0  0  0  0  0
    0.1824   -1.0687    0.4331 H   0  0  0  0  0  0  0  0  0  0  0  0
   -0.4464    0.4731   -0.9239 C   0  0  0  0  0  0  0  0  0  0  0  0
   -1.3097    1.1306   -1.0468 H   0  0  0  0  0  0  0  0  0  0  0  0
    0.4479    1.0941   -0.8552 H   0  0  0  0  0  0  0  0  0  0  0  0
   -0.3336   -0.4121   -2.1704 C   0  0  0  0  0  0  0  0  0  0  0  0
   -1.2349   -1.0175   -2.2616 H   0  0  0  0  0  0  0  0  0  0  0  0
   -0.2514    0.2289   -3.0489 H   0  0  0  0  0  0  0  0  0  0  0  0
    1.0924   -1.5280   -2.1416 S   0  0  0  0  0  0  0  0  0  0  0  0
    2.4333   -0.3215   -2.3091 C   0  0  0  0  0  0  0  0  0  0  0  0
    2.4061    0.3770   -1.4721 H   0  0  0  0  0  0  0  0  0  0  0  0
    3.3908   -0.8431   -2.3104 H   0  0  0  0  0  0  0  0  0  0  0  0
    2.3214    0.2252   -3.2458 H   0  0  0  0  0  0  0  0  0  0  0  0
   -0.5077    0.5726    1.6254 C   0  0  0  0  0  0  0  0  0  0  0  0
   -1.2995    0.4329    2.5553 O   0  0  0  0  0  0  0  0  0  0  0  0
    0.4616    1.4965    1.6378 N   0  0  0  0  0  0  0  0  0  0  0  0
    1.0826    1.5417    0.8457 H   0  0  0  0  0  0  0  0  0  0  0  0
    0.6821    2.4334    2.7384 C   0  0  0  0  0  0  0  0  0  0  0  0
    0.8548    1.8793    3.6640 H   0  0  0  0  0  0  0  0  0  0  0  0
    1.5465    3.0659    2.5319 H   0  0  0  0  0  0  0  0  0  0  0  0
   -0.2014    3.0604    2.8709 H   0  0  0  0  0  0  0  0  0  0  0  0
  5  6  2  0  0  0  0
  5  7  1  0  0  0  0
  2  3  1  0  0  0  0
  2  4  1  0  0  0  0
  2  5  1  0  0  0  0
  1  2  1  0  0  0  0
 22 23  2  0  0  0  0
 22 24  1  0  0  0  0
 18 19  1  0  0  0  0
 18 20  1  0  0  0  0
 18 21  1  0  0  0  0
 17 18  1  0  0  0  0
 14 15  1  0  0  0  0
 14 16  1  0  0  0  0
 14 17  1  0  0  0  0
 11 12  1  0  0  0  0
 11 13  1  0  0  0  0
 11 14  1  0  0  0  0
  9 10  1  0  0  0  0
  9 11  1  0  0  0  0
  9 22  1  0  0  0  0
  7  8  1  0  0  0  0
  7  9  1  0  0  0  0
 26 27  1  0  0  0  0
 26 28  1  0  0  0  0
 26 29  1  0  0  0  0
 24 25  1  0  0  0  0
 24 26  1  0  0  0  0
M  END
$$$$
default_name
  -OEChem-01062215323D

 29 28  0     1  0  0  0  0  0999 V2000
   -3.5781   -3.7296    1.2702 H   0  0  0  0  0  0  0  0  0  0  0  0
   -3.5311   -2.7616    0.7732 C   0  0  0  0  0  0  0  0  0  0  0  0
   -4.2371   -2.0766    1.2382 H   0  0  0  0  0  0  0  0  0  0  0  0
   -3.7681   -2.8816   -0.2818 H   0  0  0  0  0  0  0  0  0  0  0  0
   -2.1321   -2.2086    0.9112 C   0  0  0  0  0  0  0  0  0  0  0  0
   -1.2751   -2.8426    1.5112 O   0  0  0  0  0  0  0  0  0  0  0  0
   -1.9041   -1.0186    0.3602 N   0  0  0  0  0  0  0  0  0  0  0  0
   -2.6671   -0.5416   -0.0988 H   0  0  0  0  0  0  0  0  0  0  0  0
   -0.6131   -0.3236    0.3832 C   0  0  1  0  0  0  0  0  0  0  0  0
    0.1824   -1.0687    0.4331 H   0  0  0  0  0  0  0  0  0  0  0  0
   -0.4464    0.4731   -0.9239 C   0  0  0  0  0  0  0  0  0  0  0  0
   -1.3097    1.1306   -1.0468 H   0  0  0  0  0  0  0  0  0  0  0  0
    0.4479    1.0941   -0.8552 H   0  0  0  0  0  0  0  0  0  0  0  0
   -0.3336   -0.4121   -2.1704 C   0  0  0  0  0  0  0  0  0  0  0  0
   -1.2349   -1.0175   -2.2616 H   0  0  0  0  0  0  0  0  0  0  0  0
   -0.2514    0.2289   -3.0489 H   0  0  0  0  0  0  0  0  0  0  0  0
    1.0924   -1.5280   -2.1416 S   0  0  0  0  0  0  0  0  0  0  0  0
    2.4333   -0.3215   -2.3091 C   0  0  0  0  0  0  0  0  0  0  0  0
    2.4061    0.3770   -1.4721 H   0  0  0  0  0  0  0  0  0  0  0  0
    3.3908   -0.8431   -2.3104 H   0  0  0  0  0  0  0  0  0  0  0  0
    2.3214    0.2252   -3.2458 H   0  0  0  0  0  0  0  0  0  0  0  0
   -0.5077    0.5726    1.6254 C   0  0  0  0  0  0  0  0  0  0  0  0
   -1.1013    0.2676    2.6578 O   0  0  0  0  0  0  0  0  0  0  0  0
    0.2384    1.6801    1.5243 N   0  0  0  0  0  0  0  0  0  0  0  0
    0.7078    1.8564    0.6504 H   0  0  0  0  0  0  0  0  0  0  0  0
    0.4249    2.6405    2.6108 C   0  0  0  0  0  0  0  0  0  0  0  0
    0.8486    2.1337    3.4810 H   0  0  0  0  0  0  0  0  0  0  0  0
    1.0968    3.4413    2.2992 H   0  0  0  0  0  0  0  0  0  0  0  0
   -0.5388    3.0670    2.8948 H   0  0  0  0  0  0  0  0  0  0  0  0
  5  6  2  0  0  0  0
  5  7  1  0  0  0  0
  2  3  1  0  0  0  0
  2  4  1  0  0  0  0
  2  5  1  0  0  0  0
  1  2  1  0  0  0  0
 22 23  2  0  0  0  0
 22 24  1  0  0  0  0
 18 19  1  0  0  0  0
 18 20  1  0  0  0  0
 18 21  1  0  0  0  0
 17 18  1  0  0  0  0
 14 15  1  0  0  0  0
 14 16  1  0  0  0  0
 14 17  1  0  0  0  0
 11 12  1  0  0  0  0
 11 13  1  0  0  0  0
 11 14  1  0  0  0  0
  9 10  1  0  0  0  0
  9 11  1  0  0  0  0
  9 22  1  0  0  0  0
  7  8  1  0  0  0  0
  7  9  1  0  0  0  0
 26 27  1  0  0  0  0
 26 28  1  0  0  0  0
 26 29  1  0  0  0  0
 24 25  1  0  0  0  0
 24 26  1  0  0  0  0
M  END
$$$$
default_name
  -OEChem-01062215323D

 29 28  0     1  0  0  0  0  0999 V2000
   -3.5781   -3.7296    1.2702 H   0  0  0  0  0  0  0  0  0  0  0  0
   -3.5311   -2.7616    0.7732 C   0  0  0  0  0  0  0  0  0  0  0  0
   -4.2371   -2.0766    1.2382 H   0  0  0  0  0  0  0  0  0  0  0  0
   -3.7681   -2.8816   -0.2818 H   0  0  0  0  0  0  0  0  0  0  0  0
   -2.1321   -2.2086    0.9112 C   0  0  0  0  0  0  0  0  0  0  0  0
   -1.2751   -2.8426    1.5112 O   0  0  0  0  0  0  0  0  0  0  0  0
   -1.9041   -1.0186    0.3602 N   0  0  0  0  0  0  0  0  0  0  0  0
   -2.6671   -0.5416   -0.0988 H   0  0  0  0  0  0  0  0  0  0  0  0
   -0.6131   -0.3236    0.3832 C   0  0  1  0  0  0  0  0  0  0  0  0
    0.1824   -1.0687    0.4331 H   0  0  0  0  0  0  0  0  0  0  0  0
   -0.4464    0.4731   -0.9239 C   0  0  0  0  0  0  0  0  0  0  0  0
   -1.3097    1.1306   -1.0468 H   0  0  0  0  0  0  0  0  0  0  0  0
    0.4479    1.0941   -0.8552 H   0  0  0  0  0  0  0  0  0  0  0  0
   -0.3336   -0.4121   -2.1704 C   0  0  0  0  0  0  0  0  0  0  0  0
   -1.2349   -1.0175   -2.2616 H   0  0  0  0  0  0  0  0  0  0  0  0
   -0.2514    0.2289   -3.0489 H   0  0  0  0  0  0  0  0  0  0  0  0
    1.0924   -1.5280   -2.1416 S   0  0  0  0  0  0  0  0  0  0  0  0
    2.4333   -0.3215   -2.3091 C   0  0  0  0  0  0  0  0  0  0  0  0
    2.4061    0.3770   -1.4721 H   0  0  0  0  0  0  0  0  0  0  0  0
    3.3908   -0.8431   -2.3104 H   0  0  0  0  0  0  0  0  0  0  0  0
    2.3214    0.2252   -3.2458 H   0  0  0  0  0  0  0  0  0  0  0  0
   -0.5077    0.5726    1.6254 C   0  0  0  0  0  0  0  0  0  0  0  0
   -0.8598    0.1476    2.7238 O   0  0  0  0  0  0  0  0  0  0  0  0
   -0.0327    1.8126    1.4517 N   0  0  0  0  0  0  0  0  0  0  0  0
    0.2503    2.0854    0.5240 H   0  0  0  0  0  0  0  0  0  0  0  0
    0.1138    2.7890    2.5301 C   0  0  0  0  0  0  0  0  0  0  0  0
    0.7616    2.3814    3.3097 H   0  0  0  0  0  0  0  0  0  0  0  0
    0.5486    3.7139    2.1490 H   0  0  0  0  0  0  0  0  0  0  0  0
   -0.8625    3.0023    2.9689 H   0  0  0  0  0  0  0  0  0  0  0  0
  5  6  2  0  0  0  0
  5  7  1  0  0  0  0
  2  3  1  0  0  0  0
  2  4  1  0  0  0  0
  2  5  1  0  0  0  0
  1  2  1  0  0  0  0
 22 23  2  0  0  0  0
 22 24  1  0  0  0  0
 18 19  1  0  0  0  0
 18 20  1  0  0  0  0
 18 21  1  0  0  0  0
 17 18  1  0  0  0  0
 14 15  1  0  0  0  0
 14 16  1  0  0  0  0
 14 17  1  0  0  0  0
 11 12  1  0  0  0  0
 11 13  1  0  0  0  0
 11 14  1  0  0  0  0
  9 10  1  0  0  0  0
  9 11  1  0  0  0  0
  9 22  1  0  0  0  0
  7  8  1  0  0  0  0
  7  9  1  0  0  0  0
 26 27  1  0  0  0  0
 26 28  1  0  0  0  0
 26 29  1  0  0  0  0
 24 25  1  0  0  0  0
 24 26  1  0  0  0  0
M  END
$$$$
default_name
  -OEChem-01062215323D

 29 28  0     1  0  0  0  0  0999 V2000
   -3.5781   -3.7296    1.2702 H   0  0  0  0  0  0  0  0  0  0  0  0
   -3.5311   -2.7616    0.7732 C   0  0  0  0  0  0  0  0  0  0  0  0
   -4.2371   -2.0766    1.2382 H   0  0  0  0  0  0  0  0  0  0  0  0
   -3.7681   -2.8816   -0.2818 H   0  0  0  0  0  0  0  0  0  0  0  0
   -2.1321   -2.2086    0.9112 C   0  0  0  0  0  0  0  0  0  0  0  0
   -1.2751   -2.8426    1.5112 O   0  0  0  0  0  0  0  0  0  0  0  0
   -1.9041   -1.0186    0.3602 N   0  0  0  0  0  0  0  0  0  0  0  0
   -2.6671   -0.5416   -0.0988 H   0  0  0  0  0  0  0  0  0  0  0  0
   -0.6131   -0.3236    0.3832 C   0  0  1  0  0  0  0  0  0  0  0  0
    0.1824   -1.0687    0.4331 H   0  0  0  0  0  0  0  0  0  0  0  0
   -0.4464    0.4731   -0.9239 C   0  0  0  0  0  0  0  0  0  0  0  0
   -1.3097    1.1306   -1.0468 H   0  0  0  0  0  0  0  0  0  0  0  0
    0.4479    1.0941   -0.8552 H   0  0  0  0  0  0  0  0  0  0  0  0
   -0.3336   -0.4121   -2.1704 C   0  0  0  0  0  0  0  0  0  0  0  0
   -1.2349   -1.0175   -2.2616 H   0  0  0  0  0  0  0  0  0  0  0  0
   -0.2514    0.2289   -3.0489 H   0  0  0  0  0  0  0  0  0  0  0  0
    1.0924   -1.5280   -2.1416 S   0  0  0  0  0  0  0  0  0  0  0  0
    2.4333   -0.3215   -2.3091 C   0  0  0  0  0  0  0  0  0  0  0  0
    2.4061    0.3770   -1.4721 H   0  0  0  0  0  0  0  0  0  0  0  0
    3.3908   -0.8431   -2.3104 H   0  0  0  0  0  0  0  0  0  0  0  0
    2.3214    0.2252   -3.2458 H   0  0  0  0  0  0  0  0  0  0  0  0
   -0.5077    0.5726    1.6254 C   0  0  0  0  0  0  0  0  0  0  0  0
   -0.5914    0.0811    2.7491 O   0  0  0  0  0  0  0  0  0  0  0  0
   -0.3334    1.8852    1.4249 N   0  0  0  0  0  0  0  0  0  0  0  0
   -0.2586    2.2130    0.4751 H   0  0  0  0  0  0  0  0  0  0  0  0
   -0.2300    2.8687    2.5018 C   0  0  0  0  0  0  0  0  0  0  0  0
    0.6000    2.6054    3.1617 H   0  0  0  0  0  0  0  0  0  0  0  0
   -0.0606    3.8651    2.0916 H   0  0  0  0  0  0  0  0  0  0  0  0
   -1.1504    2.8706    3.0883 H   0  0  0  0  0  0  0  0  0  0  0  0
  5  6  2  0  0  0  0
  5  7  1  0  0  0  0
  2  3  1  0  0  0  0
  2  4  1  0  0  0  0
  2  5  1  0  0  0  0
  1  2  1  0  0  0  0
 22 23  2  0  0  0  0
 22 24  1  0  0  0  0
 18 19  1  0  0  0  0
 18 20  1  0  0  0  0
 18 21  1  0  0  0  0
 17 18  1  0  0  0  0
 14 15  1  0  0  0  0
 14 16  1  0  0  0  0
 14 17  1  0  0  0  0
 11 12  1  0  0  0  0
 11 13  1  0  0  0  0
 11 14  1  0  0  0  0
  9 10  1  0  0  0  0
  9 11  1  0  0  0  0
  9 22  1  0  0  0  0
  7  8  1  0  0  0  0
  7  9  1  0  0  0  0
 26 27  1  0  0  0  0
 26 28  1  0  0  0  0
 26 29  1  0  0  0  0
 24 25  1  0  0  0  0
 24 26  1  0  0  0  0
M  END
$$$$
default_name
  -OEChem-01062215323D

 29 28  0     1  0  0  0  0  0999 V2000
   -3.5781   -3.7296    1.2702 H   0  0  0  0  0  0  0  0  0  0  0  0
   -3.5311   -2.7616    0.7732 C   0  0  0  0  0  0  0  0  0  0  0  0
   -4.2371   -2.0766    1.2382 H   0  0  0  0  0  0  0  0  0  0  0  0
   -3.7681   -2.8816   -0.2818 H   0  0  0  0  0  0  0  0  0  0  0  0
   -2.1321   -2.2086    0.9112 C   0  0  0  0  0  0  0  0  0  0  0  0
   -1.2751   -2.8426    1.5112 O   0  0  0  0  0  0  0  0  0  0  0  0
   -1.9041   -1.0186    0.3602 N   0  0  0  0  0  0  0  0  0  0  0  0
   -2.6671   -0.5416   -0.0988 H   0  0  0  0  0  0  0  0  0  0  0  0
   -0.6131   -0.3236    0.3832 C   0  0  1  0  0  0  0  0  0  0  0  0
    0.1824   -1.0687    0.4331 H   0  0  0  0  0  0  0  0  0  0  0  0
   -0.4464    0.4731   -0.9239 C   0  0  0  0  0  0  0  0  0  0  0  0
   -1.3097    1.1306   -1.0468 H   0  0  0  0  0  0  0  0  0  0  0  0
    0.4479    1.0941   -0.8552 H   0  0  0  0  0  0  0  0  0  0  0  0
   -0.3336   -0.4121   -2.1704 C   0  0  0  0  0  0  0  0  0  0  0  0
   -1.2349   -1.0175   -2.2616 H   0  0  0  0  0  0  0  0  0  0  0  0
   -0.2514    0.2289   -3.0489 H   0  0  0  0  0  0  0  0  0  0  0  0
    1.0924   -1.5280   -2.1416 S   0  0  0  0  0  0  0  0  0  0  0  0
    2.4333   -0.3215   -2.3091 C   0  0  0  0  0  0  0  0  0  0  0  0
    2.4061    0.3770   -1.4721 H   0  0  0  0  0  0  0  0  0  0  0  0
    3.3908   -0.8431   -2.3104 H   0  0  0  0  0  0  0  0  0  0  0  0
    2.3214    0.2252   -3.2458 H   0  0  0  0  0  0  0  0  0  0  0  0
   -0.5077    0.5726    1.6254 C   0  0  0  0  0  0  0  0  0  0  0  0
   -0.3145    0.0726    2.7317 O   0  0  0  0  0  0  0  0  0  0  0  0
   -0.6430    1.8927    1.4456 N   0  0  0  0  0  0  0  0  0  0  0  0
   -0.7842    2.2306    0.5070 H   0  0  0  0  0  0  0  0  0  0  0  0
   -0.5830    2.8742    2.5278 C   0  0  0  0  0  0  0  0  0  0  0  0
    0.3745    2.7907    3.0472 H   0  0  0  0  0  0  0  0  0  0  0  0
   -0.6894    3.8846    2.1309 H   0  0  0  0  0  0  0  0  0  0  0  0
   -1.3830    2.6811    3.2448 H   0  0  0  0  0  0  0  0  0  0  0  0
  5  6  2  0  0  0  0
  5  7  1  0  0  0  0
  2  3  1  0  0  0  0
  2  4  1  0  0  0  0
  2  5  1  0  0  0  0
  1  2  1  0  0  0  0
 22 23  2  0  0  0  0
 22 24  1  0  0  0  0
 18 19  1  0  0  0  0
 18 20  1  0  0  0  0
 18 21  1  0  0  0  0
 17 18  1  0  0  0  0
 14 15  1  0  0  0  0
 14 16  1  0  0  0  0
 14 17  1  0  0  0  0
 11 12  1  0  0  0  0
 11 13  1  0  0  0  0
 11 14  1  0  0  0  0
  9 10  1  0  0  0  0
  9 11  1  0  0  0  0
  9 22  1  0  0  0  0
  7  8  1  0  0  0  0
  7  9  1  0  0  0  0
 26 27  1  0  0  0  0
 26 28  1  0  0  0  0
 26 29  1  0  0  0  0
 24 25  1  0  0  0  0
 24 26  1  0  0  0  0
M  END
$$$$
default_name
  -OEChem-01062215323D

 29 28  0     1  0  0  0  0  0999 V2000
   -3.5781   -3.7296    1.2702 H   0  0  0  0  0  0  0  0  0  0  0  0
   -3.5311   -2.7616    0.7732 C   0  0  0  0  0  0  0  0  0  0  0  0
   -4.2371   -2.0766    1.2382 H   0  0  0  0  0  0  0  0  0  0  0  0
   -3.7681   -2.8816   -0.2818 H   0  0  0  0  0  0  0  0  0  0  0  0
   -2.1321   -2.2086    0.9112 C   0  0  0  0  0  0  0  0  0  0  0  0
   -1.2751   -2.8426    1.5112 O   0  0  0  0  0  0  0  0  0  0  0  0
   -1.9041   -1.0186    0.3602 N   0  0  0  0  0  0  0  0  0  0  0  0
   -2.6671   -0.5416   -0.0988 H   0  0  0  0  0  0  0  0  0  0  0  0
   -0.6131   -0.3236    0.3832 C   0  0  1  0  0  0  0  0  0  0  0  0
    0.1824   -1.0687    0.4331 H   0  0  0  0  0  0  0  0  0  0  0  0
   -0.4464    0.4731   -0.9239 C   0  0  0  0  0  0  0  0  0  0  0  0
   -1.3097    1.1306   -1.0468 H   0  0  0  0  0  0  0  0  0  0  0  0
    0.4479    1.0941   -0.8552 H   0  0  0  0  0  0  0  0  0  0  0  0
   -0.3336   -0.4121   -2.1704 C   0  0  0  0  0  0  0  0  0  0  0  0
   -1.2349   -1.0175   -2.2616 H   0  0  0  0  0  0  0  0  0  0  0  0
   -0.2514    0.2289   -3.0489 H   0  0  0  0  0  0  0  0  0  0  0  0
    1.0924   -1.5280   -2.1416 S   0  0  0  0  0  0  0  0  0  0  0  0
    2.4333   -0.3215   -2.3091 C   0  0  0  0  0  0  0  0  0  0  0  0
    2.4061    0.3770   -1.4721 H   0  0  0  0  0  0  0  0  0  0  0  0
    3.3908   -0.8431   -2.3104 H   0  0  0  0  0  0  0  0  0  0  0  0
    2.3214    0.2252   -3.2458 H   0  0  0  0  0  0  0  0  0  0  0  0
   -0.5077    0.5726    1.6254 C   0  0  0  0  0  0  0  0  0  0  0  0
   -0.0478    0.1227    2.6729 O   0  0  0  0  0  0  0  0  0  0  0  0
   -0.9406    1.8349    1.5126 N   0  0  0  0  0  0  0  0  0  0  0  0
   -1.2908    2.1369    0.6176 H   0  0  0  0  0  0  0  0  0  0  0  0
   -0.9212    2.8051    2.6063 C   0  0  0  0  0  0  0  0  0  0  0  0
    0.1006    2.9244    2.9740 H   0  0  0  0  0  0  0  0  0  0  0  0
   -1.2949    3.7711    2.2642 H   0  0  0  0  0  0  0  0  0  0  0  0
   -1.5442    2.4466    3.4277 H   0  0  0  0  0  0  0  0  0  0  0  0
  5  6  2  0  0  0  0
  5  7  1  0  0  0  0
  2  3  1  0  0  0  0
  2  4  1  0  0  0  0
  2  5  1  0  0  0  0
  1  2  1  0  0  0  0
 22 23  2  0  0  0  0
 22 24  1  0  0  0  0
 18 19  1  0  0  0  0
 18 20  1  0  0  0  0
 18 21  1  0  0  0  0
 17 18  1  0  0  0  0
 14 15  1  0  0  0  0
 14 16  1  0  0  0  0
 14 17  1  0  0  0  0
 11 12  1  0  0  0  0
 11 13  1  0  0  0  0
 11 14  1  0  0  0  0
  9 10  1  0  0  0  0
  9 11  1  0  0  0  0
  9 22  1  0  0  0  0
  7  8  1  0  0  0  0
  7  9  1  0  0  0  0
 26 27  1  0  0  0  0
 26 28  1  0  0  0  0
 26 29  1  0  0  0  0
 24 25  1  0  0  0  0
 24 26  1  0  0  0  0
M  END
$$$$
default_name
  -OEChem-01062215323D

 29 28  0     1  0  0  0  0  0999 V2000
   -3.5781   -3.7296    1.2702 H   0  0  0  0  0  0  0  0  0  0  0  0
   -3.5311   -2.7616    0.7732 C   0  0  0  0  0  0  0  0  0  0  0  0
   -4.2371   -2.0766    1.2382 H   0  0  0  0  0  0  0  0  0  0  0  0
   -3.7681   -2.8816   -0.2818 H   0  0  0  0  0  0  0  0  0  0  0  0
   -2.1321   -2.2086    0.9112 C   0  0  0  0  0  0  0  0  0  0  0  0
   -1.2751   -2.8426    1.5112 O   0  0  0  0  0  0  0  0  0  0  0  0
   -1.9041   -1.0186    0.3602 N   0  0  0  0  0  0  0  0  0  0  0  0
   -2.6671   -0.5416   -0.0988 H   0  0  0  0  0  0  0  0  0  0  0  0
   -0.6131   -0.3236    0.3832 C   0  0  1  0  0  0  0  0  0  0  0  0
    0.1824   -1.0687    0.4331 H   0  0  0  0  0  0  0  0  0  0  0  0
   -0.4464    0.4731   -0.9239 C   0  0  0  0  0  0  0  0  0  0  0  0
   -1.3097    1.1306   -1.0468 H   0  0  0  0  0  0  0  0  0  0  0  0
    0.4479    1.0941   -0.8552 H   0  0  0  0  0  0  0  0  0  0  0  0
   -0.3336   -0.4121   -2.1704 C   0  0  0  0  0  0  0  0  0  0  0  0
   -1.2349   -1.0175   -2.2616 H   0  0  0  0  0  0  0  0  0  0  0  0
   -0.2514    0.2289   -3.0489 H   0  0  0  0  0  0  0  0  0  0  0  0
    1.0924   -1.5280   -2.1416 S   0  0  0  0  0  0  0  0  0  0  0  0
    2.4333   -0.3215   -2.3091 C   0  0  0  0  0  0  0  0  0  0  0  0
    2.4061    0.3770   -1.4721 H   0  0  0  0  0  0  0  0  0  0  0  0
    3.3908   -0.8431   -2.3104 H   0  0  0  0  0  0  0  0  0  0  0  0
    2.3214    0.2252   -3.2458 H   0  0  0  0  0  0  0  0  0  0  0  0
   -0.5077    0.5726    1.6254 C   0  0  0  0  0  0  0  0  0  0  0  0
    0.1904    0.2280    2.5767 O   0  0  0  0  0  0  0  0  0  0  0  0
   -1.2057    1.7155    1.6213 N   0  0  0  0  0  0  0  0  0  0  0  0
   -1.7439    1.9384    0.7992 H   0  0  0  0  0  0  0  0  0  0  0  0
   -1.2216    2.6661    2.7320 C   0  0  0  0  0  0  0  0  0  0  0  0
   -0.2030    2.9975    2.9470 H   0  0  0  0  0  0  0  0  0  0  0  0
   -1.8359    3.5322    2.4824 H   0  0  0  0  0  0  0  0  0  0  0  0
   -1.6232    2.1830    3.6245 H   0  0  0  0  0  0  0  0  0  0  0  0
  5  6  2  0  0  0  0
  5  7  1  0  0  0  0
  2  3  1  0  0  0  0
  2  4  1  0  0  0  0
  2  5  1  0  0  0  0
  1  2  1  0  0  0  0
 22 23  2  0  0  0  0
 22 24  1  0  0  0  0
 18 19  1  0  0  0  0
 18 20  1  0  0  0  0
 18 21  1  0  0  0  0
 17 18  1  0  0  0  0
 14 15  1  0  0  0  0
 14 16  1  0  0  0  0
 14 17  1  0  0  0  0
 11 12  1  0  0  0  0
 11 13  1  0  0  0  0
 11 14  1  0  0  0  0
  9 10  1  0  0  0  0
  9 11  1  0  0  0  0
  9 22  1  0  0  0  0
  7  8  1  0  0  0  0
  7  9  1  0  0  0  0
 26 27  1  0  0  0  0
 26 28  1  0  0  0  0
 26 29  1  0  0  0  0
 24 25  1  0  0  0  0
 24 26  1  0  0  0  0
M  END
$$$$
default_name
  -OEChem-01062215323D

 29 28  0     1  0  0  0  0  0999 V2000
   -3.5781   -3.7296    1.2702 H   0  0  0  0  0  0  0  0  0  0  0  0
   -3.5311   -2.7616    0.7732 C   0  0  0  0  0  0  0  0  0  0  0  0
   -4.2371   -2.0766    1.2382 H   0  0  0  0  0  0  0  0  0  0  0  0
   -3.7681   -2.8816   -0.2818 H   0  0  0  0  0  0  0  0  0  0  0  0
   -2.1321   -2.2086    0.9112 C   0  0  0  0  0  0  0  0  0  0  0  0
   -1.2751   -2.8426    1.5112 O   0  0  0  0  0  0  0  0  0  0  0  0
   -1.9041   -1.0186    0.3602 N   0  0  0  0  0  0  0  0  0  0  0  0
   -2.6671   -0.5416   -0.0988 H   0  0  0  0  0  0  0  0  0  0  0  0
   -0.6131   -0.3236    0.3832 C   0  0  1  0  0  0  0  0  0  0  0  0
    0.1824   -1.0687    0.4331 H   0  0  0  0  0  0  0  0  0  0  0  0
   -0.4464    0.4731   -0.9239 C   0  0  0  0  0  0  0  0  0  0  0  0
   -1.3097    1.1306   -1.0468 H   0  0  0  0  0  0  0  0  0  0  0  0
    0.4479    1.0941   -0.8552 H   0  0  0  0  0  0  0  0  0  0  0  0
   -0.3336   -0.4121   -2.1704 C   0  0  0  0  0  0  0  0  0  0  0  0
   -1.2349   -1.0175   -2.2616 H   0  0  0  0  0  0  0  0  0  0  0  0
   -0.2514    0.2289   -3.0489 H   0  0  0  0  0  0  0  0  0  0  0  0
    1.0924   -1.5280   -2.1416 S   0  0  0  0  0  0  0  0  0  0  0  0
    2.4333   -0.3215   -2.3091 C   0  0  0  0  0  0  0  0  0  0  0  0
    2.4061    0.3770   -1.4721 H   0  0  0  0  0  0  0  0  0  0  0  0
    3.3908   -0.8431   -2.3104 H   0  0  0  0  0  0  0  0  0  0  0  0
    2.3214    0.2252   -3.2458 H   0  0  0  0  0  0  0  0  0  0  0  0
   -0.5077    0.5726    1.6254 C   0  0  0  0  0  0  0  0  0  0  0  0
    0.3840    0.3813    2.4497 O   0  0  0  0  0  0  0  0  0  0  0  0
   -1.4204    1.5427    1.7642 N   0  0  0  0  0  0  0  0  0  0  0  0
   -2.1125    1.6486    1.0396 H   0  0  0  0  0  0  0  0  0  0  0  0
   -1.4637    2.4668    2.8964 C   0  0  0  0  0  0  0  0  0  0  0  0
   -0.5156    3.0050    2.9681 H   0  0  0  0  0  0  0  0  0  0  0  0
   -2.2755    3.1844    2.7707 H   0  0  0  0  0  0  0  0  0  0  0  0
   -1.6146    1.9083    3.8219 H   0  0  0  0  0  0  0  0  0  0  0  0
  5  6  2  0  0  0  0
  5  7  1  0  0  0  0
  2  3  1  0  0  0  0
  2  4  1  0  0  0  0
  2  5  1  0  0  0  0
  1  2  1  0  0  0  0
 22 23  2  0  0  0  0
 22 24  1  0  0  0  0
 18 19  1  0  0  0  0
 18 20  1  0  0  0  0
 18 21  1  0  0  0  0
 17 18  1  0  0  0  0
 14 15  1  0  0  0  0
 14 16  1  0  0  0  0
 14 17  1  0  0  0  0
 11 12  1  0  0  0  0
 11 13  1  0  0  0  0
 11 14  1  0  0  0  0
  9 10  1  0  0  0  0
  9 11  1  0  0  0  0
  9 22  1  0  0  0  0
  7  8  1  0  0  0  0
  7  9  1  0  0  0  0
 26 27  1  0  0  0  0
 26 28  1  0  0  0  0
 26 29  1  0  0  0  0
 24 25  1  0  0  0  0
 24 26  1  0  0  0  0
M  END
$$$$
default_name
  -OEChem-01062215323D

 29 28  0     1  0  0  0  0  0999 V2000
   -3.5781   -3.7296    1.2702 H   0  0  0  0  0  0  0  0  0  0  0  0
   -3.5311   -2.7616    0.7732 C   0  0  0  0  0  0  0  0  0  0  0  0
   -4.2371   -2.0766    1.2382 H   0  0  0  0  0  0  0  0  0  0  0  0
   -3.7681   -2.8816   -0.2818 H   0  0  0  0  0  0  0  0  0  0  0  0
   -2.1321   -2.2086    0.9112 C   0  0  0  0  0  0  0  0  0  0  0  0
   -1.2751   -2.8426    1.5112 O   0  0  0  0  0  0  0  0  0  0  0  0
   -1.9041   -1.0186    0.3602 N   0  0  0  0  0  0  0  0  0  0  0  0
   -2.6671   -0.5416   -0.0988 H   0  0  0  0  0  0  0  0  0  0  0  0
   -0.6131   -0.3236    0.3832 C   0  0  1  0  0  0  0  0  0  0  0  0
    0.1824   -1.0687    0.4331 H   0  0  0  0  0  0  0  0  0  0  0  0
   -0.4464    0.4731   -0.9239 C   0  0  0  0  0  0  0  0  0  0  0  0
   -1.3097    1.1306   -1.0468 H   0  0  0  0  0  0  0  0  0  0  0  0
    0.4479    1.0941   -0.8552 H   0  0  0  0  0  0  0  0  0  0  0  0
   -0.3336   -0.4121   -2.1704 C   0  0  0  0  0  0  0  0  0  0  0  0
   -1.2349   -1.0175   -2.2616 H   0  0  0  0  0  0  0  0  0  0  0  0
   -0.2514    0.2289   -3.0489 H   0  0  0  0  0  0  0  0  0  0  0  0
    1.0924   -1.5280   -2.1416 S   0  0  0  0  0  0  0  0  0  0  0  0
    2.4333   -0.3215   -2.3091 C   0  0  0  0  0  0  0  0  0  0  0  0
    2.4061    0.3770   -1.4721 H   0  0  0  0  0  0  0  0  0  0  0  0
    3.3908   -0.8431   -2.3104 H   0  0  0  0  0  0  0  0  0  0  0  0
    2.3214    0.2252   -3.2458 H   0  0  0  0  0  0  0  0  0  0  0  0
   -0.5077    0.5726    1.6254 C   0  0  0  0  0  0  0  0  0  0  0  0
    0.5196    0.5721    2.3005 O   0  0  0  0  0  0  0  0  0  0  0  0
   -1.5701    1.3283    1.9315 N   0  0  0  0  0  0  0  0  0  0  0  0
   -2.3715    1.2871    1.3223 H   0  0  0  0  0  0  0  0  0  0  0  0
   -1.6309    2.2206    3.0881 C   0  0  0  0  0  0  0  0  0  0  0  0
   -0.8160    2.9465    3.0358 H   0  0  0  0  0  0  0  0  0  0  0  0
   -2.5837    2.7512    3.1093 H   0  0  0  0  0  0  0  0  0  0  0  0
   -1.5190    1.6414    4.0064 H   0  0  0  0  0  0  0  0  0  0  0  0
  5  6  2  0  0  0  0
  5  7  1  0  0  0  0
  2  3  1  0  0  0  0
  2  4  1  0  0  0  0
  2  5  1  0  0  0  0
  1  2  1  0  0  0  0
 22 23  2  0  0  0  0
 22 24  1  0  0  0  0
 18 19  1  0  0  0  0
 18 20  1  0  0  0  0
 18 21  1  0  0  0  0
 17 18  1  0  0  0  0
 14 15  1  0  0  0  0
 14 16  1  0  0  0  0
 14 17  1  0  0  0  0
 11 12  1  0  0  0  0
 11 13  1  0  0  0  0
 11 14  1  0  0  0  0
  9 10  1  0  0  0  0
  9 11  1  0  0  0  0
  9 22  1  0  0  0  0
  7  8  1  0  0  0  0
  7  9  1  0  0  0  0
 26 27  1  0  0  0  0
 26 28  1  0  0  0  0
 26 29  1  0  0  0  0
 24 25  1  0  0  0  0
 24 26  1  0  0  0  0
M  END
$$$$
default_name
  -OEChem-01062215323D

 29 28  0     1  0  0  0  0  0999 V2000
   -3.5781   -3.7296    1.2702 H   0  0  0  0  0  0  0  0  0  0  0  0
   -3.5311   -2.7616    0.7732 C   0  0  0  0  0  0  0  0  0  0  0  0
   -4.2371   -2.0766    1.2382 H   0  0  0  0  0  0  0  0  0  0  0  0
   -3.7681   -2.8816   -0.2818 H   0  0  0  0  0  0  0  0  0  0  0  0
   -2.1321   -2.2086    0.9112 C   0  0  0  0  0  0  0  0  0  0  0  0
   -1.2751   -2.8426    1.5112 O   0  0  0  0  0  0  0  0  0  0  0  0
   -1.9041   -1.0186    0.3602 N   0  0  0  0  0  0  0  0  0  0  0  0
   -2.6671   -0.5416   -0.0988 H   0  0  0  0  0  0  0  0  0  0  0  0
   -0.6131   -0.3236    0.3832 C   0  0  1  0  0  0  0  0  0  0  0  0
    0.1824   -1.0687    0.4331 H   0  0  0  0  0  0  0  0  0  0  0  0
   -0.4464    0.4731   -0.9239 C   0  0  0  0  0  0  0  0  0  0  0  0
   -1.3097    1.1306   -1.0468 H   0  0  0  0  0  0  0  0  0  0  0  0
    0.4479    1.0941   -0.8552 H   0  0  0  0  0  0  0  0  0  0  0  0
   -0.3336   -0.4121   -2.1704 C   0  0  0  0  0  0  0  0  0  0  0  0
   -1.2349   -1.0175   -2.2616 H   0  0  0  0  0  0  0  0  0  0  0  0
   -0.2514    0.2289   -3.0489 H   0  0  0  0  0  0  0  0  0  0  0  0
    1.0924   -1.5280   -2.1416 S   0  0  0  0  0  0  0  0  0  0  0  0
    2.4333   -0.3215   -2.3091 C   0  0  0  0  0  0  0  0  0  0  0  0
    2.4061    0.3770   -1.4721 H   0  0  0  0  0  0  0  0  0  0  0  0
    3.3908   -0.8431   -2.3104 H   0  0  0  0  0  0  0  0  0  0  0  0
    2.3214    0.2252   -3.2458 H   0  0  0  0  0  0  0  0  0  0  0  0
   -0.5077    0.5726    1.6254 C   0  0  0  0  0  0  0  0  0  0  0  0
    0.5882    0.7876    2.1393 O   0  0  0  0  0  0  0  0  0  0  0  0
   -1.6444    1.0869    2.1120 N   0  0  0  0  0  0  0  0  0  0  0  0
   -2.5033    0.8788    1.6281 H   0  0  0  0  0  0  0  0  0  0  0  0
   -1.7119    1.9444    3.2943 C   0  0  0  0  0  0  0  0  0  0  0  0
   -1.0837    2.8258    3.1456 H   0  0  0  0  0  0  0  0  0  0  0  0
   -2.7395    2.2622    3.4753 H   0  0  0  0  0  0  0  0  0  0  0  0
   -1.3428    1.4002    4.1654 H   0  0  0  0  0  0  0  0  0  0  0  0
  5  6  2  0  0  0  0
  5  7  1  0  0  0  0
  2  3  1  0  0  0  0
  2  4  1  0  0  0  0
  2  5  1  0  0  0  0
  1  2  1  0  0  0  0
 22 23  2  0  0  0  0
 22 24  1  0  0  0  0
 18 19  1  0  0  0  0
 18 20  1  0  0  0  0
 18 21  1  0  0  0  0
 17 18  1  0  0  0  0
 14 15  1  0  0  0  0
 14 16  1  0  0  0  0
 14 17  1  0  0  0  0
 11 12  1  0  0  0  0
 11 13  1  0  0  0  0
 11 14  1  0  0  0  0
  9 10  1  0  0  0  0
  9 11  1  0  0  0  0
  9 22  1  0  0  0  0
  7  8  1  0  0  0  0
  7  9  1  0  0  0  0
 26 27  1  0  0  0  0
 26 28  1  0  0  0  0
 26 29  1  0  0  0  0
 24 25  1  0  0  0  0
 24 26  1  0  0  0  0
M  END
$$$$
default_name
  -OEChem-01062215323D

 29 28  0     1  0  0  0  0  0999 V2000
   -3.5781   -3.7296    1.2702 H   0  0  0  0  0  0  0  0  0  0  0  0
   -3.5311   -2.7616    0.7732 C   0  0  0  0  0  0  0  0  0  0  0  0
   -4.2371   -2.0766    1.2382 H   0  0  0  0  0  0  0  0  0  0  0  0
   -3.7681   -2.8816   -0.2818 H   0  0  0  0  0  0  0  0  0  0  0  0
   -2.1321   -2.2086    0.9112 C   0  0  0  0  0  0  0  0  0  0  0  0
   -1.2751   -2.8426    1.5112 O   0  0  0  0  0  0  0  0  0  0  0  0
   -1.9041   -1.0186    0.3602 N   0  0  0  0  0  0  0  0  0  0  0  0
   -2.6671   -0.5416   -0.0988 H   0  0  0  0  0  0  0  0  0  0  0  0
   -0.6131   -0.3236    0.3832 C   0  0  1  0  0  0  0  0  0  0  0  0
    0.1824   -1.0687    0.4331 H   0  0  0  0  0  0  0  0  0  0  0  0
   -0.4464    0.4731   -0.9239 C   0  0  0  0  0  0  0  0  0  0  0  0
   -1.3097    1.1306   -1.0468 H   0  0  0  0  0  0  0  0  0  0  0  0
    0.4479    1.0941   -0.8552 H   0  0  0  0  0  0  0  0  0  0  0  0
   -0.3336   -0.4121   -2.1704 C   0  0  0  0  0  0  0  0  0  0  0  0
   -1.2349   -1.0175   -2.2616 H   0  0  0  0  0  0  0  0  0  0  0  0
   -0.2514    0.2289   -3.0489 H   0  0  0  0  0  0  0  0  0  0  0  0
    1.0924   -1.5280   -2.1416 S   0  0  0  0  0  0  0  0  0  0  0  0
    2.4333   -0.3215   -2.3091 C   0  0  0  0  0  0  0  0  0  0  0  0
    2.4061    0.3770   -1.4721 H   0  0  0  0  0  0  0  0  0  0  0  0
    3.3908   -0.8431   -2.3104 H   0  0  0  0  0  0  0  0  0  0  0  0
    2.3214    0.2252   -3.2458 H   0  0  0  0  0  0  0  0  0  0  0  0
   -0.5077    0.5726    1.6254 C   0  0  0  0  0  0  0  0  0  0  0  0
    0.5849    1.0128    1.9771 O   0  0  0  0  0  0  0  0  0  0  0  0
   -1.6384    0.8349    2.2933 N   0  0  0  0  0  0  0  0  0  0  0  0
   -2.4989    0.4513    1.9362 H   0  0  0  0  0  0  0  0  0  0  0  0
   -1.7012    1.6570    3.5007 C   0  0  0  0  0  0  0  0  0  0  0  0
   -1.3004    2.6513    3.2899 H   0  0  0  0  0  0  0  0  0  0  0  0
   -2.7324    1.7508    3.8437 H   0  0  0  0  0  0  0  0  0  0  0  0
   -1.0981    1.2014    4.2882 H   0  0  0  0  0  0  0  0  0  0  0  0
  5  6  2  0  0  0  0
  5  7  1  0  0  0  0
  2  3  1  0  0  0  0
  2  4  1  0  0  0  0
  2  5  1  0  0  0  0
  1  2  1  0  0  0  0
 22 23  2  0  0  0  0
 22 24  1  0  0  0  0
 18 19  1  0  0  0  0
 18 20  1  0  0  0  0
 18 21  1  0  0  0  0
 17 18  1  0  0  0  0
 14 15  1  0  0  0  0
 14 16  1  0  0  0  0
 14 17  1  0  0  0  0
 11 12  1  0  0  0  0
 11 13  1  0  0  0  0
 11 14  1  0  0  0  0
  9 10  1  0  0  0  0
  9 11  1  0  0  0  0
  9 22  1  0  0  0  0
  7  8  1  0  0  0  0
  7  9  1  0  0  0  0
 26 27  1  0  0  0  0
 26 28  1  0  0  0  0
 26 29  1  0  0  0  0
 24 25  1  0  0  0  0
 24 26  1  0  0  0  0
M  END
$$$$
default_name
  -OEChem-01062215323D

 29 28  0     1  0  0  0  0  0999 V2000
   -3.5781   -3.7296    1.2702 H   0  0  0  0  0  0  0  0  0  0  0  0
   -3.5311   -2.7616    0.7732 C   0  0  0  0  0  0  0  0  0  0  0  0
   -4.2371   -2.0766    1.2382 H   0  0  0  0  0  0  0  0  0  0  0  0
   -3.7681   -2.8816   -0.2818 H   0  0  0  0  0  0  0  0  0  0  0  0
   -2.1321   -2.2086    0.9112 C   0  0  0  0  0  0  0  0  0  0  0  0
   -1.2751   -2.8426    1.5112 O   0  0  0  0  0  0  0  0  0  0  0  0
   -1.9041   -1.0186    0.3602 N   0  0  0  0  0  0  0  0  0  0  0  0
   -2.6671   -0.5416   -0.0988 H   0  0  0  0  0  0  0  0  0  0  0  0
   -0.6131   -0.3236    0.3832 C   0  0  1  0  0  0  0  0  0  0  0  0
    0.1824   -1.0687    0.4331 H   0  0  0  0  0  0  0  0  0  0  0  0
   -0.4464    0.4731   -0.9239 C   0  0  0  0  0  0  0  0  0  0  0  0
   -1.3097    1.1306   -1.0468 H   0  0  0  0  0  0  0  0  0  0  0  0
    0.4479    1.0941   -0.8552 H   0  0  0  0  0  0  0  0  0  0  0  0
   -0.3336   -0.4121   -2.1704 C   0  0  0  0  0  0  0  0  0  0  0  0
   -1.2349   -1.0175   -2.2616 H   0  0  0  0  0  0  0  0  0  0  0  0
   -0.2514    0.2289   -3.0489 H   0  0  0  0  0  0  0  0  0  0  0  0
    1.0924   -1.5280   -2.1416 S   0  0  0  0  0  0  0  0  0  0  0  0
    2.4333   -0.3215   -2.3091 C   0  0  0  0  0  0  0  0  0  0  0  0
    2.4061    0.3770   -1.4721 H   0  0  0  0  0  0  0  0  0  0  0  0
    3.3908   -0.8431   -2.3104 H   0  0  0  0  0  0  0  0  0  0  0  0
    2.3214    0.2252   -3.2458 H   0  0  0  0  0  0  0  0  0  0  0  0
   -0.5077    0.5726    1.6254 C   0  0  0  0  0  0  0  0  0  0  0  0
    0.5100    1.2326    1.8248 O   0  0  0  0  0  0  0  0  0  0  0  0
   -1.5525    0.5896    2.4630 N   0  0  0  0  0  0  0  0  0  0  0  0
   -2.3586    0.0338    2.2255 H   0  0  0  0  0  0  0  0  0  0  0  0
   -1.5994    1.3780    3.6934 C   0  0  0  0  0  0  0  0  0  0  0  0
   -1.4513    2.4347    3.4589 H   0  0  0  0  0  0  0  0  0  0  0  0
   -2.5627    1.2517    4.1893 H   0  0  0  0  0  0  0  0  0  0  0  0
   -0.8016    1.0584    4.3662 H   0  0  0  0  0  0  0  0  0  0  0  0
  5  6  2  0  0  0  0
  5  7  1  0  0  0  0
  2  3  1  0  0  0  0
  2  4  1  0  0  0  0
  2  5  1  0  0  0  0
  1  2  1  0  0  0  0
 22 23  2  0  0  0  0
 22 24  1  0  0  0  0
 18 19  1  0  0  0  0
 18 20  1  0  0  0  0
 18 21  1  0  0  0  0
 17 18  1  0  0  0  0
 14 15  1  0  0  0  0
 14 16  1  0  0  0  0
 14 17  1  0  0  0  0
 11 12  1  0  0  0  0
 11 13  1  0  0  0  0
 11 14  1  0  0  0  0
  9 10  1  0  0  0  0
  9 11  1  0  0  0  0
  9 22  1  0  0  0  0
  7  8  1  0  0  0  0
  7  9  1  0  0  0  0
 26 27  1  0  0  0  0
 26 28  1  0  0  0  0
 26 29  1  0  0  0  0
 24 25  1  0  0  0  0
 24 26  1  0  0  0  0
M  END
$$$$
default_name
  -OEChem-01062215323D

 29 28  0     1  0  0  0  0  0999 V2000
   -3.5781   -3.7296    1.2702 H   0  0  0  0  0  0  0  0  0  0  0  0
   -3.5311   -2.7616    0.7732 C   0  0  0  0  0  0  0  0  0  0  0  0
   -4.2371   -2.0766    1.2382 H   0  0  0  0  0  0  0  0  0  0  0  0
   -3.7681   -2.8816   -0.2818 H   0  0  0  0  0  0  0  0  0  0  0  0
   -2.1321   -2.2086    0.9112 C   0  0  0  0  0  0  0  0  0  0  0  0
   -1.2751   -2.8426    1.5112 O   0  0  0  0  0  0  0  0  0  0  0  0
   -1.9041   -1.0186    0.3602 N   0  0  0  0  0  0  0  0  0  0  0  0
   -2.6671   -0.5416   -0.0988 H   0  0  0  0  0  0  0  0  0  0  0  0
   -0.6131   -0.3236    0.3832 C   0  0  1  0  0  0  0  0  0  0  0  0
    0.1824   -1.0687    0.4331 H   0  0  0  0  0  0  0  0  0  0  0  0
   -0.4464    0.4731   -0.9239 C   0  0  0  0  0  0  0  0  0  0  0  0
   -1.3097    1.1306   -1.0468 H   0  0  0  0  0  0  0  0  0  0  0  0
    0.4479    1.0941   -0.8552 H   0  0  0  0  0  0  0  0  0  0  0  0
   -0.3336   -0.4121   -2.1704 C   0  0  0  0  0  0  0  0  0  0  0  0
   -1.2349   -1.0175   -2.2616 H   0  0  0  0  0  0  0  0  0  0  0  0
   -0.2514    0.2289   -3.0489 H   0  0  0  0  0  0  0  0  0  0  0  0
    1.0924   -1.5280   -2.1416 S   0  0  0  0  0  0  0  0  0  0  0  0
    2.4333   -0.3215   -2.3091 C   0  0  0  0  0  0  0  0  0  0  0  0
    2.4061    0.3770   -1.4721 H   0  0  0  0  0  0  0  0  0  0  0  0
    3.3908   -0.8431   -2.3104 H   0  0  0  0  0  0  0  0  0  0  0  0
    2.3214    0.2252   -3.2458 H   0  0  0  0  0  0  0  0  0  0  0  0
   -0.5077    0.5726    1.6254 C   0  0  0  0  0  0  0  0  0  0  0  0
    0.3687    1.4320    1.6930 O   0  0  0  0  0  0  0  0  0  0  0  0
   -1.3925    0.3676    2.6095 N   0  0  0  0  0  0  0  0  0  0  0  0
   -2.0920   -0.3452    2.4763 H   0  0  0  0  0  0  0  0  0  0  0  0
   -1.4136    1.1263    3.8592 C   0  0  0  0  0  0  0  0  0  0  0  0
   -1.5262    2.1909    3.6411 H   0  0  0  0  0  0  0  0  0  0  0  0
   -2.2421    0.7990    4.4887 H   0  0  0  0  0  0  0  0  0  0  0  0
   -0.4734    0.9809    4.3942 H   0  0  0  0  0  0  0  0  0  0  0  0
  5  6  2  0  0  0  0
  5  7  1  0  0  0  0
  2  3  1  0  0  0  0
  2  4  1  0  0  0  0
  2  5  1  0  0  0  0
  1  2  1  0  0  0  0
 22 23  2  0  0  0  0
 22 24  1  0  0  0  0
 18 19  1  0  0  0  0
 18 20  1  0  0  0  0
 18 21  1  0  0  0  0
 17 18  1  0  0  0  0
 14 15  1  0  0  0  0
 14 16  1  0  0  0  0
 14 17  1  0  0  0  0
 11 12  1  0  0  0  0
 11 13  1  0  0  0  0
 11 14  1  0  0  0  0
  9 10  1  0  0  0  0
  9 11  1  0  0  0  0
  9 22  1  0  0  0  0
  7  8  1  0  0  0  0
  7  9  1  0  0  0  0
 26 27  1  0  0  0  0
 26 28  1  0  0  0  0
 26 29  1  0  0  0  0
 24 25  1  0  0  0  0
 24 26  1  0  0  0  0
M  END
$$$$
default_name
  -OEChem-01062215323D

 29 28  0     1  0  0  0  0  0999 V2000
   -3.5781   -3.7296    1.2702 H   0  0  0  0  0  0  0  0  0  0  0  0
   -3.5311   -2.7616    0.7732 C   0  0  0  0  0  0  0  0  0  0  0  0
   -4.2371   -2.0766    1.2382 H   0  0  0  0  0  0  0  0  0  0  0  0
   -3.7681   -2.8816   -0.2818 H   0  0  0  0  0  0  0  0  0  0  0  0
   -2.1321   -2.2086    0.9112 C   0  0  0  0  0  0  0  0  0  0  0  0
   -1.2751   -2.8426    1.5112 O   0  0  0  0  0  0  0  0  0  0  0  0
   -1.9041   -1.0186    0.3602 N   0  0  0  0  0  0  0  0  0  0  0  0
   -2.6671   -0.5416   -0.0988 H   0  0  0  0  0  0  0  0  0  0  0  0
   -0.6131   -0.3236    0.3832 C   0  0  1  0  0  0  0  0  0  0  0  0
    0.1824   -1.0687    0.4331 H   0  0  0  0  0  0  0  0  0  0  0  0
   -0.4464    0.4731   -0.9239 C   0  0  0  0  0  0  0  0  0  0  0  0
   -1.3097    1.1306   -1.0468 H   0  0  0  0  0  0  0  0  0  0  0  0
    0.4479    1.0941   -0.8552 H   0  0  0  0  0  0  0  0  0  0  0  0
   -0.3336   -0.4121   -2.1704 C   0  0  0  0  0  0  0  0  0  0  0  0
   -1.2349   -1.0175   -2.2616 H   0  0  0  0  0  0  0  0  0  0  0  0
   -0.2514    0.2289   -3.0489 H   0  0  0  0  0  0  0  0  0  0  0  0
    1.0924   -1.5280   -2.1416 S   0  0  0  0  0  0  0  0  0  0  0  0
    2.4333   -0.3215   -2.3091 C   0  0  0  0  0  0  0  0  0  0  0  0
    2.4061    0.3770   -1.4721 H   0  0  0  0  0  0  0  0  0  0  0  0
    3.3908   -0.8431   -2.3104 H   0  0  0  0  0  0  0  0  0  0  0  0
    2.3214    0.2252   -3.2458 H   0  0  0  0  0  0  0  0  0  0  0  0
   -0.5077    0.5726    1.6254 C   0  0  0  0  0  0  0  0  0  0  0  0
    0.1706    1.5973    1.5906 O   0  0  0  0  0  0  0  0  0  0  0  0
   -1.1693    0.1841    2.7230 N   0  0  0  0  0  0  0  0  0  0  0  0
   -1.7171   -0.6599    2.6715 H   0  0  0  0  0  0  0  0  0  0  0  0
   -1.1564    0.9192    3.9868 C   0  0  0  0  0  0  0  0  0  0  0  0
   -1.5200    1.9365    3.8241 H   0  0  0  0  0  0  0  0  0  0  0  0
   -1.7924    0.4236    4.7214 H   0  0  0  0  0  0  0  0  0  0  0  0
   -0.1360    0.9743    4.3703 H   0  0  0  0  0  0  0  0  0  0  0  0
  5  6  2  0  0  0  0
  5  7  1  0  0  0  0
  2  3  1  0  0  0  0
  2  4  1  0  0  0  0
  2  5  1  0  0  0  0
  1  2  1  0  0  0  0
 22 23  2  0  0  0  0
 22 24  1  0  0  0  0
 18 19  1  0  0  0  0
 18 20  1  0  0  0  0
 18 21  1  0  0  0  0
 17 18  1  0  0  0  0
 14 15  1  0  0  0  0
 14 16  1  0  0  0  0
 14 17  1  0  0  0  0
 11 12  1  0  0  0  0
 11 13  1  0  0  0  0
 11 14  1  0  0  0  0
  9 10  1  0  0  0  0
  9 11  1  0  0  0  0
  9 22  1  0  0  0  0
  7  8  1  0  0  0  0
  7  9  1  0  0  0  0
 26 27  1  0  0  0  0
 26 28  1  0  0  0  0
 26 29  1  0  0  0  0
 24 25  1  0  0  0  0
 24 26  1  0  0  0  0
M  END
$$$$
default_name
  -OEChem-01062215323D

 29 28  0     1  0  0  0  0  0999 V2000
   -3.5781   -3.7296    1.2702 H   0  0  0  0  0  0  0  0  0  0  0  0
   -3.5311   -2.7616    0.7732 C   0  0  0  0  0  0  0  0  0  0  0  0
   -4.2371   -2.0766    1.2382 H   0  0  0  0  0  0  0  0  0  0  0  0
   -3.7681   -2.8816   -0.2818 H   0  0  0  0  0  0  0  0  0  0  0  0
   -2.1321   -2.2086    0.9112 C   0  0  0  0  0  0  0  0  0  0  0  0
   -1.2751   -2.8426    1.5112 O   0  0  0  0  0  0  0  0  0  0  0  0
   -1.9041   -1.0186    0.3602 N   0  0  0  0  0  0  0  0  0  0  0  0
   -2.6671   -0.5416   -0.0988 H   0  0  0  0  0  0  0  0  0  0  0  0
   -0.6131   -0.3236    0.3832 C   0  0  1  0  0  0  0  0  0  0  0  0
    0.1824   -1.0687    0.4331 H   0  0  0  0  0  0  0  0  0  0  0  0
   -0.4464    0.4731   -0.9239 C   0  0  0  0  0  0  0  0  0  0  0  0
   -1.3097    1.1306   -1.0468 H   0  0  0  0  0  0  0  0  0  0  0  0
    0.4479    1.0941   -0.8552 H   0  0  0  0  0  0  0  0  0  0  0  0
   -0.3336   -0.4121   -2.1704 C   0  0  0  0  0  0  0  0  0  0  0  0
   -1.2349   -1.0175   -2.2616 H   0  0  0  0  0  0  0  0  0  0  0  0
   -0.2514    0.2289   -3.0489 H   0  0  0  0  0  0  0  0  0  0  0  0
    1.0924   -1.5280   -2.1416 S   0  0  0  0  0  0  0  0  0  0  0  0
    2.4333   -0.3215   -2.3091 C   0  0  0  0  0  0  0  0  0  0  0  0
    2.4061    0.3770   -1.4721 H   0  0  0  0  0  0  0  0  0  0  0  0
    3.3908   -0.8431   -2.3104 H   0  0  0  0  0  0  0  0  0  0  0  0
    2.3214    0.2252   -3.2458 H   0  0  0  0  0  0  0  0  0  0  0  0
   -0.5077    0.5726    1.6254 C   0  0  0  0  0  0  0  0  0  0  0  0
   -0.0709    1.7173    1.5245 O   0  0  0  0  0  0  0  0  0  0  0  0
   -0.8981    0.0515    2.7956 N   0  0  0  0  0  0  0  0  0  0  0  0
   -1.2597   -0.8889    2.7979 H   0  0  0  0  0  0  0  0  0  0  0  0
   -0.8453    0.7708    4.0675 C   0  0  0  0  0  0  0  0  0  0  0  0
   -1.4331    1.6889    3.9955 H   0  0  0  0  0  0  0  0  0  0  0  0
   -1.2442    0.1510    4.8716 H   0  0  0  0  0  0  0  0  0  0  0  0
    0.1877    1.0391    4.2962 H   0  0  0  0  0  0  0  0  0  0  0  0
  5  6  2  0  0  0  0
  5  7  1  0  0  0  0
  2  3  1  0  0  0  0
  2  4  1  0  0  0  0
  2  5  1  0  0  0  0
  1  2  1  0  0  0  0
 22 23  2  0  0  0  0
 22 24  1  0  0  0  0
 18 19  1  0  0  0  0
 18 20  1  0  0  0  0
 18 21  1  0  0  0  0
 17 18  1  0  0  0  0
 14 15  1  0  0  0  0
 14 16  1  0  0  0  0
 14 17  1  0  0  0  0
 11 12  1  0  0  0  0
 11 13  1  0  0  0  0
 11 14  1  0  0  0  0
  9 10  1  0  0  0  0
  9 11  1  0  0  0  0
  9 22  1  0  0  0  0
  7  8  1  0  0  0  0
  7  9  1  0  0  0  0
 26 27  1  0  0  0  0
 26 28  1  0  0  0  0
 26 29  1  0  0  0  0
 24 25  1  0  0  0  0
 24 26  1  0  0  0  0
M  END
$$$$
default_name
  -OEChem-01062215323D

 29 28  0     1  0  0  0  0  0999 V2000
   -3.5781   -3.7296    1.2702 H   0  0  0  0  0  0  0  0  0  0  0  0
   -3.5311   -2.7616    0.7732 C   0  0  0  0  0  0  0  0  0  0  0  0
   -4.2371   -2.0766    1.2382 H   0  0  0  0  0  0  0  0  0  0  0  0
   -3.7681   -2.8816   -0.2818 H   0  0  0  0  0  0  0  0  0  0  0  0
   -2.1321   -2.2086    0.9112 C   0  0  0  0  0  0  0  0  0  0  0  0
   -1.2751   -2.8426    1.5112 O   0  0  0  0  0  0  0  0  0  0  0  0
   -1.9041   -1.0186    0.3602 N   0  0  0  0  0  0  0  0  0  0  0  0
   -2.6671   -0.5416   -0.0988 H   0  0  0  0  0  0  0  0  0  0  0  0
   -0.6131   -0.3236    0.3832 C   0  0  1  0  0  0  0  0  0  0  0  0
    0.1824   -1.0687    0.4331 H   0  0  0  0  0  0  0  0  0  0  0  0
   -0.4464    0.4731   -0.9239 C   0  0  0  0  0  0  0  0  0  0  0  0
   -1.3097    1.1306   -1.0468 H   0  0  0  0  0  0  0  0  0  0  0  0
    0.4479    1.0941   -0.8552 H   0  0  0  0  0  0  0  0  0  0  0  0
   -0.3336   -0.4121   -2.1704 C   0  0  0  0  0  0  0  0  0  0  0  0
   -1.2349   -1.0175   -2.2616 H   0  0  0  0  0  0  0  0  0  0  0  0
   -0.2514    0.2289   -3.0489 H   0  0  0  0  0  0  0  0  0  0  0  0
    1.0924   -1.5280   -2.1416 S   0  0  0  0  0  0  0  0  0  0  0  0
    2.4333   -0.3215   -2.3091 C   0  0  0  0  0  0  0  0  0  0  0  0
    2.4061    0.3770   -1.4721 H   0  0  0  0  0  0  0  0  0  0  0  0
    3.3908   -0.8431   -2.3104 H   0  0  0  0  0  0  0  0  0  0  0  0
    2.3214    0.2252   -3.2458 H   0  0  0  0  0  0  0  0  0  0  0  0
   -0.5077    0.5726    1.6254 C   0  0  0  0  0  0  0  0  0  0  0  0
   -0.3393    1.7838    1.4993 O   0  0  0  0  0  0  0  0  0  0  0  0
   -0.5975   -0.0210    2.8225 N   0  0  0  0  0  0  0  0  0  0  0  0
   -0.7508   -1.0165    2.8468 H   0  0  0  0  0  0  0  0  0  0  0  0
   -0.5015    0.6911    4.0958 C   0  0  0  0  0  0  0  0  0  0  0  0
   -1.2714    1.4648    4.1434 H   0  0  0  0  0  0  0  0  0  0  0  0
   -0.6350   -0.0002    4.9290 H   0  0  0  0  0  0  0  0  0  0  0  0
    0.4756    1.1707    4.1768 H   0  0  0  0  0  0  0  0  0  0  0  0
  5  6  2  0  0  0  0
  5  7  1  0  0  0  0
  2  3  1  0  0  0  0
  2  4  1  0  0  0  0
  2  5  1  0  0  0  0
  1  2  1  0  0  0  0
 22 23  2  0  0  0  0
 22 24  1  0  0  0  0
 18 19  1  0  0  0  0
 18 20  1  0  0  0  0
 18 21  1  0  0  0  0
 17 18  1  0  0  0  0
 14 15  1  0  0  0  0
 14 16  1  0  0  0  0
 14 17  1  0  0  0  0
 11 12  1  0  0  0  0
 11 13  1  0  0  0  0
 11 14  1  0  0  0  0
  9 10  1  0  0  0  0
  9 11  1  0  0  0  0
  9 22  1  0  0  0  0
  7  8  1  0  0  0  0
  7  9  1  0  0  0  0
 26 27  1  0  0  0  0
 26 28  1  0  0  0  0
 26 29  1  0  0  0  0
 24 25  1  0  0  0  0
 24 26  1  0  0  0  0
M  END
$$$$
default_name
  -OEChem-01062215323D

 29 28  0     1  0  0  0  0  0999 V2000
   -3.5781   -3.7296    1.2702 H   0  0  0  0  0  0  0  0  0  0  0  0
   -3.5311   -2.7616    0.7732 C   0  0  0  0  0  0  0  0  0  0  0  0
   -4.2371   -2.0766    1.2382 H   0  0  0  0  0  0  0  0  0  0  0  0
   -3.7681   -2.8816   -0.2818 H   0  0  0  0  0  0  0  0  0  0  0  0
   -2.1321   -2.2086    0.9112 C   0  0  0  0  0  0  0  0  0  0  0  0
   -1.2751   -2.8426    1.5112 O   0  0  0  0  0  0  0  0  0  0  0  0
   -1.9041   -1.0186    0.3602 N   0  0  0  0  0  0  0  0  0  0  0  0
   -2.6671   -0.5416   -0.0988 H   0  0  0  0  0  0  0  0  0  0  0  0
   -0.6131   -0.3236    0.3832 C   0  0  1  0  0  0  0  0  0  0  0  0
    0.1824   -1.0687    0.4331 H   0  0  0  0  0  0  0  0  0  0  0  0
   -0.4464    0.4731   -0.9239 C   0  0  0  0  0  0  0  0  0  0  0  0
   -1.3097    1.1306   -1.0468 H   0  0  0  0  0  0  0  0  0  0  0  0
    0.4479    1.0941   -0.8552 H   0  0  0  0  0  0  0  0  0  0  0  0
   -0.3336   -0.4121   -2.1704 C   0  0  0  0  0  0  0  0  0  0  0  0
   -1.2349   -1.0175   -2.2616 H   0  0  0  0  0  0  0  0  0  0  0  0
   -0.2514    0.2289   -3.0489 H   0  0  0  0  0  0  0  0  0  0  0  0
    1.0924   -1.5280   -2.1416 S   0  0  0  0  0  0  0  0  0  0  0  0
    2.4333   -0.3215   -2.3091 C   0  0  0  0  0  0  0  0  0  0  0  0
    2.4061    0.3770   -1.4721 H   0  0  0  0  0  0  0  0  0  0  0  0
    3.3908   -0.8431   -2.3104 H   0  0  0  0  0  0  0  0  0  0  0  0
    2.3214    0.2252   -3.2458 H   0  0  0  0  0  0  0  0  0  0  0  0
   -0.5077    0.5726    1.6254 C   0  0  0  0  0  0  0  0  0  0  0  0
   -0.6163    1.7923    1.5166 O   0  0  0  0  0  0  0  0  0  0  0  0
   -0.2878   -0.0286    2.8017 N   0  0  0  0  0  0  0  0  0  0  0  0
   -0.2251   -1.0341    2.8149 H   0  0  0  0  0  0  0  0  0  0  0  0
   -0.1485    0.6856    4.0698 C   0  0  0  0  0  0  0  0  0  0  0  0
   -1.0460    1.2796    4.2579 H   0  0  0  0  0  0  0  0  0  0  0  0
   -0.0062   -0.0197    4.8897 H   0  0  0  0  0  0  0  0  0  0  0  0
    0.7081    1.3602    4.0203 H   0  0  0  0  0  0  0  0  0  0  0  0
  5  6  2  0  0  0  0
  5  7  1  0  0  0  0
  2  3  1  0  0  0  0
  2  4  1  0  0  0  0
  2  5  1  0  0  0  0
  1  2  1  0  0  0  0
 22 23  2  0  0  0  0
 22 24  1  0  0  0  0
 18 19  1  0  0  0  0
 18 20  1  0  0  0  0
 18 21  1  0  0  0  0
 17 18  1  0  0  0  0
 14 15  1  0  0  0  0
 14 16  1  0  0  0  0
 14 17  1  0  0  0  0
 11 12  1  0  0  0  0
 11 13  1  0  0  0  0
 11 14  1  0  0  0  0
  9 10  1  0  0  0  0
  9 11  1  0  0  0  0
  9 22  1  0  0  0  0
  7  8  1  0  0  0  0
  7  9  1  0  0  0  0
 26 27  1  0  0  0  0
 26 28  1  0  0  0  0
 26 29  1  0  0  0  0
 24 25  1  0  0  0  0
 24 26  1  0  0  0  0
M  END
$$$$
default_name
  -OEChem-01062215323D

 29 28  0     1  0  0  0  0  0999 V2000
   -3.5781   -3.7296    1.2702 H   0  0  0  0  0  0  0  0  0  0  0  0
   -3.5311   -2.7616    0.7732 C   0  0  0  0  0  0  0  0  0  0  0  0
   -4.2371   -2.0766    1.2382 H   0  0  0  0  0  0  0  0  0  0  0  0
   -3.7681   -2.8816   -0.2818 H   0  0  0  0  0  0  0  0  0  0  0  0
   -2.1321   -2.2086    0.9112 C   0  0  0  0  0  0  0  0  0  0  0  0
   -1.2751   -2.8426    1.5112 O   0  0  0  0  0  0  0  0  0  0  0  0
   -1.9041   -1.0186    0.3602 N   0  0  0  0  0  0  0  0  0  0  0  0
   -2.6671   -0.5416   -0.0988 H   0  0  0  0  0  0  0  0  0  0  0  0
   -0.6131   -0.3236    0.3832 C   0  0  1  0  0  0  0  0  0  0  0  0
    0.1824   -1.0687    0.4331 H   0  0  0  0  0  0  0  0  0  0  0  0
   -0.4464    0.4731   -0.9239 C   0  0  0  0  0  0  0  0  0  0  0  0
   -1.3097    1.1306   -1.0468 H   0  0  0  0  0  0  0  0  0  0  0  0
    0.4479    1.0941   -0.8552 H   0  0  0  0  0  0  0  0  0  0  0  0
   -0.3336   -0.4121   -2.1704 C   0  0  0  0  0  0  0  0  0  0  0  0
   -1.2349   -1.0175   -2.2616 H   0  0  0  0  0  0  0  0  0  0  0  0
   -0.2514    0.2289   -3.0489 H   0  0  0  0  0  0  0  0  0  0  0  0
    1.0924   -1.5280   -2.1416 S   0  0  0  0  0  0  0  0  0  0  0  0
    2.4333   -0.3215   -2.3091 C   0  0  0  0  0  0  0  0  0  0  0  0
    2.4061    0.3770   -1.4721 H   0  0  0  0  0  0  0  0  0  0  0  0
    3.3908   -0.8431   -2.3104 H   0  0  0  0  0  0  0  0  0  0  0  0
    2.3214    0.2252   -3.2458 H   0  0  0  0  0  0  0  0  0  0  0  0
   -0.5077    0.5726    1.6254 C   0  0  0  0  0  0  0  0  0  0  0  0
   -0.8830    1.7422    1.5754 O   0  0  0  0  0  0  0  0  0  0  0  0
    0.0097    0.0293    2.7347 N   0  0  0  0  0  0  0  0  0  0  0  0
    0.2815   -0.9404    2.7044 H   0  0  0  0  0  0  0  0  0  0  0  0
    0.1898    0.7547    3.9913 C   0  0  0  0  0  0  0  0  0  0  0  0
   -0.7721    1.1458    4.3312 H   0  0  0  0  0  0  0  0  0  0  0  0
    0.5993    0.0939    4.7564 H   0  0  0  0  0  0  0  0  0  0  0  0
    0.8694    1.5948    3.8374 H   0  0  0  0  0  0  0  0  0  0  0  0
  5  6  2  0  0  0  0
  5  7  1  0  0  0  0
  2  3  1  0  0  0  0
  2  4  1  0  0  0  0
  2  5  1  0  0  0  0
  1  2  1  0  0  0  0
 22 23  2  0  0  0  0
 22 24  1  0  0  0  0
 18 19  1  0  0  0  0
 18 20  1  0  0  0  0
 18 21  1  0  0  0  0
 17 18  1  0  0  0  0
 14 15  1  0  0  0  0
 14 16  1  0  0  0  0
 14 17  1  0  0  0  0
 11 12  1  0  0  0  0
 11 13  1  0  0  0  0
 11 14  1  0  0  0  0
  9 10  1  0  0  0  0
  9 11  1  0  0  0  0
  9 22  1  0  0  0  0
  7  8  1  0  0  0  0
  7  9  1  0  0  0  0
 26 27  1  0  0  0  0
 26 28  1  0  0  0  0
 26 29  1  0  0  0  0
 24 25  1  0  0  0  0
 24 26  1  0  0  0  0
M  END
$$$$
default_name
  -OEChem-01062215323D

 29 28  0     1  0  0  0  0  0999 V2000
   -3.5781   -3.7296    1.2702 H   0  0  0  0  0  0  0  0  0  0  0  0
   -3.5311   -2.7616    0.7732 C   0  0  0  0  0  0  0  0  0  0  0  0
   -4.2371   -2.0766    1.2382 H   0  0  0  0  0  0  0  0  0  0  0  0
   -3.7681   -2.8816   -0.2818 H   0  0  0  0  0  0  0  0  0  0  0  0
   -2.1321   -2.2086    0.9112 C   0  0  0  0  0  0  0  0  0  0  0  0
   -1.2751   -2.8426    1.5112 O   0  0  0  0  0  0  0  0  0  0  0  0
   -1.9041   -1.0186    0.3602 N   0  0  0  0  0  0  0  0  0  0  0  0
   -2.6671   -0.5416   -0.0988 H   0  0  0  0  0  0  0  0  0  0  0  0
   -0.6131   -0.3236    0.3832 C   0  0  1  0  0  0  0  0  0  0  0  0
    0.1824   -1.0687    0.4331 H   0  0  0  0  0  0  0  0  0  0  0  0
   -0.4464    0.4731   -0.9239 C   0  0  0  0  0  0  0  0  0  0  0  0
   -1.3097    1.1306   -1.0468 H   0  0  0  0  0  0  0  0  0  0  0  0
    0.4479    1.0941   -0.8552 H   0  0  0  0  0  0  0  0  0  0  0  0
   -0.3336   -0.4121   -2.1704 C   0  0  0  0  0  0  0  0  0  0  0  0
   -1.2349   -1.0175   -2.2616 H   0  0  0  0  0  0  0  0  0  0  0  0
   -0.2514    0.2289   -3.0489 H   0  0  0  0  0  0  0  0  0  0  0  0
    1.0924   -1.5280   -2.1416 S   0  0  0  0  0  0  0  0  0  0  0  0
    2.4333   -0.3215   -2.3091 C   0  0  0  0  0  0  0  0  0  0  0  0
    2.4061    0.3770   -1.4721 H   0  0  0  0  0  0  0  0  0  0  0  0
    3.3908   -0.8431   -2.3104 H   0  0  0  0  0  0  0  0  0  0  0  0
    2.3214    0.2252   -3.2458 H   0  0  0  0  0  0  0  0  0  0  0  0
   -0.5077    0.5726    1.6254 C   0  0  0  0  0  0  0  0  0  0  0  0
   -1.1212    1.6369    1.6716 O   0  0  0  0  0  0  0  0  0  0  0  0
    0.2749    0.1487    2.6261 N   0  0  0  0  0  0  0  0  0  0  0  0
    0.7345   -0.7419    2.5227 H   0  0  0  0  0  0  0  0  0  0  0  0
    0.4901    0.8936    3.8656 C   0  0  0  0  0  0  0  0  0  0  0  0
   -0.4685    1.0727    4.3582 H   0  0  0  0  0  0  0  0  0  0  0  0
    1.1403    0.3327    4.5382 H   0  0  0  0  0  0  0  0  0  0  0  0
    0.9484    1.8583    3.6406 H   0  0  0  0  0  0  0  0  0  0  0  0
  5  6  2  0  0  0  0
  5  7  1  0  0  0  0
  2  3  1  0  0  0  0
  2  4  1  0  0  0  0
  2  5  1  0  0  0  0
  1  2  1  0  0  0  0
 22 23  2  0  0  0  0
 22 24  1  0  0  0  0
 18 19  1  0  0  0  0
 18 20  1  0  0  0  0
 18 21  1  0  0  0  0
 17 18  1  0  0  0  0
 14 15  1  0  0  0  0
 14 16  1  0  0  0  0
 14 17  1  0  0  0  0
 11 12  1  0  0  0  0
 11 13  1  0  0  0  0
 11 14  1  0  0  0  0
  9 10  1  0  0  0  0
  9 11  1  0  0  0  0
  9 22  1  0  0  0  0
  7  8  1  0  0  0  0
  7  9  1  0  0  0  0
 26 27  1  0  0  0  0
 26 28  1  0  0  0  0
 26 29  1  0  0  0  0
 24 25  1  0  0  0  0
 24 26  1  0  0  0  0
M  END
$$$$
default_name
  -OEChem-01062215323D

 29 28  0     1  0  0  0  0  0999 V2000
   -3.5781   -3.7296    1.2702 H   0  0  0  0  0  0  0  0  0  0  0  0
   -3.5311   -2.7616    0.7732 C   0  0  0  0  0  0  0  0  0  0  0  0
   -4.2371   -2.0766    1.2382 H   0  0  0  0  0  0  0  0  0  0  0  0
   -3.7681   -2.8816   -0.2818 H   0  0  0  0  0  0  0  0  0  0  0  0
   -2.1321   -2.2086    0.9112 C   0  0  0  0  0  0  0  0  0  0  0  0
   -1.2751   -2.8426    1.5112 O   0  0  0  0  0  0  0  0  0  0  0  0
   -1.9041   -1.0186    0.3602 N   0  0  0  0  0  0  0  0  0  0  0  0
   -2.6671   -0.5416   -0.0988 H   0  0  0  0  0  0  0  0  0  0  0  0
   -0.6131   -0.3236    0.3832 C   0  0  1  0  0  0  0  0  0  0  0  0
    0.1824   -1.0687    0.4331 H   0  0  0  0  0  0  0  0  0  0  0  0
   -0.4464    0.4731   -0.9239 C   0  0  0  0  0  0  0  0  0  0  0  0
   -1.3097    1.1306   -1.0468 H   0  0  0  0  0  0  0  0  0  0  0  0
    0.4479    1.0941   -0.8552 H   0  0  0  0  0  0  0  0  0  0  0  0
   -0.3336   -0.4121   -2.1704 C   0  0  0  0  0  0  0  0  0  0  0  0
   -1.2349   -1.0175   -2.2616 H   0  0  0  0  0  0  0  0  0  0  0  0
   -0.2514    0.2289   -3.0489 H   0  0  0  0  0  0  0  0  0  0  0  0
    1.0924   -1.5280   -2.1416 S   0  0  0  0  0  0  0  0  0  0  0  0
    2.4333   -0.3215   -2.3091 C   0  0  0  0  0  0  0  0  0  0  0  0
    2.4061    0.3770   -1.4721 H   0  0  0  0  0  0  0  0  0  0  0  0
    3.3908   -0.8431   -2.3104 H   0  0  0  0  0  0  0  0  0  0  0  0
    2.3214    0.2252   -3.2458 H   0  0  0  0  0  0  0  0  0  0  0  0
   -0.5077    0.5726    1.6254 C   0  0  0  0  0  0  0  0  0  0  0  0
   -1.3147    1.4836    1.7986 O   0  0  0  0  0  0  0  0  0  0  0  0
    0.4896    0.3215    2.4832 N   0  0  0  0  0  0  0  0  0  0  0  0
    1.1031   -0.4521    2.2823 H   0  0  0  0  0  0  0  0  0  0  0  0
    0.7322    1.0930    3.7012 C   0  0  0  0  0  0  0  0  0  0  0  0
   -0.1558    1.0652    4.3371 H   0  0  0  0  0  0  0  0  0  0  0  0
    1.5799    0.6806    4.2500 H   0  0  0  0  0  0  0  0  0  0  0  0
    0.9398    2.1330    3.4432 H   0  0  0  0  0  0  0  0  0  0  0  0
  5  6  2  0  0  0  0
  5  7  1  0  0  0  0
  2  3  1  0  0  0  0
  2  4  1  0  0  0  0
  2  5  1  0  0  0  0
  1  2  1  0  0  0  0
 22 23  2  0  0  0  0
 22 24  1  0  0  0  0
 18 19  1  0  0  0  0
 18 20  1  0  0  0  0
 18 21  1  0  0  0  0
 17 18  1  0  0  0  0
 14 15  1  0  0  0  0
 14 16  1  0  0  0  0
 14 17  1  0  0  0  0
 11 12  1  0  0  0  0
 11 13  1  0  0  0  0
 11 14  1  0  0  0  0
  9 10  1  0  0  0  0
  9 11  1  0  0  0  0
  9 22  1  0  0  0  0
  7  8  1  0  0  0  0
  7  9  1  0  0  0  0
 26 27  1  0  0  0  0
 26 28  1  0  0  0  0
 26 29  1  0  0  0  0
 24 25  1  0  0  0  0
 24 26  1  0  0  0  0
M  END
$$$$
default_name
  -OEChem-01062215323D

 29 28  0     1  0  0  0  0  0999 V2000
   -3.5781   -3.7296    1.2702 H   0  0  0  0  0  0  0  0  0  0  0  0
   -3.5311   -2.7616    0.7732 C   0  0  0  0  0  0  0  0  0  0  0  0
   -4.2371   -2.0766    1.2382 H   0  0  0  0  0  0  0  0  0  0  0  0
   -3.7681   -2.8816   -0.2818 H   0  0  0  0  0  0  0  0  0  0  0  0
   -2.1321   -2.2086    0.9112 C   0  0  0  0  0  0  0  0  0  0  0  0
   -1.2751   -2.8426    1.5112 O   0  0  0  0  0  0  0  0  0  0  0  0
   -1.9041   -1.0186    0.3602 N   0  0  0  0  0  0  0  0  0  0  0  0
   -2.6671   -0.5416   -0.0988 H   0  0  0  0  0  0  0  0  0  0  0  0
   -0.6131   -0.3236    0.3832 C   0  0  1  0  0  0  0  0  0  0  0  0
    0.1824   -1.0687    0.4331 H   0  0  0  0  0  0  0  0  0  0  0  0
   -0.4464    0.4731   -0.9239 C   0  0  0  0  0  0  0  0  0  0  0  0
   -1.3097    1.1306   -1.0468 H   0  0  0  0  0  0  0  0  0  0  0  0
    0.4479    1.0941   -0.8552 H   0  0  0  0  0  0  0  0  0  0  0  0
   -0.3336   -0.4121   -2.1704 C   0  0  0  0  0  0  0  0  0  0  0  0
   -1.2349   -1.0175   -2.2616 H   0  0  0  0  0  0  0  0  0  0  0  0
   -0.2514    0.2289   -3.0489 H   0  0  0  0  0  0  0  0  0  0  0  0
    1.0924   -1.5280   -2.1416 S   0  0  0  0  0  0  0  0  0  0  0  0
    2.4333   -0.3215   -2.3091 C   0  0  0  0  0  0  0  0  0  0  0  0
    2.4061    0.3770   -1.4721 H   0  0  0  0  0  0  0  0  0  0  0  0
    3.3908   -0.8431   -2.3104 H   0  0  0  0  0  0  0  0  0  0  0  0
    2.3214    0.2252   -3.2458 H   0  0  0  0  0  0  0  0  0  0  0  0
   -0.5077    0.5726    1.6254 C   0  0  0  0  0  0  0  0  0  0  0  0
   -1.4504    1.2927    1.9478 O   0  0  0  0  0  0  0  0  0  0  0  0
    0.6392    0.5359    2.3158 N   0  0  0  0  0  0  0  0  0  0  0  0
    1.3621   -0.0906    1.9996 H   0  0  0  0  0  0  0  0  0  0  0  0
    0.8994    1.3391    3.5094 C   0  0  0  0  0  0  0  0  0  0  0  0
    0.1445    1.1237    4.2694 H   0  0  0  0  0  0  0  0  0  0  0  0
    1.8881    1.1138    3.9113 H   0  0  0  0  0  0  0  0  0  0  0  0
    0.8441    2.4000    3.2587 H   0  0  0  0  0  0  0  0  0  0  0  0
  5  6  2  0  0  0  0
  5  7  1  0  0  0  0
  2  3  1  0  0  0  0
  2  4  1  0  0  0  0
  2  5  1  0  0  0  0
  1  2  1  0  0  0  0
 22 23  2  0  0  0  0
 22 24  1  0  0  0  0
 18 19  1  0  0  0  0
 18 20  1  0  0  0  0
 18 21  1  0  0  0  0
 17 18  1  0  0  0  0
 14 15  1  0  0  0  0
 14 16  1  0  0  0  0
 14 17  1  0  0  0  0
 11 12  1  0  0  0  0
 11 13  1  0  0  0  0
 11 14  1  0  0  0  0
  9 10  1  0  0  0  0
  9 11  1  0  0  0  0
  9 22  1  0  0  0  0
  7  8  1  0  0  0  0
  7  9  1  0  0  0  0
 26 27  1  0  0  0  0
 26 28  1  0  0  0  0
 26 29  1  0  0  0  0
 24 25  1  0  0  0  0
 24 26  1  0  0  0  0
M  END
$$$$
default_name
  -OEChem-01062215323D

 29 28  0     1  0  0  0  0  0999 V2000
   -3.5781   -3.7296    1.2702 H   0  0  0  0  0  0  0  0  0  0  0  0
   -3.5311   -2.7616    0.7732 C   0  0  0  0  0  0  0  0  0  0  0  0
   -4.2371   -2.0766    1.2382 H   0  0  0  0  0  0  0  0  0  0  0  0
   -3.7681   -2.8816   -0.2818 H   0  0  0  0  0  0  0  0  0  0  0  0
   -2.1321   -2.2086    0.9112 C   0  0  0  0  0  0  0  0  0  0  0  0
   -1.2751   -2.8426    1.5112 O   0  0  0  0  0  0  0  0  0  0  0  0
   -1.9041   -1.0186    0.3602 N   0  0  0  0  0  0  0  0  0  0  0  0
   -2.6671   -0.5416   -0.0988 H   0  0  0  0  0  0  0  0  0  0  0  0
   -0.6131   -0.3236    0.3832 C   0  0  1  0  0  0  0  0  0  0  0  0
    0.1824   -1.0687    0.4331 H   0  0  0  0  0  0  0  0  0  0  0  0
   -0.4464    0.4731   -0.9239 C   0  0  0  0  0  0  0  0  0  0  0  0
   -1.3097    1.1306   -1.0468 H   0  0  0  0  0  0  0  0  0  0  0  0
    0.4479    1.0941   -0.8552 H   0  0  0  0  0  0  0  0  0  0  0  0
   -0.3336   -0.4121   -2.1704 C   0  0  0  0  0  0  0  0  0  0  0  0
   -1.2349   -1.0175   -2.2616 H   0  0  0  0  0  0  0  0  0  0  0  0
   -0.2514    0.2289   -3.0489 H   0  0  0  0  0  0  0  0  0  0  0  0
    1.0924   -1.5280   -2.1416 S   0  0  0  0  0  0  0  0  0  0  0  0
    2.4333   -0.3215   -2.3091 C   0  0  0  0  0  0  0  0  0  0  0  0
    2.4061    0.3770   -1.4721 H   0  0  0  0  0  0  0  0  0  0  0  0
    3.3908   -0.8431   -2.3104 H   0  0  0  0  0  0  0  0  0  0  0  0
    2.3214    0.2252   -3.2458 H   0  0  0  0  0  0  0  0  0  0  0  0
   -0.5077    0.5726    1.6254 C   0  0  0  0  0  0  0  0  0  0  0  0
   -1.5189    1.0773    2.1090 O   0  0  0  0  0  0  0  0  0  0  0  0
    0.7136    0.7773    2.1353 N   0  0  0  0  0  0  0  0  0  0  0  0
    1.4939    0.3177    1.6938 H   0  0  0  0  0  0  0  0  0  0  0  0
    0.9804    1.6153    3.3033 C   0  0  0  0  0  0  0  0  0  0  0  0
    0.4122    1.2444    4.1596 H   0  0  0  0  0  0  0  0  0  0  0  0
    2.0439    1.6027    3.5453 H   0  0  0  0  0  0  0  0  0  0  0  0
    0.6679    2.6411    3.0997 H   0  0  0  0  0  0  0  0  0  0  0  0
  5  6  2  0  0  0  0
  5  7  1  0  0  0  0
  2  3  1  0  0  0  0
  2  4  1  0  0  0  0
  2  5  1  0  0  0  0
  1  2  1  0  0  0  0
 22 23  2  0  0  0  0
 22 24  1  0  0  0  0
 18 19  1  0  0  0  0
 18 20  1  0  0  0  0
 18 21  1  0  0  0  0
 17 18  1  0  0  0  0
 14 15  1  0  0  0  0
 14 16  1  0  0  0  0
 14 17  1  0  0  0  0
 11 12  1  0  0  0  0
 11 13  1  0  0  0  0
 11 14  1  0  0  0  0
  9 10  1  0  0  0  0
  9 11  1  0  0  0  0
  9 22  1  0  0  0  0
  7  8  1  0  0  0  0
  7  9  1  0  0  0  0
 26 27  1  0  0  0  0
 26 28  1  0  0  0  0
 26 29  1  0  0  0  0
 24 25  1  0  0  0  0
 24 26  1  0  0  0  0
M  END
$$$$
default_name
  -OEChem-01062215323D

 29 28  0     1  0  0  0  0  0999 V2000
   -3.5781   -3.7296    1.2702 H   0  0  0  0  0  0  0  0  0  0  0  0
   -3.5311   -2.7616    0.7732 C   0  0  0  0  0  0  0  0  0  0  0  0
   -4.2371   -2.0766    1.2382 H   0  0  0  0  0  0  0  0  0  0  0  0
   -3.7681   -2.8816   -0.2818 H   0  0  0  0  0  0  0  0  0  0  0  0
   -2.1321   -2.2086    0.9112 C   0  0  0  0  0  0  0  0  0  0  0  0
   -1.2751   -2.8426    1.5112 O   0  0  0  0  0  0  0  0  0  0  0  0
   -1.9041   -1.0186    0.3602 N   0  0  0  0  0  0  0  0  0  0  0  0
   -2.6671   -0.5416   -0.0988 H   0  0  0  0  0  0  0  0  0  0  0  0
   -0.6131   -0.3236    0.3832 C   0  0  1  0  0  0  0  0  0  0  0  0
    0.1824   -1.0687    0.4331 H   0  0  0  0  0  0  0  0  0  0  0  0
   -0.4464    0.4731   -0.9239 C   0  0  0  0  0  0  0  0  0  0  0  0
   -1.3097    1.1306   -1.0468 H   0  0  0  0  0  0  0  0  0  0  0  0
    0.4479    1.0941   -0.8552 H   0  0  0  0  0  0  0  0  0  0  0  0
   -0.3336   -0.4121   -2.1704 C   0  0  0  0  0  0  0  0  0  0  0  0
   -1.2349   -1.0175   -2.2616 H   0  0  0  0  0  0  0  0  0  0  0  0
   -0.2514    0.2289   -3.0489 H   0  0  0  0  0  0  0  0  0  0  0  0
    1.0924   -1.5280   -2.1416 S   0  0  0  0  0  0  0  0  0  0  0  0
    2.4333   -0.3215   -2.3091 C   0  0  0  0  0  0  0  0  0  0  0  0
    2.4061    0.3770   -1.4721 H   0  0  0  0  0  0  0  0  0  0  0  0
    3.3908   -0.8431   -2.3104 H   0  0  0  0  0  0  0  0  0  0  0  0
    2.3214    0.2252   -3.2458 H   0  0  0  0  0  0  0  0  0  0  0  0
   -0.5077    0.5726    1.6254 C   0  0  0  0  0  0  0  0  0  0  0  0
   -1.5156    0.8520    2.2713 O   0  0  0  0  0  0  0  0  0  0  0  0
    0.7076    1.0292    1.9541 N   0  0  0  0  0  0  0  0  0  0  0  0
    1.4895    0.7452    1.3858 H   0  0  0  0  0  0  0  0  0  0  0  0
    0.9697    1.9027    3.0969 C   0  0  0  0  0  0  0  0  0  0  0  0
    0.6289    1.4189    4.0153 H   0  0  0  0  0  0  0  0  0  0  0  0
    2.0368    2.1142    3.1769 H   0  0  0  0  0  0  0  0  0  0  0  0
    0.4233    2.8399    2.9769 H   0  0  0  0  0  0  0  0  0  0  0  0
  5  6  2  0  0  0  0
  5  7  1  0  0  0  0
  2  3  1  0  0  0  0
  2  4  1  0  0  0  0
  2  5  1  0  0  0  0
  1  2  1  0  0  0  0
 22 23  2  0  0  0  0
 22 24  1  0  0  0  0
 18 19  1  0  0  0  0
 18 20  1  0  0  0  0
 18 21  1  0  0  0  0
 17 18  1  0  0  0  0
 14 15  1  0  0  0  0
 14 16  1  0  0  0  0
 14 17  1  0  0  0  0
 11 12  1  0  0  0  0
 11 13  1  0  0  0  0
 11 14  1  0  0  0  0
  9 10  1  0  0  0  0
  9 11  1  0  0  0  0
  9 22  1  0  0  0  0
  7  8  1  0  0  0  0
  7  9  1  0  0  0  0
 26 27  1  0  0  0  0
 26 28  1  0  0  0  0
 26 29  1  0  0  0  0
 24 25  1  0  0  0  0
 24 26  1  0  0  0  0
M  END
$$$$
default_name
  -OEChem-01062215323D

 29 28  0     1  0  0  0  0  0999 V2000
   -3.5781   -3.7296    1.2702 H   0  0  0  0  0  0  0  0  0  0  0  0
   -3.5311   -2.7616    0.7732 C   0  0  0  0  0  0  0  0  0  0  0  0
   -4.2371   -2.0766    1.2382 H   0  0  0  0  0  0  0  0  0  0  0  0
   -3.7681   -2.8816   -0.2818 H   0  0  0  0  0  0  0  0  0  0  0  0
   -2.1321   -2.2086    0.9112 C   0  0  0  0  0  0  0  0  0  0  0  0
   -1.2751   -2.8426    1.5112 O   0  0  0  0  0  0  0  0  0  0  0  0
   -1.9041   -1.0186    0.3602 N   0  0  0  0  0  0  0  0  0  0  0  0
   -2.6671   -0.5416   -0.0988 H   0  0  0  0  0  0  0  0  0  0  0  0
   -0.6131   -0.3236    0.3832 C   0  0  1  0  0  0  0  0  0  0  0  0
    0.1749   -1.0459    0.1642 H   0  0  0  0  0  0  0  0  0  0  0  0
   -0.6005    0.7526   -0.7180 C   0  0  0  0  0  0  0  0  0  0  0  0
   -1.4657    1.4049   -0.5812 H   0  0  0  0  0  0  0  0  0  0  0  0
    0.3017    1.3579   -0.6193 H   0  0  0  0  0  0  0  0  0  0  0  0
   -0.6511    0.1766   -2.1378 C   0  0  0  0  0  0  0  0  0  0  0  0
   -1.5628   -0.4086   -2.2538 H   0  0  0  0  0  0  0  0  0  0  0  0
   -0.6712    1.0021   -2.8502 H   0  0  0  0  0  0  0  0  0  0  0  0
    0.7562   -0.8903   -2.5388 S   0  0  0  0  0  0  0  0  0  0  0  0
    2.0784    0.3470   -2.5891 C   0  0  0  0  0  0  0  0  0  0  0  0
    2.1616    0.8359   -1.6181 H   0  0  0  0  0  0  0  0  0  0  0  0
    3.0231   -0.1431   -2.8264 H   0  0  0  0  0  0  0  0  0  0  0  0
    1.8576    1.0904   -3.3556 H   0  0  0  0  0  0  0  0  0  0  0  0
   -0.3464    0.2681    1.7746 C   0  0  0  0  0  0  0  0  0  0  0  0
   -1.1735    0.1275    2.6732 O   0  0  0  0  0  0  0  0  0  0  0  0
    0.8010    0.9360    1.9503 N   0  0  0  0  0  0  0  0  0  0  0  0
    1.4371    0.9970    1.1714 H   0  0  0  0  0  0  0  0  0  0  0  0
    1.1925    1.5689    3.2089 C   0  0  0  0  0  0  0  0  0  0  0  0
    1.2155    0.8210    4.0050 H   0  0  0  0  0  0  0  0  0  0  0  0
    2.1794    2.0238    3.1148 H   0  0  0  0  0  0  0  0  0  0  0  0
    0.4645    2.3365    3.4771 H   0  0  0  0  0  0  0  0  0  0  0  0
  5  6  2  0  0  0  0
  5  7  1  0  0  0  0
  2  3  1  0  0  0  0
  2  4  1  0  0  0  0
  2  5  1  0  0  0  0
  1  2  1  0  0  0  0
 22 23  2  0  0  0  0
 22 24  1  0  0  0  0
 18 19  1  0  0  0  0
 18 20  1  0  0  0  0
 18 21  1  0  0  0  0
 17 18  1  0  0  0  0
 14 15  1  0  0  0  0
 14 16  1  0  0  0  0
 14 17  1  0  0  0  0
 11 12  1  0  0  0  0
 11 13  1  0  0  0  0
 11 14  1  0  0  0  0
  9 10  1  0  0  0  0
  9 11  1  0  0  0  0
  9 22  1  0  0  0  0
  7  8  1  0  0  0  0
  7  9  1  0  0  0  0
 26 27  1  0  0  0  0
 26 28  1  0  0  0  0
 26 29  1  0  0  0  0
 24 25  1  0  0  0  0
 24 26  1  0  0  0  0
M  END
$$$$
default_name
  -OEChem-01062215323D

 29 28  0     1  0  0  0  0  0999 V2000
   -3.5781   -3.7296    1.2702 H   0  0  0  0  0  0  0  0  0  0  0  0
   -3.5311   -2.7616    0.7732 C   0  0  0  0  0  0  0  0  0  0  0  0
   -4.2371   -2.0766    1.2382 H   0  0  0  0  0  0  0  0  0  0  0  0
   -3.7681   -2.8816   -0.2818 H   0  0  0  0  0  0  0  0  0  0  0  0
   -2.1321   -2.2086    0.9112 C   0  0  0  0  0  0  0  0  0  0  0  0
   -1.2751   -2.8426    1.5112 O   0  0  0  0  0  0  0  0  0  0  0  0
   -1.9041   -1.0186    0.3602 N   0  0  0  0  0  0  0  0  0  0  0  0
   -2.6671   -0.5416   -0.0988 H   0  0  0  0  0  0  0  0  0  0  0  0
   -0.6131   -0.3236    0.3832 C   0  0  1  0  0  0  0  0  0  0  0  0
    0.1749   -1.0459    0.1642 H   0  0  0  0  0  0  0  0  0  0  0  0
   -0.6005    0.7526   -0.7180 C   0  0  0  0  0  0  0  0  0  0  0  0
   -1.4657    1.4049   -0.5812 H   0  0  0  0  0  0  0  0  0  0  0  0
    0.3017    1.3579   -0.6193 H   0  0  0  0  0  0  0  0  0  0  0  0
   -0.6511    0.1766   -2.1378 C   0  0  0  0  0  0  0  0  0  0  0  0
   -1.5628   -0.4086   -2.2538 H   0  0  0  0  0  0  0  0  0  0  0  0
   -0.6712    1.0021   -2.8502 H   0  0  0  0  0  0  0  0  0  0  0  0
    0.7562   -0.8903   -2.5388 S   0  0  0  0  0  0  0  0  0  0  0  0
    2.0784    0.3470   -2.5891 C   0  0  0  0  0  0  0  0  0  0  0  0
    2.1616    0.8359   -1.6181 H   0  0  0  0  0  0  0  0  0  0  0  0
    3.0231   -0.1431   -2.8264 H   0  0  0  0  0  0  0  0  0  0  0  0
    1.8576    1.0904   -3.3556 H   0  0  0  0  0  0  0  0  0  0  0  0
   -0.3464    0.2681    1.7746 C   0  0  0  0  0  0  0  0  0  0  0  0
   -1.0191   -0.0940    2.7378 O   0  0  0  0  0  0  0  0  0  0  0  0
    0.6264    1.1825    1.8789 N   0  0  0  0  0  0  0  0  0  0  0  0
    1.1455    1.4182    1.0482 H   0  0  0  0  0  0  0  0  0  0  0  0
    0.9902    1.8482    3.1288 C   0  0  0  0  0  0  0  0  0  0  0  0
    1.2699    1.1011    3.8754 H   0  0  0  0  0  0  0  0  0  0  0  0
    1.8290    2.5268    2.9680 H   0  0  0  0  0  0  0  0  0  0  0  0
    0.1361    2.4123    3.5078 H   0  0  0  0  0  0  0  0  0  0  0  0
  5  6  2  0  0  0  0
  5  7  1  0  0  0  0
  2  3  1  0  0  0  0
  2  4  1  0  0  0  0
  2  5  1  0  0  0  0
  1  2  1  0  0  0  0
 22 23  2  0  0  0  0
 22 24  1  0  0  0  0
 18 19  1  0  0  0  0
 18 20  1  0  0  0  0
 18 21  1  0  0  0  0
 17 18  1  0  0  0  0
 14 15  1  0  0  0  0
 14 16  1  0  0  0  0
 14 17  1  0  0  0  0
 11 12  1  0  0  0  0
 11 13  1  0  0  0  0
 11 14  1  0  0  0  0
  9 10  1  0  0  0  0
  9 11  1  0  0  0  0
  9 22  1  0  0  0  0
  7  8  1  0  0  0  0
  7  9  1  0  0  0  0
 26 27  1  0  0  0  0
 26 28  1  0  0  0  0
 26 29  1  0  0  0  0
 24 25  1  0  0  0  0
 24 26  1  0  0  0  0
M  END
$$$$
default_name
  -OEChem-01062215323D

 29 28  0     1  0  0  0  0  0999 V2000
   -3.5781   -3.7296    1.2702 H   0  0  0  0  0  0  0  0  0  0  0  0
   -3.5311   -2.7616    0.7732 C   0  0  0  0  0  0  0  0  0  0  0  0
   -4.2371   -2.0766    1.2382 H   0  0  0  0  0  0  0  0  0  0  0  0
   -3.7681   -2.8816   -0.2818 H   0  0  0  0  0  0  0  0  0  0  0  0
   -2.1321   -2.2086    0.9112 C   0  0  0  0  0  0  0  0  0  0  0  0
   -1.2751   -2.8426    1.5112 O   0  0  0  0  0  0  0  0  0  0  0  0
   -1.9041   -1.0186    0.3602 N   0  0  0  0  0  0  0  0  0  0  0  0
   -2.6671   -0.5416   -0.0988 H   0  0  0  0  0  0  0  0  0  0  0  0
   -0.6131   -0.3236    0.3832 C   0  0  1  0  0  0  0  0  0  0  0  0
    0.1749   -1.0459    0.1642 H   0  0  0  0  0  0  0  0  0  0  0  0
   -0.6005    0.7526   -0.7180 C   0  0  0  0  0  0  0  0  0  0  0  0
   -1.4657    1.4049   -0.5812 H   0  0  0  0  0  0  0  0  0  0  0  0
    0.3017    1.3579   -0.6193 H   0  0  0  0  0  0  0  0  0  0  0  0
   -0.6511    0.1766   -2.1378 C   0  0  0  0  0  0  0  0  0  0  0  0
   -1.5628   -0.4086   -2.2538 H   0  0  0  0  0  0  0  0  0  0  0  0
   -0.6712    1.0021   -2.8502 H   0  0  0  0  0  0  0  0  0  0  0  0
    0.7562   -0.8903   -2.5388 S   0  0  0  0  0  0  0  0  0  0  0  0
    2.0784    0.3470   -2.5891 C   0  0  0  0  0  0  0  0  0  0  0  0
    2.1616    0.8359   -1.6181 H   0  0  0  0  0  0  0  0  0  0  0  0
    3.0231   -0.1431   -2.8264 H   0  0  0  0  0  0  0  0  0  0  0  0
    1.8576    1.0904   -3.3556 H   0  0  0  0  0  0  0  0  0  0  0  0
   -0.3464    0.2681    1.7746 C   0  0  0  0  0  0  0  0  0  0  0  0
   -0.8115   -0.2747    2.7748 O   0  0  0  0  0  0  0  0  0  0  0  0
    0.3928    1.3830    1.8385 N   0  0  0  0  0  0  0  0  0  0  0  0
    0.7527    1.7622    0.9772 H   0  0  0  0  0  0  0  0  0  0  0  0
    0.7214    2.0742    3.0843 C   0  0  0  0  0  0  0  0  0  0  0  0
    1.2438    1.3904    3.7574 H   0  0  0  0  0  0  0  0  0  0  0  0
    1.3579    2.9370    2.8838 H   0  0  0  0  0  0  0  0  0  0  0  0
   -0.1957    2.4071    3.5736 H   0  0  0  0  0  0  0  0  0  0  0  0
  5  6  2  0  0  0  0
  5  7  1  0  0  0  0
  2  3  1  0  0  0  0
  2  4  1  0  0  0  0
  2  5  1  0  0  0  0
  1  2  1  0  0  0  0
 22 23  2  0  0  0  0
 22 24  1  0  0  0  0
 18 19  1  0  0  0  0
 18 20  1  0  0  0  0
 18 21  1  0  0  0  0
 17 18  1  0  0  0  0
 14 15  1  0  0  0  0
 14 16  1  0  0  0  0
 14 17  1  0  0  0  0
 11 12  1  0  0  0  0
 11 13  1  0  0  0  0
 11 14  1  0  0  0  0
  9 10  1  0  0  0  0
  9 11  1  0  0  0  0
  9 22  1  0  0  0  0
  7  8  1  0  0  0  0
  7  9  1  0  0  0  0
 26 27  1  0  0  0  0
 26 28  1  0  0  0  0
 26 29  1  0  0  0  0
 24 25  1  0  0  0  0
 24 26  1  0  0  0  0
M  END
$$$$
default_name
  -OEChem-01062215323D

 29 28  0     1  0  0  0  0  0999 V2000
   -3.5781   -3.7296    1.2702 H   0  0  0  0  0  0  0  0  0  0  0  0
   -3.5311   -2.7616    0.7732 C   0  0  0  0  0  0  0  0  0  0  0  0
   -4.2371   -2.0766    1.2382 H   0  0  0  0  0  0  0  0  0  0  0  0
   -3.7681   -2.8816   -0.2818 H   0  0  0  0  0  0  0  0  0  0  0  0
   -2.1321   -2.2086    0.9112 C   0  0  0  0  0  0  0  0  0  0  0  0
   -1.2751   -2.8426    1.5112 O   0  0  0  0  0  0  0  0  0  0  0  0
   -1.9041   -1.0186    0.3602 N   0  0  0  0  0  0  0  0  0  0  0  0
   -2.6671   -0.5416   -0.0988 H   0  0  0  0  0  0  0  0  0  0  0  0
   -0.6131   -0.3236    0.3832 C   0  0  1  0  0  0  0  0  0  0  0  0
    0.1749   -1.0459    0.1642 H   0  0  0  0  0  0  0  0  0  0  0  0
   -0.6005    0.7526   -0.7180 C   0  0  0  0  0  0  0  0  0  0  0  0
   -1.4657    1.4049   -0.5812 H   0  0  0  0  0  0  0  0  0  0  0  0
    0.3017    1.3579   -0.6193 H   0  0  0  0  0  0  0  0  0  0  0  0
   -0.6511    0.1766   -2.1378 C   0  0  0  0  0  0  0  0  0  0  0  0
   -1.5628   -0.4086   -2.2538 H   0  0  0  0  0  0  0  0  0  0  0  0
   -0.6712    1.0021   -2.8502 H   0  0  0  0  0  0  0  0  0  0  0  0
    0.7562   -0.8903   -2.5388 S   0  0  0  0  0  0  0  0  0  0  0  0
    2.0784    0.3470   -2.5891 C   0  0  0  0  0  0  0  0  0  0  0  0
    2.1616    0.8359   -1.6181 H   0  0  0  0  0  0  0  0  0  0  0  0
    3.0231   -0.1431   -2.8264 H   0  0  0  0  0  0  0  0  0  0  0  0
    1.8576    1.0904   -3.3556 H   0  0  0  0  0  0  0  0  0  0  0  0
   -0.3464    0.2681    1.7746 C   0  0  0  0  0  0  0  0  0  0  0  0
   -0.5649   -0.4021    2.7817 O   0  0  0  0  0  0  0  0  0  0  0  0
    0.1161    1.5236    1.8317 N   0  0  0  0  0  0  0  0  0  0  0  0
    0.2855    2.0055    0.9632 H   0  0  0  0  0  0  0  0  0  0  0  0
    0.4042    2.2314    3.0782 C   0  0  0  0  0  0  0  0  0  0  0  0
    1.1390    1.6689    3.6591 H   0  0  0  0  0  0  0  0  0  0  0  0
    0.7982    3.2266    2.8679 H   0  0  0  0  0  0  0  0  0  0  0  0
   -0.5084    2.3213    3.6700 H   0  0  0  0  0  0  0  0  0  0  0  0
  5  6  2  0  0  0  0
  5  7  1  0  0  0  0
  2  3  1  0  0  0  0
  2  4  1  0  0  0  0
  2  5  1  0  0  0  0
  1  2  1  0  0  0  0
 22 23  2  0  0  0  0
 22 24  1  0  0  0  0
 18 19  1  0  0  0  0
 18 20  1  0  0  0  0
 18 21  1  0  0  0  0
 17 18  1  0  0  0  0
 14 15  1  0  0  0  0
 14 16  1  0  0  0  0
 14 17  1  0  0  0  0
 11 12  1  0  0  0  0
 11 13  1  0  0  0  0
 11 14  1  0  0  0  0
  9 10  1  0  0  0  0
  9 11  1  0  0  0  0
  9 22  1  0  0  0  0
  7  8  1  0  0  0  0
  7  9  1  0  0  0  0
 26 27  1  0  0  0  0
 26 28  1  0  0  0  0
 26 29  1  0  0  0  0
 24 25  1  0  0  0  0
 24 26  1  0  0  0  0
M  END
$$$$
default_name
  -OEChem-01062215323D

 29 28  0     1  0  0  0  0  0999 V2000
   -3.5781   -3.7296    1.2702 H   0  0  0  0  0  0  0  0  0  0  0  0
   -3.5311   -2.7616    0.7732 C   0  0  0  0  0  0  0  0  0  0  0  0
   -4.2371   -2.0766    1.2382 H   0  0  0  0  0  0  0  0  0  0  0  0
   -3.7681   -2.8816   -0.2818 H   0  0  0  0  0  0  0  0  0  0  0  0
   -2.1321   -2.2086    0.9112 C   0  0  0  0  0  0  0  0  0  0  0  0
   -1.2751   -2.8426    1.5112 O   0  0  0  0  0  0  0  0  0  0  0  0
   -1.9041   -1.0186    0.3602 N   0  0  0  0  0  0  0  0  0  0  0  0
   -2.6671   -0.5416   -0.0988 H   0  0  0  0  0  0  0  0  0  0  0  0
   -0.6131   -0.3236    0.3832 C   0  0  1  0  0  0  0  0  0  0  0  0
    0.1749   -1.0459    0.1642 H   0  0  0  0  0  0  0  0  0  0  0  0
   -0.6005    0.7526   -0.7180 C   0  0  0  0  0  0  0  0  0  0  0  0
   -1.4657    1.4049   -0.5812 H   0  0  0  0  0  0  0  0  0  0  0  0
    0.3017    1.3579   -0.6193 H   0  0  0  0  0  0  0  0  0  0  0  0
   -0.6511    0.1766   -2.1378 C   0  0  0  0  0  0  0  0  0  0  0  0
   -1.5628   -0.4086   -2.2538 H   0  0  0  0  0  0  0  0  0  0  0  0
   -0.6712    1.0021   -2.8502 H   0  0  0  0  0  0  0  0  0  0  0  0
    0.7562   -0.8903   -2.5388 S   0  0  0  0  0  0  0  0  0  0  0  0
    2.0784    0.3470   -2.5891 C   0  0  0  0  0  0  0  0  0  0  0  0
    2.1616    0.8359   -1.6181 H   0  0  0  0  0  0  0  0  0  0  0  0
    3.0231   -0.1431   -2.8264 H   0  0  0  0  0  0  0  0  0  0  0  0
    1.8576    1.0904   -3.3556 H   0  0  0  0  0  0  0  0  0  0  0  0
   -0.3464    0.2681    1.7746 C   0  0  0  0  0  0  0  0  0  0  0  0
   -0.2962   -0.4677    2.7581 O   0  0  0  0  0  0  0  0  0  0  0  0
   -0.1848    1.5948    1.8591 N   0  0  0  0  0  0  0  0  0  0  0  0
   -0.2242    2.1316    1.0073 H   0  0  0  0  0  0  0  0  0  0  0  0
    0.0604    2.3091    3.1110 C   0  0  0  0  0  0  0  0  0  0  0  0
    0.9626    1.9178    3.5870 H   0  0  0  0  0  0  0  0  0  0  0  0
    0.1881    3.3757    2.9214 H   0  0  0  0  0  0  0  0  0  0  0  0
   -0.7808    2.1607    3.7905 H   0  0  0  0  0  0  0  0  0  0  0  0
  5  6  2  0  0  0  0
  5  7  1  0  0  0  0
  2  3  1  0  0  0  0
  2  4  1  0  0  0  0
  2  5  1  0  0  0  0
  1  2  1  0  0  0  0
 22 23  2  0  0  0  0
 22 24  1  0  0  0  0
 18 19  1  0  0  0  0
 18 20  1  0  0  0  0
 18 21  1  0  0  0  0
 17 18  1  0  0  0  0
 14 15  1  0  0  0  0
 14 16  1  0  0  0  0
 14 17  1  0  0  0  0
 11 12  1  0  0  0  0
 11 13  1  0  0  0  0
 11 14  1  0  0  0  0
  9 10  1  0  0  0  0
  9 11  1  0  0  0  0
  9 22  1  0  0  0  0
  7  8  1  0  0  0  0
  7  9  1  0  0  0  0
 26 27  1  0  0  0  0
 26 28  1  0  0  0  0
 26 29  1  0  0  0  0
 24 25  1  0  0  0  0
 24 26  1  0  0  0  0
M  END
$$$$
default_name
  -OEChem-01062215323D

 29 28  0     1  0  0  0  0  0999 V2000
   -3.5781   -3.7296    1.2702 H   0  0  0  0  0  0  0  0  0  0  0  0
   -3.5311   -2.7616    0.7732 C   0  0  0  0  0  0  0  0  0  0  0  0
   -4.2371   -2.0766    1.2382 H   0  0  0  0  0  0  0  0  0  0  0  0
   -3.7681   -2.8816   -0.2818 H   0  0  0  0  0  0  0  0  0  0  0  0
   -2.1321   -2.2086    0.9112 C   0  0  0  0  0  0  0  0  0  0  0  0
   -1.2751   -2.8426    1.5112 O   0  0  0  0  0  0  0  0  0  0  0  0
   -1.9041   -1.0186    0.3602 N   0  0  0  0  0  0  0  0  0  0  0  0
   -2.6671   -0.5416   -0.0988 H   0  0  0  0  0  0  0  0  0  0  0  0
   -0.6131   -0.3236    0.3832 C   0  0  1  0  0  0  0  0  0  0  0  0
    0.1749   -1.0459    0.1642 H   0  0  0  0  0  0  0  0  0  0  0  0
   -0.6005    0.7526   -0.7180 C   0  0  0  0  0  0  0  0  0  0  0  0
   -1.4657    1.4049   -0.5812 H   0  0  0  0  0  0  0  0  0  0  0  0
    0.3017    1.3579   -0.6193 H   0  0  0  0  0  0  0  0  0  0  0  0
   -0.6511    0.1766   -2.1378 C   0  0  0  0  0  0  0  0  0  0  0  0
   -1.5628   -0.4086   -2.2538 H   0  0  0  0  0  0  0  0  0  0  0  0
   -0.6712    1.0021   -2.8502 H   0  0  0  0  0  0  0  0  0  0  0  0
    0.7562   -0.8903   -2.5388 S   0  0  0  0  0  0  0  0  0  0  0  0
    2.0784    0.3470   -2.5891 C   0  0  0  0  0  0  0  0  0  0  0  0
    2.1616    0.8359   -1.6181 H   0  0  0  0  0  0  0  0  0  0  0  0
    3.0231   -0.1431   -2.8264 H   0  0  0  0  0  0  0  0  0  0  0  0
    1.8576    1.0904   -3.3556 H   0  0  0  0  0  0  0  0  0  0  0  0
   -0.3464    0.2681    1.7746 C   0  0  0  0  0  0  0  0  0  0  0  0
   -0.0235   -0.4669    2.7056 O   0  0  0  0  0  0  0  0  0  0  0  0
   -0.4894    1.5918    1.9187 N   0  0  0  0  0  0  0  0  0  0  0  0
   -0.7417    2.1318    1.1064 H   0  0  0  0  0  0  0  0  0  0  0  0
   -0.2867    2.3021    3.1805 C   0  0  0  0  0  0  0  0  0  0  0  0
    0.7266    2.1201    3.5462 H   0  0  0  0  0  0  0  0  0  0  0  0
   -0.4309    3.3742    3.0407 H   0  0  0  0  0  0  0  0  0  0  0  0
   -0.9942    1.9363    3.9268 H   0  0  0  0  0  0  0  0  0  0  0  0
  5  6  2  0  0  0  0
  5  7  1  0  0  0  0
  2  3  1  0  0  0  0
  2  4  1  0  0  0  0
  2  5  1  0  0  0  0
  1  2  1  0  0  0  0
 22 23  2  0  0  0  0
 22 24  1  0  0  0  0
 18 19  1  0  0  0  0
 18 20  1  0  0  0  0
 18 21  1  0  0  0  0
 17 18  1  0  0  0  0
 14 15  1  0  0  0  0
 14 16  1  0  0  0  0
 14 17  1  0  0  0  0
 11 12  1  0  0  0  0
 11 13  1  0  0  0  0
 11 14  1  0  0  0  0
  9 10  1  0  0  0  0
  9 11  1  0  0  0  0
  9 22  1  0  0  0  0
  7  8  1  0  0  0  0
  7  9  1  0  0  0  0
 26 27  1  0  0  0  0
 26 28  1  0  0  0  0
 26 29  1  0  0  0  0
 24 25  1  0  0  0  0
 24 26  1  0  0  0  0
M  END
$$$$
default_name
  -OEChem-01062215323D

 29 28  0     1  0  0  0  0  0999 V2000
   -3.5781   -3.7296    1.2702 H   0  0  0  0  0  0  0  0  0  0  0  0
   -3.5311   -2.7616    0.7732 C   0  0  0  0  0  0  0  0  0  0  0  0
   -4.2371   -2.0766    1.2382 H   0  0  0  0  0  0  0  0  0  0  0  0
   -3.7681   -2.8816   -0.2818 H   0  0  0  0  0  0  0  0  0  0  0  0
   -2.1321   -2.2086    0.9112 C   0  0  0  0  0  0  0  0  0  0  0  0
   -1.2751   -2.8426    1.5112 O   0  0  0  0  0  0  0  0  0  0  0  0
   -1.9041   -1.0186    0.3602 N   0  0  0  0  0  0  0  0  0  0  0  0
   -2.6671   -0.5416   -0.0988 H   0  0  0  0  0  0  0  0  0  0  0  0
   -0.6131   -0.3236    0.3832 C   0  0  1  0  0  0  0  0  0  0  0  0
    0.1749   -1.0459    0.1642 H   0  0  0  0  0  0  0  0  0  0  0  0
   -0.6005    0.7526   -0.7180 C   0  0  0  0  0  0  0  0  0  0  0  0
   -1.4657    1.4049   -0.5812 H   0  0  0  0  0  0  0  0  0  0  0  0
    0.3017    1.3579   -0.6193 H   0  0  0  0  0  0  0  0  0  0  0  0
   -0.6511    0.1766   -2.1378 C   0  0  0  0  0  0  0  0  0  0  0  0
   -1.5628   -0.4086   -2.2538 H   0  0  0  0  0  0  0  0  0  0  0  0
   -0.6712    1.0021   -2.8502 H   0  0  0  0  0  0  0  0  0  0  0  0
    0.7562   -0.8903   -2.5388 S   0  0  0  0  0  0  0  0  0  0  0  0
    2.0784    0.3470   -2.5891 C   0  0  0  0  0  0  0  0  0  0  0  0
    2.1616    0.8359   -1.6181 H   0  0  0  0  0  0  0  0  0  0  0  0
    3.0231   -0.1431   -2.8264 H   0  0  0  0  0  0  0  0  0  0  0  0
    1.8576    1.0904   -3.3556 H   0  0  0  0  0  0  0  0  0  0  0  0
   -0.3464    0.2681    1.7746 C   0  0  0  0  0  0  0  0  0  0  0  0
    0.2344   -0.3999    2.6276 O   0  0  0  0  0  0  0  0  0  0  0  0
   -0.7770    1.5148    2.0066 N   0  0  0  0  0  0  0  0  0  0  0  0
   -1.2318    2.0062    1.2537 H   0  0  0  0  0  0  0  0  0  0  0  0
   -0.6133    2.2108    3.2819 C   0  0  0  0  0  0  0  0  0  0  0  0
    0.4472    2.2619    3.5394 H   0  0  0  0  0  0  0  0  0  0  0  0
   -1.0165    3.2223    3.2175 H   0  0  0  0  0  0  0  0  0  0  0  0
   -1.1340    1.6634    4.0697 H   0  0  0  0  0  0  0  0  0  0  0  0
  5  6  2  0  0  0  0
  5  7  1  0  0  0  0
  2  3  1  0  0  0  0
  2  4  1  0  0  0  0
  2  5  1  0  0  0  0
  1  2  1  0  0  0  0
 22 23  2  0  0  0  0
 22 24  1  0  0  0  0
 18 19  1  0  0  0  0
 18 20  1  0  0  0  0
 18 21  1  0  0  0  0
 17 18  1  0  0  0  0
 14 15  1  0  0  0  0
 14 16  1  0  0  0  0
 14 17  1  0  0  0  0
 11 12  1  0  0  0  0
 11 13  1  0  0  0  0
 11 14  1  0  0  0  0
  9 10  1  0  0  0  0
  9 11  1  0  0  0  0
  9 22  1  0  0  0  0
  7  8  1  0  0  0  0
  7  9  1  0  0  0  0
 26 27  1  0  0  0  0
 26 28  1  0  0  0  0
 26 29  1  0  0  0  0
 24 25  1  0  0  0  0
 24 26  1  0  0  0  0
M  END
$$$$
default_name
  -OEChem-01062215323D

 29 28  0     1  0  0  0  0  0999 V2000
   -3.5781   -3.7296    1.2702 H   0  0  0  0  0  0  0  0  0  0  0  0
   -3.5311   -2.7616    0.7732 C   0  0  0  0  0  0  0  0  0  0  0  0
   -4.2371   -2.0766    1.2382 H   0  0  0  0  0  0  0  0  0  0  0  0
   -3.7681   -2.8816   -0.2818 H   0  0  0  0  0  0  0  0  0  0  0  0
   -2.1321   -2.2086    0.9112 C   0  0  0  0  0  0  0  0  0  0  0  0
   -1.2751   -2.8426    1.5112 O   0  0  0  0  0  0  0  0  0  0  0  0
   -1.9041   -1.0186    0.3602 N   0  0  0  0  0  0  0  0  0  0  0  0
   -2.6671   -0.5416   -0.0988 H   0  0  0  0  0  0  0  0  0  0  0  0
   -0.6131   -0.3236    0.3832 C   0  0  1  0  0  0  0  0  0  0  0  0
    0.1749   -1.0459    0.1642 H   0  0  0  0  0  0  0  0  0  0  0  0
   -0.6005    0.7526   -0.7180 C   0  0  0  0  0  0  0  0  0  0  0  0
   -1.4657    1.4049   -0.5812 H   0  0  0  0  0  0  0  0  0  0  0  0
    0.3017    1.3579   -0.6193 H   0  0  0  0  0  0  0  0  0  0  0  0
   -0.6511    0.1766   -2.1378 C   0  0  0  0  0  0  0  0  0  0  0  0
   -1.5628   -0.4086   -2.2538 H   0  0  0  0  0  0  0  0  0  0  0  0
   -0.6712    1.0021   -2.8502 H   0  0  0  0  0  0  0  0  0  0  0  0
    0.7562   -0.8903   -2.5388 S   0  0  0  0  0  0  0  0  0  0  0  0
    2.0784    0.3470   -2.5891 C   0  0  0  0  0  0  0  0  0  0  0  0
    2.1616    0.8359   -1.6181 H   0  0  0  0  0  0  0  0  0  0  0  0
    3.0231   -0.1431   -2.8264 H   0  0  0  0  0  0  0  0  0  0  0  0
    1.8576    1.0904   -3.3556 H   0  0  0  0  0  0  0  0  0  0  0  0
   -0.3464    0.2681    1.7746 C   0  0  0  0  0  0  0  0  0  0  0  0
    0.4600   -0.2712    2.5297 O   0  0  0  0  0  0  0  0  0  0  0  0
   -1.0280    1.3690    2.1167 N   0  0  0  0  0  0  0  0  0  0  0  0
   -1.6610    1.7633    1.4392 H   0  0  0  0  0  0  0  0  0  0  0  0
   -0.8973    2.0414    3.4084 C   0  0  0  0  0  0  0  0  0  0  0  0
    0.1433    2.3337    3.5671 H   0  0  0  0  0  0  0  0  0  0  0  0
   -1.5289    2.9302    3.4399 H   0  0  0  0  0  0  0  0  0  0  0  0
   -1.1909    1.3605    4.2093 H   0  0  0  0  0  0  0  0  0  0  0  0
  5  6  2  0  0  0  0
  5  7  1  0  0  0  0
  2  3  1  0  0  0  0
  2  4  1  0  0  0  0
  2  5  1  0  0  0  0
  1  2  1  0  0  0  0
 22 23  2  0  0  0  0
 22 24  1  0  0  0  0
 18 19  1  0  0  0  0
 18 20  1  0  0  0  0
 18 21  1  0  0  0  0
 17 18  1  0  0  0  0
 14 15  1  0  0  0  0
 14 16  1  0  0  0  0
 14 17  1  0  0  0  0
 11 12  1  0  0  0  0
 11 13  1  0  0  0  0
 11 14  1  0  0  0  0
  9 10  1  0  0  0  0
  9 11  1  0  0  0  0
  9 22  1  0  0  0  0
  7  8  1  0  0  0  0
  7  9  1  0  0  0  0
 26 27  1  0  0  0  0
 26 28  1  0  0  0  0
 26 29  1  0  0  0  0
 24 25  1  0  0  0  0
 24 26  1  0  0  0  0
M  END
$$$$
default_name
  -OEChem-01062215323D

 29 28  0     1  0  0  0  0  0999 V2000
   -3.5781   -3.7296    1.2702 H   0  0  0  0  0  0  0  0  0  0  0  0
   -3.5311   -2.7616    0.7732 C   0  0  0  0  0  0  0  0  0  0  0  0
   -4.2371   -2.0766    1.2382 H   0  0  0  0  0  0  0  0  0  0  0  0
   -3.7681   -2.8816   -0.2818 H   0  0  0  0  0  0  0  0  0  0  0  0
   -2.1321   -2.2086    0.9112 C   0  0  0  0  0  0  0  0  0  0  0  0
   -1.2751   -2.8426    1.5112 O   0  0  0  0  0  0  0  0  0  0  0  0
   -1.9041   -1.0186    0.3602 N   0  0  0  0  0  0  0  0  0  0  0  0
   -2.6671   -0.5416   -0.0988 H   0  0  0  0  0  0  0  0  0  0  0  0
   -0.6131   -0.3236    0.3832 C   0  0  1  0  0  0  0  0  0  0  0  0
    0.1749   -1.0459    0.1642 H   0  0  0  0  0  0  0  0  0  0  0  0
   -0.6005    0.7526   -0.7180 C   0  0  0  0  0  0  0  0  0  0  0  0
   -1.4657    1.4049   -0.5812 H   0  0  0  0  0  0  0  0  0  0  0  0
    0.3017    1.3579   -0.6193 H   0  0  0  0  0  0  0  0  0  0  0  0
   -0.6511    0.1766   -2.1378 C   0  0  0  0  0  0  0  0  0  0  0  0
   -1.5628   -0.4086   -2.2538 H   0  0  0  0  0  0  0  0  0  0  0  0
   -0.6712    1.0021   -2.8502 H   0  0  0  0  0  0  0  0  0  0  0  0
    0.7562   -0.8903   -2.5388 S   0  0  0  0  0  0  0  0  0  0  0  0
    2.0784    0.3470   -2.5891 C   0  0  0  0  0  0  0  0  0  0  0  0
    2.1616    0.8359   -1.6181 H   0  0  0  0  0  0  0  0  0  0  0  0
    3.0231   -0.1431   -2.8264 H   0  0  0  0  0  0  0  0  0  0  0  0
    1.8576    1.0904   -3.3556 H   0  0  0  0  0  0  0  0  0  0  0  0
   -0.3464    0.2681    1.7746 C   0  0  0  0  0  0  0  0  0  0  0  0
    0.6380   -0.0895    2.4183 O   0  0  0  0  0  0  0  0  0  0  0  0
   -1.2252    1.1643    2.2415 N   0  0  0  0  0  0  0  0  0  0  0  0
   -2.0001    1.4197    1.6504 H   0  0  0  0  0  0  0  0  0  0  0  0
   -1.1193    1.8055    3.5512 C   0  0  0  0  0  0  0  0  0  0  0  0
   -0.1642    2.3305    3.6274 H   0  0  0  0  0  0  0  0  0  0  0  0
   -1.9331    2.5179    3.6927 H   0  0  0  0  0  0  0  0  0  0  0  0
   -1.1608    1.0484    4.3363 H   0  0  0  0  0  0  0  0  0  0  0  0
  5  6  2  0  0  0  0
  5  7  1  0  0  0  0
  2  3  1  0  0  0  0
  2  4  1  0  0  0  0
  2  5  1  0  0  0  0
  1  2  1  0  0  0  0
 22 23  2  0  0  0  0
 22 24  1  0  0  0  0
 18 19  1  0  0  0  0
 18 20  1  0  0  0  0
 18 21  1  0  0  0  0
 17 18  1  0  0  0  0
 14 15  1  0  0  0  0
 14 16  1  0  0  0  0
 14 17  1  0  0  0  0
 11 12  1  0  0  0  0
 11 13  1  0  0  0  0
 11 14  1  0  0  0  0
  9 10  1  0  0  0  0
  9 11  1  0  0  0  0
  9 22  1  0  0  0  0
  7  8  1  0  0  0  0
  7  9  1  0  0  0  0
 26 27  1  0  0  0  0
 26 28  1  0  0  0  0
 26 29  1  0  0  0  0
 24 25  1  0  0  0  0
 24 26  1  0  0  0  0
M  END
$$$$
default_name
  -OEChem-01062215323D

 29 28  0     1  0  0  0  0  0999 V2000
   -3.5781   -3.7296    1.2702 H   0  0  0  0  0  0  0  0  0  0  0  0
   -3.5311   -2.7616    0.7732 C   0  0  0  0  0  0  0  0  0  0  0  0
   -4.2371   -2.0766    1.2382 H   0  0  0  0  0  0  0  0  0  0  0  0
   -3.7681   -2.8816   -0.2818 H   0  0  0  0  0  0  0  0  0  0  0  0
   -2.1321   -2.2086    0.9112 C   0  0  0  0  0  0  0  0  0  0  0  0
   -1.2751   -2.8426    1.5112 O   0  0  0  0  0  0  0  0  0  0  0  0
   -1.9041   -1.0186    0.3602 N   0  0  0  0  0  0  0  0  0  0  0  0
   -2.6671   -0.5416   -0.0988 H   0  0  0  0  0  0  0  0  0  0  0  0
   -0.6131   -0.3236    0.3832 C   0  0  1  0  0  0  0  0  0  0  0  0
    0.1749   -1.0459    0.1642 H   0  0  0  0  0  0  0  0  0  0  0  0
   -0.6005    0.7526   -0.7180 C   0  0  0  0  0  0  0  0  0  0  0  0
   -1.4657    1.4049   -0.5812 H   0  0  0  0  0  0  0  0  0  0  0  0
    0.3017    1.3579   -0.6193 H   0  0  0  0  0  0  0  0  0  0  0  0
   -0.6511    0.1766   -2.1378 C   0  0  0  0  0  0  0  0  0  0  0  0
   -1.5628   -0.4086   -2.2538 H   0  0  0  0  0  0  0  0  0  0  0  0
   -0.6712    1.0021   -2.8502 H   0  0  0  0  0  0  0  0  0  0  0  0
    0.7562   -0.8903   -2.5388 S   0  0  0  0  0  0  0  0  0  0  0  0
    2.0784    0.3470   -2.5891 C   0  0  0  0  0  0  0  0  0  0  0  0
    2.1616    0.8359   -1.6181 H   0  0  0  0  0  0  0  0  0  0  0  0
    3.0231   -0.1431   -2.8264 H   0  0  0  0  0  0  0  0  0  0  0  0
    1.8576    1.0904   -3.3556 H   0  0  0  0  0  0  0  0  0  0  0  0
   -0.3464    0.2681    1.7746 C   0  0  0  0  0  0  0  0  0  0  0  0
    0.7561    0.1328    2.3011 O   0  0  0  0  0  0  0  0  0  0  0  0
   -1.3553    0.9147    2.3725 N   0  0  0  0  0  0  0  0  0  0  0  0
   -2.2260    0.9987    1.8726 H   0  0  0  0  0  0  0  0  0  0  0  0
   -1.2641    1.5191    3.7008 C   0  0  0  0  0  0  0  0  0  0  0  0
   -0.4546    2.2526    3.7162 H   0  0  0  0  0  0  0  0  0  0  0  0
   -2.2017    2.0134    3.9587 H   0  0  0  0  0  0  0  0  0  0  0  0
   -1.0459    0.7482    4.4419 H   0  0  0  0  0  0  0  0  0  0  0  0
  5  6  2  0  0  0  0
  5  7  1  0  0  0  0
  2  3  1  0  0  0  0
  2  4  1  0  0  0  0
  2  5  1  0  0  0  0
  1  2  1  0  0  0  0
 22 23  2  0  0  0  0
 22 24  1  0  0  0  0
 18 19  1  0  0  0  0
 18 20  1  0  0  0  0
 18 21  1  0  0  0  0
 17 18  1  0  0  0  0
 14 15  1  0  0  0  0
 14 16  1  0  0  0  0
 14 17  1  0  0  0  0
 11 12  1  0  0  0  0
 11 13  1  0  0  0  0
 11 14  1  0  0  0  0
  9 10  1  0  0  0  0
  9 11  1  0  0  0  0
  9 22  1  0  0  0  0
  7  8  1  0  0  0  0
  7  9  1  0  0  0  0
 26 27  1  0  0  0  0
 26 28  1  0  0  0  0
 26 29  1  0  0  0  0
 24 25  1  0  0  0  0
 24 26  1  0  0  0  0
M  END
$$$$
default_name
  -OEChem-01062215323D

 29 28  0     1  0  0  0  0  0999 V2000
   -3.5781   -3.7296    1.2702 H   0  0  0  0  0  0  0  0  0  0  0  0
   -3.5311   -2.7616    0.7732 C   0  0  0  0  0  0  0  0  0  0  0  0
   -4.2371   -2.0766    1.2382 H   0  0  0  0  0  0  0  0  0  0  0  0
   -3.7681   -2.8816   -0.2818 H   0  0  0  0  0  0  0  0  0  0  0  0
   -2.1321   -2.2086    0.9112 C   0  0  0  0  0  0  0  0  0  0  0  0
   -1.2751   -2.8426    1.5112 O   0  0  0  0  0  0  0  0  0  0  0  0
   -1.9041   -1.0186    0.3602 N   0  0  0  0  0  0  0  0  0  0  0  0
   -2.6671   -0.5416   -0.0988 H   0  0  0  0  0  0  0  0  0  0  0  0
   -0.6131   -0.3236    0.3832 C   0  0  1  0  0  0  0  0  0  0  0  0
    0.1749   -1.0459    0.1642 H   0  0  0  0  0  0  0  0  0  0  0  0
   -0.6005    0.7526   -0.7180 C   0  0  0  0  0  0  0  0  0  0  0  0
   -1.4657    1.4049   -0.5812 H   0  0  0  0  0  0  0  0  0  0  0  0
    0.3017    1.3579   -0.6193 H   0  0  0  0  0  0  0  0  0  0  0  0
   -0.6511    0.1766   -2.1378 C   0  0  0  0  0  0  0  0  0  0  0  0
   -1.5628   -0.4086   -2.2538 H   0  0  0  0  0  0  0  0  0  0  0  0
   -0.6712    1.0021   -2.8502 H   0  0  0  0  0  0  0  0  0  0  0  0
    0.7562   -0.8903   -2.5388 S   0  0  0  0  0  0  0  0  0  0  0  0
    2.0784    0.3470   -2.5891 C   0  0  0  0  0  0  0  0  0  0  0  0
    2.1616    0.8359   -1.6181 H   0  0  0  0  0  0  0  0  0  0  0  0
    3.0231   -0.1431   -2.8264 H   0  0  0  0  0  0  0  0  0  0  0  0
    1.8576    1.0904   -3.3556 H   0  0  0  0  0  0  0  0  0  0  0  0
   -0.3464    0.2681    1.7746 C   0  0  0  0  0  0  0  0  0  0  0  0
    0.8065    0.3804    2.1862 O   0  0  0  0  0  0  0  0  0  0  0  0
   -1.4093    0.6373    2.5009 N   0  0  0  0  0  0  0  0  0  0  0  0
   -2.3233    0.5291    2.0910 H   0  0  0  0  0  0  0  0  0  0  0  0
   -1.3220    1.2018    3.8468 C   0  0  0  0  0  0  0  0  0  0  0  0
   -0.7079    2.1053    3.8274 H   0  0  0  0  0  0  0  0  0  0  0  0
   -2.3162    1.4512    4.2197 H   0  0  0  0  0  0  0  0  0  0  0  0
   -0.8540    0.4805    4.5190 H   0  0  0  0  0  0  0  0  0  0  0  0
  5  6  2  0  0  0  0
  5  7  1  0  0  0  0
  2  3  1  0  0  0  0
  2  4  1  0  0  0  0
  2  5  1  0  0  0  0
  1  2  1  0  0  0  0
 22 23  2  0  0  0  0
 22 24  1  0  0  0  0
 18 19  1  0  0  0  0
 18 20  1  0  0  0  0
 18 21  1  0  0  0  0
 17 18  1  0  0  0  0
 14 15  1  0  0  0  0
 14 16  1  0  0  0  0
 14 17  1  0  0  0  0
 11 12  1  0  0  0  0
 11 13  1  0  0  0  0
 11 14  1  0  0  0  0
  9 10  1  0  0  0  0
  9 11  1  0  0  0  0
  9 22  1  0  0  0  0
  7  8  1  0  0  0  0
  7  9  1  0  0  0  0
 26 27  1  0  0  0  0
 26 28  1  0  0  0  0
 26 29  1  0  0  0  0
 24 25  1  0  0  0  0
 24 26  1  0  0  0  0
M  END
$$$$
default_name
  -OEChem-01062215323D

 29 28  0     1  0  0  0  0  0999 V2000
   -3.5781   -3.7296    1.2702 H   0  0  0  0  0  0  0  0  0  0  0  0
   -3.5311   -2.7616    0.7732 C   0  0  0  0  0  0  0  0  0  0  0  0
   -4.2371   -2.0766    1.2382 H   0  0  0  0  0  0  0  0  0  0  0  0
   -3.7681   -2.8816   -0.2818 H   0  0  0  0  0  0  0  0  0  0  0  0
   -2.1321   -2.2086    0.9112 C   0  0  0  0  0  0  0  0  0  0  0  0
   -1.2751   -2.8426    1.5112 O   0  0  0  0  0  0  0  0  0  0  0  0
   -1.9041   -1.0186    0.3602 N   0  0  0  0  0  0  0  0  0  0  0  0
   -2.6671   -0.5416   -0.0988 H   0  0  0  0  0  0  0  0  0  0  0  0
   -0.6131   -0.3236    0.3832 C   0  0  1  0  0  0  0  0  0  0  0  0
    0.1749   -1.0459    0.1642 H   0  0  0  0  0  0  0  0  0  0  0  0
   -0.6005    0.7526   -0.7180 C   0  0  0  0  0  0  0  0  0  0  0  0
   -1.4657    1.4049   -0.5812 H   0  0  0  0  0  0  0  0  0  0  0  0
    0.3017    1.3579   -0.6193 H   0  0  0  0  0  0  0  0  0  0  0  0
   -0.6511    0.1766   -2.1378 C   0  0  0  0  0  0  0  0  0  0  0  0
   -1.5628   -0.4086   -2.2538 H   0  0  0  0  0  0  0  0  0  0  0  0
   -0.6712    1.0021   -2.8502 H   0  0  0  0  0  0  0  0  0  0  0  0
    0.7562   -0.8903   -2.5388 S   0  0  0  0  0  0  0  0  0  0  0  0
    2.0784    0.3470   -2.5891 C   0  0  0  0  0  0  0  0  0  0  0  0
    2.1616    0.8359   -1.6181 H   0  0  0  0  0  0  0  0  0  0  0  0
    3.0231   -0.1431   -2.8264 H   0  0  0  0  0  0  0  0  0  0  0  0
    1.8576    1.0904   -3.3556 H   0  0  0  0  0  0  0  0  0  0  0  0
   -0.3464    0.2681    1.7746 C   0  0  0  0  0  0  0  0  0  0  0  0
    0.7855    0.6366    2.0812 O   0  0  0  0  0  0  0  0  0  0  0  0
   -1.3836    0.3508    2.6178 N   0  0  0  0  0  0  0  0  0  0  0  0
   -2.2853    0.0429    2.2905 H   0  0  0  0  0  0  0  0  0  0  0  0
   -1.2888    0.8752    3.9793 C   0  0  0  0  0  0  0  0  0  0  0  0
   -0.9069    1.8985    3.9535 H   0  0  0  0  0  0  0  0  0  0  0  0
   -2.2689    0.8696    4.4580 H   0  0  0  0  0  0  0  0  0  0  0  0
   -0.5981    0.2634    4.5623 H   0  0  0  0  0  0  0  0  0  0  0  0
  5  6  2  0  0  0  0
  5  7  1  0  0  0  0
  2  3  1  0  0  0  0
  2  4  1  0  0  0  0
  2  5  1  0  0  0  0
  1  2  1  0  0  0  0
 22 23  2  0  0  0  0
 22 24  1  0  0  0  0
 18 19  1  0  0  0  0
 18 20  1  0  0  0  0
 18 21  1  0  0  0  0
 17 18  1  0  0  0  0
 14 15  1  0  0  0  0
 14 16  1  0  0  0  0
 14 17  1  0  0  0  0
 11 12  1  0  0  0  0
 11 13  1  0  0  0  0
 11 14  1  0  0  0  0
  9 10  1  0  0  0  0
  9 11  1  0  0  0  0
  9 22  1  0  0  0  0
  7  8  1  0  0  0  0
  7  9  1  0  0  0  0
 26 27  1  0  0  0  0
 26 28  1  0  0  0  0
 26 29  1  0  0  0  0
 24 25  1  0  0  0  0
 24 26  1  0  0  0  0
M  END
$$$$
default_name
  -OEChem-01062215323D

 29 28  0     1  0  0  0  0  0999 V2000
   -3.5781   -3.7296    1.2702 H   0  0  0  0  0  0  0  0  0  0  0  0
   -3.5311   -2.7616    0.7732 C   0  0  0  0  0  0  0  0  0  0  0  0
   -4.2371   -2.0766    1.2382 H   0  0  0  0  0  0  0  0  0  0  0  0
   -3.7681   -2.8816   -0.2818 H   0  0  0  0  0  0  0  0  0  0  0  0
   -2.1321   -2.2086    0.9112 C   0  0  0  0  0  0  0  0  0  0  0  0
   -1.2751   -2.8426    1.5112 O   0  0  0  0  0  0  0  0  0  0  0  0
   -1.9041   -1.0186    0.3602 N   0  0  0  0  0  0  0  0  0  0  0  0
   -2.6671   -0.5416   -0.0988 H   0  0  0  0  0  0  0  0  0  0  0  0
   -0.6131   -0.3236    0.3832 C   0  0  1  0  0  0  0  0  0  0  0  0
    0.1749   -1.0459    0.1642 H   0  0  0  0  0  0  0  0  0  0  0  0
   -0.6005    0.7526   -0.7180 C   0  0  0  0  0  0  0  0  0  0  0  0
   -1.4657    1.4049   -0.5812 H   0  0  0  0  0  0  0  0  0  0  0  0
    0.3017    1.3579   -0.6193 H   0  0  0  0  0  0  0  0  0  0  0  0
   -0.6511    0.1766   -2.1378 C   0  0  0  0  0  0  0  0  0  0  0  0
   -1.5628   -0.4086   -2.2538 H   0  0  0  0  0  0  0  0  0  0  0  0
   -0.6712    1.0021   -2.8502 H   0  0  0  0  0  0  0  0  0  0  0  0
    0.7562   -0.8903   -2.5388 S   0  0  0  0  0  0  0  0  0  0  0  0
    2.0784    0.3470   -2.5891 C   0  0  0  0  0  0  0  0  0  0  0  0
    2.1616    0.8359   -1.6181 H   0  0  0  0  0  0  0  0  0  0  0  0
    3.0231   -0.1431   -2.8264 H   0  0  0  0  0  0  0  0  0  0  0  0
    1.8576    1.0904   -3.3556 H   0  0  0  0  0  0  0  0  0  0  0  0
   -0.3464    0.2681    1.7746 C   0  0  0  0  0  0  0  0  0  0  0  0
    0.6948    0.8839    1.9935 O   0  0  0  0  0  0  0  0  0  0  0  0
   -1.2799    0.0749    2.7152 N   0  0  0  0  0  0  0  0  0  0  0  0
   -2.1147   -0.4269    2.4575 H   0  0  0  0  0  0  0  0  0  0  0  0
   -1.1670    0.5615    4.0893 C   0  0  0  0  0  0  0  0  0  0  0  0
   -1.0381    1.6465    4.0858 H   0  0  0  0  0  0  0  0  0  0  0  0
   -2.0631    0.3081    4.6573 H   0  0  0  0  0  0  0  0  0  0  0  0
   -0.2957    0.1118    4.5688 H   0  0  0  0  0  0  0  0  0  0  0  0
  5  6  2  0  0  0  0
  5  7  1  0  0  0  0
  2  3  1  0  0  0  0
  2  4  1  0  0  0  0
  2  5  1  0  0  0  0
  1  2  1  0  0  0  0
 22 23  2  0  0  0  0
 22 24  1  0  0  0  0
 18 19  1  0  0  0  0
 18 20  1  0  0  0  0
 18 21  1  0  0  0  0
 17 18  1  0  0  0  0
 14 15  1  0  0  0  0
 14 16  1  0  0  0  0
 14 17  1  0  0  0  0
 11 12  1  0  0  0  0
 11 13  1  0  0  0  0
 11 14  1  0  0  0  0
  9 10  1  0  0  0  0
  9 11  1  0  0  0  0
  9 22  1  0  0  0  0
  7  8  1  0  0  0  0
  7  9  1  0  0  0  0
 26 27  1  0  0  0  0
 26 28  1  0  0  0  0
 26 29  1  0  0  0  0
 24 25  1  0  0  0  0
 24 26  1  0  0  0  0
M  END
$$$$
default_name
  -OEChem-01062215323D

 29 28  0     1  0  0  0  0  0999 V2000
   -3.5781   -3.7296    1.2702 H   0  0  0  0  0  0  0  0  0  0  0  0
   -3.5311   -2.7616    0.7732 C   0  0  0  0  0  0  0  0  0  0  0  0
   -4.2371   -2.0766    1.2382 H   0  0  0  0  0  0  0  0  0  0  0  0
   -3.7681   -2.8816   -0.2818 H   0  0  0  0  0  0  0  0  0  0  0  0
   -2.1321   -2.2086    0.9112 C   0  0  0  0  0  0  0  0  0  0  0  0
   -1.2751   -2.8426    1.5112 O   0  0  0  0  0  0  0  0  0  0  0  0
   -1.9041   -1.0186    0.3602 N   0  0  0  0  0  0  0  0  0  0  0  0
   -2.6671   -0.5416   -0.0988 H   0  0  0  0  0  0  0  0  0  0  0  0
   -0.6131   -0.3236    0.3832 C   0  0  1  0  0  0  0  0  0  0  0  0
    0.1749   -1.0459    0.1642 H   0  0  0  0  0  0  0  0  0  0  0  0
   -0.6005    0.7526   -0.7180 C   0  0  0  0  0  0  0  0  0  0  0  0
   -1.4657    1.4049   -0.5812 H   0  0  0  0  0  0  0  0  0  0  0  0
    0.3017    1.3579   -0.6193 H   0  0  0  0  0  0  0  0  0  0  0  0
   -0.6511    0.1766   -2.1378 C   0  0  0  0  0  0  0  0  0  0  0  0
   -1.5628   -0.4086   -2.2538 H   0  0  0  0  0  0  0  0  0  0  0  0
   -0.6712    1.0021   -2.8502 H   0  0  0  0  0  0  0  0  0  0  0  0
    0.7562   -0.8903   -2.5388 S   0  0  0  0  0  0  0  0  0  0  0  0
    2.0784    0.3470   -2.5891 C   0  0  0  0  0  0  0  0  0  0  0  0
    2.1616    0.8359   -1.6181 H   0  0  0  0  0  0  0  0  0  0  0  0
    3.0231   -0.1431   -2.8264 H   0  0  0  0  0  0  0  0  0  0  0  0
    1.8576    1.0904   -3.3556 H   0  0  0  0  0  0  0  0  0  0  0  0
   -0.3464    0.2681    1.7746 C   0  0  0  0  0  0  0  0  0  0  0  0
    0.5403    1.1054    1.9289 O   0  0  0  0  0  0  0  0  0  0  0  0
   -1.1053   -0.1716    2.7866 N   0  0  0  0  0  0  0  0  0  0  0  0
   -1.8231   -0.8481    2.5808 H   0  0  0  0  0  0  0  0  0  0  0  0
   -0.9647    0.2822    4.1694 C   0  0  0  0  0  0  0  0  0  0  0  0
   -1.0925    1.3663    4.2154 H   0  0  0  0  0  0  0  0  0  0  0  0
   -1.7127   -0.1949    4.8040 H   0  0  0  0  0  0  0  0  0  0  0  0
    0.0327    0.0360    4.5381 H   0  0  0  0  0  0  0  0  0  0  0  0
  5  6  2  0  0  0  0
  5  7  1  0  0  0  0
  2  3  1  0  0  0  0
  2  4  1  0  0  0  0
  2  5  1  0  0  0  0
  1  2  1  0  0  0  0
 22 23  2  0  0  0  0
 22 24  1  0  0  0  0
 18 19  1  0  0  0  0
 18 20  1  0  0  0  0
 18 21  1  0  0  0  0
 17 18  1  0  0  0  0
 14 15  1  0  0  0  0
 14 16  1  0  0  0  0
 14 17  1  0  0  0  0
 11 12  1  0  0  0  0
 11 13  1  0  0  0  0
 11 14  1  0  0  0  0
  9 10  1  0  0  0  0
  9 11  1  0  0  0  0
  9 22  1  0  0  0  0
  7  8  1  0  0  0  0
  7  9  1  0  0  0  0
 26 27  1  0  0  0  0
 26 28  1  0  0  0  0
 26 29  1  0  0  0  0
 24 25  1  0  0  0  0
 24 26  1  0  0  0  0
M  END
$$$$
default_name
  -OEChem-01062215323D

 29 28  0     1  0  0  0  0  0999 V2000
   -3.5781   -3.7296    1.2702 H   0  0  0  0  0  0  0  0  0  0  0  0
   -3.5311   -2.7616    0.7732 C   0  0  0  0  0  0  0  0  0  0  0  0
   -4.2371   -2.0766    1.2382 H   0  0  0  0  0  0  0  0  0  0  0  0
   -3.7681   -2.8816   -0.2818 H   0  0  0  0  0  0  0  0  0  0  0  0
   -2.1321   -2.2086    0.9112 C   0  0  0  0  0  0  0  0  0  0  0  0
   -1.2751   -2.8426    1.5112 O   0  0  0  0  0  0  0  0  0  0  0  0
   -1.9041   -1.0186    0.3602 N   0  0  0  0  0  0  0  0  0  0  0  0
   -2.6671   -0.5416   -0.0988 H   0  0  0  0  0  0  0  0  0  0  0  0
   -0.6131   -0.3236    0.3832 C   0  0  1  0  0  0  0  0  0  0  0  0
    0.1749   -1.0459    0.1642 H   0  0  0  0  0  0  0  0  0  0  0  0
   -0.6005    0.7526   -0.7180 C   0  0  0  0  0  0  0  0  0  0  0  0
   -1.4657    1.4049   -0.5812 H   0  0  0  0  0  0  0  0  0  0  0  0
    0.3017    1.3579   -0.6193 H   0  0  0  0  0  0  0  0  0  0  0  0
   -0.6511    0.1766   -2.1378 C   0  0  0  0  0  0  0  0  0  0  0  0
   -1.5628   -0.4086   -2.2538 H   0  0  0  0  0  0  0  0  0  0  0  0
   -0.6712    1.0021   -2.8502 H   0  0  0  0  0  0  0  0  0  0  0  0
    0.7562   -0.8903   -2.5388 S   0  0  0  0  0  0  0  0  0  0  0  0
    2.0784    0.3470   -2.5891 C   0  0  0  0  0  0  0  0  0  0  0  0
    2.1616    0.8359   -1.6181 H   0  0  0  0  0  0  0  0  0  0  0  0
    3.0231   -0.1431   -2.8264 H   0  0  0  0  0  0  0  0  0  0  0  0
    1.8576    1.0904   -3.3556 H   0  0  0  0  0  0  0  0  0  0  0  0
   -0.3464    0.2681    1.7746 C   0  0  0  0  0  0  0  0  0  0  0  0
    0.3327    1.2860    1.8919 O   0  0  0  0  0  0  0  0  0  0  0  0
   -0.8718   -0.3721    2.8271 N   0  0  0  0  0  0  0  0  0  0  0  0
   -1.4303   -1.1921    2.6518 H   0  0  0  0  0  0  0  0  0  0  0  0
   -0.6958    0.0562    4.2139 C   0  0  0  0  0  0  0  0  0  0  0  0
   -1.0664    1.0771    4.3333 H   0  0  0  0  0  0  0  0  0  0  0  0
   -1.2416   -0.6051    4.8882 H   0  0  0  0  0  0  0  0  0  0  0  0
    0.3645    0.0412    4.4723 H   0  0  0  0  0  0  0  0  0  0  0  0
  5  6  2  0  0  0  0
  5  7  1  0  0  0  0
  2  3  1  0  0  0  0
  2  4  1  0  0  0  0
  2  5  1  0  0  0  0
  1  2  1  0  0  0  0
 22 23  2  0  0  0  0
 22 24  1  0  0  0  0
 18 19  1  0  0  0  0
 18 20  1  0  0  0  0
 18 21  1  0  0  0  0
 17 18  1  0  0  0  0
 14 15  1  0  0  0  0
 14 16  1  0  0  0  0
 14 17  1  0  0  0  0
 11 12  1  0  0  0  0
 11 13  1  0  0  0  0
 11 14  1  0  0  0  0
  9 10  1  0  0  0  0
  9 11  1  0  0  0  0
  9 22  1  0  0  0  0
  7  8  1  0  0  0  0
  7  9  1  0  0  0  0
 26 27  1  0  0  0  0
 26 28  1  0  0  0  0
 26 29  1  0  0  0  0
 24 25  1  0  0  0  0
 24 26  1  0  0  0  0
M  END
$$$$
default_name
  -OEChem-01062215323D

 29 28  0     1  0  0  0  0  0999 V2000
   -3.5781   -3.7296    1.2702 H   0  0  0  0  0  0  0  0  0  0  0  0
   -3.5311   -2.7616    0.7732 C   0  0  0  0  0  0  0  0  0  0  0  0
   -4.2371   -2.0766    1.2382 H   0  0  0  0  0  0  0  0  0  0  0  0
   -3.7681   -2.8816   -0.2818 H   0  0  0  0  0  0  0  0  0  0  0  0
   -2.1321   -2.2086    0.9112 C   0  0  0  0  0  0  0  0  0  0  0  0
   -1.2751   -2.8426    1.5112 O   0  0  0  0  0  0  0  0  0  0  0  0
   -1.9041   -1.0186    0.3602 N   0  0  0  0  0  0  0  0  0  0  0  0
   -2.6671   -0.5416   -0.0988 H   0  0  0  0  0  0  0  0  0  0  0  0
   -0.6131   -0.3236    0.3832 C   0  0  1  0  0  0  0  0  0  0  0  0
    0.1749   -1.0459    0.1642 H   0  0  0  0  0  0  0  0  0  0  0  0
   -0.6005    0.7526   -0.7180 C   0  0  0  0  0  0  0  0  0  0  0  0
   -1.4657    1.4049   -0.5812 H   0  0  0  0  0  0  0  0  0  0  0  0
    0.3017    1.3579   -0.6193 H   0  0  0  0  0  0  0  0  0  0  0  0
   -0.6511    0.1766   -2.1378 C   0  0  0  0  0  0  0  0  0  0  0  0
   -1.5628   -0.4086   -2.2538 H   0  0  0  0  0  0  0  0  0  0  0  0
   -0.6712    1.0021   -2.8502 H   0  0  0  0  0  0  0  0  0  0  0  0
    0.7562   -0.8903   -2.5388 S   0  0  0  0  0  0  0  0  0  0  0  0
    2.0784    0.3470   -2.5891 C   0  0  0  0  0  0  0  0  0  0  0  0
    2.1616    0.8359   -1.6181 H   0  0  0  0  0  0  0  0  0  0  0  0
    3.0231   -0.1431   -2.8264 H   0  0  0  0  0  0  0  0  0  0  0  0
    1.8576    1.0904   -3.3556 H   0  0  0  0  0  0  0  0  0  0  0  0
   -0.3464    0.2681    1.7746 C   0  0  0  0  0  0  0  0  0  0  0  0
    0.0862    1.4135    1.8849 O   0  0  0  0  0  0  0  0  0  0  0  0
   -0.5951   -0.5127    2.8339 N   0  0  0  0  0  0  0  0  0  0  0  0
   -0.9631   -1.4354    2.6657 H   0  0  0  0  0  0  0  0  0  0  0  0
   -0.3787   -0.1010    4.2200 C   0  0  0  0  0  0  0  0  0  0  0  0
   -0.9616    0.7985    4.4317 H   0  0  0  0  0  0  0  0  0  0  0  0
   -0.6819   -0.8947    4.9041 H   0  0  0  0  0  0  0  0  0  0  0  0
    0.6772    0.1270    4.3759 H   0  0  0  0  0  0  0  0  0  0  0  0
  5  6  2  0  0  0  0
  5  7  1  0  0  0  0
  2  3  1  0  0  0  0
  2  4  1  0  0  0  0
  2  5  1  0  0  0  0
  1  2  1  0  0  0  0
 22 23  2  0  0  0  0
 22 24  1  0  0  0  0
 18 19  1  0  0  0  0
 18 20  1  0  0  0  0
 18 21  1  0  0  0  0
 17 18  1  0  0  0  0
 14 15  1  0  0  0  0
 14 16  1  0  0  0  0
 14 17  1  0  0  0  0
 11 12  1  0  0  0  0
 11 13  1  0  0  0  0
 11 14  1  0  0  0  0
  9 10  1  0  0  0  0
  9 11  1  0  0  0  0
  9 22  1  0  0  0  0
  7  8  1  0  0  0  0
  7  9  1  0  0  0  0
 26 27  1  0  0  0  0
 26 28  1  0  0  0  0
 26 29  1  0  0  0  0
 24 25  1  0  0  0  0
 24 26  1  0  0  0  0
M  END
$$$$
default_name
  -OEChem-01062215323D

 29 28  0     1  0  0  0  0  0999 V2000
   -3.5781   -3.7296    1.2702 H   0  0  0  0  0  0  0  0  0  0  0  0
   -3.5311   -2.7616    0.7732 C   0  0  0  0  0  0  0  0  0  0  0  0
   -4.2371   -2.0766    1.2382 H   0  0  0  0  0  0  0  0  0  0  0  0
   -3.7681   -2.8816   -0.2818 H   0  0  0  0  0  0  0  0  0  0  0  0
   -2.1321   -2.2086    0.9112 C   0  0  0  0  0  0  0  0  0  0  0  0
   -1.2751   -2.8426    1.5112 O   0  0  0  0  0  0  0  0  0  0  0  0
   -1.9041   -1.0186    0.3602 N   0  0  0  0  0  0  0  0  0  0  0  0
   -2.6671   -0.5416   -0.0988 H   0  0  0  0  0  0  0  0  0  0  0  0
   -0.6131   -0.3236    0.3832 C   0  0  1  0  0  0  0  0  0  0  0  0
    0.1749   -1.0459    0.1642 H   0  0  0  0  0  0  0  0  0  0  0  0
   -0.6005    0.7526   -0.7180 C   0  0  0  0  0  0  0  0  0  0  0  0
   -1.4657    1.4049   -0.5812 H   0  0  0  0  0  0  0  0  0  0  0  0
    0.3017    1.3579   -0.6193 H   0  0  0  0  0  0  0  0  0  0  0  0
   -0.6511    0.1766   -2.1378 C   0  0  0  0  0  0  0  0  0  0  0  0
   -1.5628   -0.4086   -2.2538 H   0  0  0  0  0  0  0  0  0  0  0  0
   -0.6712    1.0021   -2.8502 H   0  0  0  0  0  0  0  0  0  0  0  0
    0.7562   -0.8903   -2.5388 S   0  0  0  0  0  0  0  0  0  0  0  0
    2.0784    0.3470   -2.5891 C   0  0  0  0  0  0  0  0  0  0  0  0
    2.1616    0.8359   -1.6181 H   0  0  0  0  0  0  0  0  0  0  0  0
    3.0231   -0.1431   -2.8264 H   0  0  0  0  0  0  0  0  0  0  0  0
    1.8576    1.0904   -3.3556 H   0  0  0  0  0  0  0  0  0  0  0  0
   -0.3464    0.2681    1.7746 C   0  0  0  0  0  0  0  0  0  0  0  0
   -0.1826    1.4791    1.9085 O   0  0  0  0  0  0  0  0  0  0  0  0
   -0.2942   -0.5839    2.8065 N   0  0  0  0  0  0  0  0  0  0  0  0
   -0.4534   -1.5615    2.6216 H   0  0  0  0  0  0  0  0  0  0  0  0
   -0.0349   -0.1787    4.1872 C   0  0  0  0  0  0  0  0  0  0  0  0
   -0.7852    0.5496    4.5037 H   0  0  0  0  0  0  0  0  0  0  0  0
   -0.0718   -1.0438    4.8506 H   0  0  0  0  0  0  0  0  0  0  0  0
    0.9496    0.2876    4.2554 H   0  0  0  0  0  0  0  0  0  0  0  0
  5  6  2  0  0  0  0
  5  7  1  0  0  0  0
  2  3  1  0  0  0  0
  2  4  1  0  0  0  0
  2  5  1  0  0  0  0
  1  2  1  0  0  0  0
 22 23  2  0  0  0  0
 22 24  1  0  0  0  0
 18 19  1  0  0  0  0
 18 20  1  0  0  0  0
 18 21  1  0  0  0  0
 17 18  1  0  0  0  0
 14 15  1  0  0  0  0
 14 16  1  0  0  0  0
 14 17  1  0  0  0  0
 11 12  1  0  0  0  0
 11 13  1  0  0  0  0
 11 14  1  0  0  0  0
  9 10  1  0  0  0  0
  9 11  1  0  0  0  0
  9 22  1  0  0  0  0
  7  8  1  0  0  0  0
  7  9  1  0  0  0  0
 26 27  1  0  0  0  0
 26 28  1  0  0  0  0
 26 29  1  0  0  0  0
 24 25  1  0  0  0  0
 24 26  1  0  0  0  0
M  END
$$$$
default_name
  -OEChem-01062215323D

 29 28  0     1  0  0  0  0  0999 V2000
   -3.5781   -3.7296    1.2702 H   0  0  0  0  0  0  0  0  0  0  0  0
   -3.5311   -2.7616    0.7732 C   0  0  0  0  0  0  0  0  0  0  0  0
   -4.2371   -2.0766    1.2382 H   0  0  0  0  0  0  0  0  0  0  0  0
   -3.7681   -2.8816   -0.2818 H   0  0  0  0  0  0  0  0  0  0  0  0
   -2.1321   -2.2086    0.9112 C   0  0  0  0  0  0  0  0  0  0  0  0
   -1.2751   -2.8426    1.5112 O   0  0  0  0  0  0  0  0  0  0  0  0
   -1.9041   -1.0186    0.3602 N   0  0  0  0  0  0  0  0  0  0  0  0
   -2.6671   -0.5416   -0.0988 H   0  0  0  0  0  0  0  0  0  0  0  0
   -0.6131   -0.3236    0.3832 C   0  0  1  0  0  0  0  0  0  0  0  0
    0.1749   -1.0459    0.1642 H   0  0  0  0  0  0  0  0  0  0  0  0
   -0.6005    0.7526   -0.7180 C   0  0  0  0  0  0  0  0  0  0  0  0
   -1.4657    1.4049   -0.5812 H   0  0  0  0  0  0  0  0  0  0  0  0
    0.3017    1.3579   -0.6193 H   0  0  0  0  0  0  0  0  0  0  0  0
   -0.6511    0.1766   -2.1378 C   0  0  0  0  0  0  0  0  0  0  0  0
   -1.5628   -0.4086   -2.2538 H   0  0  0  0  0  0  0  0  0  0  0  0
   -0.6712    1.0021   -2.8502 H   0  0  0  0  0  0  0  0  0  0  0  0
    0.7562   -0.8903   -2.5388 S   0  0  0  0  0  0  0  0  0  0  0  0
    2.0784    0.3470   -2.5891 C   0  0  0  0  0  0  0  0  0  0  0  0
    2.1616    0.8359   -1.6181 H   0  0  0  0  0  0  0  0  0  0  0  0
    3.0231   -0.1431   -2.8264 H   0  0  0  0  0  0  0  0  0  0  0  0
    1.8576    1.0904   -3.3556 H   0  0  0  0  0  0  0  0  0  0  0  0
   -0.3464    0.2681    1.7746 C   0  0  0  0  0  0  0  0  0  0  0  0
   -0.4552    1.4783    1.9611 O   0  0  0  0  0  0  0  0  0  0  0  0
    0.0105   -0.5809    2.7468 N   0  0  0  0  0  0  0  0  0  0  0  0
    0.0641   -1.5617    2.5226 H   0  0  0  0  0  0  0  0  0  0  0  0
    0.3122   -0.1717    4.1177 C   0  0  0  0  0  0  0  0  0  0  0  0
   -0.5492    0.3474    4.5445 H   0  0  0  0  0  0  0  0  0  0  0  0
    0.5472   -1.0424    4.7314 H   0  0  0  0  0  0  0  0  0  0  0  0
    1.1630    0.5120    4.1191 H   0  0  0  0  0  0  0  0  0  0  0  0
  5  6  2  0  0  0  0
  5  7  1  0  0  0  0
  2  3  1  0  0  0  0
  2  4  1  0  0  0  0
  2  5  1  0  0  0  0
  1  2  1  0  0  0  0
 22 23  2  0  0  0  0
 22 24  1  0  0  0  0
 18 19  1  0  0  0  0
 18 20  1  0  0  0  0
 18 21  1  0  0  0  0
 17 18  1  0  0  0  0
 14 15  1  0  0  0  0
 14 16  1  0  0  0  0
 14 17  1  0  0  0  0
 11 12  1  0  0  0  0
 11 13  1  0  0  0  0
 11 14  1  0  0  0  0
  9 10  1  0  0  0  0
  9 11  1  0  0  0  0
  9 22  1  0  0  0  0
  7  8  1  0  0  0  0
  7  9  1  0  0  0  0
 26 27  1  0  0  0  0
 26 28  1  0  0  0  0
 26 29  1  0  0  0  0
 24 25  1  0  0  0  0
 24 26  1  0  0  0  0
M  END
$$$$
default_name
  -OEChem-01062215323D

 29 28  0     1  0  0  0  0  0999 V2000
   -3.5781   -3.7296    1.2702 H   0  0  0  0  0  0  0  0  0  0  0  0
   -3.5311   -2.7616    0.7732 C   0  0  0  0  0  0  0  0  0  0  0  0
   -4.2371   -2.0766    1.2382 H   0  0  0  0  0  0  0  0  0  0  0  0
   -3.7681   -2.8816   -0.2818 H   0  0  0  0  0  0  0  0  0  0  0  0
   -2.1321   -2.2086    0.9112 C   0  0  0  0  0  0  0  0  0  0  0  0
   -1.2751   -2.8426    1.5112 O   0  0  0  0  0  0  0  0  0  0  0  0
   -1.9041   -1.0186    0.3602 N   0  0  0  0  0  0  0  0  0  0  0  0
   -2.6671   -0.5416   -0.0988 H   0  0  0  0  0  0  0  0  0  0  0  0
   -0.6131   -0.3236    0.3832 C   0  0  1  0  0  0  0  0  0  0  0  0
    0.1749   -1.0459    0.1642 H   0  0  0  0  0  0  0  0  0  0  0  0
   -0.6005    0.7526   -0.7180 C   0  0  0  0  0  0  0  0  0  0  0  0
   -1.4657    1.4049   -0.5812 H   0  0  0  0  0  0  0  0  0  0  0  0
    0.3017    1.3579   -0.6193 H   0  0  0  0  0  0  0  0  0  0  0  0
   -0.6511    0.1766   -2.1378 C   0  0  0  0  0  0  0  0  0  0  0  0
   -1.5628   -0.4086   -2.2538 H   0  0  0  0  0  0  0  0  0  0  0  0
   -0.6712    1.0021   -2.8502 H   0  0  0  0  0  0  0  0  0  0  0  0
    0.7562   -0.8903   -2.5388 S   0  0  0  0  0  0  0  0  0  0  0  0
    2.0784    0.3470   -2.5891 C   0  0  0  0  0  0  0  0  0  0  0  0
    2.1616    0.8359   -1.6181 H   0  0  0  0  0  0  0  0  0  0  0  0
    3.0231   -0.1431   -2.8264 H   0  0  0  0  0  0  0  0  0  0  0  0
    1.8576    1.0904   -3.3556 H   0  0  0  0  0  0  0  0  0  0  0  0
   -0.3464    0.2681    1.7746 C   0  0  0  0  0  0  0  0  0  0  0  0
   -0.7131    1.4113    2.0390 O   0  0  0  0  0  0  0  0  0  0  0  0
    0.2981   -0.5039    2.6590 N   0  0  0  0  0  0  0  0  0  0  0  0
    0.5542   -1.4361    2.3753 H   0  0  0  0  0  0  0  0  0  0  0  0
    0.6389   -0.0804    4.0163 C   0  0  0  0  0  0  0  0  0  0  0  0
   -0.2698    0.2055    4.5513 H   0  0  0  0  0  0  0  0  0  0  0  0
    1.1328   -0.8904    4.5545 H   0  0  0  0  0  0  0  0  0  0  0  0
    1.3028    0.7850    3.9762 H   0  0  0  0  0  0  0  0  0  0  0  0
  5  6  2  0  0  0  0
  5  7  1  0  0  0  0
  2  3  1  0  0  0  0
  2  4  1  0  0  0  0
  2  5  1  0  0  0  0
  1  2  1  0  0  0  0
 22 23  2  0  0  0  0
 22 24  1  0  0  0  0
 18 19  1  0  0  0  0
 18 20  1  0  0  0  0
 18 21  1  0  0  0  0
 17 18  1  0  0  0  0
 14 15  1  0  0  0  0
 14 16  1  0  0  0  0
 14 17  1  0  0  0  0
 11 12  1  0  0  0  0
 11 13  1  0  0  0  0
 11 14  1  0  0  0  0
  9 10  1  0  0  0  0
  9 11  1  0  0  0  0
  9 22  1  0  0  0  0
  7  8  1  0  0  0  0
  7  9  1  0  0  0  0
 26 27  1  0  0  0  0
 26 28  1  0  0  0  0
 26 29  1  0  0  0  0
 24 25  1  0  0  0  0
 24 26  1  0  0  0  0
M  END
$$$$
default_name
  -OEChem-01062215323D

 29 28  0     1  0  0  0  0  0999 V2000
   -3.5781   -3.7296    1.2702 H   0  0  0  0  0  0  0  0  0  0  0  0
   -3.5311   -2.7616    0.7732 C   0  0  0  0  0  0  0  0  0  0  0  0
   -4.2371   -2.0766    1.2382 H   0  0  0  0  0  0  0  0  0  0  0  0
   -3.7681   -2.8816   -0.2818 H   0  0  0  0  0  0  0  0  0  0  0  0
   -2.1321   -2.2086    0.9112 C   0  0  0  0  0  0  0  0  0  0  0  0
   -1.2751   -2.8426    1.5112 O   0  0  0  0  0  0  0  0  0  0  0  0
   -1.9041   -1.0186    0.3602 N   0  0  0  0  0  0  0  0  0  0  0  0
   -2.6671   -0.5416   -0.0988 H   0  0  0  0  0  0  0  0  0  0  0  0
   -0.6131   -0.3236    0.3832 C   0  0  1  0  0  0  0  0  0  0  0  0
    0.1749   -1.0459    0.1642 H   0  0  0  0  0  0  0  0  0  0  0  0
   -0.6005    0.7526   -0.7180 C   0  0  0  0  0  0  0  0  0  0  0  0
   -1.4657    1.4049   -0.5812 H   0  0  0  0  0  0  0  0  0  0  0  0
    0.3017    1.3579   -0.6193 H   0  0  0  0  0  0  0  0  0  0  0  0
   -0.6511    0.1766   -2.1378 C   0  0  0  0  0  0  0  0  0  0  0  0
   -1.5628   -0.4086   -2.2538 H   0  0  0  0  0  0  0  0  0  0  0  0
   -0.6712    1.0021   -2.8502 H   0  0  0  0  0  0  0  0  0  0  0  0
    0.7562   -0.8903   -2.5388 S   0  0  0  0  0  0  0  0  0  0  0  0
    2.0784    0.3470   -2.5891 C   0  0  0  0  0  0  0  0  0  0  0  0
    2.1616    0.8359   -1.6181 H   0  0  0  0  0  0  0  0  0  0  0  0
    3.0231   -0.1431   -2.8264 H   0  0  0  0  0  0  0  0  0  0  0  0
    1.8576    1.0904   -3.3556 H   0  0  0  0  0  0  0  0  0  0  0  0
   -0.3464    0.2681    1.7746 C   0  0  0  0  0  0  0  0  0  0  0  0
   -0.9387    1.2825    2.1370 O   0  0  0  0  0  0  0  0  0  0  0  0
    0.5490   -0.3581    2.5489 N   0  0  0  0  0  0  0  0  0  0  0  0
    0.9834   -1.1932    2.1897 H   0  0  0  0  0  0  0  0  0  0  0  0
    0.9229    0.0890    3.8898 C   0  0  0  0  0  0  0  0  0  0  0  0
    0.0341    0.1337    4.5236 H   0  0  0  0  0  0  0  0  0  0  0  0
    1.6452   -0.5983    4.3321 H   0  0  0  0  0  0  0  0  0  0  0  0
    1.3597    1.0878    3.8365 H   0  0  0  0  0  0  0  0  0  0  0  0
  5  6  2  0  0  0  0
  5  7  1  0  0  0  0
  2  3  1  0  0  0  0
  2  4  1  0  0  0  0
  2  5  1  0  0  0  0
  1  2  1  0  0  0  0
 22 23  2  0  0  0  0
 22 24  1  0  0  0  0
 18 19  1  0  0  0  0
 18 20  1  0  0  0  0
 18 21  1  0  0  0  0
 17 18  1  0  0  0  0
 14 15  1  0  0  0  0
 14 16  1  0  0  0  0
 14 17  1  0  0  0  0
 11 12  1  0  0  0  0
 11 13  1  0  0  0  0
 11 14  1  0  0  0  0
  9 10  1  0  0  0  0
  9 11  1  0  0  0  0
  9 22  1  0  0  0  0
  7  8  1  0  0  0  0
  7  9  1  0  0  0  0
 26 27  1  0  0  0  0
 26 28  1  0  0  0  0
 26 29  1  0  0  0  0
 24 25  1  0  0  0  0
 24 26  1  0  0  0  0
M  END
$$$$
default_name
  -OEChem-01062215323D

 29 28  0     1  0  0  0  0  0999 V2000
   -3.5781   -3.7296    1.2702 H   0  0  0  0  0  0  0  0  0  0  0  0
   -3.5311   -2.7616    0.7732 C   0  0  0  0  0  0  0  0  0  0  0  0
   -4.2371   -2.0766    1.2382 H   0  0  0  0  0  0  0  0  0  0  0  0
   -3.7681   -2.8816   -0.2818 H   0  0  0  0  0  0  0  0  0  0  0  0
   -2.1321   -2.2086    0.9112 C   0  0  0  0  0  0  0  0  0  0  0  0
   -1.2751   -2.8426    1.5112 O   0  0  0  0  0  0  0  0  0  0  0  0
   -1.9041   -1.0186    0.3602 N   0  0  0  0  0  0  0  0  0  0  0  0
   -2.6671   -0.5416   -0.0988 H   0  0  0  0  0  0  0  0  0  0  0  0
   -0.6131   -0.3236    0.3832 C   0  0  1  0  0  0  0  0  0  0  0  0
    0.1749   -1.0459    0.1642 H   0  0  0  0  0  0  0  0  0  0  0  0
   -0.6005    0.7526   -0.7180 C   0  0  0  0  0  0  0  0  0  0  0  0
   -1.4657    1.4049   -0.5812 H   0  0  0  0  0  0  0  0  0  0  0  0
    0.3017    1.3579   -0.6193 H   0  0  0  0  0  0  0  0  0  0  0  0
   -0.6511    0.1766   -2.1378 C   0  0  0  0  0  0  0  0  0  0  0  0
   -1.5628   -0.4086   -2.2538 H   0  0  0  0  0  0  0  0  0  0  0  0
   -0.6712    1.0021   -2.8502 H   0  0  0  0  0  0  0  0  0  0  0  0
    0.7562   -0.8903   -2.5388 S   0  0  0  0  0  0  0  0  0  0  0  0
    2.0784    0.3470   -2.5891 C   0  0  0  0  0  0  0  0  0  0  0  0
    2.1616    0.8359   -1.6181 H   0  0  0  0  0  0  0  0  0  0  0  0
    3.0231   -0.1431   -2.8264 H   0  0  0  0  0  0  0  0  0  0  0  0
    1.8576    1.0904   -3.3556 H   0  0  0  0  0  0  0  0  0  0  0  0
   -0.3464    0.2681    1.7746 C   0  0  0  0  0  0  0  0  0  0  0  0
   -1.1167    1.1008    2.2484 O   0  0  0  0  0  0  0  0  0  0  0  0
    0.7463   -0.1534    2.4240 N   0  0  0  0  0  0  0  0  0  0  0  0
    1.3225   -0.8496    1.9786 H   0  0  0  0  0  0  0  0  0  0  0  0
    1.1448    0.3249    3.7470 C   0  0  0  0  0  0  0  0  0  0  0  0
    0.3416    0.1369    4.4633 H   0  0  0  0  0  0  0  0  0  0  0  0
    2.0494   -0.1860    4.0793 H   0  0  0  0  0  0  0  0  0  0  0  0
    1.3296    1.4000    3.7096 H   0  0  0  0  0  0  0  0  0  0  0  0
  5  6  2  0  0  0  0
  5  7  1  0  0  0  0
  2  3  1  0  0  0  0
  2  4  1  0  0  0  0
  2  5  1  0  0  0  0
  1  2  1  0  0  0  0
 22 23  2  0  0  0  0
 22 24  1  0  0  0  0
 18 19  1  0  0  0  0
 18 20  1  0  0  0  0
 18 21  1  0  0  0  0
 17 18  1  0  0  0  0
 14 15  1  0  0  0  0
 14 16  1  0  0  0  0
 14 17  1  0  0  0  0
 11 12  1  0  0  0  0
 11 13  1  0  0  0  0
 11 14  1  0  0  0  0
  9 10  1  0  0  0  0
  9 11  1  0  0  0  0
  9 22  1  0  0  0  0
  7  8  1  0  0  0  0
  7  9  1  0  0  0  0
 26 27  1  0  0  0  0
 26 28  1  0  0  0  0
 26 29  1  0  0  0  0
 24 25  1  0  0  0  0
 24 26  1  0  0  0  0
M  END
$$$$
default_name
  -OEChem-01062215323D

 29 28  0     1  0  0  0  0  0999 V2000
   -3.5781   -3.7296    1.2702 H   0  0  0  0  0  0  0  0  0  0  0  0
   -3.5311   -2.7616    0.7732 C   0  0  0  0  0  0  0  0  0  0  0  0
   -4.2371   -2.0766    1.2382 H   0  0  0  0  0  0  0  0  0  0  0  0
   -3.7681   -2.8816   -0.2818 H   0  0  0  0  0  0  0  0  0  0  0  0
   -2.1321   -2.2086    0.9112 C   0  0  0  0  0  0  0  0  0  0  0  0
   -1.2751   -2.8426    1.5112 O   0  0  0  0  0  0  0  0  0  0  0  0
   -1.9041   -1.0186    0.3602 N   0  0  0  0  0  0  0  0  0  0  0  0
   -2.6671   -0.5416   -0.0988 H   0  0  0  0  0  0  0  0  0  0  0  0
   -0.6131   -0.3236    0.3832 C   0  0  1  0  0  0  0  0  0  0  0  0
    0.1749   -1.0459    0.1642 H   0  0  0  0  0  0  0  0  0  0  0  0
   -0.6005    0.7526   -0.7180 C   0  0  0  0  0  0  0  0  0  0  0  0
   -1.4657    1.4049   -0.5812 H   0  0  0  0  0  0  0  0  0  0  0  0
    0.3017    1.3579   -0.6193 H   0  0  0  0  0  0  0  0  0  0  0  0
   -0.6511    0.1766   -2.1378 C   0  0  0  0  0  0  0  0  0  0  0  0
   -1.5628   -0.4086   -2.2538 H   0  0  0  0  0  0  0  0  0  0  0  0
   -0.6712    1.0021   -2.8502 H   0  0  0  0  0  0  0  0  0  0  0  0
    0.7562   -0.8903   -2.5388 S   0  0  0  0  0  0  0  0  0  0  0  0
    2.0784    0.3470   -2.5891 C   0  0  0  0  0  0  0  0  0  0  0  0
    2.1616    0.8359   -1.6181 H   0  0  0  0  0  0  0  0  0  0  0  0
    3.0231   -0.1431   -2.8264 H   0  0  0  0  0  0  0  0  0  0  0  0
    1.8576    1.0904   -3.3556 H   0  0  0  0  0  0  0  0  0  0  0  0
   -0.3464    0.2681    1.7746 C   0  0  0  0  0  0  0  0  0  0  0  0
   -1.2349    0.8786    2.3655 O   0  0  0  0  0  0  0  0  0  0  0  0
    0.8763    0.0962    2.2930 N   0  0  0  0  0  0  0  0  0  0  0  0
    1.5484   -0.4286    1.7563 H   0  0  0  0  0  0  0  0  0  0  0  0
    1.2897    0.6113    3.5974 C   0  0  0  0  0  0  0  0  0  0  0  0
    0.6320    0.2148    4.3745 H   0  0  0  0  0  0  0  0  0  0  0  0
    2.3180    0.3185    3.8134 H   0  0  0  0  0  0  0  0  0  0  0  0
    1.2147    1.7001    3.6039 H   0  0  0  0  0  0  0  0  0  0  0  0
  5  6  2  0  0  0  0
  5  7  1  0  0  0  0
  2  3  1  0  0  0  0
  2  4  1  0  0  0  0
  2  5  1  0  0  0  0
  1  2  1  0  0  0  0
 22 23  2  0  0  0  0
 22 24  1  0  0  0  0
 18 19  1  0  0  0  0
 18 20  1  0  0  0  0
 18 21  1  0  0  0  0
 17 18  1  0  0  0  0
 14 15  1  0  0  0  0
 14 16  1  0  0  0  0
 14 17  1  0  0  0  0
 11 12  1  0  0  0  0
 11 13  1  0  0  0  0
 11 14  1  0  0  0  0
  9 10  1  0  0  0  0
  9 11  1  0  0  0  0
  9 22  1  0  0  0  0
  7  8  1  0  0  0  0
  7  9  1  0  0  0  0
 26 27  1  0  0  0  0
 26 28  1  0  0  0  0
 26 29  1  0  0  0  0
 24 25  1  0  0  0  0
 24 26  1  0  0  0  0
M  END
$$$$
default_name
  -OEChem-01062215323D

 29 28  0     1  0  0  0  0  0999 V2000
   -3.5781   -3.7296    1.2702 H   0  0  0  0  0  0  0  0  0  0  0  0
   -3.5311   -2.7616    0.7732 C   0  0  0  0  0  0  0  0  0  0  0  0
   -4.2371   -2.0766    1.2382 H   0  0  0  0  0  0  0  0  0  0  0  0
   -3.7681   -2.8816   -0.2818 H   0  0  0  0  0  0  0  0  0  0  0  0
   -2.1321   -2.2086    0.9112 C   0  0  0  0  0  0  0  0  0  0  0  0
   -1.2751   -2.8426    1.5112 O   0  0  0  0  0  0  0  0  0  0  0  0
   -1.9041   -1.0186    0.3602 N   0  0  0  0  0  0  0  0  0  0  0  0
   -2.6671   -0.5416   -0.0988 H   0  0  0  0  0  0  0  0  0  0  0  0
   -0.6131   -0.3236    0.3832 C   0  0  1  0  0  0  0  0  0  0  0  0
    0.1749   -1.0459    0.1642 H   0  0  0  0  0  0  0  0  0  0  0  0
   -0.6005    0.7526   -0.7180 C   0  0  0  0  0  0  0  0  0  0  0  0
   -1.4657    1.4049   -0.5812 H   0  0  0  0  0  0  0  0  0  0  0  0
    0.3017    1.3579   -0.6193 H   0  0  0  0  0  0  0  0  0  0  0  0
   -0.6511    0.1766   -2.1378 C   0  0  0  0  0  0  0  0  0  0  0  0
   -1.5628   -0.4086   -2.2538 H   0  0  0  0  0  0  0  0  0  0  0  0
   -0.6712    1.0021   -2.8502 H   0  0  0  0  0  0  0  0  0  0  0  0
    0.7562   -0.8903   -2.5388 S   0  0  0  0  0  0  0  0  0  0  0  0
    2.0784    0.3470   -2.5891 C   0  0  0  0  0  0  0  0  0  0  0  0
    2.1616    0.8359   -1.6181 H   0  0  0  0  0  0  0  0  0  0  0  0
    3.0231   -0.1431   -2.8264 H   0  0  0  0  0  0  0  0  0  0  0  0
    1.8576    1.0904   -3.3556 H   0  0  0  0  0  0  0  0  0  0  0  0
   -0.3464    0.2681    1.7746 C   0  0  0  0  0  0  0  0  0  0  0  0
   -1.2852    0.6309    2.4805 O   0  0  0  0  0  0  0  0  0  0  0  0
    0.9303    0.3736    2.1647 N   0  0  0  0  0  0  0  0  0  0  0  0
    1.6457    0.0410    1.5380 H   0  0  0  0  0  0  0  0  0  0  0  0
    1.3475    0.9286    3.4514 C   0  0  0  0  0  0  0  0  0  0  0  0
    0.8853    0.3622    4.2633 H   0  0  0  0  0  0  0  0  0  0  0  0
    2.4325    0.8807    3.5523 H   0  0  0  0  0  0  0  0  0  0  0  0
    1.0228    1.9679    3.5269 H   0  0  0  0  0  0  0  0  0  0  0  0
  5  6  2  0  0  0  0
  5  7  1  0  0  0  0
  2  3  1  0  0  0  0
  2  4  1  0  0  0  0
  2  5  1  0  0  0  0
  1  2  1  0  0  0  0
 22 23  2  0  0  0  0
 22 24  1  0  0  0  0
 18 19  1  0  0  0  0
 18 20  1  0  0  0  0
 18 21  1  0  0  0  0
 17 18  1  0  0  0  0
 14 15  1  0  0  0  0
 14 16  1  0  0  0  0
 14 17  1  0  0  0  0
 11 12  1  0  0  0  0
 11 13  1  0  0  0  0
 11 14  1  0  0  0  0
  9 10  1  0  0  0  0
  9 11  1  0  0  0  0
  9 22  1  0  0  0  0
  7  8  1  0  0  0  0
  7  9  1  0  0  0  0
 26 27  1  0  0  0  0
 26 28  1  0  0  0  0
 26 29  1  0  0  0  0
 24 25  1  0  0  0  0
 24 26  1  0  0  0  0
M  END
$$$$
default_name
  -OEChem-01062215323D

 29 28  0     1  0  0  0  0  0999 V2000
   -3.5781   -3.7296    1.2702 H   0  0  0  0  0  0  0  0  0  0  0  0
   -3.5311   -2.7616    0.7732 C   0  0  0  0  0  0  0  0  0  0  0  0
   -4.2371   -2.0766    1.2382 H   0  0  0  0  0  0  0  0  0  0  0  0
   -3.7681   -2.8816   -0.2818 H   0  0  0  0  0  0  0  0  0  0  0  0
   -2.1321   -2.2086    0.9112 C   0  0  0  0  0  0  0  0  0  0  0  0
   -1.2751   -2.8426    1.5112 O   0  0  0  0  0  0  0  0  0  0  0  0
   -1.9041   -1.0186    0.3602 N   0  0  0  0  0  0  0  0  0  0  0  0
   -2.6671   -0.5416   -0.0988 H   0  0  0  0  0  0  0  0  0  0  0  0
   -0.6131   -0.3236    0.3832 C   0  0  1  0  0  0  0  0  0  0  0  0
    0.1749   -1.0459    0.1642 H   0  0  0  0  0  0  0  0  0  0  0  0
   -0.6005    0.7526   -0.7180 C   0  0  0  0  0  0  0  0  0  0  0  0
   -1.4657    1.4049   -0.5812 H   0  0  0  0  0  0  0  0  0  0  0  0
    0.3017    1.3579   -0.6193 H   0  0  0  0  0  0  0  0  0  0  0  0
   -0.6511    0.1766   -2.1378 C   0  0  0  0  0  0  0  0  0  0  0  0
   -1.5628   -0.4086   -2.2538 H   0  0  0  0  0  0  0  0  0  0  0  0
   -0.6712    1.0021   -2.8502 H   0  0  0  0  0  0  0  0  0  0  0  0
    0.7562   -0.8903   -2.5388 S   0  0  0  0  0  0  0  0  0  0  0  0
    2.0784    0.3470   -2.5891 C   0  0  0  0  0  0  0  0  0  0  0  0
    2.1616    0.8359   -1.6181 H   0  0  0  0  0  0  0  0  0  0  0  0
    3.0231   -0.1431   -2.8264 H   0  0  0  0  0  0  0  0  0  0  0  0
    1.8576    1.0904   -3.3556 H   0  0  0  0  0  0  0  0  0  0  0  0
   -0.3464    0.2681    1.7746 C   0  0  0  0  0  0  0  0  0  0  0  0
   -1.2643    0.3747    2.5854 O   0  0  0  0  0  0  0  0  0  0  0  0
    0.9046    0.6601    2.0478 N   0  0  0  0  0  0  0  0  0  0  0  0
    1.6077    0.5272    1.3385 H   0  0  0  0  0  0  0  0  0  0  0  0
    1.3143    1.2552    3.3189 C   0  0  0  0  0  0  0  0  0  0  0  0
    1.0843    0.5689    4.1373 H   0  0  0  0  0  0  0  0  0  0  0  0
    2.3853    1.4623    3.3141 H   0  0  0  0  0  0  0  0  0  0  0  0
    0.7669    2.1849    3.4836 H   0  0  0  0  0  0  0  0  0  0  0  0
  5  6  2  0  0  0  0
  5  7  1  0  0  0  0
  2  3  1  0  0  0  0
  2  4  1  0  0  0  0
  2  5  1  0  0  0  0
  1  2  1  0  0  0  0
 22 23  2  0  0  0  0
 22 24  1  0  0  0  0
 18 19  1  0  0  0  0
 18 20  1  0  0  0  0
 18 21  1  0  0  0  0
 17 18  1  0  0  0  0
 14 15  1  0  0  0  0
 14 16  1  0  0  0  0
 14 17  1  0  0  0  0
 11 12  1  0  0  0  0
 11 13  1  0  0  0  0
 11 14  1  0  0  0  0
  9 10  1  0  0  0  0
  9 11  1  0  0  0  0
  9 22  1  0  0  0  0
  7  8  1  0  0  0  0
  7  9  1  0  0  0  0
 26 27  1  0  0  0  0
 26 28  1  0  0  0  0
 26 29  1  0  0  0  0
 24 25  1  0  0  0  0
 24 26  1  0  0  0  0
M  END
$$$$
default_name
  -OEChem-01062215323D

 29 28  0     1  0  0  0  0  0999 V2000
   -3.5781   -3.7296    1.2702 H   0  0  0  0  0  0  0  0  0  0  0  0
   -3.5311   -2.7616    0.7732 C   0  0  0  0  0  0  0  0  0  0  0  0
   -4.2371   -2.0766    1.2382 H   0  0  0  0  0  0  0  0  0  0  0  0
   -3.7681   -2.8816   -0.2818 H   0  0  0  0  0  0  0  0  0  0  0  0
   -2.1321   -2.2086    0.9112 C   0  0  0  0  0  0  0  0  0  0  0  0
   -1.2751   -2.8426    1.5112 O   0  0  0  0  0  0  0  0  0  0  0  0
   -1.9041   -1.0186    0.3602 N   0  0  0  0  0  0  0  0  0  0  0  0
   -2.6671   -0.5416   -0.0988 H   0  0  0  0  0  0  0  0  0  0  0  0
   -0.6131   -0.3236    0.3832 C   0  0  1  0  0  0  0  0  0  0  0  0
    0.1346   -0.9625   -0.0894 H   0  0  0  0  0  0  0  0  0  0  0  0
   -0.7253    0.9751   -0.4365 C   0  0  0  0  0  0  0  0  0  0  0  0
   -1.5604    1.5632   -0.0499 H   0  0  0  0  0  0  0  0  0  0  0  0
    0.1883    1.5584   -0.3133 H   0  0  0  0  0  0  0  0  0  0  0  0
   -0.9562    0.7365   -1.9331 C   0  0  0  0  0  0  0  0  0  0  0  0
   -1.8812    0.1765   -2.0673 H   0  0  0  0  0  0  0  0  0  0  0  0
   -1.0555    1.7020   -2.4305 H   0  0  0  0  0  0  0  0  0  0  0  0
    0.3801   -0.1853   -2.7359 S   0  0  0  0  0  0  0  0  0  0  0  0
    1.6986    1.0550   -2.6638 C   0  0  0  0  0  0  0  0  0  0  0  0
    1.9057    1.3115   -1.6244 H   0  0  0  0  0  0  0  0  0  0  0  0
    2.6019    0.6492   -3.1202 H   0  0  0  0  0  0  0  0  0  0  0  0
    1.3926    1.9492   -3.2076 H   0  0  0  0  0  0  0  0  0  0  0  0
   -0.1711   -0.0594    1.8296 C   0  0  0  0  0  0  0  0  0  0  0  0
   -0.8826   -0.4159    2.7665 O   0  0  0  0  0  0  0  0  0  0  0  0
    0.9959    0.5718    2.0115 N   0  0  0  0  0  0  0  0  0  0  0  0
    1.5319    0.8201    1.1953 H   0  0  0  0  0  0  0  0  0  0  0  0
    1.5458    0.9087    3.3237 C   0  0  0  0  0  0  0  0  0  0  0  0
    1.6591   -0.0002    3.9192 H   0  0  0  0  0  0  0  0  0  0  0  0
    2.5182    1.3911    3.2159 H   0  0  0  0  0  0  0  0  0  0  0  0
    0.8642    1.5817    3.8469 H   0  0  0  0  0  0  0  0  0  0  0  0
  5  6  2  0  0  0  0
  5  7  1  0  0  0  0
  2  3  1  0  0  0  0
  2  4  1  0  0  0  0
  2  5  1  0  0  0  0
  1  2  1  0  0  0  0
 22 23  2  0  0  0  0
 22 24  1  0  0  0  0
 18 19  1  0  0  0  0
 18 20  1  0  0  0  0
 18 21  1  0  0  0  0
 17 18  1  0  0  0  0
 14 15  1  0  0  0  0
 14 16  1  0  0  0  0
 14 17  1  0  0  0  0
 11 12  1  0  0  0  0
 11 13  1  0  0  0  0
 11 14  1  0  0  0  0
  9 10  1  0  0  0  0
  9 11  1  0  0  0  0
  9 22  1  0  0  0  0
  7  8  1  0  0  0  0
  7  9  1  0  0  0  0
 26 27  1  0  0  0  0
 26 28  1  0  0  0  0
 26 29  1  0  0  0  0
 24 25  1  0  0  0  0
 24 26  1  0  0  0  0
M  END
$$$$
default_name
  -OEChem-01062215323D

 29 28  0     1  0  0  0  0  0999 V2000
   -3.5781   -3.7296    1.2702 H   0  0  0  0  0  0  0  0  0  0  0  0
   -3.5311   -2.7616    0.7732 C   0  0  0  0  0  0  0  0  0  0  0  0
   -4.2371   -2.0766    1.2382 H   0  0  0  0  0  0  0  0  0  0  0  0
   -3.7681   -2.8816   -0.2818 H   0  0  0  0  0  0  0  0  0  0  0  0
   -2.1321   -2.2086    0.9112 C   0  0  0  0  0  0  0  0  0  0  0  0
   -1.2751   -2.8426    1.5112 O   0  0  0  0  0  0  0  0  0  0  0  0
   -1.9041   -1.0186    0.3602 N   0  0  0  0  0  0  0  0  0  0  0  0
   -2.6671   -0.5416   -0.0988 H   0  0  0  0  0  0  0  0  0  0  0  0
   -0.6131   -0.3236    0.3832 C   0  0  1  0  0  0  0  0  0  0  0  0
    0.1346   -0.9625   -0.0894 H   0  0  0  0  0  0  0  0  0  0  0  0
   -0.7253    0.9751   -0.4365 C   0  0  0  0  0  0  0  0  0  0  0  0
   -1.5604    1.5632   -0.0499 H   0  0  0  0  0  0  0  0  0  0  0  0
    0.1883    1.5584   -0.3133 H   0  0  0  0  0  0  0  0  0  0  0  0
   -0.9562    0.7365   -1.9331 C   0  0  0  0  0  0  0  0  0  0  0  0
   -1.8812    0.1765   -2.0673 H   0  0  0  0  0  0  0  0  0  0  0  0
   -1.0555    1.7020   -2.4305 H   0  0  0  0  0  0  0  0  0  0  0  0
    0.3801   -0.1853   -2.7359 S   0  0  0  0  0  0  0  0  0  0  0  0
    1.6986    1.0550   -2.6638 C   0  0  0  0  0  0  0  0  0  0  0  0
    1.9057    1.3115   -1.6244 H   0  0  0  0  0  0  0  0  0  0  0  0
    2.6019    0.6492   -3.1202 H   0  0  0  0  0  0  0  0  0  0  0  0
    1.3926    1.9492   -3.2076 H   0  0  0  0  0  0  0  0  0  0  0  0
   -0.1711   -0.0594    1.8296 C   0  0  0  0  0  0  0  0  0  0  0  0
   -0.7237   -0.6435    2.7595 O   0  0  0  0  0  0  0  0  0  0  0  0
    0.8164    0.8250    2.0201 N   0  0  0  0  0  0  0  0  0  0  0  0
    1.2316    1.2529    1.2080 H   0  0  0  0  0  0  0  0  0  0  0  0
    1.3381    1.1952    3.3348 C   0  0  0  0  0  0  0  0  0  0  0  0
    1.7000    0.3031    3.8513 H   0  0  0  0  0  0  0  0  0  0  0  0
    2.1575    1.9078    3.2318 H   0  0  0  0  0  0  0  0  0  0  0  0
    0.5430    1.6425    3.9339 H   0  0  0  0  0  0  0  0  0  0  0  0
  5  6  2  0  0  0  0
  5  7  1  0  0  0  0
  2  3  1  0  0  0  0
  2  4  1  0  0  0  0
  2  5  1  0  0  0  0
  1  2  1  0  0  0  0
 22 23  2  0  0  0  0
 22 24  1  0  0  0  0
 18 19  1  0  0  0  0
 18 20  1  0  0  0  0
 18 21  1  0  0  0  0
 17 18  1  0  0  0  0
 14 15  1  0  0  0  0
 14 16  1  0  0  0  0
 14 17  1  0  0  0  0
 11 12  1  0  0  0  0
 11 13  1  0  0  0  0
 11 14  1  0  0  0  0
  9 10  1  0  0  0  0
  9 11  1  0  0  0  0
  9 22  1  0  0  0  0
  7  8  1  0  0  0  0
  7  9  1  0  0  0  0
 26 27  1  0  0  0  0
 26 28  1  0  0  0  0
 26 29  1  0  0  0  0
 24 25  1  0  0  0  0
 24 26  1  0  0  0  0
M  END
$$$$
default_name
  -OEChem-01062215323D

 29 28  0     1  0  0  0  0  0999 V2000
   -3.5781   -3.7296    1.2702 H   0  0  0  0  0  0  0  0  0  0  0  0
   -3.5311   -2.7616    0.7732 C   0  0  0  0  0  0  0  0  0  0  0  0
   -4.2371   -2.0766    1.2382 H   0  0  0  0  0  0  0  0  0  0  0  0
   -3.7681   -2.8816   -0.2818 H   0  0  0  0  0  0  0  0  0  0  0  0
   -2.1321   -2.2086    0.9112 C   0  0  0  0  0  0  0  0  0  0  0  0
   -1.2751   -2.8426    1.5112 O   0  0  0  0  0  0  0  0  0  0  0  0
   -1.9041   -1.0186    0.3602 N   0  0  0  0  0  0  0  0  0  0  0  0
   -2.6671   -0.5416   -0.0988 H   0  0  0  0  0  0  0  0  0  0  0  0
   -0.6131   -0.3236    0.3832 C   0  0  1  0  0  0  0  0  0  0  0  0
    0.1346   -0.9625   -0.0894 H   0  0  0  0  0  0  0  0  0  0  0  0
   -0.7253    0.9751   -0.4365 C   0  0  0  0  0  0  0  0  0  0  0  0
   -1.5604    1.5632   -0.0499 H   0  0  0  0  0  0  0  0  0  0  0  0
    0.1883    1.5584   -0.3133 H   0  0  0  0  0  0  0  0  0  0  0  0
   -0.9562    0.7365   -1.9331 C   0  0  0  0  0  0  0  0  0  0  0  0
   -1.8812    0.1765   -2.0673 H   0  0  0  0  0  0  0  0  0  0  0  0
   -1.0555    1.7020   -2.4305 H   0  0  0  0  0  0  0  0  0  0  0  0
    0.3801   -0.1853   -2.7359 S   0  0  0  0  0  0  0  0  0  0  0  0
    1.6986    1.0550   -2.6638 C   0  0  0  0  0  0  0  0  0  0  0  0
    1.9057    1.3115   -1.6244 H   0  0  0  0  0  0  0  0  0  0  0  0
    2.6019    0.6492   -3.1202 H   0  0  0  0  0  0  0  0  0  0  0  0
    1.3926    1.9492   -3.2076 H   0  0  0  0  0  0  0  0  0  0  0  0
   -0.1711   -0.0594    1.8296 C   0  0  0  0  0  0  0  0  0  0  0  0
   -0.5150   -0.8239    2.7287 O   0  0  0  0  0  0  0  0  0  0  0  0
    0.5816    1.0250    2.0553 N   0  0  0  0  0  0  0  0  0  0  0  0
    0.8366    1.5968    1.2659 H   0  0  0  0  0  0  0  0  0  0  0  0
    1.0681    1.4204    3.3761 C   0  0  0  0  0  0  0  0  0  0  0  0
    1.6625    0.6110    3.8065 H   0  0  0  0  0  0  0  0  0  0  0  0
    1.6838    2.3177    3.3016 H   0  0  0  0  0  0  0  0  0  0  0  0
    0.2217    1.6164    4.0368 H   0  0  0  0  0  0  0  0  0  0  0  0
  5  6  2  0  0  0  0
  5  7  1  0  0  0  0
  2  3  1  0  0  0  0
  2  4  1  0  0  0  0
  2  5  1  0  0  0  0
  1  2  1  0  0  0  0
 22 23  2  0  0  0  0
 22 24  1  0  0  0  0
 18 19  1  0  0  0  0
 18 20  1  0  0  0  0
 18 21  1  0  0  0  0
 17 18  1  0  0  0  0
 14 15  1  0  0  0  0
 14 16  1  0  0  0  0
 14 17  1  0  0  0  0
 11 12  1  0  0  0  0
 11 13  1  0  0  0  0
 11 14  1  0  0  0  0
  9 10  1  0  0  0  0
  9 11  1  0  0  0  0
  9 22  1  0  0  0  0
  7  8  1  0  0  0  0
  7  9  1  0  0  0  0
 26 27  1  0  0  0  0
 26 28  1  0  0  0  0
 26 29  1  0  0  0  0
 24 25  1  0  0  0  0
 24 26  1  0  0  0  0
M  END
$$$$
default_name
  -OEChem-01062215323D

 29 28  0     1  0  0  0  0  0999 V2000
   -3.5781   -3.7296    1.2702 H   0  0  0  0  0  0  0  0  0  0  0  0
   -3.5311   -2.7616    0.7732 C   0  0  0  0  0  0  0  0  0  0  0  0
   -4.2371   -2.0766    1.2382 H   0  0  0  0  0  0  0  0  0  0  0  0
   -3.7681   -2.8816   -0.2818 H   0  0  0  0  0  0  0  0  0  0  0  0
   -2.1321   -2.2086    0.9112 C   0  0  0  0  0  0  0  0  0  0  0  0
   -1.2751   -2.8426    1.5112 O   0  0  0  0  0  0  0  0  0  0  0  0
   -1.9041   -1.0186    0.3602 N   0  0  0  0  0  0  0  0  0  0  0  0
   -2.6671   -0.5416   -0.0988 H   0  0  0  0  0  0  0  0  0  0  0  0
   -0.6131   -0.3236    0.3832 C   0  0  1  0  0  0  0  0  0  0  0  0
    0.1346   -0.9625   -0.0894 H   0  0  0  0  0  0  0  0  0  0  0  0
   -0.7253    0.9751   -0.4365 C   0  0  0  0  0  0  0  0  0  0  0  0
   -1.5604    1.5632   -0.0499 H   0  0  0  0  0  0  0  0  0  0  0  0
    0.1883    1.5584   -0.3133 H   0  0  0  0  0  0  0  0  0  0  0  0
   -0.9562    0.7365   -1.9331 C   0  0  0  0  0  0  0  0  0  0  0  0
   -1.8812    0.1765   -2.0673 H   0  0  0  0  0  0  0  0  0  0  0  0
   -1.0555    1.7020   -2.4305 H   0  0  0  0  0  0  0  0  0  0  0  0
    0.3801   -0.1853   -2.7359 S   0  0  0  0  0  0  0  0  0  0  0  0
    1.6986    1.0550   -2.6638 C   0  0  0  0  0  0  0  0  0  0  0  0
    1.9057    1.3115   -1.6244 H   0  0  0  0  0  0  0  0  0  0  0  0
    2.6019    0.6492   -3.1202 H   0  0  0  0  0  0  0  0  0  0  0  0
    1.3926    1.9492   -3.2076 H   0  0  0  0  0  0  0  0  0  0  0  0
   -0.1711   -0.0594    1.8296 C   0  0  0  0  0  0  0  0  0  0  0  0
   -0.2707   -0.9451    2.6762 O   0  0  0  0  0  0  0  0  0  0  0  0
    0.3077    1.1584    2.1146 N   0  0  0  0  0  0  0  0  0  0  0  0
    0.3737    1.8283    1.3650 H   0  0  0  0  0  0  0  0  0  0  0  0
    0.7542    1.5691    3.4449 C   0  0  0  0  0  0  0  0  0  0  0  0
    1.5492    0.9027    3.7879 H   0  0  0  0  0  0  0  0  0  0  0  0
    1.1294    2.5930    3.4207 H   0  0  0  0  0  0  0  0  0  0  0  0
   -0.0776    1.5052    4.1486 H   0  0  0  0  0  0  0  0  0  0  0  0
  5  6  2  0  0  0  0
  5  7  1  0  0  0  0
  2  3  1  0  0  0  0
  2  4  1  0  0  0  0
  2  5  1  0  0  0  0
  1  2  1  0  0  0  0
 22 23  2  0  0  0  0
 22 24  1  0  0  0  0
 18 19  1  0  0  0  0
 18 20  1  0  0  0  0
 18 21  1  0  0  0  0
 17 18  1  0  0  0  0
 14 15  1  0  0  0  0
 14 16  1  0  0  0  0
 14 17  1  0  0  0  0
 11 12  1  0  0  0  0
 11 13  1  0  0  0  0
 11 14  1  0  0  0  0
  9 10  1  0  0  0  0
  9 11  1  0  0  0  0
  9 22  1  0  0  0  0
  7  8  1  0  0  0  0
  7  9  1  0  0  0  0
 26 27  1  0  0  0  0
 26 28  1  0  0  0  0
 26 29  1  0  0  0  0
 24 25  1  0  0  0  0
 24 26  1  0  0  0  0
M  END
$$$$
default_name
  -OEChem-01062215323D

 29 28  0     1  0  0  0  0  0999 V2000
   -3.5781   -3.7296    1.2702 H   0  0  0  0  0  0  0  0  0  0  0  0
   -3.5311   -2.7616    0.7732 C   0  0  0  0  0  0  0  0  0  0  0  0
   -4.2371   -2.0766    1.2382 H   0  0  0  0  0  0  0  0  0  0  0  0
   -3.7681   -2.8816   -0.2818 H   0  0  0  0  0  0  0  0  0  0  0  0
   -2.1321   -2.2086    0.9112 C   0  0  0  0  0  0  0  0  0  0  0  0
   -1.2751   -2.8426    1.5112 O   0  0  0  0  0  0  0  0  0  0  0  0
   -1.9041   -1.0186    0.3602 N   0  0  0  0  0  0  0  0  0  0  0  0
   -2.6671   -0.5416   -0.0988 H   0  0  0  0  0  0  0  0  0  0  0  0
   -0.6131   -0.3236    0.3832 C   0  0  1  0  0  0  0  0  0  0  0  0
    0.1346   -0.9625   -0.0894 H   0  0  0  0  0  0  0  0  0  0  0  0
   -0.7253    0.9751   -0.4365 C   0  0  0  0  0  0  0  0  0  0  0  0
   -1.5604    1.5632   -0.0499 H   0  0  0  0  0  0  0  0  0  0  0  0
    0.1883    1.5584   -0.3133 H   0  0  0  0  0  0  0  0  0  0  0  0
   -0.9562    0.7365   -1.9331 C   0  0  0  0  0  0  0  0  0  0  0  0
   -1.8812    0.1765   -2.0673 H   0  0  0  0  0  0  0  0  0  0  0  0
   -1.0555    1.7020   -2.4305 H   0  0  0  0  0  0  0  0  0  0  0  0
    0.3801   -0.1853   -2.7359 S   0  0  0  0  0  0  0  0  0  0  0  0
    1.6986    1.0550   -2.6638 C   0  0  0  0  0  0  0  0  0  0  0  0
    1.9057    1.3115   -1.6244 H   0  0  0  0  0  0  0  0  0  0  0  0
    2.6019    0.6492   -3.1202 H   0  0  0  0  0  0  0  0  0  0  0  0
    1.3926    1.9492   -3.2076 H   0  0  0  0  0  0  0  0  0  0  0  0
   -0.1711   -0.0594    1.8296 C   0  0  0  0  0  0  0  0  0  0  0  0
   -0.0076   -0.9987    2.6056 O   0  0  0  0  0  0  0  0  0  0  0  0
    0.0131    1.2160    2.1941 N   0  0  0  0  0  0  0  0  0  0  0  0
   -0.1254    1.9317    1.4986 H   0  0  0  0  0  0  0  0  0  0  0  0
    0.4179    1.6310    3.5364 C   0  0  0  0  0  0  0  0  0  0  0  0
    1.3678    1.1581    3.7966 H   0  0  0  0  0  0  0  0  0  0  0  0
    0.5321    2.7149    3.5810 H   0  0  0  0  0  0  0  0  0  0  0  0
   -0.3347    1.3165    4.2616 H   0  0  0  0  0  0  0  0  0  0  0  0
  5  6  2  0  0  0  0
  5  7  1  0  0  0  0
  2  3  1  0  0  0  0
  2  4  1  0  0  0  0
  2  5  1  0  0  0  0
  1  2  1  0  0  0  0
 22 23  2  0  0  0  0
 22 24  1  0  0  0  0
 18 19  1  0  0  0  0
 18 20  1  0  0  0  0
 18 21  1  0  0  0  0
 17 18  1  0  0  0  0
 14 15  1  0  0  0  0
 14 16  1  0  0  0  0
 14 17  1  0  0  0  0
 11 12  1  0  0  0  0
 11 13  1  0  0  0  0
 11 14  1  0  0  0  0
  9 10  1  0  0  0  0
  9 11  1  0  0  0  0
  9 22  1  0  0  0  0
  7  8  1  0  0  0  0
  7  9  1  0  0  0  0
 26 27  1  0  0  0  0
 26 28  1  0  0  0  0
 26 29  1  0  0  0  0
 24 25  1  0  0  0  0
 24 26  1  0  0  0  0
M  END
$$$$
default_name
  -OEChem-01062215323D

 29 28  0     1  0  0  0  0  0999 V2000
   -3.5781   -3.7296    1.2702 H   0  0  0  0  0  0  0  0  0  0  0  0
   -3.5311   -2.7616    0.7732 C   0  0  0  0  0  0  0  0  0  0  0  0
   -4.2371   -2.0766    1.2382 H   0  0  0  0  0  0  0  0  0  0  0  0
   -3.7681   -2.8816   -0.2818 H   0  0  0  0  0  0  0  0  0  0  0  0
   -2.1321   -2.2086    0.9112 C   0  0  0  0  0  0  0  0  0  0  0  0
   -1.2751   -2.8426    1.5112 O   0  0  0  0  0  0  0  0  0  0  0  0
   -1.9041   -1.0186    0.3602 N   0  0  0  0  0  0  0  0  0  0  0  0
   -2.6671   -0.5416   -0.0988 H   0  0  0  0  0  0  0  0  0  0  0  0
   -0.6131   -0.3236    0.3832 C   0  0  1  0  0  0  0  0  0  0  0  0
    0.1346   -0.9625   -0.0894 H   0  0  0  0  0  0  0  0  0  0  0  0
   -0.7253    0.9751   -0.4365 C   0  0  0  0  0  0  0  0  0  0  0  0
   -1.5604    1.5632   -0.0499 H   0  0  0  0  0  0  0  0  0  0  0  0
    0.1883    1.5584   -0.3133 H   0  0  0  0  0  0  0  0  0  0  0  0
   -0.9562    0.7365   -1.9331 C   0  0  0  0  0  0  0  0  0  0  0  0
   -1.8812    0.1765   -2.0673 H   0  0  0  0  0  0  0  0  0  0  0  0
   -1.0555    1.7020   -2.4305 H   0  0  0  0  0  0  0  0  0  0  0  0
    0.3801   -0.1853   -2.7359 S   0  0  0  0  0  0  0  0  0  0  0  0
    1.6986    1.0550   -2.6638 C   0  0  0  0  0  0  0  0  0  0  0  0
    1.9057    1.3115   -1.6244 H   0  0  0  0  0  0  0  0  0  0  0  0
    2.6019    0.6492   -3.1202 H   0  0  0  0  0  0  0  0  0  0  0  0
    1.3926    1.9492   -3.2076 H   0  0  0  0  0  0  0  0  0  0  0  0
   -0.1711   -0.0594    1.8296 C   0  0  0  0  0  0  0  0  0  0  0  0
    0.2565   -0.9810    2.5217 O   0  0  0  0  0  0  0  0  0  0  0  0
   -0.2818    1.1940    2.2882 N   0  0  0  0  0  0  0  0  0  0  0  0
   -0.6267    1.9000    1.6576 H   0  0  0  0  0  0  0  0  0  0  0  0
    0.0820    1.6020    3.6443 C   0  0  0  0  0  0  0  0  0  0  0  0
    1.1307    1.3600    3.8322 H   0  0  0  0  0  0  0  0  0  0  0  0
   -0.0674    2.6750    3.7714 H   0  0  0  0  0  0  0  0  0  0  0  0
   -0.5319    1.0631    4.3682 H   0  0  0  0  0  0  0  0  0  0  0  0
  5  6  2  0  0  0  0
  5  7  1  0  0  0  0
  2  3  1  0  0  0  0
  2  4  1  0  0  0  0
  2  5  1  0  0  0  0
  1  2  1  0  0  0  0
 22 23  2  0  0  0  0
 22 24  1  0  0  0  0
 18 19  1  0  0  0  0
 18 20  1  0  0  0  0
 18 21  1  0  0  0  0
 17 18  1  0  0  0  0
 14 15  1  0  0  0  0
 14 16  1  0  0  0  0
 14 17  1  0  0  0  0
 11 12  1  0  0  0  0
 11 13  1  0  0  0  0
 11 14  1  0  0  0  0
  9 10  1  0  0  0  0
  9 11  1  0  0  0  0
  9 22  1  0  0  0  0
  7  8  1  0  0  0  0
  7  9  1  0  0  0  0
 26 27  1  0  0  0  0
 26 28  1  0  0  0  0
 26 29  1  0  0  0  0
 24 25  1  0  0  0  0
 24 26  1  0  0  0  0
M  END
$$$$
default_name
  -OEChem-01062215323D

 29 28  0     1  0  0  0  0  0999 V2000
   -3.5781   -3.7296    1.2702 H   0  0  0  0  0  0  0  0  0  0  0  0
   -3.5311   -2.7616    0.7732 C   0  0  0  0  0  0  0  0  0  0  0  0
   -4.2371   -2.0766    1.2382 H   0  0  0  0  0  0  0  0  0  0  0  0
   -3.7681   -2.8816   -0.2818 H   0  0  0  0  0  0  0  0  0  0  0  0
   -2.1321   -2.2086    0.9112 C   0  0  0  0  0  0  0  0  0  0  0  0
   -1.2751   -2.8426    1.5112 O   0  0  0  0  0  0  0  0  0  0  0  0
   -1.9041   -1.0186    0.3602 N   0  0  0  0  0  0  0  0  0  0  0  0
   -2.6671   -0.5416   -0.0988 H   0  0  0  0  0  0  0  0  0  0  0  0
   -0.6131   -0.3236    0.3832 C   0  0  1  0  0  0  0  0  0  0  0  0
    0.1346   -0.9625   -0.0894 H   0  0  0  0  0  0  0  0  0  0  0  0
   -0.7253    0.9751   -0.4365 C   0  0  0  0  0  0  0  0  0  0  0  0
   -1.5604    1.5632   -0.0499 H   0  0  0  0  0  0  0  0  0  0  0  0
    0.1883    1.5584   -0.3133 H   0  0  0  0  0  0  0  0  0  0  0  0
   -0.9562    0.7365   -1.9331 C   0  0  0  0  0  0  0  0  0  0  0  0
   -1.8812    0.1765   -2.0673 H   0  0  0  0  0  0  0  0  0  0  0  0
   -1.0555    1.7020   -2.4305 H   0  0  0  0  0  0  0  0  0  0  0  0
    0.3801   -0.1853   -2.7359 S   0  0  0  0  0  0  0  0  0  0  0  0
    1.6986    1.0550   -2.6638 C   0  0  0  0  0  0  0  0  0  0  0  0
    1.9057    1.3115   -1.6244 H   0  0  0  0  0  0  0  0  0  0  0  0
    2.6019    0.6492   -3.1202 H   0  0  0  0  0  0  0  0  0  0  0  0
    1.3926    1.9492   -3.2076 H   0  0  0  0  0  0  0  0  0  0  0  0
   -0.1711   -0.0594    1.8296 C   0  0  0  0  0  0  0  0  0  0  0  0
    0.5035   -0.8933    2.4302 O   0  0  0  0  0  0  0  0  0  0  0  0
   -0.5572    1.0937    2.3907 N   0  0  0  0  0  0  0  0  0  0  0  0
   -1.0962    1.7352    1.8311 H   0  0  0  0  0  0  0  0  0  0  0  0
   -0.2306    1.4840    3.7613 C   0  0  0  0  0  0  0  0  0  0  0  0
    0.8540    1.4946    3.8922 H   0  0  0  0  0  0  0  0  0  0  0  0
   -0.6284    2.4761    3.9791 H   0  0  0  0  0  0  0  0  0  0  0  0
   -0.6559    0.7623    4.4610 H   0  0  0  0  0  0  0  0  0  0  0  0
  5  6  2  0  0  0  0
  5  7  1  0  0  0  0
  2  3  1  0  0  0  0
  2  4  1  0  0  0  0
  2  5  1  0  0  0  0
  1  2  1  0  0  0  0
 22 23  2  0  0  0  0
 22 24  1  0  0  0  0
 18 19  1  0  0  0  0
 18 20  1  0  0  0  0
 18 21  1  0  0  0  0
 17 18  1  0  0  0  0
 14 15  1  0  0  0  0
 14 16  1  0  0  0  0
 14 17  1  0  0  0  0
 11 12  1  0  0  0  0
 11 13  1  0  0  0  0
 11 14  1  0  0  0  0
  9 10  1  0  0  0  0
  9 11  1  0  0  0  0
  9 22  1  0  0  0  0
  7  8  1  0  0  0  0
  7  9  1  0  0  0  0
 26 27  1  0  0  0  0
 26 28  1  0  0  0  0
 26 29  1  0  0  0  0
 24 25  1  0  0  0  0
 24 26  1  0  0  0  0
M  END
$$$$
default_name
  -OEChem-01062215323D

 29 28  0     1  0  0  0  0  0999 V2000
   -3.5781   -3.7296    1.2702 H   0  0  0  0  0  0  0  0  0  0  0  0
   -3.5311   -2.7616    0.7732 C   0  0  0  0  0  0  0  0  0  0  0  0
   -4.2371   -2.0766    1.2382 H   0  0  0  0  0  0  0  0  0  0  0  0
   -3.7681   -2.8816   -0.2818 H   0  0  0  0  0  0  0  0  0  0  0  0
   -2.1321   -2.2086    0.9112 C   0  0  0  0  0  0  0  0  0  0  0  0
   -1.2751   -2.8426    1.5112 O   0  0  0  0  0  0  0  0  0  0  0  0
   -1.9041   -1.0186    0.3602 N   0  0  0  0  0  0  0  0  0  0  0  0
   -2.6671   -0.5416   -0.0988 H   0  0  0  0  0  0  0  0  0  0  0  0
   -0.6131   -0.3236    0.3832 C   0  0  1  0  0  0  0  0  0  0  0  0
    0.1346   -0.9625   -0.0894 H   0  0  0  0  0  0  0  0  0  0  0  0
   -0.7253    0.9751   -0.4365 C   0  0  0  0  0  0  0  0  0  0  0  0
   -1.5604    1.5632   -0.0499 H   0  0  0  0  0  0  0  0  0  0  0  0
    0.1883    1.5584   -0.3133 H   0  0  0  0  0  0  0  0  0  0  0  0
   -0.9562    0.7365   -1.9331 C   0  0  0  0  0  0  0  0  0  0  0  0
   -1.8812    0.1765   -2.0673 H   0  0  0  0  0  0  0  0  0  0  0  0
   -1.0555    1.7020   -2.4305 H   0  0  0  0  0  0  0  0  0  0  0  0
    0.3801   -0.1853   -2.7359 S   0  0  0  0  0  0  0  0  0  0  0  0
    1.6986    1.0550   -2.6638 C   0  0  0  0  0  0  0  0  0  0  0  0
    1.9057    1.3115   -1.6244 H   0  0  0  0  0  0  0  0  0  0  0  0
    2.6019    0.6492   -3.1202 H   0  0  0  0  0  0  0  0  0  0  0  0
    1.3926    1.9492   -3.2076 H   0  0  0  0  0  0  0  0  0  0  0  0
   -0.1711   -0.0594    1.8296 C   0  0  0  0  0  0  0  0  0  0  0  0
    0.7166   -0.7415    2.3374 O   0  0  0  0  0  0  0  0  0  0  0  0
   -0.7942    0.9221    2.4944 N   0  0  0  0  0  0  0  0  0  0  0  0
   -1.5017    1.4486    2.0074 H   0  0  0  0  0  0  0  0  0  0  0  0
   -0.4986    1.2852    3.8796 C   0  0  0  0  0  0  0  0  0  0  0  0
    0.5566    1.5526    3.9724 H   0  0  0  0  0  0  0  0  0  0  0  0
   -1.1124    2.1318    4.1899 H   0  0  0  0  0  0  0  0  0  0  0  0
   -0.6982    0.4346    4.5338 H   0  0  0  0  0  0  0  0  0  0  0  0
  5  6  2  0  0  0  0
  5  7  1  0  0  0  0
  2  3  1  0  0  0  0
  2  4  1  0  0  0  0
  2  5  1  0  0  0  0
  1  2  1  0  0  0  0
 22 23  2  0  0  0  0
 22 24  1  0  0  0  0
 18 19  1  0  0  0  0
 18 20  1  0  0  0  0
 18 21  1  0  0  0  0
 17 18  1  0  0  0  0
 14 15  1  0  0  0  0
 14 16  1  0  0  0  0
 14 17  1  0  0  0  0
 11 12  1  0  0  0  0
 11 13  1  0  0  0  0
 11 14  1  0  0  0  0
  9 10  1  0  0  0  0
  9 11  1  0  0  0  0
  9 22  1  0  0  0  0
  7  8  1  0  0  0  0
  7  9  1  0  0  0  0
 26 27  1  0  0  0  0
 26 28  1  0  0  0  0
 26 29  1  0  0  0  0
 24 25  1  0  0  0  0
 24 26  1  0  0  0  0
M  END
$$$$
default_name
  -OEChem-01062215323D

 29 28  0     1  0  0  0  0  0999 V2000
   -3.5781   -3.7296    1.2702 H   0  0  0  0  0  0  0  0  0  0  0  0
   -3.5311   -2.7616    0.7732 C   0  0  0  0  0  0  0  0  0  0  0  0
   -4.2371   -2.0766    1.2382 H   0  0  0  0  0  0  0  0  0  0  0  0
   -3.7681   -2.8816   -0.2818 H   0  0  0  0  0  0  0  0  0  0  0  0
   -2.1321   -2.2086    0.9112 C   0  0  0  0  0  0  0  0  0  0  0  0
   -1.2751   -2.8426    1.5112 O   0  0  0  0  0  0  0  0  0  0  0  0
   -1.9041   -1.0186    0.3602 N   0  0  0  0  0  0  0  0  0  0  0  0
   -2.6671   -0.5416   -0.0988 H   0  0  0  0  0  0  0  0  0  0  0  0
   -0.6131   -0.3236    0.3832 C   0  0  1  0  0  0  0  0  0  0  0  0
    0.1346   -0.9625   -0.0894 H   0  0  0  0  0  0  0  0  0  0  0  0
   -0.7253    0.9751   -0.4365 C   0  0  0  0  0  0  0  0  0  0  0  0
   -1.5604    1.5632   -0.0499 H   0  0  0  0  0  0  0  0  0  0  0  0
    0.1883    1.5584   -0.3133 H   0  0  0  0  0  0  0  0  0  0  0  0
   -0.9562    0.7365   -1.9331 C   0  0  0  0  0  0  0  0  0  0  0  0
   -1.8812    0.1765   -2.0673 H   0  0  0  0  0  0  0  0  0  0  0  0
   -1.0555    1.7020   -2.4305 H   0  0  0  0  0  0  0  0  0  0  0  0
    0.3801   -0.1853   -2.7359 S   0  0  0  0  0  0  0  0  0  0  0  0
    1.6986    1.0550   -2.6638 C   0  0  0  0  0  0  0  0  0  0  0  0
    1.9057    1.3115   -1.6244 H   0  0  0  0  0  0  0  0  0  0  0  0
    2.6019    0.6492   -3.1202 H   0  0  0  0  0  0  0  0  0  0  0  0
    1.3926    1.9492   -3.2076 H   0  0  0  0  0  0  0  0  0  0  0  0
   -0.1711   -0.0594    1.8296 C   0  0  0  0  0  0  0  0  0  0  0  0
    0.8814   -0.5360    2.2495 O   0  0  0  0  0  0  0  0  0  0  0  0
   -0.9766    0.6908    2.5924 N   0  0  0  0  0  0  0  0  0  0  0  0
   -1.8158    1.0598    2.1743 H   0  0  0  0  0  0  0  0  0  0  0  0
   -0.7037    1.0189    3.9909 C   0  0  0  0  0  0  0  0  0  0  0  0
    0.2588    1.5302    4.0675 H   0  0  0  0  0  0  0  0  0  0  0  0
   -1.4866    1.6654    4.3895 H   0  0  0  0  0  0  0  0  0  0  0  0
   -0.6559    0.1023    4.5816 H   0  0  0  0  0  0  0  0  0  0  0  0
  5  6  2  0  0  0  0
  5  7  1  0  0  0  0
  2  3  1  0  0  0  0
  2  4  1  0  0  0  0
  2  5  1  0  0  0  0
  1  2  1  0  0  0  0
 22 23  2  0  0  0  0
 22 24  1  0  0  0  0
 18 19  1  0  0  0  0
 18 20  1  0  0  0  0
 18 21  1  0  0  0  0
 17 18  1  0  0  0  0
 14 15  1  0  0  0  0
 14 16  1  0  0  0  0
 14 17  1  0  0  0  0
 11 12  1  0  0  0  0
 11 13  1  0  0  0  0
 11 14  1  0  0  0  0
  9 10  1  0  0  0  0
  9 11  1  0  0  0  0
  9 22  1  0  0  0  0
  7  8  1  0  0  0  0
  7  9  1  0  0  0  0
 26 27  1  0  0  0  0
 26 28  1  0  0  0  0
 26 29  1  0  0  0  0
 24 25  1  0  0  0  0
 24 26  1  0  0  0  0
M  END
$$$$
default_name
  -OEChem-01062215323D

 29 28  0     1  0  0  0  0  0999 V2000
   -3.5781   -3.7296    1.2702 H   0  0  0  0  0  0  0  0  0  0  0  0
   -3.5311   -2.7616    0.7732 C   0  0  0  0  0  0  0  0  0  0  0  0
   -4.2371   -2.0766    1.2382 H   0  0  0  0  0  0  0  0  0  0  0  0
   -3.7681   -2.8816   -0.2818 H   0  0  0  0  0  0  0  0  0  0  0  0
   -2.1321   -2.2086    0.9112 C   0  0  0  0  0  0  0  0  0  0  0  0
   -1.2751   -2.8426    1.5112 O   0  0  0  0  0  0  0  0  0  0  0  0
   -1.9041   -1.0186    0.3602 N   0  0  0  0  0  0  0  0  0  0  0  0
   -2.6671   -0.5416   -0.0988 H   0  0  0  0  0  0  0  0  0  0  0  0
   -0.6131   -0.3236    0.3832 C   0  0  1  0  0  0  0  0  0  0  0  0
    0.1346   -0.9625   -0.0894 H   0  0  0  0  0  0  0  0  0  0  0  0
   -0.7253    0.9751   -0.4365 C   0  0  0  0  0  0  0  0  0  0  0  0
   -1.5604    1.5632   -0.0499 H   0  0  0  0  0  0  0  0  0  0  0  0
    0.1883    1.5584   -0.3133 H   0  0  0  0  0  0  0  0  0  0  0  0
   -0.9562    0.7365   -1.9331 C   0  0  0  0  0  0  0  0  0  0  0  0
   -1.8812    0.1765   -2.0673 H   0  0  0  0  0  0  0  0  0  0  0  0
   -1.0555    1.7020   -2.4305 H   0  0  0  0  0  0  0  0  0  0  0  0
    0.3801   -0.1853   -2.7359 S   0  0  0  0  0  0  0  0  0  0  0  0
    1.6986    1.0550   -2.6638 C   0  0  0  0  0  0  0  0  0  0  0  0
    1.9057    1.3115   -1.6244 H   0  0  0  0  0  0  0  0  0  0  0  0
    2.6019    0.6492   -3.1202 H   0  0  0  0  0  0  0  0  0  0  0  0
    1.3926    1.9492   -3.2076 H   0  0  0  0  0  0  0  0  0  0  0  0
   -0.1711   -0.0594    1.8296 C   0  0  0  0  0  0  0  0  0  0  0  0
    0.9865   -0.2908    2.1726 O   0  0  0  0  0  0  0  0  0  0  0  0
   -1.0921    0.4156    2.6780 N   0  0  0  0  0  0  0  0  0  0  0  0
   -2.0168    0.5953    2.3206 H   0  0  0  0  0  0  0  0  0  0  0  0
   -0.8319    0.7034    4.0877 C   0  0  0  0  0  0  0  0  0  0  0  0
   -0.0192    1.4288    4.1710 H   0  0  0  0  0  0  0  0  0  0  0  0
   -1.7255    1.1088    4.5641 H   0  0  0  0  0  0  0  0  0  0  0  0
   -0.5319   -0.2118    4.6011 H   0  0  0  0  0  0  0  0  0  0  0  0
  5  6  2  0  0  0  0
  5  7  1  0  0  0  0
  2  3  1  0  0  0  0
  2  4  1  0  0  0  0
  2  5  1  0  0  0  0
  1  2  1  0  0  0  0
 22 23  2  0  0  0  0
 22 24  1  0  0  0  0
 18 19  1  0  0  0  0
 18 20  1  0  0  0  0
 18 21  1  0  0  0  0
 17 18  1  0  0  0  0
 14 15  1  0  0  0  0
 14 16  1  0  0  0  0
 14 17  1  0  0  0  0
 11 12  1  0  0  0  0
 11 13  1  0  0  0  0
 11 14  1  0  0  0  0
  9 10  1  0  0  0  0
  9 11  1  0  0  0  0
  9 22  1  0  0  0  0
  7  8  1  0  0  0  0
  7  9  1  0  0  0  0
 26 27  1  0  0  0  0
 26 28  1  0  0  0  0
 26 29  1  0  0  0  0
 24 25  1  0  0  0  0
 24 26  1  0  0  0  0
M  END
$$$$
default_name
  -OEChem-01062215323D

 29 28  0     1  0  0  0  0  0999 V2000
   -3.5781   -3.7296    1.2702 H   0  0  0  0  0  0  0  0  0  0  0  0
   -3.5311   -2.7616    0.7732 C   0  0  0  0  0  0  0  0  0  0  0  0
   -4.2371   -2.0766    1.2382 H   0  0  0  0  0  0  0  0  0  0  0  0
   -3.7681   -2.8816   -0.2818 H   0  0  0  0  0  0  0  0  0  0  0  0
   -2.1321   -2.2086    0.9112 C   0  0  0  0  0  0  0  0  0  0  0  0
   -1.2751   -2.8426    1.5112 O   0  0  0  0  0  0  0  0  0  0  0  0
   -1.9041   -1.0186    0.3602 N   0  0  0  0  0  0  0  0  0  0  0  0
   -2.6671   -0.5416   -0.0988 H   0  0  0  0  0  0  0  0  0  0  0  0
   -0.6131   -0.3236    0.3832 C   0  0  1  0  0  0  0  0  0  0  0  0
    0.1346   -0.9625   -0.0894 H   0  0  0  0  0  0  0  0  0  0  0  0
   -0.7253    0.9751   -0.4365 C   0  0  0  0  0  0  0  0  0  0  0  0
   -1.5604    1.5632   -0.0499 H   0  0  0  0  0  0  0  0  0  0  0  0
    0.1883    1.5584   -0.3133 H   0  0  0  0  0  0  0  0  0  0  0  0
   -0.9562    0.7365   -1.9331 C   0  0  0  0  0  0  0  0  0  0  0  0
   -1.8812    0.1765   -2.0673 H   0  0  0  0  0  0  0  0  0  0  0  0
   -1.0555    1.7020   -2.4305 H   0  0  0  0  0  0  0  0  0  0  0  0
    0.3801   -0.1853   -2.7359 S   0  0  0  0  0  0  0  0  0  0  0  0
    1.6986    1.0550   -2.6638 C   0  0  0  0  0  0  0  0  0  0  0  0
    1.9057    1.3115   -1.6244 H   0  0  0  0  0  0  0  0  0  0  0  0
    2.6019    0.6492   -3.1202 H   0  0  0  0  0  0  0  0  0  0  0  0
    1.3926    1.9492   -3.2076 H   0  0  0  0  0  0  0  0  0  0  0  0
   -0.1711   -0.0594    1.8296 C   0  0  0  0  0  0  0  0  0  0  0  0
    1.0248   -0.0226    2.1119 O   0  0  0  0  0  0  0  0  0  0  0  0
   -1.1327    0.1153    2.7452 N   0  0  0  0  0  0  0  0  0  0  0  0
   -2.0912    0.0866    2.4363 H   0  0  0  0  0  0  0  0  0  0  0  0
   -0.8745    0.3602    4.1634 C   0  0  0  0  0  0  0  0  0  0  0  0
   -0.2584    1.2554    4.2757 H   0  0  0  0  0  0  0  0  0  0  0  0
   -1.8127    0.5000    4.7020 H   0  0  0  0  0  0  0  0  0  0  0  0
   -0.3347   -0.4865    4.5910 H   0  0  0  0  0  0  0  0  0  0  0  0
  5  6  2  0  0  0  0
  5  7  1  0  0  0  0
  2  3  1  0  0  0  0
  2  4  1  0  0  0  0
  2  5  1  0  0  0  0
  1  2  1  0  0  0  0
 22 23  2  0  0  0  0
 22 24  1  0  0  0  0
 18 19  1  0  0  0  0
 18 20  1  0  0  0  0
 18 21  1  0  0  0  0
 17 18  1  0  0  0  0
 14 15  1  0  0  0  0
 14 16  1  0  0  0  0
 14 17  1  0  0  0  0
 11 12  1  0  0  0  0
 11 13  1  0  0  0  0
 11 14  1  0  0  0  0
  9 10  1  0  0  0  0
  9 11  1  0  0  0  0
  9 22  1  0  0  0  0
  7  8  1  0  0  0  0
  7  9  1  0  0  0  0
 26 27  1  0  0  0  0
 26 28  1  0  0  0  0
 26 29  1  0  0  0  0
 24 25  1  0  0  0  0
 24 26  1  0  0  0  0
M  END
$$$$
default_name
  -OEChem-01062215323D

 29 28  0     1  0  0  0  0  0999 V2000
   -3.5781   -3.7296    1.2702 H   0  0  0  0  0  0  0  0  0  0  0  0
   -3.5311   -2.7616    0.7732 C   0  0  0  0  0  0  0  0  0  0  0  0
   -4.2371   -2.0766    1.2382 H   0  0  0  0  0  0  0  0  0  0  0  0
   -3.7681   -2.8816   -0.2818 H   0  0  0  0  0  0  0  0  0  0  0  0
   -2.1321   -2.2086    0.9112 C   0  0  0  0  0  0  0  0  0  0  0  0
   -1.2751   -2.8426    1.5112 O   0  0  0  0  0  0  0  0  0  0  0  0
   -1.9041   -1.0186    0.3602 N   0  0  0  0  0  0  0  0  0  0  0  0
   -2.6671   -0.5416   -0.0988 H   0  0  0  0  0  0  0  0  0  0  0  0
   -0.6131   -0.3236    0.3832 C   0  0  1  0  0  0  0  0  0  0  0  0
    0.1346   -0.9625   -0.0894 H   0  0  0  0  0  0  0  0  0  0  0  0
   -0.7253    0.9751   -0.4365 C   0  0  0  0  0  0  0  0  0  0  0  0
   -1.5604    1.5632   -0.0499 H   0  0  0  0  0  0  0  0  0  0  0  0
    0.1883    1.5584   -0.3133 H   0  0  0  0  0  0  0  0  0  0  0  0
   -0.9562    0.7365   -1.9331 C   0  0  0  0  0  0  0  0  0  0  0  0
   -1.8812    0.1765   -2.0673 H   0  0  0  0  0  0  0  0  0  0  0  0
   -1.0555    1.7020   -2.4305 H   0  0  0  0  0  0  0  0  0  0  0  0
    0.3801   -0.1853   -2.7359 S   0  0  0  0  0  0  0  0  0  0  0  0
    1.6986    1.0550   -2.6638 C   0  0  0  0  0  0  0  0  0  0  0  0
    1.9057    1.3115   -1.6244 H   0  0  0  0  0  0  0  0  0  0  0  0
    2.6019    0.6492   -3.1202 H   0  0  0  0  0  0  0  0  0  0  0  0
    1.3926    1.9492   -3.2076 H   0  0  0  0  0  0  0  0  0  0  0  0
   -0.1711   -0.0594    1.8296 C   0  0  0  0  0  0  0  0  0  0  0  0
    0.9937    0.2503    2.0715 O   0  0  0  0  0  0  0  0  0  0  0  0
   -1.0957   -0.1897    2.7896 N   0  0  0  0  0  0  0  0  0  0  0  0
   -2.0339   -0.4315    2.5134 H   0  0  0  0  0  0  0  0  0  0  0  0
   -0.8286    0.0127    4.2128 C   0  0  0  0  0  0  0  0  0  0  0  0
   -0.4425    1.0218    4.3747 H   0  0  0  0  0  0  0  0  0  0  0  0
   -1.7424   -0.1197    4.7937 H   0  0  0  0  0  0  0  0  0  0  0  0
   -0.0776   -0.7030    4.5520 H   0  0  0  0  0  0  0  0  0  0  0  0
  5  6  2  0  0  0  0
  5  7  1  0  0  0  0
  2  3  1  0  0  0  0
  2  4  1  0  0  0  0
  2  5  1  0  0  0  0
  1  2  1  0  0  0  0
 22 23  2  0  0  0  0
 22 24  1  0  0  0  0
 18 19  1  0  0  0  0
 18 20  1  0  0  0  0
 18 21  1  0  0  0  0
 17 18  1  0  0  0  0
 14 15  1  0  0  0  0
 14 16  1  0  0  0  0
 14 17  1  0  0  0  0
 11 12  1  0  0  0  0
 11 13  1  0  0  0  0
 11 14  1  0  0  0  0
  9 10  1  0  0  0  0
  9 11  1  0  0  0  0
  9 22  1  0  0  0  0
  7  8  1  0  0  0  0
  7  9  1  0  0  0  0
 26 27  1  0  0  0  0
 26 28  1  0  0  0  0
 26 29  1  0  0  0  0
 24 25  1  0  0  0  0
 24 26  1  0  0  0  0
M  END
$$$$
default_name
  -OEChem-01062215323D

 29 28  0     1  0  0  0  0  0999 V2000
   -3.5781   -3.7296    1.2702 H   0  0  0  0  0  0  0  0  0  0  0  0
   -3.5311   -2.7616    0.7732 C   0  0  0  0  0  0  0  0  0  0  0  0
   -4.2371   -2.0766    1.2382 H   0  0  0  0  0  0  0  0  0  0  0  0
   -3.7681   -2.8816   -0.2818 H   0  0  0  0  0  0  0  0  0  0  0  0
   -2.1321   -2.2086    0.9112 C   0  0  0  0  0  0  0  0  0  0  0  0
   -1.2751   -2.8426    1.5112 O   0  0  0  0  0  0  0  0  0  0  0  0
   -1.9041   -1.0186    0.3602 N   0  0  0  0  0  0  0  0  0  0  0  0
   -2.6671   -0.5416   -0.0988 H   0  0  0  0  0  0  0  0  0  0  0  0
   -0.6131   -0.3236    0.3832 C   0  0  1  0  0  0  0  0  0  0  0  0
    0.1346   -0.9625   -0.0894 H   0  0  0  0  0  0  0  0  0  0  0  0
   -0.7253    0.9751   -0.4365 C   0  0  0  0  0  0  0  0  0  0  0  0
   -1.5604    1.5632   -0.0499 H   0  0  0  0  0  0  0  0  0  0  0  0
    0.1883    1.5584   -0.3133 H   0  0  0  0  0  0  0  0  0  0  0  0
   -0.9562    0.7365   -1.9331 C   0  0  0  0  0  0  0  0  0  0  0  0
   -1.8812    0.1765   -2.0673 H   0  0  0  0  0  0  0  0  0  0  0  0
   -1.0555    1.7020   -2.4305 H   0  0  0  0  0  0  0  0  0  0  0  0
    0.3801   -0.1853   -2.7359 S   0  0  0  0  0  0  0  0  0  0  0  0
    1.6986    1.0550   -2.6638 C   0  0  0  0  0  0  0  0  0  0  0  0
    1.9057    1.3115   -1.6244 H   0  0  0  0  0  0  0  0  0  0  0  0
    2.6019    0.6492   -3.1202 H   0  0  0  0  0  0  0  0  0  0  0  0
    1.3926    1.9492   -3.2076 H   0  0  0  0  0  0  0  0  0  0  0  0
   -0.1711   -0.0594    1.8296 C   0  0  0  0  0  0  0  0  0  0  0  0
    0.8953    0.5094    2.0543 O   0  0  0  0  0  0  0  0  0  0  0  0
   -0.9836   -0.4786    2.8082 N   0  0  0  0  0  0  0  0  0  0  0  0
   -1.8488   -0.9237    2.5468 H   0  0  0  0  0  0  0  0  0  0  0  0
   -0.6973   -0.3155    4.2327 C   0  0  0  0  0  0  0  0  0  0  0  0
   -0.5589    0.7439    4.4610 H   0  0  0  0  0  0  0  0  0  0  0  0
   -1.5192   -0.7079    4.8330 H   0  0  0  0  0  0  0  0  0  0  0  0
    0.2218   -0.8466    4.4867 H   0  0  0  0  0  0  0  0  0  0  0  0
  5  6  2  0  0  0  0
  5  7  1  0  0  0  0
  2  3  1  0  0  0  0
  2  4  1  0  0  0  0
  2  5  1  0  0  0  0
  1  2  1  0  0  0  0
 22 23  2  0  0  0  0
 22 24  1  0  0  0  0
 18 19  1  0  0  0  0
 18 20  1  0  0  0  0
 18 21  1  0  0  0  0
 17 18  1  0  0  0  0
 14 15  1  0  0  0  0
 14 16  1  0  0  0  0
 14 17  1  0  0  0  0
 11 12  1  0  0  0  0
 11 13  1  0  0  0  0
 11 14  1  0  0  0  0
  9 10  1  0  0  0  0
  9 11  1  0  0  0  0
  9 22  1  0  0  0  0
  7  8  1  0  0  0  0
  7  9  1  0  0  0  0
 26 27  1  0  0  0  0
 26 28  1  0  0  0  0
 26 29  1  0  0  0  0
 24 25  1  0  0  0  0
 24 26  1  0  0  0  0
M  END
$$$$
default_name
  -OEChem-01062215323D

 29 28  0     1  0  0  0  0  0999 V2000
   -3.5781   -3.7296    1.2702 H   0  0  0  0  0  0  0  0  0  0  0  0
   -3.5311   -2.7616    0.7732 C   0  0  0  0  0  0  0  0  0  0  0  0
   -4.2371   -2.0766    1.2382 H   0  0  0  0  0  0  0  0  0  0  0  0
   -3.7681   -2.8816   -0.2818 H   0  0  0  0  0  0  0  0  0  0  0  0
   -2.1321   -2.2086    0.9112 C   0  0  0  0  0  0  0  0  0  0  0  0
   -1.2751   -2.8426    1.5112 O   0  0  0  0  0  0  0  0  0  0  0  0
   -1.9041   -1.0186    0.3602 N   0  0  0  0  0  0  0  0  0  0  0  0
   -2.6671   -0.5416   -0.0988 H   0  0  0  0  0  0  0  0  0  0  0  0
   -0.6131   -0.3236    0.3832 C   0  0  1  0  0  0  0  0  0  0  0  0
    0.1346   -0.9625   -0.0894 H   0  0  0  0  0  0  0  0  0  0  0  0
   -0.7253    0.9751   -0.4365 C   0  0  0  0  0  0  0  0  0  0  0  0
   -1.5604    1.5632   -0.0499 H   0  0  0  0  0  0  0  0  0  0  0  0
    0.1883    1.5584   -0.3133 H   0  0  0  0  0  0  0  0  0  0  0  0
   -0.9562    0.7365   -1.9331 C   0  0  0  0  0  0  0  0  0  0  0  0
   -1.8812    0.1765   -2.0673 H   0  0  0  0  0  0  0  0  0  0  0  0
   -1.0555    1.7020   -2.4305 H   0  0  0  0  0  0  0  0  0  0  0  0
    0.3801   -0.1853   -2.7359 S   0  0  0  0  0  0  0  0  0  0  0  0
    1.6986    1.0550   -2.6638 C   0  0  0  0  0  0  0  0  0  0  0  0
    1.9057    1.3115   -1.6244 H   0  0  0  0  0  0  0  0  0  0  0  0
    2.6019    0.6492   -3.1202 H   0  0  0  0  0  0  0  0  0  0  0  0
    1.3926    1.9492   -3.2076 H   0  0  0  0  0  0  0  0  0  0  0  0
   -0.1711   -0.0594    1.8296 C   0  0  0  0  0  0  0  0  0  0  0  0
    0.7363    0.7369    2.0613 O   0  0  0  0  0  0  0  0  0  0  0  0
   -0.8041   -0.7317    2.7996 N   0  0  0  0  0  0  0  0  0  0  0  0
   -1.5485   -1.3565    2.5341 H   0  0  0  0  0  0  0  0  0  0  0  0
   -0.4896   -0.6020    4.2215 C   0  0  0  0  0  0  0  0  0  0  0  0
   -0.5998    0.4406    4.5289 H   0  0  0  0  0  0  0  0  0  0  0  0
   -1.1585   -1.2246    4.8172 H   0  0  0  0  0  0  0  0  0  0  0  0
    0.5430   -0.9074    4.3997 H   0  0  0  0  0  0  0  0  0  0  0  0
  5  6  2  0  0  0  0
  5  7  1  0  0  0  0
  2  3  1  0  0  0  0
  2  4  1  0  0  0  0
  2  5  1  0  0  0  0
  1  2  1  0  0  0  0
 22 23  2  0  0  0  0
 22 24  1  0  0  0  0
 18 19  1  0  0  0  0
 18 20  1  0  0  0  0
 18 21  1  0  0  0  0
 17 18  1  0  0  0  0
 14 15  1  0  0  0  0
 14 16  1  0  0  0  0
 14 17  1  0  0  0  0
 11 12  1  0  0  0  0
 11 13  1  0  0  0  0
 11 14  1  0  0  0  0
  9 10  1  0  0  0  0
  9 11  1  0  0  0  0
  9 22  1  0  0  0  0
  7  8  1  0  0  0  0
  7  9  1  0  0  0  0
 26 27  1  0  0  0  0
 26 28  1  0  0  0  0
 26 29  1  0  0  0  0
 24 25  1  0  0  0  0
 24 26  1  0  0  0  0
M  END
$$$$
default_name
  -OEChem-01062215323D

 29 28  0     1  0  0  0  0  0999 V2000
   -3.5781   -3.7296    1.2702 H   0  0  0  0  0  0  0  0  0  0  0  0
   -3.5311   -2.7616    0.7732 C   0  0  0  0  0  0  0  0  0  0  0  0
   -4.2371   -2.0766    1.2382 H   0  0  0  0  0  0  0  0  0  0  0  0
   -3.7681   -2.8816   -0.2818 H   0  0  0  0  0  0  0  0  0  0  0  0
   -2.1321   -2.2086    0.9112 C   0  0  0  0  0  0  0  0  0  0  0  0
   -1.2751   -2.8426    1.5112 O   0  0  0  0  0  0  0  0  0  0  0  0
   -1.9041   -1.0186    0.3602 N   0  0  0  0  0  0  0  0  0  0  0  0
   -2.6671   -0.5416   -0.0988 H   0  0  0  0  0  0  0  0  0  0  0  0
   -0.6131   -0.3236    0.3832 C   0  0  1  0  0  0  0  0  0  0  0  0
    0.1346   -0.9625   -0.0894 H   0  0  0  0  0  0  0  0  0  0  0  0
   -0.7253    0.9751   -0.4365 C   0  0  0  0  0  0  0  0  0  0  0  0
   -1.5604    1.5632   -0.0499 H   0  0  0  0  0  0  0  0  0  0  0  0
    0.1883    1.5584   -0.3133 H   0  0  0  0  0  0  0  0  0  0  0  0
   -0.9562    0.7365   -1.9331 C   0  0  0  0  0  0  0  0  0  0  0  0
   -1.8812    0.1765   -2.0673 H   0  0  0  0  0  0  0  0  0  0  0  0
   -1.0555    1.7020   -2.4305 H   0  0  0  0  0  0  0  0  0  0  0  0
    0.3801   -0.1853   -2.7359 S   0  0  0  0  0  0  0  0  0  0  0  0
    1.6986    1.0550   -2.6638 C   0  0  0  0  0  0  0  0  0  0  0  0
    1.9057    1.3115   -1.6244 H   0  0  0  0  0  0  0  0  0  0  0  0
    2.6019    0.6492   -3.1202 H   0  0  0  0  0  0  0  0  0  0  0  0
    1.3926    1.9492   -3.2076 H   0  0  0  0  0  0  0  0  0  0  0  0
   -0.1711   -0.0594    1.8296 C   0  0  0  0  0  0  0  0  0  0  0  0
    0.5276    0.9174    2.0921 O   0  0  0  0  0  0  0  0  0  0  0  0
   -0.5693   -0.9318    2.7644 N   0  0  0  0  0  0  0  0  0  0  0  0
   -1.1535   -1.7004    2.4762 H   0  0  0  0  0  0  0  0  0  0  0  0
   -0.2196   -0.8272    4.1802 C   0  0  0  0  0  0  0  0  0  0  0  0
   -0.5623    0.1327    4.5737 H   0  0  0  0  0  0  0  0  0  0  0  0
   -0.6849   -1.6346    4.7473 H   0  0  0  0  0  0  0  0  0  0  0  0
    0.8642   -0.8813    4.2968 H   0  0  0  0  0  0  0  0  0  0  0  0
  5  6  2  0  0  0  0
  5  7  1  0  0  0  0
  2  3  1  0  0  0  0
  2  4  1  0  0  0  0
  2  5  1  0  0  0  0
  1  2  1  0  0  0  0
 22 23  2  0  0  0  0
 22 24  1  0  0  0  0
 18 19  1  0  0  0  0
 18 20  1  0  0  0  0
 18 21  1  0  0  0  0
 17 18  1  0  0  0  0
 14 15  1  0  0  0  0
 14 16  1  0  0  0  0
 14 17  1  0  0  0  0
 11 12  1  0  0  0  0
 11 13  1  0  0  0  0
 11 14  1  0  0  0  0
  9 10  1  0  0  0  0
  9 11  1  0  0  0  0
  9 22  1  0  0  0  0
  7  8  1  0  0  0  0
  7  9  1  0  0  0  0
 26 27  1  0  0  0  0
 26 28  1  0  0  0  0
 26 29  1  0  0  0  0
 24 25  1  0  0  0  0
 24 26  1  0  0  0  0
M  END
$$$$
default_name
  -OEChem-01062215323D

 29 28  0     1  0  0  0  0  0999 V2000
   -3.5781   -3.7296    1.2702 H   0  0  0  0  0  0  0  0  0  0  0  0
   -3.5311   -2.7616    0.7732 C   0  0  0  0  0  0  0  0  0  0  0  0
   -4.2371   -2.0766    1.2382 H   0  0  0  0  0  0  0  0  0  0  0  0
   -3.7681   -2.8816   -0.2818 H   0  0  0  0  0  0  0  0  0  0  0  0
   -2.1321   -2.2086    0.9112 C   0  0  0  0  0  0  0  0  0  0  0  0
   -1.2751   -2.8426    1.5112 O   0  0  0  0  0  0  0  0  0  0  0  0
   -1.9041   -1.0186    0.3602 N   0  0  0  0  0  0  0  0  0  0  0  0
   -2.6671   -0.5416   -0.0988 H   0  0  0  0  0  0  0  0  0  0  0  0
   -0.6131   -0.3236    0.3832 C   0  0  1  0  0  0  0  0  0  0  0  0
    0.1346   -0.9625   -0.0894 H   0  0  0  0  0  0  0  0  0  0  0  0
   -0.7253    0.9751   -0.4365 C   0  0  0  0  0  0  0  0  0  0  0  0
   -1.5604    1.5632   -0.0499 H   0  0  0  0  0  0  0  0  0  0  0  0
    0.1883    1.5584   -0.3133 H   0  0  0  0  0  0  0  0  0  0  0  0
   -0.9562    0.7365   -1.9331 C   0  0  0  0  0  0  0  0  0  0  0  0
   -1.8812    0.1765   -2.0673 H   0  0  0  0  0  0  0  0  0  0  0  0
   -1.0555    1.7020   -2.4305 H   0  0  0  0  0  0  0  0  0  0  0  0
    0.3801   -0.1853   -2.7359 S   0  0  0  0  0  0  0  0  0  0  0  0
    1.6986    1.0550   -2.6638 C   0  0  0  0  0  0  0  0  0  0  0  0
    1.9057    1.3115   -1.6244 H   0  0  0  0  0  0  0  0  0  0  0  0
    2.6019    0.6492   -3.1202 H   0  0  0  0  0  0  0  0  0  0  0  0
    1.3926    1.9492   -3.2076 H   0  0  0  0  0  0  0  0  0  0  0  0
   -0.1711   -0.0594    1.8296 C   0  0  0  0  0  0  0  0  0  0  0  0
    0.2834    1.0386    2.1446 O   0  0  0  0  0  0  0  0  0  0  0  0
   -0.2954   -1.0652    2.7050 N   0  0  0  0  0  0  0  0  0  0  0  0
   -0.6907   -1.9319    2.3771 H   0  0  0  0  0  0  0  0  0  0  0  0
    0.0942   -0.9759    4.1115 C   0  0  0  0  0  0  0  0  0  0  0  0
   -0.4490   -0.1590    4.5923 H   0  0  0  0  0  0  0  0  0  0  0  0
   -0.1305   -1.9099    4.6282 H   0  0  0  0  0  0  0  0  0  0  0  0
    1.1636   -0.7701    4.1850 H   0  0  0  0  0  0  0  0  0  0  0  0
  5  6  2  0  0  0  0
  5  7  1  0  0  0  0
  2  3  1  0  0  0  0
  2  4  1  0  0  0  0
  2  5  1  0  0  0  0
  1  2  1  0  0  0  0
 22 23  2  0  0  0  0
 22 24  1  0  0  0  0
 18 19  1  0  0  0  0
 18 20  1  0  0  0  0
 18 21  1  0  0  0  0
 17 18  1  0  0  0  0
 14 15  1  0  0  0  0
 14 16  1  0  0  0  0
 14 17  1  0  0  0  0
 11 12  1  0  0  0  0
 11 13  1  0  0  0  0
 11 14  1  0  0  0  0
  9 10  1  0  0  0  0
  9 11  1  0  0  0  0
  9 22  1  0  0  0  0
  7  8  1  0  0  0  0
  7  9  1  0  0  0  0
 26 27  1  0  0  0  0
 26 28  1  0  0  0  0
 26 29  1  0  0  0  0
 24 25  1  0  0  0  0
 24 26  1  0  0  0  0
M  END
$$$$
default_name
  -OEChem-01062215323D

 29 28  0     1  0  0  0  0  0999 V2000
   -3.5781   -3.7296    1.2702 H   0  0  0  0  0  0  0  0  0  0  0  0
   -3.5311   -2.7616    0.7732 C   0  0  0  0  0  0  0  0  0  0  0  0
   -4.2371   -2.0766    1.2382 H   0  0  0  0  0  0  0  0  0  0  0  0
   -3.7681   -2.8816   -0.2818 H   0  0  0  0  0  0  0  0  0  0  0  0
   -2.1321   -2.2086    0.9112 C   0  0  0  0  0  0  0  0  0  0  0  0
   -1.2751   -2.8426    1.5112 O   0  0  0  0  0  0  0  0  0  0  0  0
   -1.9041   -1.0186    0.3602 N   0  0  0  0  0  0  0  0  0  0  0  0
   -2.6671   -0.5416   -0.0988 H   0  0  0  0  0  0  0  0  0  0  0  0
   -0.6131   -0.3236    0.3832 C   0  0  1  0  0  0  0  0  0  0  0  0
    0.1346   -0.9625   -0.0894 H   0  0  0  0  0  0  0  0  0  0  0  0
   -0.7253    0.9751   -0.4365 C   0  0  0  0  0  0  0  0  0  0  0  0
   -1.5604    1.5632   -0.0499 H   0  0  0  0  0  0  0  0  0  0  0  0
    0.1883    1.5584   -0.3133 H   0  0  0  0  0  0  0  0  0  0  0  0
   -0.9562    0.7365   -1.9331 C   0  0  0  0  0  0  0  0  0  0  0  0
   -1.8812    0.1765   -2.0673 H   0  0  0  0  0  0  0  0  0  0  0  0
   -1.0555    1.7020   -2.4305 H   0  0  0  0  0  0  0  0  0  0  0  0
    0.3801   -0.1853   -2.7359 S   0  0  0  0  0  0  0  0  0  0  0  0
    1.6986    1.0550   -2.6638 C   0  0  0  0  0  0  0  0  0  0  0  0
    1.9057    1.3115   -1.6244 H   0  0  0  0  0  0  0  0  0  0  0  0
    2.6019    0.6492   -3.1202 H   0  0  0  0  0  0  0  0  0  0  0  0
    1.3926    1.9492   -3.2076 H   0  0  0  0  0  0  0  0  0  0  0  0
   -0.1711   -0.0594    1.8296 C   0  0  0  0  0  0  0  0  0  0  0  0
    0.0203    1.0921    2.2152 O   0  0  0  0  0  0  0  0  0  0  0  0
   -0.0008   -1.1228    2.6256 N   0  0  0  0  0  0  0  0  0  0  0  0
   -0.1916   -2.0353    2.2435 H   0  0  0  0  0  0  0  0  0  0  0  0
    0.4306   -1.0378    4.0200 C   0  0  0  0  0  0  0  0  0  0  0  0
   -0.2676   -0.4145    4.5836 H   0  0  0  0  0  0  0  0  0  0  0  0
    0.4669   -2.0317    4.4680 H   0  0  0  0  0  0  0  0  0  0  0  0
    1.4206   -0.5813    4.0720 H   0  0  0  0  0  0  0  0  0  0  0  0
  5  6  2  0  0  0  0
  5  7  1  0  0  0  0
  2  3  1  0  0  0  0
  2  4  1  0  0  0  0
  2  5  1  0  0  0  0
  1  2  1  0  0  0  0
 22 23  2  0  0  0  0
 22 24  1  0  0  0  0
 18 19  1  0  0  0  0
 18 20  1  0  0  0  0
 18 21  1  0  0  0  0
 17 18  1  0  0  0  0
 14 15  1  0  0  0  0
 14 16  1  0  0  0  0
 14 17  1  0  0  0  0
 11 12  1  0  0  0  0
 11 13  1  0  0  0  0
 11 14  1  0  0  0  0
  9 10  1  0  0  0  0
  9 11  1  0  0  0  0
  9 22  1  0  0  0  0
  7  8  1  0  0  0  0
  7  9  1  0  0  0  0
 26 27  1  0  0  0  0
 26 28  1  0  0  0  0
 26 29  1  0  0  0  0
 24 25  1  0  0  0  0
 24 26  1  0  0  0  0
M  END
$$$$
default_name
  -OEChem-01062215323D

 29 28  0     1  0  0  0  0  0999 V2000
   -3.5781   -3.7296    1.2702 H   0  0  0  0  0  0  0  0  0  0  0  0
   -3.5311   -2.7616    0.7732 C   0  0  0  0  0  0  0  0  0  0  0  0
   -4.2371   -2.0766    1.2382 H   0  0  0  0  0  0  0  0  0  0  0  0
   -3.7681   -2.8816   -0.2818 H   0  0  0  0  0  0  0  0  0  0  0  0
   -2.1321   -2.2086    0.9112 C   0  0  0  0  0  0  0  0  0  0  0  0
   -1.2751   -2.8426    1.5112 O   0  0  0  0  0  0  0  0  0  0  0  0
   -1.9041   -1.0186    0.3602 N   0  0  0  0  0  0  0  0  0  0  0  0
   -2.6671   -0.5416   -0.0988 H   0  0  0  0  0  0  0  0  0  0  0  0
   -0.6131   -0.3236    0.3832 C   0  0  1  0  0  0  0  0  0  0  0  0
    0.1346   -0.9625   -0.0894 H   0  0  0  0  0  0  0  0  0  0  0  0
   -0.7253    0.9751   -0.4365 C   0  0  0  0  0  0  0  0  0  0  0  0
   -1.5604    1.5632   -0.0499 H   0  0  0  0  0  0  0  0  0  0  0  0
    0.1883    1.5584   -0.3133 H   0  0  0  0  0  0  0  0  0  0  0  0
   -0.9562    0.7365   -1.9331 C   0  0  0  0  0  0  0  0  0  0  0  0
   -1.8812    0.1765   -2.0673 H   0  0  0  0  0  0  0  0  0  0  0  0
   -1.0555    1.7020   -2.4305 H   0  0  0  0  0  0  0  0  0  0  0  0
    0.3801   -0.1853   -2.7359 S   0  0  0  0  0  0  0  0  0  0  0  0
    1.6986    1.0550   -2.6638 C   0  0  0  0  0  0  0  0  0  0  0  0
    1.9057    1.3115   -1.6244 H   0  0  0  0  0  0  0  0  0  0  0  0
    2.6019    0.6492   -3.1202 H   0  0  0  0  0  0  0  0  0  0  0  0
    1.3926    1.9492   -3.2076 H   0  0  0  0  0  0  0  0  0  0  0  0
   -0.1711   -0.0594    1.8296 C   0  0  0  0  0  0  0  0  0  0  0  0
   -0.2438    1.0744    2.2991 O   0  0  0  0  0  0  0  0  0  0  0  0
    0.2941   -1.1007    2.5314 N   0  0  0  0  0  0  0  0  0  0  0  0
    0.3098   -2.0036    2.0845 H   0  0  0  0  0  0  0  0  0  0  0  0
    0.7665   -1.0088    3.9121 C   0  0  0  0  0  0  0  0  0  0  0  0
   -0.0305   -0.6164    4.5480 H   0  0  0  0  0  0  0  0  0  0  0  0
    1.0664   -1.9919    4.2775 H   0  0  0  0  0  0  0  0  0  0  0  0
    1.6179   -0.3279    3.9654 H   0  0  0  0  0  0  0  0  0  0  0  0
  5  6  2  0  0  0  0
  5  7  1  0  0  0  0
  2  3  1  0  0  0  0
  2  4  1  0  0  0  0
  2  5  1  0  0  0  0
  1  2  1  0  0  0  0
 22 23  2  0  0  0  0
 22 24  1  0  0  0  0
 18 19  1  0  0  0  0
 18 20  1  0  0  0  0
 18 21  1  0  0  0  0
 17 18  1  0  0  0  0
 14 15  1  0  0  0  0
 14 16  1  0  0  0  0
 14 17  1  0  0  0  0
 11 12  1  0  0  0  0
 11 13  1  0  0  0  0
 11 14  1  0  0  0  0
  9 10  1  0  0  0  0
  9 11  1  0  0  0  0
  9 22  1  0  0  0  0
  7  8  1  0  0  0  0
  7  9  1  0  0  0  0
 26 27  1  0  0  0  0
 26 28  1  0  0  0  0
 26 29  1  0  0  0  0
 24 25  1  0  0  0  0
 24 26  1  0  0  0  0
M  END
$$$$
default_name
  -OEChem-01062215323D

 29 28  0     1  0  0  0  0  0999 V2000
   -3.5781   -3.7296    1.2702 H   0  0  0  0  0  0  0  0  0  0  0  0
   -3.5311   -2.7616    0.7732 C   0  0  0  0  0  0  0  0  0  0  0  0
   -4.2371   -2.0766    1.2382 H   0  0  0  0  0  0  0  0  0  0  0  0
   -3.7681   -2.8816   -0.2818 H   0  0  0  0  0  0  0  0  0  0  0  0
   -2.1321   -2.2086    0.9112 C   0  0  0  0  0  0  0  0  0  0  0  0
   -1.2751   -2.8426    1.5112 O   0  0  0  0  0  0  0  0  0  0  0  0
   -1.9041   -1.0186    0.3602 N   0  0  0  0  0  0  0  0  0  0  0  0
   -2.6671   -0.5416   -0.0988 H   0  0  0  0  0  0  0  0  0  0  0  0
   -0.6131   -0.3236    0.3832 C   0  0  1  0  0  0  0  0  0  0  0  0
    0.1346   -0.9625   -0.0894 H   0  0  0  0  0  0  0  0  0  0  0  0
   -0.7253    0.9751   -0.4365 C   0  0  0  0  0  0  0  0  0  0  0  0
   -1.5604    1.5632   -0.0499 H   0  0  0  0  0  0  0  0  0  0  0  0
    0.1883    1.5584   -0.3133 H   0  0  0  0  0  0  0  0  0  0  0  0
   -0.9562    0.7365   -1.9331 C   0  0  0  0  0  0  0  0  0  0  0  0
   -1.8812    0.1765   -2.0673 H   0  0  0  0  0  0  0  0  0  0  0  0
   -1.0555    1.7020   -2.4305 H   0  0  0  0  0  0  0  0  0  0  0  0
    0.3801   -0.1853   -2.7359 S   0  0  0  0  0  0  0  0  0  0  0  0
    1.6986    1.0550   -2.6638 C   0  0  0  0  0  0  0  0  0  0  0  0
    1.9057    1.3115   -1.6244 H   0  0  0  0  0  0  0  0  0  0  0  0
    2.6019    0.6492   -3.1202 H   0  0  0  0  0  0  0  0  0  0  0  0
    1.3926    1.9492   -3.2076 H   0  0  0  0  0  0  0  0  0  0  0  0
   -0.1711   -0.0594    1.8296 C   0  0  0  0  0  0  0  0  0  0  0  0
   -0.4908    0.9867    2.3906 O   0  0  0  0  0  0  0  0  0  0  0  0
    0.5695   -1.0005    2.4290 N   0  0  0  0  0  0  0  0  0  0  0  0
    0.7793   -1.8388    1.9110 H   0  0  0  0  0  0  0  0  0  0  0  0
    1.0791   -0.8909    3.7950 C   0  0  0  0  0  0  0  0  0  0  0  0
    0.2462   -0.7509    4.4881 H   0  0  0  0  0  0  0  0  0  0  0  0
    1.6273   -1.7930    4.0698 H   0  0  0  0  0  0  0  0  0  0  0  0
    1.7419   -0.0271    3.8726 H   0  0  0  0  0  0  0  0  0  0  0  0
  5  6  2  0  0  0  0
  5  7  1  0  0  0  0
  2  3  1  0  0  0  0
  2  4  1  0  0  0  0
  2  5  1  0  0  0  0
  1  2  1  0  0  0  0
 22 23  2  0  0  0  0
 22 24  1  0  0  0  0
 18 19  1  0  0  0  0
 18 20  1  0  0  0  0
 18 21  1  0  0  0  0
 17 18  1  0  0  0  0
 14 15  1  0  0  0  0
 14 16  1  0  0  0  0
 14 17  1  0  0  0  0
 11 12  1  0  0  0  0
 11 13  1  0  0  0  0
 11 14  1  0  0  0  0
  9 10  1  0  0  0  0
  9 11  1  0  0  0  0
  9 22  1  0  0  0  0
  7  8  1  0  0  0  0
  7  9  1  0  0  0  0
 26 27  1  0  0  0  0
 26 28  1  0  0  0  0
 26 29  1  0  0  0  0
 24 25  1  0  0  0  0
 24 26  1  0  0  0  0
M  END
$$$$
default_name
  -OEChem-01062215323D

 29 28  0     1  0  0  0  0  0999 V2000
   -3.5781   -3.7296    1.2702 H   0  0  0  0  0  0  0  0  0  0  0  0
   -3.5311   -2.7616    0.7732 C   0  0  0  0  0  0  0  0  0  0  0  0
   -4.2371   -2.0766    1.2382 H   0  0  0  0  0  0  0  0  0  0  0  0
   -3.7681   -2.8816   -0.2818 H   0  0  0  0  0  0  0  0  0  0  0  0
   -2.1321   -2.2086    0.9112 C   0  0  0  0  0  0  0  0  0  0  0  0
   -1.2751   -2.8426    1.5112 O   0  0  0  0  0  0  0  0  0  0  0  0
   -1.9041   -1.0186    0.3602 N   0  0  0  0  0  0  0  0  0  0  0  0
   -2.6671   -0.5416   -0.0988 H   0  0  0  0  0  0  0  0  0  0  0  0
   -0.6131   -0.3236    0.3832 C   0  0  1  0  0  0  0  0  0  0  0  0
    0.1346   -0.9625   -0.0894 H   0  0  0  0  0  0  0  0  0  0  0  0
   -0.7253    0.9751   -0.4365 C   0  0  0  0  0  0  0  0  0  0  0  0
   -1.5604    1.5632   -0.0499 H   0  0  0  0  0  0  0  0  0  0  0  0
    0.1883    1.5584   -0.3133 H   0  0  0  0  0  0  0  0  0  0  0  0
   -0.9562    0.7365   -1.9331 C   0  0  0  0  0  0  0  0  0  0  0  0
   -1.8812    0.1765   -2.0673 H   0  0  0  0  0  0  0  0  0  0  0  0
   -1.0555    1.7020   -2.4305 H   0  0  0  0  0  0  0  0  0  0  0  0
    0.3801   -0.1853   -2.7359 S   0  0  0  0  0  0  0  0  0  0  0  0
    1.6986    1.0550   -2.6638 C   0  0  0  0  0  0  0  0  0  0  0  0
    1.9057    1.3115   -1.6244 H   0  0  0  0  0  0  0  0  0  0  0  0
    2.6019    0.6492   -3.1202 H   0  0  0  0  0  0  0  0  0  0  0  0
    1.3926    1.9492   -3.2076 H   0  0  0  0  0  0  0  0  0  0  0  0
   -0.1711   -0.0594    1.8296 C   0  0  0  0  0  0  0  0  0  0  0  0
   -0.7040    0.8350    2.4834 O   0  0  0  0  0  0  0  0  0  0  0  0
    0.8065   -0.8289    2.3252 N   0  0  0  0  0  0  0  0  0  0  0  0
    1.1848   -1.5522    1.7347 H   0  0  0  0  0  0  0  0  0  0  0  0
    1.3471   -0.6920    3.6768 C   0  0  0  0  0  0  0  0  0  0  0  0
    0.5436   -0.8090    4.4078 H   0  0  0  0  0  0  0  0  0  0  0  0
    2.1114   -1.4486    3.8590 H   0  0  0  0  0  0  0  0  0  0  0  0
    1.7842    0.3006    3.7998 H   0  0  0  0  0  0  0  0  0  0  0  0
  5  6  2  0  0  0  0
  5  7  1  0  0  0  0
  2  3  1  0  0  0  0
  2  4  1  0  0  0  0
  2  5  1  0  0  0  0
  1  2  1  0  0  0  0
 22 23  2  0  0  0  0
 22 24  1  0  0  0  0
 18 19  1  0  0  0  0
 18 20  1  0  0  0  0
 18 21  1  0  0  0  0
 17 18  1  0  0  0  0
 14 15  1  0  0  0  0
 14 16  1  0  0  0  0
 14 17  1  0  0  0  0
 11 12  1  0  0  0  0
 11 13  1  0  0  0  0
 11 14  1  0  0  0  0
  9 10  1  0  0  0  0
  9 11  1  0  0  0  0
  9 22  1  0  0  0  0
  7  8  1  0  0  0  0
  7  9  1  0  0  0  0
 26 27  1  0  0  0  0
 26 28  1  0  0  0  0
 26 29  1  0  0  0  0
 24 25  1  0  0  0  0
 24 26  1  0  0  0  0
M  END
$$$$
default_name
  -OEChem-01062215323D

 29 28  0     1  0  0  0  0  0999 V2000
   -3.5781   -3.7296    1.2702 H   0  0  0  0  0  0  0  0  0  0  0  0
   -3.5311   -2.7616    0.7732 C   0  0  0  0  0  0  0  0  0  0  0  0
   -4.2371   -2.0766    1.2382 H   0  0  0  0  0  0  0  0  0  0  0  0
   -3.7681   -2.8816   -0.2818 H   0  0  0  0  0  0  0  0  0  0  0  0
   -2.1321   -2.2086    0.9112 C   0  0  0  0  0  0  0  0  0  0  0  0
   -1.2751   -2.8426    1.5112 O   0  0  0  0  0  0  0  0  0  0  0  0
   -1.9041   -1.0186    0.3602 N   0  0  0  0  0  0  0  0  0  0  0  0
   -2.6671   -0.5416   -0.0988 H   0  0  0  0  0  0  0  0  0  0  0  0
   -0.6131   -0.3236    0.3832 C   0  0  1  0  0  0  0  0  0  0  0  0
    0.1346   -0.9625   -0.0894 H   0  0  0  0  0  0  0  0  0  0  0  0
   -0.7253    0.9751   -0.4365 C   0  0  0  0  0  0  0  0  0  0  0  0
   -1.5604    1.5632   -0.0499 H   0  0  0  0  0  0  0  0  0  0  0  0
    0.1883    1.5584   -0.3133 H   0  0  0  0  0  0  0  0  0  0  0  0
   -0.9562    0.7365   -1.9331 C   0  0  0  0  0  0  0  0  0  0  0  0
   -1.8812    0.1765   -2.0673 H   0  0  0  0  0  0  0  0  0  0  0  0
   -1.0555    1.7020   -2.4305 H   0  0  0  0  0  0  0  0  0  0  0  0
    0.3801   -0.1853   -2.7359 S   0  0  0  0  0  0  0  0  0  0  0  0
    1.6986    1.0550   -2.6638 C   0  0  0  0  0  0  0  0  0  0  0  0
    1.9057    1.3115   -1.6244 H   0  0  0  0  0  0  0  0  0  0  0  0
    2.6019    0.6492   -3.1202 H   0  0  0  0  0  0  0  0  0  0  0  0
    1.3926    1.9492   -3.2076 H   0  0  0  0  0  0  0  0  0  0  0  0
   -0.1711   -0.0594    1.8296 C   0  0  0  0  0  0  0  0  0  0  0  0
   -0.8687    0.6295    2.5713 O   0  0  0  0  0  0  0  0  0  0  0  0
    0.9889   -0.5976    2.2272 N   0  0  0  0  0  0  0  0  0  0  0  0
    1.4988   -1.1634    1.5677 H   0  0  0  0  0  0  0  0  0  0  0  0
    1.5522   -0.4257    3.5655 C   0  0  0  0  0  0  0  0  0  0  0  0
    0.8414   -0.7865    4.3127 H   0  0  0  0  0  0  0  0  0  0  0  0
    2.4856   -0.9822    3.6595 H   0  0  0  0  0  0  0  0  0  0  0  0
    1.7419    0.6328    3.7520 H   0  0  0  0  0  0  0  0  0  0  0  0
  5  6  2  0  0  0  0
  5  7  1  0  0  0  0
  2  3  1  0  0  0  0
  2  4  1  0  0  0  0
  2  5  1  0  0  0  0
  1  2  1  0  0  0  0
 22 23  2  0  0  0  0
 22 24  1  0  0  0  0
 18 19  1  0  0  0  0
 18 20  1  0  0  0  0
 18 21  1  0  0  0  0
 17 18  1  0  0  0  0
 14 15  1  0  0  0  0
 14 16  1  0  0  0  0
 14 17  1  0  0  0  0
 11 12  1  0  0  0  0
 11 13  1  0  0  0  0
 11 14  1  0  0  0  0
  9 10  1  0  0  0  0
  9 11  1  0  0  0  0
  9 22  1  0  0  0  0
  7  8  1  0  0  0  0
  7  9  1  0  0  0  0
 26 27  1  0  0  0  0
 26 28  1  0  0  0  0
 26 29  1  0  0  0  0
 24 25  1  0  0  0  0
 24 26  1  0  0  0  0
M  END
$$$$
default_name
  -OEChem-01062215323D

 29 28  0     1  0  0  0  0  0999 V2000
   -3.5781   -3.7296    1.2702 H   0  0  0  0  0  0  0  0  0  0  0  0
   -3.5311   -2.7616    0.7732 C   0  0  0  0  0  0  0  0  0  0  0  0
   -4.2371   -2.0766    1.2382 H   0  0  0  0  0  0  0  0  0  0  0  0
   -3.7681   -2.8816   -0.2818 H   0  0  0  0  0  0  0  0  0  0  0  0
   -2.1321   -2.2086    0.9112 C   0  0  0  0  0  0  0  0  0  0  0  0
   -1.2751   -2.8426    1.5112 O   0  0  0  0  0  0  0  0  0  0  0  0
   -1.9041   -1.0186    0.3602 N   0  0  0  0  0  0  0  0  0  0  0  0
   -2.6671   -0.5416   -0.0988 H   0  0  0  0  0  0  0  0  0  0  0  0
   -0.6131   -0.3236    0.3832 C   0  0  1  0  0  0  0  0  0  0  0  0
    0.1346   -0.9625   -0.0894 H   0  0  0  0  0  0  0  0  0  0  0  0
   -0.7253    0.9751   -0.4365 C   0  0  0  0  0  0  0  0  0  0  0  0
   -1.5604    1.5632   -0.0499 H   0  0  0  0  0  0  0  0  0  0  0  0
    0.1883    1.5584   -0.3133 H   0  0  0  0  0  0  0  0  0  0  0  0
   -0.9562    0.7365   -1.9331 C   0  0  0  0  0  0  0  0  0  0  0  0
   -1.8812    0.1765   -2.0673 H   0  0  0  0  0  0  0  0  0  0  0  0
   -1.0555    1.7020   -2.4305 H   0  0  0  0  0  0  0  0  0  0  0  0
    0.3801   -0.1853   -2.7359 S   0  0  0  0  0  0  0  0  0  0  0  0
    1.6986    1.0550   -2.6638 C   0  0  0  0  0  0  0  0  0  0  0  0
    1.9057    1.3115   -1.6244 H   0  0  0  0  0  0  0  0  0  0  0  0
    2.6019    0.6492   -3.1202 H   0  0  0  0  0  0  0  0  0  0  0  0
    1.3926    1.9492   -3.2076 H   0  0  0  0  0  0  0  0  0  0  0  0
   -0.1711   -0.0594    1.8296 C   0  0  0  0  0  0  0  0  0  0  0  0
   -0.9738    0.3843    2.6482 O   0  0  0  0  0  0  0  0  0  0  0  0
    1.1044   -0.3224    2.1417 N   0  0  0  0  0  0  0  0  0  0  0  0
    1.6999   -0.6988    1.4214 H   0  0  0  0  0  0  0  0  0  0  0  0
    1.6804   -0.1102    3.4687 C   0  0  0  0  0  0  0  0  0  0  0  0
    1.1194   -0.6851    4.2092 H   0  0  0  0  0  0  0  0  0  0  0  0
    2.7244   -0.4257    3.4848 H   0  0  0  0  0  0  0  0  0  0  0  0
    1.6179    0.9470    3.7325 H   0  0  0  0  0  0  0  0  0  0  0  0
  5  6  2  0  0  0  0
  5  7  1  0  0  0  0
  2  3  1  0  0  0  0
  2  4  1  0  0  0  0
  2  5  1  0  0  0  0
  1  2  1  0  0  0  0
 22 23  2  0  0  0  0
 22 24  1  0  0  0  0
 18 19  1  0  0  0  0
 18 20  1  0  0  0  0
 18 21  1  0  0  0  0
 17 18  1  0  0  0  0
 14 15  1  0  0  0  0
 14 16  1  0  0  0  0
 14 17  1  0  0  0  0
 11 12  1  0  0  0  0
 11 13  1  0  0  0  0
 11 14  1  0  0  0  0
  9 10  1  0  0  0  0
  9 11  1  0  0  0  0
  9 22  1  0  0  0  0
  7  8  1  0  0  0  0
  7  9  1  0  0  0  0
 26 27  1  0  0  0  0
 26 28  1  0  0  0  0
 26 29  1  0  0  0  0
 24 25  1  0  0  0  0
 24 26  1  0  0  0  0
M  END
$$$$
default_name
  -OEChem-01062215323D

 29 28  0     1  0  0  0  0  0999 V2000
   -3.5781   -3.7296    1.2702 H   0  0  0  0  0  0  0  0  0  0  0  0
   -3.5311   -2.7616    0.7732 C   0  0  0  0  0  0  0  0  0  0  0  0
   -4.2371   -2.0766    1.2382 H   0  0  0  0  0  0  0  0  0  0  0  0
   -3.7681   -2.8816   -0.2818 H   0  0  0  0  0  0  0  0  0  0  0  0
   -2.1321   -2.2086    0.9112 C   0  0  0  0  0  0  0  0  0  0  0  0
   -1.2751   -2.8426    1.5112 O   0  0  0  0  0  0  0  0  0  0  0  0
   -1.9041   -1.0186    0.3602 N   0  0  0  0  0  0  0  0  0  0  0  0
   -2.6671   -0.5416   -0.0988 H   0  0  0  0  0  0  0  0  0  0  0  0
   -0.6131   -0.3236    0.3832 C   0  0  1  0  0  0  0  0  0  0  0  0
    0.1346   -0.9625   -0.0894 H   0  0  0  0  0  0  0  0  0  0  0  0
   -0.7253    0.9751   -0.4365 C   0  0  0  0  0  0  0  0  0  0  0  0
   -1.5604    1.5632   -0.0499 H   0  0  0  0  0  0  0  0  0  0  0  0
    0.1883    1.5584   -0.3133 H   0  0  0  0  0  0  0  0  0  0  0  0
   -0.9562    0.7365   -1.9331 C   0  0  0  0  0  0  0  0  0  0  0  0
   -1.8812    0.1765   -2.0673 H   0  0  0  0  0  0  0  0  0  0  0  0
   -1.0555    1.7020   -2.4305 H   0  0  0  0  0  0  0  0  0  0  0  0
    0.3801   -0.1853   -2.7359 S   0  0  0  0  0  0  0  0  0  0  0  0
    1.6986    1.0550   -2.6638 C   0  0  0  0  0  0  0  0  0  0  0  0
    1.9057    1.3115   -1.6244 H   0  0  0  0  0  0  0  0  0  0  0  0
    2.6019    0.6492   -3.1202 H   0  0  0  0  0  0  0  0  0  0  0  0
    1.3926    1.9492   -3.2076 H   0  0  0  0  0  0  0  0  0  0  0  0
   -0.1711   -0.0594    1.8296 C   0  0  0  0  0  0  0  0  0  0  0  0
   -1.0121    0.1161    2.7089 O   0  0  0  0  0  0  0  0  0  0  0  0
    1.1450   -0.0221    2.0744 N   0  0  0  0  0  0  0  0  0  0  0  0
    1.7743   -0.1902    1.3058 H   0  0  0  0  0  0  0  0  0  0  0  0
    1.7230    0.2330    3.3930 C   0  0  0  0  0  0  0  0  0  0  0  0
    1.3586   -0.5117    4.1045 H   0  0  0  0  0  0  0  0  0  0  0  0
    2.8117    0.1832    3.3469 H   0  0  0  0  0  0  0  0  0  0  0  0
    1.4206    1.2217    3.7426 H   0  0  0  0  0  0  0  0  0  0  0  0
  5  6  2  0  0  0  0
  5  7  1  0  0  0  0
  2  3  1  0  0  0  0
  2  4  1  0  0  0  0
  2  5  1  0  0  0  0
  1  2  1  0  0  0  0
 22 23  2  0  0  0  0
 22 24  1  0  0  0  0
 18 19  1  0  0  0  0
 18 20  1  0  0  0  0
 18 21  1  0  0  0  0
 17 18  1  0  0  0  0
 14 15  1  0  0  0  0
 14 16  1  0  0  0  0
 14 17  1  0  0  0  0
 11 12  1  0  0  0  0
 11 13  1  0  0  0  0
 11 14  1  0  0  0  0
  9 10  1  0  0  0  0
  9 11  1  0  0  0  0
  9 22  1  0  0  0  0
  7  8  1  0  0  0  0
  7  9  1  0  0  0  0
 26 27  1  0  0  0  0
 26 28  1  0  0  0  0
 26 29  1  0  0  0  0
 24 25  1  0  0  0  0
 24 26  1  0  0  0  0
M  END
$$$$
default_name
  -OEChem-01062215323D

 29 28  0     1  0  0  0  0  0999 V2000
   -3.5781   -3.7296    1.2702 H   0  0  0  0  0  0  0  0  0  0  0  0
   -3.5311   -2.7616    0.7732 C   0  0  0  0  0  0  0  0  0  0  0  0
   -4.2371   -2.0766    1.2382 H   0  0  0  0  0  0  0  0  0  0  0  0
   -3.7681   -2.8816   -0.2818 H   0  0  0  0  0  0  0  0  0  0  0  0
   -2.1321   -2.2086    0.9112 C   0  0  0  0  0  0  0  0  0  0  0  0
   -1.2751   -2.8426    1.5112 O   0  0  0  0  0  0  0  0  0  0  0  0
   -1.9041   -1.0186    0.3602 N   0  0  0  0  0  0  0  0  0  0  0  0
   -2.6671   -0.5416   -0.0988 H   0  0  0  0  0  0  0  0  0  0  0  0
   -0.6131   -0.3236    0.3832 C   0  0  1  0  0  0  0  0  0  0  0  0
    0.1346   -0.9625   -0.0894 H   0  0  0  0  0  0  0  0  0  0  0  0
   -0.7253    0.9751   -0.4365 C   0  0  0  0  0  0  0  0  0  0  0  0
   -1.5604    1.5632   -0.0499 H   0  0  0  0  0  0  0  0  0  0  0  0
    0.1883    1.5584   -0.3133 H   0  0  0  0  0  0  0  0  0  0  0  0
   -0.9562    0.7365   -1.9331 C   0  0  0  0  0  0  0  0  0  0  0  0
   -1.8812    0.1765   -2.0673 H   0  0  0  0  0  0  0  0  0  0  0  0
   -1.0555    1.7020   -2.4305 H   0  0  0  0  0  0  0  0  0  0  0  0
    0.3801   -0.1853   -2.7359 S   0  0  0  0  0  0  0  0  0  0  0  0
    1.6986    1.0550   -2.6638 C   0  0  0  0  0  0  0  0  0  0  0  0
    1.9057    1.3115   -1.6244 H   0  0  0  0  0  0  0  0  0  0  0  0
    2.6019    0.6492   -3.1202 H   0  0  0  0  0  0  0  0  0  0  0  0
    1.3926    1.9492   -3.2076 H   0  0  0  0  0  0  0  0  0  0  0  0
   -0.1711   -0.0594    1.8296 C   0  0  0  0  0  0  0  0  0  0  0  0
   -0.9810   -0.1569    2.7493 O   0  0  0  0  0  0  0  0  0  0  0  0
    1.1080    0.2829    2.0300 N   0  0  0  0  0  0  0  0  0  0  0  0
    1.7170    0.3279    1.2286 H   0  0  0  0  0  0  0  0  0  0  0  0
    1.6771    0.5805    3.3435 C   0  0  0  0  0  0  0  0  0  0  0  0
    1.5427   -0.2781    4.0056 H   0  0  0  0  0  0  0  0  0  0  0  0
    2.7413    0.8028    3.2552 H   0  0  0  0  0  0  0  0  0  0  0  0
    1.1636    1.4382    3.7816 H   0  0  0  0  0  0  0  0  0  0  0  0
  5  6  2  0  0  0  0
  5  7  1  0  0  0  0
  2  3  1  0  0  0  0
  2  4  1  0  0  0  0
  2  5  1  0  0  0  0
  1  2  1  0  0  0  0
 22 23  2  0  0  0  0
 22 24  1  0  0  0  0
 18 19  1  0  0  0  0
 18 20  1  0  0  0  0
 18 21  1  0  0  0  0
 17 18  1  0  0  0  0
 14 15  1  0  0  0  0
 14 16  1  0  0  0  0
 14 17  1  0  0  0  0
 11 12  1  0  0  0  0
 11 13  1  0  0  0  0
 11 14  1  0  0  0  0
  9 10  1  0  0  0  0
  9 11  1  0  0  0  0
  9 22  1  0  0  0  0
  7  8  1  0  0  0  0
  7  9  1  0  0  0  0
 26 27  1  0  0  0  0
 26 28  1  0  0  0  0
 26 29  1  0  0  0  0
 24 25  1  0  0  0  0
 24 26  1  0  0  0  0
M  END
$$$$
default_name
  -OEChem-01062215323D

 29 28  0     1  0  0  0  0  0999 V2000
   -3.5781   -3.7296    1.2702 H   0  0  0  0  0  0  0  0  0  0  0  0
   -3.5311   -2.7616    0.7732 C   0  0  0  0  0  0  0  0  0  0  0  0
   -4.2371   -2.0766    1.2382 H   0  0  0  0  0  0  0  0  0  0  0  0
   -3.7681   -2.8816   -0.2818 H   0  0  0  0  0  0  0  0  0  0  0  0
   -2.1321   -2.2086    0.9112 C   0  0  0  0  0  0  0  0  0  0  0  0
   -1.2751   -2.8426    1.5112 O   0  0  0  0  0  0  0  0  0  0  0  0
   -1.9041   -1.0186    0.3602 N   0  0  0  0  0  0  0  0  0  0  0  0
   -2.6671   -0.5416   -0.0988 H   0  0  0  0  0  0  0  0  0  0  0  0
   -0.6131   -0.3236    0.3832 C   0  0  1  0  0  0  0  0  0  0  0  0
    0.0642   -0.8244   -0.3104 H   0  0  0  0  0  0  0  0  0  0  0  0
   -0.8122    1.1253   -0.0986 C   0  0  0  0  0  0  0  0  0  0  0  0
   -1.5873    1.5946    0.5110 H   0  0  0  0  0  0  0  0  0  0  0  0
    0.1156    1.6818    0.0418 H   0  0  0  0  0  0  0  0  0  0  0  0
   -1.2280    1.2294   -1.5705 C   0  0  0  0  0  0  0  0  0  0  0  0
   -2.1681    0.6979   -1.7148 H   0  0  0  0  0  0  0  0  0  0  0  0
   -1.3780    2.2808   -1.8185 H   0  0  0  0  0  0  0  0  0  0  0  0
   -0.0102    0.5392   -2.7194 S   0  0  0  0  0  0  0  0  0  0  0  0
    1.3197    1.7544   -2.5280 C   0  0  0  0  0  0  0  0  0  0  0  0
    1.6558    1.7713   -1.4908 H   0  0  0  0  0  0  0  0  0  0  0  0
    2.1557    1.4797   -3.1718 H   0  0  0  0  0  0  0  0  0  0  0  0
    0.9582    2.7431   -2.8119 H   0  0  0  0  0  0  0  0  0  0  0  0
    0.0063   -0.3875    1.7866 C   0  0  0  0  0  0  0  0  0  0  0  0
   -0.5880   -0.9609    2.6972 O   0  0  0  0  0  0  0  0  0  0  0  0
    1.1932    0.2070    1.9637 N   0  0  0  0  0  0  0  0  0  0  0  0
    1.6271    0.6443    1.1664 H   0  0  0  0  0  0  0  0  0  0  0  0
    1.9039    0.2463    3.2408 C   0  0  0  0  0  0  0  0  0  0  0  0
    2.0804   -0.7721    3.5949 H   0  0  0  0  0  0  0  0  0  0  0  0
    2.8605    0.7582    3.1280 H   0  0  0  0  0  0  0  0  0  0  0  0
    1.2988    0.7700    3.9830 H   0  0  0  0  0  0  0  0  0  0  0  0
  5  6  2  0  0  0  0
  5  7  1  0  0  0  0
  2  3  1  0  0  0  0
  2  4  1  0  0  0  0
  2  5  1  0  0  0  0
  1  2  1  0  0  0  0
 22 23  2  0  0  0  0
 22 24  1  0  0  0  0
 18 19  1  0  0  0  0
 18 20  1  0  0  0  0
 18 21  1  0  0  0  0
 17 18  1  0  0  0  0
 14 15  1  0  0  0  0
 14 16  1  0  0  0  0
 14 17  1  0  0  0  0
 11 12  1  0  0  0  0
 11 13  1  0  0  0  0
 11 14  1  0  0  0  0
  9 10  1  0  0  0  0
  9 11  1  0  0  0  0
  9 22  1  0  0  0  0
  7  8  1  0  0  0  0
  7  9  1  0  0  0  0
 26 27  1  0  0  0  0
 26 28  1  0  0  0  0
 26 29  1  0  0  0  0
 24 25  1  0  0  0  0
 24 26  1  0  0  0  0
M  END
$$$$
default_name
  -OEChem-01062215323D

 29 28  0     1  0  0  0  0  0999 V2000
   -3.5781   -3.7296    1.2702 H   0  0  0  0  0  0  0  0  0  0  0  0
   -3.5311   -2.7616    0.7732 C   0  0  0  0  0  0  0  0  0  0  0  0
   -4.2371   -2.0766    1.2382 H   0  0  0  0  0  0  0  0  0  0  0  0
   -3.7681   -2.8816   -0.2818 H   0  0  0  0  0  0  0  0  0  0  0  0
   -2.1321   -2.2086    0.9112 C   0  0  0  0  0  0  0  0  0  0  0  0
   -1.2751   -2.8426    1.5112 O   0  0  0  0  0  0  0  0  0  0  0  0
   -1.9041   -1.0186    0.3602 N   0  0  0  0  0  0  0  0  0  0  0  0
   -2.6671   -0.5416   -0.0988 H   0  0  0  0  0  0  0  0  0  0  0  0
   -0.6131   -0.3236    0.3832 C   0  0  1  0  0  0  0  0  0  0  0  0
    0.0642   -0.8244   -0.3104 H   0  0  0  0  0  0  0  0  0  0  0  0
   -0.8122    1.1253   -0.0986 C   0  0  0  0  0  0  0  0  0  0  0  0
   -1.5873    1.5946    0.5110 H   0  0  0  0  0  0  0  0  0  0  0  0
    0.1156    1.6818    0.0418 H   0  0  0  0  0  0  0  0  0  0  0  0
   -1.2280    1.2294   -1.5705 C   0  0  0  0  0  0  0  0  0  0  0  0
   -2.1681    0.6979   -1.7148 H   0  0  0  0  0  0  0  0  0  0  0  0
   -1.3780    2.2808   -1.8185 H   0  0  0  0  0  0  0  0  0  0  0  0
   -0.0102    0.5392   -2.7194 S   0  0  0  0  0  0  0  0  0  0  0  0
    1.3197    1.7544   -2.5280 C   0  0  0  0  0  0  0  0  0  0  0  0
    1.6558    1.7713   -1.4908 H   0  0  0  0  0  0  0  0  0  0  0  0
    2.1557    1.4797   -3.1718 H   0  0  0  0  0  0  0  0  0  0  0  0
    0.9582    2.7431   -2.8119 H   0  0  0  0  0  0  0  0  0  0  0  0
    0.0063   -0.3875    1.7866 C   0  0  0  0  0  0  0  0  0  0  0  0
   -0.4335   -1.1779    2.6191 O   0  0  0  0  0  0  0  0  0  0  0  0
    1.0186    0.4482    2.0517 N   0  0  0  0  0  0  0  0  0  0  0  0
    1.3350    1.0573    1.3141 H   0  0  0  0  0  0  0  0  0  0  0  0
    1.7020    0.5189    3.3423 C   0  0  0  0  0  0  0  0  0  0  0  0
    2.1157   -0.4606    3.5935 H   0  0  0  0  0  0  0  0  0  0  0  0
    2.5097    1.2511    3.3052 H   0  0  0  0  0  0  0  0  0  0  0  0
    0.9913    0.8035    4.1202 H   0  0  0  0  0  0  0  0  0  0  0  0
  5  6  2  0  0  0  0
  5  7  1  0  0  0  0
  2  3  1  0  0  0  0
  2  4  1  0  0  0  0
  2  5  1  0  0  0  0
  1  2  1  0  0  0  0
 22 23  2  0  0  0  0
 22 24  1  0  0  0  0
 18 19  1  0  0  0  0
 18 20  1  0  0  0  0
 18 21  1  0  0  0  0
 17 18  1  0  0  0  0
 14 15  1  0  0  0  0
 14 16  1  0  0  0  0
 14 17  1  0  0  0  0
 11 12  1  0  0  0  0
 11 13  1  0  0  0  0
 11 14  1  0  0  0  0
  9 10  1  0  0  0  0
  9 11  1  0  0  0  0
  9 22  1  0  0  0  0
  7  8  1  0  0  0  0
  7  9  1  0  0  0  0
 26 27  1  0  0  0  0
 26 28  1  0  0  0  0
 26 29  1  0  0  0  0
 24 25  1  0  0  0  0
 24 26  1  0  0  0  0
M  END
$$$$
default_name
  -OEChem-01062215323D

 29 28  0     1  0  0  0  0  0999 V2000
   -3.5781   -3.7296    1.2702 H   0  0  0  0  0  0  0  0  0  0  0  0
   -3.5311   -2.7616    0.7732 C   0  0  0  0  0  0  0  0  0  0  0  0
   -4.2371   -2.0766    1.2382 H   0  0  0  0  0  0  0  0  0  0  0  0
   -3.7681   -2.8816   -0.2818 H   0  0  0  0  0  0  0  0  0  0  0  0
   -2.1321   -2.2086    0.9112 C   0  0  0  0  0  0  0  0  0  0  0  0
   -1.2751   -2.8426    1.5112 O   0  0  0  0  0  0  0  0  0  0  0  0
   -1.9041   -1.0186    0.3602 N   0  0  0  0  0  0  0  0  0  0  0  0
   -2.6671   -0.5416   -0.0988 H   0  0  0  0  0  0  0  0  0  0  0  0
   -0.6131   -0.3236    0.3832 C   0  0  1  0  0  0  0  0  0  0  0  0
    0.0642   -0.8244   -0.3104 H   0  0  0  0  0  0  0  0  0  0  0  0
   -0.8122    1.1253   -0.0986 C   0  0  0  0  0  0  0  0  0  0  0  0
   -1.5873    1.5946    0.5110 H   0  0  0  0  0  0  0  0  0  0  0  0
    0.1156    1.6818    0.0418 H   0  0  0  0  0  0  0  0  0  0  0  0
   -1.2280    1.2294   -1.5705 C   0  0  0  0  0  0  0  0  0  0  0  0
   -2.1681    0.6979   -1.7148 H   0  0  0  0  0  0  0  0  0  0  0  0
   -1.3780    2.2808   -1.8185 H   0  0  0  0  0  0  0  0  0  0  0  0
   -0.0102    0.5392   -2.7194 S   0  0  0  0  0  0  0  0  0  0  0  0
    1.3197    1.7544   -2.5280 C   0  0  0  0  0  0  0  0  0  0  0  0
    1.6558    1.7713   -1.4908 H   0  0  0  0  0  0  0  0  0  0  0  0
    2.1557    1.4797   -3.1718 H   0  0  0  0  0  0  0  0  0  0  0  0
    0.9582    2.7431   -2.8119 H   0  0  0  0  0  0  0  0  0  0  0  0
    0.0063   -0.3875    1.7866 C   0  0  0  0  0  0  0  0  0  0  0  0
   -0.2320   -1.3428    2.5227 O   0  0  0  0  0  0  0  0  0  0  0  0
    0.7921    0.6306    2.1600 N   0  0  0  0  0  0  0  0  0  0  0  0
    0.9537    1.3717    1.4967 H   0  0  0  0  0  0  0  0  0  0  0  0
    1.4415    0.7238    3.4666 C   0  0  0  0  0  0  0  0  0  0  0  0
    2.0761   -0.1513    3.6251 H   0  0  0  0  0  0  0  0  0  0  0  0
    2.0524    1.6257    3.5240 H   0  0  0  0  0  0  0  0  0  0  0  0
    0.6849    0.7488    4.2529 H   0  0  0  0  0  0  0  0  0  0  0  0
  5  6  2  0  0  0  0
  5  7  1  0  0  0  0
  2  3  1  0  0  0  0
  2  4  1  0  0  0  0
  2  5  1  0  0  0  0
  1  2  1  0  0  0  0
 22 23  2  0  0  0  0
 22 24  1  0  0  0  0
 18 19  1  0  0  0  0
 18 20  1  0  0  0  0
 18 21  1  0  0  0  0
 17 18  1  0  0  0  0
 14 15  1  0  0  0  0
 14 16  1  0  0  0  0
 14 17  1  0  0  0  0
 11 12  1  0  0  0  0
 11 13  1  0  0  0  0
 11 14  1  0  0  0  0
  9 10  1  0  0  0  0
  9 11  1  0  0  0  0
  9 22  1  0  0  0  0
  7  8  1  0  0  0  0
  7  9  1  0  0  0  0
 26 27  1  0  0  0  0
 26 28  1  0  0  0  0
 26 29  1  0  0  0  0
 24 25  1  0  0  0  0
 24 26  1  0  0  0  0
M  END
$$$$
default_name
  -OEChem-01062215323D

 29 28  0     1  0  0  0  0  0999 V2000
   -3.5781   -3.7296    1.2702 H   0  0  0  0  0  0  0  0  0  0  0  0
   -3.5311   -2.7616    0.7732 C   0  0  0  0  0  0  0  0  0  0  0  0
   -4.2371   -2.0766    1.2382 H   0  0  0  0  0  0  0  0  0  0  0  0
   -3.7681   -2.8816   -0.2818 H   0  0  0  0  0  0  0  0  0  0  0  0
   -2.1321   -2.2086    0.9112 C   0  0  0  0  0  0  0  0  0  0  0  0
   -1.2751   -2.8426    1.5112 O   0  0  0  0  0  0  0  0  0  0  0  0
   -1.9041   -1.0186    0.3602 N   0  0  0  0  0  0  0  0  0  0  0  0
   -2.6671   -0.5416   -0.0988 H   0  0  0  0  0  0  0  0  0  0  0  0
   -0.6131   -0.3236    0.3832 C   0  0  1  0  0  0  0  0  0  0  0  0
    0.0642   -0.8244   -0.3104 H   0  0  0  0  0  0  0  0  0  0  0  0
   -0.8122    1.1253   -0.0986 C   0  0  0  0  0  0  0  0  0  0  0  0
   -1.5873    1.5946    0.5110 H   0  0  0  0  0  0  0  0  0  0  0  0
    0.1156    1.6818    0.0418 H   0  0  0  0  0  0  0  0  0  0  0  0
   -1.2280    1.2294   -1.5705 C   0  0  0  0  0  0  0  0  0  0  0  0
   -2.1681    0.6979   -1.7148 H   0  0  0  0  0  0  0  0  0  0  0  0
   -1.3780    2.2808   -1.8185 H   0  0  0  0  0  0  0  0  0  0  0  0
   -0.0102    0.5392   -2.7194 S   0  0  0  0  0  0  0  0  0  0  0  0
    1.3197    1.7544   -2.5280 C   0  0  0  0  0  0  0  0  0  0  0  0
    1.6558    1.7713   -1.4908 H   0  0  0  0  0  0  0  0  0  0  0  0
    2.1557    1.4797   -3.1718 H   0  0  0  0  0  0  0  0  0  0  0  0
    0.9582    2.7431   -2.8119 H   0  0  0  0  0  0  0  0  0  0  0  0
    0.0063   -0.3875    1.7866 C   0  0  0  0  0  0  0  0  0  0  0  0
    0.0027   -1.4443    2.4145 O   0  0  0  0  0  0  0  0  0  0  0  0
    0.5289    0.7420    2.2812 N   0  0  0  0  0  0  0  0  0  0  0  0
    0.5089    1.5661    1.7018 H   0  0  0  0  0  0  0  0  0  0  0  0
    1.1400    0.8472    3.6053 C   0  0  0  0  0  0  0  0  0  0  0  0
    1.9643    0.1348    3.6874 H   0  0  0  0  0  0  0  0  0  0  0  0
    1.5197    1.8564    3.7696 H   0  0  0  0  0  0  0  0  0  0  0  0
    0.4005    0.6096    4.3721 H   0  0  0  0  0  0  0  0  0  0  0  0
  5  6  2  0  0  0  0
  5  7  1  0  0  0  0
  2  3  1  0  0  0  0
  2  4  1  0  0  0  0
  2  5  1  0  0  0  0
  1  2  1  0  0  0  0
 22 23  2  0  0  0  0
 22 24  1  0  0  0  0
 18 19  1  0  0  0  0
 18 20  1  0  0  0  0
 18 21  1  0  0  0  0
 17 18  1  0  0  0  0
 14 15  1  0  0  0  0
 14 16  1  0  0  0  0
 14 17  1  0  0  0  0
 11 12  1  0  0  0  0
 11 13  1  0  0  0  0
 11 14  1  0  0  0  0
  9 10  1  0  0  0  0
  9 11  1  0  0  0  0
  9 22  1  0  0  0  0
  7  8  1  0  0  0  0
  7  9  1  0  0  0  0
 26 27  1  0  0  0  0
 26 28  1  0  0  0  0
 26 29  1  0  0  0  0
 24 25  1  0  0  0  0
 24 26  1  0  0  0  0
M  END
$$$$
default_name
  -OEChem-01062215323D

 29 28  0     1  0  0  0  0  0999 V2000
   -3.5781   -3.7296    1.2702 H   0  0  0  0  0  0  0  0  0  0  0  0
   -3.5311   -2.7616    0.7732 C   0  0  0  0  0  0  0  0  0  0  0  0
   -4.2371   -2.0766    1.2382 H   0  0  0  0  0  0  0  0  0  0  0  0
   -3.7681   -2.8816   -0.2818 H   0  0  0  0  0  0  0  0  0  0  0  0
   -2.1321   -2.2086    0.9112 C   0  0  0  0  0  0  0  0  0  0  0  0
   -1.2751   -2.8426    1.5112 O   0  0  0  0  0  0  0  0  0  0  0  0
   -1.9041   -1.0186    0.3602 N   0  0  0  0  0  0  0  0  0  0  0  0
   -2.6671   -0.5416   -0.0988 H   0  0  0  0  0  0  0  0  0  0  0  0
   -0.6131   -0.3236    0.3832 C   0  0  1  0  0  0  0  0  0  0  0  0
    0.0642   -0.8244   -0.3104 H   0  0  0  0  0  0  0  0  0  0  0  0
   -0.8122    1.1253   -0.0986 C   0  0  0  0  0  0  0  0  0  0  0  0
   -1.5873    1.5946    0.5110 H   0  0  0  0  0  0  0  0  0  0  0  0
    0.1156    1.6818    0.0418 H   0  0  0  0  0  0  0  0  0  0  0  0
   -1.2280    1.2294   -1.5705 C   0  0  0  0  0  0  0  0  0  0  0  0
   -2.1681    0.6979   -1.7148 H   0  0  0  0  0  0  0  0  0  0  0  0
   -1.3780    2.2808   -1.8185 H   0  0  0  0  0  0  0  0  0  0  0  0
   -0.0102    0.5392   -2.7194 S   0  0  0  0  0  0  0  0  0  0  0  0
    1.3197    1.7544   -2.5280 C   0  0  0  0  0  0  0  0  0  0  0  0
    1.6558    1.7713   -1.4908 H   0  0  0  0  0  0  0  0  0  0  0  0
    2.1557    1.4797   -3.1718 H   0  0  0  0  0  0  0  0  0  0  0  0
    0.9582    2.7431   -2.8119 H   0  0  0  0  0  0  0  0  0  0  0  0
    0.0063   -0.3875    1.7866 C   0  0  0  0  0  0  0  0  0  0  0  0
    0.2546   -1.4756    2.3019 O   0  0  0  0  0  0  0  0  0  0  0  0
    0.2470    0.7746    2.4071 N   0  0  0  0  0  0  0  0  0  0  0  0
    0.0311    1.6272    1.9155 H   0  0  0  0  0  0  0  0  0  0  0  0
    0.8181    0.8805    3.7488 C   0  0  0  0  0  0  0  0  0  0  0  0
    1.7880    0.3783    3.7763 H   0  0  0  0  0  0  0  0  0  0  0  0
    0.9480    1.9277    4.0252 H   0  0  0  0  0  0  0  0  0  0  0  0
    0.1574    0.3955    4.4696 H   0  0  0  0  0  0  0  0  0  0  0  0
  5  6  2  0  0  0  0
  5  7  1  0  0  0  0
  2  3  1  0  0  0  0
  2  4  1  0  0  0  0
  2  5  1  0  0  0  0
  1  2  1  0  0  0  0
 22 23  2  0  0  0  0
 22 24  1  0  0  0  0
 18 19  1  0  0  0  0
 18 20  1  0  0  0  0
 18 21  1  0  0  0  0
 17 18  1  0  0  0  0
 14 15  1  0  0  0  0
 14 16  1  0  0  0  0
 14 17  1  0  0  0  0
 11 12  1  0  0  0  0
 11 13  1  0  0  0  0
 11 14  1  0  0  0  0
  9 10  1  0  0  0  0
  9 11  1  0  0  0  0
  9 22  1  0  0  0  0
  7  8  1  0  0  0  0
  7  9  1  0  0  0  0
 26 27  1  0  0  0  0
 26 28  1  0  0  0  0
 26 29  1  0  0  0  0
 24 25  1  0  0  0  0
 24 26  1  0  0  0  0
M  END
$$$$
default_name
  -OEChem-01062215323D

 29 28  0     1  0  0  0  0  0999 V2000
   -3.5781   -3.7296    1.2702 H   0  0  0  0  0  0  0  0  0  0  0  0
   -3.5311   -2.7616    0.7732 C   0  0  0  0  0  0  0  0  0  0  0  0
   -4.2371   -2.0766    1.2382 H   0  0  0  0  0  0  0  0  0  0  0  0
   -3.7681   -2.8816   -0.2818 H   0  0  0  0  0  0  0  0  0  0  0  0
   -2.1321   -2.2086    0.9112 C   0  0  0  0  0  0  0  0  0  0  0  0
   -1.2751   -2.8426    1.5112 O   0  0  0  0  0  0  0  0  0  0  0  0
   -1.9041   -1.0186    0.3602 N   0  0  0  0  0  0  0  0  0  0  0  0
   -2.6671   -0.5416   -0.0988 H   0  0  0  0  0  0  0  0  0  0  0  0
   -0.6131   -0.3236    0.3832 C   0  0  1  0  0  0  0  0  0  0  0  0
    0.0642   -0.8244   -0.3104 H   0  0  0  0  0  0  0  0  0  0  0  0
   -0.8122    1.1253   -0.0986 C   0  0  0  0  0  0  0  0  0  0  0  0
   -1.5873    1.5946    0.5110 H   0  0  0  0  0  0  0  0  0  0  0  0
    0.1156    1.6818    0.0418 H   0  0  0  0  0  0  0  0  0  0  0  0
   -1.2280    1.2294   -1.5705 C   0  0  0  0  0  0  0  0  0  0  0  0
   -2.1681    0.6979   -1.7148 H   0  0  0  0  0  0  0  0  0  0  0  0
   -1.3780    2.2808   -1.8185 H   0  0  0  0  0  0  0  0  0  0  0  0
   -0.0102    0.5392   -2.7194 S   0  0  0  0  0  0  0  0  0  0  0  0
    1.3197    1.7544   -2.5280 C   0  0  0  0  0  0  0  0  0  0  0  0
    1.6558    1.7713   -1.4908 H   0  0  0  0  0  0  0  0  0  0  0  0
    2.1557    1.4797   -3.1718 H   0  0  0  0  0  0  0  0  0  0  0  0
    0.9582    2.7431   -2.8119 H   0  0  0  0  0  0  0  0  0  0  0  0
    0.0063   -0.3875    1.7866 C   0  0  0  0  0  0  0  0  0  0  0  0
    0.5065   -1.4345    2.1926 O   0  0  0  0  0  0  0  0  0  0  0  0
   -0.0344    0.7263    2.5290 N   0  0  0  0  0  0  0  0  0  0  0  0
   -0.4471    1.5509    2.1231 H   0  0  0  0  0  0  0  0  0  0  0  0
    0.4978    0.8216    3.8875 C   0  0  0  0  0  0  0  0  0  0  0  0
    1.5591    0.5624    3.8857 H   0  0  0  0  0  0  0  0  0  0  0  0
    0.3761    1.8346    4.2734 H   0  0  0  0  0  0  0  0  0  0  0  0
   -0.0277    0.1209    4.5388 H   0  0  0  0  0  0  0  0  0  0  0  0
  5  6  2  0  0  0  0
  5  7  1  0  0  0  0
  2  3  1  0  0  0  0
  2  4  1  0  0  0  0
  2  5  1  0  0  0  0
  1  2  1  0  0  0  0
 22 23  2  0  0  0  0
 22 24  1  0  0  0  0
 18 19  1  0  0  0  0
 18 20  1  0  0  0  0
 18 21  1  0  0  0  0
 17 18  1  0  0  0  0
 14 15  1  0  0  0  0
 14 16  1  0  0  0  0
 14 17  1  0  0  0  0
 11 12  1  0  0  0  0
 11 13  1  0  0  0  0
 11 14  1  0  0  0  0
  9 10  1  0  0  0  0
  9 11  1  0  0  0  0
  9 22  1  0  0  0  0
  7  8  1  0  0  0  0
  7  9  1  0  0  0  0
 26 27  1  0  0  0  0
 26 28  1  0  0  0  0
 26 29  1  0  0  0  0
 24 25  1  0  0  0  0
 24 26  1  0  0  0  0
M  END
$$$$
default_name
  -OEChem-01062215323D

 29 28  0     1  0  0  0  0  0999 V2000
   -3.5781   -3.7296    1.2702 H   0  0  0  0  0  0  0  0  0  0  0  0
   -3.5311   -2.7616    0.7732 C   0  0  0  0  0  0  0  0  0  0  0  0
   -4.2371   -2.0766    1.2382 H   0  0  0  0  0  0  0  0  0  0  0  0
   -3.7681   -2.8816   -0.2818 H   0  0  0  0  0  0  0  0  0  0  0  0
   -2.1321   -2.2086    0.9112 C   0  0  0  0  0  0  0  0  0  0  0  0
   -1.2751   -2.8426    1.5112 O   0  0  0  0  0  0  0  0  0  0  0  0
   -1.9041   -1.0186    0.3602 N   0  0  0  0  0  0  0  0  0  0  0  0
   -2.6671   -0.5416   -0.0988 H   0  0  0  0  0  0  0  0  0  0  0  0
   -0.6131   -0.3236    0.3832 C   0  0  1  0  0  0  0  0  0  0  0  0
    0.0642   -0.8244   -0.3104 H   0  0  0  0  0  0  0  0  0  0  0  0
   -0.8122    1.1253   -0.0986 C   0  0  0  0  0  0  0  0  0  0  0  0
   -1.5873    1.5946    0.5110 H   0  0  0  0  0  0  0  0  0  0  0  0
    0.1156    1.6818    0.0418 H   0  0  0  0  0  0  0  0  0  0  0  0
   -1.2280    1.2294   -1.5705 C   0  0  0  0  0  0  0  0  0  0  0  0
   -2.1681    0.6979   -1.7148 H   0  0  0  0  0  0  0  0  0  0  0  0
   -1.3780    2.2808   -1.8185 H   0  0  0  0  0  0  0  0  0  0  0  0
   -0.0102    0.5392   -2.7194 S   0  0  0  0  0  0  0  0  0  0  0  0
    1.3197    1.7544   -2.5280 C   0  0  0  0  0  0  0  0  0  0  0  0
    1.6558    1.7713   -1.4908 H   0  0  0  0  0  0  0  0  0  0  0  0
    2.1557    1.4797   -3.1718 H   0  0  0  0  0  0  0  0  0  0  0  0
    0.9582    2.7431   -2.8119 H   0  0  0  0  0  0  0  0  0  0  0  0
    0.0063   -0.3875    1.7866 C   0  0  0  0  0  0  0  0  0  0  0  0
    0.7412   -1.3237    2.0941 O   0  0  0  0  0  0  0  0  0  0  0  0
   -0.2960    0.6004    2.6388 N   0  0  0  0  0  0  0  0  0  0  0  0
   -0.8933    1.3424    2.3105 H   0  0  0  0  0  0  0  0  0  0  0  0
    0.2008    0.6744    4.0119 C   0  0  0  0  0  0  0  0  0  0  0  0
    1.2933    0.6747    4.0081 H   0  0  0  0  0  0  0  0  0  0  0  0
   -0.1570    1.5834    4.4972 H   0  0  0  0  0  0  0  0  0  0  0  0
   -0.1424   -0.1953    4.5750 H   0  0  0  0  0  0  0  0  0  0  0  0
  5  6  2  0  0  0  0
  5  7  1  0  0  0  0
  2  3  1  0  0  0  0
  2  4  1  0  0  0  0
  2  5  1  0  0  0  0
  1  2  1  0  0  0  0
 22 23  2  0  0  0  0
 22 24  1  0  0  0  0
 18 19  1  0  0  0  0
 18 20  1  0  0  0  0
 18 21  1  0  0  0  0
 17 18  1  0  0  0  0
 14 15  1  0  0  0  0
 14 16  1  0  0  0  0
 14 17  1  0  0  0  0
 11 12  1  0  0  0  0
 11 13  1  0  0  0  0
 11 14  1  0  0  0  0
  9 10  1  0  0  0  0
  9 11  1  0  0  0  0
  9 22  1  0  0  0  0
  7  8  1  0  0  0  0
  7  9  1  0  0  0  0
 26 27  1  0  0  0  0
 26 28  1  0  0  0  0
 26 29  1  0  0  0  0
 24 25  1  0  0  0  0
 24 26  1  0  0  0  0
M  END
$$$$
default_name
  -OEChem-01062215323D

 29 28  0     1  0  0  0  0  0999 V2000
   -3.5781   -3.7296    1.2702 H   0  0  0  0  0  0  0  0  0  0  0  0
   -3.5311   -2.7616    0.7732 C   0  0  0  0  0  0  0  0  0  0  0  0
   -4.2371   -2.0766    1.2382 H   0  0  0  0  0  0  0  0  0  0  0  0
   -3.7681   -2.8816   -0.2818 H   0  0  0  0  0  0  0  0  0  0  0  0
   -2.1321   -2.2086    0.9112 C   0  0  0  0  0  0  0  0  0  0  0  0
   -1.2751   -2.8426    1.5112 O   0  0  0  0  0  0  0  0  0  0  0  0
   -1.9041   -1.0186    0.3602 N   0  0  0  0  0  0  0  0  0  0  0  0
   -2.6671   -0.5416   -0.0988 H   0  0  0  0  0  0  0  0  0  0  0  0
   -0.6131   -0.3236    0.3832 C   0  0  1  0  0  0  0  0  0  0  0  0
    0.0642   -0.8244   -0.3104 H   0  0  0  0  0  0  0  0  0  0  0  0
   -0.8122    1.1253   -0.0986 C   0  0  0  0  0  0  0  0  0  0  0  0
   -1.5873    1.5946    0.5110 H   0  0  0  0  0  0  0  0  0  0  0  0
    0.1156    1.6818    0.0418 H   0  0  0  0  0  0  0  0  0  0  0  0
   -1.2280    1.2294   -1.5705 C   0  0  0  0  0  0  0  0  0  0  0  0
   -2.1681    0.6979   -1.7148 H   0  0  0  0  0  0  0  0  0  0  0  0
   -1.3780    2.2808   -1.8185 H   0  0  0  0  0  0  0  0  0  0  0  0
   -0.0102    0.5392   -2.7194 S   0  0  0  0  0  0  0  0  0  0  0  0
    1.3197    1.7544   -2.5280 C   0  0  0  0  0  0  0  0  0  0  0  0
    1.6558    1.7713   -1.4908 H   0  0  0  0  0  0  0  0  0  0  0  0
    2.1557    1.4797   -3.1718 H   0  0  0  0  0  0  0  0  0  0  0  0
    0.9582    2.7431   -2.8119 H   0  0  0  0  0  0  0  0  0  0  0  0
    0.0063   -0.3875    1.7866 C   0  0  0  0  0  0  0  0  0  0  0  0
    0.9428   -1.1509    2.0130 O   0  0  0  0  0  0  0  0  0  0  0  0
   -0.5202    0.4053    2.7288 N   0  0  0  0  0  0  0  0  0  0  0  0
   -1.2769    1.0159    2.4649 H   0  0  0  0  0  0  0  0  0  0  0  0
   -0.0526    0.4489    4.1135 C   0  0  0  0  0  0  0  0  0  0  0  0
    1.0087    0.7075    4.1352 H   0  0  0  0  0  0  0  0  0  0  0  0
   -0.6149    1.1913    4.6814 H   0  0  0  0  0  0  0  0  0  0  0  0
   -0.1787   -0.5317    4.5758 H   0  0  0  0  0  0  0  0  0  0  0  0
  5  6  2  0  0  0  0
  5  7  1  0  0  0  0
  2  3  1  0  0  0  0
  2  4  1  0  0  0  0
  2  5  1  0  0  0  0
  1  2  1  0  0  0  0
 22 23  2  0  0  0  0
 22 24  1  0  0  0  0
 18 19  1  0  0  0  0
 18 20  1  0  0  0  0
 18 21  1  0  0  0  0
 17 18  1  0  0  0  0
 14 15  1  0  0  0  0
 14 16  1  0  0  0  0
 14 17  1  0  0  0  0
 11 12  1  0  0  0  0
 11 13  1  0  0  0  0
 11 14  1  0  0  0  0
  9 10  1  0  0  0  0
  9 11  1  0  0  0  0
  9 22  1  0  0  0  0
  7  8  1  0  0  0  0
  7  9  1  0  0  0  0
 26 27  1  0  0  0  0
 26 28  1  0  0  0  0
 26 29  1  0  0  0  0
 24 25  1  0  0  0  0
 24 26  1  0  0  0  0
M  END
$$$$
default_name
  -OEChem-01062215323D

 29 28  0     1  0  0  0  0  0999 V2000
   -3.5781   -3.7296    1.2702 H   0  0  0  0  0  0  0  0  0  0  0  0
   -3.5311   -2.7616    0.7732 C   0  0  0  0  0  0  0  0  0  0  0  0
   -4.2371   -2.0766    1.2382 H   0  0  0  0  0  0  0  0  0  0  0  0
   -3.7681   -2.8816   -0.2818 H   0  0  0  0  0  0  0  0  0  0  0  0
   -2.1321   -2.2086    0.9112 C   0  0  0  0  0  0  0  0  0  0  0  0
   -1.2751   -2.8426    1.5112 O   0  0  0  0  0  0  0  0  0  0  0  0
   -1.9041   -1.0186    0.3602 N   0  0  0  0  0  0  0  0  0  0  0  0
   -2.6671   -0.5416   -0.0988 H   0  0  0  0  0  0  0  0  0  0  0  0
   -0.6131   -0.3236    0.3832 C   0  0  1  0  0  0  0  0  0  0  0  0
    0.0642   -0.8244   -0.3104 H   0  0  0  0  0  0  0  0  0  0  0  0
   -0.8122    1.1253   -0.0986 C   0  0  0  0  0  0  0  0  0  0  0  0
   -1.5873    1.5946    0.5110 H   0  0  0  0  0  0  0  0  0  0  0  0
    0.1156    1.6818    0.0418 H   0  0  0  0  0  0  0  0  0  0  0  0
   -1.2280    1.2294   -1.5705 C   0  0  0  0  0  0  0  0  0  0  0  0
   -2.1681    0.6979   -1.7148 H   0  0  0  0  0  0  0  0  0  0  0  0
   -1.3780    2.2808   -1.8185 H   0  0  0  0  0  0  0  0  0  0  0  0
   -0.0102    0.5392   -2.7194 S   0  0  0  0  0  0  0  0  0  0  0  0
    1.3197    1.7544   -2.5280 C   0  0  0  0  0  0  0  0  0  0  0  0
    1.6558    1.7713   -1.4908 H   0  0  0  0  0  0  0  0  0  0  0  0
    2.1557    1.4797   -3.1718 H   0  0  0  0  0  0  0  0  0  0  0  0
    0.9582    2.7431   -2.8119 H   0  0  0  0  0  0  0  0  0  0  0  0
    0.0063   -0.3875    1.7866 C   0  0  0  0  0  0  0  0  0  0  0  0
    1.0976   -0.9279    1.9548 O   0  0  0  0  0  0  0  0  0  0  0  0
   -0.6915    0.1545    2.7930 N   0  0  0  0  0  0  0  0  0  0  0  0
   -1.5719    0.5936    2.5759 H   0  0  0  0  0  0  0  0  0  0  0  0
   -0.2451    0.1606    4.1853 C   0  0  0  0  0  0  0  0  0  0  0  0
    0.7246    0.6586    4.2584 H   0  0  0  0  0  0  0  0  0  0  0  0
   -0.9664    0.6850    4.8135 H   0  0  0  0  0  0  0  0  0  0  0  0
   -0.1343   -0.8653    4.5409 H   0  0  0  0  0  0  0  0  0  0  0  0
  5  6  2  0  0  0  0
  5  7  1  0  0  0  0
  2  3  1  0  0  0  0
  2  4  1  0  0  0  0
  2  5  1  0  0  0  0
  1  2  1  0  0  0  0
 22 23  2  0  0  0  0
 22 24  1  0  0  0  0
 18 19  1  0  0  0  0
 18 20  1  0  0  0  0
 18 21  1  0  0  0  0
 17 18  1  0  0  0  0
 14 15  1  0  0  0  0
 14 16  1  0  0  0  0
 14 17  1  0  0  0  0
 11 12  1  0  0  0  0
 11 13  1  0  0  0  0
 11 14  1  0  0  0  0
  9 10  1  0  0  0  0
  9 11  1  0  0  0  0
  9 22  1  0  0  0  0
  7  8  1  0  0  0  0
  7  9  1  0  0  0  0
 26 27  1  0  0  0  0
 26 28  1  0  0  0  0
 26 29  1  0  0  0  0
 24 25  1  0  0  0  0
 24 26  1  0  0  0  0
M  END
$$$$
default_name
  -OEChem-01062215323D

 29 28  0     1  0  0  0  0  0999 V2000
   -3.5781   -3.7296    1.2702 H   0  0  0  0  0  0  0  0  0  0  0  0
   -3.5311   -2.7616    0.7732 C   0  0  0  0  0  0  0  0  0  0  0  0
   -4.2371   -2.0766    1.2382 H   0  0  0  0  0  0  0  0  0  0  0  0
   -3.7681   -2.8816   -0.2818 H   0  0  0  0  0  0  0  0  0  0  0  0
   -2.1321   -2.2086    0.9112 C   0  0  0  0  0  0  0  0  0  0  0  0
   -1.2751   -2.8426    1.5112 O   0  0  0  0  0  0  0  0  0  0  0  0
   -1.9041   -1.0186    0.3602 N   0  0  0  0  0  0  0  0  0  0  0  0
   -2.6671   -0.5416   -0.0988 H   0  0  0  0  0  0  0  0  0  0  0  0
   -0.6131   -0.3236    0.3832 C   0  0  1  0  0  0  0  0  0  0  0  0
    0.0642   -0.8244   -0.3104 H   0  0  0  0  0  0  0  0  0  0  0  0
   -0.8122    1.1253   -0.0986 C   0  0  0  0  0  0  0  0  0  0  0  0
   -1.5873    1.5946    0.5110 H   0  0  0  0  0  0  0  0  0  0  0  0
    0.1156    1.6818    0.0418 H   0  0  0  0  0  0  0  0  0  0  0  0
   -1.2280    1.2294   -1.5705 C   0  0  0  0  0  0  0  0  0  0  0  0
   -2.1681    0.6979   -1.7148 H   0  0  0  0  0  0  0  0  0  0  0  0
   -1.3780    2.2808   -1.8185 H   0  0  0  0  0  0  0  0  0  0  0  0
   -0.0102    0.5392   -2.7194 S   0  0  0  0  0  0  0  0  0  0  0  0
    1.3197    1.7544   -2.5280 C   0  0  0  0  0  0  0  0  0  0  0  0
    1.6558    1.7713   -1.4908 H   0  0  0  0  0  0  0  0  0  0  0  0
    2.1557    1.4797   -3.1718 H   0  0  0  0  0  0  0  0  0  0  0  0
    0.9582    2.7431   -2.8119 H   0  0  0  0  0  0  0  0  0  0  0  0
    0.0063   -0.3875    1.7866 C   0  0  0  0  0  0  0  0  0  0  0  0
    1.1949   -0.6697    1.9237 O   0  0  0  0  0  0  0  0  0  0  0  0
   -0.7983   -0.1350    2.8270 N   0  0  0  0  0  0  0  0  0  0  0  0
   -1.7581    0.1043    2.6358 H   0  0  0  0  0  0  0  0  0  0  0  0
   -0.3636   -0.1709    4.2225 C   0  0  0  0  0  0  0  0  0  0  0  0
    0.4605    0.5312    4.3691 H   0  0  0  0  0  0  0  0  0  0  0  0
   -1.1876    0.0990    4.8844 H   0  0  0  0  0  0  0  0  0  0  0  0
   -0.0120   -1.1734    4.4730 H   0  0  0  0  0  0  0  0  0  0  0  0
  5  6  2  0  0  0  0
  5  7  1  0  0  0  0
  2  3  1  0  0  0  0
  2  4  1  0  0  0  0
  2  5  1  0  0  0  0
  1  2  1  0  0  0  0
 22 23  2  0  0  0  0
 22 24  1  0  0  0  0
 18 19  1  0  0  0  0
 18 20  1  0  0  0  0
 18 21  1  0  0  0  0
 17 18  1  0  0  0  0
 14 15  1  0  0  0  0
 14 16  1  0  0  0  0
 14 17  1  0  0  0  0
 11 12  1  0  0  0  0
 11 13  1  0  0  0  0
 11 14  1  0  0  0  0
  9 10  1  0  0  0  0
  9 11  1  0  0  0  0
  9 22  1  0  0  0  0
  7  8  1  0  0  0  0
  7  9  1  0  0  0  0
 26 27  1  0  0  0  0
 26 28  1  0  0  0  0
 26 29  1  0  0  0  0
 24 25  1  0  0  0  0
 24 26  1  0  0  0  0
M  END
$$$$
default_name
  -OEChem-01062215323D

 29 28  0     1  0  0  0  0  0999 V2000
   -3.5781   -3.7296    1.2702 H   0  0  0  0  0  0  0  0  0  0  0  0
   -3.5311   -2.7616    0.7732 C   0  0  0  0  0  0  0  0  0  0  0  0
   -4.2371   -2.0766    1.2382 H   0  0  0  0  0  0  0  0  0  0  0  0
   -3.7681   -2.8816   -0.2818 H   0  0  0  0  0  0  0  0  0  0  0  0
   -2.1321   -2.2086    0.9112 C   0  0  0  0  0  0  0  0  0  0  0  0
   -1.2751   -2.8426    1.5112 O   0  0  0  0  0  0  0  0  0  0  0  0
   -1.9041   -1.0186    0.3602 N   0  0  0  0  0  0  0  0  0  0  0  0
   -2.6671   -0.5416   -0.0988 H   0  0  0  0  0  0  0  0  0  0  0  0
   -0.6131   -0.3236    0.3832 C   0  0  1  0  0  0  0  0  0  0  0  0
    0.0642   -0.8244   -0.3104 H   0  0  0  0  0  0  0  0  0  0  0  0
   -0.8122    1.1253   -0.0986 C   0  0  0  0  0  0  0  0  0  0  0  0
   -1.5873    1.5946    0.5110 H   0  0  0  0  0  0  0  0  0  0  0  0
    0.1156    1.6818    0.0418 H   0  0  0  0  0  0  0  0  0  0  0  0
   -1.2280    1.2294   -1.5705 C   0  0  0  0  0  0  0  0  0  0  0  0
   -2.1681    0.6979   -1.7148 H   0  0  0  0  0  0  0  0  0  0  0  0
   -1.3780    2.2808   -1.8185 H   0  0  0  0  0  0  0  0  0  0  0  0
   -0.0102    0.5392   -2.7194 S   0  0  0  0  0  0  0  0  0  0  0  0
    1.3197    1.7544   -2.5280 C   0  0  0  0  0  0  0  0  0  0  0  0
    1.6558    1.7713   -1.4908 H   0  0  0  0  0  0  0  0  0  0  0  0
    2.1557    1.4797   -3.1718 H   0  0  0  0  0  0  0  0  0  0  0  0
    0.9582    2.7431   -2.8119 H   0  0  0  0  0  0  0  0  0  0  0  0
    0.0063   -0.3875    1.7866 C   0  0  0  0  0  0  0  0  0  0  0  0
    1.2282   -0.3941    1.9215 O   0  0  0  0  0  0  0  0  0  0  0  0
   -0.8334   -0.4434    2.8284 N   0  0  0  0  0  0  0  0  0  0  0  0
   -1.8229   -0.4186    2.6406 H   0  0  0  0  0  0  0  0  0  0  0  0
   -0.4001   -0.5231    4.2225 C   0  0  0  0  0  0  0  0  0  0  0  0
    0.2343    0.3342    4.4600 H   0  0  0  0  0  0  0  0  0  0  0  0
   -1.2633   -0.5267    4.8893 H   0  0  0  0  0  0  0  0  0  0  0  0
    0.1797   -1.4349    4.3764 H   0  0  0  0  0  0  0  0  0  0  0  0
  5  6  2  0  0  0  0
  5  7  1  0  0  0  0
  2  3  1  0  0  0  0
  2  4  1  0  0  0  0
  2  5  1  0  0  0  0
  1  2  1  0  0  0  0
 22 23  2  0  0  0  0
 22 24  1  0  0  0  0
 18 19  1  0  0  0  0
 18 20  1  0  0  0  0
 18 21  1  0  0  0  0
 17 18  1  0  0  0  0
 14 15  1  0  0  0  0
 14 16  1  0  0  0  0
 14 17  1  0  0  0  0
 11 12  1  0  0  0  0
 11 13  1  0  0  0  0
 11 14  1  0  0  0  0
  9 10  1  0  0  0  0
  9 11  1  0  0  0  0
  9 22  1  0  0  0  0
  7  8  1  0  0  0  0
  7  9  1  0  0  0  0
 26 27  1  0  0  0  0
 26 28  1  0  0  0  0
 26 29  1  0  0  0  0
 24 25  1  0  0  0  0
 24 26  1  0  0  0  0
M  END
$$$$
default_name
  -OEChem-01062215323D

 29 28  0     1  0  0  0  0  0999 V2000
   -3.5781   -3.7296    1.2702 H   0  0  0  0  0  0  0  0  0  0  0  0
   -3.5311   -2.7616    0.7732 C   0  0  0  0  0  0  0  0  0  0  0  0
   -4.2371   -2.0766    1.2382 H   0  0  0  0  0  0  0  0  0  0  0  0
   -3.7681   -2.8816   -0.2818 H   0  0  0  0  0  0  0  0  0  0  0  0
   -2.1321   -2.2086    0.9112 C   0  0  0  0  0  0  0  0  0  0  0  0
   -1.2751   -2.8426    1.5112 O   0  0  0  0  0  0  0  0  0  0  0  0
   -1.9041   -1.0186    0.3602 N   0  0  0  0  0  0  0  0  0  0  0  0
   -2.6671   -0.5416   -0.0988 H   0  0  0  0  0  0  0  0  0  0  0  0
   -0.6131   -0.3236    0.3832 C   0  0  1  0  0  0  0  0  0  0  0  0
    0.0642   -0.8244   -0.3104 H   0  0  0  0  0  0  0  0  0  0  0  0
   -0.8122    1.1253   -0.0986 C   0  0  0  0  0  0  0  0  0  0  0  0
   -1.5873    1.5946    0.5110 H   0  0  0  0  0  0  0  0  0  0  0  0
    0.1156    1.6818    0.0418 H   0  0  0  0  0  0  0  0  0  0  0  0
   -1.2280    1.2294   -1.5705 C   0  0  0  0  0  0  0  0  0  0  0  0
   -2.1681    0.6979   -1.7148 H   0  0  0  0  0  0  0  0  0  0  0  0
   -1.3780    2.2808   -1.8185 H   0  0  0  0  0  0  0  0  0  0  0  0
   -0.0102    0.5392   -2.7194 S   0  0  0  0  0  0  0  0  0  0  0  0
    1.3197    1.7544   -2.5280 C   0  0  0  0  0  0  0  0  0  0  0  0
    1.6558    1.7713   -1.4908 H   0  0  0  0  0  0  0  0  0  0  0  0
    2.1557    1.4797   -3.1718 H   0  0  0  0  0  0  0  0  0  0  0  0
    0.9582    2.7431   -2.8119 H   0  0  0  0  0  0  0  0  0  0  0  0
    0.0063   -0.3875    1.7866 C   0  0  0  0  0  0  0  0  0  0  0  0
    1.1951   -0.1197    1.9486 O   0  0  0  0  0  0  0  0  0  0  0  0
   -0.7943   -0.7498    2.7972 N   0  0  0  0  0  0  0  0  0  0  0  0
   -1.7618   -0.9395    2.5899 H   0  0  0  0  0  0  0  0  0  0  0  0
   -0.3520   -0.8718    4.1854 C   0  0  0  0  0  0  0  0  0  0  0  0
    0.0614    0.0809    4.5247 H   0  0  0  0  0  0  0  0  0  0  0  0
   -1.1885   -1.1496    4.8280 H   0  0  0  0  0  0  0  0  0  0  0  0
    0.4278   -1.6321    4.2580 H   0  0  0  0  0  0  0  0  0  0  0  0
  5  6  2  0  0  0  0
  5  7  1  0  0  0  0
  2  3  1  0  0  0  0
  2  4  1  0  0  0  0
  2  5  1  0  0  0  0
  1  2  1  0  0  0  0
 22 23  2  0  0  0  0
 22 24  1  0  0  0  0
 18 19  1  0  0  0  0
 18 20  1  0  0  0  0
 18 21  1  0  0  0  0
 17 18  1  0  0  0  0
 14 15  1  0  0  0  0
 14 16  1  0  0  0  0
 14 17  1  0  0  0  0
 11 12  1  0  0  0  0
 11 13  1  0  0  0  0
 11 14  1  0  0  0  0
  9 10  1  0  0  0  0
  9 11  1  0  0  0  0
  9 22  1  0  0  0  0
  7  8  1  0  0  0  0
  7  9  1  0  0  0  0
 26 27  1  0  0  0  0
 26 28  1  0  0  0  0
 26 29  1  0  0  0  0
 24 25  1  0  0  0  0
 24 26  1  0  0  0  0
M  END
$$$$
default_name
  -OEChem-01062215323D

 29 28  0     1  0  0  0  0  0999 V2000
   -3.5781   -3.7296    1.2702 H   0  0  0  0  0  0  0  0  0  0  0  0
   -3.5311   -2.7616    0.7732 C   0  0  0  0  0  0  0  0  0  0  0  0
   -4.2371   -2.0766    1.2382 H   0  0  0  0  0  0  0  0  0  0  0  0
   -3.7681   -2.8816   -0.2818 H   0  0  0  0  0  0  0  0  0  0  0  0
   -2.1321   -2.2086    0.9112 C   0  0  0  0  0  0  0  0  0  0  0  0
   -1.2751   -2.8426    1.5112 O   0  0  0  0  0  0  0  0  0  0  0  0
   -1.9041   -1.0186    0.3602 N   0  0  0  0  0  0  0  0  0  0  0  0
   -2.6671   -0.5416   -0.0988 H   0  0  0  0  0  0  0  0  0  0  0  0
   -0.6131   -0.3236    0.3832 C   0  0  1  0  0  0  0  0  0  0  0  0
    0.0642   -0.8244   -0.3104 H   0  0  0  0  0  0  0  0  0  0  0  0
   -0.8122    1.1253   -0.0986 C   0  0  0  0  0  0  0  0  0  0  0  0
   -1.5873    1.5946    0.5110 H   0  0  0  0  0  0  0  0  0  0  0  0
    0.1156    1.6818    0.0418 H   0  0  0  0  0  0  0  0  0  0  0  0
   -1.2280    1.2294   -1.5705 C   0  0  0  0  0  0  0  0  0  0  0  0
   -2.1681    0.6979   -1.7148 H   0  0  0  0  0  0  0  0  0  0  0  0
   -1.3780    2.2808   -1.8185 H   0  0  0  0  0  0  0  0  0  0  0  0
   -0.0102    0.5392   -2.7194 S   0  0  0  0  0  0  0  0  0  0  0  0
    1.3197    1.7544   -2.5280 C   0  0  0  0  0  0  0  0  0  0  0  0
    1.6558    1.7713   -1.4908 H   0  0  0  0  0  0  0  0  0  0  0  0
    2.1557    1.4797   -3.1718 H   0  0  0  0  0  0  0  0  0  0  0  0
    0.9582    2.7431   -2.8119 H   0  0  0  0  0  0  0  0  0  0  0  0
    0.0063   -0.3875    1.7866 C   0  0  0  0  0  0  0  0  0  0  0  0
    1.0980    0.1346    2.0030 O   0  0  0  0  0  0  0  0  0  0  0  0
   -0.6837   -1.0332    2.7355 N   0  0  0  0  0  0  0  0  0  0  0  0
   -1.5790   -1.4229    2.4872 H   0  0  0  0  0  0  0  0  0  0  0  0
   -0.2226   -1.1935    4.1137 C   0  0  0  0  0  0  0  0  0  0  0  0
   -0.0463   -0.2115    4.5590 H   0  0  0  0  0  0  0  0  0  0  0  0
   -0.9682   -1.7271    4.7045 H   0  0  0  0  0  0  0  0  0  0  0  0
    0.7154   -1.7515    4.1256 H   0  0  0  0  0  0  0  0  0  0  0  0
  5  6  2  0  0  0  0
  5  7  1  0  0  0  0
  2  3  1  0  0  0  0
  2  4  1  0  0  0  0
  2  5  1  0  0  0  0
  1  2  1  0  0  0  0
 22 23  2  0  0  0  0
 22 24  1  0  0  0  0
 18 19  1  0  0  0  0
 18 20  1  0  0  0  0
 18 21  1  0  0  0  0
 17 18  1  0  0  0  0
 14 15  1  0  0  0  0
 14 16  1  0  0  0  0
 14 17  1  0  0  0  0
 11 12  1  0  0  0  0
 11 13  1  0  0  0  0
 11 14  1  0  0  0  0
  9 10  1  0  0  0  0
  9 11  1  0  0  0  0
  9 22  1  0  0  0  0
  7  8  1  0  0  0  0
  7  9  1  0  0  0  0
 26 27  1  0  0  0  0
 26 28  1  0  0  0  0
 26 29  1  0  0  0  0
 24 25  1  0  0  0  0
 24 26  1  0  0  0  0
M  END
$$$$
default_name
  -OEChem-01062215323D

 29 28  0     1  0  0  0  0  0999 V2000
   -3.5781   -3.7296    1.2702 H   0  0  0  0  0  0  0  0  0  0  0  0
   -3.5311   -2.7616    0.7732 C   0  0  0  0  0  0  0  0  0  0  0  0
   -4.2371   -2.0766    1.2382 H   0  0  0  0  0  0  0  0  0  0  0  0
   -3.7681   -2.8816   -0.2818 H   0  0  0  0  0  0  0  0  0  0  0  0
   -2.1321   -2.2086    0.9112 C   0  0  0  0  0  0  0  0  0  0  0  0
   -1.2751   -2.8426    1.5112 O   0  0  0  0  0  0  0  0  0  0  0  0
   -1.9041   -1.0186    0.3602 N   0  0  0  0  0  0  0  0  0  0  0  0
   -2.6671   -0.5416   -0.0988 H   0  0  0  0  0  0  0  0  0  0  0  0
   -0.6131   -0.3236    0.3832 C   0  0  1  0  0  0  0  0  0  0  0  0
    0.0642   -0.8244   -0.3104 H   0  0  0  0  0  0  0  0  0  0  0  0
   -0.8122    1.1253   -0.0986 C   0  0  0  0  0  0  0  0  0  0  0  0
   -1.5873    1.5946    0.5110 H   0  0  0  0  0  0  0  0  0  0  0  0
    0.1156    1.6818    0.0418 H   0  0  0  0  0  0  0  0  0  0  0  0
   -1.2280    1.2294   -1.5705 C   0  0  0  0  0  0  0  0  0  0  0  0
   -2.1681    0.6979   -1.7148 H   0  0  0  0  0  0  0  0  0  0  0  0
   -1.3780    2.2808   -1.8185 H   0  0  0  0  0  0  0  0  0  0  0  0
   -0.0102    0.5392   -2.7194 S   0  0  0  0  0  0  0  0  0  0  0  0
    1.3197    1.7544   -2.5280 C   0  0  0  0  0  0  0  0  0  0  0  0
    1.6558    1.7713   -1.4908 H   0  0  0  0  0  0  0  0  0  0  0  0
    2.1557    1.4797   -3.1718 H   0  0  0  0  0  0  0  0  0  0  0  0
    0.9582    2.7431   -2.8119 H   0  0  0  0  0  0  0  0  0  0  0  0
    0.0063   -0.3875    1.7866 C   0  0  0  0  0  0  0  0  0  0  0  0
    0.9434    0.3516    2.0811 O   0  0  0  0  0  0  0  0  0  0  0  0
   -0.5092   -1.2744    2.6475 N   0  0  0  0  0  0  0  0  0  0  0  0
   -1.2870   -1.8359    2.3395 H   0  0  0  0  0  0  0  0  0  0  0  0
   -0.0207   -1.4660    4.0122 C   0  0  0  0  0  0  0  0  0  0  0  0
   -0.0816   -0.5229    4.5604 H   0  0  0  0  0  0  0  0  0  0  0  0
   -0.6175   -2.2200    4.5272 H   0  0  0  0  0  0  0  0  0  0  0  0
    1.0228   -1.7850    3.9884 H   0  0  0  0  0  0  0  0  0  0  0  0
  5  6  2  0  0  0  0
  5  7  1  0  0  0  0
  2  3  1  0  0  0  0
  2  4  1  0  0  0  0
  2  5  1  0  0  0  0
  1  2  1  0  0  0  0
 22 23  2  0  0  0  0
 22 24  1  0  0  0  0
 18 19  1  0  0  0  0
 18 20  1  0  0  0  0
 18 21  1  0  0  0  0
 17 18  1  0  0  0  0
 14 15  1  0  0  0  0
 14 16  1  0  0  0  0
 14 17  1  0  0  0  0
 11 12  1  0  0  0  0
 11 13  1  0  0  0  0
 11 14  1  0  0  0  0
  9 10  1  0  0  0  0
  9 11  1  0  0  0  0
  9 22  1  0  0  0  0
  7  8  1  0  0  0  0
  7  9  1  0  0  0  0
 26 27  1  0  0  0  0
 26 28  1  0  0  0  0
 26 29  1  0  0  0  0
 24 25  1  0  0  0  0
 24 26  1  0  0  0  0
M  END
$$$$
default_name
  -OEChem-01062215323D

 29 28  0     1  0  0  0  0  0999 V2000
   -3.5781   -3.7296    1.2702 H   0  0  0  0  0  0  0  0  0  0  0  0
   -3.5311   -2.7616    0.7732 C   0  0  0  0  0  0  0  0  0  0  0  0
   -4.2371   -2.0766    1.2382 H   0  0  0  0  0  0  0  0  0  0  0  0
   -3.7681   -2.8816   -0.2818 H   0  0  0  0  0  0  0  0  0  0  0  0
   -2.1321   -2.2086    0.9112 C   0  0  0  0  0  0  0  0  0  0  0  0
   -1.2751   -2.8426    1.5112 O   0  0  0  0  0  0  0  0  0  0  0  0
   -1.9041   -1.0186    0.3602 N   0  0  0  0  0  0  0  0  0  0  0  0
   -2.6671   -0.5416   -0.0988 H   0  0  0  0  0  0  0  0  0  0  0  0
   -0.6131   -0.3236    0.3832 C   0  0  1  0  0  0  0  0  0  0  0  0
    0.0642   -0.8244   -0.3104 H   0  0  0  0  0  0  0  0  0  0  0  0
   -0.8122    1.1253   -0.0986 C   0  0  0  0  0  0  0  0  0  0  0  0
   -1.5873    1.5946    0.5110 H   0  0  0  0  0  0  0  0  0  0  0  0
    0.1156    1.6818    0.0418 H   0  0  0  0  0  0  0  0  0  0  0  0
   -1.2280    1.2294   -1.5705 C   0  0  0  0  0  0  0  0  0  0  0  0
   -2.1681    0.6979   -1.7148 H   0  0  0  0  0  0  0  0  0  0  0  0
   -1.3780    2.2808   -1.8185 H   0  0  0  0  0  0  0  0  0  0  0  0
   -0.0102    0.5392   -2.7194 S   0  0  0  0  0  0  0  0  0  0  0  0
    1.3197    1.7544   -2.5280 C   0  0  0  0  0  0  0  0  0  0  0  0
    1.6558    1.7713   -1.4908 H   0  0  0  0  0  0  0  0  0  0  0  0
    2.1557    1.4797   -3.1718 H   0  0  0  0  0  0  0  0  0  0  0  0
    0.9582    2.7431   -2.8119 H   0  0  0  0  0  0  0  0  0  0  0  0
    0.0063   -0.3875    1.7866 C   0  0  0  0  0  0  0  0  0  0  0  0
    0.7419    0.5165    2.1776 O   0  0  0  0  0  0  0  0  0  0  0  0
   -0.2826   -1.4569    2.5392 N   0  0  0  0  0  0  0  0  0  0  0  0
   -0.9056   -2.1503    2.1569 H   0  0  0  0  0  0  0  0  0  0  0  0
    0.2398   -1.6710    3.8879 C   0  0  0  0  0  0  0  0  0  0  0  0
   -0.0420   -0.8323    4.5288 H   0  0  0  0  0  0  0  0  0  0  0  0
   -0.1602   -2.5946    4.3084 H   0  0  0  0  0  0  0  0  0  0  0  0
    1.3292   -1.7303    3.8557 H   0  0  0  0  0  0  0  0  0  0  0  0
  5  6  2  0  0  0  0
  5  7  1  0  0  0  0
  2  3  1  0  0  0  0
  2  4  1  0  0  0  0
  2  5  1  0  0  0  0
  1  2  1  0  0  0  0
 22 23  2  0  0  0  0
 22 24  1  0  0  0  0
 18 19  1  0  0  0  0
 18 20  1  0  0  0  0
 18 21  1  0  0  0  0
 17 18  1  0  0  0  0
 14 15  1  0  0  0  0
 14 16  1  0  0  0  0
 14 17  1  0  0  0  0
 11 12  1  0  0  0  0
 11 13  1  0  0  0  0
 11 14  1  0  0  0  0
  9 10  1  0  0  0  0
  9 11  1  0  0  0  0
  9 22  1  0  0  0  0
  7  8  1  0  0  0  0
  7  9  1  0  0  0  0
 26 27  1  0  0  0  0
 26 28  1  0  0  0  0
 26 29  1  0  0  0  0
 24 25  1  0  0  0  0
 24 26  1  0  0  0  0
M  END
$$$$
default_name
  -OEChem-01062215323D

 29 28  0     1  0  0  0  0  0999 V2000
   -3.5781   -3.7296    1.2702 H   0  0  0  0  0  0  0  0  0  0  0  0
   -3.5311   -2.7616    0.7732 C   0  0  0  0  0  0  0  0  0  0  0  0
   -4.2371   -2.0766    1.2382 H   0  0  0  0  0  0  0  0  0  0  0  0
   -3.7681   -2.8816   -0.2818 H   0  0  0  0  0  0  0  0  0  0  0  0
   -2.1321   -2.2086    0.9112 C   0  0  0  0  0  0  0  0  0  0  0  0
   -1.2751   -2.8426    1.5112 O   0  0  0  0  0  0  0  0  0  0  0  0
   -1.9041   -1.0186    0.3602 N   0  0  0  0  0  0  0  0  0  0  0  0
   -2.6671   -0.5416   -0.0988 H   0  0  0  0  0  0  0  0  0  0  0  0
   -0.6131   -0.3236    0.3832 C   0  0  1  0  0  0  0  0  0  0  0  0
    0.0642   -0.8244   -0.3104 H   0  0  0  0  0  0  0  0  0  0  0  0
   -0.8122    1.1253   -0.0986 C   0  0  0  0  0  0  0  0  0  0  0  0
   -1.5873    1.5946    0.5110 H   0  0  0  0  0  0  0  0  0  0  0  0
    0.1156    1.6818    0.0418 H   0  0  0  0  0  0  0  0  0  0  0  0
   -1.2280    1.2294   -1.5705 C   0  0  0  0  0  0  0  0  0  0  0  0
   -2.1681    0.6979   -1.7148 H   0  0  0  0  0  0  0  0  0  0  0  0
   -1.3780    2.2808   -1.8185 H   0  0  0  0  0  0  0  0  0  0  0  0
   -0.0102    0.5392   -2.7194 S   0  0  0  0  0  0  0  0  0  0  0  0
    1.3197    1.7544   -2.5280 C   0  0  0  0  0  0  0  0  0  0  0  0
    1.6558    1.7713   -1.4908 H   0  0  0  0  0  0  0  0  0  0  0  0
    2.1557    1.4797   -3.1718 H   0  0  0  0  0  0  0  0  0  0  0  0
    0.9582    2.7431   -2.8119 H   0  0  0  0  0  0  0  0  0  0  0  0
    0.0063   -0.3875    1.7866 C   0  0  0  0  0  0  0  0  0  0  0  0
    0.5072    0.6181    2.2858 O   0  0  0  0  0  0  0  0  0  0  0  0
   -0.0194   -1.5682    2.4180 N   0  0  0  0  0  0  0  0  0  0  0  0
   -0.4609   -2.3447    1.9518 H   0  0  0  0  0  0  0  0  0  0  0  0
    0.5413   -1.7943    3.7492 C   0  0  0  0  0  0  0  0  0  0  0  0
    0.0698   -1.1184    4.4664 H   0  0  0  0  0  0  0  0  0  0  0  0
    0.3725   -2.8253    4.0628 H   0  0  0  0  0  0  0  0  0  0  0  0
    1.6136   -1.5911    3.7365 H   0  0  0  0  0  0  0  0  0  0  0  0
  5  6  2  0  0  0  0
  5  7  1  0  0  0  0
  2  3  1  0  0  0  0
  2  4  1  0  0  0  0
  2  5  1  0  0  0  0
  1  2  1  0  0  0  0
 22 23  2  0  0  0  0
 22 24  1  0  0  0  0
 18 19  1  0  0  0  0
 18 20  1  0  0  0  0
 18 21  1  0  0  0  0
 17 18  1  0  0  0  0
 14 15  1  0  0  0  0
 14 16  1  0  0  0  0
 14 17  1  0  0  0  0
 11 12  1  0  0  0  0
 11 13  1  0  0  0  0
 11 14  1  0  0  0  0
  9 10  1  0  0  0  0
  9 11  1  0  0  0  0
  9 22  1  0  0  0  0
  7  8  1  0  0  0  0
  7  9  1  0  0  0  0
 26 27  1  0  0  0  0
 26 28  1  0  0  0  0
 26 29  1  0  0  0  0
 24 25  1  0  0  0  0
 24 26  1  0  0  0  0
M  END
$$$$
default_name
  -OEChem-01062215323D

 29 28  0     1  0  0  0  0  0999 V2000
   -3.5781   -3.7296    1.2702 H   0  0  0  0  0  0  0  0  0  0  0  0
   -3.5311   -2.7616    0.7732 C   0  0  0  0  0  0  0  0  0  0  0  0
   -4.2371   -2.0766    1.2382 H   0  0  0  0  0  0  0  0  0  0  0  0
   -3.7681   -2.8816   -0.2818 H   0  0  0  0  0  0  0  0  0  0  0  0
   -2.1321   -2.2086    0.9112 C   0  0  0  0  0  0  0  0  0  0  0  0
   -1.2751   -2.8426    1.5112 O   0  0  0  0  0  0  0  0  0  0  0  0
   -1.9041   -1.0186    0.3602 N   0  0  0  0  0  0  0  0  0  0  0  0
   -2.6671   -0.5416   -0.0988 H   0  0  0  0  0  0  0  0  0  0  0  0
   -0.6131   -0.3236    0.3832 C   0  0  1  0  0  0  0  0  0  0  0  0
    0.0642   -0.8244   -0.3104 H   0  0  0  0  0  0  0  0  0  0  0  0
   -0.8122    1.1253   -0.0986 C   0  0  0  0  0  0  0  0  0  0  0  0
   -1.5873    1.5946    0.5110 H   0  0  0  0  0  0  0  0  0  0  0  0
    0.1156    1.6818    0.0418 H   0  0  0  0  0  0  0  0  0  0  0  0
   -1.2280    1.2294   -1.5705 C   0  0  0  0  0  0  0  0  0  0  0  0
   -2.1681    0.6979   -1.7148 H   0  0  0  0  0  0  0  0  0  0  0  0
   -1.3780    2.2808   -1.8185 H   0  0  0  0  0  0  0  0  0  0  0  0
   -0.0102    0.5392   -2.7194 S   0  0  0  0  0  0  0  0  0  0  0  0
    1.3197    1.7544   -2.5280 C   0  0  0  0  0  0  0  0  0  0  0  0
    1.6558    1.7713   -1.4908 H   0  0  0  0  0  0  0  0  0  0  0  0
    2.1557    1.4797   -3.1718 H   0  0  0  0  0  0  0  0  0  0  0  0
    0.9582    2.7431   -2.8119 H   0  0  0  0  0  0  0  0  0  0  0  0
    0.0063   -0.3875    1.7866 C   0  0  0  0  0  0  0  0  0  0  0  0
    0.2554    0.6493    2.3983 O   0  0  0  0  0  0  0  0  0  0  0  0
    0.2625   -1.6009    2.2921 N   0  0  0  0  0  0  0  0  0  0  0  0
    0.0169   -2.4058    1.7381 H   0  0  0  0  0  0  0  0  0  0  0  0
    0.8632   -1.8277    3.6056 C   0  0  0  0  0  0  0  0  0  0  0  0
    0.2461   -1.3618    4.3775 H   0  0  0  0  0  0  0  0  0  0  0  0
    0.9442   -2.8966    3.8072 H   0  0  0  0  0  0  0  0  0  0  0  0
    1.8567   -1.3770    3.6390 H   0  0  0  0  0  0  0  0  0  0  0  0
  5  6  2  0  0  0  0
  5  7  1  0  0  0  0
  2  3  1  0  0  0  0
  2  4  1  0  0  0  0
  2  5  1  0  0  0  0
  1  2  1  0  0  0  0
 22 23  2  0  0  0  0
 22 24  1  0  0  0  0
 18 19  1  0  0  0  0
 18 20  1  0  0  0  0
 18 21  1  0  0  0  0
 17 18  1  0  0  0  0
 14 15  1  0  0  0  0
 14 16  1  0  0  0  0
 14 17  1  0  0  0  0
 11 12  1  0  0  0  0
 11 13  1  0  0  0  0
 11 14  1  0  0  0  0
  9 10  1  0  0  0  0
  9 11  1  0  0  0  0
  9 22  1  0  0  0  0
  7  8  1  0  0  0  0
  7  9  1  0  0  0  0
 26 27  1  0  0  0  0
 26 28  1  0  0  0  0
 26 29  1  0  0  0  0
 24 25  1  0  0  0  0
 24 26  1  0  0  0  0
M  END
$$$$
default_name
  -OEChem-01062215323D

 29 28  0     1  0  0  0  0  0999 V2000
   -3.5781   -3.7296    1.2702 H   0  0  0  0  0  0  0  0  0  0  0  0
   -3.5311   -2.7616    0.7732 C   0  0  0  0  0  0  0  0  0  0  0  0
   -4.2371   -2.0766    1.2382 H   0  0  0  0  0  0  0  0  0  0  0  0
   -3.7681   -2.8816   -0.2818 H   0  0  0  0  0  0  0  0  0  0  0  0
   -2.1321   -2.2086    0.9112 C   0  0  0  0  0  0  0  0  0  0  0  0
   -1.2751   -2.8426    1.5112 O   0  0  0  0  0  0  0  0  0  0  0  0
   -1.9041   -1.0186    0.3602 N   0  0  0  0  0  0  0  0  0  0  0  0
   -2.6671   -0.5416   -0.0988 H   0  0  0  0  0  0  0  0  0  0  0  0
   -0.6131   -0.3236    0.3832 C   0  0  1  0  0  0  0  0  0  0  0  0
    0.0642   -0.8244   -0.3104 H   0  0  0  0  0  0  0  0  0  0  0  0
   -0.8122    1.1253   -0.0986 C   0  0  0  0  0  0  0  0  0  0  0  0
   -1.5873    1.5946    0.5110 H   0  0  0  0  0  0  0  0  0  0  0  0
    0.1156    1.6818    0.0418 H   0  0  0  0  0  0  0  0  0  0  0  0
   -1.2280    1.2294   -1.5705 C   0  0  0  0  0  0  0  0  0  0  0  0
   -2.1681    0.6979   -1.7148 H   0  0  0  0  0  0  0  0  0  0  0  0
   -1.3780    2.2808   -1.8185 H   0  0  0  0  0  0  0  0  0  0  0  0
   -0.0102    0.5392   -2.7194 S   0  0  0  0  0  0  0  0  0  0  0  0
    1.3197    1.7544   -2.5280 C   0  0  0  0  0  0  0  0  0  0  0  0
    1.6558    1.7713   -1.4908 H   0  0  0  0  0  0  0  0  0  0  0  0
    2.1557    1.4797   -3.1718 H   0  0  0  0  0  0  0  0  0  0  0  0
    0.9582    2.7431   -2.8119 H   0  0  0  0  0  0  0  0  0  0  0  0
    0.0063   -0.3875    1.7866 C   0  0  0  0  0  0  0  0  0  0  0  0
    0.0035    0.6082    2.5076 O   0  0  0  0  0  0  0  0  0  0  0  0
    0.5438   -1.5526    2.1701 N   0  0  0  0  0  0  0  0  0  0  0  0
    0.4952   -2.3296    1.5305 H   0  0  0  0  0  0  0  0  0  0  0  0
    1.1835   -1.7687    3.4669 C   0  0  0  0  0  0  0  0  0  0  0  0
    0.4750   -1.5459    4.2682 H   0  0  0  0  0  0  0  0  0  0  0  0
    1.5161   -2.8035    3.5590 H   0  0  0  0  0  0  0  0  0  0  0  0
    2.0419   -1.1024    3.5698 H   0  0  0  0  0  0  0  0  0  0  0  0
  5  6  2  0  0  0  0
  5  7  1  0  0  0  0
  2  3  1  0  0  0  0
  2  4  1  0  0  0  0
  2  5  1  0  0  0  0
  1  2  1  0  0  0  0
 22 23  2  0  0  0  0
 22 24  1  0  0  0  0
 18 19  1  0  0  0  0
 18 20  1  0  0  0  0
 18 21  1  0  0  0  0
 17 18  1  0  0  0  0
 14 15  1  0  0  0  0
 14 16  1  0  0  0  0
 14 17  1  0  0  0  0
 11 12  1  0  0  0  0
 11 13  1  0  0  0  0
 11 14  1  0  0  0  0
  9 10  1  0  0  0  0
  9 11  1  0  0  0  0
  9 22  1  0  0  0  0
  7  8  1  0  0  0  0
  7  9  1  0  0  0  0
 26 27  1  0  0  0  0
 26 28  1  0  0  0  0
 26 29  1  0  0  0  0
 24 25  1  0  0  0  0
 24 26  1  0  0  0  0
M  END
$$$$
default_name
  -OEChem-01062215323D

 29 28  0     1  0  0  0  0  0999 V2000
   -3.5781   -3.7296    1.2702 H   0  0  0  0  0  0  0  0  0  0  0  0
   -3.5311   -2.7616    0.7732 C   0  0  0  0  0  0  0  0  0  0  0  0
   -4.2371   -2.0766    1.2382 H   0  0  0  0  0  0  0  0  0  0  0  0
   -3.7681   -2.8816   -0.2818 H   0  0  0  0  0  0  0  0  0  0  0  0
   -2.1321   -2.2086    0.9112 C   0  0  0  0  0  0  0  0  0  0  0  0
   -1.2751   -2.8426    1.5112 O   0  0  0  0  0  0  0  0  0  0  0  0
   -1.9041   -1.0186    0.3602 N   0  0  0  0  0  0  0  0  0  0  0  0
   -2.6671   -0.5416   -0.0988 H   0  0  0  0  0  0  0  0  0  0  0  0
   -0.6131   -0.3236    0.3832 C   0  0  1  0  0  0  0  0  0  0  0  0
    0.0642   -0.8244   -0.3104 H   0  0  0  0  0  0  0  0  0  0  0  0
   -0.8122    1.1253   -0.0986 C   0  0  0  0  0  0  0  0  0  0  0  0
   -1.5873    1.5946    0.5110 H   0  0  0  0  0  0  0  0  0  0  0  0
    0.1156    1.6818    0.0418 H   0  0  0  0  0  0  0  0  0  0  0  0
   -1.2280    1.2294   -1.5705 C   0  0  0  0  0  0  0  0  0  0  0  0
   -2.1681    0.6979   -1.7148 H   0  0  0  0  0  0  0  0  0  0  0  0
   -1.3780    2.2808   -1.8185 H   0  0  0  0  0  0  0  0  0  0  0  0
   -0.0102    0.5392   -2.7194 S   0  0  0  0  0  0  0  0  0  0  0  0
    1.3197    1.7544   -2.5280 C   0  0  0  0  0  0  0  0  0  0  0  0
    1.6558    1.7713   -1.4908 H   0  0  0  0  0  0  0  0  0  0  0  0
    2.1557    1.4797   -3.1718 H   0  0  0  0  0  0  0  0  0  0  0  0
    0.9582    2.7431   -2.8119 H   0  0  0  0  0  0  0  0  0  0  0  0
    0.0063   -0.3875    1.7866 C   0  0  0  0  0  0  0  0  0  0  0  0
   -0.2313    0.4974    2.6062 O   0  0  0  0  0  0  0  0  0  0  0  0
    0.8055   -1.4266    2.0604 N   0  0  0  0  0  0  0  0  0  0  0  0
    0.9413   -2.1211    1.3431 H   0  0  0  0  0  0  0  0  0  0  0  0
    1.4805   -1.6215    3.3426 C   0  0  0  0  0  0  0  0  0  0  0  0
    0.7408   -1.6582    4.1457 H   0  0  0  0  0  0  0  0  0  0  0  0
    2.0492   -2.5523    3.3352 H   0  0  0  0  0  0  0  0  0  0  0  0
    2.1565   -0.7862    3.5336 H   0  0  0  0  0  0  0  0  0  0  0  0
  5  6  2  0  0  0  0
  5  7  1  0  0  0  0
  2  3  1  0  0  0  0
  2  4  1  0  0  0  0
  2  5  1  0  0  0  0
  1  2  1  0  0  0  0
 22 23  2  0  0  0  0
 22 24  1  0  0  0  0
 18 19  1  0  0  0  0
 18 20  1  0  0  0  0
 18 21  1  0  0  0  0
 17 18  1  0  0  0  0
 14 15  1  0  0  0  0
 14 16  1  0  0  0  0
 14 17  1  0  0  0  0
 11 12  1  0  0  0  0
 11 13  1  0  0  0  0
 11 14  1  0  0  0  0
  9 10  1  0  0  0  0
  9 11  1  0  0  0  0
  9 22  1  0  0  0  0
  7  8  1  0  0  0  0
  7  9  1  0  0  0  0
 26 27  1  0  0  0  0
 26 28  1  0  0  0  0
 26 29  1  0  0  0  0
 24 25  1  0  0  0  0
 24 26  1  0  0  0  0
M  END
$$$$
default_name
  -OEChem-01062215323D

 29 28  0     1  0  0  0  0  0999 V2000
   -3.5781   -3.7296    1.2702 H   0  0  0  0  0  0  0  0  0  0  0  0
   -3.5311   -2.7616    0.7732 C   0  0  0  0  0  0  0  0  0  0  0  0
   -4.2371   -2.0766    1.2382 H   0  0  0  0  0  0  0  0  0  0  0  0
   -3.7681   -2.8816   -0.2818 H   0  0  0  0  0  0  0  0  0  0  0  0
   -2.1321   -2.2086    0.9112 C   0  0  0  0  0  0  0  0  0  0  0  0
   -1.2751   -2.8426    1.5112 O   0  0  0  0  0  0  0  0  0  0  0  0
   -1.9041   -1.0186    0.3602 N   0  0  0  0  0  0  0  0  0  0  0  0
   -2.6671   -0.5416   -0.0988 H   0  0  0  0  0  0  0  0  0  0  0  0
   -0.6131   -0.3236    0.3832 C   0  0  1  0  0  0  0  0  0  0  0  0
    0.0642   -0.8244   -0.3104 H   0  0  0  0  0  0  0  0  0  0  0  0
   -0.8122    1.1253   -0.0986 C   0  0  0  0  0  0  0  0  0  0  0  0
   -1.5873    1.5946    0.5110 H   0  0  0  0  0  0  0  0  0  0  0  0
    0.1156    1.6818    0.0418 H   0  0  0  0  0  0  0  0  0  0  0  0
   -1.2280    1.2294   -1.5705 C   0  0  0  0  0  0  0  0  0  0  0  0
   -2.1681    0.6979   -1.7148 H   0  0  0  0  0  0  0  0  0  0  0  0
   -1.3780    2.2808   -1.8185 H   0  0  0  0  0  0  0  0  0  0  0  0
   -0.0102    0.5392   -2.7194 S   0  0  0  0  0  0  0  0  0  0  0  0
    1.3197    1.7544   -2.5280 C   0  0  0  0  0  0  0  0  0  0  0  0
    1.6558    1.7713   -1.4908 H   0  0  0  0  0  0  0  0  0  0  0  0
    2.1557    1.4797   -3.1718 H   0  0  0  0  0  0  0  0  0  0  0  0
    0.9582    2.7431   -2.8119 H   0  0  0  0  0  0  0  0  0  0  0  0
    0.0063   -0.3875    1.7866 C   0  0  0  0  0  0  0  0  0  0  0  0
   -0.4329    0.3246    2.6873 O   0  0  0  0  0  0  0  0  0  0  0  0
    1.0296   -1.2316    1.9703 N   0  0  0  0  0  0  0  0  0  0  0  0
    1.3250   -1.7945    1.1887 H   0  0  0  0  0  0  0  0  0  0  0  0
    1.7339   -1.3961    3.2410 C   0  0  0  0  0  0  0  0  0  0  0  0
    1.0254   -1.6910    4.0186 H   0  0  0  0  0  0  0  0  0  0  0  0
    2.5071   -2.1602    3.1510 H   0  0  0  0  0  0  0  0  0  0  0  0
    2.1928   -0.4498    3.5329 H   0  0  0  0  0  0  0  0  0  0  0  0
  5  6  2  0  0  0  0
  5  7  1  0  0  0  0
  2  3  1  0  0  0  0
  2  4  1  0  0  0  0
  2  5  1  0  0  0  0
  1  2  1  0  0  0  0
 22 23  2  0  0  0  0
 22 24  1  0  0  0  0
 18 19  1  0  0  0  0
 18 20  1  0  0  0  0
 18 21  1  0  0  0  0
 17 18  1  0  0  0  0
 14 15  1  0  0  0  0
 14 16  1  0  0  0  0
 14 17  1  0  0  0  0
 11 12  1  0  0  0  0
 11 13  1  0  0  0  0
 11 14  1  0  0  0  0
  9 10  1  0  0  0  0
  9 11  1  0  0  0  0
  9 22  1  0  0  0  0
  7  8  1  0  0  0  0
  7  9  1  0  0  0  0
 26 27  1  0  0  0  0
 26 28  1  0  0  0  0
 26 29  1  0  0  0  0
 24 25  1  0  0  0  0
 24 26  1  0  0  0  0
M  END
$$$$
default_name
  -OEChem-01062215323D

 29 28  0     1  0  0  0  0  0999 V2000
   -3.5781   -3.7296    1.2702 H   0  0  0  0  0  0  0  0  0  0  0  0
   -3.5311   -2.7616    0.7732 C   0  0  0  0  0  0  0  0  0  0  0  0
   -4.2371   -2.0766    1.2382 H   0  0  0  0  0  0  0  0  0  0  0  0
   -3.7681   -2.8816   -0.2818 H   0  0  0  0  0  0  0  0  0  0  0  0
   -2.1321   -2.2086    0.9112 C   0  0  0  0  0  0  0  0  0  0  0  0
   -1.2751   -2.8426    1.5112 O   0  0  0  0  0  0  0  0  0  0  0  0
   -1.9041   -1.0186    0.3602 N   0  0  0  0  0  0  0  0  0  0  0  0
   -2.6671   -0.5416   -0.0988 H   0  0  0  0  0  0  0  0  0  0  0  0
   -0.6131   -0.3236    0.3832 C   0  0  1  0  0  0  0  0  0  0  0  0
    0.0642   -0.8244   -0.3104 H   0  0  0  0  0  0  0  0  0  0  0  0
   -0.8122    1.1253   -0.0986 C   0  0  0  0  0  0  0  0  0  0  0  0
   -1.5873    1.5946    0.5110 H   0  0  0  0  0  0  0  0  0  0  0  0
    0.1156    1.6818    0.0418 H   0  0  0  0  0  0  0  0  0  0  0  0
   -1.2280    1.2294   -1.5705 C   0  0  0  0  0  0  0  0  0  0  0  0
   -2.1681    0.6979   -1.7148 H   0  0  0  0  0  0  0  0  0  0  0  0
   -1.3780    2.2808   -1.8185 H   0  0  0  0  0  0  0  0  0  0  0  0
   -0.0102    0.5392   -2.7194 S   0  0  0  0  0  0  0  0  0  0  0  0
    1.3197    1.7544   -2.5280 C   0  0  0  0  0  0  0  0  0  0  0  0
    1.6558    1.7713   -1.4908 H   0  0  0  0  0  0  0  0  0  0  0  0
    2.1557    1.4797   -3.1718 H   0  0  0  0  0  0  0  0  0  0  0  0
    0.9582    2.7431   -2.8119 H   0  0  0  0  0  0  0  0  0  0  0  0
    0.0063   -0.3875    1.7866 C   0  0  0  0  0  0  0  0  0  0  0  0
   -0.5876    0.1016    2.7454 O   0  0  0  0  0  0  0  0  0  0  0  0
    1.2009   -0.9808    1.9062 N   0  0  0  0  0  0  0  0  0  0  0  0
    1.6200   -1.3722    1.0777 H   0  0  0  0  0  0  0  0  0  0  0  0
    1.9264   -1.1078    3.1692 C   0  0  0  0  0  0  0  0  0  0  0  0
    1.3095   -1.6421    3.8955 H   0  0  0  0  0  0  0  0  0  0  0  0
    2.8586   -1.6539    3.0189 H   0  0  0  0  0  0  0  0  0  0  0  0
    2.1484   -0.1162    3.5677 H   0  0  0  0  0  0  0  0  0  0  0  0
  5  6  2  0  0  0  0
  5  7  1  0  0  0  0
  2  3  1  0  0  0  0
  2  4  1  0  0  0  0
  2  5  1  0  0  0  0
  1  2  1  0  0  0  0
 22 23  2  0  0  0  0
 22 24  1  0  0  0  0
 18 19  1  0  0  0  0
 18 20  1  0  0  0  0
 18 21  1  0  0  0  0
 17 18  1  0  0  0  0
 14 15  1  0  0  0  0
 14 16  1  0  0  0  0
 14 17  1  0  0  0  0
 11 12  1  0  0  0  0
 11 13  1  0  0  0  0
 11 14  1  0  0  0  0
  9 10  1  0  0  0  0
  9 11  1  0  0  0  0
  9 22  1  0  0  0  0
  7  8  1  0  0  0  0
  7  9  1  0  0  0  0
 26 27  1  0  0  0  0
 26 28  1  0  0  0  0
 26 29  1  0  0  0  0
 24 25  1  0  0  0  0
 24 26  1  0  0  0  0
M  END
$$$$
default_name
  -OEChem-01062215323D

 29 28  0     1  0  0  0  0  0999 V2000
   -3.5781   -3.7296    1.2702 H   0  0  0  0  0  0  0  0  0  0  0  0
   -3.5311   -2.7616    0.7732 C   0  0  0  0  0  0  0  0  0  0  0  0
   -4.2371   -2.0766    1.2382 H   0  0  0  0  0  0  0  0  0  0  0  0
   -3.7681   -2.8816   -0.2818 H   0  0  0  0  0  0  0  0  0  0  0  0
   -2.1321   -2.2086    0.9112 C   0  0  0  0  0  0  0  0  0  0  0  0
   -1.2751   -2.8426    1.5112 O   0  0  0  0  0  0  0  0  0  0  0  0
   -1.9041   -1.0186    0.3602 N   0  0  0  0  0  0  0  0  0  0  0  0
   -2.6671   -0.5416   -0.0988 H   0  0  0  0  0  0  0  0  0  0  0  0
   -0.6131   -0.3236    0.3832 C   0  0  1  0  0  0  0  0  0  0  0  0
    0.0642   -0.8244   -0.3104 H   0  0  0  0  0  0  0  0  0  0  0  0
   -0.8122    1.1253   -0.0986 C   0  0  0  0  0  0  0  0  0  0  0  0
   -1.5873    1.5946    0.5110 H   0  0  0  0  0  0  0  0  0  0  0  0
    0.1156    1.6818    0.0418 H   0  0  0  0  0  0  0  0  0  0  0  0
   -1.2280    1.2294   -1.5705 C   0  0  0  0  0  0  0  0  0  0  0  0
   -2.1681    0.6979   -1.7148 H   0  0  0  0  0  0  0  0  0  0  0  0
   -1.3780    2.2808   -1.8185 H   0  0  0  0  0  0  0  0  0  0  0  0
   -0.0102    0.5392   -2.7194 S   0  0  0  0  0  0  0  0  0  0  0  0
    1.3197    1.7544   -2.5280 C   0  0  0  0  0  0  0  0  0  0  0  0
    1.6558    1.7713   -1.4908 H   0  0  0  0  0  0  0  0  0  0  0  0
    2.1557    1.4797   -3.1718 H   0  0  0  0  0  0  0  0  0  0  0  0
    0.9582    2.7431   -2.8119 H   0  0  0  0  0  0  0  0  0  0  0  0
    0.0063   -0.3875    1.7866 C   0  0  0  0  0  0  0  0  0  0  0  0
   -0.6849   -0.1566    2.7766 O   0  0  0  0  0  0  0  0  0  0  0  0
    1.3077   -0.6913    1.8722 N   0  0  0  0  0  0  0  0  0  0  0  0
    1.8062   -0.8830    1.0178 H   0  0  0  0  0  0  0  0  0  0  0  0
    2.0449   -0.7762    3.1320 C   0  0  0  0  0  0  0  0  0  0  0  0
    1.5736   -1.5148    3.7847 H   0  0  0  0  0  0  0  0  0  0  0  0
    3.0798   -1.0679    2.9480 H   0  0  0  0  0  0  0  0  0  0  0  0
    2.0261    0.1919    3.6357 H   0  0  0  0  0  0  0  0  0  0  0  0
  5  6  2  0  0  0  0
  5  7  1  0  0  0  0
  2  3  1  0  0  0  0
  2  4  1  0  0  0  0
  2  5  1  0  0  0  0
  1  2  1  0  0  0  0
 22 23  2  0  0  0  0
 22 24  1  0  0  0  0
 18 19  1  0  0  0  0
 18 20  1  0  0  0  0
 18 21  1  0  0  0  0
 17 18  1  0  0  0  0
 14 15  1  0  0  0  0
 14 16  1  0  0  0  0
 14 17  1  0  0  0  0
 11 12  1  0  0  0  0
 11 13  1  0  0  0  0
 11 14  1  0  0  0  0
  9 10  1  0  0  0  0
  9 11  1  0  0  0  0
  9 22  1  0  0  0  0
  7  8  1  0  0  0  0
  7  9  1  0  0  0  0
 26 27  1  0  0  0  0
 26 28  1  0  0  0  0
 26 29  1  0  0  0  0
 24 25  1  0  0  0  0
 24 26  1  0  0  0  0
M  END
$$$$
default_name
  -OEChem-01062215323D

 29 28  0     1  0  0  0  0  0999 V2000
   -3.5781   -3.7296    1.2702 H   0  0  0  0  0  0  0  0  0  0  0  0
   -3.5311   -2.7616    0.7732 C   0  0  0  0  0  0  0  0  0  0  0  0
   -4.2371   -2.0766    1.2382 H   0  0  0  0  0  0  0  0  0  0  0  0
   -3.7681   -2.8816   -0.2818 H   0  0  0  0  0  0  0  0  0  0  0  0
   -2.1321   -2.2086    0.9112 C   0  0  0  0  0  0  0  0  0  0  0  0
   -1.2751   -2.8426    1.5112 O   0  0  0  0  0  0  0  0  0  0  0  0
   -1.9041   -1.0186    0.3602 N   0  0  0  0  0  0  0  0  0  0  0  0
   -2.6671   -0.5416   -0.0988 H   0  0  0  0  0  0  0  0  0  0  0  0
   -0.6131   -0.3236    0.3832 C   0  0  1  0  0  0  0  0  0  0  0  0
    0.0642   -0.8244   -0.3104 H   0  0  0  0  0  0  0  0  0  0  0  0
   -0.8122    1.1253   -0.0986 C   0  0  0  0  0  0  0  0  0  0  0  0
   -1.5873    1.5946    0.5110 H   0  0  0  0  0  0  0  0  0  0  0  0
    0.1156    1.6818    0.0418 H   0  0  0  0  0  0  0  0  0  0  0  0
   -1.2280    1.2294   -1.5705 C   0  0  0  0  0  0  0  0  0  0  0  0
   -2.1681    0.6979   -1.7148 H   0  0  0  0  0  0  0  0  0  0  0  0
   -1.3780    2.2808   -1.8185 H   0  0  0  0  0  0  0  0  0  0  0  0
   -0.0102    0.5392   -2.7194 S   0  0  0  0  0  0  0  0  0  0  0  0
    1.3197    1.7544   -2.5280 C   0  0  0  0  0  0  0  0  0  0  0  0
    1.6558    1.7713   -1.4908 H   0  0  0  0  0  0  0  0  0  0  0  0
    2.1557    1.4797   -3.1718 H   0  0  0  0  0  0  0  0  0  0  0  0
    0.9582    2.7431   -2.8119 H   0  0  0  0  0  0  0  0  0  0  0  0
    0.0063   -0.3875    1.7866 C   0  0  0  0  0  0  0  0  0  0  0  0
   -0.7182   -0.4322    2.7788 O   0  0  0  0  0  0  0  0  0  0  0  0
    1.3428   -0.3828    1.8708 N   0  0  0  0  0  0  0  0  0  0  0  0
    1.8710   -0.3601    1.0131 H   0  0  0  0  0  0  0  0  0  0  0  0
    2.0814   -0.4241    3.1319 C   0  0  0  0  0  0  0  0  0  0  0  0
    1.7998   -1.3177    3.6939 H   0  0  0  0  0  0  0  0  0  0  0  0
    3.1555   -0.4422    2.9431 H   0  0  0  0  0  0  0  0  0  0  0  0
    1.8344    0.4534    3.7322 H   0  0  0  0  0  0  0  0  0  0  0  0
  5  6  2  0  0  0  0
  5  7  1  0  0  0  0
  2  3  1  0  0  0  0
  2  4  1  0  0  0  0
  2  5  1  0  0  0  0
  1  2  1  0  0  0  0
 22 23  2  0  0  0  0
 22 24  1  0  0  0  0
 18 19  1  0  0  0  0
 18 20  1  0  0  0  0
 18 21  1  0  0  0  0
 17 18  1  0  0  0  0
 14 15  1  0  0  0  0
 14 16  1  0  0  0  0
 14 17  1  0  0  0  0
 11 12  1  0  0  0  0
 11 13  1  0  0  0  0
 11 14  1  0  0  0  0
  9 10  1  0  0  0  0
  9 11  1  0  0  0  0
  9 22  1  0  0  0  0
  7  8  1  0  0  0  0
  7  9  1  0  0  0  0
 26 27  1  0  0  0  0
 26 28  1  0  0  0  0
 26 29  1  0  0  0  0
 24 25  1  0  0  0  0
 24 26  1  0  0  0  0
M  END
$$$$
default_name
  -OEChem-01062215323D

 29 28  0     1  0  0  0  0  0999 V2000
   -3.5781   -3.7296    1.2702 H   0  0  0  0  0  0  0  0  0  0  0  0
   -3.5311   -2.7616    0.7732 C   0  0  0  0  0  0  0  0  0  0  0  0
   -4.2371   -2.0766    1.2382 H   0  0  0  0  0  0  0  0  0  0  0  0
   -3.7681   -2.8816   -0.2818 H   0  0  0  0  0  0  0  0  0  0  0  0
   -2.1321   -2.2086    0.9112 C   0  0  0  0  0  0  0  0  0  0  0  0
   -1.2751   -2.8426    1.5112 O   0  0  0  0  0  0  0  0  0  0  0  0
   -1.9041   -1.0186    0.3602 N   0  0  0  0  0  0  0  0  0  0  0  0
   -2.6671   -0.5416   -0.0988 H   0  0  0  0  0  0  0  0  0  0  0  0
   -0.6131   -0.3236    0.3832 C   0  0  1  0  0  0  0  0  0  0  0  0
    0.0642   -0.8244   -0.3104 H   0  0  0  0  0  0  0  0  0  0  0  0
   -0.8122    1.1253   -0.0986 C   0  0  0  0  0  0  0  0  0  0  0  0
   -1.5873    1.5946    0.5110 H   0  0  0  0  0  0  0  0  0  0  0  0
    0.1156    1.6818    0.0418 H   0  0  0  0  0  0  0  0  0  0  0  0
   -1.2280    1.2294   -1.5705 C   0  0  0  0  0  0  0  0  0  0  0  0
   -2.1681    0.6979   -1.7148 H   0  0  0  0  0  0  0  0  0  0  0  0
   -1.3780    2.2808   -1.8185 H   0  0  0  0  0  0  0  0  0  0  0  0
   -0.0102    0.5392   -2.7194 S   0  0  0  0  0  0  0  0  0  0  0  0
    1.3197    1.7544   -2.5280 C   0  0  0  0  0  0  0  0  0  0  0  0
    1.6558    1.7713   -1.4908 H   0  0  0  0  0  0  0  0  0  0  0  0
    2.1557    1.4797   -3.1718 H   0  0  0  0  0  0  0  0  0  0  0  0
    0.9582    2.7431   -2.8119 H   0  0  0  0  0  0  0  0  0  0  0  0
    0.0063   -0.3875    1.7866 C   0  0  0  0  0  0  0  0  0  0  0  0
   -0.6852   -0.7066    2.7517 O   0  0  0  0  0  0  0  0  0  0  0  0
    1.3037   -0.0765    1.9020 N   0  0  0  0  0  0  0  0  0  0  0  0
    1.8099    0.1609    1.0637 H   0  0  0  0  0  0  0  0  0  0  0  0
    2.0333   -0.0753    3.1690 C   0  0  0  0  0  0  0  0  0  0  0  0
    1.9727   -1.0644    3.6291 H   0  0  0  0  0  0  0  0  0  0  0  0
    3.0807    0.1807    3.0044 H   0  0  0  0  0  0  0  0  0  0  0  0
    1.5863    0.6506    3.8506 H   0  0  0  0  0  0  0  0  0  0  0  0
  5  6  2  0  0  0  0
  5  7  1  0  0  0  0
  2  3  1  0  0  0  0
  2  4  1  0  0  0  0
  2  5  1  0  0  0  0
  1  2  1  0  0  0  0
 22 23  2  0  0  0  0
 22 24  1  0  0  0  0
 18 19  1  0  0  0  0
 18 20  1  0  0  0  0
 18 21  1  0  0  0  0
 17 18  1  0  0  0  0
 14 15  1  0  0  0  0
 14 16  1  0  0  0  0
 14 17  1  0  0  0  0
 11 12  1  0  0  0  0
 11 13  1  0  0  0  0
 11 14  1  0  0  0  0
  9 10  1  0  0  0  0
  9 11  1  0  0  0  0
  9 22  1  0  0  0  0
  7  8  1  0  0  0  0
  7  9  1  0  0  0  0
 26 27  1  0  0  0  0
 26 28  1  0  0  0  0
 26 29  1  0  0  0  0
 24 25  1  0  0  0  0
 24 26  1  0  0  0  0
M  END
$$$$
default_name
  -OEChem-01062215323D

 29 28  0     1  0  0  0  0  0999 V2000
   -3.5781   -3.7296    1.2702 H   0  0  0  0  0  0  0  0  0  0  0  0
   -3.5311   -2.7616    0.7732 C   0  0  0  0  0  0  0  0  0  0  0  0
   -4.2371   -2.0766    1.2382 H   0  0  0  0  0  0  0  0  0  0  0  0
   -3.7681   -2.8816   -0.2818 H   0  0  0  0  0  0  0  0  0  0  0  0
   -2.1321   -2.2086    0.9112 C   0  0  0  0  0  0  0  0  0  0  0  0
   -1.2751   -2.8426    1.5112 O   0  0  0  0  0  0  0  0  0  0  0  0
   -1.9041   -1.0186    0.3602 N   0  0  0  0  0  0  0  0  0  0  0  0
   -2.6671   -0.5416   -0.0988 H   0  0  0  0  0  0  0  0  0  0  0  0
   -0.6131   -0.3236    0.3832 C   0  0  1  0  0  0  0  0  0  0  0  0
   -0.0315   -0.6409   -0.4838 H   0  0  0  0  0  0  0  0  0  0  0  0
   -0.8553    1.1930    0.2727 C   0  0  0  0  0  0  0  0  0  0  0  0
   -1.5446    1.4970    1.0633 H   0  0  0  0  0  0  0  0  0  0  0  0
    0.0883    1.7199    0.4219 H   0  0  0  0  0  0  0  0  0  0  0  0
   -1.4481    1.6219   -1.0745 C   0  0  0  0  0  0  0  0  0  0  0  0
   -2.4042    1.1200   -1.2203 H   0  0  0  0  0  0  0  0  0  0  0  0
   -1.6168    2.6992   -1.0559 H   0  0  0  0  0  0  0  0  0  0  0  0
   -0.3881    1.2336   -2.4906 S   0  0  0  0  0  0  0  0  0  0  0  0
    0.9675    2.3974   -2.1910 C   0  0  0  0  0  0  0  0  0  0  0  0
    1.4289    2.1840   -1.2263 H   0  0  0  0  0  0  0  0  0  0  0  0
    1.7150    2.2918   -2.9777 H   0  0  0  0  0  0  0  0  0  0  0  0
    0.5838    3.4180   -2.1955 H   0  0  0  0  0  0  0  0  0  0  0  0
    0.1737   -0.6939    1.6485 C   0  0  0  0  0  0  0  0  0  0  0  0
   -0.3098   -1.4703    2.4700 O   0  0  0  0  0  0  0  0  0  0  0  0
    1.3793   -0.1338    1.8101 N   0  0  0  0  0  0  0  0  0  0  0  0
    1.7162    0.4814    1.0868 H   0  0  0  0  0  0  0  0  0  0  0  0
    2.2423   -0.3732    2.9659 C   0  0  0  0  0  0  0  0  0  0  0  0
    2.4507   -1.4420    3.0540 H   0  0  0  0  0  0  0  0  0  0  0  0
    3.1828    0.1684    2.8568 H   0  0  0  0  0  0  0  0  0  0  0  0
    1.7385   -0.0433    3.8762 H   0  0  0  0  0  0  0  0  0  0  0  0
  5  6  2  0  0  0  0
  5  7  1  0  0  0  0
  2  3  1  0  0  0  0
  2  4  1  0  0  0  0
  2  5  1  0  0  0  0
  1  2  1  0  0  0  0
 22 23  2  0  0  0  0
 22 24  1  0  0  0  0
 18 19  1  0  0  0  0
 18 20  1  0  0  0  0
 18 21  1  0  0  0  0
 17 18  1  0  0  0  0
 14 15  1  0  0  0  0
 14 16  1  0  0  0  0
 14 17  1  0  0  0  0
 11 12  1  0  0  0  0
 11 13  1  0  0  0  0
 11 14  1  0  0  0  0
  9 10  1  0  0  0  0
  9 11  1  0  0  0  0
  9 22  1  0  0  0  0
  7  8  1  0  0  0  0
  7  9  1  0  0  0  0
 26 27  1  0  0  0  0
 26 28  1  0  0  0  0
 26 29  1  0  0  0  0
 24 25  1  0  0  0  0
 24 26  1  0  0  0  0
M  END
$$$$
default_name
  -OEChem-01062215323D

 29 28  0     1  0  0  0  0  0999 V2000
   -3.5781   -3.7296    1.2702 H   0  0  0  0  0  0  0  0  0  0  0  0
   -3.5311   -2.7616    0.7732 C   0  0  0  0  0  0  0  0  0  0  0  0
   -4.2371   -2.0766    1.2382 H   0  0  0  0  0  0  0  0  0  0  0  0
   -3.7681   -2.8816   -0.2818 H   0  0  0  0  0  0  0  0  0  0  0  0
   -2.1321   -2.2086    0.9112 C   0  0  0  0  0  0  0  0  0  0  0  0
   -1.2751   -2.8426    1.5112 O   0  0  0  0  0  0  0  0  0  0  0  0
   -1.9041   -1.0186    0.3602 N   0  0  0  0  0  0  0  0  0  0  0  0
   -2.6671   -0.5416   -0.0988 H   0  0  0  0  0  0  0  0  0  0  0  0
   -0.6131   -0.3236    0.3832 C   0  0  1  0  0  0  0  0  0  0  0  0
   -0.0315   -0.6409   -0.4838 H   0  0  0  0  0  0  0  0  0  0  0  0
   -0.8553    1.1930    0.2727 C   0  0  0  0  0  0  0  0  0  0  0  0
   -1.5446    1.4970    1.0633 H   0  0  0  0  0  0  0  0  0  0  0  0
    0.0883    1.7199    0.4219 H   0  0  0  0  0  0  0  0  0  0  0  0
   -1.4481    1.6219   -1.0745 C   0  0  0  0  0  0  0  0  0  0  0  0
   -2.4042    1.1200   -1.2203 H   0  0  0  0  0  0  0  0  0  0  0  0
   -1.6168    2.6992   -1.0559 H   0  0  0  0  0  0  0  0  0  0  0  0
   -0.3881    1.2336   -2.4906 S   0  0  0  0  0  0  0  0  0  0  0  0
    0.9675    2.3974   -2.1910 C   0  0  0  0  0  0  0  0  0  0  0  0
    1.4289    2.1840   -1.2263 H   0  0  0  0  0  0  0  0  0  0  0  0
    1.7150    2.2918   -2.9777 H   0  0  0  0  0  0  0  0  0  0  0  0
    0.5838    3.4180   -2.1955 H   0  0  0  0  0  0  0  0  0  0  0  0
    0.1737   -0.6939    1.6485 C   0  0  0  0  0  0  0  0  0  0  0  0
   -0.1682   -1.6610    2.3261 O   0  0  0  0  0  0  0  0  0  0  0  0
    1.2194    0.0778    1.9715 N   0  0  0  0  0  0  0  0  0  0  0  0
    1.4488    0.8445    1.3593 H   0  0  0  0  0  0  0  0  0  0  0  0
    2.0572   -0.1346    3.1508 C   0  0  0  0  0  0  0  0  0  0  0  0
    2.4887   -1.1378    3.1194 H   0  0  0  0  0  0  0  0  0  0  0  0
    2.8616    0.6015    3.1832 H   0  0  0  0  0  0  0  0  0  0  0  0
    1.4506   -0.0475    4.0539 H   0  0  0  0  0  0  0  0  0  0  0  0
  5  6  2  0  0  0  0
  5  7  1  0  0  0  0
  2  3  1  0  0  0  0
  2  4  1  0  0  0  0
  2  5  1  0  0  0  0
  1  2  1  0  0  0  0
 22 23  2  0  0  0  0
 22 24  1  0  0  0  0
 18 19  1  0  0  0  0
 18 20  1  0  0  0  0
 18 21  1  0  0  0  0
 17 18  1  0  0  0  0
 14 15  1  0  0  0  0
 14 16  1  0  0  0  0
 14 17  1  0  0  0  0
 11 12  1  0  0  0  0
 11 13  1  0  0  0  0
 11 14  1  0  0  0  0
  9 10  1  0  0  0  0
  9 11  1  0  0  0  0
  9 22  1  0  0  0  0
  7  8  1  0  0  0  0
  7  9  1  0  0  0  0
 26 27  1  0  0  0  0
 26 28  1  0  0  0  0
 26 29  1  0  0  0  0
 24 25  1  0  0  0  0
 24 26  1  0  0  0  0
M  END
$$$$
default_name
  -OEChem-01062215323D

 29 28  0     1  0  0  0  0  0999 V2000
   -3.5781   -3.7296    1.2702 H   0  0  0  0  0  0  0  0  0  0  0  0
   -3.5311   -2.7616    0.7732 C   0  0  0  0  0  0  0  0  0  0  0  0
   -4.2371   -2.0766    1.2382 H   0  0  0  0  0  0  0  0  0  0  0  0
   -3.7681   -2.8816   -0.2818 H   0  0  0  0  0  0  0  0  0  0  0  0
   -2.1321   -2.2086    0.9112 C   0  0  0  0  0  0  0  0  0  0  0  0
   -1.2751   -2.8426    1.5112 O   0  0  0  0  0  0  0  0  0  0  0  0
   -1.9041   -1.0186    0.3602 N   0  0  0  0  0  0  0  0  0  0  0  0
   -2.6671   -0.5416   -0.0988 H   0  0  0  0  0  0  0  0  0  0  0  0
   -0.6131   -0.3236    0.3832 C   0  0  1  0  0  0  0  0  0  0  0  0
   -0.0315   -0.6409   -0.4838 H   0  0  0  0  0  0  0  0  0  0  0  0
   -0.8553    1.1930    0.2727 C   0  0  0  0  0  0  0  0  0  0  0  0
   -1.5446    1.4970    1.0633 H   0  0  0  0  0  0  0  0  0  0  0  0
    0.0883    1.7199    0.4219 H   0  0  0  0  0  0  0  0  0  0  0  0
   -1.4481    1.6219   -1.0745 C   0  0  0  0  0  0  0  0  0  0  0  0
   -2.4042    1.1200   -1.2203 H   0  0  0  0  0  0  0  0  0  0  0  0
   -1.6168    2.6992   -1.0559 H   0  0  0  0  0  0  0  0  0  0  0  0
   -0.3881    1.2336   -2.4906 S   0  0  0  0  0  0  0  0  0  0  0  0
    0.9675    2.3974   -2.1910 C   0  0  0  0  0  0  0  0  0  0  0  0
    1.4289    2.1840   -1.2263 H   0  0  0  0  0  0  0  0  0  0  0  0
    1.7150    2.2918   -2.9777 H   0  0  0  0  0  0  0  0  0  0  0  0
    0.5838    3.4180   -2.1955 H   0  0  0  0  0  0  0  0  0  0  0  0
    0.1737   -0.6939    1.6485 C   0  0  0  0  0  0  0  0  0  0  0  0
    0.0182   -1.7959    2.1707 O   0  0  0  0  0  0  0  0  0  0  0  0
    1.0098    0.2267    2.1454 N   0  0  0  0  0  0  0  0  0  0  0  0
    1.0960    1.1021    1.6541 H   0  0  0  0  0  0  0  0  0  0  0  0
    1.8161    0.0319    3.3494 C   0  0  0  0  0  0  0  0  0  0  0  0
    2.4564   -0.8446    3.2253 H   0  0  0  0  0  0  0  0  0  0  0  0
    2.4386    0.9080    3.5360 H   0  0  0  0  0  0  0  0  0  0  0  0
    1.1624   -0.1366    4.2071 H   0  0  0  0  0  0  0  0  0  0  0  0
  5  6  2  0  0  0  0
  5  7  1  0  0  0  0
  2  3  1  0  0  0  0
  2  4  1  0  0  0  0
  2  5  1  0  0  0  0
  1  2  1  0  0  0  0
 22 23  2  0  0  0  0
 22 24  1  0  0  0  0
 18 19  1  0  0  0  0
 18 20  1  0  0  0  0
 18 21  1  0  0  0  0
 17 18  1  0  0  0  0
 14 15  1  0  0  0  0
 14 16  1  0  0  0  0
 14 17  1  0  0  0  0
 11 12  1  0  0  0  0
 11 13  1  0  0  0  0
 11 14  1  0  0  0  0
  9 10  1  0  0  0  0
  9 11  1  0  0  0  0
  9 22  1  0  0  0  0
  7  8  1  0  0  0  0
  7  9  1  0  0  0  0
 26 27  1  0  0  0  0
 26 28  1  0  0  0  0
 26 29  1  0  0  0  0
 24 25  1  0  0  0  0
 24 26  1  0  0  0  0
M  END
$$$$
default_name
  -OEChem-01062215323D

 29 28  0     1  0  0  0  0  0999 V2000
   -3.5781   -3.7296    1.2702 H   0  0  0  0  0  0  0  0  0  0  0  0
   -3.5311   -2.7616    0.7732 C   0  0  0  0  0  0  0  0  0  0  0  0
   -4.2371   -2.0766    1.2382 H   0  0  0  0  0  0  0  0  0  0  0  0
   -3.7681   -2.8816   -0.2818 H   0  0  0  0  0  0  0  0  0  0  0  0
   -2.1321   -2.2086    0.9112 C   0  0  0  0  0  0  0  0  0  0  0  0
   -1.2751   -2.8426    1.5112 O   0  0  0  0  0  0  0  0  0  0  0  0
   -1.9041   -1.0186    0.3602 N   0  0  0  0  0  0  0  0  0  0  0  0
   -2.6671   -0.5416   -0.0988 H   0  0  0  0  0  0  0  0  0  0  0  0
   -0.6131   -0.3236    0.3832 C   0  0  1  0  0  0  0  0  0  0  0  0
   -0.0315   -0.6409   -0.4838 H   0  0  0  0  0  0  0  0  0  0  0  0
   -0.8553    1.1930    0.2727 C   0  0  0  0  0  0  0  0  0  0  0  0
   -1.5446    1.4970    1.0633 H   0  0  0  0  0  0  0  0  0  0  0  0
    0.0883    1.7199    0.4219 H   0  0  0  0  0  0  0  0  0  0  0  0
   -1.4481    1.6219   -1.0745 C   0  0  0  0  0  0  0  0  0  0  0  0
   -2.4042    1.1200   -1.2203 H   0  0  0  0  0  0  0  0  0  0  0  0
   -1.6168    2.6992   -1.0559 H   0  0  0  0  0  0  0  0  0  0  0  0
   -0.3881    1.2336   -2.4906 S   0  0  0  0  0  0  0  0  0  0  0  0
    0.9675    2.3974   -2.1910 C   0  0  0  0  0  0  0  0  0  0  0  0
    1.4289    2.1840   -1.2263 H   0  0  0  0  0  0  0  0  0  0  0  0
    1.7150    2.2918   -2.9777 H   0  0  0  0  0  0  0  0  0  0  0  0
    0.5838    3.4180   -2.1955 H   0  0  0  0  0  0  0  0  0  0  0  0
    0.1737   -0.6939    1.6485 C   0  0  0  0  0  0  0  0  0  0  0  0
    0.2367   -1.8658    2.0144 O   0  0  0  0  0  0  0  0  0  0  0  0
    0.7647    0.3027    2.3201 N   0  0  0  0  0  0  0  0  0  0  0  0
    0.6819    1.2365    1.9509 H   0  0  0  0  0  0  0  0  0  0  0  0
    1.5352    0.1149    3.5483 C   0  0  0  0  0  0  0  0  0  0  0  0
    2.3561   -0.5822    3.3645 H   0  0  0  0  0  0  0  0  0  0  0  0
    1.9426    1.0670    3.8909 H   0  0  0  0  0  0  0  0  0  0  0  0
    0.8934   -0.3044    4.3252 H   0  0  0  0  0  0  0  0  0  0  0  0
  5  6  2  0  0  0  0
  5  7  1  0  0  0  0
  2  3  1  0  0  0  0
  2  4  1  0  0  0  0
  2  5  1  0  0  0  0
  1  2  1  0  0  0  0
 22 23  2  0  0  0  0
 22 24  1  0  0  0  0
 18 19  1  0  0  0  0
 18 20  1  0  0  0  0
 18 21  1  0  0  0  0
 17 18  1  0  0  0  0
 14 15  1  0  0  0  0
 14 16  1  0  0  0  0
 14 17  1  0  0  0  0
 11 12  1  0  0  0  0
 11 13  1  0  0  0  0
 11 14  1  0  0  0  0
  9 10  1  0  0  0  0
  9 11  1  0  0  0  0
  9 22  1  0  0  0  0
  7  8  1  0  0  0  0
  7  9  1  0  0  0  0
 26 27  1  0  0  0  0
 26 28  1  0  0  0  0
 26 29  1  0  0  0  0
 24 25  1  0  0  0  0
 24 26  1  0  0  0  0
M  END
$$$$
default_name
  -OEChem-01062215323D

 29 28  0     1  0  0  0  0  0999 V2000
   -3.5781   -3.7296    1.2702 H   0  0  0  0  0  0  0  0  0  0  0  0
   -3.5311   -2.7616    0.7732 C   0  0  0  0  0  0  0  0  0  0  0  0
   -4.2371   -2.0766    1.2382 H   0  0  0  0  0  0  0  0  0  0  0  0
   -3.7681   -2.8816   -0.2818 H   0  0  0  0  0  0  0  0  0  0  0  0
   -2.1321   -2.2086    0.9112 C   0  0  0  0  0  0  0  0  0  0  0  0
   -1.2751   -2.8426    1.5112 O   0  0  0  0  0  0  0  0  0  0  0  0
   -1.9041   -1.0186    0.3602 N   0  0  0  0  0  0  0  0  0  0  0  0
   -2.6671   -0.5416   -0.0988 H   0  0  0  0  0  0  0  0  0  0  0  0
   -0.6131   -0.3236    0.3832 C   0  0  1  0  0  0  0  0  0  0  0  0
   -0.0315   -0.6409   -0.4838 H   0  0  0  0  0  0  0  0  0  0  0  0
   -0.8553    1.1930    0.2727 C   0  0  0  0  0  0  0  0  0  0  0  0
   -1.5446    1.4970    1.0633 H   0  0  0  0  0  0  0  0  0  0  0  0
    0.0883    1.7199    0.4219 H   0  0  0  0  0  0  0  0  0  0  0  0
   -1.4481    1.6219   -1.0745 C   0  0  0  0  0  0  0  0  0  0  0  0
   -2.4042    1.1200   -1.2203 H   0  0  0  0  0  0  0  0  0  0  0  0
   -1.6168    2.6992   -1.0559 H   0  0  0  0  0  0  0  0  0  0  0  0
   -0.3881    1.2336   -2.4906 S   0  0  0  0  0  0  0  0  0  0  0  0
    0.9675    2.3974   -2.1910 C   0  0  0  0  0  0  0  0  0  0  0  0
    1.4289    2.1840   -1.2263 H   0  0  0  0  0  0  0  0  0  0  0  0
    1.7150    2.2918   -2.9777 H   0  0  0  0  0  0  0  0  0  0  0  0
    0.5838    3.4180   -2.1955 H   0  0  0  0  0  0  0  0  0  0  0  0
    0.1737   -0.6939    1.6485 C   0  0  0  0  0  0  0  0  0  0  0  0
    0.4725   -1.8660    1.8678 O   0  0  0  0  0  0  0  0  0  0  0  0
    0.5008    0.3007    2.4836 N   0  0  0  0  0  0  0  0  0  0  0  0
    0.2347    1.2387    2.2296 H   0  0  0  0  0  0  0  0  0  0  0  0
    1.2338    0.1088    3.7340 C   0  0  0  0  0  0  0  0  0  0  0  0
    2.1945   -0.3687    3.5274 H   0  0  0  0  0  0  0  0  0  0  0  0
    1.4074    1.0678    4.2239 H   0  0  0  0  0  0  0  0  0  0  0  0
    0.6620   -0.5396    4.4003 H   0  0  0  0  0  0  0  0  0  0  0  0
  5  6  2  0  0  0  0
  5  7  1  0  0  0  0
  2  3  1  0  0  0  0
  2  4  1  0  0  0  0
  2  5  1  0  0  0  0
  1  2  1  0  0  0  0
 22 23  2  0  0  0  0
 22 24  1  0  0  0  0
 18 19  1  0  0  0  0
 18 20  1  0  0  0  0
 18 21  1  0  0  0  0
 17 18  1  0  0  0  0
 14 15  1  0  0  0  0
 14 16  1  0  0  0  0
 14 17  1  0  0  0  0
 11 12  1  0  0  0  0
 11 13  1  0  0  0  0
 11 14  1  0  0  0  0
  9 10  1  0  0  0  0
  9 11  1  0  0  0  0
  9 22  1  0  0  0  0
  7  8  1  0  0  0  0
  7  9  1  0  0  0  0
 26 27  1  0  0  0  0
 26 28  1  0  0  0  0
 26 29  1  0  0  0  0
 24 25  1  0  0  0  0
 24 26  1  0  0  0  0
M  END
$$$$
default_name
  -OEChem-01062215323D

 29 28  0     1  0  0  0  0  0999 V2000
   -3.5781   -3.7296    1.2702 H   0  0  0  0  0  0  0  0  0  0  0  0
   -3.5311   -2.7616    0.7732 C   0  0  0  0  0  0  0  0  0  0  0  0
   -4.2371   -2.0766    1.2382 H   0  0  0  0  0  0  0  0  0  0  0  0
   -3.7681   -2.8816   -0.2818 H   0  0  0  0  0  0  0  0  0  0  0  0
   -2.1321   -2.2086    0.9112 C   0  0  0  0  0  0  0  0  0  0  0  0
   -1.2751   -2.8426    1.5112 O   0  0  0  0  0  0  0  0  0  0  0  0
   -1.9041   -1.0186    0.3602 N   0  0  0  0  0  0  0  0  0  0  0  0
   -2.6671   -0.5416   -0.0988 H   0  0  0  0  0  0  0  0  0  0  0  0
   -0.6131   -0.3236    0.3832 C   0  0  1  0  0  0  0  0  0  0  0  0
   -0.0315   -0.6409   -0.4838 H   0  0  0  0  0  0  0  0  0  0  0  0
   -0.8553    1.1930    0.2727 C   0  0  0  0  0  0  0  0  0  0  0  0
   -1.5446    1.4970    1.0633 H   0  0  0  0  0  0  0  0  0  0  0  0
    0.0883    1.7199    0.4219 H   0  0  0  0  0  0  0  0  0  0  0  0
   -1.4481    1.6219   -1.0745 C   0  0  0  0  0  0  0  0  0  0  0  0
   -2.4042    1.1200   -1.2203 H   0  0  0  0  0  0  0  0  0  0  0  0
   -1.6168    2.6992   -1.0559 H   0  0  0  0  0  0  0  0  0  0  0  0
   -0.3881    1.2336   -2.4906 S   0  0  0  0  0  0  0  0  0  0  0  0
    0.9675    2.3974   -2.1910 C   0  0  0  0  0  0  0  0  0  0  0  0
    1.4289    2.1840   -1.2263 H   0  0  0  0  0  0  0  0  0  0  0  0
    1.7150    2.2918   -2.9777 H   0  0  0  0  0  0  0  0  0  0  0  0
    0.5838    3.4180   -2.1955 H   0  0  0  0  0  0  0  0  0  0  0  0
    0.1737   -0.6939    1.6485 C   0  0  0  0  0  0  0  0  0  0  0  0
    0.7094   -1.7965    1.7408 O   0  0  0  0  0  0  0  0  0  0  0  0
    0.2361    0.2207    2.6247 N   0  0  0  0  0  0  0  0  0  0  0  0
   -0.2151    1.1084    2.4711 H   0  0  0  0  0  0  0  0  0  0  0  0
    0.9324    0.0140    3.8936 C   0  0  0  0  0  0  0  0  0  0  0  0
    1.9828   -0.2185    3.7031 H   0  0  0  0  0  0  0  0  0  0  0  0
    0.8694    0.9102    4.5123 H   0  0  0  0  0  0  0  0  0  0  0  0
    0.4840   -0.8260    4.4271 H   0  0  0  0  0  0  0  0  0  0  0  0
  5  6  2  0  0  0  0
  5  7  1  0  0  0  0
  2  3  1  0  0  0  0
  2  4  1  0  0  0  0
  2  5  1  0  0  0  0
  1  2  1  0  0  0  0
 22 23  2  0  0  0  0
 22 24  1  0  0  0  0
 18 19  1  0  0  0  0
 18 20  1  0  0  0  0
 18 21  1  0  0  0  0
 17 18  1  0  0  0  0
 14 15  1  0  0  0  0
 14 16  1  0  0  0  0
 14 17  1  0  0  0  0
 11 12  1  0  0  0  0
 11 13  1  0  0  0  0
 11 14  1  0  0  0  0
  9 10  1  0  0  0  0
  9 11  1  0  0  0  0
  9 22  1  0  0  0  0
  7  8  1  0  0  0  0
  7  9  1  0  0  0  0
 26 27  1  0  0  0  0
 26 28  1  0  0  0  0
 26 29  1  0  0  0  0
 24 25  1  0  0  0  0
 24 26  1  0  0  0  0
M  END
$$$$
default_name
  -OEChem-01062215323D

 29 28  0     1  0  0  0  0  0999 V2000
   -3.5781   -3.7296    1.2702 H   0  0  0  0  0  0  0  0  0  0  0  0
   -3.5311   -2.7616    0.7732 C   0  0  0  0  0  0  0  0  0  0  0  0
   -4.2371   -2.0766    1.2382 H   0  0  0  0  0  0  0  0  0  0  0  0
   -3.7681   -2.8816   -0.2818 H   0  0  0  0  0  0  0  0  0  0  0  0
   -2.1321   -2.2086    0.9112 C   0  0  0  0  0  0  0  0  0  0  0  0
   -1.2751   -2.8426    1.5112 O   0  0  0  0  0  0  0  0  0  0  0  0
   -1.9041   -1.0186    0.3602 N   0  0  0  0  0  0  0  0  0  0  0  0
   -2.6671   -0.5416   -0.0988 H   0  0  0  0  0  0  0  0  0  0  0  0
   -0.6131   -0.3236    0.3832 C   0  0  1  0  0  0  0  0  0  0  0  0
   -0.0315   -0.6409   -0.4838 H   0  0  0  0  0  0  0  0  0  0  0  0
   -0.8553    1.1930    0.2727 C   0  0  0  0  0  0  0  0  0  0  0  0
   -1.5446    1.4970    1.0633 H   0  0  0  0  0  0  0  0  0  0  0  0
    0.0883    1.7199    0.4219 H   0  0  0  0  0  0  0  0  0  0  0  0
   -1.4481    1.6219   -1.0745 C   0  0  0  0  0  0  0  0  0  0  0  0
   -2.4042    1.1200   -1.2203 H   0  0  0  0  0  0  0  0  0  0  0  0
   -1.6168    2.6992   -1.0559 H   0  0  0  0  0  0  0  0  0  0  0  0
   -0.3881    1.2336   -2.4906 S   0  0  0  0  0  0  0  0  0  0  0  0
    0.9675    2.3974   -2.1910 C   0  0  0  0  0  0  0  0  0  0  0  0
    1.4289    2.1840   -1.2263 H   0  0  0  0  0  0  0  0  0  0  0  0
    1.7150    2.2918   -2.9777 H   0  0  0  0  0  0  0  0  0  0  0  0
    0.5838    3.4180   -2.1955 H   0  0  0  0  0  0  0  0  0  0  0  0
    0.1737   -0.6939    1.6485 C   0  0  0  0  0  0  0  0  0  0  0  0
    0.9313   -1.6620    1.6422 O   0  0  0  0  0  0  0  0  0  0  0  0
   -0.0113    0.0684    2.7340 N   0  0  0  0  0  0  0  0  0  0  0  0
   -0.6369    0.8546    2.6591 H   0  0  0  0  0  0  0  0  0  0  0  0
    0.6515   -0.1631    4.0165 C   0  0  0  0  0  0  0  0  0  0  0  0
    1.7352   -0.1419    3.8794 H   0  0  0  0  0  0  0  0  0  0  0  0
    0.3655    0.6049    4.7363 H   0  0  0  0  0  0  0  0  0  0  0  0
    0.3715   -1.1442    4.4040 H   0  0  0  0  0  0  0  0  0  0  0  0
  5  6  2  0  0  0  0
  5  7  1  0  0  0  0
  2  3  1  0  0  0  0
  2  4  1  0  0  0  0
  2  5  1  0  0  0  0
  1  2  1  0  0  0  0
 22 23  2  0  0  0  0
 22 24  1  0  0  0  0
 18 19  1  0  0  0  0
 18 20  1  0  0  0  0
 18 21  1  0  0  0  0
 17 18  1  0  0  0  0
 14 15  1  0  0  0  0
 14 16  1  0  0  0  0
 14 17  1  0  0  0  0
 11 12  1  0  0  0  0
 11 13  1  0  0  0  0
 11 14  1  0  0  0  0
  9 10  1  0  0  0  0
  9 11  1  0  0  0  0
  9 22  1  0  0  0  0
  7  8  1  0  0  0  0
  7  9  1  0  0  0  0
 26 27  1  0  0  0  0
 26 28  1  0  0  0  0
 26 29  1  0  0  0  0
 24 25  1  0  0  0  0
 24 26  1  0  0  0  0
M  END
$$$$
default_name
  -OEChem-01062215323D

 29 28  0     1  0  0  0  0  0999 V2000
   -3.5781   -3.7296    1.2702 H   0  0  0  0  0  0  0  0  0  0  0  0
   -3.5311   -2.7616    0.7732 C   0  0  0  0  0  0  0  0  0  0  0  0
   -4.2371   -2.0766    1.2382 H   0  0  0  0  0  0  0  0  0  0  0  0
   -3.7681   -2.8816   -0.2818 H   0  0  0  0  0  0  0  0  0  0  0  0
   -2.1321   -2.2086    0.9112 C   0  0  0  0  0  0  0  0  0  0  0  0
   -1.2751   -2.8426    1.5112 O   0  0  0  0  0  0  0  0  0  0  0  0
   -1.9041   -1.0186    0.3602 N   0  0  0  0  0  0  0  0  0  0  0  0
   -2.6671   -0.5416   -0.0988 H   0  0  0  0  0  0  0  0  0  0  0  0
   -0.6131   -0.3236    0.3832 C   0  0  1  0  0  0  0  0  0  0  0  0
   -0.0315   -0.6409   -0.4838 H   0  0  0  0  0  0  0  0  0  0  0  0
   -0.8553    1.1930    0.2727 C   0  0  0  0  0  0  0  0  0  0  0  0
   -1.5446    1.4970    1.0633 H   0  0  0  0  0  0  0  0  0  0  0  0
    0.0883    1.7199    0.4219 H   0  0  0  0  0  0  0  0  0  0  0  0
   -1.4481    1.6219   -1.0745 C   0  0  0  0  0  0  0  0  0  0  0  0
   -2.4042    1.1200   -1.2203 H   0  0  0  0  0  0  0  0  0  0  0  0
   -1.6168    2.6992   -1.0559 H   0  0  0  0  0  0  0  0  0  0  0  0
   -0.3881    1.2336   -2.4906 S   0  0  0  0  0  0  0  0  0  0  0  0
    0.9675    2.3974   -2.1910 C   0  0  0  0  0  0  0  0  0  0  0  0
    1.4289    2.1840   -1.2263 H   0  0  0  0  0  0  0  0  0  0  0  0
    1.7150    2.2918   -2.9777 H   0  0  0  0  0  0  0  0  0  0  0  0
    0.5838    3.4180   -2.1955 H   0  0  0  0  0  0  0  0  0  0  0  0
    0.1737   -0.6939    1.6485 C   0  0  0  0  0  0  0  0  0  0  0  0
    1.1232   -1.4716    1.5786 O   0  0  0  0  0  0  0  0  0  0  0  0
   -0.2246   -0.1461    2.8038 N   0  0  0  0  0  0  0  0  0  0  0  0
   -1.0019    0.4945    2.7807 H   0  0  0  0  0  0  0  0  0  0  0  0
    0.4103   -0.4103    4.0941 C   0  0  0  0  0  0  0  0  0  0  0  0
    1.4687   -0.1441    4.0444 H   0  0  0  0  0  0  0  0  0  0  0  0
   -0.0702    0.1729    4.8808 H   0  0  0  0  0  0  0  0  0  0  0  0
    0.3321   -1.4726    4.3324 H   0  0  0  0  0  0  0  0  0  0  0  0
  5  6  2  0  0  0  0
  5  7  1  0  0  0  0
  2  3  1  0  0  0  0
  2  4  1  0  0  0  0
  2  5  1  0  0  0  0
  1  2  1  0  0  0  0
 22 23  2  0  0  0  0
 22 24  1  0  0  0  0
 18 19  1  0  0  0  0
 18 20  1  0  0  0  0
 18 21  1  0  0  0  0
 17 18  1  0  0  0  0
 14 15  1  0  0  0  0
 14 16  1  0  0  0  0
 14 17  1  0  0  0  0
 11 12  1  0  0  0  0
 11 13  1  0  0  0  0
 11 14  1  0  0  0  0
  9 10  1  0  0  0  0
  9 11  1  0  0  0  0
  9 22  1  0  0  0  0
  7  8  1  0  0  0  0
  7  9  1  0  0  0  0
 26 27  1  0  0  0  0
 26 28  1  0  0  0  0
 26 29  1  0  0  0  0
 24 25  1  0  0  0  0
 24 26  1  0  0  0  0
M  END
$$$$
default_name
  -OEChem-01062215323D

 29 28  0     1  0  0  0  0  0999 V2000
   -3.5781   -3.7296    1.2702 H   0  0  0  0  0  0  0  0  0  0  0  0
   -3.5311   -2.7616    0.7732 C   0  0  0  0  0  0  0  0  0  0  0  0
   -4.2371   -2.0766    1.2382 H   0  0  0  0  0  0  0  0  0  0  0  0
   -3.7681   -2.8816   -0.2818 H   0  0  0  0  0  0  0  0  0  0  0  0
   -2.1321   -2.2086    0.9112 C   0  0  0  0  0  0  0  0  0  0  0  0
   -1.2751   -2.8426    1.5112 O   0  0  0  0  0  0  0  0  0  0  0  0
   -1.9041   -1.0186    0.3602 N   0  0  0  0  0  0  0  0  0  0  0  0
   -2.6671   -0.5416   -0.0988 H   0  0  0  0  0  0  0  0  0  0  0  0
   -0.6131   -0.3236    0.3832 C   0  0  1  0  0  0  0  0  0  0  0  0
   -0.0315   -0.6409   -0.4838 H   0  0  0  0  0  0  0  0  0  0  0  0
   -0.8553    1.1930    0.2727 C   0  0  0  0  0  0  0  0  0  0  0  0
   -1.5446    1.4970    1.0633 H   0  0  0  0  0  0  0  0  0  0  0  0
    0.0883    1.7199    0.4219 H   0  0  0  0  0  0  0  0  0  0  0  0
   -1.4481    1.6219   -1.0745 C   0  0  0  0  0  0  0  0  0  0  0  0
   -2.4042    1.1200   -1.2203 H   0  0  0  0  0  0  0  0  0  0  0  0
   -1.6168    2.6992   -1.0559 H   0  0  0  0  0  0  0  0  0  0  0  0
   -0.3881    1.2336   -2.4906 S   0  0  0  0  0  0  0  0  0  0  0  0
    0.9675    2.3974   -2.1910 C   0  0  0  0  0  0  0  0  0  0  0  0
    1.4289    2.1840   -1.2263 H   0  0  0  0  0  0  0  0  0  0  0  0
    1.7150    2.2918   -2.9777 H   0  0  0  0  0  0  0  0  0  0  0  0
    0.5838    3.4180   -2.1955 H   0  0  0  0  0  0  0  0  0  0  0  0
    0.1737   -0.6939    1.6485 C   0  0  0  0  0  0  0  0  0  0  0  0
    1.2719   -1.2384    1.5544 O   0  0  0  0  0  0  0  0  0  0  0  0
   -0.3893   -0.4080    2.8295 N   0  0  0  0  0  0  0  0  0  0  0  0
   -1.2852    0.0528    2.8276 H   0  0  0  0  0  0  0  0  0  0  0  0
    0.2252   -0.7108    4.1213 C   0  0  0  0  0  0  0  0  0  0  0  0
    1.2015   -0.2250    4.1869 H   0  0  0  0  0  0  0  0  0  0  0  0
   -0.4079   -0.3565    4.9358 H   0  0  0  0  0  0  0  0  0  0  0  0
    0.3685   -1.7886    4.2172 H   0  0  0  0  0  0  0  0  0  0  0  0
  5  6  2  0  0  0  0
  5  7  1  0  0  0  0
  2  3  1  0  0  0  0
  2  4  1  0  0  0  0
  2  5  1  0  0  0  0
  1  2  1  0  0  0  0
 22 23  2  0  0  0  0
 22 24  1  0  0  0  0
 18 19  1  0  0  0  0
 18 20  1  0  0  0  0
 18 21  1  0  0  0  0
 17 18  1  0  0  0  0
 14 15  1  0  0  0  0
 14 16  1  0  0  0  0
 14 17  1  0  0  0  0
 11 12  1  0  0  0  0
 11 13  1  0  0  0  0
 11 14  1  0  0  0  0
  9 10  1  0  0  0  0
  9 11  1  0  0  0  0
  9 22  1  0  0  0  0
  7  8  1  0  0  0  0
  7  9  1  0  0  0  0
 26 27  1  0  0  0  0
 26 28  1  0  0  0  0
 26 29  1  0  0  0  0
 24 25  1  0  0  0  0
 24 26  1  0  0  0  0
M  END
$$$$
default_name
  -OEChem-01062215323D

 29 28  0     1  0  0  0  0  0999 V2000
   -3.5781   -3.7296    1.2702 H   0  0  0  0  0  0  0  0  0  0  0  0
   -3.5311   -2.7616    0.7732 C   0  0  0  0  0  0  0  0  0  0  0  0
   -4.2371   -2.0766    1.2382 H   0  0  0  0  0  0  0  0  0  0  0  0
   -3.7681   -2.8816   -0.2818 H   0  0  0  0  0  0  0  0  0  0  0  0
   -2.1321   -2.2086    0.9112 C   0  0  0  0  0  0  0  0  0  0  0  0
   -1.2751   -2.8426    1.5112 O   0  0  0  0  0  0  0  0  0  0  0  0
   -1.9041   -1.0186    0.3602 N   0  0  0  0  0  0  0  0  0  0  0  0
   -2.6671   -0.5416   -0.0988 H   0  0  0  0  0  0  0  0  0  0  0  0
   -0.6131   -0.3236    0.3832 C   0  0  1  0  0  0  0  0  0  0  0  0
   -0.0315   -0.6409   -0.4838 H   0  0  0  0  0  0  0  0  0  0  0  0
   -0.8553    1.1930    0.2727 C   0  0  0  0  0  0  0  0  0  0  0  0
   -1.5446    1.4970    1.0633 H   0  0  0  0  0  0  0  0  0  0  0  0
    0.0883    1.7199    0.4219 H   0  0  0  0  0  0  0  0  0  0  0  0
   -1.4481    1.6219   -1.0745 C   0  0  0  0  0  0  0  0  0  0  0  0
   -2.4042    1.1200   -1.2203 H   0  0  0  0  0  0  0  0  0  0  0  0
   -1.6168    2.6992   -1.0559 H   0  0  0  0  0  0  0  0  0  0  0  0
   -0.3881    1.2336   -2.4906 S   0  0  0  0  0  0  0  0  0  0  0  0
    0.9675    2.3974   -2.1910 C   0  0  0  0  0  0  0  0  0  0  0  0
    1.4289    2.1840   -1.2263 H   0  0  0  0  0  0  0  0  0  0  0  0
    1.7150    2.2918   -2.9777 H   0  0  0  0  0  0  0  0  0  0  0  0
    0.5838    3.4180   -2.1955 H   0  0  0  0  0  0  0  0  0  0  0  0
    0.1737   -0.6939    1.6485 C   0  0  0  0  0  0  0  0  0  0  0  0
    1.3672   -0.9782    1.5713 O   0  0  0  0  0  0  0  0  0  0  0  0
   -0.4940   -0.6996    2.8094 N   0  0  0  0  0  0  0  0  0  0  0  0
   -1.4676   -0.4406    2.7966 H   0  0  0  0  0  0  0  0  0  0  0  0
    0.1088   -1.0442    4.0960 C   0  0  0  0  0  0  0  0  0  0  0  0
    0.9518   -0.3790    4.2972 H   0  0  0  0  0  0  0  0  0  0  0  0
   -0.6246   -0.9472    4.8977 H   0  0  0  0  0  0  0  0  0  0  0  0
    0.4784   -2.0708    4.0663 H   0  0  0  0  0  0  0  0  0  0  0  0
  5  6  2  0  0  0  0
  5  7  1  0  0  0  0
  2  3  1  0  0  0  0
  2  4  1  0  0  0  0
  2  5  1  0  0  0  0
  1  2  1  0  0  0  0
 22 23  2  0  0  0  0
 22 24  1  0  0  0  0
 18 19  1  0  0  0  0
 18 20  1  0  0  0  0
 18 21  1  0  0  0  0
 17 18  1  0  0  0  0
 14 15  1  0  0  0  0
 14 16  1  0  0  0  0
 14 17  1  0  0  0  0
 11 12  1  0  0  0  0
 11 13  1  0  0  0  0
 11 14  1  0  0  0  0
  9 10  1  0  0  0  0
  9 11  1  0  0  0  0
  9 22  1  0  0  0  0
  7  8  1  0  0  0  0
  7  9  1  0  0  0  0
 26 27  1  0  0  0  0
 26 28  1  0  0  0  0
 26 29  1  0  0  0  0
 24 25  1  0  0  0  0
 24 26  1  0  0  0  0
M  END
$$$$
default_name
  -OEChem-01062215323D

 29 28  0     1  0  0  0  0  0999 V2000
   -3.5781   -3.7296    1.2702 H   0  0  0  0  0  0  0  0  0  0  0  0
   -3.5311   -2.7616    0.7732 C   0  0  0  0  0  0  0  0  0  0  0  0
   -4.2371   -2.0766    1.2382 H   0  0  0  0  0  0  0  0  0  0  0  0
   -3.7681   -2.8816   -0.2818 H   0  0  0  0  0  0  0  0  0  0  0  0
   -2.1321   -2.2086    0.9112 C   0  0  0  0  0  0  0  0  0  0  0  0
   -1.2751   -2.8426    1.5112 O   0  0  0  0  0  0  0  0  0  0  0  0
   -1.9041   -1.0186    0.3602 N   0  0  0  0  0  0  0  0  0  0  0  0
   -2.6671   -0.5416   -0.0988 H   0  0  0  0  0  0  0  0  0  0  0  0
   -0.6131   -0.3236    0.3832 C   0  0  1  0  0  0  0  0  0  0  0  0
   -0.0315   -0.6409   -0.4838 H   0  0  0  0  0  0  0  0  0  0  0  0
   -0.8553    1.1930    0.2727 C   0  0  0  0  0  0  0  0  0  0  0  0
   -1.5446    1.4970    1.0633 H   0  0  0  0  0  0  0  0  0  0  0  0
    0.0883    1.7199    0.4219 H   0  0  0  0  0  0  0  0  0  0  0  0
   -1.4481    1.6219   -1.0745 C   0  0  0  0  0  0  0  0  0  0  0  0
   -2.4042    1.1200   -1.2203 H   0  0  0  0  0  0  0  0  0  0  0  0
   -1.6168    2.6992   -1.0559 H   0  0  0  0  0  0  0  0  0  0  0  0
   -0.3881    1.2336   -2.4906 S   0  0  0  0  0  0  0  0  0  0  0  0
    0.9675    2.3974   -2.1910 C   0  0  0  0  0  0  0  0  0  0  0  0
    1.4289    2.1840   -1.2263 H   0  0  0  0  0  0  0  0  0  0  0  0
    1.7150    2.2918   -2.9777 H   0  0  0  0  0  0  0  0  0  0  0  0
    0.5838    3.4180   -2.1955 H   0  0  0  0  0  0  0  0  0  0  0  0
    0.1737   -0.6939    1.6485 C   0  0  0  0  0  0  0  0  0  0  0  0
    1.4028   -0.7087    1.6280 O   0  0  0  0  0  0  0  0  0  0  0  0
   -0.5318   -1.0008    2.7447 N   0  0  0  0  0  0  0  0  0  0  0  0
   -1.5366   -0.9520    2.6898 H   0  0  0  0  0  0  0  0  0  0  0  0
    0.0690   -1.3878    4.0202 C   0  0  0  0  0  0  0  0  0  0  0  0
    0.7365   -0.5956    4.3676 H   0  0  0  0  0  0  0  0  0  0  0  0
   -0.7055   -1.5589    4.7690 H   0  0  0  0  0  0  0  0  0  0  0  0
    0.6541   -2.3000    3.8900 H   0  0  0  0  0  0  0  0  0  0  0  0
  5  6  2  0  0  0  0
  5  7  1  0  0  0  0
  2  3  1  0  0  0  0
  2  4  1  0  0  0  0
  2  5  1  0  0  0  0
  1  2  1  0  0  0  0
 22 23  2  0  0  0  0
 22 24  1  0  0  0  0
 18 19  1  0  0  0  0
 18 20  1  0  0  0  0
 18 21  1  0  0  0  0
 17 18  1  0  0  0  0
 14 15  1  0  0  0  0
 14 16  1  0  0  0  0
 14 17  1  0  0  0  0
 11 12  1  0  0  0  0
 11 13  1  0  0  0  0
 11 14  1  0  0  0  0
  9 10  1  0  0  0  0
  9 11  1  0  0  0  0
  9 22  1  0  0  0  0
  7  8  1  0  0  0  0
  7  9  1  0  0  0  0
 26 27  1  0  0  0  0
 26 28  1  0  0  0  0
 26 29  1  0  0  0  0
 24 25  1  0  0  0  0
 24 26  1  0  0  0  0
M  END
$$$$
default_name
  -OEChem-01062215323D

 29 28  0     1  0  0  0  0  0999 V2000
   -3.5781   -3.7296    1.2702 H   0  0  0  0  0  0  0  0  0  0  0  0
   -3.5311   -2.7616    0.7732 C   0  0  0  0  0  0  0  0  0  0  0  0
   -4.2371   -2.0766    1.2382 H   0  0  0  0  0  0  0  0  0  0  0  0
   -3.7681   -2.8816   -0.2818 H   0  0  0  0  0  0  0  0  0  0  0  0
   -2.1321   -2.2086    0.9112 C   0  0  0  0  0  0  0  0  0  0  0  0
   -1.2751   -2.8426    1.5112 O   0  0  0  0  0  0  0  0  0  0  0  0
   -1.9041   -1.0186    0.3602 N   0  0  0  0  0  0  0  0  0  0  0  0
   -2.6671   -0.5416   -0.0988 H   0  0  0  0  0  0  0  0  0  0  0  0
   -0.6131   -0.3236    0.3832 C   0  0  1  0  0  0  0  0  0  0  0  0
   -0.0315   -0.6409   -0.4838 H   0  0  0  0  0  0  0  0  0  0  0  0
   -0.8553    1.1930    0.2727 C   0  0  0  0  0  0  0  0  0  0  0  0
   -1.5446    1.4970    1.0633 H   0  0  0  0  0  0  0  0  0  0  0  0
    0.0883    1.7199    0.4219 H   0  0  0  0  0  0  0  0  0  0  0  0
   -1.4481    1.6219   -1.0745 C   0  0  0  0  0  0  0  0  0  0  0  0
   -2.4042    1.1200   -1.2203 H   0  0  0  0  0  0  0  0  0  0  0  0
   -1.6168    2.6992   -1.0559 H   0  0  0  0  0  0  0  0  0  0  0  0
   -0.3881    1.2336   -2.4906 S   0  0  0  0  0  0  0  0  0  0  0  0
    0.9675    2.3974   -2.1910 C   0  0  0  0  0  0  0  0  0  0  0  0
    1.4289    2.1840   -1.2263 H   0  0  0  0  0  0  0  0  0  0  0  0
    1.7150    2.2918   -2.9777 H   0  0  0  0  0  0  0  0  0  0  0  0
    0.5838    3.4180   -2.1955 H   0  0  0  0  0  0  0  0  0  0  0  0
    0.1737   -0.6939    1.6485 C   0  0  0  0  0  0  0  0  0  0  0  0
    1.3761   -0.4484    1.7208 O   0  0  0  0  0  0  0  0  0  0  0  0
   -0.5000   -1.2913    2.6399 N   0  0  0  0  0  0  0  0  0  0  0  0
   -1.4876   -1.4465    2.5146 H   0  0  0  0  0  0  0  0  0  0  0  0
    0.1087   -1.7180    3.8989 C   0  0  0  0  0  0  0  0  0  0  0  0
    0.5703   -0.8602    4.3935 H   0  0  0  0  0  0  0  0  0  0  0  0
   -0.6452   -2.1500    4.5584 H   0  0  0  0  0  0  0  0  0  0  0  0
    0.8837   -2.4604    3.7003 H   0  0  0  0  0  0  0  0  0  0  0  0
  5  6  2  0  0  0  0
  5  7  1  0  0  0  0
  2  3  1  0  0  0  0
  2  4  1  0  0  0  0
  2  5  1  0  0  0  0
  1  2  1  0  0  0  0
 22 23  2  0  0  0  0
 22 24  1  0  0  0  0
 18 19  1  0  0  0  0
 18 20  1  0  0  0  0
 18 21  1  0  0  0  0
 17 18  1  0  0  0  0
 14 15  1  0  0  0  0
 14 16  1  0  0  0  0
 14 17  1  0  0  0  0
 11 12  1  0  0  0  0
 11 13  1  0  0  0  0
 11 14  1  0  0  0  0
  9 10  1  0  0  0  0
  9 11  1  0  0  0  0
  9 22  1  0  0  0  0
  7  8  1  0  0  0  0
  7  9  1  0  0  0  0
 26 27  1  0  0  0  0
 26 28  1  0  0  0  0
 26 29  1  0  0  0  0
 24 25  1  0  0  0  0
 24 26  1  0  0  0  0
M  END
$$$$
default_name
  -OEChem-01062215323D

 29 28  0     1  0  0  0  0  0999 V2000
   -3.5781   -3.7296    1.2702 H   0  0  0  0  0  0  0  0  0  0  0  0
   -3.5311   -2.7616    0.7732 C   0  0  0  0  0  0  0  0  0  0  0  0
   -4.2371   -2.0766    1.2382 H   0  0  0  0  0  0  0  0  0  0  0  0
   -3.7681   -2.8816   -0.2818 H   0  0  0  0  0  0  0  0  0  0  0  0
   -2.1321   -2.2086    0.9112 C   0  0  0  0  0  0  0  0  0  0  0  0
   -1.2751   -2.8426    1.5112 O   0  0  0  0  0  0  0  0  0  0  0  0
   -1.9041   -1.0186    0.3602 N   0  0  0  0  0  0  0  0  0  0  0  0
   -2.6671   -0.5416   -0.0988 H   0  0  0  0  0  0  0  0  0  0  0  0
   -0.6131   -0.3236    0.3832 C   0  0  1  0  0  0  0  0  0  0  0  0
   -0.0315   -0.6409   -0.4838 H   0  0  0  0  0  0  0  0  0  0  0  0
   -0.8553    1.1930    0.2727 C   0  0  0  0  0  0  0  0  0  0  0  0
   -1.5446    1.4970    1.0633 H   0  0  0  0  0  0  0  0  0  0  0  0
    0.0883    1.7199    0.4219 H   0  0  0  0  0  0  0  0  0  0  0  0
   -1.4481    1.6219   -1.0745 C   0  0  0  0  0  0  0  0  0  0  0  0
   -2.4042    1.1200   -1.2203 H   0  0  0  0  0  0  0  0  0  0  0  0
   -1.6168    2.6992   -1.0559 H   0  0  0  0  0  0  0  0  0  0  0  0
   -0.3881    1.2336   -2.4906 S   0  0  0  0  0  0  0  0  0  0  0  0
    0.9675    2.3974   -2.1910 C   0  0  0  0  0  0  0  0  0  0  0  0
    1.4289    2.1840   -1.2263 H   0  0  0  0  0  0  0  0  0  0  0  0
    1.7150    2.2918   -2.9777 H   0  0  0  0  0  0  0  0  0  0  0  0
    0.5838    3.4180   -2.1955 H   0  0  0  0  0  0  0  0  0  0  0  0
    0.1737   -0.6939    1.6485 C   0  0  0  0  0  0  0  0  0  0  0  0
    1.2890   -0.2149    1.8433 O   0  0  0  0  0  0  0  0  0  0  0  0
   -0.4007   -1.5512    2.5021 N   0  0  0  0  0  0  0  0  0  0  0  0
   -1.3237   -1.8904    2.2828 H   0  0  0  0  0  0  0  0  0  0  0  0
    0.2250   -2.0125    3.7404 C   0  0  0  0  0  0  0  0  0  0  0  0
    0.4647   -1.1545    4.3730 H   0  0  0  0  0  0  0  0  0  0  0  0
   -0.4477   -2.6801    4.2805 H   0  0  0  0  0  0  0  0  0  0  0  0
    1.1515   -2.5413    3.5101 H   0  0  0  0  0  0  0  0  0  0  0  0
  5  6  2  0  0  0  0
  5  7  1  0  0  0  0
  2  3  1  0  0  0  0
  2  4  1  0  0  0  0
  2  5  1  0  0  0  0
  1  2  1  0  0  0  0
 22 23  2  0  0  0  0
 22 24  1  0  0  0  0
 18 19  1  0  0  0  0
 18 20  1  0  0  0  0
 18 21  1  0  0  0  0
 17 18  1  0  0  0  0
 14 15  1  0  0  0  0
 14 16  1  0  0  0  0
 14 17  1  0  0  0  0
 11 12  1  0  0  0  0
 11 13  1  0  0  0  0
 11 14  1  0  0  0  0
  9 10  1  0  0  0  0
  9 11  1  0  0  0  0
  9 22  1  0  0  0  0
  7  8  1  0  0  0  0
  7  9  1  0  0  0  0
 26 27  1  0  0  0  0
 26 28  1  0  0  0  0
 26 29  1  0  0  0  0
 24 25  1  0  0  0  0
 24 26  1  0  0  0  0
M  END
$$$$
default_name
  -OEChem-01062215323D

 29 28  0     1  0  0  0  0  0999 V2000
   -3.5781   -3.7296    1.2702 H   0  0  0  0  0  0  0  0  0  0  0  0
   -3.5311   -2.7616    0.7732 C   0  0  0  0  0  0  0  0  0  0  0  0
   -4.2371   -2.0766    1.2382 H   0  0  0  0  0  0  0  0  0  0  0  0
   -3.7681   -2.8816   -0.2818 H   0  0  0  0  0  0  0  0  0  0  0  0
   -2.1321   -2.2086    0.9112 C   0  0  0  0  0  0  0  0  0  0  0  0
   -1.2751   -2.8426    1.5112 O   0  0  0  0  0  0  0  0  0  0  0  0
   -1.9041   -1.0186    0.3602 N   0  0  0  0  0  0  0  0  0  0  0  0
   -2.6671   -0.5416   -0.0988 H   0  0  0  0  0  0  0  0  0  0  0  0
   -0.6131   -0.3236    0.3832 C   0  0  1  0  0  0  0  0  0  0  0  0
   -0.0315   -0.6409   -0.4838 H   0  0  0  0  0  0  0  0  0  0  0  0
   -0.8553    1.1930    0.2727 C   0  0  0  0  0  0  0  0  0  0  0  0
   -1.5446    1.4970    1.0633 H   0  0  0  0  0  0  0  0  0  0  0  0
    0.0883    1.7199    0.4219 H   0  0  0  0  0  0  0  0  0  0  0  0
   -1.4481    1.6219   -1.0745 C   0  0  0  0  0  0  0  0  0  0  0  0
   -2.4042    1.1200   -1.2203 H   0  0  0  0  0  0  0  0  0  0  0  0
   -1.6168    2.6992   -1.0559 H   0  0  0  0  0  0  0  0  0  0  0  0
   -0.3881    1.2336   -2.4906 S   0  0  0  0  0  0  0  0  0  0  0  0
    0.9675    2.3974   -2.1910 C   0  0  0  0  0  0  0  0  0  0  0  0
    1.4289    2.1840   -1.2263 H   0  0  0  0  0  0  0  0  0  0  0  0
    1.7150    2.2918   -2.9777 H   0  0  0  0  0  0  0  0  0  0  0  0
    0.5838    3.4180   -2.1955 H   0  0  0  0  0  0  0  0  0  0  0  0
    0.1737   -0.6939    1.6485 C   0  0  0  0  0  0  0  0  0  0  0  0
    1.1474   -0.0242    1.9871 O   0  0  0  0  0  0  0  0  0  0  0  0
   -0.2408   -1.7628    2.3408 N   0  0  0  0  0  0  0  0  0  0  0  0
   -1.0563   -2.2535    2.0102 H   0  0  0  0  0  0  0  0  0  0  0  0
    0.4100   -2.2510    3.5556 C   0  0  0  0  0  0  0  0  0  0  0  0
    0.4267   -1.4587    4.3076 H   0  0  0  0  0  0  0  0  0  0  0  0
   -0.1264   -3.1132    3.9540 H   0  0  0  0  0  0  0  0  0  0  0  0
    1.4394   -2.5371    3.3323 H   0  0  0  0  0  0  0  0  0  0  0  0
  5  6  2  0  0  0  0
  5  7  1  0  0  0  0
  2  3  1  0  0  0  0
  2  4  1  0  0  0  0
  2  5  1  0  0  0  0
  1  2  1  0  0  0  0
 22 23  2  0  0  0  0
 22 24  1  0  0  0  0
 18 19  1  0  0  0  0
 18 20  1  0  0  0  0
 18 21  1  0  0  0  0
 17 18  1  0  0  0  0
 14 15  1  0  0  0  0
 14 16  1  0  0  0  0
 14 17  1  0  0  0  0
 11 12  1  0  0  0  0
 11 13  1  0  0  0  0
 11 14  1  0  0  0  0
  9 10  1  0  0  0  0
  9 11  1  0  0  0  0
  9 22  1  0  0  0  0
  7  8  1  0  0  0  0
  7  9  1  0  0  0  0
 26 27  1  0  0  0  0
 26 28  1  0  0  0  0
 26 29  1  0  0  0  0
 24 25  1  0  0  0  0
 24 26  1  0  0  0  0
M  END
$$$$
default_name
  -OEChem-01062215323D

 29 28  0     1  0  0  0  0  0999 V2000
   -3.5781   -3.7296    1.2702 H   0  0  0  0  0  0  0  0  0  0  0  0
   -3.5311   -2.7616    0.7732 C   0  0  0  0  0  0  0  0  0  0  0  0
   -4.2371   -2.0766    1.2382 H   0  0  0  0  0  0  0  0  0  0  0  0
   -3.7681   -2.8816   -0.2818 H   0  0  0  0  0  0  0  0  0  0  0  0
   -2.1321   -2.2086    0.9112 C   0  0  0  0  0  0  0  0  0  0  0  0
   -1.2751   -2.8426    1.5112 O   0  0  0  0  0  0  0  0  0  0  0  0
   -1.9041   -1.0186    0.3602 N   0  0  0  0  0  0  0  0  0  0  0  0
   -2.6671   -0.5416   -0.0988 H   0  0  0  0  0  0  0  0  0  0  0  0
   -0.6131   -0.3236    0.3832 C   0  0  1  0  0  0  0  0  0  0  0  0
   -0.0315   -0.6409   -0.4838 H   0  0  0  0  0  0  0  0  0  0  0  0
   -0.8553    1.1930    0.2727 C   0  0  0  0  0  0  0  0  0  0  0  0
   -1.5446    1.4970    1.0633 H   0  0  0  0  0  0  0  0  0  0  0  0
    0.0883    1.7199    0.4219 H   0  0  0  0  0  0  0  0  0  0  0  0
   -1.4481    1.6219   -1.0745 C   0  0  0  0  0  0  0  0  0  0  0  0
   -2.4042    1.1200   -1.2203 H   0  0  0  0  0  0  0  0  0  0  0  0
   -1.6168    2.6992   -1.0559 H   0  0  0  0  0  0  0  0  0  0  0  0
   -0.3881    1.2336   -2.4906 S   0  0  0  0  0  0  0  0  0  0  0  0
    0.9675    2.3974   -2.1910 C   0  0  0  0  0  0  0  0  0  0  0  0
    1.4289    2.1840   -1.2263 H   0  0  0  0  0  0  0  0  0  0  0  0
    1.7150    2.2918   -2.9777 H   0  0  0  0  0  0  0  0  0  0  0  0
    0.5838    3.4180   -2.1955 H   0  0  0  0  0  0  0  0  0  0  0  0
    0.1737   -0.6939    1.6485 C   0  0  0  0  0  0  0  0  0  0  0  0
    0.9610    0.1107    2.1425 O   0  0  0  0  0  0  0  0  0  0  0  0
   -0.0312   -1.9116    2.1668 N   0  0  0  0  0  0  0  0  0  0  0  0
   -0.7035   -2.5111    1.7155 H   0  0  0  0  0  0  0  0  0  0  0  0
    0.6511   -2.4175    3.3569 C   0  0  0  0  0  0  0  0  0  0  0  0
    0.4589   -1.7520    4.2018 H   0  0  0  0  0  0  0  0  0  0  0  0
    0.2966   -3.4197    3.6013 H   0  0  0  0  0  0  0  0  0  0  0  0
    1.7276   -2.4480    3.1792 H   0  0  0  0  0  0  0  0  0  0  0  0
  5  6  2  0  0  0  0
  5  7  1  0  0  0  0
  2  3  1  0  0  0  0
  2  4  1  0  0  0  0
  2  5  1  0  0  0  0
  1  2  1  0  0  0  0
 22 23  2  0  0  0  0
 22 24  1  0  0  0  0
 18 19  1  0  0  0  0
 18 20  1  0  0  0  0
 18 21  1  0  0  0  0
 17 18  1  0  0  0  0
 14 15  1  0  0  0  0
 14 16  1  0  0  0  0
 14 17  1  0  0  0  0
 11 12  1  0  0  0  0
 11 13  1  0  0  0  0
 11 14  1  0  0  0  0
  9 10  1  0  0  0  0
  9 11  1  0  0  0  0
  9 22  1  0  0  0  0
  7  8  1  0  0  0  0
  7  9  1  0  0  0  0
 26 27  1  0  0  0  0
 26 28  1  0  0  0  0
 26 29  1  0  0  0  0
 24 25  1  0  0  0  0
 24 26  1  0  0  0  0
M  END
$$$$
default_name
  -OEChem-01062215323D

 29 28  0     1  0  0  0  0  0999 V2000
   -3.5781   -3.7296    1.2702 H   0  0  0  0  0  0  0  0  0  0  0  0
   -3.5311   -2.7616    0.7732 C   0  0  0  0  0  0  0  0  0  0  0  0
   -4.2371   -2.0766    1.2382 H   0  0  0  0  0  0  0  0  0  0  0  0
   -3.7681   -2.8816   -0.2818 H   0  0  0  0  0  0  0  0  0  0  0  0
   -2.1321   -2.2086    0.9112 C   0  0  0  0  0  0  0  0  0  0  0  0
   -1.2751   -2.8426    1.5112 O   0  0  0  0  0  0  0  0  0  0  0  0
   -1.9041   -1.0186    0.3602 N   0  0  0  0  0  0  0  0  0  0  0  0
   -2.6671   -0.5416   -0.0988 H   0  0  0  0  0  0  0  0  0  0  0  0
   -0.6131   -0.3236    0.3832 C   0  0  1  0  0  0  0  0  0  0  0  0
   -0.0315   -0.6409   -0.4838 H   0  0  0  0  0  0  0  0  0  0  0  0
   -0.8553    1.1930    0.2727 C   0  0  0  0  0  0  0  0  0  0  0  0
   -1.5446    1.4970    1.0633 H   0  0  0  0  0  0  0  0  0  0  0  0
    0.0883    1.7199    0.4219 H   0  0  0  0  0  0  0  0  0  0  0  0
   -1.4481    1.6219   -1.0745 C   0  0  0  0  0  0  0  0  0  0  0  0
   -2.4042    1.1200   -1.2203 H   0  0  0  0  0  0  0  0  0  0  0  0
   -1.6168    2.6992   -1.0559 H   0  0  0  0  0  0  0  0  0  0  0  0
   -0.3881    1.2336   -2.4906 S   0  0  0  0  0  0  0  0  0  0  0  0
    0.9675    2.3974   -2.1910 C   0  0  0  0  0  0  0  0  0  0  0  0
    1.4289    2.1840   -1.2263 H   0  0  0  0  0  0  0  0  0  0  0  0
    1.7150    2.2918   -2.9777 H   0  0  0  0  0  0  0  0  0  0  0  0
    0.5838    3.4180   -2.1955 H   0  0  0  0  0  0  0  0  0  0  0  0
    0.1737   -0.6939    1.6485 C   0  0  0  0  0  0  0  0  0  0  0  0
    0.7425    0.1806    2.2988 O   0  0  0  0  0  0  0  0  0  0  0  0
    0.2140   -1.9876    1.9922 N   0  0  0  0  0  0  0  0  0  0  0  0
   -0.2894   -2.6455    1.4187 H   0  0  0  0  0  0  0  0  0  0  0  0
    0.9320   -2.5005    3.1580 C   0  0  0  0  0  0  0  0  0  0  0  0
    0.5593   -2.0143    4.0626 H   0  0  0  0  0  0  0  0  0  0  0  0
    0.7926   -3.5788    3.2463 H   0  0  0  0  0  0  0  0  0  0  0  0
    1.9966   -2.2802    3.0610 H   0  0  0  0  0  0  0  0  0  0  0  0
  5  6  2  0  0  0  0
  5  7  1  0  0  0  0
  2  3  1  0  0  0  0
  2  4  1  0  0  0  0
  2  5  1  0  0  0  0
  1  2  1  0  0  0  0
 22 23  2  0  0  0  0
 22 24  1  0  0  0  0
 18 19  1  0  0  0  0
 18 20  1  0  0  0  0
 18 21  1  0  0  0  0
 17 18  1  0  0  0  0
 14 15  1  0  0  0  0
 14 16  1  0  0  0  0
 14 17  1  0  0  0  0
 11 12  1  0  0  0  0
 11 13  1  0  0  0  0
 11 14  1  0  0  0  0
  9 10  1  0  0  0  0
  9 11  1  0  0  0  0
  9 22  1  0  0  0  0
  7  8  1  0  0  0  0
  7  9  1  0  0  0  0
 26 27  1  0  0  0  0
 26 28  1  0  0  0  0
 26 29  1  0  0  0  0
 24 25  1  0  0  0  0
 24 26  1  0  0  0  0
M  END
$$$$
default_name
  -OEChem-01062215323D

 29 28  0     1  0  0  0  0  0999 V2000
   -3.5781   -3.7296    1.2702 H   0  0  0  0  0  0  0  0  0  0  0  0
   -3.5311   -2.7616    0.7732 C   0  0  0  0  0  0  0  0  0  0  0  0
   -4.2371   -2.0766    1.2382 H   0  0  0  0  0  0  0  0  0  0  0  0
   -3.7681   -2.8816   -0.2818 H   0  0  0  0  0  0  0  0  0  0  0  0
   -2.1321   -2.2086    0.9112 C   0  0  0  0  0  0  0  0  0  0  0  0
   -1.2751   -2.8426    1.5112 O   0  0  0  0  0  0  0  0  0  0  0  0
   -1.9041   -1.0186    0.3602 N   0  0  0  0  0  0  0  0  0  0  0  0
   -2.6671   -0.5416   -0.0988 H   0  0  0  0  0  0  0  0  0  0  0  0
   -0.6131   -0.3236    0.3832 C   0  0  1  0  0  0  0  0  0  0  0  0
   -0.0315   -0.6409   -0.4838 H   0  0  0  0  0  0  0  0  0  0  0  0
   -0.8553    1.1930    0.2727 C   0  0  0  0  0  0  0  0  0  0  0  0
   -1.5446    1.4970    1.0633 H   0  0  0  0  0  0  0  0  0  0  0  0
    0.0883    1.7199    0.4219 H   0  0  0  0  0  0  0  0  0  0  0  0
   -1.4481    1.6219   -1.0745 C   0  0  0  0  0  0  0  0  0  0  0  0
   -2.4042    1.1200   -1.2203 H   0  0  0  0  0  0  0  0  0  0  0  0
   -1.6168    2.6992   -1.0559 H   0  0  0  0  0  0  0  0  0  0  0  0
   -0.3881    1.2336   -2.4906 S   0  0  0  0  0  0  0  0  0  0  0  0
    0.9675    2.3974   -2.1910 C   0  0  0  0  0  0  0  0  0  0  0  0
    1.4289    2.1840   -1.2263 H   0  0  0  0  0  0  0  0  0  0  0  0
    1.7150    2.2918   -2.9777 H   0  0  0  0  0  0  0  0  0  0  0  0
    0.5838    3.4180   -2.1955 H   0  0  0  0  0  0  0  0  0  0  0  0
    0.1737   -0.6939    1.6485 C   0  0  0  0  0  0  0  0  0  0  0  0
    0.5068    0.1808    2.4455 O   0  0  0  0  0  0  0  0  0  0  0  0
    0.4778   -1.9856    1.8287 N   0  0  0  0  0  0  0  0  0  0  0  0
    0.1578   -2.6477    1.1400 H   0  0  0  0  0  0  0  0  0  0  0  0
    1.2334   -2.4944    2.9724 C   0  0  0  0  0  0  0  0  0  0  0  0
    0.7208   -2.2278    3.8996 H   0  0  0  0  0  0  0  0  0  0  0  0
    1.3278   -3.5795    2.9133 H   0  0  0  0  0  0  0  0  0  0  0  0
    2.2280   -2.0450    2.9860 H   0  0  0  0  0  0  0  0  0  0  0  0
  5  6  2  0  0  0  0
  5  7  1  0  0  0  0
  2  3  1  0  0  0  0
  2  4  1  0  0  0  0
  2  5  1  0  0  0  0
  1  2  1  0  0  0  0
 22 23  2  0  0  0  0
 22 24  1  0  0  0  0
 18 19  1  0  0  0  0
 18 20  1  0  0  0  0
 18 21  1  0  0  0  0
 17 18  1  0  0  0  0
 14 15  1  0  0  0  0
 14 16  1  0  0  0  0
 14 17  1  0  0  0  0
 11 12  1  0  0  0  0
 11 13  1  0  0  0  0
 11 14  1  0  0  0  0
  9 10  1  0  0  0  0
  9 11  1  0  0  0  0
  9 22  1  0  0  0  0
  7  8  1  0  0  0  0
  7  9  1  0  0  0  0
 26 27  1  0  0  0  0
 26 28  1  0  0  0  0
 26 29  1  0  0  0  0
 24 25  1  0  0  0  0
 24 26  1  0  0  0  0
M  END
$$$$
default_name
  -OEChem-01062215323D

 29 28  0     1  0  0  0  0  0999 V2000
   -3.5781   -3.7296    1.2702 H   0  0  0  0  0  0  0  0  0  0  0  0
   -3.5311   -2.7616    0.7732 C   0  0  0  0  0  0  0  0  0  0  0  0
   -4.2371   -2.0766    1.2382 H   0  0  0  0  0  0  0  0  0  0  0  0
   -3.7681   -2.8816   -0.2818 H   0  0  0  0  0  0  0  0  0  0  0  0
   -2.1321   -2.2086    0.9112 C   0  0  0  0  0  0  0  0  0  0  0  0
   -1.2751   -2.8426    1.5112 O   0  0  0  0  0  0  0  0  0  0  0  0
   -1.9041   -1.0186    0.3602 N   0  0  0  0  0  0  0  0  0  0  0  0
   -2.6671   -0.5416   -0.0988 H   0  0  0  0  0  0  0  0  0  0  0  0
   -0.6131   -0.3236    0.3832 C   0  0  1  0  0  0  0  0  0  0  0  0
   -0.0315   -0.6409   -0.4838 H   0  0  0  0  0  0  0  0  0  0  0  0
   -0.8553    1.1930    0.2727 C   0  0  0  0  0  0  0  0  0  0  0  0
   -1.5446    1.4970    1.0633 H   0  0  0  0  0  0  0  0  0  0  0  0
    0.0883    1.7199    0.4219 H   0  0  0  0  0  0  0  0  0  0  0  0
   -1.4481    1.6219   -1.0745 C   0  0  0  0  0  0  0  0  0  0  0  0
   -2.4042    1.1200   -1.2203 H   0  0  0  0  0  0  0  0  0  0  0  0
   -1.6168    2.6992   -1.0559 H   0  0  0  0  0  0  0  0  0  0  0  0
   -0.3881    1.2336   -2.4906 S   0  0  0  0  0  0  0  0  0  0  0  0
    0.9675    2.3974   -2.1910 C   0  0  0  0  0  0  0  0  0  0  0  0
    1.4289    2.1840   -1.2263 H   0  0  0  0  0  0  0  0  0  0  0  0
    1.7150    2.2918   -2.9777 H   0  0  0  0  0  0  0  0  0  0  0  0
    0.5838    3.4180   -2.1955 H   0  0  0  0  0  0  0  0  0  0  0  0
    0.1737   -0.6939    1.6485 C   0  0  0  0  0  0  0  0  0  0  0  0
    0.2698    0.1113    2.5725 O   0  0  0  0  0  0  0  0  0  0  0  0
    0.7425   -1.9057    1.6875 N   0  0  0  0  0  0  0  0  0  0  0  0
    0.6076   -2.5175    0.8984 H   0  0  0  0  0  0  0  0  0  0  0  0
    1.5348   -2.3996    2.8127 C   0  0  0  0  0  0  0  0  0  0  0  0
    0.9326   -2.3780    3.7240 H   0  0  0  0  0  0  0  0  0  0  0  0
    1.8657   -3.4219    2.6250 H   0  0  0  0  0  0  0  0  0  0  0  0
    2.4060   -1.7586    2.9591 H   0  0  0  0  0  0  0  0  0  0  0  0
  5  6  2  0  0  0  0
  5  7  1  0  0  0  0
  2  3  1  0  0  0  0
  2  4  1  0  0  0  0
  2  5  1  0  0  0  0
  1  2  1  0  0  0  0
 22 23  2  0  0  0  0
 22 24  1  0  0  0  0
 18 19  1  0  0  0  0
 18 20  1  0  0  0  0
 18 21  1  0  0  0  0
 17 18  1  0  0  0  0
 14 15  1  0  0  0  0
 14 16  1  0  0  0  0
 14 17  1  0  0  0  0
 11 12  1  0  0  0  0
 11 13  1  0  0  0  0
 11 14  1  0  0  0  0
  9 10  1  0  0  0  0
  9 11  1  0  0  0  0
  9 22  1  0  0  0  0
  7  8  1  0  0  0  0
  7  9  1  0  0  0  0
 26 27  1  0  0  0  0
 26 28  1  0  0  0  0
 26 29  1  0  0  0  0
 24 25  1  0  0  0  0
 24 26  1  0  0  0  0
M  END
$$$$
default_name
  -OEChem-01062215323D

 29 28  0     1  0  0  0  0  0999 V2000
   -3.5781   -3.7296    1.2702 H   0  0  0  0  0  0  0  0  0  0  0  0
   -3.5311   -2.7616    0.7732 C   0  0  0  0  0  0  0  0  0  0  0  0
   -4.2371   -2.0766    1.2382 H   0  0  0  0  0  0  0  0  0  0  0  0
   -3.7681   -2.8816   -0.2818 H   0  0  0  0  0  0  0  0  0  0  0  0
   -2.1321   -2.2086    0.9112 C   0  0  0  0  0  0  0  0  0  0  0  0
   -1.2751   -2.8426    1.5112 O   0  0  0  0  0  0  0  0  0  0  0  0
   -1.9041   -1.0186    0.3602 N   0  0  0  0  0  0  0  0  0  0  0  0
   -2.6671   -0.5416   -0.0988 H   0  0  0  0  0  0  0  0  0  0  0  0
   -0.6131   -0.3236    0.3832 C   0  0  1  0  0  0  0  0  0  0  0  0
   -0.0315   -0.6409   -0.4838 H   0  0  0  0  0  0  0  0  0  0  0  0
   -0.8553    1.1930    0.2727 C   0  0  0  0  0  0  0  0  0  0  0  0
   -1.5446    1.4970    1.0633 H   0  0  0  0  0  0  0  0  0  0  0  0
    0.0883    1.7199    0.4219 H   0  0  0  0  0  0  0  0  0  0  0  0
   -1.4481    1.6219   -1.0745 C   0  0  0  0  0  0  0  0  0  0  0  0
   -2.4042    1.1200   -1.2203 H   0  0  0  0  0  0  0  0  0  0  0  0
   -1.6168    2.6992   -1.0559 H   0  0  0  0  0  0  0  0  0  0  0  0
   -0.3881    1.2336   -2.4906 S   0  0  0  0  0  0  0  0  0  0  0  0
    0.9675    2.3974   -2.1910 C   0  0  0  0  0  0  0  0  0  0  0  0
    1.4289    2.1840   -1.2263 H   0  0  0  0  0  0  0  0  0  0  0  0
    1.7150    2.2918   -2.9777 H   0  0  0  0  0  0  0  0  0  0  0  0
    0.5838    3.4180   -2.1955 H   0  0  0  0  0  0  0  0  0  0  0  0
    0.1737   -0.6939    1.6485 C   0  0  0  0  0  0  0  0  0  0  0  0
    0.0479   -0.0232    2.6711 O   0  0  0  0  0  0  0  0  0  0  0  0
    0.9899   -1.7533    1.5783 N   0  0  0  0  0  0  0  0  0  0  0  0
    1.0294   -2.2636    0.7105 H   0  0  0  0  0  0  0  0  0  0  0  0
    1.8157   -2.2225    2.6898 C   0  0  0  0  0  0  0  0  0  0  0  0
    1.1802   -2.4546    3.5477 H   0  0  0  0  0  0  0  0  0  0  0  0
    2.3697   -3.1167    2.4009 H   0  0  0  0  0  0  0  0  0  0  0  0
    2.5185   -1.4404    2.9823 H   0  0  0  0  0  0  0  0  0  0  0  0
  5  6  2  0  0  0  0
  5  7  1  0  0  0  0
  2  3  1  0  0  0  0
  2  4  1  0  0  0  0
  2  5  1  0  0  0  0
  1  2  1  0  0  0  0
 22 23  2  0  0  0  0
 22 24  1  0  0  0  0
 18 19  1  0  0  0  0
 18 20  1  0  0  0  0
 18 21  1  0  0  0  0
 17 18  1  0  0  0  0
 14 15  1  0  0  0  0
 14 16  1  0  0  0  0
 14 17  1  0  0  0  0
 11 12  1  0  0  0  0
 11 13  1  0  0  0  0
 11 14  1  0  0  0  0
  9 10  1  0  0  0  0
  9 11  1  0  0  0  0
  9 22  1  0  0  0  0
  7  8  1  0  0  0  0
  7  9  1  0  0  0  0
 26 27  1  0  0  0  0
 26 28  1  0  0  0  0
 26 29  1  0  0  0  0
 24 25  1  0  0  0  0
 24 26  1  0  0  0  0
M  END
$$$$
default_name
  -OEChem-01062215323D

 29 28  0     1  0  0  0  0  0999 V2000
   -3.5781   -3.7296    1.2702 H   0  0  0  0  0  0  0  0  0  0  0  0
   -3.5311   -2.7616    0.7732 C   0  0  0  0  0  0  0  0  0  0  0  0
   -4.2371   -2.0766    1.2382 H   0  0  0  0  0  0  0  0  0  0  0  0
   -3.7681   -2.8816   -0.2818 H   0  0  0  0  0  0  0  0  0  0  0  0
   -2.1321   -2.2086    0.9112 C   0  0  0  0  0  0  0  0  0  0  0  0
   -1.2751   -2.8426    1.5112 O   0  0  0  0  0  0  0  0  0  0  0  0
   -1.9041   -1.0186    0.3602 N   0  0  0  0  0  0  0  0  0  0  0  0
   -2.6671   -0.5416   -0.0988 H   0  0  0  0  0  0  0  0  0  0  0  0
   -0.6131   -0.3236    0.3832 C   0  0  1  0  0  0  0  0  0  0  0  0
   -0.0315   -0.6409   -0.4838 H   0  0  0  0  0  0  0  0  0  0  0  0
   -0.8553    1.1930    0.2727 C   0  0  0  0  0  0  0  0  0  0  0  0
   -1.5446    1.4970    1.0633 H   0  0  0  0  0  0  0  0  0  0  0  0
    0.0883    1.7199    0.4219 H   0  0  0  0  0  0  0  0  0  0  0  0
   -1.4481    1.6219   -1.0745 C   0  0  0  0  0  0  0  0  0  0  0  0
   -2.4042    1.1200   -1.2203 H   0  0  0  0  0  0  0  0  0  0  0  0
   -1.6168    2.6992   -1.0559 H   0  0  0  0  0  0  0  0  0  0  0  0
   -0.3881    1.2336   -2.4906 S   0  0  0  0  0  0  0  0  0  0  0  0
    0.9675    2.3974   -2.1910 C   0  0  0  0  0  0  0  0  0  0  0  0
    1.4289    2.1840   -1.2263 H   0  0  0  0  0  0  0  0  0  0  0  0
    1.7150    2.2918   -2.9777 H   0  0  0  0  0  0  0  0  0  0  0  0
    0.5838    3.4180   -2.1955 H   0  0  0  0  0  0  0  0  0  0  0  0
    0.1737   -0.6939    1.6485 C   0  0  0  0  0  0  0  0  0  0  0  0
   -0.1440   -0.2136    2.7347 O   0  0  0  0  0  0  0  0  0  0  0  0
    1.2032   -1.5388    1.5084 N   0  0  0  0  0  0  0  0  0  0  0  0
    1.3944   -1.9036    0.5889 H   0  0  0  0  0  0  0  0  0  0  0  0
    2.0569   -1.9753    2.6122 C   0  0  0  0  0  0  0  0  0  0  0  0
    1.4466   -2.4524    3.3826 H   0  0  0  0  0  0  0  0  0  0  0  0
    2.8053   -2.6846    2.2565 H   0  0  0  0  0  0  0  0  0  0  0  0
    2.5579   -1.1121    3.0539 H   0  0  0  0  0  0  0  0  0  0  0  0
  5  6  2  0  0  0  0
  5  7  1  0  0  0  0
  2  3  1  0  0  0  0
  2  4  1  0  0  0  0
  2  5  1  0  0  0  0
  1  2  1  0  0  0  0
 22 23  2  0  0  0  0
 22 24  1  0  0  0  0
 18 19  1  0  0  0  0
 18 20  1  0  0  0  0
 18 21  1  0  0  0  0
 17 18  1  0  0  0  0
 14 15  1  0  0  0  0
 14 16  1  0  0  0  0
 14 17  1  0  0  0  0
 11 12  1  0  0  0  0
 11 13  1  0  0  0  0
 11 14  1  0  0  0  0
  9 10  1  0  0  0  0
  9 11  1  0  0  0  0
  9 22  1  0  0  0  0
  7  8  1  0  0  0  0
  7  9  1  0  0  0  0
 26 27  1  0  0  0  0
 26 28  1  0  0  0  0
 26 29  1  0  0  0  0
 24 25  1  0  0  0  0
 24 26  1  0  0  0  0
M  END
$$$$
default_name
  -OEChem-01062215323D

 29 28  0     1  0  0  0  0  0999 V2000
   -3.5781   -3.7296    1.2702 H   0  0  0  0  0  0  0  0  0  0  0  0
   -3.5311   -2.7616    0.7732 C   0  0  0  0  0  0  0  0  0  0  0  0
   -4.2371   -2.0766    1.2382 H   0  0  0  0  0  0  0  0  0  0  0  0
   -3.7681   -2.8816   -0.2818 H   0  0  0  0  0  0  0  0  0  0  0  0
   -2.1321   -2.2086    0.9112 C   0  0  0  0  0  0  0  0  0  0  0  0
   -1.2751   -2.8426    1.5112 O   0  0  0  0  0  0  0  0  0  0  0  0
   -1.9041   -1.0186    0.3602 N   0  0  0  0  0  0  0  0  0  0  0  0
   -2.6671   -0.5416   -0.0988 H   0  0  0  0  0  0  0  0  0  0  0  0
   -0.6131   -0.3236    0.3832 C   0  0  1  0  0  0  0  0  0  0  0  0
   -0.0315   -0.6409   -0.4838 H   0  0  0  0  0  0  0  0  0  0  0  0
   -0.8553    1.1930    0.2727 C   0  0  0  0  0  0  0  0  0  0  0  0
   -1.5446    1.4970    1.0633 H   0  0  0  0  0  0  0  0  0  0  0  0
    0.0883    1.7199    0.4219 H   0  0  0  0  0  0  0  0  0  0  0  0
   -1.4481    1.6219   -1.0745 C   0  0  0  0  0  0  0  0  0  0  0  0
   -2.4042    1.1200   -1.2203 H   0  0  0  0  0  0  0  0  0  0  0  0
   -1.6168    2.6992   -1.0559 H   0  0  0  0  0  0  0  0  0  0  0  0
   -0.3881    1.2336   -2.4906 S   0  0  0  0  0  0  0  0  0  0  0  0
    0.9675    2.3974   -2.1910 C   0  0  0  0  0  0  0  0  0  0  0  0
    1.4289    2.1840   -1.2263 H   0  0  0  0  0  0  0  0  0  0  0  0
    1.7150    2.2918   -2.9777 H   0  0  0  0  0  0  0  0  0  0  0  0
    0.5838    3.4180   -2.1955 H   0  0  0  0  0  0  0  0  0  0  0  0
    0.1737   -0.6939    1.6485 C   0  0  0  0  0  0  0  0  0  0  0  0
   -0.2926   -0.4469    2.7588 O   0  0  0  0  0  0  0  0  0  0  0  0
    1.3679   -1.2769    1.4827 N   0  0  0  0  0  0  0  0  0  0  0  0
    1.6777   -1.4618    0.5420 H   0  0  0  0  0  0  0  0  0  0  0  0
    2.2421   -1.6748    2.5851 C   0  0  0  0  0  0  0  0  0  0  0  0
    1.7138   -2.3716    3.2401 H   0  0  0  0  0  0  0  0  0  0  0  0
    3.1430   -2.1552    2.2014 H   0  0  0  0  0  0  0  0  0  0  0  0
    2.5215   -0.7960    3.1691 H   0  0  0  0  0  0  0  0  0  0  0  0
  5  6  2  0  0  0  0
  5  7  1  0  0  0  0
  2  3  1  0  0  0  0
  2  4  1  0  0  0  0
  2  5  1  0  0  0  0
  1  2  1  0  0  0  0
 22 23  2  0  0  0  0
 22 24  1  0  0  0  0
 18 19  1  0  0  0  0
 18 20  1  0  0  0  0
 18 21  1  0  0  0  0
 17 18  1  0  0  0  0
 14 15  1  0  0  0  0
 14 16  1  0  0  0  0
 14 17  1  0  0  0  0
 11 12  1  0  0  0  0
 11 13  1  0  0  0  0
 11 14  1  0  0  0  0
  9 10  1  0  0  0  0
  9 11  1  0  0  0  0
  9 22  1  0  0  0  0
  7  8  1  0  0  0  0
  7  9  1  0  0  0  0
 26 27  1  0  0  0  0
 26 28  1  0  0  0  0
 26 29  1  0  0  0  0
 24 25  1  0  0  0  0
 24 26  1  0  0  0  0
M  END
$$$$
default_name
  -OEChem-01062215323D

 29 28  0     1  0  0  0  0  0999 V2000
   -3.5781   -3.7296    1.2702 H   0  0  0  0  0  0  0  0  0  0  0  0
   -3.5311   -2.7616    0.7732 C   0  0  0  0  0  0  0  0  0  0  0  0
   -4.2371   -2.0766    1.2382 H   0  0  0  0  0  0  0  0  0  0  0  0
   -3.7681   -2.8816   -0.2818 H   0  0  0  0  0  0  0  0  0  0  0  0
   -2.1321   -2.2086    0.9112 C   0  0  0  0  0  0  0  0  0  0  0  0
   -1.2751   -2.8426    1.5112 O   0  0  0  0  0  0  0  0  0  0  0  0
   -1.9041   -1.0186    0.3602 N   0  0  0  0  0  0  0  0  0  0  0  0
   -2.6671   -0.5416   -0.0988 H   0  0  0  0  0  0  0  0  0  0  0  0
   -0.6131   -0.3236    0.3832 C   0  0  1  0  0  0  0  0  0  0  0  0
   -0.0315   -0.6409   -0.4838 H   0  0  0  0  0  0  0  0  0  0  0  0
   -0.8553    1.1930    0.2727 C   0  0  0  0  0  0  0  0  0  0  0  0
   -1.5446    1.4970    1.0633 H   0  0  0  0  0  0  0  0  0  0  0  0
    0.0883    1.7199    0.4219 H   0  0  0  0  0  0  0  0  0  0  0  0
   -1.4481    1.6219   -1.0745 C   0  0  0  0  0  0  0  0  0  0  0  0
   -2.4042    1.1200   -1.2203 H   0  0  0  0  0  0  0  0  0  0  0  0
   -1.6168    2.6992   -1.0559 H   0  0  0  0  0  0  0  0  0  0  0  0
   -0.3881    1.2336   -2.4906 S   0  0  0  0  0  0  0  0  0  0  0  0
    0.9675    2.3974   -2.1910 C   0  0  0  0  0  0  0  0  0  0  0  0
    1.4289    2.1840   -1.2263 H   0  0  0  0  0  0  0  0  0  0  0  0
    1.7150    2.2918   -2.9777 H   0  0  0  0  0  0  0  0  0  0  0  0
    0.5838    3.4180   -2.1955 H   0  0  0  0  0  0  0  0  0  0  0  0
    0.1737   -0.6939    1.6485 C   0  0  0  0  0  0  0  0  0  0  0  0
   -0.3880   -0.7071    2.7420 O   0  0  0  0  0  0  0  0  0  0  0  0
    1.4726   -0.9854    1.5029 N   0  0  0  0  0  0  0  0  0  0  0  0
    1.8601   -0.9684    0.5730 H   0  0  0  0  0  0  0  0  0  0  0  0
    2.3584   -1.3414    2.6103 C   0  0  0  0  0  0  0  0  0  0  0  0
    1.9636   -2.2176    3.1299 H   0  0  0  0  0  0  0  0  0  0  0  0
    3.3597   -1.5646    2.2396 H   0  0  0  0  0  0  0  0  0  0  0  0
    2.4116   -0.5138    3.3199 H   0  0  0  0  0  0  0  0  0  0  0  0
  5  6  2  0  0  0  0
  5  7  1  0  0  0  0
  2  3  1  0  0  0  0
  2  4  1  0  0  0  0
  2  5  1  0  0  0  0
  1  2  1  0  0  0  0
 22 23  2  0  0  0  0
 22 24  1  0  0  0  0
 18 19  1  0  0  0  0
 18 20  1  0  0  0  0
 18 21  1  0  0  0  0
 17 18  1  0  0  0  0
 14 15  1  0  0  0  0
 14 16  1  0  0  0  0
 14 17  1  0  0  0  0
 11 12  1  0  0  0  0
 11 13  1  0  0  0  0
 11 14  1  0  0  0  0
  9 10  1  0  0  0  0
  9 11  1  0  0  0  0
  9 22  1  0  0  0  0
  7  8  1  0  0  0  0
  7  9  1  0  0  0  0
 26 27  1  0  0  0  0
 26 28  1  0  0  0  0
 26 29  1  0  0  0  0
 24 25  1  0  0  0  0
 24 26  1  0  0  0  0
M  END
$$$$
default_name
  -OEChem-01062215323D

 29 28  0     1  0  0  0  0  0999 V2000
   -3.5781   -3.7296    1.2702 H   0  0  0  0  0  0  0  0  0  0  0  0
   -3.5311   -2.7616    0.7732 C   0  0  0  0  0  0  0  0  0  0  0  0
   -4.2371   -2.0766    1.2382 H   0  0  0  0  0  0  0  0  0  0  0  0
   -3.7681   -2.8816   -0.2818 H   0  0  0  0  0  0  0  0  0  0  0  0
   -2.1321   -2.2086    0.9112 C   0  0  0  0  0  0  0  0  0  0  0  0
   -1.2751   -2.8426    1.5112 O   0  0  0  0  0  0  0  0  0  0  0  0
   -1.9041   -1.0186    0.3602 N   0  0  0  0  0  0  0  0  0  0  0  0
   -2.6671   -0.5416   -0.0988 H   0  0  0  0  0  0  0  0  0  0  0  0
   -0.6131   -0.3236    0.3832 C   0  0  1  0  0  0  0  0  0  0  0  0
   -0.0315   -0.6409   -0.4838 H   0  0  0  0  0  0  0  0  0  0  0  0
   -0.8553    1.1930    0.2727 C   0  0  0  0  0  0  0  0  0  0  0  0
   -1.5446    1.4970    1.0633 H   0  0  0  0  0  0  0  0  0  0  0  0
    0.0883    1.7199    0.4219 H   0  0  0  0  0  0  0  0  0  0  0  0
   -1.4481    1.6219   -1.0745 C   0  0  0  0  0  0  0  0  0  0  0  0
   -2.4042    1.1200   -1.2203 H   0  0  0  0  0  0  0  0  0  0  0  0
   -1.6168    2.6992   -1.0559 H   0  0  0  0  0  0  0  0  0  0  0  0
   -0.3881    1.2336   -2.4906 S   0  0  0  0  0  0  0  0  0  0  0  0
    0.9675    2.3974   -2.1910 C   0  0  0  0  0  0  0  0  0  0  0  0
    1.4289    2.1840   -1.2263 H   0  0  0  0  0  0  0  0  0  0  0  0
    1.7150    2.2918   -2.9777 H   0  0  0  0  0  0  0  0  0  0  0  0
    0.5838    3.4180   -2.1955 H   0  0  0  0  0  0  0  0  0  0  0  0
    0.1737   -0.6939    1.6485 C   0  0  0  0  0  0  0  0  0  0  0  0
   -0.4235   -0.9765    2.6852 O   0  0  0  0  0  0  0  0  0  0  0  0
    1.5104   -0.6841    1.5676 N   0  0  0  0  0  0  0  0  0  0  0  0
    1.9291   -0.4571    0.6797 H   0  0  0  0  0  0  0  0  0  0  0  0
    2.3982   -0.9978    2.6861 C   0  0  0  0  0  0  0  0  0  0  0  0
    2.1789   -2.0009    3.0594 H   0  0  0  0  0  0  0  0  0  0  0  0
    3.4407   -0.9528    2.3683 H   0  0  0  0  0  0  0  0  0  0  0  0
    2.2359   -0.2847    3.4963 H   0  0  0  0  0  0  0  0  0  0  0  0
  5  6  2  0  0  0  0
  5  7  1  0  0  0  0
  2  3  1  0  0  0  0
  2  4  1  0  0  0  0
  2  5  1  0  0  0  0
  1  2  1  0  0  0  0
 22 23  2  0  0  0  0
 22 24  1  0  0  0  0
 18 19  1  0  0  0  0
 18 20  1  0  0  0  0
 18 21  1  0  0  0  0
 17 18  1  0  0  0  0
 14 15  1  0  0  0  0
 14 16  1  0  0  0  0
 14 17  1  0  0  0  0
 11 12  1  0  0  0  0
 11 13  1  0  0  0  0
 11 14  1  0  0  0  0
  9 10  1  0  0  0  0
  9 11  1  0  0  0  0
  9 22  1  0  0  0  0
  7  8  1  0  0  0  0
  7  9  1  0  0  0  0
 26 27  1  0  0  0  0
 26 28  1  0  0  0  0
 26 29  1  0  0  0  0
 24 25  1  0  0  0  0
 24 26  1  0  0  0  0
M  END
$$$$
default_name
  -OEChem-01062215323D

 29 28  0     1  0  0  0  0  0999 V2000
   -3.5781   -3.7296    1.2702 H   0  0  0  0  0  0  0  0  0  0  0  0
   -3.5311   -2.7616    0.7732 C   0  0  0  0  0  0  0  0  0  0  0  0
   -4.2371   -2.0766    1.2382 H   0  0  0  0  0  0  0  0  0  0  0  0
   -3.7681   -2.8816   -0.2818 H   0  0  0  0  0  0  0  0  0  0  0  0
   -2.1321   -2.2086    0.9112 C   0  0  0  0  0  0  0  0  0  0  0  0
   -1.2751   -2.8426    1.5112 O   0  0  0  0  0  0  0  0  0  0  0  0
   -1.9041   -1.0186    0.3602 N   0  0  0  0  0  0  0  0  0  0  0  0
   -2.6671   -0.5416   -0.0988 H   0  0  0  0  0  0  0  0  0  0  0  0
   -0.6131   -0.3236    0.3832 C   0  0  1  0  0  0  0  0  0  0  0  0
   -0.0315   -0.6409   -0.4838 H   0  0  0  0  0  0  0  0  0  0  0  0
   -0.8553    1.1930    0.2727 C   0  0  0  0  0  0  0  0  0  0  0  0
   -1.5446    1.4970    1.0633 H   0  0  0  0  0  0  0  0  0  0  0  0
    0.0883    1.7199    0.4219 H   0  0  0  0  0  0  0  0  0  0  0  0
   -1.4481    1.6219   -1.0745 C   0  0  0  0  0  0  0  0  0  0  0  0
   -2.4042    1.1200   -1.2203 H   0  0  0  0  0  0  0  0  0  0  0  0
   -1.6168    2.6992   -1.0559 H   0  0  0  0  0  0  0  0  0  0  0  0
   -0.3881    1.2336   -2.4906 S   0  0  0  0  0  0  0  0  0  0  0  0
    0.9675    2.3974   -2.1910 C   0  0  0  0  0  0  0  0  0  0  0  0
    1.4289    2.1840   -1.2263 H   0  0  0  0  0  0  0  0  0  0  0  0
    1.7150    2.2918   -2.9777 H   0  0  0  0  0  0  0  0  0  0  0  0
    0.5838    3.4180   -2.1955 H   0  0  0  0  0  0  0  0  0  0  0  0
    0.1737   -0.6939    1.6485 C   0  0  0  0  0  0  0  0  0  0  0  0
   -0.3968   -1.2368    2.5924 O   0  0  0  0  0  0  0  0  0  0  0  0
    1.4786   -0.3936    1.6724 N   0  0  0  0  0  0  0  0  0  0  0  0
    1.8800    0.0374    0.8550 H   0  0  0  0  0  0  0  0  0  0  0  0
    2.3586   -0.6676    2.8074 C   0  0  0  0  0  0  0  0  0  0  0  0
    2.3450   -1.7364    3.0336 H   0  0  0  0  0  0  0  0  0  0  0  0
    3.3803   -0.3618    2.5788 H   0  0  0  0  0  0  0  0  0  0  0  0
    2.0063   -0.1242    3.6860 H   0  0  0  0  0  0  0  0  0  0  0  0
  5  6  2  0  0  0  0
  5  7  1  0  0  0  0
  2  3  1  0  0  0  0
  2  4  1  0  0  0  0
  2  5  1  0  0  0  0
  1  2  1  0  0  0  0
 22 23  2  0  0  0  0
 22 24  1  0  0  0  0
 18 19  1  0  0  0  0
 18 20  1  0  0  0  0
 18 21  1  0  0  0  0
 17 18  1  0  0  0  0
 14 15  1  0  0  0  0
 14 16  1  0  0  0  0
 14 17  1  0  0  0  0
 11 12  1  0  0  0  0
 11 13  1  0  0  0  0
 11 14  1  0  0  0  0
  9 10  1  0  0  0  0
  9 11  1  0  0  0  0
  9 22  1  0  0  0  0
  7  8  1  0  0  0  0
  7  9  1  0  0  0  0
 26 27  1  0  0  0  0
 26 28  1  0  0  0  0
 26 29  1  0  0  0  0
 24 25  1  0  0  0  0
 24 26  1  0  0  0  0
M  END
$$$$
default_name
  -OEChem-01062215323D

 29 28  0     1  0  0  0  0  0999 V2000
   -3.5781   -3.7296    1.2702 H   0  0  0  0  0  0  0  0  0  0  0  0
   -3.5311   -2.7616    0.7732 C   0  0  0  0  0  0  0  0  0  0  0  0
   -4.2371   -2.0766    1.2382 H   0  0  0  0  0  0  0  0  0  0  0  0
   -3.7681   -2.8816   -0.2818 H   0  0  0  0  0  0  0  0  0  0  0  0
   -2.1321   -2.2086    0.9112 C   0  0  0  0  0  0  0  0  0  0  0  0
   -1.2751   -2.8426    1.5112 O   0  0  0  0  0  0  0  0  0  0  0  0
   -1.9041   -1.0186    0.3602 N   0  0  0  0  0  0  0  0  0  0  0  0
   -2.6671   -0.5416   -0.0988 H   0  0  0  0  0  0  0  0  0  0  0  0
   -0.6131   -0.3236    0.3832 C   0  0  1  0  0  0  0  0  0  0  0  0
   -0.1460   -0.4246   -0.5977 H   0  0  0  0  0  0  0  0  0  0  0  0
   -0.8516    1.1737    0.6520 C   0  0  0  0  0  0  0  0  0  0  0  0
   -1.4352    1.2771    1.5693 H   0  0  0  0  0  0  0  0  0  0  0  0
    0.1084    1.6699    0.8010 H   0  0  0  0  0  0  0  0  0  0  0  0
   -1.6014    1.8870   -0.4790 C   0  0  0  0  0  0  0  0  0  0  0  0
   -2.5732    1.4141   -0.6174 H   0  0  0  0  0  0  0  0  0  0  0  0
   -1.7556    2.9285   -0.1947 H   0  0  0  0  0  0  0  0  0  0  0  0
   -0.7279    1.8507   -2.0650 S   0  0  0  0  0  0  0  0  0  0  0  0
    0.6661    2.9403   -1.6757 C   0  0  0  0  0  0  0  0  0  0  0  0
    1.2405    2.5214   -0.8490 H   0  0  0  0  0  0  0  0  0  0  0  0
    1.3099    3.0302   -2.5511 H   0  0  0  0  0  0  0  0  0  0  0  0
    0.2951    3.9280   -1.4004 H   0  0  0  0  0  0  0  0  0  0  0  0
    0.3197   -0.9577    1.4248 C   0  0  0  0  0  0  0  0  0  0  0  0
   -0.0668   -1.9094    2.1002 O   0  0  0  0  0  0  0  0  0  0  0  0
    1.5417   -0.4271    1.5614 N   0  0  0  0  0  0  0  0  0  0  0  0
    1.7932    0.3425    0.9618 H   0  0  0  0  0  0  0  0  0  0  0  0
    2.5379   -0.9075    2.5177 C   0  0  0  0  0  0  0  0  0  0  0  0
    2.7447   -1.9644    2.3335 H   0  0  0  0  0  0  0  0  0  0  0  0
    3.4633   -0.3382    2.4209 H   0  0  0  0  0  0  0  0  0  0  0  0
    2.1534   -0.8028    3.5338 H   0  0  0  0  0  0  0  0  0  0  0  0
  5  6  2  0  0  0  0
  5  7  1  0  0  0  0
  2  3  1  0  0  0  0
  2  4  1  0  0  0  0
  2  5  1  0  0  0  0
  1  2  1  0  0  0  0
 22 23  2  0  0  0  0
 22 24  1  0  0  0  0
 18 19  1  0  0  0  0
 18 20  1  0  0  0  0
 18 21  1  0  0  0  0
 17 18  1  0  0  0  0
 14 15  1  0  0  0  0
 14 16  1  0  0  0  0
 14 17  1  0  0  0  0
 11 12  1  0  0  0  0
 11 13  1  0  0  0  0
 11 14  1  0  0  0  0
  9 10  1  0  0  0  0
  9 11  1  0  0  0  0
  9 22  1  0  0  0  0
  7  8  1  0  0  0  0
  7  9  1  0  0  0  0
 26 27  1  0  0  0  0
 26 28  1  0  0  0  0
 26 29  1  0  0  0  0
 24 25  1  0  0  0  0
 24 26  1  0  0  0  0
M  END
$$$$
default_name
  -OEChem-01062215323D

 29 28  0     1  0  0  0  0  0999 V2000
   -3.5781   -3.7296    1.2702 H   0  0  0  0  0  0  0  0  0  0  0  0
   -3.5311   -2.7616    0.7732 C   0  0  0  0  0  0  0  0  0  0  0  0
   -4.2371   -2.0766    1.2382 H   0  0  0  0  0  0  0  0  0  0  0  0
   -3.7681   -2.8816   -0.2818 H   0  0  0  0  0  0  0  0  0  0  0  0
   -2.1321   -2.2086    0.9112 C   0  0  0  0  0  0  0  0  0  0  0  0
   -1.2751   -2.8426    1.5112 O   0  0  0  0  0  0  0  0  0  0  0  0
   -1.9041   -1.0186    0.3602 N   0  0  0  0  0  0  0  0  0  0  0  0
   -2.6671   -0.5416   -0.0988 H   0  0  0  0  0  0  0  0  0  0  0  0
   -0.6131   -0.3236    0.3832 C   0  0  1  0  0  0  0  0  0  0  0  0
   -0.1460   -0.4246   -0.5977 H   0  0  0  0  0  0  0  0  0  0  0  0
   -0.8516    1.1737    0.6520 C   0  0  0  0  0  0  0  0  0  0  0  0
   -1.4352    1.2771    1.5693 H   0  0  0  0  0  0  0  0  0  0  0  0
    0.1084    1.6699    0.8010 H   0  0  0  0  0  0  0  0  0  0  0  0
   -1.6014    1.8870   -0.4790 C   0  0  0  0  0  0  0  0  0  0  0  0
   -2.5732    1.4141   -0.6174 H   0  0  0  0  0  0  0  0  0  0  0  0
   -1.7556    2.9285   -0.1947 H   0  0  0  0  0  0  0  0  0  0  0  0
   -0.7279    1.8507   -2.0650 S   0  0  0  0  0  0  0  0  0  0  0  0
    0.6661    2.9403   -1.6757 C   0  0  0  0  0  0  0  0  0  0  0  0
    1.2405    2.5214   -0.8490 H   0  0  0  0  0  0  0  0  0  0  0  0
    1.3099    3.0302   -2.5511 H   0  0  0  0  0  0  0  0  0  0  0  0
    0.2951    3.9280   -1.4004 H   0  0  0  0  0  0  0  0  0  0  0  0
    0.3197   -0.9577    1.4248 C   0  0  0  0  0  0  0  0  0  0  0  0
    0.0541   -2.0597    1.9005 O   0  0  0  0  0  0  0  0  0  0  0  0
    1.4051   -0.2608    1.7850 N   0  0  0  0  0  0  0  0  0  0  0  0
    1.5650    0.6292    1.3406 H   0  0  0  0  0  0  0  0  0  0  0  0
    2.3795   -0.7207    2.7733 C   0  0  0  0  0  0  0  0  0  0  0  0
    2.7936   -1.6824    2.4614 H   0  0  0  0  0  0  0  0  0  0  0  0
    3.1892    0.0032    2.8743 H   0  0  0  0  0  0  0  0  0  0  0  0
    1.8896   -0.8526    3.7397 H   0  0  0  0  0  0  0  0  0  0  0  0
  5  6  2  0  0  0  0
  5  7  1  0  0  0  0
  2  3  1  0  0  0  0
  2  4  1  0  0  0  0
  2  5  1  0  0  0  0
  1  2  1  0  0  0  0
 22 23  2  0  0  0  0
 22 24  1  0  0  0  0
 18 19  1  0  0  0  0
 18 20  1  0  0  0  0
 18 21  1  0  0  0  0
 17 18  1  0  0  0  0
 14 15  1  0  0  0  0
 14 16  1  0  0  0  0
 14 17  1  0  0  0  0
 11 12  1  0  0  0  0
 11 13  1  0  0  0  0
 11 14  1  0  0  0  0
  9 10  1  0  0  0  0
  9 11  1  0  0  0  0
  9 22  1  0  0  0  0
  7  8  1  0  0  0  0
  7  9  1  0  0  0  0
 26 27  1  0  0  0  0
 26 28  1  0  0  0  0
 26 29  1  0  0  0  0
 24 25  1  0  0  0  0
 24 26  1  0  0  0  0
M  END
$$$$
default_name
  -OEChem-01062215323D

 29 28  0     1  0  0  0  0  0999 V2000
   -3.5781   -3.7296    1.2702 H   0  0  0  0  0  0  0  0  0  0  0  0
   -3.5311   -2.7616    0.7732 C   0  0  0  0  0  0  0  0  0  0  0  0
   -4.2371   -2.0766    1.2382 H   0  0  0  0  0  0  0  0  0  0  0  0
   -3.7681   -2.8816   -0.2818 H   0  0  0  0  0  0  0  0  0  0  0  0
   -2.1321   -2.2086    0.9112 C   0  0  0  0  0  0  0  0  0  0  0  0
   -1.2751   -2.8426    1.5112 O   0  0  0  0  0  0  0  0  0  0  0  0
   -1.9041   -1.0186    0.3602 N   0  0  0  0  0  0  0  0  0  0  0  0
   -2.6671   -0.5416   -0.0988 H   0  0  0  0  0  0  0  0  0  0  0  0
   -0.6131   -0.3236    0.3832 C   0  0  1  0  0  0  0  0  0  0  0  0
   -0.1460   -0.4246   -0.5977 H   0  0  0  0  0  0  0  0  0  0  0  0
   -0.8516    1.1737    0.6520 C   0  0  0  0  0  0  0  0  0  0  0  0
   -1.4352    1.2771    1.5693 H   0  0  0  0  0  0  0  0  0  0  0  0
    0.1084    1.6699    0.8010 H   0  0  0  0  0  0  0  0  0  0  0  0
   -1.6014    1.8870   -0.4790 C   0  0  0  0  0  0  0  0  0  0  0  0
   -2.5732    1.4141   -0.6174 H   0  0  0  0  0  0  0  0  0  0  0  0
   -1.7556    2.9285   -0.1947 H   0  0  0  0  0  0  0  0  0  0  0  0
   -0.7279    1.8507   -2.0650 S   0  0  0  0  0  0  0  0  0  0  0  0
    0.6661    2.9403   -1.6757 C   0  0  0  0  0  0  0  0  0  0  0  0
    1.2405    2.5214   -0.8490 H   0  0  0  0  0  0  0  0  0  0  0  0
    1.3099    3.0302   -2.5511 H   0  0  0  0  0  0  0  0  0  0  0  0
    0.2951    3.9280   -1.4004 H   0  0  0  0  0  0  0  0  0  0  0  0
    0.3197   -0.9577    1.4248 C   0  0  0  0  0  0  0  0  0  0  0  0
    0.2185   -2.1523    1.6969 O   0  0  0  0  0  0  0  0  0  0  0  0
    1.2199   -0.1593    2.0126 N   0  0  0  0  0  0  0  0  0  0  0  0
    1.2539    0.8064    1.7271 H   0  0  0  0  0  0  0  0  0  0  0  0
    2.1663   -0.6082    3.0326 C   0  0  0  0  0  0  0  0  0  0  0  0
    2.7776   -1.4216    2.6346 H   0  0  0  0  0  0  0  0  0  0  0  0
    2.8159    0.2136    3.3366 H   0  0  0  0  0  0  0  0  0  0  0  0
    1.6216   -0.9794    3.9025 H   0  0  0  0  0  0  0  0  0  0  0  0
  5  6  2  0  0  0  0
  5  7  1  0  0  0  0
  2  3  1  0  0  0  0
  2  4  1  0  0  0  0
  2  5  1  0  0  0  0
  1  2  1  0  0  0  0
 22 23  2  0  0  0  0
 22 24  1  0  0  0  0
 18 19  1  0  0  0  0
 18 20  1  0  0  0  0
 18 21  1  0  0  0  0
 17 18  1  0  0  0  0
 14 15  1  0  0  0  0
 14 16  1  0  0  0  0
 14 17  1  0  0  0  0
 11 12  1  0  0  0  0
 11 13  1  0  0  0  0
 11 14  1  0  0  0  0
  9 10  1  0  0  0  0
  9 11  1  0  0  0  0
  9 22  1  0  0  0  0
  7  8  1  0  0  0  0
  7  9  1  0  0  0  0
 26 27  1  0  0  0  0
 26 28  1  0  0  0  0
 26 29  1  0  0  0  0
 24 25  1  0  0  0  0
 24 26  1  0  0  0  0
M  END
$$$$
default_name
  -OEChem-01062215323D

 29 28  0     1  0  0  0  0  0999 V2000
   -3.5781   -3.7296    1.2702 H   0  0  0  0  0  0  0  0  0  0  0  0
   -3.5311   -2.7616    0.7732 C   0  0  0  0  0  0  0  0  0  0  0  0
   -4.2371   -2.0766    1.2382 H   0  0  0  0  0  0  0  0  0  0  0  0
   -3.7681   -2.8816   -0.2818 H   0  0  0  0  0  0  0  0  0  0  0  0
   -2.1321   -2.2086    0.9112 C   0  0  0  0  0  0  0  0  0  0  0  0
   -1.2751   -2.8426    1.5112 O   0  0  0  0  0  0  0  0  0  0  0  0
   -1.9041   -1.0186    0.3602 N   0  0  0  0  0  0  0  0  0  0  0  0
   -2.6671   -0.5416   -0.0988 H   0  0  0  0  0  0  0  0  0  0  0  0
   -0.6131   -0.3236    0.3832 C   0  0  1  0  0  0  0  0  0  0  0  0
   -0.1460   -0.4246   -0.5977 H   0  0  0  0  0  0  0  0  0  0  0  0
   -0.8516    1.1737    0.6520 C   0  0  0  0  0  0  0  0  0  0  0  0
   -1.4352    1.2771    1.5693 H   0  0  0  0  0  0  0  0  0  0  0  0
    0.1084    1.6699    0.8010 H   0  0  0  0  0  0  0  0  0  0  0  0
   -1.6014    1.8870   -0.4790 C   0  0  0  0  0  0  0  0  0  0  0  0
   -2.5732    1.4141   -0.6174 H   0  0  0  0  0  0  0  0  0  0  0  0
   -1.7556    2.9285   -0.1947 H   0  0  0  0  0  0  0  0  0  0  0  0
   -0.7279    1.8507   -2.0650 S   0  0  0  0  0  0  0  0  0  0  0  0
    0.6661    2.9403   -1.6757 C   0  0  0  0  0  0  0  0  0  0  0  0
    1.2405    2.5214   -0.8490 H   0  0  0  0  0  0  0  0  0  0  0  0
    1.3099    3.0302   -2.5511 H   0  0  0  0  0  0  0  0  0  0  0  0
    0.2951    3.9280   -1.4004 H   0  0  0  0  0  0  0  0  0  0  0  0
    0.3197   -0.9577    1.4248 C   0  0  0  0  0  0  0  0  0  0  0  0
    0.4154   -2.1808    1.5032 O   0  0  0  0  0  0  0  0  0  0  0  0
    0.9990   -0.1295    2.2286 N   0  0  0  0  0  0  0  0  0  0  0  0
    0.8809    0.8621    2.0951 H   0  0  0  0  0  0  0  0  0  0  0  0
    1.9130   -0.5778    3.2780 C   0  0  0  0  0  0  0  0  0  0  0  0
    2.6978   -1.1997    2.8411 H   0  0  0  0  0  0  0  0  0  0  0  0
    2.3690    0.2786    3.7764 H   0  0  0  0  0  0  0  0  0  0  0  0
    1.3675   -1.1746    4.0112 H   0  0  0  0  0  0  0  0  0  0  0  0
  5  6  2  0  0  0  0
  5  7  1  0  0  0  0
  2  3  1  0  0  0  0
  2  4  1  0  0  0  0
  2  5  1  0  0  0  0
  1  2  1  0  0  0  0
 22 23  2  0  0  0  0
 22 24  1  0  0  0  0
 18 19  1  0  0  0  0
 18 20  1  0  0  0  0
 18 21  1  0  0  0  0
 17 18  1  0  0  0  0
 14 15  1  0  0  0  0
 14 16  1  0  0  0  0
 14 17  1  0  0  0  0
 11 12  1  0  0  0  0
 11 13  1  0  0  0  0
 11 14  1  0  0  0  0
  9 10  1  0  0  0  0
  9 11  1  0  0  0  0
  9 22  1  0  0  0  0
  7  8  1  0  0  0  0
  7  9  1  0  0  0  0
 26 27  1  0  0  0  0
 26 28  1  0  0  0  0
 26 29  1  0  0  0  0
 24 25  1  0  0  0  0
 24 26  1  0  0  0  0
M  END
$$$$
default_name
  -OEChem-01062215323D

 29 28  0     1  0  0  0  0  0999 V2000
   -3.5781   -3.7296    1.2702 H   0  0  0  0  0  0  0  0  0  0  0  0
   -3.5311   -2.7616    0.7732 C   0  0  0  0  0  0  0  0  0  0  0  0
   -4.2371   -2.0766    1.2382 H   0  0  0  0  0  0  0  0  0  0  0  0
   -3.7681   -2.8816   -0.2818 H   0  0  0  0  0  0  0  0  0  0  0  0
   -2.1321   -2.2086    0.9112 C   0  0  0  0  0  0  0  0  0  0  0  0
   -1.2751   -2.8426    1.5112 O   0  0  0  0  0  0  0  0  0  0  0  0
   -1.9041   -1.0186    0.3602 N   0  0  0  0  0  0  0  0  0  0  0  0
   -2.6671   -0.5416   -0.0988 H   0  0  0  0  0  0  0  0  0  0  0  0
   -0.6131   -0.3236    0.3832 C   0  0  1  0  0  0  0  0  0  0  0  0
   -0.1460   -0.4246   -0.5977 H   0  0  0  0  0  0  0  0  0  0  0  0
   -0.8516    1.1737    0.6520 C   0  0  0  0  0  0  0  0  0  0  0  0
   -1.4352    1.2771    1.5693 H   0  0  0  0  0  0  0  0  0  0  0  0
    0.1084    1.6699    0.8010 H   0  0  0  0  0  0  0  0  0  0  0  0
   -1.6014    1.8870   -0.4790 C   0  0  0  0  0  0  0  0  0  0  0  0
   -2.5732    1.4141   -0.6174 H   0  0  0  0  0  0  0  0  0  0  0  0
   -1.7556    2.9285   -0.1947 H   0  0  0  0  0  0  0  0  0  0  0  0
   -0.7279    1.8507   -2.0650 S   0  0  0  0  0  0  0  0  0  0  0  0
    0.6661    2.9403   -1.6757 C   0  0  0  0  0  0  0  0  0  0  0  0
    1.2405    2.5214   -0.8490 H   0  0  0  0  0  0  0  0  0  0  0  0
    1.3099    3.0302   -2.5511 H   0  0  0  0  0  0  0  0  0  0  0  0
    0.2951    3.9280   -1.4004 H   0  0  0  0  0  0  0  0  0  0  0  0
    0.3197   -0.9577    1.4248 C   0  0  0  0  0  0  0  0  0  0  0  0
    0.6313   -2.1434    1.3327 O   0  0  0  0  0  0  0  0  0  0  0  0
    0.7572   -0.1735    2.4183 N   0  0  0  0  0  0  0  0  0  0  0  0
    0.4715    0.7926    2.4195 H   0  0  0  0  0  0  0  0  0  0  0  0
    1.6367   -0.6315    3.4928 C   0  0  0  0  0  0  0  0  0  0  0  0
    2.5598   -1.0319    3.0669 H   0  0  0  0  0  0  0  0  0  0  0  0
    1.8790    0.1937    4.1636 H   0  0  0  0  0  0  0  0  0  0  0  0
    1.1447   -1.4249    4.0583 H   0  0  0  0  0  0  0  0  0  0  0  0
  5  6  2  0  0  0  0
  5  7  1  0  0  0  0
  2  3  1  0  0  0  0
  2  4  1  0  0  0  0
  2  5  1  0  0  0  0
  1  2  1  0  0  0  0
 22 23  2  0  0  0  0
 22 24  1  0  0  0  0
 18 19  1  0  0  0  0
 18 20  1  0  0  0  0
 18 21  1  0  0  0  0
 17 18  1  0  0  0  0
 14 15  1  0  0  0  0
 14 16  1  0  0  0  0
 14 17  1  0  0  0  0
 11 12  1  0  0  0  0
 11 13  1  0  0  0  0
 11 14  1  0  0  0  0
  9 10  1  0  0  0  0
  9 11  1  0  0  0  0
  9 22  1  0  0  0  0
  7  8  1  0  0  0  0
  7  9  1  0  0  0  0
 26 27  1  0  0  0  0
 26 28  1  0  0  0  0
 26 29  1  0  0  0  0
 24 25  1  0  0  0  0
 24 26  1  0  0  0  0
M  END
$$$$
default_name
  -OEChem-01062215323D

 29 28  0     1  0  0  0  0  0999 V2000
   -3.5781   -3.7296    1.2702 H   0  0  0  0  0  0  0  0  0  0  0  0
   -3.5311   -2.7616    0.7732 C   0  0  0  0  0  0  0  0  0  0  0  0
   -4.2371   -2.0766    1.2382 H   0  0  0  0  0  0  0  0  0  0  0  0
   -3.7681   -2.8816   -0.2818 H   0  0  0  0  0  0  0  0  0  0  0  0
   -2.1321   -2.2086    0.9112 C   0  0  0  0  0  0  0  0  0  0  0  0
   -1.2751   -2.8426    1.5112 O   0  0  0  0  0  0  0  0  0  0  0  0
   -1.9041   -1.0186    0.3602 N   0  0  0  0  0  0  0  0  0  0  0  0
   -2.6671   -0.5416   -0.0988 H   0  0  0  0  0  0  0  0  0  0  0  0
   -0.6131   -0.3236    0.3832 C   0  0  1  0  0  0  0  0  0  0  0  0
   -0.1460   -0.4246   -0.5977 H   0  0  0  0  0  0  0  0  0  0  0  0
   -0.8516    1.1737    0.6520 C   0  0  0  0  0  0  0  0  0  0  0  0
   -1.4352    1.2771    1.5693 H   0  0  0  0  0  0  0  0  0  0  0  0
    0.1084    1.6699    0.8010 H   0  0  0  0  0  0  0  0  0  0  0  0
   -1.6014    1.8870   -0.4790 C   0  0  0  0  0  0  0  0  0  0  0  0
   -2.5732    1.4141   -0.6174 H   0  0  0  0  0  0  0  0  0  0  0  0
   -1.7556    2.9285   -0.1947 H   0  0  0  0  0  0  0  0  0  0  0  0
   -0.7279    1.8507   -2.0650 S   0  0  0  0  0  0  0  0  0  0  0  0
    0.6661    2.9403   -1.6757 C   0  0  0  0  0  0  0  0  0  0  0  0
    1.2405    2.5214   -0.8490 H   0  0  0  0  0  0  0  0  0  0  0  0
    1.3099    3.0302   -2.5511 H   0  0  0  0  0  0  0  0  0  0  0  0
    0.2951    3.9280   -1.4004 H   0  0  0  0  0  0  0  0  0  0  0  0
    0.3197   -0.9577    1.4248 C   0  0  0  0  0  0  0  0  0  0  0  0
    0.8515   -2.0424    1.1969 O   0  0  0  0  0  0  0  0  0  0  0  0
    0.5111   -0.2883    2.5688 N   0  0  0  0  0  0  0  0  0  0  0  0
    0.0535    0.6026    2.6780 H   0  0  0  0  0  0  0  0  0  0  0  0
    1.3563   -0.7657    3.6622 C   0  0  0  0  0  0  0  0  0  0  0  0
    2.3728   -0.9295    3.2967 H   0  0  0  0  0  0  0  0  0  0  0  0
    1.3791   -0.0352    4.4719 H   0  0  0  0  0  0  0  0  0  0  0  0
    0.9685   -1.7131    4.0407 H   0  0  0  0  0  0  0  0  0  0  0  0
  5  6  2  0  0  0  0
  5  7  1  0  0  0  0
  2  3  1  0  0  0  0
  2  4  1  0  0  0  0
  2  5  1  0  0  0  0
  1  2  1  0  0  0  0
 22 23  2  0  0  0  0
 22 24  1  0  0  0  0
 18 19  1  0  0  0  0
 18 20  1  0  0  0  0
 18 21  1  0  0  0  0
 17 18  1  0  0  0  0
 14 15  1  0  0  0  0
 14 16  1  0  0  0  0
 14 17  1  0  0  0  0
 11 12  1  0  0  0  0
 11 13  1  0  0  0  0
 11 14  1  0  0  0  0
  9 10  1  0  0  0  0
  9 11  1  0  0  0  0
  9 22  1  0  0  0  0
  7  8  1  0  0  0  0
  7  9  1  0  0  0  0
 26 27  1  0  0  0  0
 26 28  1  0  0  0  0
 26 29  1  0  0  0  0
 24 25  1  0  0  0  0
 24 26  1  0  0  0  0
M  END
$$$$
default_name
  -OEChem-01062215323D

 29 28  0     1  0  0  0  0  0999 V2000
   -3.5781   -3.7296    1.2702 H   0  0  0  0  0  0  0  0  0  0  0  0
   -3.5311   -2.7616    0.7732 C   0  0  0  0  0  0  0  0  0  0  0  0
   -4.2371   -2.0766    1.2382 H   0  0  0  0  0  0  0  0  0  0  0  0
   -3.7681   -2.8816   -0.2818 H   0  0  0  0  0  0  0  0  0  0  0  0
   -2.1321   -2.2086    0.9112 C   0  0  0  0  0  0  0  0  0  0  0  0
   -1.2751   -2.8426    1.5112 O   0  0  0  0  0  0  0  0  0  0  0  0
   -1.9041   -1.0186    0.3602 N   0  0  0  0  0  0  0  0  0  0  0  0
   -2.6671   -0.5416   -0.0988 H   0  0  0  0  0  0  0  0  0  0  0  0
   -0.6131   -0.3236    0.3832 C   0  0  1  0  0  0  0  0  0  0  0  0
   -0.1460   -0.4246   -0.5977 H   0  0  0  0  0  0  0  0  0  0  0  0
   -0.8516    1.1737    0.6520 C   0  0  0  0  0  0  0  0  0  0  0  0
   -1.4352    1.2771    1.5693 H   0  0  0  0  0  0  0  0  0  0  0  0
    0.1084    1.6699    0.8010 H   0  0  0  0  0  0  0  0  0  0  0  0
   -1.6014    1.8870   -0.4790 C   0  0  0  0  0  0  0  0  0  0  0  0
   -2.5732    1.4141   -0.6174 H   0  0  0  0  0  0  0  0  0  0  0  0
   -1.7556    2.9285   -0.1947 H   0  0  0  0  0  0  0  0  0  0  0  0
   -0.7279    1.8507   -2.0650 S   0  0  0  0  0  0  0  0  0  0  0  0
    0.6661    2.9403   -1.6757 C   0  0  0  0  0  0  0  0  0  0  0  0
    1.2405    2.5214   -0.8490 H   0  0  0  0  0  0  0  0  0  0  0  0
    1.3099    3.0302   -2.5511 H   0  0  0  0  0  0  0  0  0  0  0  0
    0.2951    3.9280   -1.4004 H   0  0  0  0  0  0  0  0  0  0  0  0
    0.3197   -0.9577    1.4248 C   0  0  0  0  0  0  0  0  0  0  0  0
    1.0609   -1.8849    1.1052 O   0  0  0  0  0  0  0  0  0  0  0  0
    0.2775   -0.4661    2.6698 N   0  0  0  0  0  0  0  0  0  0  0  0
   -0.3445    0.3050    2.8533 H   0  0  0  0  0  0  0  0  0  0  0  0
    1.0909   -0.9712    3.7748 C   0  0  0  0  0  0  0  0  0  0  0  0
    2.1496   -0.8996    3.5148 H   0  0  0  0  0  0  0  0  0  0  0  0
    0.9035   -0.3925    4.6803 H   0  0  0  0  0  0  0  0  0  0  0  0
    0.8507   -2.0197    3.9595 H   0  0  0  0  0  0  0  0  0  0  0  0
  5  6  2  0  0  0  0
  5  7  1  0  0  0  0
  2  3  1  0  0  0  0
  2  4  1  0  0  0  0
  2  5  1  0  0  0  0
  1  2  1  0  0  0  0
 22 23  2  0  0  0  0
 22 24  1  0  0  0  0
 18 19  1  0  0  0  0
 18 20  1  0  0  0  0
 18 21  1  0  0  0  0
 17 18  1  0  0  0  0
 14 15  1  0  0  0  0
 14 16  1  0  0  0  0
 14 17  1  0  0  0  0
 11 12  1  0  0  0  0
 11 13  1  0  0  0  0
 11 14  1  0  0  0  0
  9 10  1  0  0  0  0
  9 11  1  0  0  0  0
  9 22  1  0  0  0  0
  7  8  1  0  0  0  0
  7  9  1  0  0  0  0
 26 27  1  0  0  0  0
 26 28  1  0  0  0  0
 26 29  1  0  0  0  0
 24 25  1  0  0  0  0
 24 26  1  0  0  0  0
M  END
$$$$
default_name
  -OEChem-01062215323D

 29 28  0     1  0  0  0  0  0999 V2000
   -3.5781   -3.7296    1.2702 H   0  0  0  0  0  0  0  0  0  0  0  0
   -3.5311   -2.7616    0.7732 C   0  0  0  0  0  0  0  0  0  0  0  0
   -4.2371   -2.0766    1.2382 H   0  0  0  0  0  0  0  0  0  0  0  0
   -3.7681   -2.8816   -0.2818 H   0  0  0  0  0  0  0  0  0  0  0  0
   -2.1321   -2.2086    0.9112 C   0  0  0  0  0  0  0  0  0  0  0  0
   -1.2751   -2.8426    1.5112 O   0  0  0  0  0  0  0  0  0  0  0  0
   -1.9041   -1.0186    0.3602 N   0  0  0  0  0  0  0  0  0  0  0  0
   -2.6671   -0.5416   -0.0988 H   0  0  0  0  0  0  0  0  0  0  0  0
   -0.6131   -0.3236    0.3832 C   0  0  1  0  0  0  0  0  0  0  0  0
   -0.1460   -0.4246   -0.5977 H   0  0  0  0  0  0  0  0  0  0  0  0
   -0.8516    1.1737    0.6520 C   0  0  0  0  0  0  0  0  0  0  0  0
   -1.4352    1.2771    1.5693 H   0  0  0  0  0  0  0  0  0  0  0  0
    0.1084    1.6699    0.8010 H   0  0  0  0  0  0  0  0  0  0  0  0
   -1.6014    1.8870   -0.4790 C   0  0  0  0  0  0  0  0  0  0  0  0
   -2.5732    1.4141   -0.6174 H   0  0  0  0  0  0  0  0  0  0  0  0
   -1.7556    2.9285   -0.1947 H   0  0  0  0  0  0  0  0  0  0  0  0
   -0.7279    1.8507   -2.0650 S   0  0  0  0  0  0  0  0  0  0  0  0
    0.6661    2.9403   -1.6757 C   0  0  0  0  0  0  0  0  0  0  0  0
    1.2405    2.5214   -0.8490 H   0  0  0  0  0  0  0  0  0  0  0  0
    1.3099    3.0302   -2.5511 H   0  0  0  0  0  0  0  0  0  0  0  0
    0.2951    3.9280   -1.4004 H   0  0  0  0  0  0  0  0  0  0  0  0
    0.3197   -0.9577    1.4248 C   0  0  0  0  0  0  0  0  0  0  0  0
    1.2454   -1.6816    1.0638 O   0  0  0  0  0  0  0  0  0  0  0  0
    0.0723   -0.6947    2.7144 N   0  0  0  0  0  0  0  0  0  0  0  0
   -0.6954   -0.0799    2.9332 H   0  0  0  0  0  0  0  0  0  0  0  0
    0.8585   -1.2339    3.8229 C   0  0  0  0  0  0  0  0  0  0  0  0
    1.9055   -0.9442    3.7063 H   0  0  0  0  0  0  0  0  0  0  0  0
    0.4845   -0.8540    4.7745 H   0  0  0  0  0  0  0  0  0  0  0  0
    0.7995   -2.3238    3.8202 H   0  0  0  0  0  0  0  0  0  0  0  0
  5  6  2  0  0  0  0
  5  7  1  0  0  0  0
  2  3  1  0  0  0  0
  2  4  1  0  0  0  0
  2  5  1  0  0  0  0
  1  2  1  0  0  0  0
 22 23  2  0  0  0  0
 22 24  1  0  0  0  0
 18 19  1  0  0  0  0
 18 20  1  0  0  0  0
 18 21  1  0  0  0  0
 17 18  1  0  0  0  0
 14 15  1  0  0  0  0
 14 16  1  0  0  0  0
 14 17  1  0  0  0  0
 11 12  1  0  0  0  0
 11 13  1  0  0  0  0
 11 14  1  0  0  0  0
  9 10  1  0  0  0  0
  9 11  1  0  0  0  0
  9 22  1  0  0  0  0
  7  8  1  0  0  0  0
  7  9  1  0  0  0  0
 26 27  1  0  0  0  0
 26 28  1  0  0  0  0
 26 29  1  0  0  0  0
 24 25  1  0  0  0  0
 24 26  1  0  0  0  0
M  END
$$$$
default_name
  -OEChem-01062215323D

 29 28  0     1  0  0  0  0  0999 V2000
   -3.5781   -3.7296    1.2702 H   0  0  0  0  0  0  0  0  0  0  0  0
   -3.5311   -2.7616    0.7732 C   0  0  0  0  0  0  0  0  0  0  0  0
   -4.2371   -2.0766    1.2382 H   0  0  0  0  0  0  0  0  0  0  0  0
   -3.7681   -2.8816   -0.2818 H   0  0  0  0  0  0  0  0  0  0  0  0
   -2.1321   -2.2086    0.9112 C   0  0  0  0  0  0  0  0  0  0  0  0
   -1.2751   -2.8426    1.5112 O   0  0  0  0  0  0  0  0  0  0  0  0
   -1.9041   -1.0186    0.3602 N   0  0  0  0  0  0  0  0  0  0  0  0
   -2.6671   -0.5416   -0.0988 H   0  0  0  0  0  0  0  0  0  0  0  0
   -0.6131   -0.3236    0.3832 C   0  0  1  0  0  0  0  0  0  0  0  0
   -0.1460   -0.4246   -0.5977 H   0  0  0  0  0  0  0  0  0  0  0  0
   -0.8516    1.1737    0.6520 C   0  0  0  0  0  0  0  0  0  0  0  0
   -1.4352    1.2771    1.5693 H   0  0  0  0  0  0  0  0  0  0  0  0
    0.1084    1.6699    0.8010 H   0  0  0  0  0  0  0  0  0  0  0  0
   -1.6014    1.8870   -0.4790 C   0  0  0  0  0  0  0  0  0  0  0  0
   -2.5732    1.4141   -0.6174 H   0  0  0  0  0  0  0  0  0  0  0  0
   -1.7556    2.9285   -0.1947 H   0  0  0  0  0  0  0  0  0  0  0  0
   -0.7279    1.8507   -2.0650 S   0  0  0  0  0  0  0  0  0  0  0  0
    0.6661    2.9403   -1.6757 C   0  0  0  0  0  0  0  0  0  0  0  0
    1.2405    2.5214   -0.8490 H   0  0  0  0  0  0  0  0  0  0  0  0
    1.3099    3.0302   -2.5511 H   0  0  0  0  0  0  0  0  0  0  0  0
    0.2951    3.9280   -1.4004 H   0  0  0  0  0  0  0  0  0  0  0  0
    0.3197   -0.9577    1.4248 C   0  0  0  0  0  0  0  0  0  0  0  0
    1.3923   -1.4463    1.0755 O   0  0  0  0  0  0  0  0  0  0  0  0
   -0.0906   -0.9585    2.6996 N   0  0  0  0  0  0  0  0  0  0  0  0
   -0.9753   -0.5258    2.9123 H   0  0  0  0  0  0  0  0  0  0  0  0
    0.6751   -1.5361    3.8031 C   0  0  0  0  0  0  0  0  0  0  0  0
    1.6570   -1.0602    3.8581 H   0  0  0  0  0  0  0  0  0  0  0  0
    0.1508   -1.3881    4.7481 H   0  0  0  0  0  0  0  0  0  0  0  0
    0.8183   -2.6046    3.6325 H   0  0  0  0  0  0  0  0  0  0  0  0
  5  6  2  0  0  0  0
  5  7  1  0  0  0  0
  2  3  1  0  0  0  0
  2  4  1  0  0  0  0
  2  5  1  0  0  0  0
  1  2  1  0  0  0  0
 22 23  2  0  0  0  0
 22 24  1  0  0  0  0
 18 19  1  0  0  0  0
 18 20  1  0  0  0  0
 18 21  1  0  0  0  0
 17 18  1  0  0  0  0
 14 15  1  0  0  0  0
 14 16  1  0  0  0  0
 14 17  1  0  0  0  0
 11 12  1  0  0  0  0
 11 13  1  0  0  0  0
 11 14  1  0  0  0  0
  9 10  1  0  0  0  0
  9 11  1  0  0  0  0
  9 22  1  0  0  0  0
  7  8  1  0  0  0  0
  7  9  1  0  0  0  0
 26 27  1  0  0  0  0
 26 28  1  0  0  0  0
 26 29  1  0  0  0  0
 24 25  1  0  0  0  0
 24 26  1  0  0  0  0
M  END
$$$$
default_name
  -OEChem-01062215323D

 29 28  0     1  0  0  0  0  0999 V2000
   -3.5781   -3.7296    1.2702 H   0  0  0  0  0  0  0  0  0  0  0  0
   -3.5311   -2.7616    0.7732 C   0  0  0  0  0  0  0  0  0  0  0  0
   -4.2371   -2.0766    1.2382 H   0  0  0  0  0  0  0  0  0  0  0  0
   -3.7681   -2.8816   -0.2818 H   0  0  0  0  0  0  0  0  0  0  0  0
   -2.1321   -2.2086    0.9112 C   0  0  0  0  0  0  0  0  0  0  0  0
   -1.2751   -2.8426    1.5112 O   0  0  0  0  0  0  0  0  0  0  0  0
   -1.9041   -1.0186    0.3602 N   0  0  0  0  0  0  0  0  0  0  0  0
   -2.6671   -0.5416   -0.0988 H   0  0  0  0  0  0  0  0  0  0  0  0
   -0.6131   -0.3236    0.3832 C   0  0  1  0  0  0  0  0  0  0  0  0
   -0.1460   -0.4246   -0.5977 H   0  0  0  0  0  0  0  0  0  0  0  0
   -0.8516    1.1737    0.6520 C   0  0  0  0  0  0  0  0  0  0  0  0
   -1.4352    1.2771    1.5693 H   0  0  0  0  0  0  0  0  0  0  0  0
    0.1084    1.6699    0.8010 H   0  0  0  0  0  0  0  0  0  0  0  0
   -1.6014    1.8870   -0.4790 C   0  0  0  0  0  0  0  0  0  0  0  0
   -2.5732    1.4141   -0.6174 H   0  0  0  0  0  0  0  0  0  0  0  0
   -1.7556    2.9285   -0.1947 H   0  0  0  0  0  0  0  0  0  0  0  0
   -0.7279    1.8507   -2.0650 S   0  0  0  0  0  0  0  0  0  0  0  0
    0.6661    2.9403   -1.6757 C   0  0  0  0  0  0  0  0  0  0  0  0
    1.2405    2.5214   -0.8490 H   0  0  0  0  0  0  0  0  0  0  0  0
    1.3099    3.0302   -2.5511 H   0  0  0  0  0  0  0  0  0  0  0  0
    0.2951    3.9280   -1.4004 H   0  0  0  0  0  0  0  0  0  0  0  0
    0.3197   -0.9577    1.4248 C   0  0  0  0  0  0  0  0  0  0  0  0
    1.4917   -1.1951    1.1395 O   0  0  0  0  0  0  0  0  0  0  0  0
   -0.2000   -1.2397    2.6264 N   0  0  0  0  0  0  0  0  0  0  0  0
   -1.1651   -1.0025    2.7921 H   0  0  0  0  0  0  0  0  0  0  0  0
    0.5531   -1.8571    3.7170 C   0  0  0  0  0  0  0  0  0  0  0  0
    1.4212   -1.2398    3.9600 H   0  0  0  0  0  0  0  0  0  0  0  0
   -0.0749   -1.9585    4.6030 H   0  0  0  0  0  0  0  0  0  0  0  0
    0.9058   -2.8430    3.4089 H   0  0  0  0  0  0  0  0  0  0  0  0
  5  6  2  0  0  0  0
  5  7  1  0  0  0  0
  2  3  1  0  0  0  0
  2  4  1  0  0  0  0
  2  5  1  0  0  0  0
  1  2  1  0  0  0  0
 22 23  2  0  0  0  0
 22 24  1  0  0  0  0
 18 19  1  0  0  0  0
 18 20  1  0  0  0  0
 18 21  1  0  0  0  0
 17 18  1  0  0  0  0
 14 15  1  0  0  0  0
 14 16  1  0  0  0  0
 14 17  1  0  0  0  0
 11 12  1  0  0  0  0
 11 13  1  0  0  0  0
 11 14  1  0  0  0  0
  9 10  1  0  0  0  0
  9 11  1  0  0  0  0
  9 22  1  0  0  0  0
  7  8  1  0  0  0  0
  7  9  1  0  0  0  0
 26 27  1  0  0  0  0
 26 28  1  0  0  0  0
 26 29  1  0  0  0  0
 24 25  1  0  0  0  0
 24 26  1  0  0  0  0
M  END
$$$$
default_name
  -OEChem-01062215323D

 29 28  0     1  0  0  0  0  0999 V2000
   -3.5781   -3.7296    1.2702 H   0  0  0  0  0  0  0  0  0  0  0  0
   -3.5311   -2.7616    0.7732 C   0  0  0  0  0  0  0  0  0  0  0  0
   -4.2371   -2.0766    1.2382 H   0  0  0  0  0  0  0  0  0  0  0  0
   -3.7681   -2.8816   -0.2818 H   0  0  0  0  0  0  0  0  0  0  0  0
   -2.1321   -2.2086    0.9112 C   0  0  0  0  0  0  0  0  0  0  0  0
   -1.2751   -2.8426    1.5112 O   0  0  0  0  0  0  0  0  0  0  0  0
   -1.9041   -1.0186    0.3602 N   0  0  0  0  0  0  0  0  0  0  0  0
   -2.6671   -0.5416   -0.0988 H   0  0  0  0  0  0  0  0  0  0  0  0
   -0.6131   -0.3236    0.3832 C   0  0  1  0  0  0  0  0  0  0  0  0
   -0.1460   -0.4246   -0.5977 H   0  0  0  0  0  0  0  0  0  0  0  0
   -0.8516    1.1737    0.6520 C   0  0  0  0  0  0  0  0  0  0  0  0
   -1.4352    1.2771    1.5693 H   0  0  0  0  0  0  0  0  0  0  0  0
    0.1084    1.6699    0.8010 H   0  0  0  0  0  0  0  0  0  0  0  0
   -1.6014    1.8870   -0.4790 C   0  0  0  0  0  0  0  0  0  0  0  0
   -2.5732    1.4141   -0.6174 H   0  0  0  0  0  0  0  0  0  0  0  0
   -1.7556    2.9285   -0.1947 H   0  0  0  0  0  0  0  0  0  0  0  0
   -0.7279    1.8507   -2.0650 S   0  0  0  0  0  0  0  0  0  0  0  0
    0.6661    2.9403   -1.6757 C   0  0  0  0  0  0  0  0  0  0  0  0
    1.2405    2.5214   -0.8490 H   0  0  0  0  0  0  0  0  0  0  0  0
    1.3099    3.0302   -2.5511 H   0  0  0  0  0  0  0  0  0  0  0  0
    0.2951    3.9280   -1.4004 H   0  0  0  0  0  0  0  0  0  0  0  0
    0.3197   -0.9577    1.4248 C   0  0  0  0  0  0  0  0  0  0  0  0
    1.5367   -0.9450    1.2514 O   0  0  0  0  0  0  0  0  0  0  0  0
   -0.2485   -1.5189    2.4998 N   0  0  0  0  0  0  0  0  0  0  0  0
   -1.2519   -1.4773    2.5808 H   0  0  0  0  0  0  0  0  0  0  0  0
    0.5009   -2.1750    3.5702 C   0  0  0  0  0  0  0  0  0  0  0  0
    1.2140   -1.4707    4.0049 H   0  0  0  0  0  0  0  0  0  0  0  0
   -0.1773   -2.5262    4.3490 H   0  0  0  0  0  0  0  0  0  0  0  0
    1.0561   -3.0228    3.1649 H   0  0  0  0  0  0  0  0  0  0  0  0
  5  6  2  0  0  0  0
  5  7  1  0  0  0  0
  2  3  1  0  0  0  0
  2  4  1  0  0  0  0
  2  5  1  0  0  0  0
  1  2  1  0  0  0  0
 22 23  2  0  0  0  0
 22 24  1  0  0  0  0
 18 19  1  0  0  0  0
 18 20  1  0  0  0  0
 18 21  1  0  0  0  0
 17 18  1  0  0  0  0
 14 15  1  0  0  0  0
 14 16  1  0  0  0  0
 14 17  1  0  0  0  0
 11 12  1  0  0  0  0
 11 13  1  0  0  0  0
 11 14  1  0  0  0  0
  9 10  1  0  0  0  0
  9 11  1  0  0  0  0
  9 22  1  0  0  0  0
  7  8  1  0  0  0  0
  7  9  1  0  0  0  0
 26 27  1  0  0  0  0
 26 28  1  0  0  0  0
 26 29  1  0  0  0  0
 24 25  1  0  0  0  0
 24 26  1  0  0  0  0
M  END
$$$$
default_name
  -OEChem-01062215323D

 29 28  0     1  0  0  0  0  0999 V2000
   -3.5781   -3.7296    1.2702 H   0  0  0  0  0  0  0  0  0  0  0  0
   -3.5311   -2.7616    0.7732 C   0  0  0  0  0  0  0  0  0  0  0  0
   -4.2371   -2.0766    1.2382 H   0  0  0  0  0  0  0  0  0  0  0  0
   -3.7681   -2.8816   -0.2818 H   0  0  0  0  0  0  0  0  0  0  0  0
   -2.1321   -2.2086    0.9112 C   0  0  0  0  0  0  0  0  0  0  0  0
   -1.2751   -2.8426    1.5112 O   0  0  0  0  0  0  0  0  0  0  0  0
   -1.9041   -1.0186    0.3602 N   0  0  0  0  0  0  0  0  0  0  0  0
   -2.6671   -0.5416   -0.0988 H   0  0  0  0  0  0  0  0  0  0  0  0
   -0.6131   -0.3236    0.3832 C   0  0  1  0  0  0  0  0  0  0  0  0
   -0.1460   -0.4246   -0.5977 H   0  0  0  0  0  0  0  0  0  0  0  0
   -0.8516    1.1737    0.6520 C   0  0  0  0  0  0  0  0  0  0  0  0
   -1.4352    1.2771    1.5693 H   0  0  0  0  0  0  0  0  0  0  0  0
    0.1084    1.6699    0.8010 H   0  0  0  0  0  0  0  0  0  0  0  0
   -1.6014    1.8870   -0.4790 C   0  0  0  0  0  0  0  0  0  0  0  0
   -2.5732    1.4141   -0.6174 H   0  0  0  0  0  0  0  0  0  0  0  0
   -1.7556    2.9285   -0.1947 H   0  0  0  0  0  0  0  0  0  0  0  0
   -0.7279    1.8507   -2.0650 S   0  0  0  0  0  0  0  0  0  0  0  0
    0.6661    2.9403   -1.6757 C   0  0  0  0  0  0  0  0  0  0  0  0
    1.2405    2.5214   -0.8490 H   0  0  0  0  0  0  0  0  0  0  0  0
    1.3099    3.0302   -2.5511 H   0  0  0  0  0  0  0  0  0  0  0  0
    0.2951    3.9280   -1.4004 H   0  0  0  0  0  0  0  0  0  0  0  0
    0.3197   -0.9577    1.4248 C   0  0  0  0  0  0  0  0  0  0  0  0
    1.5243   -0.7132    1.4037 O   0  0  0  0  0  0  0  0  0  0  0  0
   -0.2328   -1.7773    2.3284 N   0  0  0  0  0  0  0  0  0  0  0  0
   -1.2298   -1.9179    2.2927 H   0  0  0  0  0  0  0  0  0  0  0  0
    0.5219   -2.4682    3.3729 C   0  0  0  0  0  0  0  0  0  0  0  0
    1.0496   -1.7371    3.9899 H   0  0  0  0  0  0  0  0  0  0  0  0
   -0.1493   -3.0526    4.0035 H   0  0  0  0  0  0  0  0  0  0  0  0
    1.2589   -3.1316    2.9169 H   0  0  0  0  0  0  0  0  0  0  0  0
  5  6  2  0  0  0  0
  5  7  1  0  0  0  0
  2  3  1  0  0  0  0
  2  4  1  0  0  0  0
  2  5  1  0  0  0  0
  1  2  1  0  0  0  0
 22 23  2  0  0  0  0
 22 24  1  0  0  0  0
 18 19  1  0  0  0  0
 18 20  1  0  0  0  0
 18 21  1  0  0  0  0
 17 18  1  0  0  0  0
 14 15  1  0  0  0  0
 14 16  1  0  0  0  0
 14 17  1  0  0  0  0
 11 12  1  0  0  0  0
 11 13  1  0  0  0  0
 11 14  1  0  0  0  0
  9 10  1  0  0  0  0
  9 11  1  0  0  0  0
  9 22  1  0  0  0  0
  7  8  1  0  0  0  0
  7  9  1  0  0  0  0
 26 27  1  0  0  0  0
 26 28  1  0  0  0  0
 26 29  1  0  0  0  0
 24 25  1  0  0  0  0
 24 26  1  0  0  0  0
M  END
$$$$
default_name
  -OEChem-01062215323D

 29 28  0     1  0  0  0  0  0999 V2000
   -3.5781   -3.7296    1.2702 H   0  0  0  0  0  0  0  0  0  0  0  0
   -3.5311   -2.7616    0.7732 C   0  0  0  0  0  0  0  0  0  0  0  0
   -4.2371   -2.0766    1.2382 H   0  0  0  0  0  0  0  0  0  0  0  0
   -3.7681   -2.8816   -0.2818 H   0  0  0  0  0  0  0  0  0  0  0  0
   -2.1321   -2.2086    0.9112 C   0  0  0  0  0  0  0  0  0  0  0  0
   -1.2751   -2.8426    1.5112 O   0  0  0  0  0  0  0  0  0  0  0  0
   -1.9041   -1.0186    0.3602 N   0  0  0  0  0  0  0  0  0  0  0  0
   -2.6671   -0.5416   -0.0988 H   0  0  0  0  0  0  0  0  0  0  0  0
   -0.6131   -0.3236    0.3832 C   0  0  1  0  0  0  0  0  0  0  0  0
   -0.1460   -0.4246   -0.5977 H   0  0  0  0  0  0  0  0  0  0  0  0
   -0.8516    1.1737    0.6520 C   0  0  0  0  0  0  0  0  0  0  0  0
   -1.4352    1.2771    1.5693 H   0  0  0  0  0  0  0  0  0  0  0  0
    0.1084    1.6699    0.8010 H   0  0  0  0  0  0  0  0  0  0  0  0
   -1.6014    1.8870   -0.4790 C   0  0  0  0  0  0  0  0  0  0  0  0
   -2.5732    1.4141   -0.6174 H   0  0  0  0  0  0  0  0  0  0  0  0
   -1.7556    2.9285   -0.1947 H   0  0  0  0  0  0  0  0  0  0  0  0
   -0.7279    1.8507   -2.0650 S   0  0  0  0  0  0  0  0  0  0  0  0
    0.6661    2.9403   -1.6757 C   0  0  0  0  0  0  0  0  0  0  0  0
    1.2405    2.5214   -0.8490 H   0  0  0  0  0  0  0  0  0  0  0  0
    1.3099    3.0302   -2.5511 H   0  0  0  0  0  0  0  0  0  0  0  0
    0.2951    3.9280   -1.4004 H   0  0  0  0  0  0  0  0  0  0  0  0
    0.3197   -0.9577    1.4248 C   0  0  0  0  0  0  0  0  0  0  0  0
    1.4553   -0.5154    1.5859 O   0  0  0  0  0  0  0  0  0  0  0  0
   -0.1539   -1.9971    2.1239 N   0  0  0  0  0  0  0  0  0  0  0  0
   -1.1003   -2.2944    1.9475 H   0  0  0  0  0  0  0  0  0  0  0  0
    0.6148   -2.7167    3.1384 C   0  0  0  0  0  0  0  0  0  0  0  0
    0.9393   -2.0210    3.9159 H   0  0  0  0  0  0  0  0  0  0  0  0
    0.0070   -3.5019    3.5899 H   0  0  0  0  0  0  0  0  0  0  0  0
    1.5005   -3.1622    2.6820 H   0  0  0  0  0  0  0  0  0  0  0  0
  5  6  2  0  0  0  0
  5  7  1  0  0  0  0
  2  3  1  0  0  0  0
  2  4  1  0  0  0  0
  2  5  1  0  0  0  0
  1  2  1  0  0  0  0
 22 23  2  0  0  0  0
 22 24  1  0  0  0  0
 18 19  1  0  0  0  0
 18 20  1  0  0  0  0
 18 21  1  0  0  0  0
 17 18  1  0  0  0  0
 14 15  1  0  0  0  0
 14 16  1  0  0  0  0
 14 17  1  0  0  0  0
 11 12  1  0  0  0  0
 11 13  1  0  0  0  0
 11 14  1  0  0  0  0
  9 10  1  0  0  0  0
  9 11  1  0  0  0  0
  9 22  1  0  0  0  0
  7  8  1  0  0  0  0
  7  9  1  0  0  0  0
 26 27  1  0  0  0  0
 26 28  1  0  0  0  0
 26 29  1  0  0  0  0
 24 25  1  0  0  0  0
 24 26  1  0  0  0  0
M  END
$$$$
default_name
  -OEChem-01062215323D

 29 28  0     1  0  0  0  0  0999 V2000
   -3.5781   -3.7296    1.2702 H   0  0  0  0  0  0  0  0  0  0  0  0
   -3.5311   -2.7616    0.7732 C   0  0  0  0  0  0  0  0  0  0  0  0
   -4.2371   -2.0766    1.2382 H   0  0  0  0  0  0  0  0  0  0  0  0
   -3.7681   -2.8816   -0.2818 H   0  0  0  0  0  0  0  0  0  0  0  0
   -2.1321   -2.2086    0.9112 C   0  0  0  0  0  0  0  0  0  0  0  0
   -1.2751   -2.8426    1.5112 O   0  0  0  0  0  0  0  0  0  0  0  0
   -1.9041   -1.0186    0.3602 N   0  0  0  0  0  0  0  0  0  0  0  0
   -2.6671   -0.5416   -0.0988 H   0  0  0  0  0  0  0  0  0  0  0  0
   -0.6131   -0.3236    0.3832 C   0  0  1  0  0  0  0  0  0  0  0  0
   -0.1460   -0.4246   -0.5977 H   0  0  0  0  0  0  0  0  0  0  0  0
   -0.8516    1.1737    0.6520 C   0  0  0  0  0  0  0  0  0  0  0  0
   -1.4352    1.2771    1.5693 H   0  0  0  0  0  0  0  0  0  0  0  0
    0.1084    1.6699    0.8010 H   0  0  0  0  0  0  0  0  0  0  0  0
   -1.6014    1.8870   -0.4790 C   0  0  0  0  0  0  0  0  0  0  0  0
   -2.5732    1.4141   -0.6174 H   0  0  0  0  0  0  0  0  0  0  0  0
   -1.7556    2.9285   -0.1947 H   0  0  0  0  0  0  0  0  0  0  0  0
   -0.7279    1.8507   -2.0650 S   0  0  0  0  0  0  0  0  0  0  0  0
    0.6661    2.9403   -1.6757 C   0  0  0  0  0  0  0  0  0  0  0  0
    1.2405    2.5214   -0.8490 H   0  0  0  0  0  0  0  0  0  0  0  0
    1.3099    3.0302   -2.5511 H   0  0  0  0  0  0  0  0  0  0  0  0
    0.2951    3.9280   -1.4004 H   0  0  0  0  0  0  0  0  0  0  0  0
    0.3197   -0.9577    1.4248 C   0  0  0  0  0  0  0  0  0  0  0  0
    1.3345   -0.3651    1.7856 O   0  0  0  0  0  0  0  0  0  0  0  0
   -0.0172   -2.1635    1.9003 N   0  0  0  0  0  0  0  0  0  0  0  0
   -0.8722   -2.5810    1.5687 H   0  0  0  0  0  0  0  0  0  0  0  0
    0.7732   -2.9035    2.8828 C   0  0  0  0  0  0  0  0  0  0  0  0
    0.8904   -2.3030    3.7880 H   0  0  0  0  0  0  0  0  0  0  0  0
    0.2812   -3.8434    3.1365 H   0  0  0  0  0  0  0  0  0  0  0  0
    1.7643   -3.1124    2.4761 H   0  0  0  0  0  0  0  0  0  0  0  0
  5  6  2  0  0  0  0
  5  7  1  0  0  0  0
  2  3  1  0  0  0  0
  2  4  1  0  0  0  0
  2  5  1  0  0  0  0
  1  2  1  0  0  0  0
 22 23  2  0  0  0  0
 22 24  1  0  0  0  0
 18 19  1  0  0  0  0
 18 20  1  0  0  0  0
 18 21  1  0  0  0  0
 17 18  1  0  0  0  0
 14 15  1  0  0  0  0
 14 16  1  0  0  0  0
 14 17  1  0  0  0  0
 11 12  1  0  0  0  0
 11 13  1  0  0  0  0
 11 14  1  0  0  0  0
  9 10  1  0  0  0  0
  9 11  1  0  0  0  0
  9 22  1  0  0  0  0
  7  8  1  0  0  0  0
  7  9  1  0  0  0  0
 26 27  1  0  0  0  0
 26 28  1  0  0  0  0
 26 29  1  0  0  0  0
 24 25  1  0  0  0  0
 24 26  1  0  0  0  0
M  END
$$$$
default_name
  -OEChem-01062215323D

 29 28  0     1  0  0  0  0  0999 V2000
   -3.5781   -3.7296    1.2702 H   0  0  0  0  0  0  0  0  0  0  0  0
   -3.5311   -2.7616    0.7732 C   0  0  0  0  0  0  0  0  0  0  0  0
   -4.2371   -2.0766    1.2382 H   0  0  0  0  0  0  0  0  0  0  0  0
   -3.7681   -2.8816   -0.2818 H   0  0  0  0  0  0  0  0  0  0  0  0
   -2.1321   -2.2086    0.9112 C   0  0  0  0  0  0  0  0  0  0  0  0
   -1.2751   -2.8426    1.5112 O   0  0  0  0  0  0  0  0  0  0  0  0
   -1.9041   -1.0186    0.3602 N   0  0  0  0  0  0  0  0  0  0  0  0
   -2.6671   -0.5416   -0.0988 H   0  0  0  0  0  0  0  0  0  0  0  0
   -0.6131   -0.3236    0.3832 C   0  0  1  0  0  0  0  0  0  0  0  0
   -0.1460   -0.4246   -0.5977 H   0  0  0  0  0  0  0  0  0  0  0  0
   -0.8516    1.1737    0.6520 C   0  0  0  0  0  0  0  0  0  0  0  0
   -1.4352    1.2771    1.5693 H   0  0  0  0  0  0  0  0  0  0  0  0
    0.1084    1.6699    0.8010 H   0  0  0  0  0  0  0  0  0  0  0  0
   -1.6014    1.8870   -0.4790 C   0  0  0  0  0  0  0  0  0  0  0  0
   -2.5732    1.4141   -0.6174 H   0  0  0  0  0  0  0  0  0  0  0  0
   -1.7556    2.9285   -0.1947 H   0  0  0  0  0  0  0  0  0  0  0  0
   -0.7279    1.8507   -2.0650 S   0  0  0  0  0  0  0  0  0  0  0  0
    0.6661    2.9403   -1.6757 C   0  0  0  0  0  0  0  0  0  0  0  0
    1.2405    2.5214   -0.8490 H   0  0  0  0  0  0  0  0  0  0  0  0
    1.3099    3.0302   -2.5511 H   0  0  0  0  0  0  0  0  0  0  0  0
    0.2951    3.9280   -1.4004 H   0  0  0  0  0  0  0  0  0  0  0  0
    0.3197   -0.9577    1.4248 C   0  0  0  0  0  0  0  0  0  0  0  0
    1.1700   -0.2725    1.9893 O   0  0  0  0  0  0  0  0  0  0  0  0
    0.1679   -2.2650    1.6727 N   0  0  0  0  0  0  0  0  0  0  0  0
   -0.5610   -2.7582    1.1822 H   0  0  0  0  0  0  0  0  0  0  0  0
    0.9864   -3.0159    2.6234 C   0  0  0  0  0  0  0  0  0  0  0  0
    0.9064   -2.5638    3.6148 H   0  0  0  0  0  0  0  0  0  0  0  0
    0.6544   -4.0538    2.6742 H   0  0  0  0  0  0  0  0  0  0  0  0
    2.0324   -2.9855    2.3133 H   0  0  0  0  0  0  0  0  0  0  0  0
  5  6  2  0  0  0  0
  5  7  1  0  0  0  0
  2  3  1  0  0  0  0
  2  4  1  0  0  0  0
  2  5  1  0  0  0  0
  1  2  1  0  0  0  0
 22 23  2  0  0  0  0
 22 24  1  0  0  0  0
 18 19  1  0  0  0  0
 18 20  1  0  0  0  0
 18 21  1  0  0  0  0
 17 18  1  0  0  0  0
 14 15  1  0  0  0  0
 14 16  1  0  0  0  0
 14 17  1  0  0  0  0
 11 12  1  0  0  0  0
 11 13  1  0  0  0  0
 11 14  1  0  0  0  0
  9 10  1  0  0  0  0
  9 11  1  0  0  0  0
  9 22  1  0  0  0  0
  7  8  1  0  0  0  0
  7  9  1  0  0  0  0
 26 27  1  0  0  0  0
 26 28  1  0  0  0  0
 26 29  1  0  0  0  0
 24 25  1  0  0  0  0
 24 26  1  0  0  0  0
M  END
$$$$
default_name
  -OEChem-01062215323D

 29 28  0     1  0  0  0  0  0999 V2000
   -3.5781   -3.7296    1.2702 H   0  0  0  0  0  0  0  0  0  0  0  0
   -3.5311   -2.7616    0.7732 C   0  0  0  0  0  0  0  0  0  0  0  0
   -4.2371   -2.0766    1.2382 H   0  0  0  0  0  0  0  0  0  0  0  0
   -3.7681   -2.8816   -0.2818 H   0  0  0  0  0  0  0  0  0  0  0  0
   -2.1321   -2.2086    0.9112 C   0  0  0  0  0  0  0  0  0  0  0  0
   -1.2751   -2.8426    1.5112 O   0  0  0  0  0  0  0  0  0  0  0  0
   -1.9041   -1.0186    0.3602 N   0  0  0  0  0  0  0  0  0  0  0  0
   -2.6671   -0.5416   -0.0988 H   0  0  0  0  0  0  0  0  0  0  0  0
   -0.6131   -0.3236    0.3832 C   0  0  1  0  0  0  0  0  0  0  0  0
   -0.1460   -0.4246   -0.5977 H   0  0  0  0  0  0  0  0  0  0  0  0
   -0.8516    1.1737    0.6520 C   0  0  0  0  0  0  0  0  0  0  0  0
   -1.4352    1.2771    1.5693 H   0  0  0  0  0  0  0  0  0  0  0  0
    0.1084    1.6699    0.8010 H   0  0  0  0  0  0  0  0  0  0  0  0
   -1.6014    1.8870   -0.4790 C   0  0  0  0  0  0  0  0  0  0  0  0
   -2.5732    1.4141   -0.6174 H   0  0  0  0  0  0  0  0  0  0  0  0
   -1.7556    2.9285   -0.1947 H   0  0  0  0  0  0  0  0  0  0  0  0
   -0.7279    1.8507   -2.0650 S   0  0  0  0  0  0  0  0  0  0  0  0
    0.6661    2.9403   -1.6757 C   0  0  0  0  0  0  0  0  0  0  0  0
    1.2405    2.5214   -0.8490 H   0  0  0  0  0  0  0  0  0  0  0  0
    1.3099    3.0302   -2.5511 H   0  0  0  0  0  0  0  0  0  0  0  0
    0.2951    3.9280   -1.4004 H   0  0  0  0  0  0  0  0  0  0  0  0
    0.3197   -0.9577    1.4248 C   0  0  0  0  0  0  0  0  0  0  0  0
    0.9731   -0.2440    2.1830 O   0  0  0  0  0  0  0  0  0  0  0  0
    0.3888   -2.2948    1.4567 N   0  0  0  0  0  0  0  0  0  0  0  0
   -0.1880   -2.8140    0.8142 H   0  0  0  0  0  0  0  0  0  0  0  0
    1.2397   -3.0463    2.3780 C   0  0  0  0  0  0  0  0  0  0  0  0
    0.9862   -2.7857    3.4083 H   0  0  0  0  0  0  0  0  0  0  0  0
    1.1013   -4.1187    2.2344 H   0  0  0  0  0  0  0  0  0  0  0  0
    2.2864   -2.7903    2.2046 H   0  0  0  0  0  0  0  0  0  0  0  0
  5  6  2  0  0  0  0
  5  7  1  0  0  0  0
  2  3  1  0  0  0  0
  2  4  1  0  0  0  0
  2  5  1  0  0  0  0
  1  2  1  0  0  0  0
 22 23  2  0  0  0  0
 22 24  1  0  0  0  0
 18 19  1  0  0  0  0
 18 20  1  0  0  0  0
 18 21  1  0  0  0  0
 17 18  1  0  0  0  0
 14 15  1  0  0  0  0
 14 16  1  0  0  0  0
 14 17  1  0  0  0  0
 11 12  1  0  0  0  0
 11 13  1  0  0  0  0
 11 14  1  0  0  0  0
  9 10  1  0  0  0  0
  9 11  1  0  0  0  0
  9 22  1  0  0  0  0
  7  8  1  0  0  0  0
  7  9  1  0  0  0  0
 26 27  1  0  0  0  0
 26 28  1  0  0  0  0
 26 29  1  0  0  0  0
 24 25  1  0  0  0  0
 24 26  1  0  0  0  0
M  END
$$$$
default_name
  -OEChem-01062215323D

 29 28  0     1  0  0  0  0  0999 V2000
   -3.5781   -3.7296    1.2702 H   0  0  0  0  0  0  0  0  0  0  0  0
   -3.5311   -2.7616    0.7732 C   0  0  0  0  0  0  0  0  0  0  0  0
   -4.2371   -2.0766    1.2382 H   0  0  0  0  0  0  0  0  0  0  0  0
   -3.7681   -2.8816   -0.2818 H   0  0  0  0  0  0  0  0  0  0  0  0
   -2.1321   -2.2086    0.9112 C   0  0  0  0  0  0  0  0  0  0  0  0
   -1.2751   -2.8426    1.5112 O   0  0  0  0  0  0  0  0  0  0  0  0
   -1.9041   -1.0186    0.3602 N   0  0  0  0  0  0  0  0  0  0  0  0
   -2.6671   -0.5416   -0.0988 H   0  0  0  0  0  0  0  0  0  0  0  0
   -0.6131   -0.3236    0.3832 C   0  0  1  0  0  0  0  0  0  0  0  0
   -0.1460   -0.4246   -0.5977 H   0  0  0  0  0  0  0  0  0  0  0  0
   -0.8516    1.1737    0.6520 C   0  0  0  0  0  0  0  0  0  0  0  0
   -1.4352    1.2771    1.5693 H   0  0  0  0  0  0  0  0  0  0  0  0
    0.1084    1.6699    0.8010 H   0  0  0  0  0  0  0  0  0  0  0  0
   -1.6014    1.8870   -0.4790 C   0  0  0  0  0  0  0  0  0  0  0  0
   -2.5732    1.4141   -0.6174 H   0  0  0  0  0  0  0  0  0  0  0  0
   -1.7556    2.9285   -0.1947 H   0  0  0  0  0  0  0  0  0  0  0  0
   -0.7279    1.8507   -2.0650 S   0  0  0  0  0  0  0  0  0  0  0  0
    0.6661    2.9403   -1.6757 C   0  0  0  0  0  0  0  0  0  0  0  0
    1.2405    2.5214   -0.8490 H   0  0  0  0  0  0  0  0  0  0  0  0
    1.3099    3.0302   -2.5511 H   0  0  0  0  0  0  0  0  0  0  0  0
    0.2951    3.9280   -1.4004 H   0  0  0  0  0  0  0  0  0  0  0  0
    0.3197   -0.9577    1.4248 C   0  0  0  0  0  0  0  0  0  0  0  0
    0.7573   -0.2814    2.3535 O   0  0  0  0  0  0  0  0  0  0  0  0
    0.6306   -2.2508    1.2670 N   0  0  0  0  0  0  0  0  0  0  0  0
    0.2214   -2.7445    0.4898 H   0  0  0  0  0  0  0  0  0  0  0  0
    1.5160   -2.9926    2.1633 C   0  0  0  0  0  0  0  0  0  0  0  0
    1.1243   -2.9535    3.1825 H   0  0  0  0  0  0  0  0  0  0  0  0
    1.5914   -4.0339    1.8472 H   0  0  0  0  0  0  0  0  0  0  0  0
    2.5092   -2.5401    2.1575 H   0  0  0  0  0  0  0  0  0  0  0  0
  5  6  2  0  0  0  0
  5  7  1  0  0  0  0
  2  3  1  0  0  0  0
  2  4  1  0  0  0  0
  2  5  1  0  0  0  0
  1  2  1  0  0  0  0
 22 23  2  0  0  0  0
 22 24  1  0  0  0  0
 18 19  1  0  0  0  0
 18 20  1  0  0  0  0
 18 21  1  0  0  0  0
 17 18  1  0  0  0  0
 14 15  1  0  0  0  0
 14 16  1  0  0  0  0
 14 17  1  0  0  0  0
 11 12  1  0  0  0  0
 11 13  1  0  0  0  0
 11 14  1  0  0  0  0
  9 10  1  0  0  0  0
  9 11  1  0  0  0  0
  9 22  1  0  0  0  0
  7  8  1  0  0  0  0
  7  9  1  0  0  0  0
 26 27  1  0  0  0  0
 26 28  1  0  0  0  0
 26 29  1  0  0  0  0
 24 25  1  0  0  0  0
 24 26  1  0  0  0  0
M  END
$$$$
default_name
  -OEChem-01062215323D

 29 28  0     1  0  0  0  0  0999 V2000
   -3.5781   -3.7296    1.2702 H   0  0  0  0  0  0  0  0  0  0  0  0
   -3.5311   -2.7616    0.7732 C   0  0  0  0  0  0  0  0  0  0  0  0
   -4.2371   -2.0766    1.2382 H   0  0  0  0  0  0  0  0  0  0  0  0
   -3.7681   -2.8816   -0.2818 H   0  0  0  0  0  0  0  0  0  0  0  0
   -2.1321   -2.2086    0.9112 C   0  0  0  0  0  0  0  0  0  0  0  0
   -1.2751   -2.8426    1.5112 O   0  0  0  0  0  0  0  0  0  0  0  0
   -1.9041   -1.0186    0.3602 N   0  0  0  0  0  0  0  0  0  0  0  0
   -2.6671   -0.5416   -0.0988 H   0  0  0  0  0  0  0  0  0  0  0  0
   -0.6131   -0.3236    0.3832 C   0  0  1  0  0  0  0  0  0  0  0  0
   -0.1460   -0.4246   -0.5977 H   0  0  0  0  0  0  0  0  0  0  0  0
   -0.8516    1.1737    0.6520 C   0  0  0  0  0  0  0  0  0  0  0  0
   -1.4352    1.2771    1.5693 H   0  0  0  0  0  0  0  0  0  0  0  0
    0.1084    1.6699    0.8010 H   0  0  0  0  0  0  0  0  0  0  0  0
   -1.6014    1.8870   -0.4790 C   0  0  0  0  0  0  0  0  0  0  0  0
   -2.5732    1.4141   -0.6174 H   0  0  0  0  0  0  0  0  0  0  0  0
   -1.7556    2.9285   -0.1947 H   0  0  0  0  0  0  0  0  0  0  0  0
   -0.7279    1.8507   -2.0650 S   0  0  0  0  0  0  0  0  0  0  0  0
    0.6661    2.9403   -1.6757 C   0  0  0  0  0  0  0  0  0  0  0  0
    1.2405    2.5214   -0.8490 H   0  0  0  0  0  0  0  0  0  0  0  0
    1.3099    3.0302   -2.5511 H   0  0  0  0  0  0  0  0  0  0  0  0
    0.2951    3.9280   -1.4004 H   0  0  0  0  0  0  0  0  0  0  0  0
    0.3197   -0.9577    1.4248 C   0  0  0  0  0  0  0  0  0  0  0  0
    0.5371   -0.3824    2.4892 O   0  0  0  0  0  0  0  0  0  0  0  0
    0.8767   -2.1360    1.1165 N   0  0  0  0  0  0  0  0  0  0  0  0
    0.6394   -2.5545    0.2313 H   0  0  0  0  0  0  0  0  0  0  0  0
    1.7964   -2.8585    1.9939 C   0  0  0  0  0  0  0  0  0  0  0  0
    1.3113   -3.0559    2.9527 H   0  0  0  0  0  0  0  0  0  0  0  0
    2.0913   -3.8050    1.5389 H   0  0  0  0  0  0  0  0  0  0  0  0
    2.6855   -2.2518    2.1751 H   0  0  0  0  0  0  0  0  0  0  0  0
  5  6  2  0  0  0  0
  5  7  1  0  0  0  0
  2  3  1  0  0  0  0
  2  4  1  0  0  0  0
  2  5  1  0  0  0  0
  1  2  1  0  0  0  0
 22 23  2  0  0  0  0
 22 24  1  0  0  0  0
 18 19  1  0  0  0  0
 18 20  1  0  0  0  0
 18 21  1  0  0  0  0
 17 18  1  0  0  0  0
 14 15  1  0  0  0  0
 14 16  1  0  0  0  0
 14 17  1  0  0  0  0
 11 12  1  0  0  0  0
 11 13  1  0  0  0  0
 11 14  1  0  0  0  0
  9 10  1  0  0  0  0
  9 11  1  0  0  0  0
  9 22  1  0  0  0  0
  7  8  1  0  0  0  0
  7  9  1  0  0  0  0
 26 27  1  0  0  0  0
 26 28  1  0  0  0  0
 26 29  1  0  0  0  0
 24 25  1  0  0  0  0
 24 26  1  0  0  0  0
M  END
$$$$
default_name
  -OEChem-01062215323D

 29 28  0     1  0  0  0  0  0999 V2000
   -3.5781   -3.7296    1.2702 H   0  0  0  0  0  0  0  0  0  0  0  0
   -3.5311   -2.7616    0.7732 C   0  0  0  0  0  0  0  0  0  0  0  0
   -4.2371   -2.0766    1.2382 H   0  0  0  0  0  0  0  0  0  0  0  0
   -3.7681   -2.8816   -0.2818 H   0  0  0  0  0  0  0  0  0  0  0  0
   -2.1321   -2.2086    0.9112 C   0  0  0  0  0  0  0  0  0  0  0  0
   -1.2751   -2.8426    1.5112 O   0  0  0  0  0  0  0  0  0  0  0  0
   -1.9041   -1.0186    0.3602 N   0  0  0  0  0  0  0  0  0  0  0  0
   -2.6671   -0.5416   -0.0988 H   0  0  0  0  0  0  0  0  0  0  0  0
   -0.6131   -0.3236    0.3832 C   0  0  1  0  0  0  0  0  0  0  0  0
   -0.1460   -0.4246   -0.5977 H   0  0  0  0  0  0  0  0  0  0  0  0
   -0.8516    1.1737    0.6520 C   0  0  0  0  0  0  0  0  0  0  0  0
   -1.4352    1.2771    1.5693 H   0  0  0  0  0  0  0  0  0  0  0  0
    0.1084    1.6699    0.8010 H   0  0  0  0  0  0  0  0  0  0  0  0
   -1.6014    1.8870   -0.4790 C   0  0  0  0  0  0  0  0  0  0  0  0
   -2.5732    1.4141   -0.6174 H   0  0  0  0  0  0  0  0  0  0  0  0
   -1.7556    2.9285   -0.1947 H   0  0  0  0  0  0  0  0  0  0  0  0
   -0.7279    1.8507   -2.0650 S   0  0  0  0  0  0  0  0  0  0  0  0
    0.6661    2.9403   -1.6757 C   0  0  0  0  0  0  0  0  0  0  0  0
    1.2405    2.5214   -0.8490 H   0  0  0  0  0  0  0  0  0  0  0  0
    1.3099    3.0302   -2.5511 H   0  0  0  0  0  0  0  0  0  0  0  0
    0.2951    3.9280   -1.4004 H   0  0  0  0  0  0  0  0  0  0  0  0
    0.3197   -0.9577    1.4248 C   0  0  0  0  0  0  0  0  0  0  0  0
    0.3276   -0.5399    2.5809 O   0  0  0  0  0  0  0  0  0  0  0  0
    1.1103   -1.9582    1.0155 N   0  0  0  0  0  0  0  0  0  0  0  0
    1.0374   -2.2569    0.0560 H   0  0  0  0  0  0  0  0  0  0  0  0
    2.0618   -2.6530    1.8813 C   0  0  0  0  0  0  0  0  0  0  0  0
    1.5344   -3.0858    2.7346 H   0  0  0  0  0  0  0  0  0  0  0  0
    2.5669   -3.4476    1.3305 H   0  0  0  0  0  0  0  0  0  0  0  0
    2.8032   -1.9452    2.2563 H   0  0  0  0  0  0  0  0  0  0  0  0
  5  6  2  0  0  0  0
  5  7  1  0  0  0  0
  2  3  1  0  0  0  0
  2  4  1  0  0  0  0
  2  5  1  0  0  0  0
  1  2  1  0  0  0  0
 22 23  2  0  0  0  0
 22 24  1  0  0  0  0
 18 19  1  0  0  0  0
 18 20  1  0  0  0  0
 18 21  1  0  0  0  0
 17 18  1  0  0  0  0
 14 15  1  0  0  0  0
 14 16  1  0  0  0  0
 14 17  1  0  0  0  0
 11 12  1  0  0  0  0
 11 13  1  0  0  0  0
 11 14  1  0  0  0  0
  9 10  1  0  0  0  0
  9 11  1  0  0  0  0
  9 22  1  0  0  0  0
  7  8  1  0  0  0  0
  7  9  1  0  0  0  0
 26 27  1  0  0  0  0
 26 28  1  0  0  0  0
 26 29  1  0  0  0  0
 24 25  1  0  0  0  0
 24 26  1  0  0  0  0
M  END
$$$$
default_name
  -OEChem-01062215323D

 29 28  0     1  0  0  0  0  0999 V2000
   -3.5781   -3.7296    1.2702 H   0  0  0  0  0  0  0  0  0  0  0  0
   -3.5311   -2.7616    0.7732 C   0  0  0  0  0  0  0  0  0  0  0  0
   -4.2371   -2.0766    1.2382 H   0  0  0  0  0  0  0  0  0  0  0  0
   -3.7681   -2.8816   -0.2818 H   0  0  0  0  0  0  0  0  0  0  0  0
   -2.1321   -2.2086    0.9112 C   0  0  0  0  0  0  0  0  0  0  0  0
   -1.2751   -2.8426    1.5112 O   0  0  0  0  0  0  0  0  0  0  0  0
   -1.9041   -1.0186    0.3602 N   0  0  0  0  0  0  0  0  0  0  0  0
   -2.6671   -0.5416   -0.0988 H   0  0  0  0  0  0  0  0  0  0  0  0
   -0.6131   -0.3236    0.3832 C   0  0  1  0  0  0  0  0  0  0  0  0
   -0.1460   -0.4246   -0.5977 H   0  0  0  0  0  0  0  0  0  0  0  0
   -0.8516    1.1737    0.6520 C   0  0  0  0  0  0  0  0  0  0  0  0
   -1.4352    1.2771    1.5693 H   0  0  0  0  0  0  0  0  0  0  0  0
    0.1084    1.6699    0.8010 H   0  0  0  0  0  0  0  0  0  0  0  0
   -1.6014    1.8870   -0.4790 C   0  0  0  0  0  0  0  0  0  0  0  0
   -2.5732    1.4141   -0.6174 H   0  0  0  0  0  0  0  0  0  0  0  0
   -1.7556    2.9285   -0.1947 H   0  0  0  0  0  0  0  0  0  0  0  0
   -0.7279    1.8507   -2.0650 S   0  0  0  0  0  0  0  0  0  0  0  0
    0.6661    2.9403   -1.6757 C   0  0  0  0  0  0  0  0  0  0  0  0
    1.2405    2.5214   -0.8490 H   0  0  0  0  0  0  0  0  0  0  0  0
    1.3099    3.0302   -2.5511 H   0  0  0  0  0  0  0  0  0  0  0  0
    0.2951    3.9280   -1.4004 H   0  0  0  0  0  0  0  0  0  0  0  0
    0.3197   -0.9577    1.4248 C   0  0  0  0  0  0  0  0  0  0  0  0
    0.1431   -0.7432    2.6223 O   0  0  0  0  0  0  0  0  0  0  0  0
    1.3155   -1.7296    0.9709 N   0  0  0  0  0  0  0  0  0  0  0  0
    1.3883   -1.8720   -0.0239 H   0  0  0  0  0  0  0  0  0  0  0  0
    2.2942   -2.3902    1.8332 C   0  0  0  0  0  0  0  0  0  0  0  0
    1.7786   -3.0412    2.5431 H   0  0  0  0  0  0  0  0  0  0  0  0
    2.9858   -2.9862    1.2363 H   0  0  0  0  0  0  0  0  0  0  0  0
    2.8545   -1.6412    2.3956 H   0  0  0  0  0  0  0  0  0  0  0  0
  5  6  2  0  0  0  0
  5  7  1  0  0  0  0
  2  3  1  0  0  0  0
  2  4  1  0  0  0  0
  2  5  1  0  0  0  0
  1  2  1  0  0  0  0
 22 23  2  0  0  0  0
 22 24  1  0  0  0  0
 18 19  1  0  0  0  0
 18 20  1  0  0  0  0
 18 21  1  0  0  0  0
 17 18  1  0  0  0  0
 14 15  1  0  0  0  0
 14 16  1  0  0  0  0
 14 17  1  0  0  0  0
 11 12  1  0  0  0  0
 11 13  1  0  0  0  0
 11 14  1  0  0  0  0
  9 10  1  0  0  0  0
  9 11  1  0  0  0  0
  9 22  1  0  0  0  0
  7  8  1  0  0  0  0
  7  9  1  0  0  0  0
 26 27  1  0  0  0  0
 26 28  1  0  0  0  0
 26 29  1  0  0  0  0
 24 25  1  0  0  0  0
 24 26  1  0  0  0  0
M  END
$$$$
default_name
  -OEChem-01062215323D

 29 28  0     1  0  0  0  0  0999 V2000
   -3.5781   -3.7296    1.2702 H   0  0  0  0  0  0  0  0  0  0  0  0
   -3.5311   -2.7616    0.7732 C   0  0  0  0  0  0  0  0  0  0  0  0
   -4.2371   -2.0766    1.2382 H   0  0  0  0  0  0  0  0  0  0  0  0
   -3.7681   -2.8816   -0.2818 H   0  0  0  0  0  0  0  0  0  0  0  0
   -2.1321   -2.2086    0.9112 C   0  0  0  0  0  0  0  0  0  0  0  0
   -1.2751   -2.8426    1.5112 O   0  0  0  0  0  0  0  0  0  0  0  0
   -1.9041   -1.0186    0.3602 N   0  0  0  0  0  0  0  0  0  0  0  0
   -2.6671   -0.5416   -0.0988 H   0  0  0  0  0  0  0  0  0  0  0  0
   -0.6131   -0.3236    0.3832 C   0  0  1  0  0  0  0  0  0  0  0  0
   -0.1460   -0.4246   -0.5977 H   0  0  0  0  0  0  0  0  0  0  0  0
   -0.8516    1.1737    0.6520 C   0  0  0  0  0  0  0  0  0  0  0  0
   -1.4352    1.2771    1.5693 H   0  0  0  0  0  0  0  0  0  0  0  0
    0.1084    1.6699    0.8010 H   0  0  0  0  0  0  0  0  0  0  0  0
   -1.6014    1.8870   -0.4790 C   0  0  0  0  0  0  0  0  0  0  0  0
   -2.5732    1.4141   -0.6174 H   0  0  0  0  0  0  0  0  0  0  0  0
   -1.7556    2.9285   -0.1947 H   0  0  0  0  0  0  0  0  0  0  0  0
   -0.7279    1.8507   -2.0650 S   0  0  0  0  0  0  0  0  0  0  0  0
    0.6661    2.9403   -1.6757 C   0  0  0  0  0  0  0  0  0  0  0  0
    1.2405    2.5214   -0.8490 H   0  0  0  0  0  0  0  0  0  0  0  0
    1.3099    3.0302   -2.5511 H   0  0  0  0  0  0  0  0  0  0  0  0
    0.2951    3.9280   -1.4004 H   0  0  0  0  0  0  0  0  0  0  0  0
    0.3197   -0.9577    1.4248 C   0  0  0  0  0  0  0  0  0  0  0  0
   -0.0038   -0.9785    2.6106 O   0  0  0  0  0  0  0  0  0  0  0  0
    1.4784   -1.4658    0.9857 N   0  0  0  0  0  0  0  0  0  0  0  0
    1.6682   -1.4260   -0.0030 H   0  0  0  0  0  0  0  0  0  0  0  0
    2.4776   -2.0881    1.8529 C   0  0  0  0  0  0  0  0  0  0  0  0
    2.0270   -2.9252    2.3913 H   0  0  0  0  0  0  0  0  0  0  0  0
    3.3195   -2.4521    1.2627 H   0  0  0  0  0  0  0  0  0  0  0  0
    2.8357   -1.3604    2.5833 H   0  0  0  0  0  0  0  0  0  0  0  0
  5  6  2  0  0  0  0
  5  7  1  0  0  0  0
  2  3  1  0  0  0  0
  2  4  1  0  0  0  0
  2  5  1  0  0  0  0
  1  2  1  0  0  0  0
 22 23  2  0  0  0  0
 22 24  1  0  0  0  0
 18 19  1  0  0  0  0
 18 20  1  0  0  0  0
 18 21  1  0  0  0  0
 17 18  1  0  0  0  0
 14 15  1  0  0  0  0
 14 16  1  0  0  0  0
 14 17  1  0  0  0  0
 11 12  1  0  0  0  0
 11 13  1  0  0  0  0
 11 14  1  0  0  0  0
  9 10  1  0  0  0  0
  9 11  1  0  0  0  0
  9 22  1  0  0  0  0
  7  8  1  0  0  0  0
  7  9  1  0  0  0  0
 26 27  1  0  0  0  0
 26 28  1  0  0  0  0
 26 29  1  0  0  0  0
 24 25  1  0  0  0  0
 24 26  1  0  0  0  0
M  END
$$$$
default_name
  -OEChem-01062215323D

 29 28  0     1  0  0  0  0  0999 V2000
   -3.5781   -3.7296    1.2702 H   0  0  0  0  0  0  0  0  0  0  0  0
   -3.5311   -2.7616    0.7732 C   0  0  0  0  0  0  0  0  0  0  0  0
   -4.2371   -2.0766    1.2382 H   0  0  0  0  0  0  0  0  0  0  0  0
   -3.7681   -2.8816   -0.2818 H   0  0  0  0  0  0  0  0  0  0  0  0
   -2.1321   -2.2086    0.9112 C   0  0  0  0  0  0  0  0  0  0  0  0
   -1.2751   -2.8426    1.5112 O   0  0  0  0  0  0  0  0  0  0  0  0
   -1.9041   -1.0186    0.3602 N   0  0  0  0  0  0  0  0  0  0  0  0
   -2.6671   -0.5416   -0.0988 H   0  0  0  0  0  0  0  0  0  0  0  0
   -0.6131   -0.3236    0.3832 C   0  0  1  0  0  0  0  0  0  0  0  0
   -0.1460   -0.4246   -0.5977 H   0  0  0  0  0  0  0  0  0  0  0  0
   -0.8516    1.1737    0.6520 C   0  0  0  0  0  0  0  0  0  0  0  0
   -1.4352    1.2771    1.5693 H   0  0  0  0  0  0  0  0  0  0  0  0
    0.1084    1.6699    0.8010 H   0  0  0  0  0  0  0  0  0  0  0  0
   -1.6014    1.8870   -0.4790 C   0  0  0  0  0  0  0  0  0  0  0  0
   -2.5732    1.4141   -0.6174 H   0  0  0  0  0  0  0  0  0  0  0  0
   -1.7556    2.9285   -0.1947 H   0  0  0  0  0  0  0  0  0  0  0  0
   -0.7279    1.8507   -2.0650 S   0  0  0  0  0  0  0  0  0  0  0  0
    0.6661    2.9403   -1.6757 C   0  0  0  0  0  0  0  0  0  0  0  0
    1.2405    2.5214   -0.8490 H   0  0  0  0  0  0  0  0  0  0  0  0
    1.3099    3.0302   -2.5511 H   0  0  0  0  0  0  0  0  0  0  0  0
    0.2951    3.9280   -1.4004 H   0  0  0  0  0  0  0  0  0  0  0  0
    0.3197   -0.9577    1.4248 C   0  0  0  0  0  0  0  0  0  0  0  0
   -0.1031   -1.2297    2.5466 O   0  0  0  0  0  0  0  0  0  0  0  0
    1.5878   -1.1846    1.0589 N   0  0  0  0  0  0  0  0  0  0  0  0
    1.8580   -0.9494    0.1172 H   0  0  0  0  0  0  0  0  0  0  0  0
    2.5996   -1.7671    1.9391 C   0  0  0  0  0  0  0  0  0  0  0  0
    2.2629   -2.7456    2.2894 H   0  0  0  0  0  0  0  0  0  0  0  0
    3.5453   -1.8817    1.4078 H   0  0  0  0  0  0  0  0  0  0  0  0
    2.7482   -1.1219    2.8069 H   0  0  0  0  0  0  0  0  0  0  0  0
  5  6  2  0  0  0  0
  5  7  1  0  0  0  0
  2  3  1  0  0  0  0
  2  4  1  0  0  0  0
  2  5  1  0  0  0  0
  1  2  1  0  0  0  0
 22 23  2  0  0  0  0
 22 24  1  0  0  0  0
 18 19  1  0  0  0  0
 18 20  1  0  0  0  0
 18 21  1  0  0  0  0
 17 18  1  0  0  0  0
 14 15  1  0  0  0  0
 14 16  1  0  0  0  0
 14 17  1  0  0  0  0
 11 12  1  0  0  0  0
 11 13  1  0  0  0  0
 11 14  1  0  0  0  0
  9 10  1  0  0  0  0
  9 11  1  0  0  0  0
  9 22  1  0  0  0  0
  7  8  1  0  0  0  0
  7  9  1  0  0  0  0
 26 27  1  0  0  0  0
 26 28  1  0  0  0  0
 26 29  1  0  0  0  0
 24 25  1  0  0  0  0
 24 26  1  0  0  0  0
M  END
$$$$
default_name
  -OEChem-01062215323D

 29 28  0     1  0  0  0  0  0999 V2000
   -3.5781   -3.7296    1.2702 H   0  0  0  0  0  0  0  0  0  0  0  0
   -3.5311   -2.7616    0.7732 C   0  0  0  0  0  0  0  0  0  0  0  0
   -4.2371   -2.0766    1.2382 H   0  0  0  0  0  0  0  0  0  0  0  0
   -3.7681   -2.8816   -0.2818 H   0  0  0  0  0  0  0  0  0  0  0  0
   -2.1321   -2.2086    0.9112 C   0  0  0  0  0  0  0  0  0  0  0  0
   -1.2751   -2.8426    1.5112 O   0  0  0  0  0  0  0  0  0  0  0  0
   -1.9041   -1.0186    0.3602 N   0  0  0  0  0  0  0  0  0  0  0  0
   -2.6671   -0.5416   -0.0988 H   0  0  0  0  0  0  0  0  0  0  0  0
   -0.6131   -0.3236    0.3832 C   0  0  1  0  0  0  0  0  0  0  0  0
   -0.1460   -0.4246   -0.5977 H   0  0  0  0  0  0  0  0  0  0  0  0
   -0.8516    1.1737    0.6520 C   0  0  0  0  0  0  0  0  0  0  0  0
   -1.4352    1.2771    1.5693 H   0  0  0  0  0  0  0  0  0  0  0  0
    0.1084    1.6699    0.8010 H   0  0  0  0  0  0  0  0  0  0  0  0
   -1.6014    1.8870   -0.4790 C   0  0  0  0  0  0  0  0  0  0  0  0
   -2.5732    1.4141   -0.6174 H   0  0  0  0  0  0  0  0  0  0  0  0
   -1.7556    2.9285   -0.1947 H   0  0  0  0  0  0  0  0  0  0  0  0
   -0.7279    1.8507   -2.0650 S   0  0  0  0  0  0  0  0  0  0  0  0
    0.6661    2.9403   -1.6757 C   0  0  0  0  0  0  0  0  0  0  0  0
    1.2405    2.5214   -0.8490 H   0  0  0  0  0  0  0  0  0  0  0  0
    1.3099    3.0302   -2.5511 H   0  0  0  0  0  0  0  0  0  0  0  0
    0.2951    3.9280   -1.4004 H   0  0  0  0  0  0  0  0  0  0  0  0
    0.3197   -0.9577    1.4248 C   0  0  0  0  0  0  0  0  0  0  0  0
   -0.1481   -1.4798    2.4347 O   0  0  0  0  0  0  0  0  0  0  0  0
    1.6363   -0.9054    1.1855 N   0  0  0  0  0  0  0  0  0  0  0  0
    1.9448   -0.4746    0.3285 H   0  0  0  0  0  0  0  0  0  0  0  0
    2.6518   -1.4492    2.0859 C   0  0  0  0  0  0  0  0  0  0  0  0
    2.4700   -2.5147    2.2445 H   0  0  0  0  0  0  0  0  0  0  0  0
    3.6477   -1.3139    1.6618 H   0  0  0  0  0  0  0  0  0  0  0  0
    2.5978   -0.9422    3.0509 H   0  0  0  0  0  0  0  0  0  0  0  0
  5  6  2  0  0  0  0
  5  7  1  0  0  0  0
  2  3  1  0  0  0  0
  2  4  1  0  0  0  0
  2  5  1  0  0  0  0
  1  2  1  0  0  0  0
 22 23  2  0  0  0  0
 22 24  1  0  0  0  0
 18 19  1  0  0  0  0
 18 20  1  0  0  0  0
 18 21  1  0  0  0  0
 17 18  1  0  0  0  0
 14 15  1  0  0  0  0
 14 16  1  0  0  0  0
 14 17  1  0  0  0  0
 11 12  1  0  0  0  0
 11 13  1  0  0  0  0
 11 14  1  0  0  0  0
  9 10  1  0  0  0  0
  9 11  1  0  0  0  0
  9 22  1  0  0  0  0
  7  8  1  0  0  0  0
  7  9  1  0  0  0  0
 26 27  1  0  0  0  0
 26 28  1  0  0  0  0
 26 29  1  0  0  0  0
 24 25  1  0  0  0  0
 24 26  1  0  0  0  0
M  END
$$$$
default_name
  -OEChem-01062215323D

 29 28  0     1  0  0  0  0  0999 V2000
   -3.5781   -3.7296    1.2702 H   0  0  0  0  0  0  0  0  0  0  0  0
   -3.5311   -2.7616    0.7732 C   0  0  0  0  0  0  0  0  0  0  0  0
   -4.2371   -2.0766    1.2382 H   0  0  0  0  0  0  0  0  0  0  0  0
   -3.7681   -2.8816   -0.2818 H   0  0  0  0  0  0  0  0  0  0  0  0
   -2.1321   -2.2086    0.9112 C   0  0  0  0  0  0  0  0  0  0  0  0
   -1.2751   -2.8426    1.5112 O   0  0  0  0  0  0  0  0  0  0  0  0
   -1.9041   -1.0186    0.3602 N   0  0  0  0  0  0  0  0  0  0  0  0
   -2.6671   -0.5416   -0.0988 H   0  0  0  0  0  0  0  0  0  0  0  0
   -0.6131   -0.3236    0.3832 C   0  0  1  0  0  0  0  0  0  0  0  0
   -0.1460   -0.4246   -0.5977 H   0  0  0  0  0  0  0  0  0  0  0  0
   -0.8516    1.1737    0.6520 C   0  0  0  0  0  0  0  0  0  0  0  0
   -1.4352    1.2771    1.5693 H   0  0  0  0  0  0  0  0  0  0  0  0
    0.1084    1.6699    0.8010 H   0  0  0  0  0  0  0  0  0  0  0  0
   -1.6014    1.8870   -0.4790 C   0  0  0  0  0  0  0  0  0  0  0  0
   -2.5732    1.4141   -0.6174 H   0  0  0  0  0  0  0  0  0  0  0  0
   -1.7556    2.9285   -0.1947 H   0  0  0  0  0  0  0  0  0  0  0  0
   -0.7279    1.8507   -2.0650 S   0  0  0  0  0  0  0  0  0  0  0  0
    0.6661    2.9403   -1.6757 C   0  0  0  0  0  0  0  0  0  0  0  0
    1.2405    2.5214   -0.8490 H   0  0  0  0  0  0  0  0  0  0  0  0
    1.3099    3.0302   -2.5511 H   0  0  0  0  0  0  0  0  0  0  0  0
    0.2951    3.9280   -1.4004 H   0  0  0  0  0  0  0  0  0  0  0  0
    0.3197   -0.9577    1.4248 C   0  0  0  0  0  0  0  0  0  0  0  0
   -0.1357   -1.7116    2.2824 O   0  0  0  0  0  0  0  0  0  0  0  0
    1.6206   -0.6470    1.3569 N   0  0  0  0  0  0  0  0  0  0  0  0
    1.9227   -0.0339    0.6166 H   0  0  0  0  0  0  0  0  0  0  0  0
    2.6308   -1.1560    2.2832 C   0  0  0  0  0  0  0  0  0  0  0  0
    2.6344   -2.2483    2.2595 H   0  0  0  0  0  0  0  0  0  0  0  0
    3.6197   -0.7875    2.0073 H   0  0  0  0  0  0  0  0  0  0  0  0
    2.3950   -0.8333    3.2989 H   0  0  0  0  0  0  0  0  0  0  0  0
  5  6  2  0  0  0  0
  5  7  1  0  0  0  0
  2  3  1  0  0  0  0
  2  4  1  0  0  0  0
  2  5  1  0  0  0  0
  1  2  1  0  0  0  0
 22 23  2  0  0  0  0
 22 24  1  0  0  0  0
 18 19  1  0  0  0  0
 18 20  1  0  0  0  0
 18 21  1  0  0  0  0
 17 18  1  0  0  0  0
 14 15  1  0  0  0  0
 14 16  1  0  0  0  0
 14 17  1  0  0  0  0
 11 12  1  0  0  0  0
 11 13  1  0  0  0  0
 11 14  1  0  0  0  0
  9 10  1  0  0  0  0
  9 11  1  0  0  0  0
  9 22  1  0  0  0  0
  7  8  1  0  0  0  0
  7  9  1  0  0  0  0
 26 27  1  0  0  0  0
 26 28  1  0  0  0  0
 26 29  1  0  0  0  0
 24 25  1  0  0  0  0
 24 26  1  0  0  0  0
M  END
$$$$
default_name
  -OEChem-01062215323D

 29 28  0     1  0  0  0  0  0999 V2000
   -3.5781   -3.7296    1.2702 H   0  0  0  0  0  0  0  0  0  0  0  0
   -3.5311   -2.7616    0.7732 C   0  0  0  0  0  0  0  0  0  0  0  0
   -4.2371   -2.0766    1.2382 H   0  0  0  0  0  0  0  0  0  0  0  0
   -3.7681   -2.8816   -0.2818 H   0  0  0  0  0  0  0  0  0  0  0  0
   -2.1321   -2.2086    0.9112 C   0  0  0  0  0  0  0  0  0  0  0  0
   -1.2751   -2.8426    1.5112 O   0  0  0  0  0  0  0  0  0  0  0  0
   -1.9041   -1.0186    0.3602 N   0  0  0  0  0  0  0  0  0  0  0  0
   -2.6671   -0.5416   -0.0988 H   0  0  0  0  0  0  0  0  0  0  0  0
   -0.6131   -0.3236    0.3832 C   0  0  1  0  0  0  0  0  0  0  0  0
   -0.2714   -0.1901   -0.6444 H   0  0  0  0  0  0  0  0  0  0  0  0
   -0.8015    1.0686    1.0135 C   0  0  0  0  0  0  0  0  0  0  0  0
   -1.2666    0.9498    1.9945 H   0  0  0  0  0  0  0  0  0  0  0  0
    0.1746    1.5353    1.1533 H   0  0  0  0  0  0  0  0  0  0  0  0
   -1.6776    2.0068    0.1754 C   0  0  0  0  0  0  0  0  0  0  0  0
   -2.6638    1.5601    0.0526 H   0  0  0  0  0  0  0  0  0  0  0  0
   -1.7850    2.9533    0.7065 H   0  0  0  0  0  0  0  0  0  0  0  0
   -1.0064    2.3484   -1.4715 S   0  0  0  0  0  0  0  0  0  0  0  0
    0.4359    3.3461   -1.0174 C   0  0  0  0  0  0  0  0  0  0  0  0
    1.1035    2.7606   -0.3845 H   0  0  0  0  0  0  0  0  0  0  0  0
    0.9679    3.6446   -1.9210 H   0  0  0  0  0  0  0  0  0  0  0  0
    0.1117    4.2382   -0.4807 H   0  0  0  0  0  0  0  0  0  0  0  0
    0.4344   -1.1610    1.1307 C   0  0  0  0  0  0  0  0  0  0  0  0
    0.1244   -2.2484    1.6132 O   0  0  0  0  0  0  0  0  0  0  0  0
    1.6692   -0.6532    1.2343 N   0  0  0  0  0  0  0  0  0  0  0  0
    1.8527    0.2372    0.8000 H   0  0  0  0  0  0  0  0  0  0  0  0
    2.7707   -1.3203    1.9267 C   0  0  0  0  0  0  0  0  0  0  0  0
    2.9425   -2.3036    1.4825 H   0  0  0  0  0  0  0  0  0  0  0  0
    3.6829   -0.7271    1.8500 H   0  0  0  0  0  0  0  0  0  0  0  0
    2.5153   -1.4566    2.9791 H   0  0  0  0  0  0  0  0  0  0  0  0
  5  6  2  0  0  0  0
  5  7  1  0  0  0  0
  2  3  1  0  0  0  0
  2  4  1  0  0  0  0
  2  5  1  0  0  0  0
  1  2  1  0  0  0  0
 22 23  2  0  0  0  0
 22 24  1  0  0  0  0
 18 19  1  0  0  0  0
 18 20  1  0  0  0  0
 18 21  1  0  0  0  0
 17 18  1  0  0  0  0
 14 15  1  0  0  0  0
 14 16  1  0  0  0  0
 14 17  1  0  0  0  0
 11 12  1  0  0  0  0
 11 13  1  0  0  0  0
 11 14  1  0  0  0  0
  9 10  1  0  0  0  0
  9 11  1  0  0  0  0
  9 22  1  0  0  0  0
  7  8  1  0  0  0  0
  7  9  1  0  0  0  0
 26 27  1  0  0  0  0
 26 28  1  0  0  0  0
 26 29  1  0  0  0  0
 24 25  1  0  0  0  0
 24 26  1  0  0  0  0
M  END
$$$$
default_name
  -OEChem-01062215323D

 29 28  0     1  0  0  0  0  0999 V2000
   -3.5781   -3.7296    1.2702 H   0  0  0  0  0  0  0  0  0  0  0  0
   -3.5311   -2.7616    0.7732 C   0  0  0  0  0  0  0  0  0  0  0  0
   -4.2371   -2.0766    1.2382 H   0  0  0  0  0  0  0  0  0  0  0  0
   -3.7681   -2.8816   -0.2818 H   0  0  0  0  0  0  0  0  0  0  0  0
   -2.1321   -2.2086    0.9112 C   0  0  0  0  0  0  0  0  0  0  0  0
   -1.2751   -2.8426    1.5112 O   0  0  0  0  0  0  0  0  0  0  0  0
   -1.9041   -1.0186    0.3602 N   0  0  0  0  0  0  0  0  0  0  0  0
   -2.6671   -0.5416   -0.0988 H   0  0  0  0  0  0  0  0  0  0  0  0
   -0.6131   -0.3236    0.3832 C   0  0  1  0  0  0  0  0  0  0  0  0
   -0.2714   -0.1901   -0.6444 H   0  0  0  0  0  0  0  0  0  0  0  0
   -0.8015    1.0686    1.0135 C   0  0  0  0  0  0  0  0  0  0  0  0
   -1.2666    0.9498    1.9945 H   0  0  0  0  0  0  0  0  0  0  0  0
    0.1746    1.5353    1.1533 H   0  0  0  0  0  0  0  0  0  0  0  0
   -1.6776    2.0068    0.1754 C   0  0  0  0  0  0  0  0  0  0  0  0
   -2.6638    1.5601    0.0526 H   0  0  0  0  0  0  0  0  0  0  0  0
   -1.7850    2.9533    0.7065 H   0  0  0  0  0  0  0  0  0  0  0  0
   -1.0064    2.3484   -1.4715 S   0  0  0  0  0  0  0  0  0  0  0  0
    0.4359    3.3461   -1.0174 C   0  0  0  0  0  0  0  0  0  0  0  0
    1.1035    2.7606   -0.3845 H   0  0  0  0  0  0  0  0  0  0  0  0
    0.9679    3.6446   -1.9210 H   0  0  0  0  0  0  0  0  0  0  0  0
    0.1117    4.2382   -0.4807 H   0  0  0  0  0  0  0  0  0  0  0  0
    0.4344   -1.1610    1.1307 C   0  0  0  0  0  0  0  0  0  0  0  0
    0.2182   -2.3470    1.3712 O   0  0  0  0  0  0  0  0  0  0  0  0
    1.5628   -0.5446    1.5050 N   0  0  0  0  0  0  0  0  0  0  0  0
    1.6759    0.4259    1.2591 H   0  0  0  0  0  0  0  0  0  0  0  0
    2.6468   -1.1995    2.2356 C   0  0  0  0  0  0  0  0  0  0  0  0
    3.0096   -2.0573    1.6644 H   0  0  0  0  0  0  0  0  0  0  0  0
    3.4701   -0.5029    2.3993 H   0  0  0  0  0  0  0  0  0  0  0  0
    2.2784   -1.5569    3.1988 H   0  0  0  0  0  0  0  0  0  0  0  0
  5  6  2  0  0  0  0
  5  7  1  0  0  0  0
  2  3  1  0  0  0  0
  2  4  1  0  0  0  0
  2  5  1  0  0  0  0
  1  2  1  0  0  0  0
 22 23  2  0  0  0  0
 22 24  1  0  0  0  0
 18 19  1  0  0  0  0
 18 20  1  0  0  0  0
 18 21  1  0  0  0  0
 17 18  1  0  0  0  0
 14 15  1  0  0  0  0
 14 16  1  0  0  0  0
 14 17  1  0  0  0  0
 11 12  1  0  0  0  0
 11 13  1  0  0  0  0
 11 14  1  0  0  0  0
  9 10  1  0  0  0  0
  9 11  1  0  0  0  0
  9 22  1  0  0  0  0
  7  8  1  0  0  0  0
  7  9  1  0  0  0  0
 26 27  1  0  0  0  0
 26 28  1  0  0  0  0
 26 29  1  0  0  0  0
 24 25  1  0  0  0  0
 24 26  1  0  0  0  0
M  END
$$$$
default_name
  -OEChem-01062215323D

 29 28  0     1  0  0  0  0  0999 V2000
   -3.5781   -3.7296    1.2702 H   0  0  0  0  0  0  0  0  0  0  0  0
   -3.5311   -2.7616    0.7732 C   0  0  0  0  0  0  0  0  0  0  0  0
   -4.2371   -2.0766    1.2382 H   0  0  0  0  0  0  0  0  0  0  0  0
   -3.7681   -2.8816   -0.2818 H   0  0  0  0  0  0  0  0  0  0  0  0
   -2.1321   -2.2086    0.9112 C   0  0  0  0  0  0  0  0  0  0  0  0
   -1.2751   -2.8426    1.5112 O   0  0  0  0  0  0  0  0  0  0  0  0
   -1.9041   -1.0186    0.3602 N   0  0  0  0  0  0  0  0  0  0  0  0
   -2.6671   -0.5416   -0.0988 H   0  0  0  0  0  0  0  0  0  0  0  0
   -0.6131   -0.3236    0.3832 C   0  0  1  0  0  0  0  0  0  0  0  0
   -0.2714   -0.1901   -0.6444 H   0  0  0  0  0  0  0  0  0  0  0  0
   -0.8015    1.0686    1.0135 C   0  0  0  0  0  0  0  0  0  0  0  0
   -1.2666    0.9498    1.9945 H   0  0  0  0  0  0  0  0  0  0  0  0
    0.1746    1.5353    1.1533 H   0  0  0  0  0  0  0  0  0  0  0  0
   -1.6776    2.0068    0.1754 C   0  0  0  0  0  0  0  0  0  0  0  0
   -2.6638    1.5601    0.0526 H   0  0  0  0  0  0  0  0  0  0  0  0
   -1.7850    2.9533    0.7065 H   0  0  0  0  0  0  0  0  0  0  0  0
   -1.0064    2.3484   -1.4715 S   0  0  0  0  0  0  0  0  0  0  0  0
    0.4359    3.3461   -1.0174 C   0  0  0  0  0  0  0  0  0  0  0  0
    1.1035    2.7606   -0.3845 H   0  0  0  0  0  0  0  0  0  0  0  0
    0.9679    3.6446   -1.9210 H   0  0  0  0  0  0  0  0  0  0  0  0
    0.1117    4.2382   -0.4807 H   0  0  0  0  0  0  0  0  0  0  0  0
    0.4344   -1.1610    1.1307 C   0  0  0  0  0  0  0  0  0  0  0  0
    0.3553   -2.3878    1.1333 O   0  0  0  0  0  0  0  0  0  0  0  0
    1.4082   -0.5010    1.7706 N   0  0  0  0  0  0  0  0  0  0  0  0
    1.4165    0.5047    1.7110 H   0  0  0  0  0  0  0  0  0  0  0  0
    2.4684   -1.1530    2.5378 C   0  0  0  0  0  0  0  0  0  0  0  0
    3.0177   -1.8431    1.8930 H   0  0  0  0  0  0  0  0  0  0  0  0
    3.1588   -0.4101    2.9395 H   0  0  0  0  0  0  0  0  0  0  0  0
    2.0312   -1.7223    3.3600 H   0  0  0  0  0  0  0  0  0  0  0  0
  5  6  2  0  0  0  0
  5  7  1  0  0  0  0
  2  3  1  0  0  0  0
  2  4  1  0  0  0  0
  2  5  1  0  0  0  0
  1  2  1  0  0  0  0
 22 23  2  0  0  0  0
 22 24  1  0  0  0  0
 18 19  1  0  0  0  0
 18 20  1  0  0  0  0
 18 21  1  0  0  0  0
 17 18  1  0  0  0  0
 14 15  1  0  0  0  0
 14 16  1  0  0  0  0
 14 17  1  0  0  0  0
 11 12  1  0  0  0  0
 11 13  1  0  0  0  0
 11 14  1  0  0  0  0
  9 10  1  0  0  0  0
  9 11  1  0  0  0  0
  9 22  1  0  0  0  0
  7  8  1  0  0  0  0
  7  9  1  0  0  0  0
 26 27  1  0  0  0  0
 26 28  1  0  0  0  0
 26 29  1  0  0  0  0
 24 25  1  0  0  0  0
 24 26  1  0  0  0  0
M  END
$$$$
default_name
  -OEChem-01062215323D

 29 28  0     1  0  0  0  0  0999 V2000
   -3.5781   -3.7296    1.2702 H   0  0  0  0  0  0  0  0  0  0  0  0
   -3.5311   -2.7616    0.7732 C   0  0  0  0  0  0  0  0  0  0  0  0
   -4.2371   -2.0766    1.2382 H   0  0  0  0  0  0  0  0  0  0  0  0
   -3.7681   -2.8816   -0.2818 H   0  0  0  0  0  0  0  0  0  0  0  0
   -2.1321   -2.2086    0.9112 C   0  0  0  0  0  0  0  0  0  0  0  0
   -1.2751   -2.8426    1.5112 O   0  0  0  0  0  0  0  0  0  0  0  0
   -1.9041   -1.0186    0.3602 N   0  0  0  0  0  0  0  0  0  0  0  0
   -2.6671   -0.5416   -0.0988 H   0  0  0  0  0  0  0  0  0  0  0  0
   -0.6131   -0.3236    0.3832 C   0  0  1  0  0  0  0  0  0  0  0  0
   -0.2714   -0.1901   -0.6444 H   0  0  0  0  0  0  0  0  0  0  0  0
   -0.8015    1.0686    1.0135 C   0  0  0  0  0  0  0  0  0  0  0  0
   -1.2666    0.9498    1.9945 H   0  0  0  0  0  0  0  0  0  0  0  0
    0.1746    1.5353    1.1533 H   0  0  0  0  0  0  0  0  0  0  0  0
   -1.6776    2.0068    0.1754 C   0  0  0  0  0  0  0  0  0  0  0  0
   -2.6638    1.5601    0.0526 H   0  0  0  0  0  0  0  0  0  0  0  0
   -1.7850    2.9533    0.7065 H   0  0  0  0  0  0  0  0  0  0  0  0
   -1.0064    2.3484   -1.4715 S   0  0  0  0  0  0  0  0  0  0  0  0
    0.4359    3.3461   -1.0174 C   0  0  0  0  0  0  0  0  0  0  0  0
    1.1035    2.7606   -0.3845 H   0  0  0  0  0  0  0  0  0  0  0  0
    0.9679    3.6446   -1.9210 H   0  0  0  0  0  0  0  0  0  0  0  0
    0.1117    4.2382   -0.4807 H   0  0  0  0  0  0  0  0  0  0  0  0
    0.4344   -1.1610    1.1307 C   0  0  0  0  0  0  0  0  0  0  0  0
    0.5266   -2.3679    0.9157 O   0  0  0  0  0  0  0  0  0  0  0  0
    1.2158   -0.5252    2.0130 N   0  0  0  0  0  0  0  0  0  0  0  0
    1.0923    0.4685    2.1247 H   0  0  0  0  0  0  0  0  0  0  0  0
    2.2475   -1.1838    2.8127 C   0  0  0  0  0  0  0  0  0  0  0  0
    2.9662   -1.6755    2.1529 H   0  0  0  0  0  0  0  0  0  0  0  0
    2.7702   -0.4551    3.4338 H   0  0  0  0  0  0  0  0  0  0  0  0
    1.7904   -1.9417    3.4515 H   0  0  0  0  0  0  0  0  0  0  0  0
  5  6  2  0  0  0  0
  5  7  1  0  0  0  0
  2  3  1  0  0  0  0
  2  4  1  0  0  0  0
  2  5  1  0  0  0  0
  1  2  1  0  0  0  0
 22 23  2  0  0  0  0
 22 24  1  0  0  0  0
 18 19  1  0  0  0  0
 18 20  1  0  0  0  0
 18 21  1  0  0  0  0
 17 18  1  0  0  0  0
 14 15  1  0  0  0  0
 14 16  1  0  0  0  0
 14 17  1  0  0  0  0
 11 12  1  0  0  0  0
 11 13  1  0  0  0  0
 11 14  1  0  0  0  0
  9 10  1  0  0  0  0
  9 11  1  0  0  0  0
  9 22  1  0  0  0  0
  7  8  1  0  0  0  0
  7  9  1  0  0  0  0
 26 27  1  0  0  0  0
 26 28  1  0  0  0  0
 26 29  1  0  0  0  0
 24 25  1  0  0  0  0
 24 26  1  0  0  0  0
M  END
$$$$
default_name
  -OEChem-01062215323D

 29 28  0     1  0  0  0  0  0999 V2000
   -3.5781   -3.7296    1.2702 H   0  0  0  0  0  0  0  0  0  0  0  0
   -3.5311   -2.7616    0.7732 C   0  0  0  0  0  0  0  0  0  0  0  0
   -4.2371   -2.0766    1.2382 H   0  0  0  0  0  0  0  0  0  0  0  0
   -3.7681   -2.8816   -0.2818 H   0  0  0  0  0  0  0  0  0  0  0  0
   -2.1321   -2.2086    0.9112 C   0  0  0  0  0  0  0  0  0  0  0  0
   -1.2751   -2.8426    1.5112 O   0  0  0  0  0  0  0  0  0  0  0  0
   -1.9041   -1.0186    0.3602 N   0  0  0  0  0  0  0  0  0  0  0  0
   -2.6671   -0.5416   -0.0988 H   0  0  0  0  0  0  0  0  0  0  0  0
   -0.6131   -0.3236    0.3832 C   0  0  1  0  0  0  0  0  0  0  0  0
   -0.2714   -0.1901   -0.6444 H   0  0  0  0  0  0  0  0  0  0  0  0
   -0.8015    1.0686    1.0135 C   0  0  0  0  0  0  0  0  0  0  0  0
   -1.2666    0.9498    1.9945 H   0  0  0  0  0  0  0  0  0  0  0  0
    0.1746    1.5353    1.1533 H   0  0  0  0  0  0  0  0  0  0  0  0
   -1.6776    2.0068    0.1754 C   0  0  0  0  0  0  0  0  0  0  0  0
   -2.6638    1.5601    0.0526 H   0  0  0  0  0  0  0  0  0  0  0  0
   -1.7850    2.9533    0.7065 H   0  0  0  0  0  0  0  0  0  0  0  0
   -1.0064    2.3484   -1.4715 S   0  0  0  0  0  0  0  0  0  0  0  0
    0.4359    3.3461   -1.0174 C   0  0  0  0  0  0  0  0  0  0  0  0
    1.1035    2.7606   -0.3845 H   0  0  0  0  0  0  0  0  0  0  0  0
    0.9679    3.6446   -1.9210 H   0  0  0  0  0  0  0  0  0  0  0  0
    0.1117    4.2382   -0.4807 H   0  0  0  0  0  0  0  0  0  0  0  0
    0.4344   -1.1610    1.1307 C   0  0  0  0  0  0  0  0  0  0  0  0
    0.7202   -2.2886    0.7331 O   0  0  0  0  0  0  0  0  0  0  0  0
    0.9988   -0.6157    2.2158 N   0  0  0  0  0  0  0  0  0  0  0  0
    0.7252    0.3195    2.4722 H   0  0  0  0  0  0  0  0  0  0  0  0
    1.9992   -1.2901    3.0417 C   0  0  0  0  0  0  0  0  0  0  0  0
    2.8587   -1.5660    2.4262 H   0  0  0  0  0  0  0  0  0  0  0  0
    2.3306   -0.6348    3.8483 H   0  0  0  0  0  0  0  0  0  0  0  0
    1.5726   -2.2002    3.4671 H   0  0  0  0  0  0  0  0  0  0  0  0
  5  6  2  0  0  0  0
  5  7  1  0  0  0  0
  2  3  1  0  0  0  0
  2  4  1  0  0  0  0
  2  5  1  0  0  0  0
  1  2  1  0  0  0  0
 22 23  2  0  0  0  0
 22 24  1  0  0  0  0
 18 19  1  0  0  0  0
 18 20  1  0  0  0  0
 18 21  1  0  0  0  0
 17 18  1  0  0  0  0
 14 15  1  0  0  0  0
 14 16  1  0  0  0  0
 14 17  1  0  0  0  0
 11 12  1  0  0  0  0
 11 13  1  0  0  0  0
 11 14  1  0  0  0  0
  9 10  1  0  0  0  0
  9 11  1  0  0  0  0
  9 22  1  0  0  0  0
  7  8  1  0  0  0  0
  7  9  1  0  0  0  0
 26 27  1  0  0  0  0
 26 28  1  0  0  0  0
 26 29  1  0  0  0  0
 24 25  1  0  0  0  0
 24 26  1  0  0  0  0
M  END
$$$$
default_name
  -OEChem-01062215323D

 29 28  0     1  0  0  0  0  0999 V2000
   -3.5781   -3.7296    1.2702 H   0  0  0  0  0  0  0  0  0  0  0  0
   -3.5311   -2.7616    0.7732 C   0  0  0  0  0  0  0  0  0  0  0  0
   -4.2371   -2.0766    1.2382 H   0  0  0  0  0  0  0  0  0  0  0  0
   -3.7681   -2.8816   -0.2818 H   0  0  0  0  0  0  0  0  0  0  0  0
   -2.1321   -2.2086    0.9112 C   0  0  0  0  0  0  0  0  0  0  0  0
   -1.2751   -2.8426    1.5112 O   0  0  0  0  0  0  0  0  0  0  0  0
   -1.9041   -1.0186    0.3602 N   0  0  0  0  0  0  0  0  0  0  0  0
   -2.6671   -0.5416   -0.0988 H   0  0  0  0  0  0  0  0  0  0  0  0
   -0.6131   -0.3236    0.3832 C   0  0  1  0  0  0  0  0  0  0  0  0
   -0.2714   -0.1901   -0.6444 H   0  0  0  0  0  0  0  0  0  0  0  0
   -0.8015    1.0686    1.0135 C   0  0  0  0  0  0  0  0  0  0  0  0
   -1.2666    0.9498    1.9945 H   0  0  0  0  0  0  0  0  0  0  0  0
    0.1746    1.5353    1.1533 H   0  0  0  0  0  0  0  0  0  0  0  0
   -1.6776    2.0068    0.1754 C   0  0  0  0  0  0  0  0  0  0  0  0
   -2.6638    1.5601    0.0526 H   0  0  0  0  0  0  0  0  0  0  0  0
   -1.7850    2.9533    0.7065 H   0  0  0  0  0  0  0  0  0  0  0  0
   -1.0064    2.3484   -1.4715 S   0  0  0  0  0  0  0  0  0  0  0  0
    0.4359    3.3461   -1.0174 C   0  0  0  0  0  0  0  0  0  0  0  0
    1.1035    2.7606   -0.3845 H   0  0  0  0  0  0  0  0  0  0  0  0
    0.9679    3.6446   -1.9210 H   0  0  0  0  0  0  0  0  0  0  0  0
    0.1117    4.2382   -0.4807 H   0  0  0  0  0  0  0  0  0  0  0  0
    0.4344   -1.1610    1.1307 C   0  0  0  0  0  0  0  0  0  0  0  0
    0.9230   -2.1555    0.5981 O   0  0  0  0  0  0  0  0  0  0  0  0
    0.7720   -0.7662    2.3650 N   0  0  0  0  0  0  0  0  0  0  0  0
    0.3404    0.0680    2.7297 H   0  0  0  0  0  0  0  0  0  0  0  0
    1.7405   -1.4644    3.2090 C   0  0  0  0  0  0  0  0  0  0  0  0
    2.7025   -1.5221    2.6944 H   0  0  0  0  0  0  0  0  0  0  0  0
    1.8702   -0.9370    4.1550 H   0  0  0  0  0  0  0  0  0  0  0  0
    1.3926   -2.4800    3.4059 H   0  0  0  0  0  0  0  0  0  0  0  0
  5  6  2  0  0  0  0
  5  7  1  0  0  0  0
  2  3  1  0  0  0  0
  2  4  1  0  0  0  0
  2  5  1  0  0  0  0
  1  2  1  0  0  0  0
 22 23  2  0  0  0  0
 22 24  1  0  0  0  0
 18 19  1  0  0  0  0
 18 20  1  0  0  0  0
 18 21  1  0  0  0  0
 17 18  1  0  0  0  0
 14 15  1  0  0  0  0
 14 16  1  0  0  0  0
 14 17  1  0  0  0  0
 11 12  1  0  0  0  0
 11 13  1  0  0  0  0
 11 14  1  0  0  0  0
  9 10  1  0  0  0  0
  9 11  1  0  0  0  0
  9 22  1  0  0  0  0
  7  8  1  0  0  0  0
  7  9  1  0  0  0  0
 26 27  1  0  0  0  0
 26 28  1  0  0  0  0
 26 29  1  0  0  0  0
 24 25  1  0  0  0  0
 24 26  1  0  0  0  0
M  END
$$$$
default_name
  -OEChem-01062215323D

 29 28  0     1  0  0  0  0  0999 V2000
   -3.5781   -3.7296    1.2702 H   0  0  0  0  0  0  0  0  0  0  0  0
   -3.5311   -2.7616    0.7732 C   0  0  0  0  0  0  0  0  0  0  0  0
   -4.2371   -2.0766    1.2382 H   0  0  0  0  0  0  0  0  0  0  0  0
   -3.7681   -2.8816   -0.2818 H   0  0  0  0  0  0  0  0  0  0  0  0
   -2.1321   -2.2086    0.9112 C   0  0  0  0  0  0  0  0  0  0  0  0
   -1.2751   -2.8426    1.5112 O   0  0  0  0  0  0  0  0  0  0  0  0
   -1.9041   -1.0186    0.3602 N   0  0  0  0  0  0  0  0  0  0  0  0
   -2.6671   -0.5416   -0.0988 H   0  0  0  0  0  0  0  0  0  0  0  0
   -0.6131   -0.3236    0.3832 C   0  0  1  0  0  0  0  0  0  0  0  0
   -0.2714   -0.1901   -0.6444 H   0  0  0  0  0  0  0  0  0  0  0  0
   -0.8015    1.0686    1.0135 C   0  0  0  0  0  0  0  0  0  0  0  0
   -1.2666    0.9498    1.9945 H   0  0  0  0  0  0  0  0  0  0  0  0
    0.1746    1.5353    1.1533 H   0  0  0  0  0  0  0  0  0  0  0  0
   -1.6776    2.0068    0.1754 C   0  0  0  0  0  0  0  0  0  0  0  0
   -2.6638    1.5601    0.0526 H   0  0  0  0  0  0  0  0  0  0  0  0
   -1.7850    2.9533    0.7065 H   0  0  0  0  0  0  0  0  0  0  0  0
   -1.0064    2.3484   -1.4715 S   0  0  0  0  0  0  0  0  0  0  0  0
    0.4359    3.3461   -1.0174 C   0  0  0  0  0  0  0  0  0  0  0  0
    1.1035    2.7606   -0.3845 H   0  0  0  0  0  0  0  0  0  0  0  0
    0.9679    3.6446   -1.9210 H   0  0  0  0  0  0  0  0  0  0  0  0
    0.1117    4.2382   -0.4807 H   0  0  0  0  0  0  0  0  0  0  0  0
    0.4344   -1.1610    1.1307 C   0  0  0  0  0  0  0  0  0  0  0  0
    1.1212   -1.9774    0.5199 O   0  0  0  0  0  0  0  0  0  0  0  0
    0.5508   -0.9665    2.4505 N   0  0  0  0  0  0  0  0  0  0  0  0
   -0.0360   -0.2689    2.8797 H   0  0  0  0  0  0  0  0  0  0  0  0
    1.4889   -1.6949    3.3033 C   0  0  0  0  0  0  0  0  0  0  0  0
    2.5082   -1.5466    2.9391 H   0  0  0  0  0  0  0  0  0  0  0  0
    1.4203   -1.3410    4.3328 H   0  0  0  0  0  0  0  0  0  0  0  0
    1.2626   -2.7622    3.2719 H   0  0  0  0  0  0  0  0  0  0  0  0
  5  6  2  0  0  0  0
  5  7  1  0  0  0  0
  2  3  1  0  0  0  0
  2  4  1  0  0  0  0
  2  5  1  0  0  0  0
  1  2  1  0  0  0  0
 22 23  2  0  0  0  0
 22 24  1  0  0  0  0
 18 19  1  0  0  0  0
 18 20  1  0  0  0  0
 18 21  1  0  0  0  0
 17 18  1  0  0  0  0
 14 15  1  0  0  0  0
 14 16  1  0  0  0  0
 14 17  1  0  0  0  0
 11 12  1  0  0  0  0
 11 13  1  0  0  0  0
 11 14  1  0  0  0  0
  9 10  1  0  0  0  0
  9 11  1  0  0  0  0
  9 22  1  0  0  0  0
  7  8  1  0  0  0  0
  7  9  1  0  0  0  0
 26 27  1  0  0  0  0
 26 28  1  0  0  0  0
 26 29  1  0  0  0  0
 24 25  1  0  0  0  0
 24 26  1  0  0  0  0
M  END
$$$$
default_name
  -OEChem-01062215323D

 29 28  0     1  0  0  0  0  0999 V2000
   -3.5781   -3.7296    1.2702 H   0  0  0  0  0  0  0  0  0  0  0  0
   -3.5311   -2.7616    0.7732 C   0  0  0  0  0  0  0  0  0  0  0  0
   -4.2371   -2.0766    1.2382 H   0  0  0  0  0  0  0  0  0  0  0  0
   -3.7681   -2.8816   -0.2818 H   0  0  0  0  0  0  0  0  0  0  0  0
   -2.1321   -2.2086    0.9112 C   0  0  0  0  0  0  0  0  0  0  0  0
   -1.2751   -2.8426    1.5112 O   0  0  0  0  0  0  0  0  0  0  0  0
   -1.9041   -1.0186    0.3602 N   0  0  0  0  0  0  0  0  0  0  0  0
   -2.6671   -0.5416   -0.0988 H   0  0  0  0  0  0  0  0  0  0  0  0
   -0.6131   -0.3236    0.3832 C   0  0  1  0  0  0  0  0  0  0  0  0
   -0.2714   -0.1901   -0.6444 H   0  0  0  0  0  0  0  0  0  0  0  0
   -0.8015    1.0686    1.0135 C   0  0  0  0  0  0  0  0  0  0  0  0
   -1.2666    0.9498    1.9945 H   0  0  0  0  0  0  0  0  0  0  0  0
    0.1746    1.5353    1.1533 H   0  0  0  0  0  0  0  0  0  0  0  0
   -1.6776    2.0068    0.1754 C   0  0  0  0  0  0  0  0  0  0  0  0
   -2.6638    1.5601    0.0526 H   0  0  0  0  0  0  0  0  0  0  0  0
   -1.7850    2.9533    0.7065 H   0  0  0  0  0  0  0  0  0  0  0  0
   -1.0064    2.3484   -1.4715 S   0  0  0  0  0  0  0  0  0  0  0  0
    0.4359    3.3461   -1.0174 C   0  0  0  0  0  0  0  0  0  0  0  0
    1.1035    2.7606   -0.3845 H   0  0  0  0  0  0  0  0  0  0  0  0
    0.9679    3.6446   -1.9210 H   0  0  0  0  0  0  0  0  0  0  0  0
    0.1117    4.2382   -0.4807 H   0  0  0  0  0  0  0  0  0  0  0  0
    0.4344   -1.1610    1.1307 C   0  0  0  0  0  0  0  0  0  0  0  0
    1.3012   -1.7667    0.5037 O   0  0  0  0  0  0  0  0  0  0  0  0
    0.3503   -1.2029    2.4666 N   0  0  0  0  0  0  0  0  0  0  0  0
   -0.3783   -0.6682    2.9120 H   0  0  0  0  0  0  0  0  0  0  0  0
    1.2616   -1.9659    3.3182 C   0  0  0  0  0  0  0  0  0  0  0  0
    2.2891   -1.6381    3.1437 H   0  0  0  0  0  0  0  0  0  0  0  0
    1.0115   -1.8194    4.3698 H   0  0  0  0  0  0  0  0  0  0  0  0
    1.1916   -3.0275    3.0743 H   0  0  0  0  0  0  0  0  0  0  0  0
  5  6  2  0  0  0  0
  5  7  1  0  0  0  0
  2  3  1  0  0  0  0
  2  4  1  0  0  0  0
  2  5  1  0  0  0  0
  1  2  1  0  0  0  0
 22 23  2  0  0  0  0
 22 24  1  0  0  0  0
 18 19  1  0  0  0  0
 18 20  1  0  0  0  0
 18 21  1  0  0  0  0
 17 18  1  0  0  0  0
 14 15  1  0  0  0  0
 14 16  1  0  0  0  0
 14 17  1  0  0  0  0
 11 12  1  0  0  0  0
 11 13  1  0  0  0  0
 11 14  1  0  0  0  0
  9 10  1  0  0  0  0
  9 11  1  0  0  0  0
  9 22  1  0  0  0  0
  7  8  1  0  0  0  0
  7  9  1  0  0  0  0
 26 27  1  0  0  0  0
 26 28  1  0  0  0  0
 26 29  1  0  0  0  0
 24 25  1  0  0  0  0
 24 26  1  0  0  0  0
M  END
$$$$
default_name
  -OEChem-01062215323D

 29 28  0     1  0  0  0  0  0999 V2000
   -3.5781   -3.7296    1.2702 H   0  0  0  0  0  0  0  0  0  0  0  0
   -3.5311   -2.7616    0.7732 C   0  0  0  0  0  0  0  0  0  0  0  0
   -4.2371   -2.0766    1.2382 H   0  0  0  0  0  0  0  0  0  0  0  0
   -3.7681   -2.8816   -0.2818 H   0  0  0  0  0  0  0  0  0  0  0  0
   -2.1321   -2.2086    0.9112 C   0  0  0  0  0  0  0  0  0  0  0  0
   -1.2751   -2.8426    1.5112 O   0  0  0  0  0  0  0  0  0  0  0  0
   -1.9041   -1.0186    0.3602 N   0  0  0  0  0  0  0  0  0  0  0  0
   -2.6671   -0.5416   -0.0988 H   0  0  0  0  0  0  0  0  0  0  0  0
   -0.6131   -0.3236    0.3832 C   0  0  1  0  0  0  0  0  0  0  0  0
   -0.2714   -0.1901   -0.6444 H   0  0  0  0  0  0  0  0  0  0  0  0
   -0.8015    1.0686    1.0135 C   0  0  0  0  0  0  0  0  0  0  0  0
   -1.2666    0.9498    1.9945 H   0  0  0  0  0  0  0  0  0  0  0  0
    0.1746    1.5353    1.1533 H   0  0  0  0  0  0  0  0  0  0  0  0
   -1.6776    2.0068    0.1754 C   0  0  0  0  0  0  0  0  0  0  0  0
   -2.6638    1.5601    0.0526 H   0  0  0  0  0  0  0  0  0  0  0  0
   -1.7850    2.9533    0.7065 H   0  0  0  0  0  0  0  0  0  0  0  0
   -1.0064    2.3484   -1.4715 S   0  0  0  0  0  0  0  0  0  0  0  0
    0.4359    3.3461   -1.0174 C   0  0  0  0  0  0  0  0  0  0  0  0
    1.1035    2.7606   -0.3845 H   0  0  0  0  0  0  0  0  0  0  0  0
    0.9679    3.6446   -1.9210 H   0  0  0  0  0  0  0  0  0  0  0  0
    0.1117    4.2382   -0.4807 H   0  0  0  0  0  0  0  0  0  0  0  0
    0.4344   -1.1610    1.1307 C   0  0  0  0  0  0  0  0  0  0  0  0
    1.4508   -1.5376    0.5507 O   0  0  0  0  0  0  0  0  0  0  0  0
    0.1842   -1.4594    2.4120 N   0  0  0  0  0  0  0  0  0  0  0  0
   -0.6631   -1.1028    2.8243 H   0  0  0  0  0  0  0  0  0  0  0  0
    1.0741   -2.2590    3.2526 C   0  0  0  0  0  0  0  0  0  0  0  0
    2.0600   -1.7902    3.2943 H   0  0  0  0  0  0  0  0  0  0  0  0
    0.6717   -2.3395    4.2633 H   0  0  0  0  0  0  0  0  0  0  0  0
    1.1842   -3.2577    2.8265 H   0  0  0  0  0  0  0  0  0  0  0  0
  5  6  2  0  0  0  0
  5  7  1  0  0  0  0
  2  3  1  0  0  0  0
  2  4  1  0  0  0  0
  2  5  1  0  0  0  0
  1  2  1  0  0  0  0
 22 23  2  0  0  0  0
 22 24  1  0  0  0  0
 18 19  1  0  0  0  0
 18 20  1  0  0  0  0
 18 21  1  0  0  0  0
 17 18  1  0  0  0  0
 14 15  1  0  0  0  0
 14 16  1  0  0  0  0
 14 17  1  0  0  0  0
 11 12  1  0  0  0  0
 11 13  1  0  0  0  0
 11 14  1  0  0  0  0
  9 10  1  0  0  0  0
  9 11  1  0  0  0  0
  9 22  1  0  0  0  0
  7  8  1  0  0  0  0
  7  9  1  0  0  0  0
 26 27  1  0  0  0  0
 26 28  1  0  0  0  0
 26 29  1  0  0  0  0
 24 25  1  0  0  0  0
 24 26  1  0  0  0  0
M  END
$$$$
default_name
  -OEChem-01062215323D

 29 28  0     1  0  0  0  0  0999 V2000
   -3.5781   -3.7296    1.2702 H   0  0  0  0  0  0  0  0  0  0  0  0
   -3.5311   -2.7616    0.7732 C   0  0  0  0  0  0  0  0  0  0  0  0
   -4.2371   -2.0766    1.2382 H   0  0  0  0  0  0  0  0  0  0  0  0
   -3.7681   -2.8816   -0.2818 H   0  0  0  0  0  0  0  0  0  0  0  0
   -2.1321   -2.2086    0.9112 C   0  0  0  0  0  0  0  0  0  0  0  0
   -1.2751   -2.8426    1.5112 O   0  0  0  0  0  0  0  0  0  0  0  0
   -1.9041   -1.0186    0.3602 N   0  0  0  0  0  0  0  0  0  0  0  0
   -2.6671   -0.5416   -0.0988 H   0  0  0  0  0  0  0  0  0  0  0  0
   -0.6131   -0.3236    0.3832 C   0  0  1  0  0  0  0  0  0  0  0  0
   -0.2714   -0.1901   -0.6444 H   0  0  0  0  0  0  0  0  0  0  0  0
   -0.8015    1.0686    1.0135 C   0  0  0  0  0  0  0  0  0  0  0  0
   -1.2666    0.9498    1.9945 H   0  0  0  0  0  0  0  0  0  0  0  0
    0.1746    1.5353    1.1533 H   0  0  0  0  0  0  0  0  0  0  0  0
   -1.6776    2.0068    0.1754 C   0  0  0  0  0  0  0  0  0  0  0  0
   -2.6638    1.5601    0.0526 H   0  0  0  0  0  0  0  0  0  0  0  0
   -1.7850    2.9533    0.7065 H   0  0  0  0  0  0  0  0  0  0  0  0
   -1.0064    2.3484   -1.4715 S   0  0  0  0  0  0  0  0  0  0  0  0
    0.4359    3.3461   -1.0174 C   0  0  0  0  0  0  0  0  0  0  0  0
    1.1035    2.7606   -0.3845 H   0  0  0  0  0  0  0  0  0  0  0  0
    0.9679    3.6446   -1.9210 H   0  0  0  0  0  0  0  0  0  0  0  0
    0.1117    4.2382   -0.4807 H   0  0  0  0  0  0  0  0  0  0  0  0
    0.4344   -1.1610    1.1307 C   0  0  0  0  0  0  0  0  0  0  0  0
    1.5598   -1.3057    0.6577 O   0  0  0  0  0  0  0  0  0  0  0  0
    0.0637   -1.7185    2.2905 N   0  0  0  0  0  0  0  0  0  0  0  0
   -0.8711   -1.5429    2.6226 H   0  0  0  0  0  0  0  0  0  0  0  0
    0.9391   -2.5541    3.1111 C   0  0  0  0  0  0  0  0  0  0  0  0
    1.8367   -1.9925    3.3805 H   0  0  0  0  0  0  0  0  0  0  0  0
    0.4240   -2.8659    4.0206 H   0  0  0  0  0  0  0  0  0  0  0  0
    1.2412   -3.4374    2.5455 H   0  0  0  0  0  0  0  0  0  0  0  0
  5  6  2  0  0  0  0
  5  7  1  0  0  0  0
  2  3  1  0  0  0  0
  2  4  1  0  0  0  0
  2  5  1  0  0  0  0
  1  2  1  0  0  0  0
 22 23  2  0  0  0  0
 22 24  1  0  0  0  0
 18 19  1  0  0  0  0
 18 20  1  0  0  0  0
 18 21  1  0  0  0  0
 17 18  1  0  0  0  0
 14 15  1  0  0  0  0
 14 16  1  0  0  0  0
 14 17  1  0  0  0  0
 11 12  1  0  0  0  0
 11 13  1  0  0  0  0
 11 14  1  0  0  0  0
  9 10  1  0  0  0  0
  9 11  1  0  0  0  0
  9 22  1  0  0  0  0
  7  8  1  0  0  0  0
  7  9  1  0  0  0  0
 26 27  1  0  0  0  0
 26 28  1  0  0  0  0
 26 29  1  0  0  0  0
 24 25  1  0  0  0  0
 24 26  1  0  0  0  0
M  END
$$$$
default_name
  -OEChem-01062215323D

 29 28  0     1  0  0  0  0  0999 V2000
   -3.5781   -3.7296    1.2702 H   0  0  0  0  0  0  0  0  0  0  0  0
   -3.5311   -2.7616    0.7732 C   0  0  0  0  0  0  0  0  0  0  0  0
   -4.2371   -2.0766    1.2382 H   0  0  0  0  0  0  0  0  0  0  0  0
   -3.7681   -2.8816   -0.2818 H   0  0  0  0  0  0  0  0  0  0  0  0
   -2.1321   -2.2086    0.9112 C   0  0  0  0  0  0  0  0  0  0  0  0
   -1.2751   -2.8426    1.5112 O   0  0  0  0  0  0  0  0  0  0  0  0
   -1.9041   -1.0186    0.3602 N   0  0  0  0  0  0  0  0  0  0  0  0
   -2.6671   -0.5416   -0.0988 H   0  0  0  0  0  0  0  0  0  0  0  0
   -0.6131   -0.3236    0.3832 C   0  0  1  0  0  0  0  0  0  0  0  0
   -0.2714   -0.1901   -0.6444 H   0  0  0  0  0  0  0  0  0  0  0  0
   -0.8015    1.0686    1.0135 C   0  0  0  0  0  0  0  0  0  0  0  0
   -1.2666    0.9498    1.9945 H   0  0  0  0  0  0  0  0  0  0  0  0
    0.1746    1.5353    1.1533 H   0  0  0  0  0  0  0  0  0  0  0  0
   -1.6776    2.0068    0.1754 C   0  0  0  0  0  0  0  0  0  0  0  0
   -2.6638    1.5601    0.0526 H   0  0  0  0  0  0  0  0  0  0  0  0
   -1.7850    2.9533    0.7065 H   0  0  0  0  0  0  0  0  0  0  0  0
   -1.0064    2.3484   -1.4715 S   0  0  0  0  0  0  0  0  0  0  0  0
    0.4359    3.3461   -1.0174 C   0  0  0  0  0  0  0  0  0  0  0  0
    1.1035    2.7606   -0.3845 H   0  0  0  0  0  0  0  0  0  0  0  0
    0.9679    3.6446   -1.9210 H   0  0  0  0  0  0  0  0  0  0  0  0
    0.1117    4.2382   -0.4807 H   0  0  0  0  0  0  0  0  0  0  0  0
    0.4344   -1.1610    1.1307 C   0  0  0  0  0  0  0  0  0  0  0  0
    1.6208   -1.0869    0.8174 O   0  0  0  0  0  0  0  0  0  0  0  0
   -0.0028   -1.9625    2.1105 N   0  0  0  0  0  0  0  0  0  0  0  0
   -0.9881   -1.9587    2.3208 H   0  0  0  0  0  0  0  0  0  0  0  0
    0.8660   -2.8311    2.9032 C   0  0  0  0  0  0  0  0  0  0  0  0
    1.6343   -2.2313    3.3966 H   0  0  0  0  0  0  0  0  0  0  0  0
    0.2853   -3.3627    3.6582 H   0  0  0  0  0  0  0  0  0  0  0  0
    1.3584   -3.5541    2.2504 H   0  0  0  0  0  0  0  0  0  0  0  0
  5  6  2  0  0  0  0
  5  7  1  0  0  0  0
  2  3  1  0  0  0  0
  2  4  1  0  0  0  0
  2  5  1  0  0  0  0
  1  2  1  0  0  0  0
 22 23  2  0  0  0  0
 22 24  1  0  0  0  0
 18 19  1  0  0  0  0
 18 20  1  0  0  0  0
 18 21  1  0  0  0  0
 17 18  1  0  0  0  0
 14 15  1  0  0  0  0
 14 16  1  0  0  0  0
 14 17  1  0  0  0  0
 11 12  1  0  0  0  0
 11 13  1  0  0  0  0
 11 14  1  0  0  0  0
  9 10  1  0  0  0  0
  9 11  1  0  0  0  0
  9 22  1  0  0  0  0
  7  8  1  0  0  0  0
  7  9  1  0  0  0  0
 26 27  1  0  0  0  0
 26 28  1  0  0  0  0
 26 29  1  0  0  0  0
 24 25  1  0  0  0  0
 24 26  1  0  0  0  0
M  END
$$$$
default_name
  -OEChem-01062215323D

 29 28  0     1  0  0  0  0  0999 V2000
   -3.5781   -3.7296    1.2702 H   0  0  0  0  0  0  0  0  0  0  0  0
   -3.5311   -2.7616    0.7732 C   0  0  0  0  0  0  0  0  0  0  0  0
   -4.2371   -2.0766    1.2382 H   0  0  0  0  0  0  0  0  0  0  0  0
   -3.7681   -2.8816   -0.2818 H   0  0  0  0  0  0  0  0  0  0  0  0
   -2.1321   -2.2086    0.9112 C   0  0  0  0  0  0  0  0  0  0  0  0
   -1.2751   -2.8426    1.5112 O   0  0  0  0  0  0  0  0  0  0  0  0
   -1.9041   -1.0186    0.3602 N   0  0  0  0  0  0  0  0  0  0  0  0
   -2.6671   -0.5416   -0.0988 H   0  0  0  0  0  0  0  0  0  0  0  0
   -0.6131   -0.3236    0.3832 C   0  0  1  0  0  0  0  0  0  0  0  0
   -0.2714   -0.1901   -0.6444 H   0  0  0  0  0  0  0  0  0  0  0  0
   -0.8015    1.0686    1.0135 C   0  0  0  0  0  0  0  0  0  0  0  0
   -1.2666    0.9498    1.9945 H   0  0  0  0  0  0  0  0  0  0  0  0
    0.1746    1.5353    1.1533 H   0  0  0  0  0  0  0  0  0  0  0  0
   -1.6776    2.0068    0.1754 C   0  0  0  0  0  0  0  0  0  0  0  0
   -2.6638    1.5601    0.0526 H   0  0  0  0  0  0  0  0  0  0  0  0
   -1.7850    2.9533    0.7065 H   0  0  0  0  0  0  0  0  0  0  0  0
   -1.0064    2.3484   -1.4715 S   0  0  0  0  0  0  0  0  0  0  0  0
    0.4359    3.3461   -1.0174 C   0  0  0  0  0  0  0  0  0  0  0  0
    1.1035    2.7606   -0.3845 H   0  0  0  0  0  0  0  0  0  0  0  0
    0.9679    3.6446   -1.9210 H   0  0  0  0  0  0  0  0  0  0  0  0
    0.1117    4.2382   -0.4807 H   0  0  0  0  0  0  0  0  0  0  0  0
    0.4344   -1.1610    1.1307 C   0  0  0  0  0  0  0  0  0  0  0  0
    1.6296   -0.8961    1.0189 O   0  0  0  0  0  0  0  0  0  0  0  0
   -0.0109   -2.1747    1.8841 N   0  0  0  0  0  0  0  0  0  0  0  0
   -1.0061   -2.3217    1.9393 H   0  0  0  0  0  0  0  0  0  0  0  0
    0.8596   -3.0713    2.6431 C   0  0  0  0  0  0  0  0  0  0  0  0
    1.4667   -2.4903    3.3414 H   0  0  0  0  0  0  0  0  0  0  0  0
    0.2652   -3.7961    3.2010 H   0  0  0  0  0  0  0  0  0  0  0  0
    1.5281   -3.5999    1.9613 H   0  0  0  0  0  0  0  0  0  0  0  0
  5  6  2  0  0  0  0
  5  7  1  0  0  0  0
  2  3  1  0  0  0  0
  2  4  1  0  0  0  0
  2  5  1  0  0  0  0
  1  2  1  0  0  0  0
 22 23  2  0  0  0  0
 22 24  1  0  0  0  0
 18 19  1  0  0  0  0
 18 20  1  0  0  0  0
 18 21  1  0  0  0  0
 17 18  1  0  0  0  0
 14 15  1  0  0  0  0
 14 16  1  0  0  0  0
 14 17  1  0  0  0  0
 11 12  1  0  0  0  0
 11 13  1  0  0  0  0
 11 14  1  0  0  0  0
  9 10  1  0  0  0  0
  9 11  1  0  0  0  0
  9 22  1  0  0  0  0
  7  8  1  0  0  0  0
  7  9  1  0  0  0  0
 26 27  1  0  0  0  0
 26 28  1  0  0  0  0
 26 29  1  0  0  0  0
 24 25  1  0  0  0  0
 24 26  1  0  0  0  0
M  END
$$$$
default_name
  -OEChem-01062215323D

 29 28  0     1  0  0  0  0  0999 V2000
   -3.5781   -3.7296    1.2702 H   0  0  0  0  0  0  0  0  0  0  0  0
   -3.5311   -2.7616    0.7732 C   0  0  0  0  0  0  0  0  0  0  0  0
   -4.2371   -2.0766    1.2382 H   0  0  0  0  0  0  0  0  0  0  0  0
   -3.7681   -2.8816   -0.2818 H   0  0  0  0  0  0  0  0  0  0  0  0
   -2.1321   -2.2086    0.9112 C   0  0  0  0  0  0  0  0  0  0  0  0
   -1.2751   -2.8426    1.5112 O   0  0  0  0  0  0  0  0  0  0  0  0
   -1.9041   -1.0186    0.3602 N   0  0  0  0  0  0  0  0  0  0  0  0
   -2.6671   -0.5416   -0.0988 H   0  0  0  0  0  0  0  0  0  0  0  0
   -0.6131   -0.3236    0.3832 C   0  0  1  0  0  0  0  0  0  0  0  0
   -0.2714   -0.1901   -0.6444 H   0  0  0  0  0  0  0  0  0  0  0  0
   -0.8015    1.0686    1.0135 C   0  0  0  0  0  0  0  0  0  0  0  0
   -1.2666    0.9498    1.9945 H   0  0  0  0  0  0  0  0  0  0  0  0
    0.1746    1.5353    1.1533 H   0  0  0  0  0  0  0  0  0  0  0  0
   -1.6776    2.0068    0.1754 C   0  0  0  0  0  0  0  0  0  0  0  0
   -2.6638    1.5601    0.0526 H   0  0  0  0  0  0  0  0  0  0  0  0
   -1.7850    2.9533    0.7065 H   0  0  0  0  0  0  0  0  0  0  0  0
   -1.0064    2.3484   -1.4715 S   0  0  0  0  0  0  0  0  0  0  0  0
    0.4359    3.3461   -1.0174 C   0  0  0  0  0  0  0  0  0  0  0  0
    1.1035    2.7606   -0.3845 H   0  0  0  0  0  0  0  0  0  0  0  0
    0.9679    3.6446   -1.9210 H   0  0  0  0  0  0  0  0  0  0  0  0
    0.1117    4.2382   -0.4807 H   0  0  0  0  0  0  0  0  0  0  0  0
    0.4344   -1.1610    1.1307 C   0  0  0  0  0  0  0  0  0  0  0  0
    1.5856   -0.7462    1.2484 O   0  0  0  0  0  0  0  0  0  0  0  0
    0.0399   -2.3408    1.6268 N   0  0  0  0  0  0  0  0  0  0  0  0
   -0.9239   -2.6073    1.5042 H   0  0  0  0  0  0  0  0  0  0  0  0
    0.9203   -3.2581    2.3486 C   0  0  0  0  0  0  0  0  0  0  0  0
    1.3451   -2.7519    3.2186 H   0  0  0  0  0  0  0  0  0  0  0  0
    0.3649   -4.1365    2.6799 H   0  0  0  0  0  0  0  0  0  0  0  0
    1.7385   -3.5718    1.6979 H   0  0  0  0  0  0  0  0  0  0  0  0
  5  6  2  0  0  0  0
  5  7  1  0  0  0  0
  2  3  1  0  0  0  0
  2  4  1  0  0  0  0
  2  5  1  0  0  0  0
  1  2  1  0  0  0  0
 22 23  2  0  0  0  0
 22 24  1  0  0  0  0
 18 19  1  0  0  0  0
 18 20  1  0  0  0  0
 18 21  1  0  0  0  0
 17 18  1  0  0  0  0
 14 15  1  0  0  0  0
 14 16  1  0  0  0  0
 14 17  1  0  0  0  0
 11 12  1  0  0  0  0
 11 13  1  0  0  0  0
 11 14  1  0  0  0  0
  9 10  1  0  0  0  0
  9 11  1  0  0  0  0
  9 22  1  0  0  0  0
  7  8  1  0  0  0  0
  7  9  1  0  0  0  0
 26 27  1  0  0  0  0
 26 28  1  0  0  0  0
 26 29  1  0  0  0  0
 24 25  1  0  0  0  0
 24 26  1  0  0  0  0
M  END
$$$$
default_name
  -OEChem-01062215323D

 29 28  0     1  0  0  0  0  0999 V2000
   -3.5781   -3.7296    1.2702 H   0  0  0  0  0  0  0  0  0  0  0  0
   -3.5311   -2.7616    0.7732 C   0  0  0  0  0  0  0  0  0  0  0  0
   -4.2371   -2.0766    1.2382 H   0  0  0  0  0  0  0  0  0  0  0  0
   -3.7681   -2.8816   -0.2818 H   0  0  0  0  0  0  0  0  0  0  0  0
   -2.1321   -2.2086    0.9112 C   0  0  0  0  0  0  0  0  0  0  0  0
   -1.2751   -2.8426    1.5112 O   0  0  0  0  0  0  0  0  0  0  0  0
   -1.9041   -1.0186    0.3602 N   0  0  0  0  0  0  0  0  0  0  0  0
   -2.6671   -0.5416   -0.0988 H   0  0  0  0  0  0  0  0  0  0  0  0
   -0.6131   -0.3236    0.3832 C   0  0  1  0  0  0  0  0  0  0  0  0
   -0.2714   -0.1901   -0.6444 H   0  0  0  0  0  0  0  0  0  0  0  0
   -0.8015    1.0686    1.0135 C   0  0  0  0  0  0  0  0  0  0  0  0
   -1.2666    0.9498    1.9945 H   0  0  0  0  0  0  0  0  0  0  0  0
    0.1746    1.5353    1.1533 H   0  0  0  0  0  0  0  0  0  0  0  0
   -1.6776    2.0068    0.1754 C   0  0  0  0  0  0  0  0  0  0  0  0
   -2.6638    1.5601    0.0526 H   0  0  0  0  0  0  0  0  0  0  0  0
   -1.7850    2.9533    0.7065 H   0  0  0  0  0  0  0  0  0  0  0  0
   -1.0064    2.3484   -1.4715 S   0  0  0  0  0  0  0  0  0  0  0  0
    0.4359    3.3461   -1.0174 C   0  0  0  0  0  0  0  0  0  0  0  0
    1.1035    2.7606   -0.3845 H   0  0  0  0  0  0  0  0  0  0  0  0
    0.9679    3.6446   -1.9210 H   0  0  0  0  0  0  0  0  0  0  0  0
    0.1117    4.2382   -0.4807 H   0  0  0  0  0  0  0  0  0  0  0  0
    0.4344   -1.1610    1.1307 C   0  0  0  0  0  0  0  0  0  0  0  0
    1.4918   -0.6476    1.4904 O   0  0  0  0  0  0  0  0  0  0  0  0
    0.1463   -2.4493    1.3561 N   0  0  0  0  0  0  0  0  0  0  0  0
   -0.7471   -2.7959    1.0450 H   0  0  0  0  0  0  0  0  0  0  0  0
    1.0442   -3.3789    2.0397 C   0  0  0  0  0  0  0  0  0  0  0  0
    1.2781   -2.9982    3.0367 H   0  0  0  0  0  0  0  0  0  0  0  0
    0.5776   -4.3607    2.1305 H   0  0  0  0  0  0  0  0  0  0  0  0
    1.9755   -3.4716    1.4781 H   0  0  0  0  0  0  0  0  0  0  0  0
  5  6  2  0  0  0  0
  5  7  1  0  0  0  0
  2  3  1  0  0  0  0
  2  4  1  0  0  0  0
  2  5  1  0  0  0  0
  1  2  1  0  0  0  0
 22 23  2  0  0  0  0
 22 24  1  0  0  0  0
 18 19  1  0  0  0  0
 18 20  1  0  0  0  0
 18 21  1  0  0  0  0
 17 18  1  0  0  0  0
 14 15  1  0  0  0  0
 14 16  1  0  0  0  0
 14 17  1  0  0  0  0
 11 12  1  0  0  0  0
 11 13  1  0  0  0  0
 11 14  1  0  0  0  0
  9 10  1  0  0  0  0
  9 11  1  0  0  0  0
  9 22  1  0  0  0  0
  7  8  1  0  0  0  0
  7  9  1  0  0  0  0
 26 27  1  0  0  0  0
 26 28  1  0  0  0  0
 26 29  1  0  0  0  0
 24 25  1  0  0  0  0
 24 26  1  0  0  0  0
M  END
$$$$
default_name
  -OEChem-01062215323D

 29 28  0     1  0  0  0  0  0999 V2000
   -3.5781   -3.7296    1.2702 H   0  0  0  0  0  0  0  0  0  0  0  0
   -3.5311   -2.7616    0.7732 C   0  0  0  0  0  0  0  0  0  0  0  0
   -4.2371   -2.0766    1.2382 H   0  0  0  0  0  0  0  0  0  0  0  0
   -3.7681   -2.8816   -0.2818 H   0  0  0  0  0  0  0  0  0  0  0  0
   -2.1321   -2.2086    0.9112 C   0  0  0  0  0  0  0  0  0  0  0  0
   -1.2751   -2.8426    1.5112 O   0  0  0  0  0  0  0  0  0  0  0  0
   -1.9041   -1.0186    0.3602 N   0  0  0  0  0  0  0  0  0  0  0  0
   -2.6671   -0.5416   -0.0988 H   0  0  0  0  0  0  0  0  0  0  0  0
   -0.6131   -0.3236    0.3832 C   0  0  1  0  0  0  0  0  0  0  0  0
   -0.2714   -0.1901   -0.6444 H   0  0  0  0  0  0  0  0  0  0  0  0
   -0.8015    1.0686    1.0135 C   0  0  0  0  0  0  0  0  0  0  0  0
   -1.2666    0.9498    1.9945 H   0  0  0  0  0  0  0  0  0  0  0  0
    0.1746    1.5353    1.1533 H   0  0  0  0  0  0  0  0  0  0  0  0
   -1.6776    2.0068    0.1754 C   0  0  0  0  0  0  0  0  0  0  0  0
   -2.6638    1.5601    0.0526 H   0  0  0  0  0  0  0  0  0  0  0  0
   -1.7850    2.9533    0.7065 H   0  0  0  0  0  0  0  0  0  0  0  0
   -1.0064    2.3484   -1.4715 S   0  0  0  0  0  0  0  0  0  0  0  0
    0.4359    3.3461   -1.0174 C   0  0  0  0  0  0  0  0  0  0  0  0
    1.1035    2.7606   -0.3845 H   0  0  0  0  0  0  0  0  0  0  0  0
    0.9679    3.6446   -1.9210 H   0  0  0  0  0  0  0  0  0  0  0  0
    0.1117    4.2382   -0.4807 H   0  0  0  0  0  0  0  0  0  0  0  0
    0.4344   -1.1610    1.1307 C   0  0  0  0  0  0  0  0  0  0  0  0
    1.3546   -0.6068    1.7283 O   0  0  0  0  0  0  0  0  0  0  0  0
    0.3010   -2.4930    1.0905 N   0  0  0  0  0  0  0  0  0  0  0  0
   -0.4877   -2.8748    0.5932 H   0  0  0  0  0  0  0  0  0  0  0  0
    1.2226   -3.4255    1.7375 C   0  0  0  0  0  0  0  0  0  0  0  0
    1.2700   -3.2124    2.8080 H   0  0  0  0  0  0  0  0  0  0  0  0
    0.8889   -4.4535    1.5903 H   0  0  0  0  0  0  0  0  0  0  0  0
    2.2227   -3.3061    1.3170 H   0  0  0  0  0  0  0  0  0  0  0  0
  5  6  2  0  0  0  0
  5  7  1  0  0  0  0
  2  3  1  0  0  0  0
  2  4  1  0  0  0  0
  2  5  1  0  0  0  0
  1  2  1  0  0  0  0
 22 23  2  0  0  0  0
 22 24  1  0  0  0  0
 18 19  1  0  0  0  0
 18 20  1  0  0  0  0
 18 21  1  0  0  0  0
 17 18  1  0  0  0  0
 14 15  1  0  0  0  0
 14 16  1  0  0  0  0
 14 17  1  0  0  0  0
 11 12  1  0  0  0  0
 11 13  1  0  0  0  0
 11 14  1  0  0  0  0
  9 10  1  0  0  0  0
  9 11  1  0  0  0  0
  9 22  1  0  0  0  0
  7  8  1  0  0  0  0
  7  9  1  0  0  0  0
 26 27  1  0  0  0  0
 26 28  1  0  0  0  0
 26 29  1  0  0  0  0
 24 25  1  0  0  0  0
 24 26  1  0  0  0  0
M  END
$$$$
default_name
  -OEChem-01062215323D

 29 28  0     1  0  0  0  0  0999 V2000
   -3.5781   -3.7296    1.2702 H   0  0  0  0  0  0  0  0  0  0  0  0
   -3.5311   -2.7616    0.7732 C   0  0  0  0  0  0  0  0  0  0  0  0
   -4.2371   -2.0766    1.2382 H   0  0  0  0  0  0  0  0  0  0  0  0
   -3.7681   -2.8816   -0.2818 H   0  0  0  0  0  0  0  0  0  0  0  0
   -2.1321   -2.2086    0.9112 C   0  0  0  0  0  0  0  0  0  0  0  0
   -1.2751   -2.8426    1.5112 O   0  0  0  0  0  0  0  0  0  0  0  0
   -1.9041   -1.0186    0.3602 N   0  0  0  0  0  0  0  0  0  0  0  0
   -2.6671   -0.5416   -0.0988 H   0  0  0  0  0  0  0  0  0  0  0  0
   -0.6131   -0.3236    0.3832 C   0  0  1  0  0  0  0  0  0  0  0  0
   -0.2714   -0.1901   -0.6444 H   0  0  0  0  0  0  0  0  0  0  0  0
   -0.8015    1.0686    1.0135 C   0  0  0  0  0  0  0  0  0  0  0  0
   -1.2666    0.9498    1.9945 H   0  0  0  0  0  0  0  0  0  0  0  0
    0.1746    1.5353    1.1533 H   0  0  0  0  0  0  0  0  0  0  0  0
   -1.6776    2.0068    0.1754 C   0  0  0  0  0  0  0  0  0  0  0  0
   -2.6638    1.5601    0.0526 H   0  0  0  0  0  0  0  0  0  0  0  0
   -1.7850    2.9533    0.7065 H   0  0  0  0  0  0  0  0  0  0  0  0
   -1.0064    2.3484   -1.4715 S   0  0  0  0  0  0  0  0  0  0  0  0
    0.4359    3.3461   -1.0174 C   0  0  0  0  0  0  0  0  0  0  0  0
    1.1035    2.7606   -0.3845 H   0  0  0  0  0  0  0  0  0  0  0  0
    0.9679    3.6446   -1.9210 H   0  0  0  0  0  0  0  0  0  0  0  0
    0.1117    4.2382   -0.4807 H   0  0  0  0  0  0  0  0  0  0  0  0
    0.4344   -1.1610    1.1307 C   0  0  0  0  0  0  0  0  0  0  0  0
    1.1834   -0.6267    1.9460 O   0  0  0  0  0  0  0  0  0  0  0  0
    0.4933   -2.4687    0.8480 N   0  0  0  0  0  0  0  0  0  0  0  0
   -0.1635   -2.8385    0.1795 H   0  0  0  0  0  0  0  0  0  0  0  0
    1.4435   -3.3946    1.4626 C   0  0  0  0  0  0  0  0  0  0  0  0
    1.3214   -3.3800    2.5482 H   0  0  0  0  0  0  0  0  0  0  0  0
    1.2776   -4.4085    1.0961 H   0  0  0  0  0  0  0  0  0  0  0  0
    2.4635   -3.0867    1.2255 H   0  0  0  0  0  0  0  0  0  0  0  0
  5  6  2  0  0  0  0
  5  7  1  0  0  0  0
  2  3  1  0  0  0  0
  2  4  1  0  0  0  0
  2  5  1  0  0  0  0
  1  2  1  0  0  0  0
 22 23  2  0  0  0  0
 22 24  1  0  0  0  0
 18 19  1  0  0  0  0
 18 20  1  0  0  0  0
 18 21  1  0  0  0  0
 17 18  1  0  0  0  0
 14 15  1  0  0  0  0
 14 16  1  0  0  0  0
 14 17  1  0  0  0  0
 11 12  1  0  0  0  0
 11 13  1  0  0  0  0
 11 14  1  0  0  0  0
  9 10  1  0  0  0  0
  9 11  1  0  0  0  0
  9 22  1  0  0  0  0
  7  8  1  0  0  0  0
  7  9  1  0  0  0  0
 26 27  1  0  0  0  0
 26 28  1  0  0  0  0
 26 29  1  0  0  0  0
 24 25  1  0  0  0  0
 24 26  1  0  0  0  0
M  END
$$$$
default_name
  -OEChem-01062215323D

 29 28  0     1  0  0  0  0  0999 V2000
   -3.5781   -3.7296    1.2702 H   0  0  0  0  0  0  0  0  0  0  0  0
   -3.5311   -2.7616    0.7732 C   0  0  0  0  0  0  0  0  0  0  0  0
   -4.2371   -2.0766    1.2382 H   0  0  0  0  0  0  0  0  0  0  0  0
   -3.7681   -2.8816   -0.2818 H   0  0  0  0  0  0  0  0  0  0  0  0
   -2.1321   -2.2086    0.9112 C   0  0  0  0  0  0  0  0  0  0  0  0
   -1.2751   -2.8426    1.5112 O   0  0  0  0  0  0  0  0  0  0  0  0
   -1.9041   -1.0186    0.3602 N   0  0  0  0  0  0  0  0  0  0  0  0
   -2.6671   -0.5416   -0.0988 H   0  0  0  0  0  0  0  0  0  0  0  0
   -0.6131   -0.3236    0.3832 C   0  0  1  0  0  0  0  0  0  0  0  0
   -0.2714   -0.1901   -0.6444 H   0  0  0  0  0  0  0  0  0  0  0  0
   -0.8015    1.0686    1.0135 C   0  0  0  0  0  0  0  0  0  0  0  0
   -1.2666    0.9498    1.9945 H   0  0  0  0  0  0  0  0  0  0  0  0
    0.1746    1.5353    1.1533 H   0  0  0  0  0  0  0  0  0  0  0  0
   -1.6776    2.0068    0.1754 C   0  0  0  0  0  0  0  0  0  0  0  0
   -2.6638    1.5601    0.0526 H   0  0  0  0  0  0  0  0  0  0  0  0
   -1.7850    2.9533    0.7065 H   0  0  0  0  0  0  0  0  0  0  0  0
   -1.0064    2.3484   -1.4715 S   0  0  0  0  0  0  0  0  0  0  0  0
    0.4359    3.3461   -1.0174 C   0  0  0  0  0  0  0  0  0  0  0  0
    1.1035    2.7606   -0.3845 H   0  0  0  0  0  0  0  0  0  0  0  0
    0.9679    3.6446   -1.9210 H   0  0  0  0  0  0  0  0  0  0  0  0
    0.1117    4.2382   -0.4807 H   0  0  0  0  0  0  0  0  0  0  0  0
    0.4344   -1.1610    1.1307 C   0  0  0  0  0  0  0  0  0  0  0  0
    0.9898   -0.7060    2.1285 O   0  0  0  0  0  0  0  0  0  0  0  0
    0.7103   -2.3783    0.6453 N   0  0  0  0  0  0  0  0  0  0  0  0
    0.2036   -2.6895   -0.1680 H   0  0  0  0  0  0  0  0  0  0  0  0
    1.6918   -3.2884    1.2336 C   0  0  0  0  0  0  0  0  0  0  0  0
    1.4289   -3.4894    2.2749 H   0  0  0  0  0  0  0  0  0  0  0  0
    1.7171   -4.2288    0.6815 H   0  0  0  0  0  0  0  0  0  0  0  0
    2.6813   -2.8283    1.2099 H   0  0  0  0  0  0  0  0  0  0  0  0
  5  6  2  0  0  0  0
  5  7  1  0  0  0  0
  2  3  1  0  0  0  0
  2  4  1  0  0  0  0
  2  5  1  0  0  0  0
  1  2  1  0  0  0  0
 22 23  2  0  0  0  0
 22 24  1  0  0  0  0
 18 19  1  0  0  0  0
 18 20  1  0  0  0  0
 18 21  1  0  0  0  0
 17 18  1  0  0  0  0
 14 15  1  0  0  0  0
 14 16  1  0  0  0  0
 14 17  1  0  0  0  0
 11 12  1  0  0  0  0
 11 13  1  0  0  0  0
 11 14  1  0  0  0  0
  9 10  1  0  0  0  0
  9 11  1  0  0  0  0
  9 22  1  0  0  0  0
  7  8  1  0  0  0  0
  7  9  1  0  0  0  0
 26 27  1  0  0  0  0
 26 28  1  0  0  0  0
 26 29  1  0  0  0  0
 24 25  1  0  0  0  0
 24 26  1  0  0  0  0
M  END
$$$$
default_name
  -OEChem-01062215323D

 29 28  0     1  0  0  0  0  0999 V2000
   -3.5781   -3.7296    1.2702 H   0  0  0  0  0  0  0  0  0  0  0  0
   -3.5311   -2.7616    0.7732 C   0  0  0  0  0  0  0  0  0  0  0  0
   -4.2371   -2.0766    1.2382 H   0  0  0  0  0  0  0  0  0  0  0  0
   -3.7681   -2.8816   -0.2818 H   0  0  0  0  0  0  0  0  0  0  0  0
   -2.1321   -2.2086    0.9112 C   0  0  0  0  0  0  0  0  0  0  0  0
   -1.2751   -2.8426    1.5112 O   0  0  0  0  0  0  0  0  0  0  0  0
   -1.9041   -1.0186    0.3602 N   0  0  0  0  0  0  0  0  0  0  0  0
   -2.6671   -0.5416   -0.0988 H   0  0  0  0  0  0  0  0  0  0  0  0
   -0.6131   -0.3236    0.3832 C   0  0  1  0  0  0  0  0  0  0  0  0
   -0.2714   -0.1901   -0.6444 H   0  0  0  0  0  0  0  0  0  0  0  0
   -0.8015    1.0686    1.0135 C   0  0  0  0  0  0  0  0  0  0  0  0
   -1.2666    0.9498    1.9945 H   0  0  0  0  0  0  0  0  0  0  0  0
    0.1746    1.5353    1.1533 H   0  0  0  0  0  0  0  0  0  0  0  0
   -1.6776    2.0068    0.1754 C   0  0  0  0  0  0  0  0  0  0  0  0
   -2.6638    1.5601    0.0526 H   0  0  0  0  0  0  0  0  0  0  0  0
   -1.7850    2.9533    0.7065 H   0  0  0  0  0  0  0  0  0  0  0  0
   -1.0064    2.3484   -1.4715 S   0  0  0  0  0  0  0  0  0  0  0  0
    0.4359    3.3461   -1.0174 C   0  0  0  0  0  0  0  0  0  0  0  0
    1.1035    2.7606   -0.3845 H   0  0  0  0  0  0  0  0  0  0  0  0
    0.9679    3.6446   -1.9210 H   0  0  0  0  0  0  0  0  0  0  0  0
    0.1117    4.2382   -0.4807 H   0  0  0  0  0  0  0  0  0  0  0  0
    0.4344   -1.1610    1.1307 C   0  0  0  0  0  0  0  0  0  0  0  0
    0.7870   -0.8391    2.2635 O   0  0  0  0  0  0  0  0  0  0  0  0
    0.9371   -2.2278    0.4960 N   0  0  0  0  0  0  0  0  0  0  0  0
    0.5884   -2.4380   -0.4255 H   0  0  0  0  0  0  0  0  0  0  0  0
    1.9506   -3.1141    1.0663 C   0  0  0  0  0  0  0  0  0  0  0  0
    1.5852   -3.5334    2.0067 H   0  0  0  0  0  0  0  0  0  0  0  0
    2.1775   -3.9266    0.3749 H   0  0  0  0  0  0  0  0  0  0  0  0
    2.8613   -2.5484    1.2711 H   0  0  0  0  0  0  0  0  0  0  0  0
  5  6  2  0  0  0  0
  5  7  1  0  0  0  0
  2  3  1  0  0  0  0
  2  4  1  0  0  0  0
  2  5  1  0  0  0  0
  1  2  1  0  0  0  0
 22 23  2  0  0  0  0
 22 24  1  0  0  0  0
 18 19  1  0  0  0  0
 18 20  1  0  0  0  0
 18 21  1  0  0  0  0
 17 18  1  0  0  0  0
 14 15  1  0  0  0  0
 14 16  1  0  0  0  0
 14 17  1  0  0  0  0
 11 12  1  0  0  0  0
 11 13  1  0  0  0  0
 11 14  1  0  0  0  0
  9 10  1  0  0  0  0
  9 11  1  0  0  0  0
  9 22  1  0  0  0  0
  7  8  1  0  0  0  0
  7  9  1  0  0  0  0
 26 27  1  0  0  0  0
 26 28  1  0  0  0  0
 26 29  1  0  0  0  0
 24 25  1  0  0  0  0
 24 26  1  0  0  0  0
M  END
$$$$
default_name
  -OEChem-01062215323D

 29 28  0     1  0  0  0  0  0999 V2000
   -3.5781   -3.7296    1.2702 H   0  0  0  0  0  0  0  0  0  0  0  0
   -3.5311   -2.7616    0.7732 C   0  0  0  0  0  0  0  0  0  0  0  0
   -4.2371   -2.0766    1.2382 H   0  0  0  0  0  0  0  0  0  0  0  0
   -3.7681   -2.8816   -0.2818 H   0  0  0  0  0  0  0  0  0  0  0  0
   -2.1321   -2.2086    0.9112 C   0  0  0  0  0  0  0  0  0  0  0  0
   -1.2751   -2.8426    1.5112 O   0  0  0  0  0  0  0  0  0  0  0  0
   -1.9041   -1.0186    0.3602 N   0  0  0  0  0  0  0  0  0  0  0  0
   -2.6671   -0.5416   -0.0988 H   0  0  0  0  0  0  0  0  0  0  0  0
   -0.6131   -0.3236    0.3832 C   0  0  1  0  0  0  0  0  0  0  0  0
   -0.2714   -0.1901   -0.6444 H   0  0  0  0  0  0  0  0  0  0  0  0
   -0.8015    1.0686    1.0135 C   0  0  0  0  0  0  0  0  0  0  0  0
   -1.2666    0.9498    1.9945 H   0  0  0  0  0  0  0  0  0  0  0  0
    0.1746    1.5353    1.1533 H   0  0  0  0  0  0  0  0  0  0  0  0
   -1.6776    2.0068    0.1754 C   0  0  0  0  0  0  0  0  0  0  0  0
   -2.6638    1.5601    0.0526 H   0  0  0  0  0  0  0  0  0  0  0  0
   -1.7850    2.9533    0.7065 H   0  0  0  0  0  0  0  0  0  0  0  0
   -1.0064    2.3484   -1.4715 S   0  0  0  0  0  0  0  0  0  0  0  0
    0.4359    3.3461   -1.0174 C   0  0  0  0  0  0  0  0  0  0  0  0
    1.1035    2.7606   -0.3845 H   0  0  0  0  0  0  0  0  0  0  0  0
    0.9679    3.6446   -1.9210 H   0  0  0  0  0  0  0  0  0  0  0  0
    0.1117    4.2382   -0.4807 H   0  0  0  0  0  0  0  0  0  0  0  0
    0.4344   -1.1610    1.1307 C   0  0  0  0  0  0  0  0  0  0  0  0
    0.5888   -1.0172    2.3417 O   0  0  0  0  0  0  0  0  0  0  0  0
    1.1583   -2.0275    0.4105 N   0  0  0  0  0  0  0  0  0  0  0  0
    0.9648   -2.1011   -0.5755 H   0  0  0  0  0  0  0  0  0  0  0  0
    2.2022   -2.8836    0.9720 C   0  0  0  0  0  0  0  0  0  0  0  0
    1.7795   -3.5088    1.7620 H   0  0  0  0  0  0  0  0  0  0  0  0
    2.6275   -3.5226    0.1970 H   0  0  0  0  0  0  0  0  0  0  0  0
    2.9912   -2.2663    1.4051 H   0  0  0  0  0  0  0  0  0  0  0  0
  5  6  2  0  0  0  0
  5  7  1  0  0  0  0
  2  3  1  0  0  0  0
  2  4  1  0  0  0  0
  2  5  1  0  0  0  0
  1  2  1  0  0  0  0
 22 23  2  0  0  0  0
 22 24  1  0  0  0  0
 18 19  1  0  0  0  0
 18 20  1  0  0  0  0
 18 21  1  0  0  0  0
 17 18  1  0  0  0  0
 14 15  1  0  0  0  0
 14 16  1  0  0  0  0
 14 17  1  0  0  0  0
 11 12  1  0  0  0  0
 11 13  1  0  0  0  0
 11 14  1  0  0  0  0
  9 10  1  0  0  0  0
  9 11  1  0  0  0  0
  9 22  1  0  0  0  0
  7  8  1  0  0  0  0
  7  9  1  0  0  0  0
 26 27  1  0  0  0  0
 26 28  1  0  0  0  0
 26 29  1  0  0  0  0
 24 25  1  0  0  0  0
 24 26  1  0  0  0  0
M  END
$$$$
default_name
  -OEChem-01062215323D

 29 28  0     1  0  0  0  0  0999 V2000
   -3.5781   -3.7296    1.2702 H   0  0  0  0  0  0  0  0  0  0  0  0
   -3.5311   -2.7616    0.7732 C   0  0  0  0  0  0  0  0  0  0  0  0
   -4.2371   -2.0766    1.2382 H   0  0  0  0  0  0  0  0  0  0  0  0
   -3.7681   -2.8816   -0.2818 H   0  0  0  0  0  0  0  0  0  0  0  0
   -2.1321   -2.2086    0.9112 C   0  0  0  0  0  0  0  0  0  0  0  0
   -1.2751   -2.8426    1.5112 O   0  0  0  0  0  0  0  0  0  0  0  0
   -1.9041   -1.0186    0.3602 N   0  0  0  0  0  0  0  0  0  0  0  0
   -2.6671   -0.5416   -0.0988 H   0  0  0  0  0  0  0  0  0  0  0  0
   -0.6131   -0.3236    0.3832 C   0  0  1  0  0  0  0  0  0  0  0  0
   -0.2714   -0.1901   -0.6444 H   0  0  0  0  0  0  0  0  0  0  0  0
   -0.8015    1.0686    1.0135 C   0  0  0  0  0  0  0  0  0  0  0  0
   -1.2666    0.9498    1.9945 H   0  0  0  0  0  0  0  0  0  0  0  0
    0.1746    1.5353    1.1533 H   0  0  0  0  0  0  0  0  0  0  0  0
   -1.6776    2.0068    0.1754 C   0  0  0  0  0  0  0  0  0  0  0  0
   -2.6638    1.5601    0.0526 H   0  0  0  0  0  0  0  0  0  0  0  0
   -1.7850    2.9533    0.7065 H   0  0  0  0  0  0  0  0  0  0  0  0
   -1.0064    2.3484   -1.4715 S   0  0  0  0  0  0  0  0  0  0  0  0
    0.4359    3.3461   -1.0174 C   0  0  0  0  0  0  0  0  0  0  0  0
    1.1035    2.7606   -0.3845 H   0  0  0  0  0  0  0  0  0  0  0  0
    0.9679    3.6446   -1.9210 H   0  0  0  0  0  0  0  0  0  0  0  0
    0.1117    4.2382   -0.4807 H   0  0  0  0  0  0  0  0  0  0  0  0
    0.4344   -1.1610    1.1307 C   0  0  0  0  0  0  0  0  0  0  0  0
    0.4088   -1.2279    2.3579 O   0  0  0  0  0  0  0  0  0  0  0  0
    1.3588   -1.7910    0.3945 N   0  0  0  0  0  0  0  0  0  0  0  0
    1.3071   -1.7018   -0.6078 H   0  0  0  0  0  0  0  0  0  0  0  0
    2.4295   -2.6125    0.9571 C   0  0  0  0  0  0  0  0  0  0  0  0
    1.9986   -3.4174    1.5573 H   0  0  0  0  0  0  0  0  0  0  0  0
    3.0363   -3.0442    0.1601 H   0  0  0  0  0  0  0  0  0  0  0  0
    3.0623   -2.0010    1.6027 H   0  0  0  0  0  0  0  0  0  0  0  0
  5  6  2  0  0  0  0
  5  7  1  0  0  0  0
  2  3  1  0  0  0  0
  2  4  1  0  0  0  0
  2  5  1  0  0  0  0
  1  2  1  0  0  0  0
 22 23  2  0  0  0  0
 22 24  1  0  0  0  0
 18 19  1  0  0  0  0
 18 20  1  0  0  0  0
 18 21  1  0  0  0  0
 17 18  1  0  0  0  0
 14 15  1  0  0  0  0
 14 16  1  0  0  0  0
 14 17  1  0  0  0  0
 11 12  1  0  0  0  0
 11 13  1  0  0  0  0
 11 14  1  0  0  0  0
  9 10  1  0  0  0  0
  9 11  1  0  0  0  0
  9 22  1  0  0  0  0
  7  8  1  0  0  0  0
  7  9  1  0  0  0  0
 26 27  1  0  0  0  0
 26 28  1  0  0  0  0
 26 29  1  0  0  0  0
 24 25  1  0  0  0  0
 24 26  1  0  0  0  0
M  END
$$$$
default_name
  -OEChem-01062215323D

 29 28  0     1  0  0  0  0  0999 V2000
   -3.5781   -3.7296    1.2702 H   0  0  0  0  0  0  0  0  0  0  0  0
   -3.5311   -2.7616    0.7732 C   0  0  0  0  0  0  0  0  0  0  0  0
   -4.2371   -2.0766    1.2382 H   0  0  0  0  0  0  0  0  0  0  0  0
   -3.7681   -2.8816   -0.2818 H   0  0  0  0  0  0  0  0  0  0  0  0
   -2.1321   -2.2086    0.9112 C   0  0  0  0  0  0  0  0  0  0  0  0
   -1.2751   -2.8426    1.5112 O   0  0  0  0  0  0  0  0  0  0  0  0
   -1.9041   -1.0186    0.3602 N   0  0  0  0  0  0  0  0  0  0  0  0
   -2.6671   -0.5416   -0.0988 H   0  0  0  0  0  0  0  0  0  0  0  0
   -0.6131   -0.3236    0.3832 C   0  0  1  0  0  0  0  0  0  0  0  0
   -0.2714   -0.1901   -0.6444 H   0  0  0  0  0  0  0  0  0  0  0  0
   -0.8015    1.0686    1.0135 C   0  0  0  0  0  0  0  0  0  0  0  0
   -1.2666    0.9498    1.9945 H   0  0  0  0  0  0  0  0  0  0  0  0
    0.1746    1.5353    1.1533 H   0  0  0  0  0  0  0  0  0  0  0  0
   -1.6776    2.0068    0.1754 C   0  0  0  0  0  0  0  0  0  0  0  0
   -2.6638    1.5601    0.0526 H   0  0  0  0  0  0  0  0  0  0  0  0
   -1.7850    2.9533    0.7065 H   0  0  0  0  0  0  0  0  0  0  0  0
   -1.0064    2.3484   -1.4715 S   0  0  0  0  0  0  0  0  0  0  0  0
    0.4359    3.3461   -1.0174 C   0  0  0  0  0  0  0  0  0  0  0  0
    1.1035    2.7606   -0.3845 H   0  0  0  0  0  0  0  0  0  0  0  0
    0.9679    3.6446   -1.9210 H   0  0  0  0  0  0  0  0  0  0  0  0
    0.1117    4.2382   -0.4807 H   0  0  0  0  0  0  0  0  0  0  0  0
    0.4344   -1.1610    1.1307 C   0  0  0  0  0  0  0  0  0  0  0  0
    0.2592   -1.4570    2.3109 O   0  0  0  0  0  0  0  0  0  0  0  0
    1.5250   -1.5345    0.4490 N   0  0  0  0  0  0  0  0  0  0  0  0
    1.5919   -1.2673   -0.5201 H   0  0  0  0  0  0  0  0  0  0  0  0
    2.6170   -2.3195    1.0227 C   0  0  0  0  0  0  0  0  0  0  0  0
    2.2276   -3.2653    1.4068 H   0  0  0  0  0  0  0  0  0  0  0  0
    3.3761   -2.5241    0.2666 H   0  0  0  0  0  0  0  0  0  0  0  0
    3.0697   -1.7707    1.8505 H   0  0  0  0  0  0  0  0  0  0  0  0
  5  6  2  0  0  0  0
  5  7  1  0  0  0  0
  2  3  1  0  0  0  0
  2  4  1  0  0  0  0
  2  5  1  0  0  0  0
  1  2  1  0  0  0  0
 22 23  2  0  0  0  0
 22 24  1  0  0  0  0
 18 19  1  0  0  0  0
 18 20  1  0  0  0  0
 18 21  1  0  0  0  0
 17 18  1  0  0  0  0
 14 15  1  0  0  0  0
 14 16  1  0  0  0  0
 14 17  1  0  0  0  0
 11 12  1  0  0  0  0
 11 13  1  0  0  0  0
 11 14  1  0  0  0  0
  9 10  1  0  0  0  0
  9 11  1  0  0  0  0
  9 22  1  0  0  0  0
  7  8  1  0  0  0  0
  7  9  1  0  0  0  0
 26 27  1  0  0  0  0
 26 28  1  0  0  0  0
 26 29  1  0  0  0  0
 24 25  1  0  0  0  0
 24 26  1  0  0  0  0
M  END
$$$$
default_name
  -OEChem-01062215323D

 29 28  0     1  0  0  0  0  0999 V2000
   -3.5781   -3.7296    1.2702 H   0  0  0  0  0  0  0  0  0  0  0  0
   -3.5311   -2.7616    0.7732 C   0  0  0  0  0  0  0  0  0  0  0  0
   -4.2371   -2.0766    1.2382 H   0  0  0  0  0  0  0  0  0  0  0  0
   -3.7681   -2.8816   -0.2818 H   0  0  0  0  0  0  0  0  0  0  0  0
   -2.1321   -2.2086    0.9112 C   0  0  0  0  0  0  0  0  0  0  0  0
   -1.2751   -2.8426    1.5112 O   0  0  0  0  0  0  0  0  0  0  0  0
   -1.9041   -1.0186    0.3602 N   0  0  0  0  0  0  0  0  0  0  0  0
   -2.6671   -0.5416   -0.0988 H   0  0  0  0  0  0  0  0  0  0  0  0
   -0.6131   -0.3236    0.3832 C   0  0  1  0  0  0  0  0  0  0  0  0
   -0.2714   -0.1901   -0.6444 H   0  0  0  0  0  0  0  0  0  0  0  0
   -0.8015    1.0686    1.0135 C   0  0  0  0  0  0  0  0  0  0  0  0
   -1.2666    0.9498    1.9945 H   0  0  0  0  0  0  0  0  0  0  0  0
    0.1746    1.5353    1.1533 H   0  0  0  0  0  0  0  0  0  0  0  0
   -1.6776    2.0068    0.1754 C   0  0  0  0  0  0  0  0  0  0  0  0
   -2.6638    1.5601    0.0526 H   0  0  0  0  0  0  0  0  0  0  0  0
   -1.7850    2.9533    0.7065 H   0  0  0  0  0  0  0  0  0  0  0  0
   -1.0064    2.3484   -1.4715 S   0  0  0  0  0  0  0  0  0  0  0  0
    0.4359    3.3461   -1.0174 C   0  0  0  0  0  0  0  0  0  0  0  0
    1.1035    2.7606   -0.3845 H   0  0  0  0  0  0  0  0  0  0  0  0
    0.9679    3.6446   -1.9210 H   0  0  0  0  0  0  0  0  0  0  0  0
    0.1117    4.2382   -0.4807 H   0  0  0  0  0  0  0  0  0  0  0  0
    0.4344   -1.1610    1.1307 C   0  0  0  0  0  0  0  0  0  0  0  0
    0.1502   -1.6889    2.2039 O   0  0  0  0  0  0  0  0  0  0  0  0
    1.6454   -1.2754    0.5705 N   0  0  0  0  0  0  0  0  0  0  0  0
    1.7999   -0.8271   -0.3185 H   0  0  0  0  0  0  0  0  0  0  0  0
    2.7519   -2.0244    1.1642 C   0  0  0  0  0  0  0  0  0  0  0  0
    2.4509   -3.0629    1.3205 H   0  0  0  0  0  0  0  0  0  0  0  0
    3.6238   -1.9977    0.5093 H   0  0  0  0  0  0  0  0  0  0  0  0
    3.0127   -1.5911    2.1315 H   0  0  0  0  0  0  0  0  0  0  0  0
  5  6  2  0  0  0  0
  5  7  1  0  0  0  0
  2  3  1  0  0  0  0
  2  4  1  0  0  0  0
  2  5  1  0  0  0  0
  1  2  1  0  0  0  0
 22 23  2  0  0  0  0
 22 24  1  0  0  0  0
 18 19  1  0  0  0  0
 18 20  1  0  0  0  0
 18 21  1  0  0  0  0
 17 18  1  0  0  0  0
 14 15  1  0  0  0  0
 14 16  1  0  0  0  0
 14 17  1  0  0  0  0
 11 12  1  0  0  0  0
 11 13  1  0  0  0  0
 11 14  1  0  0  0  0
  9 10  1  0  0  0  0
  9 11  1  0  0  0  0
  9 22  1  0  0  0  0
  7  8  1  0  0  0  0
  7  9  1  0  0  0  0
 26 27  1  0  0  0  0
 26 28  1  0  0  0  0
 26 29  1  0  0  0  0
 24 25  1  0  0  0  0
 24 26  1  0  0  0  0
M  END
$$$$
default_name
  -OEChem-01062215323D

 29 28  0     1  0  0  0  0  0999 V2000
   -3.5781   -3.7296    1.2702 H   0  0  0  0  0  0  0  0  0  0  0  0
   -3.5311   -2.7616    0.7732 C   0  0  0  0  0  0  0  0  0  0  0  0
   -4.2371   -2.0766    1.2382 H   0  0  0  0  0  0  0  0  0  0  0  0
   -3.7681   -2.8816   -0.2818 H   0  0  0  0  0  0  0  0  0  0  0  0
   -2.1321   -2.2086    0.9112 C   0  0  0  0  0  0  0  0  0  0  0  0
   -1.2751   -2.8426    1.5112 O   0  0  0  0  0  0  0  0  0  0  0  0
   -1.9041   -1.0186    0.3602 N   0  0  0  0  0  0  0  0  0  0  0  0
   -2.6671   -0.5416   -0.0988 H   0  0  0  0  0  0  0  0  0  0  0  0
   -0.6131   -0.3236    0.3832 C   0  0  1  0  0  0  0  0  0  0  0  0
   -0.2714   -0.1901   -0.6444 H   0  0  0  0  0  0  0  0  0  0  0  0
   -0.8015    1.0686    1.0135 C   0  0  0  0  0  0  0  0  0  0  0  0
   -1.2666    0.9498    1.9945 H   0  0  0  0  0  0  0  0  0  0  0  0
    0.1746    1.5353    1.1533 H   0  0  0  0  0  0  0  0  0  0  0  0
   -1.6776    2.0068    0.1754 C   0  0  0  0  0  0  0  0  0  0  0  0
   -2.6638    1.5601    0.0526 H   0  0  0  0  0  0  0  0  0  0  0  0
   -1.7850    2.9533    0.7065 H   0  0  0  0  0  0  0  0  0  0  0  0
   -1.0064    2.3484   -1.4715 S   0  0  0  0  0  0  0  0  0  0  0  0
    0.4359    3.3461   -1.0174 C   0  0  0  0  0  0  0  0  0  0  0  0
    1.1035    2.7606   -0.3845 H   0  0  0  0  0  0  0  0  0  0  0  0
    0.9679    3.6446   -1.9210 H   0  0  0  0  0  0  0  0  0  0  0  0
    0.1117    4.2382   -0.4807 H   0  0  0  0  0  0  0  0  0  0  0  0
    0.4344   -1.1610    1.1307 C   0  0  0  0  0  0  0  0  0  0  0  0
    0.0892   -1.9077    2.0442 O   0  0  0  0  0  0  0  0  0  0  0  0
    1.7120   -1.0315    0.7506 N   0  0  0  0  0  0  0  0  0  0  0  0
    1.9169   -0.4114   -0.0166 H   0  0  0  0  0  0  0  0  0  0  0  0
    2.8251   -1.7473    1.3721 C   0  0  0  0  0  0  0  0  0  0  0  0
    2.6533   -2.8241    1.3045 H   0  0  0  0  0  0  0  0  0  0  0  0
    3.7624   -1.5009    0.8716 H   0  0  0  0  0  0  0  0  0  0  0  0
    2.8955   -1.4744    2.4266 H   0  0  0  0  0  0  0  0  0  0  0  0
  5  6  2  0  0  0  0
  5  7  1  0  0  0  0
  2  3  1  0  0  0  0
  2  4  1  0  0  0  0
  2  5  1  0  0  0  0
  1  2  1  0  0  0  0
 22 23  2  0  0  0  0
 22 24  1  0  0  0  0
 18 19  1  0  0  0  0
 18 20  1  0  0  0  0
 18 21  1  0  0  0  0
 17 18  1  0  0  0  0
 14 15  1  0  0  0  0
 14 16  1  0  0  0  0
 14 17  1  0  0  0  0
 11 12  1  0  0  0  0
 11 13  1  0  0  0  0
 11 14  1  0  0  0  0
  9 10  1  0  0  0  0
  9 11  1  0  0  0  0
  9 22  1  0  0  0  0
  7  8  1  0  0  0  0
  7  9  1  0  0  0  0
 26 27  1  0  0  0  0
 26 28  1  0  0  0  0
 26 29  1  0  0  0  0
 24 25  1  0  0  0  0
 24 26  1  0  0  0  0
M  END
$$$$
default_name
  -OEChem-01062215323D

 29 28  0     1  0  0  0  0  0999 V2000
   -3.5781   -3.7296    1.2702 H   0  0  0  0  0  0  0  0  0  0  0  0
   -3.5311   -2.7616    0.7732 C   0  0  0  0  0  0  0  0  0  0  0  0
   -4.2371   -2.0766    1.2382 H   0  0  0  0  0  0  0  0  0  0  0  0
   -3.7681   -2.8816   -0.2818 H   0  0  0  0  0  0  0  0  0  0  0  0
   -2.1321   -2.2086    0.9112 C   0  0  0  0  0  0  0  0  0  0  0  0
   -1.2751   -2.8426    1.5112 O   0  0  0  0  0  0  0  0  0  0  0  0
   -1.9041   -1.0186    0.3602 N   0  0  0  0  0  0  0  0  0  0  0  0
   -2.6671   -0.5416   -0.0988 H   0  0  0  0  0  0  0  0  0  0  0  0
   -0.6131   -0.3236    0.3832 C   0  0  1  0  0  0  0  0  0  0  0  0
   -0.2714   -0.1901   -0.6444 H   0  0  0  0  0  0  0  0  0  0  0  0
   -0.8015    1.0686    1.0135 C   0  0  0  0  0  0  0  0  0  0  0  0
   -1.2666    0.9498    1.9945 H   0  0  0  0  0  0  0  0  0  0  0  0
    0.1746    1.5353    1.1533 H   0  0  0  0  0  0  0  0  0  0  0  0
   -1.6776    2.0068    0.1754 C   0  0  0  0  0  0  0  0  0  0  0  0
   -2.6638    1.5601    0.0526 H   0  0  0  0  0  0  0  0  0  0  0  0
   -1.7850    2.9533    0.7065 H   0  0  0  0  0  0  0  0  0  0  0  0
   -1.0064    2.3484   -1.4715 S   0  0  0  0  0  0  0  0  0  0  0  0
    0.4359    3.3461   -1.0174 C   0  0  0  0  0  0  0  0  0  0  0  0
    1.1035    2.7606   -0.3845 H   0  0  0  0  0  0  0  0  0  0  0  0
    0.9679    3.6446   -1.9210 H   0  0  0  0  0  0  0  0  0  0  0  0
    0.1117    4.2382   -0.4807 H   0  0  0  0  0  0  0  0  0  0  0  0
    0.4344   -1.1610    1.1307 C   0  0  0  0  0  0  0  0  0  0  0  0
    0.0804   -2.0985    1.8428 O   0  0  0  0  0  0  0  0  0  0  0  0
    1.7201   -0.8192    0.9770 N   0  0  0  0  0  0  0  0  0  0  0  0
    1.9349   -0.0483    0.3649 H   0  0  0  0  0  0  0  0  0  0  0  0
    2.8315   -1.5072    1.6322 C   0  0  0  0  0  0  0  0  0  0  0  0
    2.8210   -2.5651    1.3597 H   0  0  0  0  0  0  0  0  0  0  0  0
    3.7826   -1.0675    1.3289 H   0  0  0  0  0  0  0  0  0  0  0  0
    2.7258   -1.4285    2.7157 H   0  0  0  0  0  0  0  0  0  0  0  0
  5  6  2  0  0  0  0
  5  7  1  0  0  0  0
  2  3  1  0  0  0  0
  2  4  1  0  0  0  0
  2  5  1  0  0  0  0
  1  2  1  0  0  0  0
 22 23  2  0  0  0  0
 22 24  1  0  0  0  0
 18 19  1  0  0  0  0
 18 20  1  0  0  0  0
 18 21  1  0  0  0  0
 17 18  1  0  0  0  0
 14 15  1  0  0  0  0
 14 16  1  0  0  0  0
 14 17  1  0  0  0  0
 11 12  1  0  0  0  0
 11 13  1  0  0  0  0
 11 14  1  0  0  0  0
  9 10  1  0  0  0  0
  9 11  1  0  0  0  0
  9 22  1  0  0  0  0
  7  8  1  0  0  0  0
  7  9  1  0  0  0  0
 26 27  1  0  0  0  0
 26 28  1  0  0  0  0
 26 29  1  0  0  0  0
 24 25  1  0  0  0  0
 24 26  1  0  0  0  0
M  END
$$$$
default_name
  -OEChem-01062215323D

 29 28  0     1  0  0  0  0  0999 V2000
   -3.5781   -3.7296    1.2702 H   0  0  0  0  0  0  0  0  0  0  0  0
   -3.5311   -2.7616    0.7732 C   0  0  0  0  0  0  0  0  0  0  0  0
   -4.2371   -2.0766    1.2382 H   0  0  0  0  0  0  0  0  0  0  0  0
   -3.7681   -2.8816   -0.2818 H   0  0  0  0  0  0  0  0  0  0  0  0
   -2.1321   -2.2086    0.9112 C   0  0  0  0  0  0  0  0  0  0  0  0
   -1.2751   -2.8426    1.5112 O   0  0  0  0  0  0  0  0  0  0  0  0
   -1.9041   -1.0186    0.3602 N   0  0  0  0  0  0  0  0  0  0  0  0
   -2.6671   -0.5416   -0.0988 H   0  0  0  0  0  0  0  0  0  0  0  0
   -0.6131   -0.3236    0.3832 C   0  0  1  0  0  0  0  0  0  0  0  0
   -0.3992    0.0465   -0.6207 H   0  0  0  0  0  0  0  0  0  0  0  0
   -0.7083    0.8849    1.3327 C   0  0  0  0  0  0  0  0  0  0  0  0
   -1.0502    0.5375    2.3099 H   0  0  0  0  0  0  0  0  0  0  0  0
    0.2823    1.3253    1.4549 H   0  0  0  0  0  0  0  0  0  0  0  0
   -1.6713    1.9730    0.8442 C   0  0  0  0  0  0  0  0  0  0  0  0
   -2.6696    1.5481    0.7441 H   0  0  0  0  0  0  0  0  0  0  0  0
   -1.7029    2.7717    1.5862 H   0  0  0  0  0  0  0  0  0  0  0  0
   -1.2046    2.6928   -0.7508 S   0  0  0  0  0  0  0  0  0  0  0  0
    0.2926    3.5871   -0.2607 C   0  0  0  0  0  0  0  0  0  0  0  0
    1.0271    2.8853    0.1354 H   0  0  0  0  0  0  0  0  0  0  0  0
    0.7124    4.0932   -1.1305 H   0  0  0  0  0  0  0  0  0  0  0  0
    0.0461    4.3276    0.5008 H   0  0  0  0  0  0  0  0  0  0  0  0
    0.5099   -1.2899    0.7862 C   0  0  0  0  0  0  0  0  0  0  0  0
    0.2506   -2.4640    1.0421 O   0  0  0  0  0  0  0  0  0  0  0  0
    1.7532   -0.7965    0.8512 N   0  0  0  0  0  0  0  0  0  0  0  0
    1.8909    0.1726    0.6124 H   0  0  0  0  0  0  0  0  0  0  0  0
    2.9247   -1.5835    1.2333 C   0  0  0  0  0  0  0  0  0  0  0  0
    3.0305   -2.4365    0.5589 H   0  0  0  0  0  0  0  0  0  0  0  0
    3.8265   -0.9718    1.1830 H   0  0  0  0  0  0  0  0  0  0  0  0
    2.7995   -1.9604    2.2499 H   0  0  0  0  0  0  0  0  0  0  0  0
  5  6  2  0  0  0  0
  5  7  1  0  0  0  0
  2  3  1  0  0  0  0
  2  4  1  0  0  0  0
  2  5  1  0  0  0  0
  1  2  1  0  0  0  0
 22 23  2  0  0  0  0
 22 24  1  0  0  0  0
 18 19  1  0  0  0  0
 18 20  1  0  0  0  0
 18 21  1  0  0  0  0
 17 18  1  0  0  0  0
 14 15  1  0  0  0  0
 14 16  1  0  0  0  0
 14 17  1  0  0  0  0
 11 12  1  0  0  0  0
 11 13  1  0  0  0  0
 11 14  1  0  0  0  0
  9 10  1  0  0  0  0
  9 11  1  0  0  0  0
  9 22  1  0  0  0  0
  7  8  1  0  0  0  0
  7  9  1  0  0  0  0
 26 27  1  0  0  0  0
 26 28  1  0  0  0  0
 26 29  1  0  0  0  0
 24 25  1  0  0  0  0
 24 26  1  0  0  0  0
M  END
$$$$
default_name
  -OEChem-01062215323D

 29 28  0     1  0  0  0  0  0999 V2000
   -3.5781   -3.7296    1.2702 H   0  0  0  0  0  0  0  0  0  0  0  0
   -3.5311   -2.7616    0.7732 C   0  0  0  0  0  0  0  0  0  0  0  0
   -4.2371   -2.0766    1.2382 H   0  0  0  0  0  0  0  0  0  0  0  0
   -3.7681   -2.8816   -0.2818 H   0  0  0  0  0  0  0  0  0  0  0  0
   -2.1321   -2.2086    0.9112 C   0  0  0  0  0  0  0  0  0  0  0  0
   -1.2751   -2.8426    1.5112 O   0  0  0  0  0  0  0  0  0  0  0  0
   -1.9041   -1.0186    0.3602 N   0  0  0  0  0  0  0  0  0  0  0  0
   -2.6671   -0.5416   -0.0988 H   0  0  0  0  0  0  0  0  0  0  0  0
   -0.6131   -0.3236    0.3832 C   0  0  1  0  0  0  0  0  0  0  0  0
   -0.3992    0.0465   -0.6207 H   0  0  0  0  0  0  0  0  0  0  0  0
   -0.7083    0.8849    1.3327 C   0  0  0  0  0  0  0  0  0  0  0  0
   -1.0502    0.5375    2.3099 H   0  0  0  0  0  0  0  0  0  0  0  0
    0.2823    1.3253    1.4549 H   0  0  0  0  0  0  0  0  0  0  0  0
   -1.6713    1.9730    0.8442 C   0  0  0  0  0  0  0  0  0  0  0  0
   -2.6696    1.5481    0.7441 H   0  0  0  0  0  0  0  0  0  0  0  0
   -1.7029    2.7717    1.5862 H   0  0  0  0  0  0  0  0  0  0  0  0
   -1.2046    2.6928   -0.7508 S   0  0  0  0  0  0  0  0  0  0  0  0
    0.2926    3.5871   -0.2607 C   0  0  0  0  0  0  0  0  0  0  0  0
    1.0271    2.8853    0.1354 H   0  0  0  0  0  0  0  0  0  0  0  0
    0.7124    4.0932   -1.1305 H   0  0  0  0  0  0  0  0  0  0  0  0
    0.0461    4.3276    0.5008 H   0  0  0  0  0  0  0  0  0  0  0  0
    0.5099   -1.2899    0.7862 C   0  0  0  0  0  0  0  0  0  0  0  0
    0.3129   -2.5033    0.7744 O   0  0  0  0  0  0  0  0  0  0  0  0
    1.6821   -0.7543    1.1504 N   0  0  0  0  0  0  0  0  0  0  0  0
    1.7739    0.2485    1.1206 H   0  0  0  0  0  0  0  0  0  0  0  0
    2.8411   -1.5384    1.5743 C   0  0  0  0  0  0  0  0  0  0  0  0
    3.1220   -2.2369    0.7826 H   0  0  0  0  0  0  0  0  0  0  0  0
    3.6853   -0.8824    1.7908 H   0  0  0  0  0  0  0  0  0  0  0  0
    2.5904   -2.1123    2.4682 H   0  0  0  0  0  0  0  0  0  0  0  0
  5  6  2  0  0  0  0
  5  7  1  0  0  0  0
  2  3  1  0  0  0  0
  2  4  1  0  0  0  0
  2  5  1  0  0  0  0
  1  2  1  0  0  0  0
 22 23  2  0  0  0  0
 22 24  1  0  0  0  0
 18 19  1  0  0  0  0
 18 20  1  0  0  0  0
 18 21  1  0  0  0  0
 17 18  1  0  0  0  0
 14 15  1  0  0  0  0
 14 16  1  0  0  0  0
 14 17  1  0  0  0  0
 11 12  1  0  0  0  0
 11 13  1  0  0  0  0
 11 14  1  0  0  0  0
  9 10  1  0  0  0  0
  9 11  1  0  0  0  0
  9 22  1  0  0  0  0
  7  8  1  0  0  0  0
  7  9  1  0  0  0  0
 26 27  1  0  0  0  0
 26 28  1  0  0  0  0
 26 29  1  0  0  0  0
 24 25  1  0  0  0  0
 24 26  1  0  0  0  0
M  END
$$$$
default_name
  -OEChem-01062215323D

 29 28  0     1  0  0  0  0  0999 V2000
   -3.5781   -3.7296    1.2702 H   0  0  0  0  0  0  0  0  0  0  0  0
   -3.5311   -2.7616    0.7732 C   0  0  0  0  0  0  0  0  0  0  0  0
   -4.2371   -2.0766    1.2382 H   0  0  0  0  0  0  0  0  0  0  0  0
   -3.7681   -2.8816   -0.2818 H   0  0  0  0  0  0  0  0  0  0  0  0
   -2.1321   -2.2086    0.9112 C   0  0  0  0  0  0  0  0  0  0  0  0
   -1.2751   -2.8426    1.5112 O   0  0  0  0  0  0  0  0  0  0  0  0
   -1.9041   -1.0186    0.3602 N   0  0  0  0  0  0  0  0  0  0  0  0
   -2.6671   -0.5416   -0.0988 H   0  0  0  0  0  0  0  0  0  0  0  0
   -0.6131   -0.3236    0.3832 C   0  0  1  0  0  0  0  0  0  0  0  0
   -0.3992    0.0465   -0.6207 H   0  0  0  0  0  0  0  0  0  0  0  0
   -0.7083    0.8849    1.3327 C   0  0  0  0  0  0  0  0  0  0  0  0
   -1.0502    0.5375    2.3099 H   0  0  0  0  0  0  0  0  0  0  0  0
    0.2823    1.3253    1.4549 H   0  0  0  0  0  0  0  0  0  0  0  0
   -1.6713    1.9730    0.8442 C   0  0  0  0  0  0  0  0  0  0  0  0
   -2.6696    1.5481    0.7441 H   0  0  0  0  0  0  0  0  0  0  0  0
   -1.7029    2.7717    1.5862 H   0  0  0  0  0  0  0  0  0  0  0  0
   -1.2046    2.6928   -0.7508 S   0  0  0  0  0  0  0  0  0  0  0  0
    0.2926    3.5871   -0.2607 C   0  0  0  0  0  0  0  0  0  0  0  0
    1.0271    2.8853    0.1354 H   0  0  0  0  0  0  0  0  0  0  0  0
    0.7124    4.0932   -1.1305 H   0  0  0  0  0  0  0  0  0  0  0  0
    0.0461    4.3276    0.5008 H   0  0  0  0  0  0  0  0  0  0  0  0
    0.5099   -1.2899    0.7862 C   0  0  0  0  0  0  0  0  0  0  0  0
    0.4193   -2.4863    0.5185 O   0  0  0  0  0  0  0  0  0  0  0  0
    1.5618   -0.7751    1.4359 N   0  0  0  0  0  0  0  0  0  0  0  0
    1.5729    0.2177    1.6067 H   0  0  0  0  0  0  0  0  0  0  0  0
    2.7017   -1.5651    1.8987 C   0  0  0  0  0  0  0  0  0  0  0  0
    3.1604   -2.0802    1.0513 H   0  0  0  0  0  0  0  0  0  0  0  0
    3.4438   -0.9208    2.3718 H   0  0  0  0  0  0  0  0  0  0  0  0
    2.3632   -2.3146    2.6163 H   0  0  0  0  0  0  0  0  0  0  0  0
  5  6  2  0  0  0  0
  5  7  1  0  0  0  0
  2  3  1  0  0  0  0
  2  4  1  0  0  0  0
  2  5  1  0  0  0  0
  1  2  1  0  0  0  0
 22 23  2  0  0  0  0
 22 24  1  0  0  0  0
 18 19  1  0  0  0  0
 18 20  1  0  0  0  0
 18 21  1  0  0  0  0
 17 18  1  0  0  0  0
 14 15  1  0  0  0  0
 14 16  1  0  0  0  0
 14 17  1  0  0  0  0
 11 12  1  0  0  0  0
 11 13  1  0  0  0  0
 11 14  1  0  0  0  0
  9 10  1  0  0  0  0
  9 11  1  0  0  0  0
  9 22  1  0  0  0  0
  7  8  1  0  0  0  0
  7  9  1  0  0  0  0
 26 27  1  0  0  0  0
 26 28  1  0  0  0  0
 26 29  1  0  0  0  0
 24 25  1  0  0  0  0
 24 26  1  0  0  0  0
M  END
$$$$
default_name
  -OEChem-01062215323D

 29 28  0     1  0  0  0  0  0999 V2000
   -3.5781   -3.7296    1.2702 H   0  0  0  0  0  0  0  0  0  0  0  0
   -3.5311   -2.7616    0.7732 C   0  0  0  0  0  0  0  0  0  0  0  0
   -4.2371   -2.0766    1.2382 H   0  0  0  0  0  0  0  0  0  0  0  0
   -3.7681   -2.8816   -0.2818 H   0  0  0  0  0  0  0  0  0  0  0  0
   -2.1321   -2.2086    0.9112 C   0  0  0  0  0  0  0  0  0  0  0  0
   -1.2751   -2.8426    1.5112 O   0  0  0  0  0  0  0  0  0  0  0  0
   -1.9041   -1.0186    0.3602 N   0  0  0  0  0  0  0  0  0  0  0  0
   -2.6671   -0.5416   -0.0988 H   0  0  0  0  0  0  0  0  0  0  0  0
   -0.6131   -0.3236    0.3832 C   0  0  1  0  0  0  0  0  0  0  0  0
   -0.3992    0.0465   -0.6207 H   0  0  0  0  0  0  0  0  0  0  0  0
   -0.7083    0.8849    1.3327 C   0  0  0  0  0  0  0  0  0  0  0  0
   -1.0502    0.5375    2.3099 H   0  0  0  0  0  0  0  0  0  0  0  0
    0.2823    1.3253    1.4549 H   0  0  0  0  0  0  0  0  0  0  0  0
   -1.6713    1.9730    0.8442 C   0  0  0  0  0  0  0  0  0  0  0  0
   -2.6696    1.5481    0.7441 H   0  0  0  0  0  0  0  0  0  0  0  0
   -1.7029    2.7717    1.5862 H   0  0  0  0  0  0  0  0  0  0  0  0
   -1.2046    2.6928   -0.7508 S   0  0  0  0  0  0  0  0  0  0  0  0
    0.2926    3.5871   -0.2607 C   0  0  0  0  0  0  0  0  0  0  0  0
    1.0271    2.8853    0.1354 H   0  0  0  0  0  0  0  0  0  0  0  0
    0.7124    4.0932   -1.1305 H   0  0  0  0  0  0  0  0  0  0  0  0
    0.0461    4.3276    0.5008 H   0  0  0  0  0  0  0  0  0  0  0  0
    0.5099   -1.2899    0.7862 C   0  0  0  0  0  0  0  0  0  0  0  0
    0.5626   -2.4142    0.2919 O   0  0  0  0  0  0  0  0  0  0  0  0
    1.4005   -0.8574    1.6880 N   0  0  0  0  0  0  0  0  0  0  0  0
    1.3017    0.0823    2.0377 H   0  0  0  0  0  0  0  0  0  0  0  0
    2.5160   -1.6618    2.1842 C   0  0  0  0  0  0  0  0  0  0  0  0
    3.1430   -1.9772    1.3468 H   0  0  0  0  0  0  0  0  0  0  0  0
    3.1185   -1.0842    2.8864 H   0  0  0  0  0  0  0  0  0  0  0  0
    2.1334   -2.5534    2.6841 H   0  0  0  0  0  0  0  0  0  0  0  0
  5  6  2  0  0  0  0
  5  7  1  0  0  0  0
  2  3  1  0  0  0  0
  2  4  1  0  0  0  0
  2  5  1  0  0  0  0
  1  2  1  0  0  0  0
 22 23  2  0  0  0  0
 22 24  1  0  0  0  0
 18 19  1  0  0  0  0
 18 20  1  0  0  0  0
 18 21  1  0  0  0  0
 17 18  1  0  0  0  0
 14 15  1  0  0  0  0
 14 16  1  0  0  0  0
 14 17  1  0  0  0  0
 11 12  1  0  0  0  0
 11 13  1  0  0  0  0
 11 14  1  0  0  0  0
  9 10  1  0  0  0  0
  9 11  1  0  0  0  0
  9 22  1  0  0  0  0
  7  8  1  0  0  0  0
  7  9  1  0  0  0  0
 26 27  1  0  0  0  0
 26 28  1  0  0  0  0
 26 29  1  0  0  0  0
 24 25  1  0  0  0  0
 24 26  1  0  0  0  0
M  END
$$$$
default_name
  -OEChem-01062215323D

 29 28  0     1  0  0  0  0  0999 V2000
   -3.5781   -3.7296    1.2702 H   0  0  0  0  0  0  0  0  0  0  0  0
   -3.5311   -2.7616    0.7732 C   0  0  0  0  0  0  0  0  0  0  0  0
   -4.2371   -2.0766    1.2382 H   0  0  0  0  0  0  0  0  0  0  0  0
   -3.7681   -2.8816   -0.2818 H   0  0  0  0  0  0  0  0  0  0  0  0
   -2.1321   -2.2086    0.9112 C   0  0  0  0  0  0  0  0  0  0  0  0
   -1.2751   -2.8426    1.5112 O   0  0  0  0  0  0  0  0  0  0  0  0
   -1.9041   -1.0186    0.3602 N   0  0  0  0  0  0  0  0  0  0  0  0
   -2.6671   -0.5416   -0.0988 H   0  0  0  0  0  0  0  0  0  0  0  0
   -0.6131   -0.3236    0.3832 C   0  0  1  0  0  0  0  0  0  0  0  0
   -0.3992    0.0465   -0.6207 H   0  0  0  0  0  0  0  0  0  0  0  0
   -0.7083    0.8849    1.3327 C   0  0  0  0  0  0  0  0  0  0  0  0
   -1.0502    0.5375    2.3099 H   0  0  0  0  0  0  0  0  0  0  0  0
    0.2823    1.3253    1.4549 H   0  0  0  0  0  0  0  0  0  0  0  0
   -1.6713    1.9730    0.8442 C   0  0  0  0  0  0  0  0  0  0  0  0
   -2.6696    1.5481    0.7441 H   0  0  0  0  0  0  0  0  0  0  0  0
   -1.7029    2.7717    1.5862 H   0  0  0  0  0  0  0  0  0  0  0  0
   -1.2046    2.6928   -0.7508 S   0  0  0  0  0  0  0  0  0  0  0  0
    0.2926    3.5871   -0.2607 C   0  0  0  0  0  0  0  0  0  0  0  0
    1.0271    2.8853    0.1354 H   0  0  0  0  0  0  0  0  0  0  0  0
    0.7124    4.0932   -1.1305 H   0  0  0  0  0  0  0  0  0  0  0  0
    0.0461    4.3276    0.5008 H   0  0  0  0  0  0  0  0  0  0  0  0
    0.5099   -1.2899    0.7862 C   0  0  0  0  0  0  0  0  0  0  0  0
    0.7331   -2.2920    0.1100 O   0  0  0  0  0  0  0  0  0  0  0  0
    1.2092   -0.9956    1.8897 N   0  0  0  0  0  0  0  0  0  0  0  0
    0.9787   -0.1485    2.3842 H   0  0  0  0  0  0  0  0  0  0  0  0
    2.2968   -1.8219    2.4114 C   0  0  0  0  0  0  0  0  0  0  0  0
    3.0711   -1.9347    1.6490 H   0  0  0  0  0  0  0  0  0  0  0  0
    2.7316   -1.3615    3.2996 H   0  0  0  0  0  0  0  0  0  0  0  0
    1.9166   -2.8126    2.6669 H   0  0  0  0  0  0  0  0  0  0  0  0
  5  6  2  0  0  0  0
  5  7  1  0  0  0  0
  2  3  1  0  0  0  0
  2  4  1  0  0  0  0
  2  5  1  0  0  0  0
  1  2  1  0  0  0  0
 22 23  2  0  0  0  0
 22 24  1  0  0  0  0
 18 19  1  0  0  0  0
 18 20  1  0  0  0  0
 18 21  1  0  0  0  0
 17 18  1  0  0  0  0
 14 15  1  0  0  0  0
 14 16  1  0  0  0  0
 14 17  1  0  0  0  0
 11 12  1  0  0  0  0
 11 13  1  0  0  0  0
 11 14  1  0  0  0  0
  9 10  1  0  0  0  0
  9 11  1  0  0  0  0
  9 22  1  0  0  0  0
  7  8  1  0  0  0  0
  7  9  1  0  0  0  0
 26 27  1  0  0  0  0
 26 28  1  0  0  0  0
 26 29  1  0  0  0  0
 24 25  1  0  0  0  0
 24 26  1  0  0  0  0
M  END
$$$$
default_name
  -OEChem-01062215323D

 29 28  0     1  0  0  0  0  0999 V2000
   -3.5781   -3.7296    1.2702 H   0  0  0  0  0  0  0  0  0  0  0  0
   -3.5311   -2.7616    0.7732 C   0  0  0  0  0  0  0  0  0  0  0  0
   -4.2371   -2.0766    1.2382 H   0  0  0  0  0  0  0  0  0  0  0  0
   -3.7681   -2.8816   -0.2818 H   0  0  0  0  0  0  0  0  0  0  0  0
   -2.1321   -2.2086    0.9112 C   0  0  0  0  0  0  0  0  0  0  0  0
   -1.2751   -2.8426    1.5112 O   0  0  0  0  0  0  0  0  0  0  0  0
   -1.9041   -1.0186    0.3602 N   0  0  0  0  0  0  0  0  0  0  0  0
   -2.6671   -0.5416   -0.0988 H   0  0  0  0  0  0  0  0  0  0  0  0
   -0.6131   -0.3236    0.3832 C   0  0  1  0  0  0  0  0  0  0  0  0
   -0.3992    0.0465   -0.6207 H   0  0  0  0  0  0  0  0  0  0  0  0
   -0.7083    0.8849    1.3327 C   0  0  0  0  0  0  0  0  0  0  0  0
   -1.0502    0.5375    2.3099 H   0  0  0  0  0  0  0  0  0  0  0  0
    0.2823    1.3253    1.4549 H   0  0  0  0  0  0  0  0  0  0  0  0
   -1.6713    1.9730    0.8442 C   0  0  0  0  0  0  0  0  0  0  0  0
   -2.6696    1.5481    0.7441 H   0  0  0  0  0  0  0  0  0  0  0  0
   -1.7029    2.7717    1.5862 H   0  0  0  0  0  0  0  0  0  0  0  0
   -1.2046    2.6928   -0.7508 S   0  0  0  0  0  0  0  0  0  0  0  0
    0.2926    3.5871   -0.2607 C   0  0  0  0  0  0  0  0  0  0  0  0
    1.0271    2.8853    0.1354 H   0  0  0  0  0  0  0  0  0  0  0  0
    0.7124    4.0932   -1.1305 H   0  0  0  0  0  0  0  0  0  0  0  0
    0.0461    4.3276    0.5008 H   0  0  0  0  0  0  0  0  0  0  0  0
    0.5099   -1.2899    0.7862 C   0  0  0  0  0  0  0  0  0  0  0  0
    0.9191   -2.1279   -0.0148 O   0  0  0  0  0  0  0  0  0  0  0  0
    1.0009   -1.1802    2.0273 N   0  0  0  0  0  0  0  0  0  0  0  0
    0.6260   -0.4590    2.6226 H   0  0  0  0  0  0  0  0  0  0  0  0
    2.0588   -2.0344    2.5649 C   0  0  0  0  0  0  0  0  0  0  0  0
    2.9495   -1.9558    1.9371 H   0  0  0  0  0  0  0  0  0  0  0  0
    2.3094   -1.7339    3.5831 H   0  0  0  0  0  0  0  0  0  0  0  0
    1.7276   -3.0744    2.5659 H   0  0  0  0  0  0  0  0  0  0  0  0
  5  6  2  0  0  0  0
  5  7  1  0  0  0  0
  2  3  1  0  0  0  0
  2  4  1  0  0  0  0
  2  5  1  0  0  0  0
  1  2  1  0  0  0  0
 22 23  2  0  0  0  0
 22 24  1  0  0  0  0
 18 19  1  0  0  0  0
 18 20  1  0  0  0  0
 18 21  1  0  0  0  0
 17 18  1  0  0  0  0
 14 15  1  0  0  0  0
 14 16  1  0  0  0  0
 14 17  1  0  0  0  0
 11 12  1  0  0  0  0
 11 13  1  0  0  0  0
 11 14  1  0  0  0  0
  9 10  1  0  0  0  0
  9 11  1  0  0  0  0
  9 22  1  0  0  0  0
  7  8  1  0  0  0  0
  7  9  1  0  0  0  0
 26 27  1  0  0  0  0
 26 28  1  0  0  0  0
 26 29  1  0  0  0  0
 24 25  1  0  0  0  0
 24 26  1  0  0  0  0
M  END
$$$$
default_name
  -OEChem-01062215323D

 29 28  0     1  0  0  0  0  0999 V2000
   -3.5781   -3.7296    1.2702 H   0  0  0  0  0  0  0  0  0  0  0  0
   -3.5311   -2.7616    0.7732 C   0  0  0  0  0  0  0  0  0  0  0  0
   -4.2371   -2.0766    1.2382 H   0  0  0  0  0  0  0  0  0  0  0  0
   -3.7681   -2.8816   -0.2818 H   0  0  0  0  0  0  0  0  0  0  0  0
   -2.1321   -2.2086    0.9112 C   0  0  0  0  0  0  0  0  0  0  0  0
   -1.2751   -2.8426    1.5112 O   0  0  0  0  0  0  0  0  0  0  0  0
   -1.9041   -1.0186    0.3602 N   0  0  0  0  0  0  0  0  0  0  0  0
   -2.6671   -0.5416   -0.0988 H   0  0  0  0  0  0  0  0  0  0  0  0
   -0.6131   -0.3236    0.3832 C   0  0  1  0  0  0  0  0  0  0  0  0
   -0.3992    0.0465   -0.6207 H   0  0  0  0  0  0  0  0  0  0  0  0
   -0.7083    0.8849    1.3327 C   0  0  0  0  0  0  0  0  0  0  0  0
   -1.0502    0.5375    2.3099 H   0  0  0  0  0  0  0  0  0  0  0  0
    0.2823    1.3253    1.4549 H   0  0  0  0  0  0  0  0  0  0  0  0
   -1.6713    1.9730    0.8442 C   0  0  0  0  0  0  0  0  0  0  0  0
   -2.6696    1.5481    0.7441 H   0  0  0  0  0  0  0  0  0  0  0  0
   -1.7029    2.7717    1.5862 H   0  0  0  0  0  0  0  0  0  0  0  0
   -1.2046    2.6928   -0.7508 S   0  0  0  0  0  0  0  0  0  0  0  0
    0.2926    3.5871   -0.2607 C   0  0  0  0  0  0  0  0  0  0  0  0
    1.0271    2.8853    0.1354 H   0  0  0  0  0  0  0  0  0  0  0  0
    0.7124    4.0932   -1.1305 H   0  0  0  0  0  0  0  0  0  0  0  0
    0.0461    4.3276    0.5008 H   0  0  0  0  0  0  0  0  0  0  0  0
    0.5099   -1.2899    0.7862 C   0  0  0  0  0  0  0  0  0  0  0  0
    1.1079   -1.9332   -0.0740 O   0  0  0  0  0  0  0  0  0  0  0  0
    0.7899   -1.3988    2.0912 N   0  0  0  0  0  0  0  0  0  0  0  0
    0.2676   -0.8280    2.7366 H   0  0  0  0  0  0  0  0  0  0  0  0
    1.8184   -2.2849    2.6342 C   0  0  0  0  0  0  0  0  0  0  0  0
    2.7866   -2.0390    2.1916 H   0  0  0  0  0  0  0  0  0  0  0  0
    1.8807   -2.1760    3.7177 H   0  0  0  0  0  0  0  0  0  0  0  0
    1.5792   -3.3210    2.3880 H   0  0  0  0  0  0  0  0  0  0  0  0
  5  6  2  0  0  0  0
  5  7  1  0  0  0  0
  2  3  1  0  0  0  0
  2  4  1  0  0  0  0
  2  5  1  0  0  0  0
  1  2  1  0  0  0  0
 22 23  2  0  0  0  0
 22 24  1  0  0  0  0
 18 19  1  0  0  0  0
 18 20  1  0  0  0  0
 18 21  1  0  0  0  0
 17 18  1  0  0  0  0
 14 15  1  0  0  0  0
 14 16  1  0  0  0  0
 14 17  1  0  0  0  0
 11 12  1  0  0  0  0
 11 13  1  0  0  0  0
 11 14  1  0  0  0  0
  9 10  1  0  0  0  0
  9 11  1  0  0  0  0
  9 22  1  0  0  0  0
  7  8  1  0  0  0  0
  7  9  1  0  0  0  0
 26 27  1  0  0  0  0
 26 28  1  0  0  0  0
 26 29  1  0  0  0  0
 24 25  1  0  0  0  0
 24 26  1  0  0  0  0
M  END
$$$$
default_name
  -OEChem-01062215323D

 29 28  0     1  0  0  0  0  0999 V2000
   -3.5781   -3.7296    1.2702 H   0  0  0  0  0  0  0  0  0  0  0  0
   -3.5311   -2.7616    0.7732 C   0  0  0  0  0  0  0  0  0  0  0  0
   -4.2371   -2.0766    1.2382 H   0  0  0  0  0  0  0  0  0  0  0  0
   -3.7681   -2.8816   -0.2818 H   0  0  0  0  0  0  0  0  0  0  0  0
   -2.1321   -2.2086    0.9112 C   0  0  0  0  0  0  0  0  0  0  0  0
   -1.2751   -2.8426    1.5112 O   0  0  0  0  0  0  0  0  0  0  0  0
   -1.9041   -1.0186    0.3602 N   0  0  0  0  0  0  0  0  0  0  0  0
   -2.6671   -0.5416   -0.0988 H   0  0  0  0  0  0  0  0  0  0  0  0
   -0.6131   -0.3236    0.3832 C   0  0  1  0  0  0  0  0  0  0  0  0
   -0.3992    0.0465   -0.6207 H   0  0  0  0  0  0  0  0  0  0  0  0
   -0.7083    0.8849    1.3327 C   0  0  0  0  0  0  0  0  0  0  0  0
   -1.0502    0.5375    2.3099 H   0  0  0  0  0  0  0  0  0  0  0  0
    0.2823    1.3253    1.4549 H   0  0  0  0  0  0  0  0  0  0  0  0
   -1.6713    1.9730    0.8442 C   0  0  0  0  0  0  0  0  0  0  0  0
   -2.6696    1.5481    0.7441 H   0  0  0  0  0  0  0  0  0  0  0  0
   -1.7029    2.7717    1.5862 H   0  0  0  0  0  0  0  0  0  0  0  0
   -1.2046    2.6928   -0.7508 S   0  0  0  0  0  0  0  0  0  0  0  0
    0.2926    3.5871   -0.2607 C   0  0  0  0  0  0  0  0  0  0  0  0
    1.0271    2.8853    0.1354 H   0  0  0  0  0  0  0  0  0  0  0  0
    0.7124    4.0932   -1.1305 H   0  0  0  0  0  0  0  0  0  0  0  0
    0.0461    4.3276    0.5008 H   0  0  0  0  0  0  0  0  0  0  0  0
    0.5099   -1.2899    0.7862 C   0  0  0  0  0  0  0  0  0  0  0  0
    1.2867   -1.7210   -0.0635 O   0  0  0  0  0  0  0  0  0  0  0  0
    0.5906   -1.6363    2.0773 N   0  0  0  0  0  0  0  0  0  0  0  0
   -0.0722   -1.2304    2.7185 H   0  0  0  0  0  0  0  0  0  0  0  0
    1.5919   -2.5563    2.6145 C   0  0  0  0  0  0  0  0  0  0  0  0
    2.5934   -2.1787    2.3952 H   0  0  0  0  0  0  0  0  0  0  0  0
    1.4747   -2.6576    3.6942 H   0  0  0  0  0  0  0  0  0  0  0  0
    1.4816   -3.5356    2.1453 H   0  0  0  0  0  0  0  0  0  0  0  0
  5  6  2  0  0  0  0
  5  7  1  0  0  0  0
  2  3  1  0  0  0  0
  2  4  1  0  0  0  0
  2  5  1  0  0  0  0
  1  2  1  0  0  0  0
 22 23  2  0  0  0  0
 22 24  1  0  0  0  0
 18 19  1  0  0  0  0
 18 20  1  0  0  0  0
 18 21  1  0  0  0  0
 17 18  1  0  0  0  0
 14 15  1  0  0  0  0
 14 16  1  0  0  0  0
 14 17  1  0  0  0  0
 11 12  1  0  0  0  0
 11 13  1  0  0  0  0
 11 14  1  0  0  0  0
  9 10  1  0  0  0  0
  9 11  1  0  0  0  0
  9 22  1  0  0  0  0
  7  8  1  0  0  0  0
  7  9  1  0  0  0  0
 26 27  1  0  0  0  0
 26 28  1  0  0  0  0
 26 29  1  0  0  0  0
 24 25  1  0  0  0  0
 24 26  1  0  0  0  0
M  END
$$$$
default_name
  -OEChem-01062215323D

 29 28  0     1  0  0  0  0  0999 V2000
   -3.5781   -3.7296    1.2702 H   0  0  0  0  0  0  0  0  0  0  0  0
   -3.5311   -2.7616    0.7732 C   0  0  0  0  0  0  0  0  0  0  0  0
   -4.2371   -2.0766    1.2382 H   0  0  0  0  0  0  0  0  0  0  0  0
   -3.7681   -2.8816   -0.2818 H   0  0  0  0  0  0  0  0  0  0  0  0
   -2.1321   -2.2086    0.9112 C   0  0  0  0  0  0  0  0  0  0  0  0
   -1.2751   -2.8426    1.5112 O   0  0  0  0  0  0  0  0  0  0  0  0
   -1.9041   -1.0186    0.3602 N   0  0  0  0  0  0  0  0  0  0  0  0
   -2.6671   -0.5416   -0.0988 H   0  0  0  0  0  0  0  0  0  0  0  0
   -0.6131   -0.3236    0.3832 C   0  0  1  0  0  0  0  0  0  0  0  0
   -0.3992    0.0465   -0.6207 H   0  0  0  0  0  0  0  0  0  0  0  0
   -0.7083    0.8849    1.3327 C   0  0  0  0  0  0  0  0  0  0  0  0
   -1.0502    0.5375    2.3099 H   0  0  0  0  0  0  0  0  0  0  0  0
    0.2823    1.3253    1.4549 H   0  0  0  0  0  0  0  0  0  0  0  0
   -1.6713    1.9730    0.8442 C   0  0  0  0  0  0  0  0  0  0  0  0
   -2.6696    1.5481    0.7441 H   0  0  0  0  0  0  0  0  0  0  0  0
   -1.7029    2.7717    1.5862 H   0  0  0  0  0  0  0  0  0  0  0  0
   -1.2046    2.6928   -0.7508 S   0  0  0  0  0  0  0  0  0  0  0  0
    0.2926    3.5871   -0.2607 C   0  0  0  0  0  0  0  0  0  0  0  0
    1.0271    2.8853    0.1354 H   0  0  0  0  0  0  0  0  0  0  0  0
    0.7124    4.0932   -1.1305 H   0  0  0  0  0  0  0  0  0  0  0  0
    0.0461    4.3276    0.5008 H   0  0  0  0  0  0  0  0  0  0  0  0
    0.5099   -1.2899    0.7862 C   0  0  0  0  0  0  0  0  0  0  0  0
    1.4433   -1.5059    0.0159 O   0  0  0  0  0  0  0  0  0  0  0  0
    0.4164   -1.8766    1.9864 N   0  0  0  0  0  0  0  0  0  0  0  0
   -0.3701   -1.6387    2.5695 H   0  0  0  0  0  0  0  0  0  0  0  0
    1.3948   -2.8301    2.5072 C   0  0  0  0  0  0  0  0  0  0  0  0
    2.3831   -2.3652    2.5339 H   0  0  0  0  0  0  0  0  0  0  0  0
    1.1191   -3.1459    3.5142 H   0  0  0  0  0  0  0  0  0  0  0  0
    1.4415   -3.7035    1.8543 H   0  0  0  0  0  0  0  0  0  0  0  0
  5  6  2  0  0  0  0
  5  7  1  0  0  0  0
  2  3  1  0  0  0  0
  2  4  1  0  0  0  0
  2  5  1  0  0  0  0
  1  2  1  0  0  0  0
 22 23  2  0  0  0  0
 22 24  1  0  0  0  0
 18 19  1  0  0  0  0
 18 20  1  0  0  0  0
 18 21  1  0  0  0  0
 17 18  1  0  0  0  0
 14 15  1  0  0  0  0
 14 16  1  0  0  0  0
 14 17  1  0  0  0  0
 11 12  1  0  0  0  0
 11 13  1  0  0  0  0
 11 14  1  0  0  0  0
  9 10  1  0  0  0  0
  9 11  1  0  0  0  0
  9 22  1  0  0  0  0
  7  8  1  0  0  0  0
  7  9  1  0  0  0  0
 26 27  1  0  0  0  0
 26 28  1  0  0  0  0
 26 29  1  0  0  0  0
 24 25  1  0  0  0  0
 24 26  1  0  0  0  0
M  END
$$$$
default_name
  -OEChem-01062215323D

 29 28  0     1  0  0  0  0  0999 V2000
   -3.5781   -3.7296    1.2702 H   0  0  0  0  0  0  0  0  0  0  0  0
   -3.5311   -2.7616    0.7732 C   0  0  0  0  0  0  0  0  0  0  0  0
   -4.2371   -2.0766    1.2382 H   0  0  0  0  0  0  0  0  0  0  0  0
   -3.7681   -2.8816   -0.2818 H   0  0  0  0  0  0  0  0  0  0  0  0
   -2.1321   -2.2086    0.9112 C   0  0  0  0  0  0  0  0  0  0  0  0
   -1.2751   -2.8426    1.5112 O   0  0  0  0  0  0  0  0  0  0  0  0
   -1.9041   -1.0186    0.3602 N   0  0  0  0  0  0  0  0  0  0  0  0
   -2.6671   -0.5416   -0.0988 H   0  0  0  0  0  0  0  0  0  0  0  0
   -0.6131   -0.3236    0.3832 C   0  0  1  0  0  0  0  0  0  0  0  0
   -0.3992    0.0465   -0.6207 H   0  0  0  0  0  0  0  0  0  0  0  0
   -0.7083    0.8849    1.3327 C   0  0  0  0  0  0  0  0  0  0  0  0
   -1.0502    0.5375    2.3099 H   0  0  0  0  0  0  0  0  0  0  0  0
    0.2823    1.3253    1.4549 H   0  0  0  0  0  0  0  0  0  0  0  0
   -1.6713    1.9730    0.8442 C   0  0  0  0  0  0  0  0  0  0  0  0
   -2.6696    1.5481    0.7441 H   0  0  0  0  0  0  0  0  0  0  0  0
   -1.7029    2.7717    1.5862 H   0  0  0  0  0  0  0  0  0  0  0  0
   -1.2046    2.6928   -0.7508 S   0  0  0  0  0  0  0  0  0  0  0  0
    0.2926    3.5871   -0.2607 C   0  0  0  0  0  0  0  0  0  0  0  0
    1.0271    2.8853    0.1354 H   0  0  0  0  0  0  0  0  0  0  0  0
    0.7124    4.0932   -1.1305 H   0  0  0  0  0  0  0  0  0  0  0  0
    0.0461    4.3276    0.5008 H   0  0  0  0  0  0  0  0  0  0  0  0
    0.5099   -1.2899    0.7862 C   0  0  0  0  0  0  0  0  0  0  0  0
    1.5670   -1.3026    0.1588 O   0  0  0  0  0  0  0  0  0  0  0  0
    0.2793   -2.1034    1.8247 N   0  0  0  0  0  0  0  0  0  0  0  0
   -0.6058   -2.0251    2.2997 H   0  0  0  0  0  0  0  0  0  0  0  0
    1.2405   -3.0877    2.3196 C   0  0  0  0  0  0  0  0  0  0  0  0
    2.1701   -2.5859    2.5984 H   0  0  0  0  0  0  0  0  0  0  0  0
    0.8381   -3.6077    3.1900 H   0  0  0  0  0  0  0  0  0  0  0  0
    1.4616   -3.8134    1.5350 H   0  0  0  0  0  0  0  0  0  0  0  0
  5  6  2  0  0  0  0
  5  7  1  0  0  0  0
  2  3  1  0  0  0  0
  2  4  1  0  0  0  0
  2  5  1  0  0  0  0
  1  2  1  0  0  0  0
 22 23  2  0  0  0  0
 22 24  1  0  0  0  0
 18 19  1  0  0  0  0
 18 20  1  0  0  0  0
 18 21  1  0  0  0  0
 17 18  1  0  0  0  0
 14 15  1  0  0  0  0
 14 16  1  0  0  0  0
 14 17  1  0  0  0  0
 11 12  1  0  0  0  0
 11 13  1  0  0  0  0
 11 14  1  0  0  0  0
  9 10  1  0  0  0  0
  9 11  1  0  0  0  0
  9 22  1  0  0  0  0
  7  8  1  0  0  0  0
  7  9  1  0  0  0  0
 26 27  1  0  0  0  0
 26 28  1  0  0  0  0
 26 29  1  0  0  0  0
 24 25  1  0  0  0  0
 24 26  1  0  0  0  0
M  END
$$$$
default_name
  -OEChem-01062215323D

 29 28  0     1  0  0  0  0  0999 V2000
   -3.5781   -3.7296    1.2702 H   0  0  0  0  0  0  0  0  0  0  0  0
   -3.5311   -2.7616    0.7732 C   0  0  0  0  0  0  0  0  0  0  0  0
   -4.2371   -2.0766    1.2382 H   0  0  0  0  0  0  0  0  0  0  0  0
   -3.7681   -2.8816   -0.2818 H   0  0  0  0  0  0  0  0  0  0  0  0
   -2.1321   -2.2086    0.9112 C   0  0  0  0  0  0  0  0  0  0  0  0
   -1.2751   -2.8426    1.5112 O   0  0  0  0  0  0  0  0  0  0  0  0
   -1.9041   -1.0186    0.3602 N   0  0  0  0  0  0  0  0  0  0  0  0
   -2.6671   -0.5416   -0.0988 H   0  0  0  0  0  0  0  0  0  0  0  0
   -0.6131   -0.3236    0.3832 C   0  0  1  0  0  0  0  0  0  0  0  0
   -0.3992    0.0465   -0.6207 H   0  0  0  0  0  0  0  0  0  0  0  0
   -0.7083    0.8849    1.3327 C   0  0  0  0  0  0  0  0  0  0  0  0
   -1.0502    0.5375    2.3099 H   0  0  0  0  0  0  0  0  0  0  0  0
    0.2823    1.3253    1.4549 H   0  0  0  0  0  0  0  0  0  0  0  0
   -1.6713    1.9730    0.8442 C   0  0  0  0  0  0  0  0  0  0  0  0
   -2.6696    1.5481    0.7441 H   0  0  0  0  0  0  0  0  0  0  0  0
   -1.7029    2.7717    1.5862 H   0  0  0  0  0  0  0  0  0  0  0  0
   -1.2046    2.6928   -0.7508 S   0  0  0  0  0  0  0  0  0  0  0  0
    0.2926    3.5871   -0.2607 C   0  0  0  0  0  0  0  0  0  0  0  0
    1.0271    2.8853    0.1354 H   0  0  0  0  0  0  0  0  0  0  0  0
    0.7124    4.0932   -1.1305 H   0  0  0  0  0  0  0  0  0  0  0  0
    0.0461    4.3276    0.5008 H   0  0  0  0  0  0  0  0  0  0  0  0
    0.5099   -1.2899    0.7862 C   0  0  0  0  0  0  0  0  0  0  0  0
    1.6494   -1.1248    0.3555 O   0  0  0  0  0  0  0  0  0  0  0  0
    0.1886   -2.3012    1.6032 N   0  0  0  0  0  0  0  0  0  0  0  0
   -0.7633   -2.3634    1.9276 H   0  0  0  0  0  0  0  0  0  0  0  0
    1.1395   -3.3114    2.0646 C   0  0  0  0  0  0  0  0  0  0  0  0
    1.9688   -2.8257    2.5841 H   0  0  0  0  0  0  0  0  0  0  0  0
    0.6509   -4.0114    2.7436 H   0  0  0  0  0  0  0  0  0  0  0  0
    1.5404   -3.8577    1.2089 H   0  0  0  0  0  0  0  0  0  0  0  0
  5  6  2  0  0  0  0
  5  7  1  0  0  0  0
  2  3  1  0  0  0  0
  2  4  1  0  0  0  0
  2  5  1  0  0  0  0
  1  2  1  0  0  0  0
 22 23  2  0  0  0  0
 22 24  1  0  0  0  0
 18 19  1  0  0  0  0
 18 20  1  0  0  0  0
 18 21  1  0  0  0  0
 17 18  1  0  0  0  0
 14 15  1  0  0  0  0
 14 16  1  0  0  0  0
 14 17  1  0  0  0  0
 11 12  1  0  0  0  0
 11 13  1  0  0  0  0
 11 14  1  0  0  0  0
  9 10  1  0  0  0  0
  9 11  1  0  0  0  0
  9 22  1  0  0  0  0
  7  8  1  0  0  0  0
  7  9  1  0  0  0  0
 26 27  1  0  0  0  0
 26 28  1  0  0  0  0
 26 29  1  0  0  0  0
 24 25  1  0  0  0  0
 24 26  1  0  0  0  0
M  END
$$$$
default_name
  -OEChem-01062215323D

 29 28  0     1  0  0  0  0  0999 V2000
   -3.5781   -3.7296    1.2702 H   0  0  0  0  0  0  0  0  0  0  0  0
   -3.5311   -2.7616    0.7732 C   0  0  0  0  0  0  0  0  0  0  0  0
   -4.2371   -2.0766    1.2382 H   0  0  0  0  0  0  0  0  0  0  0  0
   -3.7681   -2.8816   -0.2818 H   0  0  0  0  0  0  0  0  0  0  0  0
   -2.1321   -2.2086    0.9112 C   0  0  0  0  0  0  0  0  0  0  0  0
   -1.2751   -2.8426    1.5112 O   0  0  0  0  0  0  0  0  0  0  0  0
   -1.9041   -1.0186    0.3602 N   0  0  0  0  0  0  0  0  0  0  0  0
   -2.6671   -0.5416   -0.0988 H   0  0  0  0  0  0  0  0  0  0  0  0
   -0.6131   -0.3236    0.3832 C   0  0  1  0  0  0  0  0  0  0  0  0
   -0.3992    0.0465   -0.6207 H   0  0  0  0  0  0  0  0  0  0  0  0
   -0.7083    0.8849    1.3327 C   0  0  0  0  0  0  0  0  0  0  0  0
   -1.0502    0.5375    2.3099 H   0  0  0  0  0  0  0  0  0  0  0  0
    0.2823    1.3253    1.4549 H   0  0  0  0  0  0  0  0  0  0  0  0
   -1.6713    1.9730    0.8442 C   0  0  0  0  0  0  0  0  0  0  0  0
   -2.6696    1.5481    0.7441 H   0  0  0  0  0  0  0  0  0  0  0  0
   -1.7029    2.7717    1.5862 H   0  0  0  0  0  0  0  0  0  0  0  0
   -1.2046    2.6928   -0.7508 S   0  0  0  0  0  0  0  0  0  0  0  0
    0.2926    3.5871   -0.2607 C   0  0  0  0  0  0  0  0  0  0  0  0
    1.0271    2.8853    0.1354 H   0  0  0  0  0  0  0  0  0  0  0  0
    0.7124    4.0932   -1.1305 H   0  0  0  0  0  0  0  0  0  0  0  0
    0.0461    4.3276    0.5008 H   0  0  0  0  0  0  0  0  0  0  0  0
    0.5099   -1.2899    0.7862 C   0  0  0  0  0  0  0  0  0  0  0  0
    1.6849   -0.9847    0.5926 O   0  0  0  0  0  0  0  0  0  0  0  0
    0.1505   -2.4564    1.3371 N   0  0  0  0  0  0  0  0  0  0  0  0
   -0.8318   -2.6303    1.4785 H   0  0  0  0  0  0  0  0  0  0  0  0
    1.0986   -3.4862    1.7594 C   0  0  0  0  0  0  0  0  0  0  0  0
    1.7930   -3.0684    2.4922 H   0  0  0  0  0  0  0  0  0  0  0  0
    0.5702   -4.3297    2.2055 H   0  0  0  0  0  0  0  0  0  0  0  0
    1.6727   -3.8334    0.8985 H   0  0  0  0  0  0  0  0  0  0  0  0
  5  6  2  0  0  0  0
  5  7  1  0  0  0  0
  2  3  1  0  0  0  0
  2  4  1  0  0  0  0
  2  5  1  0  0  0  0
  1  2  1  0  0  0  0
 22 23  2  0  0  0  0
 22 24  1  0  0  0  0
 18 19  1  0  0  0  0
 18 20  1  0  0  0  0
 18 21  1  0  0  0  0
 17 18  1  0  0  0  0
 14 15  1  0  0  0  0
 14 16  1  0  0  0  0
 14 17  1  0  0  0  0
 11 12  1  0  0  0  0
 11 13  1  0  0  0  0
 11 14  1  0  0  0  0
  9 10  1  0  0  0  0
  9 11  1  0  0  0  0
  9 22  1  0  0  0  0
  7  8  1  0  0  0  0
  7  9  1  0  0  0  0
 26 27  1  0  0  0  0
 26 28  1  0  0  0  0
 26 29  1  0  0  0  0
 24 25  1  0  0  0  0
 24 26  1  0  0  0  0
M  END
$$$$
default_name
  -OEChem-01062215323D

 29 28  0     1  0  0  0  0  0999 V2000
   -3.5781   -3.7296    1.2702 H   0  0  0  0  0  0  0  0  0  0  0  0
   -3.5311   -2.7616    0.7732 C   0  0  0  0  0  0  0  0  0  0  0  0
   -4.2371   -2.0766    1.2382 H   0  0  0  0  0  0  0  0  0  0  0  0
   -3.7681   -2.8816   -0.2818 H   0  0  0  0  0  0  0  0  0  0  0  0
   -2.1321   -2.2086    0.9112 C   0  0  0  0  0  0  0  0  0  0  0  0
   -1.2751   -2.8426    1.5112 O   0  0  0  0  0  0  0  0  0  0  0  0
   -1.9041   -1.0186    0.3602 N   0  0  0  0  0  0  0  0  0  0  0  0
   -2.6671   -0.5416   -0.0988 H   0  0  0  0  0  0  0  0  0  0  0  0
   -0.6131   -0.3236    0.3832 C   0  0  1  0  0  0  0  0  0  0  0  0
   -0.3992    0.0465   -0.6207 H   0  0  0  0  0  0  0  0  0  0  0  0
   -0.7083    0.8849    1.3327 C   0  0  0  0  0  0  0  0  0  0  0  0
   -1.0502    0.5375    2.3099 H   0  0  0  0  0  0  0  0  0  0  0  0
    0.2823    1.3253    1.4549 H   0  0  0  0  0  0  0  0  0  0  0  0
   -1.6713    1.9730    0.8442 C   0  0  0  0  0  0  0  0  0  0  0  0
   -2.6696    1.5481    0.7441 H   0  0  0  0  0  0  0  0  0  0  0  0
   -1.7029    2.7717    1.5862 H   0  0  0  0  0  0  0  0  0  0  0  0
   -1.2046    2.6928   -0.7508 S   0  0  0  0  0  0  0  0  0  0  0  0
    0.2926    3.5871   -0.2607 C   0  0  0  0  0  0  0  0  0  0  0  0
    1.0271    2.8853    0.1354 H   0  0  0  0  0  0  0  0  0  0  0  0
    0.7124    4.0932   -1.1305 H   0  0  0  0  0  0  0  0  0  0  0  0
    0.0461    4.3276    0.5008 H   0  0  0  0  0  0  0  0  0  0  0  0
    0.5099   -1.2899    0.7862 C   0  0  0  0  0  0  0  0  0  0  0  0
    1.6710   -0.8918    0.8539 O   0  0  0  0  0  0  0  0  0  0  0  0
    0.1676   -2.5586    1.0444 N   0  0  0  0  0  0  0  0  0  0  0  0
   -0.8067   -2.8078    0.9830 H   0  0  0  0  0  0  0  0  0  0  0  0
    1.1208   -3.5999    1.4248 C   0  0  0  0  0  0  0  0  0  0  0  0
    1.6546   -3.2973    2.3288 H   0  0  0  0  0  0  0  0  0  0  0  0
    0.6015   -4.5406    1.6123 H   0  0  0  0  0  0  0  0  0  0  0  0
    1.8494   -3.7422    0.6248 H   0  0  0  0  0  0  0  0  0  0  0  0
  5  6  2  0  0  0  0
  5  7  1  0  0  0  0
  2  3  1  0  0  0  0
  2  4  1  0  0  0  0
  2  5  1  0  0  0  0
  1  2  1  0  0  0  0
 22 23  2  0  0  0  0
 22 24  1  0  0  0  0
 18 19  1  0  0  0  0
 18 20  1  0  0  0  0
 18 21  1  0  0  0  0
 17 18  1  0  0  0  0
 14 15  1  0  0  0  0
 14 16  1  0  0  0  0
 14 17  1  0  0  0  0
 11 12  1  0  0  0  0
 11 13  1  0  0  0  0
 11 14  1  0  0  0  0
  9 10  1  0  0  0  0
  9 11  1  0  0  0  0
  9 22  1  0  0  0  0
  7  8  1  0  0  0  0
  7  9  1  0  0  0  0
 26 27  1  0  0  0  0
 26 28  1  0  0  0  0
 26 29  1  0  0  0  0
 24 25  1  0  0  0  0
 24 26  1  0  0  0  0
M  END
$$$$
default_name
  -OEChem-01062215323D

 29 28  0     1  0  0  0  0  0999 V2000
   -3.5781   -3.7296    1.2702 H   0  0  0  0  0  0  0  0  0  0  0  0
   -3.5311   -2.7616    0.7732 C   0  0  0  0  0  0  0  0  0  0  0  0
   -4.2371   -2.0766    1.2382 H   0  0  0  0  0  0  0  0  0  0  0  0
   -3.7681   -2.8816   -0.2818 H   0  0  0  0  0  0  0  0  0  0  0  0
   -2.1321   -2.2086    0.9112 C   0  0  0  0  0  0  0  0  0  0  0  0
   -1.2751   -2.8426    1.5112 O   0  0  0  0  0  0  0  0  0  0  0  0
   -1.9041   -1.0186    0.3602 N   0  0  0  0  0  0  0  0  0  0  0  0
   -2.6671   -0.5416   -0.0988 H   0  0  0  0  0  0  0  0  0  0  0  0
   -0.6131   -0.3236    0.3832 C   0  0  1  0  0  0  0  0  0  0  0  0
   -0.3992    0.0465   -0.6207 H   0  0  0  0  0  0  0  0  0  0  0  0
   -0.7083    0.8849    1.3327 C   0  0  0  0  0  0  0  0  0  0  0  0
   -1.0502    0.5375    2.3099 H   0  0  0  0  0  0  0  0  0  0  0  0
    0.2823    1.3253    1.4549 H   0  0  0  0  0  0  0  0  0  0  0  0
   -1.6713    1.9730    0.8442 C   0  0  0  0  0  0  0  0  0  0  0  0
   -2.6696    1.5481    0.7441 H   0  0  0  0  0  0  0  0  0  0  0  0
   -1.7029    2.7717    1.5862 H   0  0  0  0  0  0  0  0  0  0  0  0
   -1.2046    2.6928   -0.7508 S   0  0  0  0  0  0  0  0  0  0  0  0
    0.2926    3.5871   -0.2607 C   0  0  0  0  0  0  0  0  0  0  0  0
    1.0271    2.8853    0.1354 H   0  0  0  0  0  0  0  0  0  0  0  0
    0.7124    4.0932   -1.1305 H   0  0  0  0  0  0  0  0  0  0  0  0
    0.0461    4.3276    0.5008 H   0  0  0  0  0  0  0  0  0  0  0  0
    0.5099   -1.2899    0.7862 C   0  0  0  0  0  0  0  0  0  0  0  0
    1.6088   -0.8526    1.1216 O   0  0  0  0  0  0  0  0  0  0  0  0
    0.2387   -2.6007    0.7452 N   0  0  0  0  0  0  0  0  0  0  0  0
   -0.6897   -2.8837    0.4749 H   0  0  0  0  0  0  0  0  0  0  0  0
    1.2044   -3.6450    1.0838 C   0  0  0  0  0  0  0  0  0  0  0  0
    1.5631   -3.4969    2.1051 H   0  0  0  0  0  0  0  0  0  0  0  0
    0.7427   -4.6300    1.0046 H   0  0  0  0  0  0  0  0  0  0  0  0
    2.0585   -3.5903    0.4064 H   0  0  0  0  0  0  0  0  0  0  0  0
  5  6  2  0  0  0  0
  5  7  1  0  0  0  0
  2  3  1  0  0  0  0
  2  4  1  0  0  0  0
  2  5  1  0  0  0  0
  1  2  1  0  0  0  0
 22 23  2  0  0  0  0
 22 24  1  0  0  0  0
 18 19  1  0  0  0  0
 18 20  1  0  0  0  0
 18 21  1  0  0  0  0
 17 18  1  0  0  0  0
 14 15  1  0  0  0  0
 14 16  1  0  0  0  0
 14 17  1  0  0  0  0
 11 12  1  0  0  0  0
 11 13  1  0  0  0  0
 11 14  1  0  0  0  0
  9 10  1  0  0  0  0
  9 11  1  0  0  0  0
  9 22  1  0  0  0  0
  7  8  1  0  0  0  0
  7  9  1  0  0  0  0
 26 27  1  0  0  0  0
 26 28  1  0  0  0  0
 26 29  1  0  0  0  0
 24 25  1  0  0  0  0
 24 26  1  0  0  0  0
M  END
$$$$
default_name
  -OEChem-01062215323D

 29 28  0     1  0  0  0  0  0999 V2000
   -3.5781   -3.7296    1.2702 H   0  0  0  0  0  0  0  0  0  0  0  0
   -3.5311   -2.7616    0.7732 C   0  0  0  0  0  0  0  0  0  0  0  0
   -4.2371   -2.0766    1.2382 H   0  0  0  0  0  0  0  0  0  0  0  0
   -3.7681   -2.8816   -0.2818 H   0  0  0  0  0  0  0  0  0  0  0  0
   -2.1321   -2.2086    0.9112 C   0  0  0  0  0  0  0  0  0  0  0  0
   -1.2751   -2.8426    1.5112 O   0  0  0  0  0  0  0  0  0  0  0  0
   -1.9041   -1.0186    0.3602 N   0  0  0  0  0  0  0  0  0  0  0  0
   -2.6671   -0.5416   -0.0988 H   0  0  0  0  0  0  0  0  0  0  0  0
   -0.6131   -0.3236    0.3832 C   0  0  1  0  0  0  0  0  0  0  0  0
   -0.3992    0.0465   -0.6207 H   0  0  0  0  0  0  0  0  0  0  0  0
   -0.7083    0.8849    1.3327 C   0  0  0  0  0  0  0  0  0  0  0  0
   -1.0502    0.5375    2.3099 H   0  0  0  0  0  0  0  0  0  0  0  0
    0.2823    1.3253    1.4549 H   0  0  0  0  0  0  0  0  0  0  0  0
   -1.6713    1.9730    0.8442 C   0  0  0  0  0  0  0  0  0  0  0  0
   -2.6696    1.5481    0.7441 H   0  0  0  0  0  0  0  0  0  0  0  0
   -1.7029    2.7717    1.5862 H   0  0  0  0  0  0  0  0  0  0  0  0
   -1.2046    2.6928   -0.7508 S   0  0  0  0  0  0  0  0  0  0  0  0
    0.2926    3.5871   -0.2607 C   0  0  0  0  0  0  0  0  0  0  0  0
    1.0271    2.8853    0.1354 H   0  0  0  0  0  0  0  0  0  0  0  0
    0.7124    4.0932   -1.1305 H   0  0  0  0  0  0  0  0  0  0  0  0
    0.0461    4.3276    0.5008 H   0  0  0  0  0  0  0  0  0  0  0  0
    0.5099   -1.2899    0.7862 C   0  0  0  0  0  0  0  0  0  0  0  0
    1.5023   -0.8695    1.3775 O   0  0  0  0  0  0  0  0  0  0  0  0
    0.3590   -2.5799    0.4598 N   0  0  0  0  0  0  0  0  0  0  0  0
   -0.4888   -2.8529   -0.0112 H   0  0  0  0  0  0  0  0  0  0  0  0
    1.3438   -3.6182    0.7595 C   0  0  0  0  0  0  0  0  0  0  0  0
    1.5248   -3.6536    1.8363 H   0  0  0  0  0  0  0  0  0  0  0  0
    0.9841   -4.5917    0.4236 H   0  0  0  0  0  0  0  0  0  0  0  0
    2.2857   -3.3881    0.2583 H   0  0  0  0  0  0  0  0  0  0  0  0
  5  6  2  0  0  0  0
  5  7  1  0  0  0  0
  2  3  1  0  0  0  0
  2  4  1  0  0  0  0
  2  5  1  0  0  0  0
  1  2  1  0  0  0  0
 22 23  2  0  0  0  0
 22 24  1  0  0  0  0
 18 19  1  0  0  0  0
 18 20  1  0  0  0  0
 18 21  1  0  0  0  0
 17 18  1  0  0  0  0
 14 15  1  0  0  0  0
 14 16  1  0  0  0  0
 14 17  1  0  0  0  0
 11 12  1  0  0  0  0
 11 13  1  0  0  0  0
 11 14  1  0  0  0  0
  9 10  1  0  0  0  0
  9 11  1  0  0  0  0
  9 22  1  0  0  0  0
  7  8  1  0  0  0  0
  7  9  1  0  0  0  0
 26 27  1  0  0  0  0
 26 28  1  0  0  0  0
 26 29  1  0  0  0  0
 24 25  1  0  0  0  0
 24 26  1  0  0  0  0
M  END
$$$$
default_name
  -OEChem-01062215323D

 29 28  0     1  0  0  0  0  0999 V2000
   -3.5781   -3.7296    1.2702 H   0  0  0  0  0  0  0  0  0  0  0  0
   -3.5311   -2.7616    0.7732 C   0  0  0  0  0  0  0  0  0  0  0  0
   -4.2371   -2.0766    1.2382 H   0  0  0  0  0  0  0  0  0  0  0  0
   -3.7681   -2.8816   -0.2818 H   0  0  0  0  0  0  0  0  0  0  0  0
   -2.1321   -2.2086    0.9112 C   0  0  0  0  0  0  0  0  0  0  0  0
   -1.2751   -2.8426    1.5112 O   0  0  0  0  0  0  0  0  0  0  0  0
   -1.9041   -1.0186    0.3602 N   0  0  0  0  0  0  0  0  0  0  0  0
   -2.6671   -0.5416   -0.0988 H   0  0  0  0  0  0  0  0  0  0  0  0
   -0.6131   -0.3236    0.3832 C   0  0  1  0  0  0  0  0  0  0  0  0
   -0.3992    0.0465   -0.6207 H   0  0  0  0  0  0  0  0  0  0  0  0
   -0.7083    0.8849    1.3327 C   0  0  0  0  0  0  0  0  0  0  0  0
   -1.0502    0.5375    2.3099 H   0  0  0  0  0  0  0  0  0  0  0  0
    0.2823    1.3253    1.4549 H   0  0  0  0  0  0  0  0  0  0  0  0
   -1.6713    1.9730    0.8442 C   0  0  0  0  0  0  0  0  0  0  0  0
   -2.6696    1.5481    0.7441 H   0  0  0  0  0  0  0  0  0  0  0  0
   -1.7029    2.7717    1.5862 H   0  0  0  0  0  0  0  0  0  0  0  0
   -1.2046    2.6928   -0.7508 S   0  0  0  0  0  0  0  0  0  0  0  0
    0.2926    3.5871   -0.2607 C   0  0  0  0  0  0  0  0  0  0  0  0
    1.0271    2.8853    0.1354 H   0  0  0  0  0  0  0  0  0  0  0  0
    0.7124    4.0932   -1.1305 H   0  0  0  0  0  0  0  0  0  0  0  0
    0.0461    4.3276    0.5008 H   0  0  0  0  0  0  0  0  0  0  0  0
    0.5099   -1.2899    0.7862 C   0  0  0  0  0  0  0  0  0  0  0  0
    1.3590   -0.9416    1.6041 O   0  0  0  0  0  0  0  0  0  0  0  0
    0.5203   -2.4976    0.2076 N   0  0  0  0  0  0  0  0  0  0  0  0
   -0.2176   -2.7175   -0.4422 H   0  0  0  0  0  0  0  0  0  0  0  0
    1.5295   -3.5215    0.4739 C   0  0  0  0  0  0  0  0  0  0  0  0
    1.5422   -3.7566    1.5408 H   0  0  0  0  0  0  0  0  0  0  0  0
    1.3094   -4.4283   -0.0911 H   0  0  0  0  0  0  0  0  0  0  0  0
    2.5155   -3.1492    0.1905 H   0  0  0  0  0  0  0  0  0  0  0  0
  5  6  2  0  0  0  0
  5  7  1  0  0  0  0
  2  3  1  0  0  0  0
  2  4  1  0  0  0  0
  2  5  1  0  0  0  0
  1  2  1  0  0  0  0
 22 23  2  0  0  0  0
 22 24  1  0  0  0  0
 18 19  1  0  0  0  0
 18 20  1  0  0  0  0
 18 21  1  0  0  0  0
 17 18  1  0  0  0  0
 14 15  1  0  0  0  0
 14 16  1  0  0  0  0
 14 17  1  0  0  0  0
 11 12  1  0  0  0  0
 11 13  1  0  0  0  0
 11 14  1  0  0  0  0
  9 10  1  0  0  0  0
  9 11  1  0  0  0  0
  9 22  1  0  0  0  0
  7  8  1  0  0  0  0
  7  9  1  0  0  0  0
 26 27  1  0  0  0  0
 26 28  1  0  0  0  0
 26 29  1  0  0  0  0
 24 25  1  0  0  0  0
 24 26  1  0  0  0  0
M  END
$$$$
default_name
  -OEChem-01062215323D

 29 28  0     1  0  0  0  0  0999 V2000
   -3.5781   -3.7296    1.2702 H   0  0  0  0  0  0  0  0  0  0  0  0
   -3.5311   -2.7616    0.7732 C   0  0  0  0  0  0  0  0  0  0  0  0
   -4.2371   -2.0766    1.2382 H   0  0  0  0  0  0  0  0  0  0  0  0
   -3.7681   -2.8816   -0.2818 H   0  0  0  0  0  0  0  0  0  0  0  0
   -2.1321   -2.2086    0.9112 C   0  0  0  0  0  0  0  0  0  0  0  0
   -1.2751   -2.8426    1.5112 O   0  0  0  0  0  0  0  0  0  0  0  0
   -1.9041   -1.0186    0.3602 N   0  0  0  0  0  0  0  0  0  0  0  0
   -2.6671   -0.5416   -0.0988 H   0  0  0  0  0  0  0  0  0  0  0  0
   -0.6131   -0.3236    0.3832 C   0  0  1  0  0  0  0  0  0  0  0  0
   -0.3992    0.0465   -0.6207 H   0  0  0  0  0  0  0  0  0  0  0  0
   -0.7083    0.8849    1.3327 C   0  0  0  0  0  0  0  0  0  0  0  0
   -1.0502    0.5375    2.3099 H   0  0  0  0  0  0  0  0  0  0  0  0
    0.2823    1.3253    1.4549 H   0  0  0  0  0  0  0  0  0  0  0  0
   -1.6713    1.9730    0.8442 C   0  0  0  0  0  0  0  0  0  0  0  0
   -2.6696    1.5481    0.7441 H   0  0  0  0  0  0  0  0  0  0  0  0
   -1.7029    2.7717    1.5862 H   0  0  0  0  0  0  0  0  0  0  0  0
   -1.2046    2.6928   -0.7508 S   0  0  0  0  0  0  0  0  0  0  0  0
    0.2926    3.5871   -0.2607 C   0  0  0  0  0  0  0  0  0  0  0  0
    1.0271    2.8853    0.1354 H   0  0  0  0  0  0  0  0  0  0  0  0
    0.7124    4.0932   -1.1305 H   0  0  0  0  0  0  0  0  0  0  0  0
    0.0461    4.3276    0.5008 H   0  0  0  0  0  0  0  0  0  0  0  0
    0.5099   -1.2899    0.7862 C   0  0  0  0  0  0  0  0  0  0  0  0
    1.1885   -1.0638    1.7860 O   0  0  0  0  0  0  0  0  0  0  0  0
    0.7116   -2.3595    0.0059 N   0  0  0  0  0  0  0  0  0  0  0  0
    0.1054   -2.4866   -0.7888 H   0  0  0  0  0  0  0  0  0  0  0  0
    1.7487   -3.3615    0.2467 C   0  0  0  0  0  0  0  0  0  0  0  0
    1.6141   -3.7990    1.2387 H   0  0  0  0  0  0  0  0  0  0  0  0
    1.6963   -4.1509   -0.5042 H   0  0  0  0  0  0  0  0  0  0  0  0
    2.7324   -2.8901    0.2078 H   0  0  0  0  0  0  0  0  0  0  0  0
  5  6  2  0  0  0  0
  5  7  1  0  0  0  0
  2  3  1  0  0  0  0
  2  4  1  0  0  0  0
  2  5  1  0  0  0  0
  1  2  1  0  0  0  0
 22 23  2  0  0  0  0
 22 24  1  0  0  0  0
 18 19  1  0  0  0  0
 18 20  1  0  0  0  0
 18 21  1  0  0  0  0
 17 18  1  0  0  0  0
 14 15  1  0  0  0  0
 14 16  1  0  0  0  0
 14 17  1  0  0  0  0
 11 12  1  0  0  0  0
 11 13  1  0  0  0  0
 11 14  1  0  0  0  0
  9 10  1  0  0  0  0
  9 11  1  0  0  0  0
  9 22  1  0  0  0  0
  7  8  1  0  0  0  0
  7  9  1  0  0  0  0
 26 27  1  0  0  0  0
 26 28  1  0  0  0  0
 26 29  1  0  0  0  0
 24 25  1  0  0  0  0
 24 26  1  0  0  0  0
M  END
$$$$
default_name
  -OEChem-01062215323D

 29 28  0     1  0  0  0  0  0999 V2000
   -3.5781   -3.7296    1.2702 H   0  0  0  0  0  0  0  0  0  0  0  0
   -3.5311   -2.7616    0.7732 C   0  0  0  0  0  0  0  0  0  0  0  0
   -4.2371   -2.0766    1.2382 H   0  0  0  0  0  0  0  0  0  0  0  0
   -3.7681   -2.8816   -0.2818 H   0  0  0  0  0  0  0  0  0  0  0  0
   -2.1321   -2.2086    0.9112 C   0  0  0  0  0  0  0  0  0  0  0  0
   -1.2751   -2.8426    1.5112 O   0  0  0  0  0  0  0  0  0  0  0  0
   -1.9041   -1.0186    0.3602 N   0  0  0  0  0  0  0  0  0  0  0  0
   -2.6671   -0.5416   -0.0988 H   0  0  0  0  0  0  0  0  0  0  0  0
   -0.6131   -0.3236    0.3832 C   0  0  1  0  0  0  0  0  0  0  0  0
   -0.3992    0.0465   -0.6207 H   0  0  0  0  0  0  0  0  0  0  0  0
   -0.7083    0.8849    1.3327 C   0  0  0  0  0  0  0  0  0  0  0  0
   -1.0502    0.5375    2.3099 H   0  0  0  0  0  0  0  0  0  0  0  0
    0.2823    1.3253    1.4549 H   0  0  0  0  0  0  0  0  0  0  0  0
   -1.6713    1.9730    0.8442 C   0  0  0  0  0  0  0  0  0  0  0  0
   -2.6696    1.5481    0.7441 H   0  0  0  0  0  0  0  0  0  0  0  0
   -1.7029    2.7717    1.5862 H   0  0  0  0  0  0  0  0  0  0  0  0
   -1.2046    2.6928   -0.7508 S   0  0  0  0  0  0  0  0  0  0  0  0
    0.2926    3.5871   -0.2607 C   0  0  0  0  0  0  0  0  0  0  0  0
    1.0271    2.8853    0.1354 H   0  0  0  0  0  0  0  0  0  0  0  0
    0.7124    4.0932   -1.1305 H   0  0  0  0  0  0  0  0  0  0  0  0
    0.0461    4.3276    0.5008 H   0  0  0  0  0  0  0  0  0  0  0  0
    0.5099   -1.2899    0.7862 C   0  0  0  0  0  0  0  0  0  0  0  0
    1.0026   -1.2279    1.9108 O   0  0  0  0  0  0  0  0  0  0  0  0
    0.9198   -2.1748   -0.1316 N   0  0  0  0  0  0  0  0  0  0  0  0
    0.4581   -2.1761   -1.0271 H   0  0  0  0  0  0  0  0  0  0  0  0
    1.9867   -3.1490    0.0932 C   0  0  0  0  0  0  0  0  0  0  0  0
    1.7356   -3.7779    0.9505 H   0  0  0  0  0  0  0  0  0  0  0  0
    2.1185   -3.7785   -0.7878 H   0  0  0  0  0  0  0  0  0  0  0  0
    2.9214   -2.6283    0.3088 H   0  0  0  0  0  0  0  0  0  0  0  0
  5  6  2  0  0  0  0
  5  7  1  0  0  0  0
  2  3  1  0  0  0  0
  2  4  1  0  0  0  0
  2  5  1  0  0  0  0
  1  2  1  0  0  0  0
 22 23  2  0  0  0  0
 22 24  1  0  0  0  0
 18 19  1  0  0  0  0
 18 20  1  0  0  0  0
 18 21  1  0  0  0  0
 17 18  1  0  0  0  0
 14 15  1  0  0  0  0
 14 16  1  0  0  0  0
 14 17  1  0  0  0  0
 11 12  1  0  0  0  0
 11 13  1  0  0  0  0
 11 14  1  0  0  0  0
  9 10  1  0  0  0  0
  9 11  1  0  0  0  0
  9 22  1  0  0  0  0
  7  8  1  0  0  0  0
  7  9  1  0  0  0  0
 26 27  1  0  0  0  0
 26 28  1  0  0  0  0
 26 29  1  0  0  0  0
 24 25  1  0  0  0  0
 24 26  1  0  0  0  0
M  END
$$$$
default_name
  -OEChem-01062215323D

 29 28  0     1  0  0  0  0  0999 V2000
   -3.5781   -3.7296    1.2702 H   0  0  0  0  0  0  0  0  0  0  0  0
   -3.5311   -2.7616    0.7732 C   0  0  0  0  0  0  0  0  0  0  0  0
   -4.2371   -2.0766    1.2382 H   0  0  0  0  0  0  0  0  0  0  0  0
   -3.7681   -2.8816   -0.2818 H   0  0  0  0  0  0  0  0  0  0  0  0
   -2.1321   -2.2086    0.9112 C   0  0  0  0  0  0  0  0  0  0  0  0
   -1.2751   -2.8426    1.5112 O   0  0  0  0  0  0  0  0  0  0  0  0
   -1.9041   -1.0186    0.3602 N   0  0  0  0  0  0  0  0  0  0  0  0
   -2.6671   -0.5416   -0.0988 H   0  0  0  0  0  0  0  0  0  0  0  0
   -0.6131   -0.3236    0.3832 C   0  0  1  0  0  0  0  0  0  0  0  0
   -0.3992    0.0465   -0.6207 H   0  0  0  0  0  0  0  0  0  0  0  0
   -0.7083    0.8849    1.3327 C   0  0  0  0  0  0  0  0  0  0  0  0
   -1.0502    0.5375    2.3099 H   0  0  0  0  0  0  0  0  0  0  0  0
    0.2823    1.3253    1.4549 H   0  0  0  0  0  0  0  0  0  0  0  0
   -1.6713    1.9730    0.8442 C   0  0  0  0  0  0  0  0  0  0  0  0
   -2.6696    1.5481    0.7441 H   0  0  0  0  0  0  0  0  0  0  0  0
   -1.7029    2.7717    1.5862 H   0  0  0  0  0  0  0  0  0  0  0  0
   -1.2046    2.6928   -0.7508 S   0  0  0  0  0  0  0  0  0  0  0  0
    0.2926    3.5871   -0.2607 C   0  0  0  0  0  0  0  0  0  0  0  0
    1.0271    2.8853    0.1354 H   0  0  0  0  0  0  0  0  0  0  0  0
    0.7124    4.0932   -1.1305 H   0  0  0  0  0  0  0  0  0  0  0  0
    0.0461    4.3276    0.5008 H   0  0  0  0  0  0  0  0  0  0  0  0
    0.5099   -1.2899    0.7862 C   0  0  0  0  0  0  0  0  0  0  0  0
    0.8137   -1.4227    1.9699 O   0  0  0  0  0  0  0  0  0  0  0  0
    1.1308   -1.9563   -0.1956 N   0  0  0  0  0  0  0  0  0  0  0  0
    0.8166   -1.8071   -1.1412 H   0  0  0  0  0  0  0  0  0  0  0  0
    2.2271   -2.8985    0.0239 C   0  0  0  0  0  0  0  0  0  0  0  0
    1.8986   -3.6947    0.6960 H   0  0  0  0  0  0  0  0  0  0  0  0
    2.5472   -3.3365   -0.9224 H   0  0  0  0  0  0  0  0  0  0  0  0
    3.0697   -2.3817    0.4867 H   0  0  0  0  0  0  0  0  0  0  0  0
  5  6  2  0  0  0  0
  5  7  1  0  0  0  0
  2  3  1  0  0  0  0
  2  4  1  0  0  0  0
  2  5  1  0  0  0  0
  1  2  1  0  0  0  0
 22 23  2  0  0  0  0
 22 24  1  0  0  0  0
 18 19  1  0  0  0  0
 18 20  1  0  0  0  0
 18 21  1  0  0  0  0
 17 18  1  0  0  0  0
 14 15  1  0  0  0  0
 14 16  1  0  0  0  0
 14 17  1  0  0  0  0
 11 12  1  0  0  0  0
 11 13  1  0  0  0  0
 11 14  1  0  0  0  0
  9 10  1  0  0  0  0
  9 11  1  0  0  0  0
  9 22  1  0  0  0  0
  7  8  1  0  0  0  0
  7  9  1  0  0  0  0
 26 27  1  0  0  0  0
 26 28  1  0  0  0  0
 26 29  1  0  0  0  0
 24 25  1  0  0  0  0
 24 26  1  0  0  0  0
M  END
$$$$
default_name
  -OEChem-01062215323D

 29 28  0     1  0  0  0  0  0999 V2000
   -3.5781   -3.7296    1.2702 H   0  0  0  0  0  0  0  0  0  0  0  0
   -3.5311   -2.7616    0.7732 C   0  0  0  0  0  0  0  0  0  0  0  0
   -4.2371   -2.0766    1.2382 H   0  0  0  0  0  0  0  0  0  0  0  0
   -3.7681   -2.8816   -0.2818 H   0  0  0  0  0  0  0  0  0  0  0  0
   -2.1321   -2.2086    0.9112 C   0  0  0  0  0  0  0  0  0  0  0  0
   -1.2751   -2.8426    1.5112 O   0  0  0  0  0  0  0  0  0  0  0  0
   -1.9041   -1.0186    0.3602 N   0  0  0  0  0  0  0  0  0  0  0  0
   -2.6671   -0.5416   -0.0988 H   0  0  0  0  0  0  0  0  0  0  0  0
   -0.6131   -0.3236    0.3832 C   0  0  1  0  0  0  0  0  0  0  0  0
   -0.3992    0.0465   -0.6207 H   0  0  0  0  0  0  0  0  0  0  0  0
   -0.7083    0.8849    1.3327 C   0  0  0  0  0  0  0  0  0  0  0  0
   -1.0502    0.5375    2.3099 H   0  0  0  0  0  0  0  0  0  0  0  0
    0.2823    1.3253    1.4549 H   0  0  0  0  0  0  0  0  0  0  0  0
   -1.6713    1.9730    0.8442 C   0  0  0  0  0  0  0  0  0  0  0  0
   -2.6696    1.5481    0.7441 H   0  0  0  0  0  0  0  0  0  0  0  0
   -1.7029    2.7717    1.5862 H   0  0  0  0  0  0  0  0  0  0  0  0
   -1.2046    2.6928   -0.7508 S   0  0  0  0  0  0  0  0  0  0  0  0
    0.2926    3.5871   -0.2607 C   0  0  0  0  0  0  0  0  0  0  0  0
    1.0271    2.8853    0.1354 H   0  0  0  0  0  0  0  0  0  0  0  0
    0.7124    4.0932   -1.1305 H   0  0  0  0  0  0  0  0  0  0  0  0
    0.0461    4.3276    0.5008 H   0  0  0  0  0  0  0  0  0  0  0  0
    0.5099   -1.2899    0.7862 C   0  0  0  0  0  0  0  0  0  0  0  0
    0.6349   -1.6348    1.9595 O   0  0  0  0  0  0  0  0  0  0  0  0
    1.3302   -1.7188   -0.1816 N   0  0  0  0  0  0  0  0  0  0  0  0
    1.1563   -1.4048   -1.1231 H   0  0  0  0  0  0  0  0  0  0  0  0
    2.4536   -2.6271    0.0436 C   0  0  0  0  0  0  0  0  0  0  0  0
    2.0917   -3.5551    0.4924 H   0  0  0  0  0  0  0  0  0  0  0  0
    2.9532   -2.8549   -0.8989 H   0  0  0  0  0  0  0  0  0  0  0  0
    3.1673   -2.1671    0.7294 H   0  0  0  0  0  0  0  0  0  0  0  0
  5  6  2  0  0  0  0
  5  7  1  0  0  0  0
  2  3  1  0  0  0  0
  2  4  1  0  0  0  0
  2  5  1  0  0  0  0
  1  2  1  0  0  0  0
 22 23  2  0  0  0  0
 22 24  1  0  0  0  0
 18 19  1  0  0  0  0
 18 20  1  0  0  0  0
 18 21  1  0  0  0  0
 17 18  1  0  0  0  0
 14 15  1  0  0  0  0
 14 16  1  0  0  0  0
 14 17  1  0  0  0  0
 11 12  1  0  0  0  0
 11 13  1  0  0  0  0
 11 14  1  0  0  0  0
  9 10  1  0  0  0  0
  9 11  1  0  0  0  0
  9 22  1  0  0  0  0
  7  8  1  0  0  0  0
  7  9  1  0  0  0  0
 26 27  1  0  0  0  0
 26 28  1  0  0  0  0
 26 29  1  0  0  0  0
 24 25  1  0  0  0  0
 24 26  1  0  0  0  0
M  END
$$$$
default_name
  -OEChem-01062215323D

 29 28  0     1  0  0  0  0  0999 V2000
   -3.5781   -3.7296    1.2702 H   0  0  0  0  0  0  0  0  0  0  0  0
   -3.5311   -2.7616    0.7732 C   0  0  0  0  0  0  0  0  0  0  0  0
   -4.2371   -2.0766    1.2382 H   0  0  0  0  0  0  0  0  0  0  0  0
   -3.7681   -2.8816   -0.2818 H   0  0  0  0  0  0  0  0  0  0  0  0
   -2.1321   -2.2086    0.9112 C   0  0  0  0  0  0  0  0  0  0  0  0
   -1.2751   -2.8426    1.5112 O   0  0  0  0  0  0  0  0  0  0  0  0
   -1.9041   -1.0186    0.3602 N   0  0  0  0  0  0  0  0  0  0  0  0
   -2.6671   -0.5416   -0.0988 H   0  0  0  0  0  0  0  0  0  0  0  0
   -0.6131   -0.3236    0.3832 C   0  0  1  0  0  0  0  0  0  0  0  0
   -0.3992    0.0465   -0.6207 H   0  0  0  0  0  0  0  0  0  0  0  0
   -0.7083    0.8849    1.3327 C   0  0  0  0  0  0  0  0  0  0  0  0
   -1.0502    0.5375    2.3099 H   0  0  0  0  0  0  0  0  0  0  0  0
    0.2823    1.3253    1.4549 H   0  0  0  0  0  0  0  0  0  0  0  0
   -1.6713    1.9730    0.8442 C   0  0  0  0  0  0  0  0  0  0  0  0
   -2.6696    1.5481    0.7441 H   0  0  0  0  0  0  0  0  0  0  0  0
   -1.7029    2.7717    1.5862 H   0  0  0  0  0  0  0  0  0  0  0  0
   -1.2046    2.6928   -0.7508 S   0  0  0  0  0  0  0  0  0  0  0  0
    0.2926    3.5871   -0.2607 C   0  0  0  0  0  0  0  0  0  0  0  0
    1.0271    2.8853    0.1354 H   0  0  0  0  0  0  0  0  0  0  0  0
    0.7124    4.0932   -1.1305 H   0  0  0  0  0  0  0  0  0  0  0  0
    0.0461    4.3276    0.5008 H   0  0  0  0  0  0  0  0  0  0  0  0
    0.5099   -1.2899    0.7862 C   0  0  0  0  0  0  0  0  0  0  0  0
    0.4784   -1.8499    1.8801 O   0  0  0  0  0  0  0  0  0  0  0  0
    1.5044   -1.4784   -0.0907 N   0  0  0  0  0  0  0  0  0  0  0  0
    1.4542   -0.9964   -0.9740 H   0  0  0  0  0  0  0  0  0  0  0  0
    2.6507   -2.3533    0.1509 C   0  0  0  0  0  0  0  0  0  0  0  0
    2.3020   -3.3686    0.3537 H   0  0  0  0  0  0  0  0  0  0  0  0
    3.3088   -2.3665   -0.7189 H   0  0  0  0  0  0  0  0  0  0  0  0
    3.2074   -1.9991    1.0203 H   0  0  0  0  0  0  0  0  0  0  0  0
  5  6  2  0  0  0  0
  5  7  1  0  0  0  0
  2  3  1  0  0  0  0
  2  4  1  0  0  0  0
  2  5  1  0  0  0  0
  1  2  1  0  0  0  0
 22 23  2  0  0  0  0
 22 24  1  0  0  0  0
 18 19  1  0  0  0  0
 18 20  1  0  0  0  0
 18 21  1  0  0  0  0
 17 18  1  0  0  0  0
 14 15  1  0  0  0  0
 14 16  1  0  0  0  0
 14 17  1  0  0  0  0
 11 12  1  0  0  0  0
 11 13  1  0  0  0  0
 11 14  1  0  0  0  0
  9 10  1  0  0  0  0
  9 11  1  0  0  0  0
  9 22  1  0  0  0  0
  7  8  1  0  0  0  0
  7  9  1  0  0  0  0
 26 27  1  0  0  0  0
 26 28  1  0  0  0  0
 26 29  1  0  0  0  0
 24 25  1  0  0  0  0
 24 26  1  0  0  0  0
M  END
$$$$
default_name
  -OEChem-01062215323D

 29 28  0     1  0  0  0  0  0999 V2000
   -3.5781   -3.7296    1.2702 H   0  0  0  0  0  0  0  0  0  0  0  0
   -3.5311   -2.7616    0.7732 C   0  0  0  0  0  0  0  0  0  0  0  0
   -4.2371   -2.0766    1.2382 H   0  0  0  0  0  0  0  0  0  0  0  0
   -3.7681   -2.8816   -0.2818 H   0  0  0  0  0  0  0  0  0  0  0  0
   -2.1321   -2.2086    0.9112 C   0  0  0  0  0  0  0  0  0  0  0  0
   -1.2751   -2.8426    1.5112 O   0  0  0  0  0  0  0  0  0  0  0  0
   -1.9041   -1.0186    0.3602 N   0  0  0  0  0  0  0  0  0  0  0  0
   -2.6671   -0.5416   -0.0988 H   0  0  0  0  0  0  0  0  0  0  0  0
   -0.6131   -0.3236    0.3832 C   0  0  1  0  0  0  0  0  0  0  0  0
   -0.3992    0.0465   -0.6207 H   0  0  0  0  0  0  0  0  0  0  0  0
   -0.7083    0.8849    1.3327 C   0  0  0  0  0  0  0  0  0  0  0  0
   -1.0502    0.5375    2.3099 H   0  0  0  0  0  0  0  0  0  0  0  0
    0.2823    1.3253    1.4549 H   0  0  0  0  0  0  0  0  0  0  0  0
   -1.6713    1.9730    0.8442 C   0  0  0  0  0  0  0  0  0  0  0  0
   -2.6696    1.5481    0.7441 H   0  0  0  0  0  0  0  0  0  0  0  0
   -1.7029    2.7717    1.5862 H   0  0  0  0  0  0  0  0  0  0  0  0
   -1.2046    2.6928   -0.7508 S   0  0  0  0  0  0  0  0  0  0  0  0
    0.2926    3.5871   -0.2607 C   0  0  0  0  0  0  0  0  0  0  0  0
    1.0271    2.8853    0.1354 H   0  0  0  0  0  0  0  0  0  0  0  0
    0.7124    4.0932   -1.1305 H   0  0  0  0  0  0  0  0  0  0  0  0
    0.0461    4.3276    0.5008 H   0  0  0  0  0  0  0  0  0  0  0  0
    0.5099   -1.2899    0.7862 C   0  0  0  0  0  0  0  0  0  0  0  0
    0.3546   -2.0533    1.7372 O   0  0  0  0  0  0  0  0  0  0  0  0
    1.6415   -1.2516    0.0710 N   0  0  0  0  0  0  0  0  0  0  0  0
    1.6899   -0.6100   -0.7043 H   0  0  0  0  0  0  0  0  0  0  0  0
    2.8050   -2.0957    0.3385 C   0  0  0  0  0  0  0  0  0  0  0  0
    2.5151   -3.1479    0.2893 H   0  0  0  0  0  0  0  0  0  0  0  0
    3.5898   -1.9048   -0.3946 H   0  0  0  0  0  0  0  0  0  0  0  0
    3.1874   -1.8892    1.3397 H   0  0  0  0  0  0  0  0  0  0  0  0
  5  6  2  0  0  0  0
  5  7  1  0  0  0  0
  2  3  1  0  0  0  0
  2  4  1  0  0  0  0
  2  5  1  0  0  0  0
  1  2  1  0  0  0  0
 22 23  2  0  0  0  0
 22 24  1  0  0  0  0
 18 19  1  0  0  0  0
 18 20  1  0  0  0  0
 18 21  1  0  0  0  0
 17 18  1  0  0  0  0
 14 15  1  0  0  0  0
 14 16  1  0  0  0  0
 14 17  1  0  0  0  0
 11 12  1  0  0  0  0
 11 13  1  0  0  0  0
 11 14  1  0  0  0  0
  9 10  1  0  0  0  0
  9 11  1  0  0  0  0
  9 22  1  0  0  0  0
  7  8  1  0  0  0  0
  7  9  1  0  0  0  0
 26 27  1  0  0  0  0
 26 28  1  0  0  0  0
 26 29  1  0  0  0  0
 24 25  1  0  0  0  0
 24 26  1  0  0  0  0
M  END
$$$$
default_name
  -OEChem-01062215323D

 29 28  0     1  0  0  0  0  0999 V2000
   -3.5781   -3.7296    1.2702 H   0  0  0  0  0  0  0  0  0  0  0  0
   -3.5311   -2.7616    0.7732 C   0  0  0  0  0  0  0  0  0  0  0  0
   -4.2371   -2.0766    1.2382 H   0  0  0  0  0  0  0  0  0  0  0  0
   -3.7681   -2.8816   -0.2818 H   0  0  0  0  0  0  0  0  0  0  0  0
   -2.1321   -2.2086    0.9112 C   0  0  0  0  0  0  0  0  0  0  0  0
   -1.2751   -2.8426    1.5112 O   0  0  0  0  0  0  0  0  0  0  0  0
   -1.9041   -1.0186    0.3602 N   0  0  0  0  0  0  0  0  0  0  0  0
   -2.6671   -0.5416   -0.0988 H   0  0  0  0  0  0  0  0  0  0  0  0
   -0.6131   -0.3236    0.3832 C   0  0  1  0  0  0  0  0  0  0  0  0
   -0.3992    0.0465   -0.6207 H   0  0  0  0  0  0  0  0  0  0  0  0
   -0.7083    0.8849    1.3327 C   0  0  0  0  0  0  0  0  0  0  0  0
   -1.0502    0.5375    2.3099 H   0  0  0  0  0  0  0  0  0  0  0  0
    0.2823    1.3253    1.4549 H   0  0  0  0  0  0  0  0  0  0  0  0
   -1.6713    1.9730    0.8442 C   0  0  0  0  0  0  0  0  0  0  0  0
   -2.6696    1.5481    0.7441 H   0  0  0  0  0  0  0  0  0  0  0  0
   -1.7029    2.7717    1.5862 H   0  0  0  0  0  0  0  0  0  0  0  0
   -1.2046    2.6928   -0.7508 S   0  0  0  0  0  0  0  0  0  0  0  0
    0.2926    3.5871   -0.2607 C   0  0  0  0  0  0  0  0  0  0  0  0
    1.0271    2.8853    0.1354 H   0  0  0  0  0  0  0  0  0  0  0  0
    0.7124    4.0932   -1.1305 H   0  0  0  0  0  0  0  0  0  0  0  0
    0.0461    4.3276    0.5008 H   0  0  0  0  0  0  0  0  0  0  0  0
    0.5099   -1.2899    0.7862 C   0  0  0  0  0  0  0  0  0  0  0  0
    0.2722   -2.2311    1.5405 O   0  0  0  0  0  0  0  0  0  0  0  0
    1.7322   -1.0539    0.2924 N   0  0  0  0  0  0  0  0  0  0  0  0
    1.8474   -0.2718   -0.3322 H   0  0  0  0  0  0  0  0  0  0  0  0
    2.9060   -1.8719    0.5935 C   0  0  0  0  0  0  0  0  0  0  0  0
    2.7163   -2.9081    0.3035 H   0  0  0  0  0  0  0  0  0  0  0  0
    3.7770   -1.5010    0.0517 H   0  0  0  0  0  0  0  0  0  0  0  0
    3.1085   -1.8449    1.6657 H   0  0  0  0  0  0  0  0  0  0  0  0
  5  6  2  0  0  0  0
  5  7  1  0  0  0  0
  2  3  1  0  0  0  0
  2  4  1  0  0  0  0
  2  5  1  0  0  0  0
  1  2  1  0  0  0  0
 22 23  2  0  0  0  0
 22 24  1  0  0  0  0
 18 19  1  0  0  0  0
 18 20  1  0  0  0  0
 18 21  1  0  0  0  0
 17 18  1  0  0  0  0
 14 15  1  0  0  0  0
 14 16  1  0  0  0  0
 14 17  1  0  0  0  0
 11 12  1  0  0  0  0
 11 13  1  0  0  0  0
 11 14  1  0  0  0  0
  9 10  1  0  0  0  0
  9 11  1  0  0  0  0
  9 22  1  0  0  0  0
  7  8  1  0  0  0  0
  7  9  1  0  0  0  0
 26 27  1  0  0  0  0
 26 28  1  0  0  0  0
 26 29  1  0  0  0  0
 24 25  1  0  0  0  0
 24 26  1  0  0  0  0
M  END
$$$$
default_name
  -OEChem-01062215323D

 29 28  0     1  0  0  0  0  0999 V2000
   -3.5781   -3.7296    1.2702 H   0  0  0  0  0  0  0  0  0  0  0  0
   -3.5311   -2.7616    0.7732 C   0  0  0  0  0  0  0  0  0  0  0  0
   -4.2371   -2.0766    1.2382 H   0  0  0  0  0  0  0  0  0  0  0  0
   -3.7681   -2.8816   -0.2818 H   0  0  0  0  0  0  0  0  0  0  0  0
   -2.1321   -2.2086    0.9112 C   0  0  0  0  0  0  0  0  0  0  0  0
   -1.2751   -2.8426    1.5112 O   0  0  0  0  0  0  0  0  0  0  0  0
   -1.9041   -1.0186    0.3602 N   0  0  0  0  0  0  0  0  0  0  0  0
   -2.6671   -0.5416   -0.0988 H   0  0  0  0  0  0  0  0  0  0  0  0
   -0.6131   -0.3236    0.3832 C   0  0  1  0  0  0  0  0  0  0  0  0
   -0.3992    0.0465   -0.6207 H   0  0  0  0  0  0  0  0  0  0  0  0
   -0.7083    0.8849    1.3327 C   0  0  0  0  0  0  0  0  0  0  0  0
   -1.0502    0.5375    2.3099 H   0  0  0  0  0  0  0  0  0  0  0  0
    0.2823    1.3253    1.4549 H   0  0  0  0  0  0  0  0  0  0  0  0
   -1.6713    1.9730    0.8442 C   0  0  0  0  0  0  0  0  0  0  0  0
   -2.6696    1.5481    0.7441 H   0  0  0  0  0  0  0  0  0  0  0  0
   -1.7029    2.7717    1.5862 H   0  0  0  0  0  0  0  0  0  0  0  0
   -1.2046    2.6928   -0.7508 S   0  0  0  0  0  0  0  0  0  0  0  0
    0.2926    3.5871   -0.2607 C   0  0  0  0  0  0  0  0  0  0  0  0
    1.0271    2.8853    0.1354 H   0  0  0  0  0  0  0  0  0  0  0  0
    0.7124    4.0932   -1.1305 H   0  0  0  0  0  0  0  0  0  0  0  0
    0.0461    4.3276    0.5008 H   0  0  0  0  0  0  0  0  0  0  0  0
    0.5099   -1.2899    0.7862 C   0  0  0  0  0  0  0  0  0  0  0  0
    0.2368   -2.3711    1.3034 O   0  0  0  0  0  0  0  0  0  0  0  0
    1.7703   -0.8986    0.5586 N   0  0  0  0  0  0  0  0  0  0  0  0
    1.9160   -0.0049    0.1169 H   0  0  0  0  0  0  0  0  0  0  0  0
    2.9468   -1.6972    0.8987 C   0  0  0  0  0  0  0  0  0  0  0  0
    2.8922   -2.6654    0.3955 H   0  0  0  0  0  0  0  0  0  0  0  0
    3.8578   -1.1828    0.5898 H   0  0  0  0  0  0  0  0  0  0  0  0
    2.9762   -1.8692    1.9762 H   0  0  0  0  0  0  0  0  0  0  0  0
  5  6  2  0  0  0  0
  5  7  1  0  0  0  0
  2  3  1  0  0  0  0
  2  4  1  0  0  0  0
  2  5  1  0  0  0  0
  1  2  1  0  0  0  0
 22 23  2  0  0  0  0
 22 24  1  0  0  0  0
 18 19  1  0  0  0  0
 18 20  1  0  0  0  0
 18 21  1  0  0  0  0
 17 18  1  0  0  0  0
 14 15  1  0  0  0  0
 14 16  1  0  0  0  0
 14 17  1  0  0  0  0
 11 12  1  0  0  0  0
 11 13  1  0  0  0  0
 11 14  1  0  0  0  0
  9 10  1  0  0  0  0
  9 11  1  0  0  0  0
  9 22  1  0  0  0  0
  7  8  1  0  0  0  0
  7  9  1  0  0  0  0
 26 27  1  0  0  0  0
 26 28  1  0  0  0  0
 26 29  1  0  0  0  0
 24 25  1  0  0  0  0
 24 26  1  0  0  0  0
M  END
$$$$
default_name
  -OEChem-01062215323D

 29 28  0     1  0  0  0  0  0999 V2000
   -3.5781   -3.7296    1.2702 H   0  0  0  0  0  0  0  0  0  0  0  0
   -3.5311   -2.7616    0.7732 C   0  0  0  0  0  0  0  0  0  0  0  0
   -4.2371   -2.0766    1.2382 H   0  0  0  0  0  0  0  0  0  0  0  0
   -3.7681   -2.8816   -0.2818 H   0  0  0  0  0  0  0  0  0  0  0  0
   -2.1321   -2.2086    0.9112 C   0  0  0  0  0  0  0  0  0  0  0  0
   -1.2751   -2.8426    1.5112 O   0  0  0  0  0  0  0  0  0  0  0  0
   -1.9041   -1.0186    0.3602 N   0  0  0  0  0  0  0  0  0  0  0  0
   -2.6671   -0.5416   -0.0988 H   0  0  0  0  0  0  0  0  0  0  0  0
   -0.6131   -0.3236    0.3832 C   0  0  1  0  0  0  0  0  0  0  0  0
   -0.5207    0.2692   -0.5282 H   0  0  0  0  0  0  0  0  0  0  0  0
   -0.5784    0.6351    1.5876 C   0  0  0  0  0  0  0  0  0  0  0  0
   -0.8009    0.0682    2.4941 H   0  0  0  0  0  0  0  0  0  0  0  0
    0.4242    1.0542    1.6851 H   0  0  0  0  0  0  0  0  0  0  0  0
   -1.5831    1.7881    1.4817 C   0  0  0  0  0  0  0  0  0  0  0  0
   -2.5904    1.3790    1.4101 H   0  0  0  0  0  0  0  0  0  0  0  0
   -1.5150    2.3962    2.3845 H   0  0  0  0  0  0  0  0  0  0  0  0
   -1.3090    2.8604    0.0482 S   0  0  0  0  0  0  0  0  0  0  0  0
    0.2461    3.6469    0.5427 C   0  0  0  0  0  0  0  0  0  0  0  0
    1.0166    2.8869    0.6754 H   0  0  0  0  0  0  0  0  0  0  0  0
    0.5607    4.3452   -0.2334 H   0  0  0  0  0  0  0  0  0  0  0  0
    0.1028    4.1900    1.4772 H   0  0  0  0  0  0  0  0  0  0  0  0
    0.5411   -1.3356    0.4148 C   0  0  0  0  0  0  0  0  0  0  0  0
    0.3034   -2.5416    0.4259 O   0  0  0  0  0  0  0  0  0  0  0  0
    1.7879   -0.8473    0.4382 N   0  0  0  0  0  0  0  0  0  0  0  0
    1.9049    0.1531    0.4118 H   0  0  0  0  0  0  0  0  0  0  0  0
    2.9895   -1.6790    0.4846 C   0  0  0  0  0  0  0  0  0  0  0  0
    3.0028   -2.3540   -0.3744 H   0  0  0  0  0  0  0  0  0  0  0  0
    3.8843   -1.0556    0.4654 H   0  0  0  0  0  0  0  0  0  0  0  0
    2.9866   -2.2797    1.3959 H   0  0  0  0  0  0  0  0  0  0  0  0
  5  6  2  0  0  0  0
  5  7  1  0  0  0  0
  2  3  1  0  0  0  0
  2  4  1  0  0  0  0
  2  5  1  0  0  0  0
  1  2  1  0  0  0  0
 22 23  2  0  0  0  0
 22 24  1  0  0  0  0
 18 19  1  0  0  0  0
 18 20  1  0  0  0  0
 18 21  1  0  0  0  0
 17 18  1  0  0  0  0
 14 15  1  0  0  0  0
 14 16  1  0  0  0  0
 14 17  1  0  0  0  0
 11 12  1  0  0  0  0
 11 13  1  0  0  0  0
 11 14  1  0  0  0  0
  9 10  1  0  0  0  0
  9 11  1  0  0  0  0
  9 22  1  0  0  0  0
  7  8  1  0  0  0  0
  7  9  1  0  0  0  0
 26 27  1  0  0  0  0
 26 28  1  0  0  0  0
 26 29  1  0  0  0  0
 24 25  1  0  0  0  0
 24 26  1  0  0  0  0
M  END
$$$$
default_name
  -OEChem-01062215323D

 29 28  0     1  0  0  0  0  0999 V2000
   -3.5781   -3.7296    1.2702 H   0  0  0  0  0  0  0  0  0  0  0  0
   -3.5311   -2.7616    0.7732 C   0  0  0  0  0  0  0  0  0  0  0  0
   -4.2371   -2.0766    1.2382 H   0  0  0  0  0  0  0  0  0  0  0  0
   -3.7681   -2.8816   -0.2818 H   0  0  0  0  0  0  0  0  0  0  0  0
   -2.1321   -2.2086    0.9112 C   0  0  0  0  0  0  0  0  0  0  0  0
   -1.2751   -2.8426    1.5112 O   0  0  0  0  0  0  0  0  0  0  0  0
   -1.9041   -1.0186    0.3602 N   0  0  0  0  0  0  0  0  0  0  0  0
   -2.6671   -0.5416   -0.0988 H   0  0  0  0  0  0  0  0  0  0  0  0
   -0.6131   -0.3236    0.3832 C   0  0  1  0  0  0  0  0  0  0  0  0
   -0.5207    0.2692   -0.5282 H   0  0  0  0  0  0  0  0  0  0  0  0
   -0.5784    0.6351    1.5876 C   0  0  0  0  0  0  0  0  0  0  0  0
   -0.8009    0.0682    2.4941 H   0  0  0  0  0  0  0  0  0  0  0  0
    0.4242    1.0542    1.6851 H   0  0  0  0  0  0  0  0  0  0  0  0
   -1.5831    1.7881    1.4817 C   0  0  0  0  0  0  0  0  0  0  0  0
   -2.5904    1.3790    1.4101 H   0  0  0  0  0  0  0  0  0  0  0  0
   -1.5150    2.3962    2.3845 H   0  0  0  0  0  0  0  0  0  0  0  0
   -1.3090    2.8604    0.0482 S   0  0  0  0  0  0  0  0  0  0  0  0
    0.2461    3.6469    0.5427 C   0  0  0  0  0  0  0  0  0  0  0  0
    1.0166    2.8869    0.6754 H   0  0  0  0  0  0  0  0  0  0  0  0
    0.5607    4.3452   -0.2334 H   0  0  0  0  0  0  0  0  0  0  0  0
    0.1028    4.1900    1.4772 H   0  0  0  0  0  0  0  0  0  0  0  0
    0.5411   -1.3356    0.4148 C   0  0  0  0  0  0  0  0  0  0  0  0
    0.3318   -2.5178    0.1507 O   0  0  0  0  0  0  0  0  0  0  0  0
    1.7546   -0.8756    0.7456 N   0  0  0  0  0  0  0  0  0  0  0  0
    1.8522    0.1092    0.9343 H   0  0  0  0  0  0  0  0  0  0  0  0
    2.9489   -1.7143    0.8345 C   0  0  0  0  0  0  0  0  0  0  0  0
    3.1231   -2.2090   -0.1239 H   0  0  0  0  0  0  0  0  0  0  0  0
    3.8200   -1.1095    1.0901 H   0  0  0  0  0  0  0  0  0  0  0  0
    2.8045   -2.4811    1.5977 H   0  0  0  0  0  0  0  0  0  0  0  0
  5  6  2  0  0  0  0
  5  7  1  0  0  0  0
  2  3  1  0  0  0  0
  2  4  1  0  0  0  0
  2  5  1  0  0  0  0
  1  2  1  0  0  0  0
 22 23  2  0  0  0  0
 22 24  1  0  0  0  0
 18 19  1  0  0  0  0
 18 20  1  0  0  0  0
 18 21  1  0  0  0  0
 17 18  1  0  0  0  0
 14 15  1  0  0  0  0
 14 16  1  0  0  0  0
 14 17  1  0  0  0  0
 11 12  1  0  0  0  0
 11 13  1  0  0  0  0
 11 14  1  0  0  0  0
  9 10  1  0  0  0  0
  9 11  1  0  0  0  0
  9 22  1  0  0  0  0
  7  8  1  0  0  0  0
  7  9  1  0  0  0  0
 26 27  1  0  0  0  0
 26 28  1  0  0  0  0
 26 29  1  0  0  0  0
 24 25  1  0  0  0  0
 24 26  1  0  0  0  0
M  END
$$$$
default_name
  -OEChem-01062215323D

 29 28  0     1  0  0  0  0  0999 V2000
   -3.5781   -3.7296    1.2702 H   0  0  0  0  0  0  0  0  0  0  0  0
   -3.5311   -2.7616    0.7732 C   0  0  0  0  0  0  0  0  0  0  0  0
   -4.2371   -2.0766    1.2382 H   0  0  0  0  0  0  0  0  0  0  0  0
   -3.7681   -2.8816   -0.2818 H   0  0  0  0  0  0  0  0  0  0  0  0
   -2.1321   -2.2086    0.9112 C   0  0  0  0  0  0  0  0  0  0  0  0
   -1.2751   -2.8426    1.5112 O   0  0  0  0  0  0  0  0  0  0  0  0
   -1.9041   -1.0186    0.3602 N   0  0  0  0  0  0  0  0  0  0  0  0
   -2.6671   -0.5416   -0.0988 H   0  0  0  0  0  0  0  0  0  0  0  0
   -0.6131   -0.3236    0.3832 C   0  0  1  0  0  0  0  0  0  0  0  0
   -0.5207    0.2692   -0.5282 H   0  0  0  0  0  0  0  0  0  0  0  0
   -0.5784    0.6351    1.5876 C   0  0  0  0  0  0  0  0  0  0  0  0
   -0.8009    0.0682    2.4941 H   0  0  0  0  0  0  0  0  0  0  0  0
    0.4242    1.0542    1.6851 H   0  0  0  0  0  0  0  0  0  0  0  0
   -1.5831    1.7881    1.4817 C   0  0  0  0  0  0  0  0  0  0  0  0
   -2.5904    1.3790    1.4101 H   0  0  0  0  0  0  0  0  0  0  0  0
   -1.5150    2.3962    2.3845 H   0  0  0  0  0  0  0  0  0  0  0  0
   -1.3090    2.8604    0.0482 S   0  0  0  0  0  0  0  0  0  0  0  0
    0.2461    3.6469    0.5427 C   0  0  0  0  0  0  0  0  0  0  0  0
    1.0166    2.8869    0.6754 H   0  0  0  0  0  0  0  0  0  0  0  0
    0.5607    4.3452   -0.2334 H   0  0  0  0  0  0  0  0  0  0  0  0
    0.1028    4.1900    1.4772 H   0  0  0  0  0  0  0  0  0  0  0  0
    0.5411   -1.3356    0.4148 C   0  0  0  0  0  0  0  0  0  0  0  0
    0.4061   -2.4411   -0.1056 O   0  0  0  0  0  0  0  0  0  0  0  0
    1.6701   -0.9630    1.0312 N   0  0  0  0  0  0  0  0  0  0  0  0
    1.7123   -0.0351    1.4214 H   0  0  0  0  0  0  0  0  0  0  0  0
    2.8503   -1.8167    1.1587 C   0  0  0  0  0  0  0  0  0  0  0  0
    3.1959   -2.1169    0.1667 H   0  0  0  0  0  0  0  0  0  0  0  0
    3.6515   -1.2835    1.6721 H   0  0  0  0  0  0  0  0  0  0  0  0
    2.5952   -2.7159    1.7224 H   0  0  0  0  0  0  0  0  0  0  0  0
  5  6  2  0  0  0  0
  5  7  1  0  0  0  0
  2  3  1  0  0  0  0
  2  4  1  0  0  0  0
  2  5  1  0  0  0  0
  1  2  1  0  0  0  0
 22 23  2  0  0  0  0
 22 24  1  0  0  0  0
 18 19  1  0  0  0  0
 18 20  1  0  0  0  0
 18 21  1  0  0  0  0
 17 18  1  0  0  0  0
 14 15  1  0  0  0  0
 14 16  1  0  0  0  0
 14 17  1  0  0  0  0
 11 12  1  0  0  0  0
 11 13  1  0  0  0  0
 11 14  1  0  0  0  0
  9 10  1  0  0  0  0
  9 11  1  0  0  0  0
  9 22  1  0  0  0  0
  7  8  1  0  0  0  0
  7  9  1  0  0  0  0
 26 27  1  0  0  0  0
 26 28  1  0  0  0  0
 26 29  1  0  0  0  0
 24 25  1  0  0  0  0
 24 26  1  0  0  0  0
M  END
$$$$
default_name
  -OEChem-01062215323D

 29 28  0     1  0  0  0  0  0999 V2000
   -3.5781   -3.7296    1.2702 H   0  0  0  0  0  0  0  0  0  0  0  0
   -3.5311   -2.7616    0.7732 C   0  0  0  0  0  0  0  0  0  0  0  0
   -4.2371   -2.0766    1.2382 H   0  0  0  0  0  0  0  0  0  0  0  0
   -3.7681   -2.8816   -0.2818 H   0  0  0  0  0  0  0  0  0  0  0  0
   -2.1321   -2.2086    0.9112 C   0  0  0  0  0  0  0  0  0  0  0  0
   -1.2751   -2.8426    1.5112 O   0  0  0  0  0  0  0  0  0  0  0  0
   -1.9041   -1.0186    0.3602 N   0  0  0  0  0  0  0  0  0  0  0  0
   -2.6671   -0.5416   -0.0988 H   0  0  0  0  0  0  0  0  0  0  0  0
   -0.6131   -0.3236    0.3832 C   0  0  1  0  0  0  0  0  0  0  0  0
   -0.5207    0.2692   -0.5282 H   0  0  0  0  0  0  0  0  0  0  0  0
   -0.5784    0.6351    1.5876 C   0  0  0  0  0  0  0  0  0  0  0  0
   -0.8009    0.0682    2.4941 H   0  0  0  0  0  0  0  0  0  0  0  0
    0.4242    1.0542    1.6851 H   0  0  0  0  0  0  0  0  0  0  0  0
   -1.5831    1.7881    1.4817 C   0  0  0  0  0  0  0  0  0  0  0  0
   -2.5904    1.3790    1.4101 H   0  0  0  0  0  0  0  0  0  0  0  0
   -1.5150    2.3962    2.3845 H   0  0  0  0  0  0  0  0  0  0  0  0
   -1.3090    2.8604    0.0482 S   0  0  0  0  0  0  0  0  0  0  0  0
    0.2461    3.6469    0.5427 C   0  0  0  0  0  0  0  0  0  0  0  0
    1.0166    2.8869    0.6754 H   0  0  0  0  0  0  0  0  0  0  0  0
    0.5607    4.3452   -0.2334 H   0  0  0  0  0  0  0  0  0  0  0  0
    0.1028    4.1900    1.4772 H   0  0  0  0  0  0  0  0  0  0  0  0
    0.5411   -1.3356    0.4148 C   0  0  0  0  0  0  0  0  0  0  0  0
    0.5212   -2.3167   -0.3256 O   0  0  0  0  0  0  0  0  0  0  0  0
    1.5403   -1.1035    1.2757 N   0  0  0  0  0  0  0  0  0  0  0  0
    1.4949   -0.2700    1.8399 H   0  0  0  0  0  0  0  0  0  0  0  0
    2.7002   -1.9792    1.4352 C   0  0  0  0  0  0  0  0  0  0  0  0
    3.2161   -2.0842    0.4778 H   0  0  0  0  0  0  0  0  0  0  0  0
    3.3905   -1.5656    2.1716 H   0  0  0  0  0  0  0  0  0  0  0  0
    2.3730   -2.9680    1.7614 H   0  0  0  0  0  0  0  0  0  0  0  0
  5  6  2  0  0  0  0
  5  7  1  0  0  0  0
  2  3  1  0  0  0  0
  2  4  1  0  0  0  0
  2  5  1  0  0  0  0
  1  2  1  0  0  0  0
 22 23  2  0  0  0  0
 22 24  1  0  0  0  0
 18 19  1  0  0  0  0
 18 20  1  0  0  0  0
 18 21  1  0  0  0  0
 17 18  1  0  0  0  0
 14 15  1  0  0  0  0
 14 16  1  0  0  0  0
 14 17  1  0  0  0  0
 11 12  1  0  0  0  0
 11 13  1  0  0  0  0
 11 14  1  0  0  0  0
  9 10  1  0  0  0  0
  9 11  1  0  0  0  0
  9 22  1  0  0  0  0
  7  8  1  0  0  0  0
  7  9  1  0  0  0  0
 26 27  1  0  0  0  0
 26 28  1  0  0  0  0
 26 29  1  0  0  0  0
 24 25  1  0  0  0  0
 24 26  1  0  0  0  0
M  END
$$$$
default_name
  -OEChem-01062215323D

 29 28  0     1  0  0  0  0  0999 V2000
   -3.5781   -3.7296    1.2702 H   0  0  0  0  0  0  0  0  0  0  0  0
   -3.5311   -2.7616    0.7732 C   0  0  0  0  0  0  0  0  0  0  0  0
   -4.2371   -2.0766    1.2382 H   0  0  0  0  0  0  0  0  0  0  0  0
   -3.7681   -2.8816   -0.2818 H   0  0  0  0  0  0  0  0  0  0  0  0
   -2.1321   -2.2086    0.9112 C   0  0  0  0  0  0  0  0  0  0  0  0
   -1.2751   -2.8426    1.5112 O   0  0  0  0  0  0  0  0  0  0  0  0
   -1.9041   -1.0186    0.3602 N   0  0  0  0  0  0  0  0  0  0  0  0
   -2.6671   -0.5416   -0.0988 H   0  0  0  0  0  0  0  0  0  0  0  0
   -0.6131   -0.3236    0.3832 C   0  0  1  0  0  0  0  0  0  0  0  0
   -0.5207    0.2692   -0.5282 H   0  0  0  0  0  0  0  0  0  0  0  0
   -0.5784    0.6351    1.5876 C   0  0  0  0  0  0  0  0  0  0  0  0
   -0.8009    0.0682    2.4941 H   0  0  0  0  0  0  0  0  0  0  0  0
    0.4242    1.0542    1.6851 H   0  0  0  0  0  0  0  0  0  0  0  0
   -1.5831    1.7881    1.4817 C   0  0  0  0  0  0  0  0  0  0  0  0
   -2.5904    1.3790    1.4101 H   0  0  0  0  0  0  0  0  0  0  0  0
   -1.5150    2.3962    2.3845 H   0  0  0  0  0  0  0  0  0  0  0  0
   -1.3090    2.8604    0.0482 S   0  0  0  0  0  0  0  0  0  0  0  0
    0.2461    3.6469    0.5427 C   0  0  0  0  0  0  0  0  0  0  0  0
    1.0166    2.8869    0.6754 H   0  0  0  0  0  0  0  0  0  0  0  0
    0.5607    4.3452   -0.2334 H   0  0  0  0  0  0  0  0  0  0  0  0
    0.1028    4.1900    1.4772 H   0  0  0  0  0  0  0  0  0  0  0  0
    0.5411   -1.3356    0.4148 C   0  0  0  0  0  0  0  0  0  0  0  0
    0.6692   -2.1532   -0.4942 O   0  0  0  0  0  0  0  0  0  0  0  0
    1.3739   -1.2874    1.4624 N   0  0  0  0  0  0  0  0  0  0  0  0
    1.2147   -0.5795    2.1614 H   0  0  0  0  0  0  0  0  0  0  0  0
    2.5090   -2.1908    1.6450 C   0  0  0  0  0  0  0  0  0  0  0  0
    3.1823   -2.1129    0.7881 H   0  0  0  0  0  0  0  0  0  0  0  0
    3.0546   -1.9368    2.5547 H   0  0  0  0  0  0  0  0  0  0  0  0
    2.1531   -3.2204    1.7122 H   0  0  0  0  0  0  0  0  0  0  0  0
  5  6  2  0  0  0  0
  5  7  1  0  0  0  0
  2  3  1  0  0  0  0
  2  4  1  0  0  0  0
  2  5  1  0  0  0  0
  1  2  1  0  0  0  0
 22 23  2  0  0  0  0
 22 24  1  0  0  0  0
 18 19  1  0  0  0  0
 18 20  1  0  0  0  0
 18 21  1  0  0  0  0
 17 18  1  0  0  0  0
 14 15  1  0  0  0  0
 14 16  1  0  0  0  0
 14 17  1  0  0  0  0
 11 12  1  0  0  0  0
 11 13  1  0  0  0  0
 11 14  1  0  0  0  0
  9 10  1  0  0  0  0
  9 11  1  0  0  0  0
  9 22  1  0  0  0  0
  7  8  1  0  0  0  0
  7  9  1  0  0  0  0
 26 27  1  0  0  0  0
 26 28  1  0  0  0  0
 26 29  1  0  0  0  0
 24 25  1  0  0  0  0
 24 26  1  0  0  0  0
M  END
$$$$
default_name
  -OEChem-01062215323D

 29 28  0     1  0  0  0  0  0999 V2000
   -3.5781   -3.7296    1.2702 H   0  0  0  0  0  0  0  0  0  0  0  0
   -3.5311   -2.7616    0.7732 C   0  0  0  0  0  0  0  0  0  0  0  0
   -4.2371   -2.0766    1.2382 H   0  0  0  0  0  0  0  0  0  0  0  0
   -3.7681   -2.8816   -0.2818 H   0  0  0  0  0  0  0  0  0  0  0  0
   -2.1321   -2.2086    0.9112 C   0  0  0  0  0  0  0  0  0  0  0  0
   -1.2751   -2.8426    1.5112 O   0  0  0  0  0  0  0  0  0  0  0  0
   -1.9041   -1.0186    0.3602 N   0  0  0  0  0  0  0  0  0  0  0  0
   -2.6671   -0.5416   -0.0988 H   0  0  0  0  0  0  0  0  0  0  0  0
   -0.6131   -0.3236    0.3832 C   0  0  1  0  0  0  0  0  0  0  0  0
   -0.5207    0.2692   -0.5282 H   0  0  0  0  0  0  0  0  0  0  0  0
   -0.5784    0.6351    1.5876 C   0  0  0  0  0  0  0  0  0  0  0  0
   -0.8009    0.0682    2.4941 H   0  0  0  0  0  0  0  0  0  0  0  0
    0.4242    1.0542    1.6851 H   0  0  0  0  0  0  0  0  0  0  0  0
   -1.5831    1.7881    1.4817 C   0  0  0  0  0  0  0  0  0  0  0  0
   -2.5904    1.3790    1.4101 H   0  0  0  0  0  0  0  0  0  0  0  0
   -1.5150    2.3962    2.3845 H   0  0  0  0  0  0  0  0  0  0  0  0
   -1.3090    2.8604    0.0482 S   0  0  0  0  0  0  0  0  0  0  0  0
    0.2461    3.6469    0.5427 C   0  0  0  0  0  0  0  0  0  0  0  0
    1.0166    2.8869    0.6754 H   0  0  0  0  0  0  0  0  0  0  0  0
    0.5607    4.3452   -0.2334 H   0  0  0  0  0  0  0  0  0  0  0  0
    0.1028    4.1900    1.4772 H   0  0  0  0  0  0  0  0  0  0  0  0
    0.5411   -1.3356    0.4148 C   0  0  0  0  0  0  0  0  0  0  0  0
    0.8400   -1.9617   -0.6000 O   0  0  0  0  0  0  0  0  0  0  0  0
    1.1823   -1.5023    1.5786 N   0  0  0  0  0  0  0  0  0  0  0  0
    0.8909   -0.9425    2.3640 H   0  0  0  0  0  0  0  0  0  0  0  0
    2.2896   -2.4369    1.7738 C   0  0  0  0  0  0  0  0  0  0  0  0
    3.0970   -2.2013    1.0765 H   0  0  0  0  0  0  0  0  0  0  0  0
    2.6667   -2.3716    2.7952 H   0  0  0  0  0  0  0  0  0  0  0  0
    1.9504   -3.4557    1.5780 H   0  0  0  0  0  0  0  0  0  0  0  0
  5  6  2  0  0  0  0
  5  7  1  0  0  0  0
  2  3  1  0  0  0  0
  2  4  1  0  0  0  0
  2  5  1  0  0  0  0
  1  2  1  0  0  0  0
 22 23  2  0  0  0  0
 22 24  1  0  0  0  0
 18 19  1  0  0  0  0
 18 20  1  0  0  0  0
 18 21  1  0  0  0  0
 17 18  1  0  0  0  0
 14 15  1  0  0  0  0
 14 16  1  0  0  0  0
 14 17  1  0  0  0  0
 11 12  1  0  0  0  0
 11 13  1  0  0  0  0
 11 14  1  0  0  0  0
  9 10  1  0  0  0  0
  9 11  1  0  0  0  0
  9 22  1  0  0  0  0
  7  8  1  0  0  0  0
  7  9  1  0  0  0  0
 26 27  1  0  0  0  0
 26 28  1  0  0  0  0
 26 29  1  0  0  0  0
 24 25  1  0  0  0  0
 24 26  1  0  0  0  0
M  END
$$$$
default_name
  -OEChem-01062215323D

 29 28  0     1  0  0  0  0  0999 V2000
   -3.5781   -3.7296    1.2702 H   0  0  0  0  0  0  0  0  0  0  0  0
   -3.5311   -2.7616    0.7732 C   0  0  0  0  0  0  0  0  0  0  0  0
   -4.2371   -2.0766    1.2382 H   0  0  0  0  0  0  0  0  0  0  0  0
   -3.7681   -2.8816   -0.2818 H   0  0  0  0  0  0  0  0  0  0  0  0
   -2.1321   -2.2086    0.9112 C   0  0  0  0  0  0  0  0  0  0  0  0
   -1.2751   -2.8426    1.5112 O   0  0  0  0  0  0  0  0  0  0  0  0
   -1.9041   -1.0186    0.3602 N   0  0  0  0  0  0  0  0  0  0  0  0
   -2.6671   -0.5416   -0.0988 H   0  0  0  0  0  0  0  0  0  0  0  0
   -0.6131   -0.3236    0.3832 C   0  0  1  0  0  0  0  0  0  0  0  0
   -0.5207    0.2692   -0.5282 H   0  0  0  0  0  0  0  0  0  0  0  0
   -0.5784    0.6351    1.5876 C   0  0  0  0  0  0  0  0  0  0  0  0
   -0.8009    0.0682    2.4941 H   0  0  0  0  0  0  0  0  0  0  0  0
    0.4242    1.0542    1.6851 H   0  0  0  0  0  0  0  0  0  0  0  0
   -1.5831    1.7881    1.4817 C   0  0  0  0  0  0  0  0  0  0  0  0
   -2.5904    1.3790    1.4101 H   0  0  0  0  0  0  0  0  0  0  0  0
   -1.5150    2.3962    2.3845 H   0  0  0  0  0  0  0  0  0  0  0  0
   -1.3090    2.8604    0.0482 S   0  0  0  0  0  0  0  0  0  0  0  0
    0.2461    3.6469    0.5427 C   0  0  0  0  0  0  0  0  0  0  0  0
    1.0166    2.8869    0.6754 H   0  0  0  0  0  0  0  0  0  0  0  0
    0.5607    4.3452   -0.2334 H   0  0  0  0  0  0  0  0  0  0  0  0
    0.1028    4.1900    1.4772 H   0  0  0  0  0  0  0  0  0  0  0  0
    0.5411   -1.3356    0.4148 C   0  0  0  0  0  0  0  0  0  0  0  0
    1.0221   -1.7551   -0.6359 O   0  0  0  0  0  0  0  0  0  0  0  0
    0.9786   -1.7335    1.6163 N   0  0  0  0  0  0  0  0  0  0  0  0
    0.5455   -1.3343    2.4337 H   0  0  0  0  0  0  0  0  0  0  0  0
    2.0570   -2.7010    1.8130 C   0  0  0  0  0  0  0  0  0  0  0  0
    2.9658   -2.3432    1.3233 H   0  0  0  0  0  0  0  0  0  0  0  0
    2.2534   -2.8404    2.8768 H   0  0  0  0  0  0  0  0  0  0  0  0
    1.7788   -3.6580    1.3680 H   0  0  0  0  0  0  0  0  0  0  0  0
  5  6  2  0  0  0  0
  5  7  1  0  0  0  0
  2  3  1  0  0  0  0
  2  4  1  0  0  0  0
  2  5  1  0  0  0  0
  1  2  1  0  0  0  0
 22 23  2  0  0  0  0
 22 24  1  0  0  0  0
 18 19  1  0  0  0  0
 18 20  1  0  0  0  0
 18 21  1  0  0  0  0
 17 18  1  0  0  0  0
 14 15  1  0  0  0  0
 14 16  1  0  0  0  0
 14 17  1  0  0  0  0
 11 12  1  0  0  0  0
 11 13  1  0  0  0  0
 11 14  1  0  0  0  0
  9 10  1  0  0  0  0
  9 11  1  0  0  0  0
  9 22  1  0  0  0  0
  7  8  1  0  0  0  0
  7  9  1  0  0  0  0
 26 27  1  0  0  0  0
 26 28  1  0  0  0  0
 26 29  1  0  0  0  0
 24 25  1  0  0  0  0
 24 26  1  0  0  0  0
M  END
$$$$
default_name
  -OEChem-01062215323D

 29 28  0     1  0  0  0  0  0999 V2000
   -3.5781   -3.7296    1.2702 H   0  0  0  0  0  0  0  0  0  0  0  0
   -3.5311   -2.7616    0.7732 C   0  0  0  0  0  0  0  0  0  0  0  0
   -4.2371   -2.0766    1.2382 H   0  0  0  0  0  0  0  0  0  0  0  0
   -3.7681   -2.8816   -0.2818 H   0  0  0  0  0  0  0  0  0  0  0  0
   -2.1321   -2.2086    0.9112 C   0  0  0  0  0  0  0  0  0  0  0  0
   -1.2751   -2.8426    1.5112 O   0  0  0  0  0  0  0  0  0  0  0  0
   -1.9041   -1.0186    0.3602 N   0  0  0  0  0  0  0  0  0  0  0  0
   -2.6671   -0.5416   -0.0988 H   0  0  0  0  0  0  0  0  0  0  0  0
   -0.6131   -0.3236    0.3832 C   0  0  1  0  0  0  0  0  0  0  0  0
   -0.5207    0.2692   -0.5282 H   0  0  0  0  0  0  0  0  0  0  0  0
   -0.5784    0.6351    1.5876 C   0  0  0  0  0  0  0  0  0  0  0  0
   -0.8009    0.0682    2.4941 H   0  0  0  0  0  0  0  0  0  0  0  0
    0.4242    1.0542    1.6851 H   0  0  0  0  0  0  0  0  0  0  0  0
   -1.5831    1.7881    1.4817 C   0  0  0  0  0  0  0  0  0  0  0  0
   -2.5904    1.3790    1.4101 H   0  0  0  0  0  0  0  0  0  0  0  0
   -1.5150    2.3962    2.3845 H   0  0  0  0  0  0  0  0  0  0  0  0
   -1.3090    2.8604    0.0482 S   0  0  0  0  0  0  0  0  0  0  0  0
    0.2461    3.6469    0.5427 C   0  0  0  0  0  0  0  0  0  0  0  0
    1.0166    2.8869    0.6754 H   0  0  0  0  0  0  0  0  0  0  0  0
    0.5607    4.3452   -0.2334 H   0  0  0  0  0  0  0  0  0  0  0  0
    0.1028    4.1900    1.4772 H   0  0  0  0  0  0  0  0  0  0  0  0
    0.5411   -1.3356    0.4148 C   0  0  0  0  0  0  0  0  0  0  0  0
    1.2029   -1.5477   -0.5992 O   0  0  0  0  0  0  0  0  0  0  0  0
    0.7766   -1.9652    1.5730 N   0  0  0  0  0  0  0  0  0  0  0  0
    0.2020   -1.7281    2.3660 H   0  0  0  0  0  0  0  0  0  0  0  0
    1.8271   -2.9649    1.7597 C   0  0  0  0  0  0  0  0  0  0  0  0
    2.7977   -2.5290    1.5116 H   0  0  0  0  0  0  0  0  0  0  0  0
    1.8427   -3.3114    2.7939 H   0  0  0  0  0  0  0  0  0  0  0  0
    1.6499   -3.8135    1.0965 H   0  0  0  0  0  0  0  0  0  0  0  0
  5  6  2  0  0  0  0
  5  7  1  0  0  0  0
  2  3  1  0  0  0  0
  2  4  1  0  0  0  0
  2  5  1  0  0  0  0
  1  2  1  0  0  0  0
 22 23  2  0  0  0  0
 22 24  1  0  0  0  0
 18 19  1  0  0  0  0
 18 20  1  0  0  0  0
 18 21  1  0  0  0  0
 17 18  1  0  0  0  0
 14 15  1  0  0  0  0
 14 16  1  0  0  0  0
 14 17  1  0  0  0  0
 11 12  1  0  0  0  0
 11 13  1  0  0  0  0
 11 14  1  0  0  0  0
  9 10  1  0  0  0  0
  9 11  1  0  0  0  0
  9 22  1  0  0  0  0
  7  8  1  0  0  0  0
  7  9  1  0  0  0  0
 26 27  1  0  0  0  0
 26 28  1  0  0  0  0
 26 29  1  0  0  0  0
 24 25  1  0  0  0  0
 24 26  1  0  0  0  0
M  END
$$$$
default_name
  -OEChem-01062215323D

 29 28  0     1  0  0  0  0  0999 V2000
   -3.5781   -3.7296    1.2702 H   0  0  0  0  0  0  0  0  0  0  0  0
   -3.5311   -2.7616    0.7732 C   0  0  0  0  0  0  0  0  0  0  0  0
   -4.2371   -2.0766    1.2382 H   0  0  0  0  0  0  0  0  0  0  0  0
   -3.7681   -2.8816   -0.2818 H   0  0  0  0  0  0  0  0  0  0  0  0
   -2.1321   -2.2086    0.9112 C   0  0  0  0  0  0  0  0  0  0  0  0
   -1.2751   -2.8426    1.5112 O   0  0  0  0  0  0  0  0  0  0  0  0
   -1.9041   -1.0186    0.3602 N   0  0  0  0  0  0  0  0  0  0  0  0
   -2.6671   -0.5416   -0.0988 H   0  0  0  0  0  0  0  0  0  0  0  0
   -0.6131   -0.3236    0.3832 C   0  0  1  0  0  0  0  0  0  0  0  0
   -0.5207    0.2692   -0.5282 H   0  0  0  0  0  0  0  0  0  0  0  0
   -0.5784    0.6351    1.5876 C   0  0  0  0  0  0  0  0  0  0  0  0
   -0.8009    0.0682    2.4941 H   0  0  0  0  0  0  0  0  0  0  0  0
    0.4242    1.0542    1.6851 H   0  0  0  0  0  0  0  0  0  0  0  0
   -1.5831    1.7881    1.4817 C   0  0  0  0  0  0  0  0  0  0  0  0
   -2.5904    1.3790    1.4101 H   0  0  0  0  0  0  0  0  0  0  0  0
   -1.5150    2.3962    2.3845 H   0  0  0  0  0  0  0  0  0  0  0  0
   -1.3090    2.8604    0.0482 S   0  0  0  0  0  0  0  0  0  0  0  0
    0.2461    3.6469    0.5427 C   0  0  0  0  0  0  0  0  0  0  0  0
    1.0166    2.8869    0.6754 H   0  0  0  0  0  0  0  0  0  0  0  0
    0.5607    4.3452   -0.2334 H   0  0  0  0  0  0  0  0  0  0  0  0
    0.1028    4.1900    1.4772 H   0  0  0  0  0  0  0  0  0  0  0  0
    0.5411   -1.3356    0.4148 C   0  0  0  0  0  0  0  0  0  0  0  0
    1.3703   -1.3535   -0.4926 O   0  0  0  0  0  0  0  0  0  0  0  0
    0.5901   -2.1817    1.4517 N   0  0  0  0  0  0  0  0  0  0  0  0
   -0.1161   -2.0972    2.1653 H   0  0  0  0  0  0  0  0  0  0  0  0
    1.6155   -3.2106    1.6177 C   0  0  0  0  0  0  0  0  0  0  0  0
    2.6043   -2.7460    1.6288 H   0  0  0  0  0  0  0  0  0  0  0  0
    1.4627   -3.7524    2.5521 H   0  0  0  0  0  0  0  0  0  0  0  0
    1.5726   -3.9115    0.7821 H   0  0  0  0  0  0  0  0  0  0  0  0
  5  6  2  0  0  0  0
  5  7  1  0  0  0  0
  2  3  1  0  0  0  0
  2  4  1  0  0  0  0
  2  5  1  0  0  0  0
  1  2  1  0  0  0  0
 22 23  2  0  0  0  0
 22 24  1  0  0  0  0
 18 19  1  0  0  0  0
 18 20  1  0  0  0  0
 18 21  1  0  0  0  0
 17 18  1  0  0  0  0
 14 15  1  0  0  0  0
 14 16  1  0  0  0  0
 14 17  1  0  0  0  0
 11 12  1  0  0  0  0
 11 13  1  0  0  0  0
 11 14  1  0  0  0  0
  9 10  1  0  0  0  0
  9 11  1  0  0  0  0
  9 22  1  0  0  0  0
  7  8  1  0  0  0  0
  7  9  1  0  0  0  0
 26 27  1  0  0  0  0
 26 28  1  0  0  0  0
 26 29  1  0  0  0  0
 24 25  1  0  0  0  0
 24 26  1  0  0  0  0
M  END
$$$$
default_name
  -OEChem-01062215323D

 29 28  0     1  0  0  0  0  0999 V2000
   -3.5781   -3.7296    1.2702 H   0  0  0  0  0  0  0  0  0  0  0  0
   -3.5311   -2.7616    0.7732 C   0  0  0  0  0  0  0  0  0  0  0  0
   -4.2371   -2.0766    1.2382 H   0  0  0  0  0  0  0  0  0  0  0  0
   -3.7681   -2.8816   -0.2818 H   0  0  0  0  0  0  0  0  0  0  0  0
   -2.1321   -2.2086    0.9112 C   0  0  0  0  0  0  0  0  0  0  0  0
   -1.2751   -2.8426    1.5112 O   0  0  0  0  0  0  0  0  0  0  0  0
   -1.9041   -1.0186    0.3602 N   0  0  0  0  0  0  0  0  0  0  0  0
   -2.6671   -0.5416   -0.0988 H   0  0  0  0  0  0  0  0  0  0  0  0
   -0.6131   -0.3236    0.3832 C   0  0  1  0  0  0  0  0  0  0  0  0
   -0.5207    0.2692   -0.5282 H   0  0  0  0  0  0  0  0  0  0  0  0
   -0.5784    0.6351    1.5876 C   0  0  0  0  0  0  0  0  0  0  0  0
   -0.8009    0.0682    2.4941 H   0  0  0  0  0  0  0  0  0  0  0  0
    0.4242    1.0542    1.6851 H   0  0  0  0  0  0  0  0  0  0  0  0
   -1.5831    1.7881    1.4817 C   0  0  0  0  0  0  0  0  0  0  0  0
   -2.5904    1.3790    1.4101 H   0  0  0  0  0  0  0  0  0  0  0  0
   -1.5150    2.3962    2.3845 H   0  0  0  0  0  0  0  0  0  0  0  0
   -1.3090    2.8604    0.0482 S   0  0  0  0  0  0  0  0  0  0  0  0
    0.2461    3.6469    0.5427 C   0  0  0  0  0  0  0  0  0  0  0  0
    1.0166    2.8869    0.6754 H   0  0  0  0  0  0  0  0  0  0  0  0
    0.5607    4.3452   -0.2334 H   0  0  0  0  0  0  0  0  0  0  0  0
    0.1028    4.1900    1.4772 H   0  0  0  0  0  0  0  0  0  0  0  0
    0.5411   -1.3356    0.4148 C   0  0  0  0  0  0  0  0  0  0  0  0
    1.5127   -1.1858   -0.3233 O   0  0  0  0  0  0  0  0  0  0  0  0
    0.4318   -2.3682    1.2605 N   0  0  0  0  0  0  0  0  0  0  0  0
   -0.3871   -2.4163    1.8454 H   0  0  0  0  0  0  0  0  0  0  0  0
    1.4367   -3.4215    1.3966 C   0  0  0  0  0  0  0  0  0  0  0  0
    2.3986   -2.9794    1.6667 H   0  0  0  0  0  0  0  0  0  0  0  0
    1.1393   -4.1333    2.1679 H   0  0  0  0  0  0  0  0  0  0  0  0
    1.5521   -3.9454    0.4461 H   0  0  0  0  0  0  0  0  0  0  0  0
  5  6  2  0  0  0  0
  5  7  1  0  0  0  0
  2  3  1  0  0  0  0
  2  4  1  0  0  0  0
  2  5  1  0  0  0  0
  1  2  1  0  0  0  0
 22 23  2  0  0  0  0
 22 24  1  0  0  0  0
 18 19  1  0  0  0  0
 18 20  1  0  0  0  0
 18 21  1  0  0  0  0
 17 18  1  0  0  0  0
 14 15  1  0  0  0  0
 14 16  1  0  0  0  0
 14 17  1  0  0  0  0
 11 12  1  0  0  0  0
 11 13  1  0  0  0  0
 11 14  1  0  0  0  0
  9 10  1  0  0  0  0
  9 11  1  0  0  0  0
  9 22  1  0  0  0  0
  7  8  1  0  0  0  0
  7  9  1  0  0  0  0
 26 27  1  0  0  0  0
 26 28  1  0  0  0  0
 26 29  1  0  0  0  0
 24 25  1  0  0  0  0
 24 26  1  0  0  0  0
M  END
$$$$
default_name
  -OEChem-01062215323D

 29 28  0     1  0  0  0  0  0999 V2000
   -3.5781   -3.7296    1.2702 H   0  0  0  0  0  0  0  0  0  0  0  0
   -3.5311   -2.7616    0.7732 C   0  0  0  0  0  0  0  0  0  0  0  0
   -4.2371   -2.0766    1.2382 H   0  0  0  0  0  0  0  0  0  0  0  0
   -3.7681   -2.8816   -0.2818 H   0  0  0  0  0  0  0  0  0  0  0  0
   -2.1321   -2.2086    0.9112 C   0  0  0  0  0  0  0  0  0  0  0  0
   -1.2751   -2.8426    1.5112 O   0  0  0  0  0  0  0  0  0  0  0  0
   -1.9041   -1.0186    0.3602 N   0  0  0  0  0  0  0  0  0  0  0  0
   -2.6671   -0.5416   -0.0988 H   0  0  0  0  0  0  0  0  0  0  0  0
   -0.6131   -0.3236    0.3832 C   0  0  1  0  0  0  0  0  0  0  0  0
   -0.5207    0.2692   -0.5282 H   0  0  0  0  0  0  0  0  0  0  0  0
   -0.5784    0.6351    1.5876 C   0  0  0  0  0  0  0  0  0  0  0  0
   -0.8009    0.0682    2.4941 H   0  0  0  0  0  0  0  0  0  0  0  0
    0.4242    1.0542    1.6851 H   0  0  0  0  0  0  0  0  0  0  0  0
   -1.5831    1.7881    1.4817 C   0  0  0  0  0  0  0  0  0  0  0  0
   -2.5904    1.3790    1.4101 H   0  0  0  0  0  0  0  0  0  0  0  0
   -1.5150    2.3962    2.3845 H   0  0  0  0  0  0  0  0  0  0  0  0
   -1.3090    2.8604    0.0482 S   0  0  0  0  0  0  0  0  0  0  0  0
    0.2461    3.6469    0.5427 C   0  0  0  0  0  0  0  0  0  0  0  0
    1.0166    2.8869    0.6754 H   0  0  0  0  0  0  0  0  0  0  0  0
    0.5607    4.3452   -0.2334 H   0  0  0  0  0  0  0  0  0  0  0  0
    0.1028    4.1900    1.4772 H   0  0  0  0  0  0  0  0  0  0  0  0
    0.5411   -1.3356    0.4148 C   0  0  0  0  0  0  0  0  0  0  0  0
    1.6205   -1.0559   -0.1028 O   0  0  0  0  0  0  0  0  0  0  0  0
    0.3126   -2.5119    1.0126 N   0  0  0  0  0  0  0  0  0  0  0  0
   -0.5927   -2.6637    1.4281 H   0  0  0  0  0  0  0  0  0  0  0  0
    1.3027   -3.5832    1.1115 C   0  0  0  0  0  0  0  0  0  0  0  0
    2.1946   -3.2134    1.6229 H   0  0  0  0  0  0  0  0  0  0  0  0
    0.8944   -4.4282    1.6675 H   0  0  0  0  0  0  0  0  0  0  0  0
    1.5897   -3.9129    0.1114 H   0  0  0  0  0  0  0  0  0  0  0  0
  5  6  2  0  0  0  0
  5  7  1  0  0  0  0
  2  3  1  0  0  0  0
  2  4  1  0  0  0  0
  2  5  1  0  0  0  0
  1  2  1  0  0  0  0
 22 23  2  0  0  0  0
 22 24  1  0  0  0  0
 18 19  1  0  0  0  0
 18 20  1  0  0  0  0
 18 21  1  0  0  0  0
 17 18  1  0  0  0  0
 14 15  1  0  0  0  0
 14 16  1  0  0  0  0
 14 17  1  0  0  0  0
 11 12  1  0  0  0  0
 11 13  1  0  0  0  0
 11 14  1  0  0  0  0
  9 10  1  0  0  0  0
  9 11  1  0  0  0  0
  9 22  1  0  0  0  0
  7  8  1  0  0  0  0
  7  9  1  0  0  0  0
 26 27  1  0  0  0  0
 26 28  1  0  0  0  0
 26 29  1  0  0  0  0
 24 25  1  0  0  0  0
 24 26  1  0  0  0  0
M  END
$$$$
default_name
  -OEChem-01062215323D

 29 28  0     1  0  0  0  0  0999 V2000
   -3.5781   -3.7296    1.2702 H   0  0  0  0  0  0  0  0  0  0  0  0
   -3.5311   -2.7616    0.7732 C   0  0  0  0  0  0  0  0  0  0  0  0
   -4.2371   -2.0766    1.2382 H   0  0  0  0  0  0  0  0  0  0  0  0
   -3.7681   -2.8816   -0.2818 H   0  0  0  0  0  0  0  0  0  0  0  0
   -2.1321   -2.2086    0.9112 C   0  0  0  0  0  0  0  0  0  0  0  0
   -1.2751   -2.8426    1.5112 O   0  0  0  0  0  0  0  0  0  0  0  0
   -1.9041   -1.0186    0.3602 N   0  0  0  0  0  0  0  0  0  0  0  0
   -2.6671   -0.5416   -0.0988 H   0  0  0  0  0  0  0  0  0  0  0  0
   -0.6131   -0.3236    0.3832 C   0  0  1  0  0  0  0  0  0  0  0  0
   -0.5207    0.2692   -0.5282 H   0  0  0  0  0  0  0  0  0  0  0  0
   -0.5784    0.6351    1.5876 C   0  0  0  0  0  0  0  0  0  0  0  0
   -0.8009    0.0682    2.4941 H   0  0  0  0  0  0  0  0  0  0  0  0
    0.4242    1.0542    1.6851 H   0  0  0  0  0  0  0  0  0  0  0  0
   -1.5831    1.7881    1.4817 C   0  0  0  0  0  0  0  0  0  0  0  0
   -2.5904    1.3790    1.4101 H   0  0  0  0  0  0  0  0  0  0  0  0
   -1.5150    2.3962    2.3845 H   0  0  0  0  0  0  0  0  0  0  0  0
   -1.3090    2.8604    0.0482 S   0  0  0  0  0  0  0  0  0  0  0  0
    0.2461    3.6469    0.5427 C   0  0  0  0  0  0  0  0  0  0  0  0
    1.0166    2.8869    0.6754 H   0  0  0  0  0  0  0  0  0  0  0  0
    0.5607    4.3452   -0.2334 H   0  0  0  0  0  0  0  0  0  0  0  0
    0.1028    4.1900    1.4772 H   0  0  0  0  0  0  0  0  0  0  0  0
    0.5411   -1.3356    0.4148 C   0  0  0  0  0  0  0  0  0  0  0  0
    1.6863   -0.9729    0.1538 O   0  0  0  0  0  0  0  0  0  0  0  0
    0.2404   -2.6032    0.7248 N   0  0  0  0  0  0  0  0  0  0  0  0
   -0.7187   -2.8227    0.9417 H   0  0  0  0  0  0  0  0  0  0  0  0
    1.2229   -3.6845    0.7819 C   0  0  0  0  0  0  0  0  0  0  0  0
    2.0064   -3.4319    1.5002 H   0  0  0  0  0  0  0  0  0  0  0  0
    0.7448   -4.6170    1.0850 H   0  0  0  0  0  0  0  0  0  0  0  0
    1.6830   -3.8162   -0.1991 H   0  0  0  0  0  0  0  0  0  0  0  0
  5  6  2  0  0  0  0
  5  7  1  0  0  0  0
  2  3  1  0  0  0  0
  2  4  1  0  0  0  0
  2  5  1  0  0  0  0
  1  2  1  0  0  0  0
 22 23  2  0  0  0  0
 22 24  1  0  0  0  0
 18 19  1  0  0  0  0
 18 20  1  0  0  0  0
 18 21  1  0  0  0  0
 17 18  1  0  0  0  0
 14 15  1  0  0  0  0
 14 16  1  0  0  0  0
 14 17  1  0  0  0  0
 11 12  1  0  0  0  0
 11 13  1  0  0  0  0
 11 14  1  0  0  0  0
  9 10  1  0  0  0  0
  9 11  1  0  0  0  0
  9 22  1  0  0  0  0
  7  8  1  0  0  0  0
  7  9  1  0  0  0  0
 26 27  1  0  0  0  0
 26 28  1  0  0  0  0
 26 29  1  0  0  0  0
 24 25  1  0  0  0  0
 24 26  1  0  0  0  0
M  END
$$$$
default_name
  -OEChem-01062215323D

 29 28  0     1  0  0  0  0  0999 V2000
   -3.5781   -3.7296    1.2702 H   0  0  0  0  0  0  0  0  0  0  0  0
   -3.5311   -2.7616    0.7732 C   0  0  0  0  0  0  0  0  0  0  0  0
   -4.2371   -2.0766    1.2382 H   0  0  0  0  0  0  0  0  0  0  0  0
   -3.7681   -2.8816   -0.2818 H   0  0  0  0  0  0  0  0  0  0  0  0
   -2.1321   -2.2086    0.9112 C   0  0  0  0  0  0  0  0  0  0  0  0
   -1.2751   -2.8426    1.5112 O   0  0  0  0  0  0  0  0  0  0  0  0
   -1.9041   -1.0186    0.3602 N   0  0  0  0  0  0  0  0  0  0  0  0
   -2.6671   -0.5416   -0.0988 H   0  0  0  0  0  0  0  0  0  0  0  0
   -0.6131   -0.3236    0.3832 C   0  0  1  0  0  0  0  0  0  0  0  0
   -0.5207    0.2692   -0.5282 H   0  0  0  0  0  0  0  0  0  0  0  0
   -0.5784    0.6351    1.5876 C   0  0  0  0  0  0  0  0  0  0  0  0
   -0.8009    0.0682    2.4941 H   0  0  0  0  0  0  0  0  0  0  0  0
    0.4242    1.0542    1.6851 H   0  0  0  0  0  0  0  0  0  0  0  0
   -1.5831    1.7881    1.4817 C   0  0  0  0  0  0  0  0  0  0  0  0
   -2.5904    1.3790    1.4101 H   0  0  0  0  0  0  0  0  0  0  0  0
   -1.5150    2.3962    2.3845 H   0  0  0  0  0  0  0  0  0  0  0  0
   -1.3090    2.8604    0.0482 S   0  0  0  0  0  0  0  0  0  0  0  0
    0.2461    3.6469    0.5427 C   0  0  0  0  0  0  0  0  0  0  0  0
    1.0166    2.8869    0.6754 H   0  0  0  0  0  0  0  0  0  0  0  0
    0.5607    4.3452   -0.2334 H   0  0  0  0  0  0  0  0  0  0  0  0
    0.1028    4.1900    1.4772 H   0  0  0  0  0  0  0  0  0  0  0  0
    0.5411   -1.3356    0.4148 C   0  0  0  0  0  0  0  0  0  0  0  0
    1.7057   -0.9422    0.4291 O   0  0  0  0  0  0  0  0  0  0  0  0
    0.2203   -2.6358    0.4167 N   0  0  0  0  0  0  0  0  0  0  0  0
   -0.7566   -2.8822    0.4196 H   0  0  0  0  0  0  0  0  0  0  0  0
    1.2025   -3.7187    0.4301 C   0  0  0  0  0  0  0  0  0  0  0  0
    1.8466   -3.6201    1.3070 H   0  0  0  0  0  0  0  0  0  0  0  0
    0.7007   -4.6868    0.4601 H   0  0  0  0  0  0  0  0  0  0  0  0
    1.8256   -3.6619   -0.4643 H   0  0  0  0  0  0  0  0  0  0  0  0
  5  6  2  0  0  0  0
  5  7  1  0  0  0  0
  2  3  1  0  0  0  0
  2  4  1  0  0  0  0
  2  5  1  0  0  0  0
  1  2  1  0  0  0  0
 22 23  2  0  0  0  0
 22 24  1  0  0  0  0
 18 19  1  0  0  0  0
 18 20  1  0  0  0  0
 18 21  1  0  0  0  0
 17 18  1  0  0  0  0
 14 15  1  0  0  0  0
 14 16  1  0  0  0  0
 14 17  1  0  0  0  0
 11 12  1  0  0  0  0
 11 13  1  0  0  0  0
 11 14  1  0  0  0  0
  9 10  1  0  0  0  0
  9 11  1  0  0  0  0
  9 22  1  0  0  0  0
  7  8  1  0  0  0  0
  7  9  1  0  0  0  0
 26 27  1  0  0  0  0
 26 28  1  0  0  0  0
 26 29  1  0  0  0  0
 24 25  1  0  0  0  0
 24 26  1  0  0  0  0
M  END
$$$$
default_name
  -OEChem-01062215323D

 29 28  0     1  0  0  0  0  0999 V2000
   -3.5781   -3.7296    1.2702 H   0  0  0  0  0  0  0  0  0  0  0  0
   -3.5311   -2.7616    0.7732 C   0  0  0  0  0  0  0  0  0  0  0  0
   -4.2371   -2.0766    1.2382 H   0  0  0  0  0  0  0  0  0  0  0  0
   -3.7681   -2.8816   -0.2818 H   0  0  0  0  0  0  0  0  0  0  0  0
   -2.1321   -2.2086    0.9112 C   0  0  0  0  0  0  0  0  0  0  0  0
   -1.2751   -2.8426    1.5112 O   0  0  0  0  0  0  0  0  0  0  0  0
   -1.9041   -1.0186    0.3602 N   0  0  0  0  0  0  0  0  0  0  0  0
   -2.6671   -0.5416   -0.0988 H   0  0  0  0  0  0  0  0  0  0  0  0
   -0.6131   -0.3236    0.3832 C   0  0  1  0  0  0  0  0  0  0  0  0
   -0.5207    0.2692   -0.5282 H   0  0  0  0  0  0  0  0  0  0  0  0
   -0.5784    0.6351    1.5876 C   0  0  0  0  0  0  0  0  0  0  0  0
   -0.8009    0.0682    2.4941 H   0  0  0  0  0  0  0  0  0  0  0  0
    0.4242    1.0542    1.6851 H   0  0  0  0  0  0  0  0  0  0  0  0
   -1.5831    1.7881    1.4817 C   0  0  0  0  0  0  0  0  0  0  0  0
   -2.5904    1.3790    1.4101 H   0  0  0  0  0  0  0  0  0  0  0  0
   -1.5150    2.3962    2.3845 H   0  0  0  0  0  0  0  0  0  0  0  0
   -1.3090    2.8604    0.0482 S   0  0  0  0  0  0  0  0  0  0  0  0
    0.2461    3.6469    0.5427 C   0  0  0  0  0  0  0  0  0  0  0  0
    1.0166    2.8869    0.6754 H   0  0  0  0  0  0  0  0  0  0  0  0
    0.5607    4.3452   -0.2334 H   0  0  0  0  0  0  0  0  0  0  0  0
    0.1028    4.1900    1.4772 H   0  0  0  0  0  0  0  0  0  0  0  0
    0.5411   -1.3356    0.4148 C   0  0  0  0  0  0  0  0  0  0  0  0
    1.6773   -0.9660    0.7042 O   0  0  0  0  0  0  0  0  0  0  0  0
    0.2536   -2.6074    0.1093 N   0  0  0  0  0  0  0  0  0  0  0  0
   -0.7038   -2.8383   -0.1029 H   0  0  0  0  0  0  0  0  0  0  0  0
    1.2430   -3.6835    0.0802 C   0  0  0  0  0  0  0  0  0  0  0  0
    1.7263   -3.7652    1.0566 H   0  0  0  0  0  0  0  0  0  0  0  0
    0.7650   -4.6329   -0.1647 H   0  0  0  0  0  0  0  0  0  0  0  0
    2.0077   -3.4605   -0.6661 H   0  0  0  0  0  0  0  0  0  0  0  0
  5  6  2  0  0  0  0
  5  7  1  0  0  0  0
  2  3  1  0  0  0  0
  2  4  1  0  0  0  0
  2  5  1  0  0  0  0
  1  2  1  0  0  0  0
 22 23  2  0  0  0  0
 22 24  1  0  0  0  0
 18 19  1  0  0  0  0
 18 20  1  0  0  0  0
 18 21  1  0  0  0  0
 17 18  1  0  0  0  0
 14 15  1  0  0  0  0
 14 16  1  0  0  0  0
 14 17  1  0  0  0  0
 11 12  1  0  0  0  0
 11 13  1  0  0  0  0
 11 14  1  0  0  0  0
  9 10  1  0  0  0  0
  9 11  1  0  0  0  0
  9 22  1  0  0  0  0
  7  8  1  0  0  0  0
  7  9  1  0  0  0  0
 26 27  1  0  0  0  0
 26 28  1  0  0  0  0
 26 29  1  0  0  0  0
 24 25  1  0  0  0  0
 24 26  1  0  0  0  0
M  END
$$$$
default_name
  -OEChem-01062215323D

 29 28  0     1  0  0  0  0  0999 V2000
   -3.5781   -3.7296    1.2702 H   0  0  0  0  0  0  0  0  0  0  0  0
   -3.5311   -2.7616    0.7732 C   0  0  0  0  0  0  0  0  0  0  0  0
   -4.2371   -2.0766    1.2382 H   0  0  0  0  0  0  0  0  0  0  0  0
   -3.7681   -2.8816   -0.2818 H   0  0  0  0  0  0  0  0  0  0  0  0
   -2.1321   -2.2086    0.9112 C   0  0  0  0  0  0  0  0  0  0  0  0
   -1.2751   -2.8426    1.5112 O   0  0  0  0  0  0  0  0  0  0  0  0
   -1.9041   -1.0186    0.3602 N   0  0  0  0  0  0  0  0  0  0  0  0
   -2.6671   -0.5416   -0.0988 H   0  0  0  0  0  0  0  0  0  0  0  0
   -0.6131   -0.3236    0.3832 C   0  0  1  0  0  0  0  0  0  0  0  0
   -0.5207    0.2692   -0.5282 H   0  0  0  0  0  0  0  0  0  0  0  0
   -0.5784    0.6351    1.5876 C   0  0  0  0  0  0  0  0  0  0  0  0
   -0.8009    0.0682    2.4941 H   0  0  0  0  0  0  0  0  0  0  0  0
    0.4242    1.0542    1.6851 H   0  0  0  0  0  0  0  0  0  0  0  0
   -1.5831    1.7881    1.4817 C   0  0  0  0  0  0  0  0  0  0  0  0
   -2.5904    1.3790    1.4101 H   0  0  0  0  0  0  0  0  0  0  0  0
   -1.5150    2.3962    2.3845 H   0  0  0  0  0  0  0  0  0  0  0  0
   -1.3090    2.8604    0.0482 S   0  0  0  0  0  0  0  0  0  0  0  0
    0.2461    3.6469    0.5427 C   0  0  0  0  0  0  0  0  0  0  0  0
    1.0166    2.8869    0.6754 H   0  0  0  0  0  0  0  0  0  0  0  0
    0.5607    4.3452   -0.2334 H   0  0  0  0  0  0  0  0  0  0  0  0
    0.1028    4.1900    1.4772 H   0  0  0  0  0  0  0  0  0  0  0  0
    0.5411   -1.3356    0.4148 C   0  0  0  0  0  0  0  0  0  0  0  0
    1.6030   -1.0427    0.9605 O   0  0  0  0  0  0  0  0  0  0  0  0
    0.3381   -2.5200   -0.1763 N   0  0  0  0  0  0  0  0  0  0  0  0
   -0.5640   -2.6940   -0.5900 H   0  0  0  0  0  0  0  0  0  0  0  0
    1.3417   -3.5811   -0.2441 C   0  0  0  0  0  0  0  0  0  0  0  0
    1.6535   -3.8573    0.7659 H   0  0  0  0  0  0  0  0  0  0  0  0
    0.9335   -4.4589   -0.7466 H   0  0  0  0  0  0  0  0  0  0  0  0
    2.2170   -3.2257   -0.7907 H   0  0  0  0  0  0  0  0  0  0  0  0
  5  6  2  0  0  0  0
  5  7  1  0  0  0  0
  2  3  1  0  0  0  0
  2  4  1  0  0  0  0
  2  5  1  0  0  0  0
  1  2  1  0  0  0  0
 22 23  2  0  0  0  0
 22 24  1  0  0  0  0
 18 19  1  0  0  0  0
 18 20  1  0  0  0  0
 18 21  1  0  0  0  0
 17 18  1  0  0  0  0
 14 15  1  0  0  0  0
 14 16  1  0  0  0  0
 14 17  1  0  0  0  0
 11 12  1  0  0  0  0
 11 13  1  0  0  0  0
 11 14  1  0  0  0  0
  9 10  1  0  0  0  0
  9 11  1  0  0  0  0
  9 22  1  0  0  0  0
  7  8  1  0  0  0  0
  7  9  1  0  0  0  0
 26 27  1  0  0  0  0
 26 28  1  0  0  0  0
 26 29  1  0  0  0  0
 24 25  1  0  0  0  0
 24 26  1  0  0  0  0
M  END
$$$$
default_name
  -OEChem-01062215323D

 29 28  0     1  0  0  0  0  0999 V2000
   -3.5781   -3.7296    1.2702 H   0  0  0  0  0  0  0  0  0  0  0  0
   -3.5311   -2.7616    0.7732 C   0  0  0  0  0  0  0  0  0  0  0  0
   -4.2371   -2.0766    1.2382 H   0  0  0  0  0  0  0  0  0  0  0  0
   -3.7681   -2.8816   -0.2818 H   0  0  0  0  0  0  0  0  0  0  0  0
   -2.1321   -2.2086    0.9112 C   0  0  0  0  0  0  0  0  0  0  0  0
   -1.2751   -2.8426    1.5112 O   0  0  0  0  0  0  0  0  0  0  0  0
   -1.9041   -1.0186    0.3602 N   0  0  0  0  0  0  0  0  0  0  0  0
   -2.6671   -0.5416   -0.0988 H   0  0  0  0  0  0  0  0  0  0  0  0
   -0.6131   -0.3236    0.3832 C   0  0  1  0  0  0  0  0  0  0  0  0
   -0.5207    0.2692   -0.5282 H   0  0  0  0  0  0  0  0  0  0  0  0
   -0.5784    0.6351    1.5876 C   0  0  0  0  0  0  0  0  0  0  0  0
   -0.8009    0.0682    2.4941 H   0  0  0  0  0  0  0  0  0  0  0  0
    0.4242    1.0542    1.6851 H   0  0  0  0  0  0  0  0  0  0  0  0
   -1.5831    1.7881    1.4817 C   0  0  0  0  0  0  0  0  0  0  0  0
   -2.5904    1.3790    1.4101 H   0  0  0  0  0  0  0  0  0  0  0  0
   -1.5150    2.3962    2.3845 H   0  0  0  0  0  0  0  0  0  0  0  0
   -1.3090    2.8604    0.0482 S   0  0  0  0  0  0  0  0  0  0  0  0
    0.2461    3.6469    0.5427 C   0  0  0  0  0  0  0  0  0  0  0  0
    1.0166    2.8869    0.6754 H   0  0  0  0  0  0  0  0  0  0  0  0
    0.5607    4.3452   -0.2334 H   0  0  0  0  0  0  0  0  0  0  0  0
    0.1028    4.1900    1.4772 H   0  0  0  0  0  0  0  0  0  0  0  0
    0.5411   -1.3356    0.4148 C   0  0  0  0  0  0  0  0  0  0  0  0
    1.4880   -1.1671    1.1805 O   0  0  0  0  0  0  0  0  0  0  0  0
    0.4679   -2.3795   -0.4208 N   0  0  0  0  0  0  0  0  0  0  0  0
   -0.3466   -2.4591   -1.0085 H   0  0  0  0  0  0  0  0  0  0  0  0
    1.4917   -3.4185   -0.5205 C   0  0  0  0  0  0  0  0  0  0  0  0
    1.6333   -3.8900    0.4549 H   0  0  0  0  0  0  0  0  0  0  0  0
    1.1946   -4.1768   -1.2462 H   0  0  0  0  0  0  0  0  0  0  0  0
    2.4391   -2.9735   -0.8298 H   0  0  0  0  0  0  0  0  0  0  0  0
  5  6  2  0  0  0  0
  5  7  1  0  0  0  0
  2  3  1  0  0  0  0
  2  4  1  0  0  0  0
  2  5  1  0  0  0  0
  1  2  1  0  0  0  0
 22 23  2  0  0  0  0
 22 24  1  0  0  0  0
 18 19  1  0  0  0  0
 18 20  1  0  0  0  0
 18 21  1  0  0  0  0
 17 18  1  0  0  0  0
 14 15  1  0  0  0  0
 14 16  1  0  0  0  0
 14 17  1  0  0  0  0
 11 12  1  0  0  0  0
 11 13  1  0  0  0  0
 11 14  1  0  0  0  0
  9 10  1  0  0  0  0
  9 11  1  0  0  0  0
  9 22  1  0  0  0  0
  7  8  1  0  0  0  0
  7  9  1  0  0  0  0
 26 27  1  0  0  0  0
 26 28  1  0  0  0  0
 26 29  1  0  0  0  0
 24 25  1  0  0  0  0
 24 26  1  0  0  0  0
M  END
$$$$
default_name
  -OEChem-01062215323D

 29 28  0     1  0  0  0  0  0999 V2000
   -3.5781   -3.7296    1.2702 H   0  0  0  0  0  0  0  0  0  0  0  0
   -3.5311   -2.7616    0.7732 C   0  0  0  0  0  0  0  0  0  0  0  0
   -4.2371   -2.0766    1.2382 H   0  0  0  0  0  0  0  0  0  0  0  0
   -3.7681   -2.8816   -0.2818 H   0  0  0  0  0  0  0  0  0  0  0  0
   -2.1321   -2.2086    0.9112 C   0  0  0  0  0  0  0  0  0  0  0  0
   -1.2751   -2.8426    1.5112 O   0  0  0  0  0  0  0  0  0  0  0  0
   -1.9041   -1.0186    0.3602 N   0  0  0  0  0  0  0  0  0  0  0  0
   -2.6671   -0.5416   -0.0988 H   0  0  0  0  0  0  0  0  0  0  0  0
   -0.6131   -0.3236    0.3832 C   0  0  1  0  0  0  0  0  0  0  0  0
   -0.5207    0.2692   -0.5282 H   0  0  0  0  0  0  0  0  0  0  0  0
   -0.5784    0.6351    1.5876 C   0  0  0  0  0  0  0  0  0  0  0  0
   -0.8009    0.0682    2.4941 H   0  0  0  0  0  0  0  0  0  0  0  0
    0.4242    1.0542    1.6851 H   0  0  0  0  0  0  0  0  0  0  0  0
   -1.5831    1.7881    1.4817 C   0  0  0  0  0  0  0  0  0  0  0  0
   -2.5904    1.3790    1.4101 H   0  0  0  0  0  0  0  0  0  0  0  0
   -1.5150    2.3962    2.3845 H   0  0  0  0  0  0  0  0  0  0  0  0
   -1.3090    2.8604    0.0482 S   0  0  0  0  0  0  0  0  0  0  0  0
    0.2461    3.6469    0.5427 C   0  0  0  0  0  0  0  0  0  0  0  0
    1.0166    2.8869    0.6754 H   0  0  0  0  0  0  0  0  0  0  0  0
    0.5607    4.3452   -0.2334 H   0  0  0  0  0  0  0  0  0  0  0  0
    0.1028    4.1900    1.4772 H   0  0  0  0  0  0  0  0  0  0  0  0
    0.5411   -1.3356    0.4148 C   0  0  0  0  0  0  0  0  0  0  0  0
    1.3400   -1.3306    1.3492 O   0  0  0  0  0  0  0  0  0  0  0  0
    0.6343   -2.1956   -0.6075 N   0  0  0  0  0  0  0  0  0  0  0  0
   -0.0664   -2.1496   -1.3301 H   0  0  0  0  0  0  0  0  0  0  0  0
    1.6830   -3.2070   -0.7303 C   0  0  0  0  0  0  0  0  0  0  0  0
    1.6670   -3.8612    0.1446 H   0  0  0  0  0  0  0  0  0  0  0  0
    1.5305   -3.8056   -1.6293 H   0  0  0  0  0  0  0  0  0  0  0  0
    2.6590   -2.7212   -0.7805 H   0  0  0  0  0  0  0  0  0  0  0  0
  5  6  2  0  0  0  0
  5  7  1  0  0  0  0
  2  3  1  0  0  0  0
  2  4  1  0  0  0  0
  2  5  1  0  0  0  0
  1  2  1  0  0  0  0
 22 23  2  0  0  0  0
 22 24  1  0  0  0  0
 18 19  1  0  0  0  0
 18 20  1  0  0  0  0
 18 21  1  0  0  0  0
 17 18  1  0  0  0  0
 14 15  1  0  0  0  0
 14 16  1  0  0  0  0
 14 17  1  0  0  0  0
 11 12  1  0  0  0  0
 11 13  1  0  0  0  0
 11 14  1  0  0  0  0
  9 10  1  0  0  0  0
  9 11  1  0  0  0  0
  9 22  1  0  0  0  0
  7  8  1  0  0  0  0
  7  9  1  0  0  0  0
 26 27  1  0  0  0  0
 26 28  1  0  0  0  0
 26 29  1  0  0  0  0
 24 25  1  0  0  0  0
 24 26  1  0  0  0  0
M  END
$$$$
default_name
  -OEChem-01062215323D

 29 28  0     1  0  0  0  0  0999 V2000
   -3.5781   -3.7296    1.2702 H   0  0  0  0  0  0  0  0  0  0  0  0
   -3.5311   -2.7616    0.7732 C   0  0  0  0  0  0  0  0  0  0  0  0
   -4.2371   -2.0766    1.2382 H   0  0  0  0  0  0  0  0  0  0  0  0
   -3.7681   -2.8816   -0.2818 H   0  0  0  0  0  0  0  0  0  0  0  0
   -2.1321   -2.2086    0.9112 C   0  0  0  0  0  0  0  0  0  0  0  0
   -1.2751   -2.8426    1.5112 O   0  0  0  0  0  0  0  0  0  0  0  0
   -1.9041   -1.0186    0.3602 N   0  0  0  0  0  0  0  0  0  0  0  0
   -2.6671   -0.5416   -0.0988 H   0  0  0  0  0  0  0  0  0  0  0  0
   -0.6131   -0.3236    0.3832 C   0  0  1  0  0  0  0  0  0  0  0  0
   -0.5207    0.2692   -0.5282 H   0  0  0  0  0  0  0  0  0  0  0  0
   -0.5784    0.6351    1.5876 C   0  0  0  0  0  0  0  0  0  0  0  0
   -0.8009    0.0682    2.4941 H   0  0  0  0  0  0  0  0  0  0  0  0
    0.4242    1.0542    1.6851 H   0  0  0  0  0  0  0  0  0  0  0  0
   -1.5831    1.7881    1.4817 C   0  0  0  0  0  0  0  0  0  0  0  0
   -2.5904    1.3790    1.4101 H   0  0  0  0  0  0  0  0  0  0  0  0
   -1.5150    2.3962    2.3845 H   0  0  0  0  0  0  0  0  0  0  0  0
   -1.3090    2.8604    0.0482 S   0  0  0  0  0  0  0  0  0  0  0  0
    0.2461    3.6469    0.5427 C   0  0  0  0  0  0  0  0  0  0  0  0
    1.0166    2.8869    0.6754 H   0  0  0  0  0  0  0  0  0  0  0  0
    0.5607    4.3452   -0.2334 H   0  0  0  0  0  0  0  0  0  0  0  0
    0.1028    4.1900    1.4772 H   0  0  0  0  0  0  0  0  0  0  0  0
    0.5411   -1.3356    0.4148 C   0  0  0  0  0  0  0  0  0  0  0  0
    1.1691   -1.5222    1.4550 O   0  0  0  0  0  0  0  0  0  0  0  0
    0.8259   -1.9807   -0.7237 N   0  0  0  0  0  0  0  0  0  0  0  0
    0.2574   -1.7866   -1.5326 H   0  0  0  0  0  0  0  0  0  0  0  0
    1.9023   -2.9608   -0.8591 C   0  0  0  0  0  0  0  0  0  0  0  0
    1.7524   -3.7729   -0.1438 H   0  0  0  0  0  0  0  0  0  0  0  0
    1.9183   -3.3708   -1.8698 H   0  0  0  0  0  0  0  0  0  0  0  0
    2.8617   -2.4858   -0.6463 H   0  0  0  0  0  0  0  0  0  0  0  0
  5  6  2  0  0  0  0
  5  7  1  0  0  0  0
  2  3  1  0  0  0  0
  2  4  1  0  0  0  0
  2  5  1  0  0  0  0
  1  2  1  0  0  0  0
 22 23  2  0  0  0  0
 22 24  1  0  0  0  0
 18 19  1  0  0  0  0
 18 20  1  0  0  0  0
 18 21  1  0  0  0  0
 17 18  1  0  0  0  0
 14 15  1  0  0  0  0
 14 16  1  0  0  0  0
 14 17  1  0  0  0  0
 11 12  1  0  0  0  0
 11 13  1  0  0  0  0
 11 14  1  0  0  0  0
  9 10  1  0  0  0  0
  9 11  1  0  0  0  0
  9 22  1  0  0  0  0
  7  8  1  0  0  0  0
  7  9  1  0  0  0  0
 26 27  1  0  0  0  0
 26 28  1  0  0  0  0
 26 29  1  0  0  0  0
 24 25  1  0  0  0  0
 24 26  1  0  0  0  0
M  END
$$$$
default_name
  -OEChem-01062215323D

 29 28  0     1  0  0  0  0  0999 V2000
   -3.5781   -3.7296    1.2702 H   0  0  0  0  0  0  0  0  0  0  0  0
   -3.5311   -2.7616    0.7732 C   0  0  0  0  0  0  0  0  0  0  0  0
   -4.2371   -2.0766    1.2382 H   0  0  0  0  0  0  0  0  0  0  0  0
   -3.7681   -2.8816   -0.2818 H   0  0  0  0  0  0  0  0  0  0  0  0
   -2.1321   -2.2086    0.9112 C   0  0  0  0  0  0  0  0  0  0  0  0
   -1.2751   -2.8426    1.5112 O   0  0  0  0  0  0  0  0  0  0  0  0
   -1.9041   -1.0186    0.3602 N   0  0  0  0  0  0  0  0  0  0  0  0
   -2.6671   -0.5416   -0.0988 H   0  0  0  0  0  0  0  0  0  0  0  0
   -0.6131   -0.3236    0.3832 C   0  0  1  0  0  0  0  0  0  0  0  0
   -0.5207    0.2692   -0.5282 H   0  0  0  0  0  0  0  0  0  0  0  0
   -0.5784    0.6351    1.5876 C   0  0  0  0  0  0  0  0  0  0  0  0
   -0.8009    0.0682    2.4941 H   0  0  0  0  0  0  0  0  0  0  0  0
    0.4242    1.0542    1.6851 H   0  0  0  0  0  0  0  0  0  0  0  0
   -1.5831    1.7881    1.4817 C   0  0  0  0  0  0  0  0  0  0  0  0
   -2.5904    1.3790    1.4101 H   0  0  0  0  0  0  0  0  0  0  0  0
   -1.5150    2.3962    2.3845 H   0  0  0  0  0  0  0  0  0  0  0  0
   -1.3090    2.8604    0.0482 S   0  0  0  0  0  0  0  0  0  0  0  0
    0.2461    3.6469    0.5427 C   0  0  0  0  0  0  0  0  0  0  0  0
    1.0166    2.8869    0.6754 H   0  0  0  0  0  0  0  0  0  0  0  0
    0.5607    4.3452   -0.2334 H   0  0  0  0  0  0  0  0  0  0  0  0
    0.1028    4.1900    1.4772 H   0  0  0  0  0  0  0  0  0  0  0  0
    0.5411   -1.3356    0.4148 C   0  0  0  0  0  0  0  0  0  0  0  0
    0.9870   -1.7287    1.4908 O   0  0  0  0  0  0  0  0  0  0  0  0
    1.0296   -1.7495   -0.7614 N   0  0  0  0  0  0  0  0  0  0  0  0
    0.6028   -1.3948   -1.6024 H   0  0  0  0  0  0  0  0  0  0  0  0
    2.1349   -2.6968   -0.8983 C   0  0  0  0  0  0  0  0  0  0  0  0
    1.8836   -3.6310   -0.3906 H   0  0  0  0  0  0  0  0  0  0  0  0
    2.3316   -2.9019   -1.9514 H   0  0  0  0  0  0  0  0  0  0  0  0
    3.0333   -2.2835   -0.4364 H   0  0  0  0  0  0  0  0  0  0  0  0
  5  6  2  0  0  0  0
  5  7  1  0  0  0  0
  2  3  1  0  0  0  0
  2  4  1  0  0  0  0
  2  5  1  0  0  0  0
  1  2  1  0  0  0  0
 22 23  2  0  0  0  0
 22 24  1  0  0  0  0
 18 19  1  0  0  0  0
 18 20  1  0  0  0  0
 18 21  1  0  0  0  0
 17 18  1  0  0  0  0
 14 15  1  0  0  0  0
 14 16  1  0  0  0  0
 14 17  1  0  0  0  0
 11 12  1  0  0  0  0
 11 13  1  0  0  0  0
 11 14  1  0  0  0  0
  9 10  1  0  0  0  0
  9 11  1  0  0  0  0
  9 22  1  0  0  0  0
  7  8  1  0  0  0  0
  7  9  1  0  0  0  0
 26 27  1  0  0  0  0
 26 28  1  0  0  0  0
 26 29  1  0  0  0  0
 24 25  1  0  0  0  0
 24 26  1  0  0  0  0
M  END
$$$$
default_name
  -OEChem-01062215323D

 29 28  0     1  0  0  0  0  0999 V2000
   -3.5781   -3.7296    1.2702 H   0  0  0  0  0  0  0  0  0  0  0  0
   -3.5311   -2.7616    0.7732 C   0  0  0  0  0  0  0  0  0  0  0  0
   -4.2371   -2.0766    1.2382 H   0  0  0  0  0  0  0  0  0  0  0  0
   -3.7681   -2.8816   -0.2818 H   0  0  0  0  0  0  0  0  0  0  0  0
   -2.1321   -2.2086    0.9112 C   0  0  0  0  0  0  0  0  0  0  0  0
   -1.2751   -2.8426    1.5112 O   0  0  0  0  0  0  0  0  0  0  0  0
   -1.9041   -1.0186    0.3602 N   0  0  0  0  0  0  0  0  0  0  0  0
   -2.6671   -0.5416   -0.0988 H   0  0  0  0  0  0  0  0  0  0  0  0
   -0.6131   -0.3236    0.3832 C   0  0  1  0  0  0  0  0  0  0  0  0
   -0.5207    0.2692   -0.5282 H   0  0  0  0  0  0  0  0  0  0  0  0
   -0.5784    0.6351    1.5876 C   0  0  0  0  0  0  0  0  0  0  0  0
   -0.8009    0.0682    2.4941 H   0  0  0  0  0  0  0  0  0  0  0  0
    0.4242    1.0542    1.6851 H   0  0  0  0  0  0  0  0  0  0  0  0
   -1.5831    1.7881    1.4817 C   0  0  0  0  0  0  0  0  0  0  0  0
   -2.5904    1.3790    1.4101 H   0  0  0  0  0  0  0  0  0  0  0  0
   -1.5150    2.3962    2.3845 H   0  0  0  0  0  0  0  0  0  0  0  0
   -1.3090    2.8604    0.0482 S   0  0  0  0  0  0  0  0  0  0  0  0
    0.2461    3.6469    0.5427 C   0  0  0  0  0  0  0  0  0  0  0  0
    1.0166    2.8869    0.6754 H   0  0  0  0  0  0  0  0  0  0  0  0
    0.5607    4.3452   -0.2334 H   0  0  0  0  0  0  0  0  0  0  0  0
    0.1028    4.1900    1.4772 H   0  0  0  0  0  0  0  0  0  0  0  0
    0.5411   -1.3356    0.4148 C   0  0  0  0  0  0  0  0  0  0  0  0
    0.8062   -1.9361    1.4542 O   0  0  0  0  0  0  0  0  0  0  0  0
    1.2316   -1.5178   -0.7181 N   0  0  0  0  0  0  0  0  0  0  0  0
    0.9463   -1.0010   -1.5346 H   0  0  0  0  0  0  0  0  0  0  0  0
    2.3648   -2.4329   -0.8450 C   0  0  0  0  0  0  0  0  0  0  0  0
    2.0516   -3.4452   -0.5790 H   0  0  0  0  0  0  0  0  0  0  0  0
    2.7423   -2.4310   -1.8684 H   0  0  0  0  0  0  0  0  0  0  0  0
    3.1622   -2.1281   -0.1649 H   0  0  0  0  0  0  0  0  0  0  0  0
  5  6  2  0  0  0  0
  5  7  1  0  0  0  0
  2  3  1  0  0  0  0
  2  4  1  0  0  0  0
  2  5  1  0  0  0  0
  1  2  1  0  0  0  0
 22 23  2  0  0  0  0
 22 24  1  0  0  0  0
 18 19  1  0  0  0  0
 18 20  1  0  0  0  0
 18 21  1  0  0  0  0
 17 18  1  0  0  0  0
 14 15  1  0  0  0  0
 14 16  1  0  0  0  0
 14 17  1  0  0  0  0
 11 12  1  0  0  0  0
 11 13  1  0  0  0  0
 11 14  1  0  0  0  0
  9 10  1  0  0  0  0
  9 11  1  0  0  0  0
  9 22  1  0  0  0  0
  7  8  1  0  0  0  0
  7  9  1  0  0  0  0
 26 27  1  0  0  0  0
 26 28  1  0  0  0  0
 26 29  1  0  0  0  0
 24 25  1  0  0  0  0
 24 26  1  0  0  0  0
M  END
$$$$
default_name
  -OEChem-01062215323D

 29 28  0     1  0  0  0  0  0999 V2000
   -3.5781   -3.7296    1.2702 H   0  0  0  0  0  0  0  0  0  0  0  0
   -3.5311   -2.7616    0.7732 C   0  0  0  0  0  0  0  0  0  0  0  0
   -4.2371   -2.0766    1.2382 H   0  0  0  0  0  0  0  0  0  0  0  0
   -3.7681   -2.8816   -0.2818 H   0  0  0  0  0  0  0  0  0  0  0  0
   -2.1321   -2.2086    0.9112 C   0  0  0  0  0  0  0  0  0  0  0  0
   -1.2751   -2.8426    1.5112 O   0  0  0  0  0  0  0  0  0  0  0  0
   -1.9041   -1.0186    0.3602 N   0  0  0  0  0  0  0  0  0  0  0  0
   -2.6671   -0.5416   -0.0988 H   0  0  0  0  0  0  0  0  0  0  0  0
   -0.6131   -0.3236    0.3832 C   0  0  1  0  0  0  0  0  0  0  0  0
   -0.5207    0.2692   -0.5282 H   0  0  0  0  0  0  0  0  0  0  0  0
   -0.5784    0.6351    1.5876 C   0  0  0  0  0  0  0  0  0  0  0  0
   -0.8009    0.0682    2.4941 H   0  0  0  0  0  0  0  0  0  0  0  0
    0.4242    1.0542    1.6851 H   0  0  0  0  0  0  0  0  0  0  0  0
   -1.5831    1.7881    1.4817 C   0  0  0  0  0  0  0  0  0  0  0  0
   -2.5904    1.3790    1.4101 H   0  0  0  0  0  0  0  0  0  0  0  0
   -1.5150    2.3962    2.3845 H   0  0  0  0  0  0  0  0  0  0  0  0
   -1.3090    2.8604    0.0482 S   0  0  0  0  0  0  0  0  0  0  0  0
    0.2461    3.6469    0.5427 C   0  0  0  0  0  0  0  0  0  0  0  0
    1.0166    2.8869    0.6754 H   0  0  0  0  0  0  0  0  0  0  0  0
    0.5607    4.3452   -0.2334 H   0  0  0  0  0  0  0  0  0  0  0  0
    0.1028    4.1900    1.4772 H   0  0  0  0  0  0  0  0  0  0  0  0
    0.5411   -1.3356    0.4148 C   0  0  0  0  0  0  0  0  0  0  0  0
    0.6388   -2.1303    1.3475 O   0  0  0  0  0  0  0  0  0  0  0  0
    1.4181   -1.3013   -0.5967 N   0  0  0  0  0  0  0  0  0  0  0  0
    1.2644   -0.6320   -1.3339 H   0  0  0  0  0  0  0  0  0  0  0  0
    2.5764   -2.1871   -0.7030 C   0  0  0  0  0  0  0  0  0  0  0  0
    2.2451   -3.2282   -0.6961 H   0  0  0  0  0  0  0  0  0  0  0  0
    3.1223   -1.9900   -1.6266 H   0  0  0  0  0  0  0  0  0  0  0  0
    3.2396   -2.0300    0.1495 H   0  0  0  0  0  0  0  0  0  0  0  0
  5  6  2  0  0  0  0
  5  7  1  0  0  0  0
  2  3  1  0  0  0  0
  2  4  1  0  0  0  0
  2  5  1  0  0  0  0
  1  2  1  0  0  0  0
 22 23  2  0  0  0  0
 22 24  1  0  0  0  0
 18 19  1  0  0  0  0
 18 20  1  0  0  0  0
 18 21  1  0  0  0  0
 17 18  1  0  0  0  0
 14 15  1  0  0  0  0
 14 16  1  0  0  0  0
 14 17  1  0  0  0  0
 11 12  1  0  0  0  0
 11 13  1  0  0  0  0
 11 14  1  0  0  0  0
  9 10  1  0  0  0  0
  9 11  1  0  0  0  0
  9 22  1  0  0  0  0
  7  8  1  0  0  0  0
  7  9  1  0  0  0  0
 26 27  1  0  0  0  0
 26 28  1  0  0  0  0
 26 29  1  0  0  0  0
 24 25  1  0  0  0  0
 24 26  1  0  0  0  0
M  END
$$$$
default_name
  -OEChem-01062215323D

 29 28  0     1  0  0  0  0  0999 V2000
   -3.5781   -3.7296    1.2702 H   0  0  0  0  0  0  0  0  0  0  0  0
   -3.5311   -2.7616    0.7732 C   0  0  0  0  0  0  0  0  0  0  0  0
   -4.2371   -2.0766    1.2382 H   0  0  0  0  0  0  0  0  0  0  0  0
   -3.7681   -2.8816   -0.2818 H   0  0  0  0  0  0  0  0  0  0  0  0
   -2.1321   -2.2086    0.9112 C   0  0  0  0  0  0  0  0  0  0  0  0
   -1.2751   -2.8426    1.5112 O   0  0  0  0  0  0  0  0  0  0  0  0
   -1.9041   -1.0186    0.3602 N   0  0  0  0  0  0  0  0  0  0  0  0
   -2.6671   -0.5416   -0.0988 H   0  0  0  0  0  0  0  0  0  0  0  0
   -0.6131   -0.3236    0.3832 C   0  0  1  0  0  0  0  0  0  0  0  0
   -0.5207    0.2692   -0.5282 H   0  0  0  0  0  0  0  0  0  0  0  0
   -0.5784    0.6351    1.5876 C   0  0  0  0  0  0  0  0  0  0  0  0
   -0.8009    0.0682    2.4941 H   0  0  0  0  0  0  0  0  0  0  0  0
    0.4242    1.0542    1.6851 H   0  0  0  0  0  0  0  0  0  0  0  0
   -1.5831    1.7881    1.4817 C   0  0  0  0  0  0  0  0  0  0  0  0
   -2.5904    1.3790    1.4101 H   0  0  0  0  0  0  0  0  0  0  0  0
   -1.5150    2.3962    2.3845 H   0  0  0  0  0  0  0  0  0  0  0  0
   -1.3090    2.8604    0.0482 S   0  0  0  0  0  0  0  0  0  0  0  0
    0.2461    3.6469    0.5427 C   0  0  0  0  0  0  0  0  0  0  0  0
    1.0166    2.8869    0.6754 H   0  0  0  0  0  0  0  0  0  0  0  0
    0.5607    4.3452   -0.2334 H   0  0  0  0  0  0  0  0  0  0  0  0
    0.1028    4.1900    1.4772 H   0  0  0  0  0  0  0  0  0  0  0  0
    0.5411   -1.3356    0.4148 C   0  0  0  0  0  0  0  0  0  0  0  0
    0.4964   -2.2981    1.1782 O   0  0  0  0  0  0  0  0  0  0  0  0
    1.5763   -1.1148   -0.4056 N   0  0  0  0  0  0  0  0  0  0  0  0
    1.5354   -0.3128   -1.0140 H   0  0  0  0  0  0  0  0  0  0  0  0
    2.7553   -1.9762   -0.4820 C   0  0  0  0  0  0  0  0  0  0  0  0
    2.4508   -2.9947   -0.7341 H   0  0  0  0  0  0  0  0  0  0  0  0
    3.4458   -1.6091   -1.2424 H   0  0  0  0  0  0  0  0  0  0  0  0
    3.2601   -1.9961    0.4855 H   0  0  0  0  0  0  0  0  0  0  0  0
  5  6  2  0  0  0  0
  5  7  1  0  0  0  0
  2  3  1  0  0  0  0
  2  4  1  0  0  0  0
  2  5  1  0  0  0  0
  1  2  1  0  0  0  0
 22 23  2  0  0  0  0
 22 24  1  0  0  0  0
 18 19  1  0  0  0  0
 18 20  1  0  0  0  0
 18 21  1  0  0  0  0
 17 18  1  0  0  0  0
 14 15  1  0  0  0  0
 14 16  1  0  0  0  0
 14 17  1  0  0  0  0
 11 12  1  0  0  0  0
 11 13  1  0  0  0  0
 11 14  1  0  0  0  0
  9 10  1  0  0  0  0
  9 11  1  0  0  0  0
  9 22  1  0  0  0  0
  7  8  1  0  0  0  0
  7  9  1  0  0  0  0
 26 27  1  0  0  0  0
 26 28  1  0  0  0  0
 26 29  1  0  0  0  0
 24 25  1  0  0  0  0
 24 26  1  0  0  0  0
M  END
$$$$
default_name
  -OEChem-01062215323D

 29 28  0     1  0  0  0  0  0999 V2000
   -3.5781   -3.7296    1.2702 H   0  0  0  0  0  0  0  0  0  0  0  0
   -3.5311   -2.7616    0.7732 C   0  0  0  0  0  0  0  0  0  0  0  0
   -4.2371   -2.0766    1.2382 H   0  0  0  0  0  0  0  0  0  0  0  0
   -3.7681   -2.8816   -0.2818 H   0  0  0  0  0  0  0  0  0  0  0  0
   -2.1321   -2.2086    0.9112 C   0  0  0  0  0  0  0  0  0  0  0  0
   -1.2751   -2.8426    1.5112 O   0  0  0  0  0  0  0  0  0  0  0  0
   -1.9041   -1.0186    0.3602 N   0  0  0  0  0  0  0  0  0  0  0  0
   -2.6671   -0.5416   -0.0988 H   0  0  0  0  0  0  0  0  0  0  0  0
   -0.6131   -0.3236    0.3832 C   0  0  1  0  0  0  0  0  0  0  0  0
   -0.5207    0.2692   -0.5282 H   0  0  0  0  0  0  0  0  0  0  0  0
   -0.5784    0.6351    1.5876 C   0  0  0  0  0  0  0  0  0  0  0  0
   -0.8009    0.0682    2.4941 H   0  0  0  0  0  0  0  0  0  0  0  0
    0.4242    1.0542    1.6851 H   0  0  0  0  0  0  0  0  0  0  0  0
   -1.5831    1.7881    1.4817 C   0  0  0  0  0  0  0  0  0  0  0  0
   -2.5904    1.3790    1.4101 H   0  0  0  0  0  0  0  0  0  0  0  0
   -1.5150    2.3962    2.3845 H   0  0  0  0  0  0  0  0  0  0  0  0
   -1.3090    2.8604    0.0482 S   0  0  0  0  0  0  0  0  0  0  0  0
    0.2461    3.6469    0.5427 C   0  0  0  0  0  0  0  0  0  0  0  0
    1.0166    2.8869    0.6754 H   0  0  0  0  0  0  0  0  0  0  0  0
    0.5607    4.3452   -0.2334 H   0  0  0  0  0  0  0  0  0  0  0  0
    0.1028    4.1900    1.4772 H   0  0  0  0  0  0  0  0  0  0  0  0
    0.5411   -1.3356    0.4148 C   0  0  0  0  0  0  0  0  0  0  0  0
    0.3886   -2.4279    0.9577 O   0  0  0  0  0  0  0  0  0  0  0  0
    1.6956   -0.9711   -0.1576 N   0  0  0  0  0  0  0  0  0  0  0  0
    1.7410   -0.0654   -0.5967 H   0  0  0  0  0  0  0  0  0  0  0  0
    2.8892   -1.8146   -0.1969 C   0  0  0  0  0  0  0  0  0  0  0  0
    2.6548   -2.7608   -0.6902 H   0  0  0  0  0  0  0  0  0  0  0  0
    3.6906   -1.3142   -0.7420 H   0  0  0  0  0  0  0  0  0  0  0  0
    3.2225   -2.0286    0.8202 H   0  0  0  0  0  0  0  0  0  0  0  0
  5  6  2  0  0  0  0
  5  7  1  0  0  0  0
  2  3  1  0  0  0  0
  2  4  1  0  0  0  0
  2  5  1  0  0  0  0
  1  2  1  0  0  0  0
 22 23  2  0  0  0  0
 22 24  1  0  0  0  0
 18 19  1  0  0  0  0
 18 20  1  0  0  0  0
 18 21  1  0  0  0  0
 17 18  1  0  0  0  0
 14 15  1  0  0  0  0
 14 16  1  0  0  0  0
 14 17  1  0  0  0  0
 11 12  1  0  0  0  0
 11 13  1  0  0  0  0
 11 14  1  0  0  0  0
  9 10  1  0  0  0  0
  9 11  1  0  0  0  0
  9 22  1  0  0  0  0
  7  8  1  0  0  0  0
  7  9  1  0  0  0  0
 26 27  1  0  0  0  0
 26 28  1  0  0  0  0
 26 29  1  0  0  0  0
 24 25  1  0  0  0  0
 24 26  1  0  0  0  0
M  END
$$$$
default_name
  -OEChem-01062215323D

 29 28  0     1  0  0  0  0  0999 V2000
   -3.5781   -3.7296    1.2702 H   0  0  0  0  0  0  0  0  0  0  0  0
   -3.5311   -2.7616    0.7732 C   0  0  0  0  0  0  0  0  0  0  0  0
   -4.2371   -2.0766    1.2382 H   0  0  0  0  0  0  0  0  0  0  0  0
   -3.7681   -2.8816   -0.2818 H   0  0  0  0  0  0  0  0  0  0  0  0
   -2.1321   -2.2086    0.9112 C   0  0  0  0  0  0  0  0  0  0  0  0
   -1.2751   -2.8426    1.5112 O   0  0  0  0  0  0  0  0  0  0  0  0
   -1.9041   -1.0186    0.3602 N   0  0  0  0  0  0  0  0  0  0  0  0
   -2.6671   -0.5416   -0.0988 H   0  0  0  0  0  0  0  0  0  0  0  0
   -0.6131   -0.3236    0.3832 C   0  0  1  0  0  0  0  0  0  0  0  0
   -0.5207    0.2692   -0.5282 H   0  0  0  0  0  0  0  0  0  0  0  0
   -0.5784    0.6351    1.5876 C   0  0  0  0  0  0  0  0  0  0  0  0
   -0.8009    0.0682    2.4941 H   0  0  0  0  0  0  0  0  0  0  0  0
    0.4242    1.0542    1.6851 H   0  0  0  0  0  0  0  0  0  0  0  0
   -1.5831    1.7881    1.4817 C   0  0  0  0  0  0  0  0  0  0  0  0
   -2.5904    1.3790    1.4101 H   0  0  0  0  0  0  0  0  0  0  0  0
   -1.5150    2.3962    2.3845 H   0  0  0  0  0  0  0  0  0  0  0  0
   -1.3090    2.8604    0.0482 S   0  0  0  0  0  0  0  0  0  0  0  0
    0.2461    3.6469    0.5427 C   0  0  0  0  0  0  0  0  0  0  0  0
    1.0166    2.8869    0.6754 H   0  0  0  0  0  0  0  0  0  0  0  0
    0.5607    4.3452   -0.2334 H   0  0  0  0  0  0  0  0  0  0  0  0
    0.1028    4.1900    1.4772 H   0  0  0  0  0  0  0  0  0  0  0  0
    0.5411   -1.3356    0.4148 C   0  0  0  0  0  0  0  0  0  0  0  0
    0.3228   -2.5110    0.7011 O   0  0  0  0  0  0  0  0  0  0  0  0
    1.7678   -0.8798    0.1302 N   0  0  0  0  0  0  0  0  0  0  0  0
    1.8670    0.0936   -0.1103 H   0  0  0  0  0  0  0  0  0  0  0  0
    2.9691   -1.7132    0.1328 C   0  0  0  0  0  0  0  0  0  0  0  0
    2.8430   -2.5423   -0.5675 H   0  0  0  0  0  0  0  0  0  0  0  0
    3.8402   -1.1254   -0.1595 H   0  0  0  0  0  0  0  0  0  0  0  0
    3.1292   -2.1253    1.1307 H   0  0  0  0  0  0  0  0  0  0  0  0
  5  6  2  0  0  0  0
  5  7  1  0  0  0  0
  2  3  1  0  0  0  0
  2  4  1  0  0  0  0
  2  5  1  0  0  0  0
  1  2  1  0  0  0  0
 22 23  2  0  0  0  0
 22 24  1  0  0  0  0
 18 19  1  0  0  0  0
 18 20  1  0  0  0  0
 18 21  1  0  0  0  0
 17 18  1  0  0  0  0
 14 15  1  0  0  0  0
 14 16  1  0  0  0  0
 14 17  1  0  0  0  0
 11 12  1  0  0  0  0
 11 13  1  0  0  0  0
 11 14  1  0  0  0  0
  9 10  1  0  0  0  0
  9 11  1  0  0  0  0
  9 22  1  0  0  0  0
  7  8  1  0  0  0  0
  7  9  1  0  0  0  0
 26 27  1  0  0  0  0
 26 28  1  0  0  0  0
 26 29  1  0  0  0  0
 24 25  1  0  0  0  0
 24 26  1  0  0  0  0
M  END
$$$$
default_name
  -OEChem-01062215323D

 29 28  0     1  0  0  0  0  0999 V2000
   -3.5781   -3.7296    1.2702 H   0  0  0  0  0  0  0  0  0  0  0  0
   -3.5311   -2.7616    0.7732 C   0  0  0  0  0  0  0  0  0  0  0  0
   -4.2371   -2.0766    1.2382 H   0  0  0  0  0  0  0  0  0  0  0  0
   -3.7681   -2.8816   -0.2818 H   0  0  0  0  0  0  0  0  0  0  0  0
   -2.1321   -2.2086    0.9112 C   0  0  0  0  0  0  0  0  0  0  0  0
   -1.2751   -2.8426    1.5112 O   0  0  0  0  0  0  0  0  0  0  0  0
   -1.9041   -1.0186    0.3602 N   0  0  0  0  0  0  0  0  0  0  0  0
   -2.6671   -0.5416   -0.0988 H   0  0  0  0  0  0  0  0  0  0  0  0
   -0.6131   -0.3236    0.3832 C   0  0  1  0  0  0  0  0  0  0  0  0
   -0.6276    0.4627   -0.3732 H   0  0  0  0  0  0  0  0  0  0  0  0
   -0.4206    0.3363    1.7611 C   0  0  0  0  0  0  0  0  0  0  0  0
   -0.5355   -0.4261    2.5345 H   0  0  0  0  0  0  0  0  0  0  0  0
    0.5905    0.7404    1.8283 H   0  0  0  0  0  0  0  0  0  0  0  0
   -1.4190    1.4645    2.0445 C   0  0  0  0  0  0  0  0  0  0  0  0
   -2.4315    1.0641    2.0052 H   0  0  0  0  0  0  0  0  0  0  0  0
   -1.2340    1.8523    3.0469 H   0  0  0  0  0  0  0  0  0  0  0  0
   -1.3126    2.8398    0.8710 S   0  0  0  0  0  0  0  0  0  0  0  0
    0.2995    3.5214    1.3380 C   0  0  0  0  0  0  0  0  0  0  0  0
    1.0727    2.7653    1.1987 H   0  0  0  0  0  0  0  0  0  0  0  0
    0.5232    4.3837    0.7093 H   0  0  0  0  0  0  0  0  0  0  0  0
    0.2779    3.8348    2.3821 H   0  0  0  0  0  0  0  0  0  0  0  0
    0.5259   -1.2949    0.0418 C   0  0  0  0  0  0  0  0  0  0  0  0
    0.2791   -2.4760   -0.1936 O   0  0  0  0  0  0  0  0  0  0  0  0
    1.7709   -0.8021    0.0235 N   0  0  0  0  0  0  0  0  0  0  0  0
    1.8940    0.1800    0.2119 H   0  0  0  0  0  0  0  0  0  0  0  0
    2.9606   -1.6004   -0.2683 C   0  0  0  0  0  0  0  0  0  0  0  0
    2.8611   -2.0619   -1.2536 H   0  0  0  0  0  0  0  0  0  0  0  0
    3.8526   -0.9728   -0.2540 H   0  0  0  0  0  0  0  0  0  0  0  0
    3.0639   -2.3927    0.4753 H   0  0  0  0  0  0  0  0  0  0  0  0
  5  6  2  0  0  0  0
  5  7  1  0  0  0  0
  2  3  1  0  0  0  0
  2  4  1  0  0  0  0
  2  5  1  0  0  0  0
  1  2  1  0  0  0  0
 22 23  2  0  0  0  0
 22 24  1  0  0  0  0
 18 19  1  0  0  0  0
 18 20  1  0  0  0  0
 18 21  1  0  0  0  0
 17 18  1  0  0  0  0
 14 15  1  0  0  0  0
 14 16  1  0  0  0  0
 14 17  1  0  0  0  0
 11 12  1  0  0  0  0
 11 13  1  0  0  0  0
 11 14  1  0  0  0  0
  9 10  1  0  0  0  0
  9 11  1  0  0  0  0
  9 22  1  0  0  0  0
  7  8  1  0  0  0  0
  7  9  1  0  0  0  0
 26 27  1  0  0  0  0
 26 28  1  0  0  0  0
 26 29  1  0  0  0  0
 24 25  1  0  0  0  0
 24 26  1  0  0  0  0
M  END
$$$$
default_name
  -OEChem-01062215323D

 29 28  0     1  0  0  0  0  0999 V2000
   -3.5781   -3.7296    1.2702 H   0  0  0  0  0  0  0  0  0  0  0  0
   -3.5311   -2.7616    0.7732 C   0  0  0  0  0  0  0  0  0  0  0  0
   -4.2371   -2.0766    1.2382 H   0  0  0  0  0  0  0  0  0  0  0  0
   -3.7681   -2.8816   -0.2818 H   0  0  0  0  0  0  0  0  0  0  0  0
   -2.1321   -2.2086    0.9112 C   0  0  0  0  0  0  0  0  0  0  0  0
   -1.2751   -2.8426    1.5112 O   0  0  0  0  0  0  0  0  0  0  0  0
   -1.9041   -1.0186    0.3602 N   0  0  0  0  0  0  0  0  0  0  0  0
   -2.6671   -0.5416   -0.0988 H   0  0  0  0  0  0  0  0  0  0  0  0
   -0.6131   -0.3236    0.3832 C   0  0  1  0  0  0  0  0  0  0  0  0
   -0.6276    0.4627   -0.3732 H   0  0  0  0  0  0  0  0  0  0  0  0
   -0.4206    0.3363    1.7611 C   0  0  0  0  0  0  0  0  0  0  0  0
   -0.5355   -0.4261    2.5345 H   0  0  0  0  0  0  0  0  0  0  0  0
    0.5905    0.7404    1.8283 H   0  0  0  0  0  0  0  0  0  0  0  0
   -1.4190    1.4645    2.0445 C   0  0  0  0  0  0  0  0  0  0  0  0
   -2.4315    1.0641    2.0052 H   0  0  0  0  0  0  0  0  0  0  0  0
   -1.2340    1.8523    3.0469 H   0  0  0  0  0  0  0  0  0  0  0  0
   -1.3126    2.8398    0.8710 S   0  0  0  0  0  0  0  0  0  0  0  0
    0.2995    3.5214    1.3380 C   0  0  0  0  0  0  0  0  0  0  0  0
    1.0727    2.7653    1.1987 H   0  0  0  0  0  0  0  0  0  0  0  0
    0.5232    4.3837    0.7093 H   0  0  0  0  0  0  0  0  0  0  0  0
    0.2779    3.8348    2.3821 H   0  0  0  0  0  0  0  0  0  0  0  0
    0.5259   -1.2949    0.0418 C   0  0  0  0  0  0  0  0  0  0  0  0
    0.2737   -2.3896   -0.4574 O   0  0  0  0  0  0  0  0  0  0  0  0
    1.7754   -0.9003    0.3180 N   0  0  0  0  0  0  0  0  0  0  0  0
    1.9055    0.0174    0.7130 H   0  0  0  0  0  0  0  0  0  0  0  0
    2.9631   -1.7152    0.0666 C   0  0  0  0  0  0  0  0  0  0  0  0
    3.0129   -1.9754   -0.9933 H   0  0  0  0  0  0  0  0  0  0  0  0
    3.8651   -1.1686    0.3450 H   0  0  0  0  0  0  0  0  0  0  0  0
    2.9059   -2.6380    0.6466 H   0  0  0  0  0  0  0  0  0  0  0  0
  5  6  2  0  0  0  0
  5  7  1  0  0  0  0
  2  3  1  0  0  0  0
  2  4  1  0  0  0  0
  2  5  1  0  0  0  0
  1  2  1  0  0  0  0
 22 23  2  0  0  0  0
 22 24  1  0  0  0  0
 18 19  1  0  0  0  0
 18 20  1  0  0  0  0
 18 21  1  0  0  0  0
 17 18  1  0  0  0  0
 14 15  1  0  0  0  0
 14 16  1  0  0  0  0
 14 17  1  0  0  0  0
 11 12  1  0  0  0  0
 11 13  1  0  0  0  0
 11 14  1  0  0  0  0
  9 10  1  0  0  0  0
  9 11  1  0  0  0  0
  9 22  1  0  0  0  0
  7  8  1  0  0  0  0
  7  9  1  0  0  0  0
 26 27  1  0  0  0  0
 26 28  1  0  0  0  0
 26 29  1  0  0  0  0
 24 25  1  0  0  0  0
 24 26  1  0  0  0  0
M  END
$$$$
default_name
  -OEChem-01062215323D

 29 28  0     1  0  0  0  0  0999 V2000
   -3.5781   -3.7296    1.2702 H   0  0  0  0  0  0  0  0  0  0  0  0
   -3.5311   -2.7616    0.7732 C   0  0  0  0  0  0  0  0  0  0  0  0
   -4.2371   -2.0766    1.2382 H   0  0  0  0  0  0  0  0  0  0  0  0
   -3.7681   -2.8816   -0.2818 H   0  0  0  0  0  0  0  0  0  0  0  0
   -2.1321   -2.2086    0.9112 C   0  0  0  0  0  0  0  0  0  0  0  0
   -1.2751   -2.8426    1.5112 O   0  0  0  0  0  0  0  0  0  0  0  0
   -1.9041   -1.0186    0.3602 N   0  0  0  0  0  0  0  0  0  0  0  0
   -2.6671   -0.5416   -0.0988 H   0  0  0  0  0  0  0  0  0  0  0  0
   -0.6131   -0.3236    0.3832 C   0  0  1  0  0  0  0  0  0  0  0  0
   -0.6276    0.4627   -0.3732 H   0  0  0  0  0  0  0  0  0  0  0  0
   -0.4206    0.3363    1.7611 C   0  0  0  0  0  0  0  0  0  0  0  0
   -0.5355   -0.4261    2.5345 H   0  0  0  0  0  0  0  0  0  0  0  0
    0.5905    0.7404    1.8283 H   0  0  0  0  0  0  0  0  0  0  0  0
   -1.4190    1.4645    2.0445 C   0  0  0  0  0  0  0  0  0  0  0  0
   -2.4315    1.0641    2.0052 H   0  0  0  0  0  0  0  0  0  0  0  0
   -1.2340    1.8523    3.0469 H   0  0  0  0  0  0  0  0  0  0  0  0
   -1.3126    2.8398    0.8710 S   0  0  0  0  0  0  0  0  0  0  0  0
    0.2995    3.5214    1.3380 C   0  0  0  0  0  0  0  0  0  0  0  0
    1.0727    2.7653    1.1987 H   0  0  0  0  0  0  0  0  0  0  0  0
    0.5232    4.3837    0.7093 H   0  0  0  0  0  0  0  0  0  0  0  0
    0.2779    3.8348    2.3821 H   0  0  0  0  0  0  0  0  0  0  0  0
    0.5259   -1.2949    0.0418 C   0  0  0  0  0  0  0  0  0  0  0  0
    0.3166   -2.2553   -0.6965 O   0  0  0  0  0  0  0  0  0  0  0  0
    1.7259   -1.0519    0.5843 N   0  0  0  0  0  0  0  0  0  0  0  0
    1.8253   -0.2365    1.1677 H   0  0  0  0  0  0  0  0  0  0  0  0
    2.9041   -1.8905    0.3685 C   0  0  0  0  0  0  0  0  0  0  0  0
    3.1218   -1.9506   -0.7004 H   0  0  0  0  0  0  0  0  0  0  0  0
    3.7678   -1.4735    0.8881 H   0  0  0  0  0  0  0  0  0  0  0  0
    2.7112   -2.8988    0.7390 H   0  0  0  0  0  0  0  0  0  0  0  0
  5  6  2  0  0  0  0
  5  7  1  0  0  0  0
  2  3  1  0  0  0  0
  2  4  1  0  0  0  0
  2  5  1  0  0  0  0
  1  2  1  0  0  0  0
 22 23  2  0  0  0  0
 22 24  1  0  0  0  0
 18 19  1  0  0  0  0
 18 20  1  0  0  0  0
 18 21  1  0  0  0  0
 17 18  1  0  0  0  0
 14 15  1  0  0  0  0
 14 16  1  0  0  0  0
 14 17  1  0  0  0  0
 11 12  1  0  0  0  0
 11 13  1  0  0  0  0
 11 14  1  0  0  0  0
  9 10  1  0  0  0  0
  9 11  1  0  0  0  0
  9 22  1  0  0  0  0
  7  8  1  0  0  0  0
  7  9  1  0  0  0  0
 26 27  1  0  0  0  0
 26 28  1  0  0  0  0
 26 29  1  0  0  0  0
 24 25  1  0  0  0  0
 24 26  1  0  0  0  0
M  END
$$$$
default_name
  -OEChem-01062215323D

 29 28  0     1  0  0  0  0  0999 V2000
   -3.5781   -3.7296    1.2702 H   0  0  0  0  0  0  0  0  0  0  0  0
   -3.5311   -2.7616    0.7732 C   0  0  0  0  0  0  0  0  0  0  0  0
   -4.2371   -2.0766    1.2382 H   0  0  0  0  0  0  0  0  0  0  0  0
   -3.7681   -2.8816   -0.2818 H   0  0  0  0  0  0  0  0  0  0  0  0
   -2.1321   -2.2086    0.9112 C   0  0  0  0  0  0  0  0  0  0  0  0
   -1.2751   -2.8426    1.5112 O   0  0  0  0  0  0  0  0  0  0  0  0
   -1.9041   -1.0186    0.3602 N   0  0  0  0  0  0  0  0  0  0  0  0
   -2.6671   -0.5416   -0.0988 H   0  0  0  0  0  0  0  0  0  0  0  0
   -0.6131   -0.3236    0.3832 C   0  0  1  0  0  0  0  0  0  0  0  0
   -0.6276    0.4627   -0.3732 H   0  0  0  0  0  0  0  0  0  0  0  0
   -0.4206    0.3363    1.7611 C   0  0  0  0  0  0  0  0  0  0  0  0
   -0.5355   -0.4261    2.5345 H   0  0  0  0  0  0  0  0  0  0  0  0
    0.5905    0.7404    1.8283 H   0  0  0  0  0  0  0  0  0  0  0  0
   -1.4190    1.4645    2.0445 C   0  0  0  0  0  0  0  0  0  0  0  0
   -2.4315    1.0641    2.0052 H   0  0  0  0  0  0  0  0  0  0  0  0
   -1.2340    1.8523    3.0469 H   0  0  0  0  0  0  0  0  0  0  0  0
   -1.3126    2.8398    0.8710 S   0  0  0  0  0  0  0  0  0  0  0  0
    0.2995    3.5214    1.3380 C   0  0  0  0  0  0  0  0  0  0  0  0
    1.0727    2.7653    1.1987 H   0  0  0  0  0  0  0  0  0  0  0  0
    0.5232    4.3837    0.7093 H   0  0  0  0  0  0  0  0  0  0  0  0
    0.2779    3.8348    2.3821 H   0  0  0  0  0  0  0  0  0  0  0  0
    0.5259   -1.2949    0.0418 C   0  0  0  0  0  0  0  0  0  0  0  0
    0.4049   -2.0820   -0.8947 O   0  0  0  0  0  0  0  0  0  0  0  0
    1.6258   -1.2467    0.8043 N   0  0  0  0  0  0  0  0  0  0  0  0
    1.6587   -0.5645    1.5449 H   0  0  0  0  0  0  0  0  0  0  0  0
    2.7876   -2.1143    0.6168 C   0  0  0  0  0  0  0  0  0  0  0  0
    3.1805   -1.9892   -0.3950 H   0  0  0  0  0  0  0  0  0  0  0  0
    3.5674   -1.8667    1.3381 H   0  0  0  0  0  0  0  0  0  0  0  0
    2.4930   -3.1573    0.7463 H   0  0  0  0  0  0  0  0  0  0  0  0
  5  6  2  0  0  0  0
  5  7  1  0  0  0  0
  2  3  1  0  0  0  0
  2  4  1  0  0  0  0
  2  5  1  0  0  0  0
  1  2  1  0  0  0  0
 22 23  2  0  0  0  0
 22 24  1  0  0  0  0
 18 19  1  0  0  0  0
 18 20  1  0  0  0  0
 18 21  1  0  0  0  0
 17 18  1  0  0  0  0
 14 15  1  0  0  0  0
 14 16  1  0  0  0  0
 14 17  1  0  0  0  0
 11 12  1  0  0  0  0
 11 13  1  0  0  0  0
 11 14  1  0  0  0  0
  9 10  1  0  0  0  0
  9 11  1  0  0  0  0
  9 22  1  0  0  0  0
  7  8  1  0  0  0  0
  7  9  1  0  0  0  0
 26 27  1  0  0  0  0
 26 28  1  0  0  0  0
 26 29  1  0  0  0  0
 24 25  1  0  0  0  0
 24 26  1  0  0  0  0
M  END
$$$$
default_name
  -OEChem-01062215323D

 29 28  0     1  0  0  0  0  0999 V2000
   -3.5781   -3.7296    1.2702 H   0  0  0  0  0  0  0  0  0  0  0  0
   -3.5311   -2.7616    0.7732 C   0  0  0  0  0  0  0  0  0  0  0  0
   -4.2371   -2.0766    1.2382 H   0  0  0  0  0  0  0  0  0  0  0  0
   -3.7681   -2.8816   -0.2818 H   0  0  0  0  0  0  0  0  0  0  0  0
   -2.1321   -2.2086    0.9112 C   0  0  0  0  0  0  0  0  0  0  0  0
   -1.2751   -2.8426    1.5112 O   0  0  0  0  0  0  0  0  0  0  0  0
   -1.9041   -1.0186    0.3602 N   0  0  0  0  0  0  0  0  0  0  0  0
   -2.6671   -0.5416   -0.0988 H   0  0  0  0  0  0  0  0  0  0  0  0
   -0.6131   -0.3236    0.3832 C   0  0  1  0  0  0  0  0  0  0  0  0
   -0.6276    0.4627   -0.3732 H   0  0  0  0  0  0  0  0  0  0  0  0
   -0.4206    0.3363    1.7611 C   0  0  0  0  0  0  0  0  0  0  0  0
   -0.5355   -0.4261    2.5345 H   0  0  0  0  0  0  0  0  0  0  0  0
    0.5905    0.7404    1.8283 H   0  0  0  0  0  0  0  0  0  0  0  0
   -1.4190    1.4645    2.0445 C   0  0  0  0  0  0  0  0  0  0  0  0
   -2.4315    1.0641    2.0052 H   0  0  0  0  0  0  0  0  0  0  0  0
   -1.2340    1.8523    3.0469 H   0  0  0  0  0  0  0  0  0  0  0  0
   -1.3126    2.8398    0.8710 S   0  0  0  0  0  0  0  0  0  0  0  0
    0.2995    3.5214    1.3380 C   0  0  0  0  0  0  0  0  0  0  0  0
    1.0727    2.7653    1.1987 H   0  0  0  0  0  0  0  0  0  0  0  0
    0.5232    4.3837    0.7093 H   0  0  0  0  0  0  0  0  0  0  0  0
    0.2779    3.8348    2.3821 H   0  0  0  0  0  0  0  0  0  0  0  0
    0.5259   -1.2949    0.0418 C   0  0  0  0  0  0  0  0  0  0  0  0
    0.5327   -1.8817   -1.0384 O   0  0  0  0  0  0  0  0  0  0  0  0
    1.4818   -1.4713    0.9630 N   0  0  0  0  0  0  0  0  0  0  0  0
    1.4171   -0.9441    1.8191 H   0  0  0  0  0  0  0  0  0  0  0  0
    2.6215   -2.3716    0.7945 C   0  0  0  0  0  0  0  0  0  0  0  0
    3.1849   -2.0885   -0.0977 H   0  0  0  0  0  0  0  0  0  0  0  0
    3.2775   -2.3214    1.6646 H   0  0  0  0  0  0  0  0  0  0  0  0
    2.2661   -3.3958    0.6681 H   0  0  0  0  0  0  0  0  0  0  0  0
  5  6  2  0  0  0  0
  5  7  1  0  0  0  0
  2  3  1  0  0  0  0
  2  4  1  0  0  0  0
  2  5  1  0  0  0  0
  1  2  1  0  0  0  0
 22 23  2  0  0  0  0
 22 24  1  0  0  0  0
 18 19  1  0  0  0  0
 18 20  1  0  0  0  0
 18 21  1  0  0  0  0
 17 18  1  0  0  0  0
 14 15  1  0  0  0  0
 14 16  1  0  0  0  0
 14 17  1  0  0  0  0
 11 12  1  0  0  0  0
 11 13  1  0  0  0  0
 11 14  1  0  0  0  0
  9 10  1  0  0  0  0
  9 11  1  0  0  0  0
  9 22  1  0  0  0  0
  7  8  1  0  0  0  0
  7  9  1  0  0  0  0
 26 27  1  0  0  0  0
 26 28  1  0  0  0  0
 26 29  1  0  0  0  0
 24 25  1  0  0  0  0
 24 26  1  0  0  0  0
M  END
$$$$
default_name
  -OEChem-01062215323D

 29 28  0     1  0  0  0  0  0999 V2000
   -3.5781   -3.7296    1.2702 H   0  0  0  0  0  0  0  0  0  0  0  0
   -3.5311   -2.7616    0.7732 C   0  0  0  0  0  0  0  0  0  0  0  0
   -4.2371   -2.0766    1.2382 H   0  0  0  0  0  0  0  0  0  0  0  0
   -3.7681   -2.8816   -0.2818 H   0  0  0  0  0  0  0  0  0  0  0  0
   -2.1321   -2.2086    0.9112 C   0  0  0  0  0  0  0  0  0  0  0  0
   -1.2751   -2.8426    1.5112 O   0  0  0  0  0  0  0  0  0  0  0  0
   -1.9041   -1.0186    0.3602 N   0  0  0  0  0  0  0  0  0  0  0  0
   -2.6671   -0.5416   -0.0988 H   0  0  0  0  0  0  0  0  0  0  0  0
   -0.6131   -0.3236    0.3832 C   0  0  1  0  0  0  0  0  0  0  0  0
   -0.6276    0.4627   -0.3732 H   0  0  0  0  0  0  0  0  0  0  0  0
   -0.4206    0.3363    1.7611 C   0  0  0  0  0  0  0  0  0  0  0  0
   -0.5355   -0.4261    2.5345 H   0  0  0  0  0  0  0  0  0  0  0  0
    0.5905    0.7404    1.8283 H   0  0  0  0  0  0  0  0  0  0  0  0
   -1.4190    1.4645    2.0445 C   0  0  0  0  0  0  0  0  0  0  0  0
   -2.4315    1.0641    2.0052 H   0  0  0  0  0  0  0  0  0  0  0  0
   -1.2340    1.8523    3.0469 H   0  0  0  0  0  0  0  0  0  0  0  0
   -1.3126    2.8398    0.8710 S   0  0  0  0  0  0  0  0  0  0  0  0
    0.2995    3.5214    1.3380 C   0  0  0  0  0  0  0  0  0  0  0  0
    1.0727    2.7653    1.1987 H   0  0  0  0  0  0  0  0  0  0  0  0
    0.5232    4.3837    0.7093 H   0  0  0  0  0  0  0  0  0  0  0  0
    0.2779    3.8348    2.3821 H   0  0  0  0  0  0  0  0  0  0  0  0
    0.5259   -1.2949    0.0418 C   0  0  0  0  0  0  0  0  0  0  0  0
    0.6912   -1.6680   -1.1178 O   0  0  0  0  0  0  0  0  0  0  0  0
    1.3038   -1.7104    1.0496 N   0  0  0  0  0  0  0  0  0  0  0  0
    1.1170   -1.3495    1.9715 H   0  0  0  0  0  0  0  0  0  0  0  0
    2.4171   -2.6446    0.8896 C   0  0  0  0  0  0  0  0  0  0  0  0
    3.1348   -2.2417    0.1711 H   0  0  0  0  0  0  0  0  0  0  0  0
    2.9178   -2.8065    1.8451 H   0  0  0  0  0  0  0  0  0  0  0  0
    2.0461   -3.5981    0.5095 H   0  0  0  0  0  0  0  0  0  0  0  0
  5  6  2  0  0  0  0
  5  7  1  0  0  0  0
  2  3  1  0  0  0  0
  2  4  1  0  0  0  0
  2  5  1  0  0  0  0
  1  2  1  0  0  0  0
 22 23  2  0  0  0  0
 22 24  1  0  0  0  0
 18 19  1  0  0  0  0
 18 20  1  0  0  0  0
 18 21  1  0  0  0  0
 17 18  1  0  0  0  0
 14 15  1  0  0  0  0
 14 16  1  0  0  0  0
 14 17  1  0  0  0  0
 11 12  1  0  0  0  0
 11 13  1  0  0  0  0
 11 14  1  0  0  0  0
  9 10  1  0  0  0  0
  9 11  1  0  0  0  0
  9 22  1  0  0  0  0
  7  8  1  0  0  0  0
  7  9  1  0  0  0  0
 26 27  1  0  0  0  0
 26 28  1  0  0  0  0
 26 29  1  0  0  0  0
 24 25  1  0  0  0  0
 24 26  1  0  0  0  0
M  END
$$$$
default_name
  -OEChem-01062215323D

 29 28  0     1  0  0  0  0  0999 V2000
   -3.5781   -3.7296    1.2702 H   0  0  0  0  0  0  0  0  0  0  0  0
   -3.5311   -2.7616    0.7732 C   0  0  0  0  0  0  0  0  0  0  0  0
   -4.2371   -2.0766    1.2382 H   0  0  0  0  0  0  0  0  0  0  0  0
   -3.7681   -2.8816   -0.2818 H   0  0  0  0  0  0  0  0  0  0  0  0
   -2.1321   -2.2086    0.9112 C   0  0  0  0  0  0  0  0  0  0  0  0
   -1.2751   -2.8426    1.5112 O   0  0  0  0  0  0  0  0  0  0  0  0
   -1.9041   -1.0186    0.3602 N   0  0  0  0  0  0  0  0  0  0  0  0
   -2.6671   -0.5416   -0.0988 H   0  0  0  0  0  0  0  0  0  0  0  0
   -0.6131   -0.3236    0.3832 C   0  0  1  0  0  0  0  0  0  0  0  0
   -0.6276    0.4627   -0.3732 H   0  0  0  0  0  0  0  0  0  0  0  0
   -0.4206    0.3363    1.7611 C   0  0  0  0  0  0  0  0  0  0  0  0
   -0.5355   -0.4261    2.5345 H   0  0  0  0  0  0  0  0  0  0  0  0
    0.5905    0.7404    1.8283 H   0  0  0  0  0  0  0  0  0  0  0  0
   -1.4190    1.4645    2.0445 C   0  0  0  0  0  0  0  0  0  0  0  0
   -2.4315    1.0641    2.0052 H   0  0  0  0  0  0  0  0  0  0  0  0
   -1.2340    1.8523    3.0469 H   0  0  0  0  0  0  0  0  0  0  0  0
   -1.3126    2.8398    0.8710 S   0  0  0  0  0  0  0  0  0  0  0  0
    0.2995    3.5214    1.3380 C   0  0  0  0  0  0  0  0  0  0  0  0
    1.0727    2.7653    1.1987 H   0  0  0  0  0  0  0  0  0  0  0  0
    0.5232    4.3837    0.7093 H   0  0  0  0  0  0  0  0  0  0  0  0
    0.2779    3.8348    2.3821 H   0  0  0  0  0  0  0  0  0  0  0  0
    0.5259   -1.2949    0.0418 C   0  0  0  0  0  0  0  0  0  0  0  0
    0.8695   -1.4555   -1.1275 O   0  0  0  0  0  0  0  0  0  0  0  0
    1.1039   -1.9478    1.0582 N   0  0  0  0  0  0  0  0  0  0  0  0
    0.7789   -1.7531    1.9918 H   0  0  0  0  0  0  0  0  0  0  0  0
    2.1885   -2.9148    0.8956 C   0  0  0  0  0  0  0  0  0  0  0  0
    3.0336   -2.4384    0.3932 H   0  0  0  0  0  0  0  0  0  0  0  0
    2.5129   -3.2891    1.8674 H   0  0  0  0  0  0  0  0  0  0  0  0
    1.8479   -3.7504    0.2815 H   0  0  0  0  0  0  0  0  0  0  0  0
  5  6  2  0  0  0  0
  5  7  1  0  0  0  0
  2  3  1  0  0  0  0
  2  4  1  0  0  0  0
  2  5  1  0  0  0  0
  1  2  1  0  0  0  0
 22 23  2  0  0  0  0
 22 24  1  0  0  0  0
 18 19  1  0  0  0  0
 18 20  1  0  0  0  0
 18 21  1  0  0  0  0
 17 18  1  0  0  0  0
 14 15  1  0  0  0  0
 14 16  1  0  0  0  0
 14 17  1  0  0  0  0
 11 12  1  0  0  0  0
 11 13  1  0  0  0  0
 11 14  1  0  0  0  0
  9 10  1  0  0  0  0
  9 11  1  0  0  0  0
  9 22  1  0  0  0  0
  7  8  1  0  0  0  0
  7  9  1  0  0  0  0
 26 27  1  0  0  0  0
 26 28  1  0  0  0  0
 26 29  1  0  0  0  0
 24 25  1  0  0  0  0
 24 26  1  0  0  0  0
M  END
$$$$
default_name
  -OEChem-01062215323D

 29 28  0     1  0  0  0  0  0999 V2000
   -3.5781   -3.7296    1.2702 H   0  0  0  0  0  0  0  0  0  0  0  0
   -3.5311   -2.7616    0.7732 C   0  0  0  0  0  0  0  0  0  0  0  0
   -4.2371   -2.0766    1.2382 H   0  0  0  0  0  0  0  0  0  0  0  0
   -3.7681   -2.8816   -0.2818 H   0  0  0  0  0  0  0  0  0  0  0  0
   -2.1321   -2.2086    0.9112 C   0  0  0  0  0  0  0  0  0  0  0  0
   -1.2751   -2.8426    1.5112 O   0  0  0  0  0  0  0  0  0  0  0  0
   -1.9041   -1.0186    0.3602 N   0  0  0  0  0  0  0  0  0  0  0  0
   -2.6671   -0.5416   -0.0988 H   0  0  0  0  0  0  0  0  0  0  0  0
   -0.6131   -0.3236    0.3832 C   0  0  1  0  0  0  0  0  0  0  0  0
   -0.6276    0.4627   -0.3732 H   0  0  0  0  0  0  0  0  0  0  0  0
   -0.4206    0.3363    1.7611 C   0  0  0  0  0  0  0  0  0  0  0  0
   -0.5355   -0.4261    2.5345 H   0  0  0  0  0  0  0  0  0  0  0  0
    0.5905    0.7404    1.8283 H   0  0  0  0  0  0  0  0  0  0  0  0
   -1.4190    1.4645    2.0445 C   0  0  0  0  0  0  0  0  0  0  0  0
   -2.4315    1.0641    2.0052 H   0  0  0  0  0  0  0  0  0  0  0  0
   -1.2340    1.8523    3.0469 H   0  0  0  0  0  0  0  0  0  0  0  0
   -1.3126    2.8398    0.8710 S   0  0  0  0  0  0  0  0  0  0  0  0
    0.2995    3.5214    1.3380 C   0  0  0  0  0  0  0  0  0  0  0  0
    1.0727    2.7653    1.1987 H   0  0  0  0  0  0  0  0  0  0  0  0
    0.5232    4.3837    0.7093 H   0  0  0  0  0  0  0  0  0  0  0  0
    0.2779    3.8348    2.3821 H   0  0  0  0  0  0  0  0  0  0  0  0
    0.5259   -1.2949    0.0418 C   0  0  0  0  0  0  0  0  0  0  0  0
    1.0556   -1.2585   -1.0669 O   0  0  0  0  0  0  0  0  0  0  0  0
    0.8958   -2.1673    0.9882 N   0  0  0  0  0  0  0  0  0  0  0  0
    0.4257   -2.1274    1.8784 H   0  0  0  0  0  0  0  0  0  0  0  0
    1.9511   -3.1638    0.8121 C   0  0  0  0  0  0  0  0  0  0  0  0
    2.8882   -2.6652    0.5533 H   0  0  0  0  0  0  0  0  0  0  0  0
    2.0904   -3.7363    1.7301 H   0  0  0  0  0  0  0  0  0  0  0  0
    1.6850   -3.8423   -0.0004 H   0  0  0  0  0  0  0  0  0  0  0  0
  5  6  2  0  0  0  0
  5  7  1  0  0  0  0
  2  3  1  0  0  0  0
  2  4  1  0  0  0  0
  2  5  1  0  0  0  0
  1  2  1  0  0  0  0
 22 23  2  0  0  0  0
 22 24  1  0  0  0  0
 18 19  1  0  0  0  0
 18 20  1  0  0  0  0
 18 21  1  0  0  0  0
 17 18  1  0  0  0  0
 14 15  1  0  0  0  0
 14 16  1  0  0  0  0
 14 17  1  0  0  0  0
 11 12  1  0  0  0  0
 11 13  1  0  0  0  0
 11 14  1  0  0  0  0
  9 10  1  0  0  0  0
  9 11  1  0  0  0  0
  9 22  1  0  0  0  0
  7  8  1  0  0  0  0
  7  9  1  0  0  0  0
 26 27  1  0  0  0  0
 26 28  1  0  0  0  0
 26 29  1  0  0  0  0
 24 25  1  0  0  0  0
 24 26  1  0  0  0  0
M  END
$$$$
default_name
  -OEChem-01062215323D

 29 28  0     1  0  0  0  0  0999 V2000
   -3.5781   -3.7296    1.2702 H   0  0  0  0  0  0  0  0  0  0  0  0
   -3.5311   -2.7616    0.7732 C   0  0  0  0  0  0  0  0  0  0  0  0
   -4.2371   -2.0766    1.2382 H   0  0  0  0  0  0  0  0  0  0  0  0
   -3.7681   -2.8816   -0.2818 H   0  0  0  0  0  0  0  0  0  0  0  0
   -2.1321   -2.2086    0.9112 C   0  0  0  0  0  0  0  0  0  0  0  0
   -1.2751   -2.8426    1.5112 O   0  0  0  0  0  0  0  0  0  0  0  0
   -1.9041   -1.0186    0.3602 N   0  0  0  0  0  0  0  0  0  0  0  0
   -2.6671   -0.5416   -0.0988 H   0  0  0  0  0  0  0  0  0  0  0  0
   -0.6131   -0.3236    0.3832 C   0  0  1  0  0  0  0  0  0  0  0  0
   -0.6276    0.4627   -0.3732 H   0  0  0  0  0  0  0  0  0  0  0  0
   -0.4206    0.3363    1.7611 C   0  0  0  0  0  0  0  0  0  0  0  0
   -0.5355   -0.4261    2.5345 H   0  0  0  0  0  0  0  0  0  0  0  0
    0.5905    0.7404    1.8283 H   0  0  0  0  0  0  0  0  0  0  0  0
   -1.4190    1.4645    2.0445 C   0  0  0  0  0  0  0  0  0  0  0  0
   -2.4315    1.0641    2.0052 H   0  0  0  0  0  0  0  0  0  0  0  0
   -1.2340    1.8523    3.0469 H   0  0  0  0  0  0  0  0  0  0  0  0
   -1.3126    2.8398    0.8710 S   0  0  0  0  0  0  0  0  0  0  0  0
    0.2995    3.5214    1.3380 C   0  0  0  0  0  0  0  0  0  0  0  0
    1.0727    2.7653    1.1987 H   0  0  0  0  0  0  0  0  0  0  0  0
    0.5232    4.3837    0.7093 H   0  0  0  0  0  0  0  0  0  0  0  0
    0.2779    3.8348    2.3821 H   0  0  0  0  0  0  0  0  0  0  0  0
    0.5259   -1.2949    0.0418 C   0  0  0  0  0  0  0  0  0  0  0  0
    1.2368   -1.0907   -0.9401 O   0  0  0  0  0  0  0  0  0  0  0  0
    0.6936   -2.3538    0.8444 N   0  0  0  0  0  0  0  0  0  0  0  0
    0.0816   -2.4468    1.6393 H   0  0  0  0  0  0  0  0  0  0  0  0
    1.7211   -3.3746    0.6447 C   0  0  0  0  0  0  0  0  0  0  0  0
    2.7084   -2.9067    0.6406 H   0  0  0  0  0  0  0  0  0  0  0  0
    1.6791   -4.1175    1.4423 H   0  0  0  0  0  0  0  0  0  0  0  0
    1.5685   -3.8676   -0.3170 H   0  0  0  0  0  0  0  0  0  0  0  0
  5  6  2  0  0  0  0
  5  7  1  0  0  0  0
  2  3  1  0  0  0  0
  2  4  1  0  0  0  0
  2  5  1  0  0  0  0
  1  2  1  0  0  0  0
 22 23  2  0  0  0  0
 22 24  1  0  0  0  0
 18 19  1  0  0  0  0
 18 20  1  0  0  0  0
 18 21  1  0  0  0  0
 17 18  1  0  0  0  0
 14 15  1  0  0  0  0
 14 16  1  0  0  0  0
 14 17  1  0  0  0  0
 11 12  1  0  0  0  0
 11 13  1  0  0  0  0
 11 14  1  0  0  0  0
  9 10  1  0  0  0  0
  9 11  1  0  0  0  0
  9 22  1  0  0  0  0
  7  8  1  0  0  0  0
  7  9  1  0  0  0  0
 26 27  1  0  0  0  0
 26 28  1  0  0  0  0
 26 29  1  0  0  0  0
 24 25  1  0  0  0  0
 24 26  1  0  0  0  0
M  END
$$$$
default_name
  -OEChem-01062215323D

 29 28  0     1  0  0  0  0  0999 V2000
   -3.5781   -3.7296    1.2702 H   0  0  0  0  0  0  0  0  0  0  0  0
   -3.5311   -2.7616    0.7732 C   0  0  0  0  0  0  0  0  0  0  0  0
   -4.2371   -2.0766    1.2382 H   0  0  0  0  0  0  0  0  0  0  0  0
   -3.7681   -2.8816   -0.2818 H   0  0  0  0  0  0  0  0  0  0  0  0
   -2.1321   -2.2086    0.9112 C   0  0  0  0  0  0  0  0  0  0  0  0
   -1.2751   -2.8426    1.5112 O   0  0  0  0  0  0  0  0  0  0  0  0
   -1.9041   -1.0186    0.3602 N   0  0  0  0  0  0  0  0  0  0  0  0
   -2.6671   -0.5416   -0.0988 H   0  0  0  0  0  0  0  0  0  0  0  0
   -0.6131   -0.3236    0.3832 C   0  0  1  0  0  0  0  0  0  0  0  0
   -0.6276    0.4627   -0.3732 H   0  0  0  0  0  0  0  0  0  0  0  0
   -0.4206    0.3363    1.7611 C   0  0  0  0  0  0  0  0  0  0  0  0
   -0.5355   -0.4261    2.5345 H   0  0  0  0  0  0  0  0  0  0  0  0
    0.5905    0.7404    1.8283 H   0  0  0  0  0  0  0  0  0  0  0  0
   -1.4190    1.4645    2.0445 C   0  0  0  0  0  0  0  0  0  0  0  0
   -2.4315    1.0641    2.0052 H   0  0  0  0  0  0  0  0  0  0  0  0
   -1.2340    1.8523    3.0469 H   0  0  0  0  0  0  0  0  0  0  0  0
   -1.3126    2.8398    0.8710 S   0  0  0  0  0  0  0  0  0  0  0  0
    0.2995    3.5214    1.3380 C   0  0  0  0  0  0  0  0  0  0  0  0
    1.0727    2.7653    1.1987 H   0  0  0  0  0  0  0  0  0  0  0  0
    0.5232    4.3837    0.7093 H   0  0  0  0  0  0  0  0  0  0  0  0
    0.2779    3.8348    2.3821 H   0  0  0  0  0  0  0  0  0  0  0  0
    0.5259   -1.2949    0.0418 C   0  0  0  0  0  0  0  0  0  0  0  0
    1.4007   -0.9633   -0.7557 O   0  0  0  0  0  0  0  0  0  0  0  0
    0.5111   -2.4947    0.6365 N   0  0  0  0  0  0  0  0  0  0  0  0
   -0.2300   -2.6897    1.2906 H   0  0  0  0  0  0  0  0  0  0  0  0
    1.5143   -3.5329    0.4049 C   0  0  0  0  0  0  0  0  0  0  0  0
    2.5065   -3.1464    0.6491 H   0  0  0  0  0  0  0  0  0  0  0  0
    1.3069   -4.4068    1.0239 H   0  0  0  0  0  0  0  0  0  0  0  0
    1.5064   -3.8245   -0.6468 H   0  0  0  0  0  0  0  0  0  0  0  0
  5  6  2  0  0  0  0
  5  7  1  0  0  0  0
  2  3  1  0  0  0  0
  2  4  1  0  0  0  0
  2  5  1  0  0  0  0
  1  2  1  0  0  0  0
 22 23  2  0  0  0  0
 22 24  1  0  0  0  0
 18 19  1  0  0  0  0
 18 20  1  0  0  0  0
 18 21  1  0  0  0  0
 17 18  1  0  0  0  0
 14 15  1  0  0  0  0
 14 16  1  0  0  0  0
 14 17  1  0  0  0  0
 11 12  1  0  0  0  0
 11 13  1  0  0  0  0
 11 14  1  0  0  0  0
  9 10  1  0  0  0  0
  9 11  1  0  0  0  0
  9 22  1  0  0  0  0
  7  8  1  0  0  0  0
  7  9  1  0  0  0  0
 26 27  1  0  0  0  0
 26 28  1  0  0  0  0
 26 29  1  0  0  0  0
 24 25  1  0  0  0  0
 24 26  1  0  0  0  0
M  END
$$$$
default_name
  -OEChem-01062215323D

 29 28  0     1  0  0  0  0  0999 V2000
   -3.5781   -3.7296    1.2702 H   0  0  0  0  0  0  0  0  0  0  0  0
   -3.5311   -2.7616    0.7732 C   0  0  0  0  0  0  0  0  0  0  0  0
   -4.2371   -2.0766    1.2382 H   0  0  0  0  0  0  0  0  0  0  0  0
   -3.7681   -2.8816   -0.2818 H   0  0  0  0  0  0  0  0  0  0  0  0
   -2.1321   -2.2086    0.9112 C   0  0  0  0  0  0  0  0  0  0  0  0
   -1.2751   -2.8426    1.5112 O   0  0  0  0  0  0  0  0  0  0  0  0
   -1.9041   -1.0186    0.3602 N   0  0  0  0  0  0  0  0  0  0  0  0
   -2.6671   -0.5416   -0.0988 H   0  0  0  0  0  0  0  0  0  0  0  0
   -0.6131   -0.3236    0.3832 C   0  0  1  0  0  0  0  0  0  0  0  0
   -0.6276    0.4627   -0.3732 H   0  0  0  0  0  0  0  0  0  0  0  0
   -0.4206    0.3363    1.7611 C   0  0  0  0  0  0  0  0  0  0  0  0
   -0.5355   -0.4261    2.5345 H   0  0  0  0  0  0  0  0  0  0  0  0
    0.5905    0.7404    1.8283 H   0  0  0  0  0  0  0  0  0  0  0  0
   -1.4190    1.4645    2.0445 C   0  0  0  0  0  0  0  0  0  0  0  0
   -2.4315    1.0641    2.0052 H   0  0  0  0  0  0  0  0  0  0  0  0
   -1.2340    1.8523    3.0469 H   0  0  0  0  0  0  0  0  0  0  0  0
   -1.3126    2.8398    0.8710 S   0  0  0  0  0  0  0  0  0  0  0  0
    0.2995    3.5214    1.3380 C   0  0  0  0  0  0  0  0  0  0  0  0
    1.0727    2.7653    1.1987 H   0  0  0  0  0  0  0  0  0  0  0  0
    0.5232    4.3837    0.7093 H   0  0  0  0  0  0  0  0  0  0  0  0
    0.2779    3.8348    2.3821 H   0  0  0  0  0  0  0  0  0  0  0  0
    0.5259   -1.2949    0.0418 C   0  0  0  0  0  0  0  0  0  0  0  0
    1.5361   -0.8852   -0.5262 O   0  0  0  0  0  0  0  0  0  0  0  0
    0.3607   -2.5805    0.3788 N   0  0  0  0  0  0  0  0  0  0  0  0
   -0.4879   -2.8394    0.8561 H   0  0  0  0  0  0  0  0  0  0  0  0
    1.3446   -3.6278    0.1090 C   0  0  0  0  0  0  0  0  0  0  0  0
    2.2964   -3.3679    0.5783 H   0  0  0  0  0  0  0  0  0  0  0  0
    0.9993   -4.5845    0.5032 H   0  0  0  0  0  0  0  0  0  0  0  0
    1.5029   -3.7160   -0.9673 H   0  0  0  0  0  0  0  0  0  0  0  0
  5  6  2  0  0  0  0
  5  7  1  0  0  0  0
  2  3  1  0  0  0  0
  2  4  1  0  0  0  0
  2  5  1  0  0  0  0
  1  2  1  0  0  0  0
 22 23  2  0  0  0  0
 22 24  1  0  0  0  0
 18 19  1  0  0  0  0
 18 20  1  0  0  0  0
 18 21  1  0  0  0  0
 17 18  1  0  0  0  0
 14 15  1  0  0  0  0
 14 16  1  0  0  0  0
 14 17  1  0  0  0  0
 11 12  1  0  0  0  0
 11 13  1  0  0  0  0
 11 14  1  0  0  0  0
  9 10  1  0  0  0  0
  9 11  1  0  0  0  0
  9 22  1  0  0  0  0
  7  8  1  0  0  0  0
  7  9  1  0  0  0  0
 26 27  1  0  0  0  0
 26 28  1  0  0  0  0
 26 29  1  0  0  0  0
 24 25  1  0  0  0  0
 24 26  1  0  0  0  0
M  END
$$$$
default_name
  -OEChem-01062215323D

 29 28  0     1  0  0  0  0  0999 V2000
   -3.5781   -3.7296    1.2702 H   0  0  0  0  0  0  0  0  0  0  0  0
   -3.5311   -2.7616    0.7732 C   0  0  0  0  0  0  0  0  0  0  0  0
   -4.2371   -2.0766    1.2382 H   0  0  0  0  0  0  0  0  0  0  0  0
   -3.7681   -2.8816   -0.2818 H   0  0  0  0  0  0  0  0  0  0  0  0
   -2.1321   -2.2086    0.9112 C   0  0  0  0  0  0  0  0  0  0  0  0
   -1.2751   -2.8426    1.5112 O   0  0  0  0  0  0  0  0  0  0  0  0
   -1.9041   -1.0186    0.3602 N   0  0  0  0  0  0  0  0  0  0  0  0
   -2.6671   -0.5416   -0.0988 H   0  0  0  0  0  0  0  0  0  0  0  0
   -0.6131   -0.3236    0.3832 C   0  0  1  0  0  0  0  0  0  0  0  0
   -0.6276    0.4627   -0.3732 H   0  0  0  0  0  0  0  0  0  0  0  0
   -0.4206    0.3363    1.7611 C   0  0  0  0  0  0  0  0  0  0  0  0
   -0.5355   -0.4261    2.5345 H   0  0  0  0  0  0  0  0  0  0  0  0
    0.5905    0.7404    1.8283 H   0  0  0  0  0  0  0  0  0  0  0  0
   -1.4190    1.4645    2.0445 C   0  0  0  0  0  0  0  0  0  0  0  0
   -2.4315    1.0641    2.0052 H   0  0  0  0  0  0  0  0  0  0  0  0
   -1.2340    1.8523    3.0469 H   0  0  0  0  0  0  0  0  0  0  0  0
   -1.3126    2.8398    0.8710 S   0  0  0  0  0  0  0  0  0  0  0  0
    0.2995    3.5214    1.3380 C   0  0  0  0  0  0  0  0  0  0  0  0
    1.0727    2.7653    1.1987 H   0  0  0  0  0  0  0  0  0  0  0  0
    0.5232    4.3837    0.7093 H   0  0  0  0  0  0  0  0  0  0  0  0
    0.2779    3.8348    2.3821 H   0  0  0  0  0  0  0  0  0  0  0  0
    0.5259   -1.2949    0.0418 C   0  0  0  0  0  0  0  0  0  0  0  0
    1.6339   -0.8615   -0.2675 O   0  0  0  0  0  0  0  0  0  0  0  0
    0.2528   -2.6051    0.0888 N   0  0  0  0  0  0  0  0  0  0  0  0
   -0.6745   -2.8857    0.3655 H   0  0  0  0  0  0  0  0  0  0  0  0
    1.2237   -3.6529   -0.2228 C   0  0  0  0  0  0  0  0  0  0  0  0
    2.0923   -3.5562    0.4330 H   0  0  0  0  0  0  0  0  0  0  0  0
    0.7772   -4.6384   -0.0843 H   0  0  0  0  0  0  0  0  0  0  0  0
    1.5582   -3.5494   -1.2565 H   0  0  0  0  0  0  0  0  0  0  0  0
  5  6  2  0  0  0  0
  5  7  1  0  0  0  0
  2  3  1  0  0  0  0
  2  4  1  0  0  0  0
  2  5  1  0  0  0  0
  1  2  1  0  0  0  0
 22 23  2  0  0  0  0
 22 24  1  0  0  0  0
 18 19  1  0  0  0  0
 18 20  1  0  0  0  0
 18 21  1  0  0  0  0
 17 18  1  0  0  0  0
 14 15  1  0  0  0  0
 14 16  1  0  0  0  0
 14 17  1  0  0  0  0
 11 12  1  0  0  0  0
 11 13  1  0  0  0  0
 11 14  1  0  0  0  0
  9 10  1  0  0  0  0
  9 11  1  0  0  0  0
  9 22  1  0  0  0  0
  7  8  1  0  0  0  0
  7  9  1  0  0  0  0
 26 27  1  0  0  0  0
 26 28  1  0  0  0  0
 26 29  1  0  0  0  0
 24 25  1  0  0  0  0
 24 26  1  0  0  0  0
M  END
$$$$
default_name
  -OEChem-01062215323D

 29 28  0     1  0  0  0  0  0999 V2000
   -3.5781   -3.7296    1.2702 H   0  0  0  0  0  0  0  0  0  0  0  0
   -3.5311   -2.7616    0.7732 C   0  0  0  0  0  0  0  0  0  0  0  0
   -4.2371   -2.0766    1.2382 H   0  0  0  0  0  0  0  0  0  0  0  0
   -3.7681   -2.8816   -0.2818 H   0  0  0  0  0  0  0  0  0  0  0  0
   -2.1321   -2.2086    0.9112 C   0  0  0  0  0  0  0  0  0  0  0  0
   -1.2751   -2.8426    1.5112 O   0  0  0  0  0  0  0  0  0  0  0  0
   -1.9041   -1.0186    0.3602 N   0  0  0  0  0  0  0  0  0  0  0  0
   -2.6671   -0.5416   -0.0988 H   0  0  0  0  0  0  0  0  0  0  0  0
   -0.6131   -0.3236    0.3832 C   0  0  1  0  0  0  0  0  0  0  0  0
   -0.6276    0.4627   -0.3732 H   0  0  0  0  0  0  0  0  0  0  0  0
   -0.4206    0.3363    1.7611 C   0  0  0  0  0  0  0  0  0  0  0  0
   -0.5355   -0.4261    2.5345 H   0  0  0  0  0  0  0  0  0  0  0  0
    0.5905    0.7404    1.8283 H   0  0  0  0  0  0  0  0  0  0  0  0
   -1.4190    1.4645    2.0445 C   0  0  0  0  0  0  0  0  0  0  0  0
   -2.4315    1.0641    2.0052 H   0  0  0  0  0  0  0  0  0  0  0  0
   -1.2340    1.8523    3.0469 H   0  0  0  0  0  0  0  0  0  0  0  0
   -1.3126    2.8398    0.8710 S   0  0  0  0  0  0  0  0  0  0  0  0
    0.2995    3.5214    1.3380 C   0  0  0  0  0  0  0  0  0  0  0  0
    1.0727    2.7653    1.1987 H   0  0  0  0  0  0  0  0  0  0  0  0
    0.5232    4.3837    0.7093 H   0  0  0  0  0  0  0  0  0  0  0  0
    0.2779    3.8348    2.3821 H   0  0  0  0  0  0  0  0  0  0  0  0
    0.5259   -1.2949    0.0418 C   0  0  0  0  0  0  0  0  0  0  0  0
    1.6873   -0.8939    0.0031 O   0  0  0  0  0  0  0  0  0  0  0  0
    0.1946   -2.5671   -0.2137 N   0  0  0  0  0  0  0  0  0  0  0  0
   -0.7770   -2.8255   -0.1478 H   0  0  0  0  0  0  0  0  0  0  0  0
    1.1599   -3.6065   -0.5679 C   0  0  0  0  0  0  0  0  0  0  0  0
    1.9080   -3.6984    0.2230 H   0  0  0  0  0  0  0  0  0  0  0  0
    0.6557   -4.5650   -0.6984 H   0  0  0  0  0  0  0  0  0  0  0  0
    1.6686   -3.3362   -1.4949 H   0  0  0  0  0  0  0  0  0  0  0  0
  5  6  2  0  0  0  0
  5  7  1  0  0  0  0
  2  3  1  0  0  0  0
  2  4  1  0  0  0  0
  2  5  1  0  0  0  0
  1  2  1  0  0  0  0
 22 23  2  0  0  0  0
 22 24  1  0  0  0  0
 18 19  1  0  0  0  0
 18 20  1  0  0  0  0
 18 21  1  0  0  0  0
 17 18  1  0  0  0  0
 14 15  1  0  0  0  0
 14 16  1  0  0  0  0
 14 17  1  0  0  0  0
 11 12  1  0  0  0  0
 11 13  1  0  0  0  0
 11 14  1  0  0  0  0
  9 10  1  0  0  0  0
  9 11  1  0  0  0  0
  9 22  1  0  0  0  0
  7  8  1  0  0  0  0
  7  9  1  0  0  0  0
 26 27  1  0  0  0  0
 26 28  1  0  0  0  0
 26 29  1  0  0  0  0
 24 25  1  0  0  0  0
 24 26  1  0  0  0  0
M  END
$$$$
default_name
  -OEChem-01062215323D

 29 28  0     1  0  0  0  0  0999 V2000
   -3.5781   -3.7296    1.2702 H   0  0  0  0  0  0  0  0  0  0  0  0
   -3.5311   -2.7616    0.7732 C   0  0  0  0  0  0  0  0  0  0  0  0
   -4.2371   -2.0766    1.2382 H   0  0  0  0  0  0  0  0  0  0  0  0
   -3.7681   -2.8816   -0.2818 H   0  0  0  0  0  0  0  0  0  0  0  0
   -2.1321   -2.2086    0.9112 C   0  0  0  0  0  0  0  0  0  0  0  0
   -1.2751   -2.8426    1.5112 O   0  0  0  0  0  0  0  0  0  0  0  0
   -1.9041   -1.0186    0.3602 N   0  0  0  0  0  0  0  0  0  0  0  0
   -2.6671   -0.5416   -0.0988 H   0  0  0  0  0  0  0  0  0  0  0  0
   -0.6131   -0.3236    0.3832 C   0  0  1  0  0  0  0  0  0  0  0  0
   -0.6276    0.4627   -0.3732 H   0  0  0  0  0  0  0  0  0  0  0  0
   -0.4206    0.3363    1.7611 C   0  0  0  0  0  0  0  0  0  0  0  0
   -0.5355   -0.4261    2.5345 H   0  0  0  0  0  0  0  0  0  0  0  0
    0.5905    0.7404    1.8283 H   0  0  0  0  0  0  0  0  0  0  0  0
   -1.4190    1.4645    2.0445 C   0  0  0  0  0  0  0  0  0  0  0  0
   -2.4315    1.0641    2.0052 H   0  0  0  0  0  0  0  0  0  0  0  0
   -1.2340    1.8523    3.0469 H   0  0  0  0  0  0  0  0  0  0  0  0
   -1.3126    2.8398    0.8710 S   0  0  0  0  0  0  0  0  0  0  0  0
    0.2995    3.5214    1.3380 C   0  0  0  0  0  0  0  0  0  0  0  0
    1.0727    2.7653    1.1987 H   0  0  0  0  0  0  0  0  0  0  0  0
    0.5232    4.3837    0.7093 H   0  0  0  0  0  0  0  0  0  0  0  0
    0.2779    3.8348    2.3821 H   0  0  0  0  0  0  0  0  0  0  0  0
    0.5259   -1.2949    0.0418 C   0  0  0  0  0  0  0  0  0  0  0  0
    1.6927   -0.9803    0.2669 O   0  0  0  0  0  0  0  0  0  0  0  0
    0.1900   -2.4689   -0.5082 N   0  0  0  0  0  0  0  0  0  0  0  0
   -0.7886   -2.6629   -0.6489 H   0  0  0  0  0  0  0  0  0  0  0  0
    1.1573   -3.4918   -0.9028 C   0  0  0  0  0  0  0  0  0  0  0  0
    1.7563   -3.7848   -0.0373 H   0  0  0  0  0  0  0  0  0  0  0  0
    0.6432   -4.3691   -1.2974 H   0  0  0  0  0  0  0  0  0  0  0  0
    1.8265   -3.0909   -1.6662 H   0  0  0  0  0  0  0  0  0  0  0  0
  5  6  2  0  0  0  0
  5  7  1  0  0  0  0
  2  3  1  0  0  0  0
  2  4  1  0  0  0  0
  2  5  1  0  0  0  0
  1  2  1  0  0  0  0
 22 23  2  0  0  0  0
 22 24  1  0  0  0  0
 18 19  1  0  0  0  0
 18 20  1  0  0  0  0
 18 21  1  0  0  0  0
 17 18  1  0  0  0  0
 14 15  1  0  0  0  0
 14 16  1  0  0  0  0
 14 17  1  0  0  0  0
 11 12  1  0  0  0  0
 11 13  1  0  0  0  0
 11 14  1  0  0  0  0
  9 10  1  0  0  0  0
  9 11  1  0  0  0  0
  9 22  1  0  0  0  0
  7  8  1  0  0  0  0
  7  9  1  0  0  0  0
 26 27  1  0  0  0  0
 26 28  1  0  0  0  0
 26 29  1  0  0  0  0
 24 25  1  0  0  0  0
 24 26  1  0  0  0  0
M  END
$$$$
default_name
  -OEChem-01062215323D

 29 28  0     1  0  0  0  0  0999 V2000
   -3.5781   -3.7296    1.2702 H   0  0  0  0  0  0  0  0  0  0  0  0
   -3.5311   -2.7616    0.7732 C   0  0  0  0  0  0  0  0  0  0  0  0
   -4.2371   -2.0766    1.2382 H   0  0  0  0  0  0  0  0  0  0  0  0
   -3.7681   -2.8816   -0.2818 H   0  0  0  0  0  0  0  0  0  0  0  0
   -2.1321   -2.2086    0.9112 C   0  0  0  0  0  0  0  0  0  0  0  0
   -1.2751   -2.8426    1.5112 O   0  0  0  0  0  0  0  0  0  0  0  0
   -1.9041   -1.0186    0.3602 N   0  0  0  0  0  0  0  0  0  0  0  0
   -2.6671   -0.5416   -0.0988 H   0  0  0  0  0  0  0  0  0  0  0  0
   -0.6131   -0.3236    0.3832 C   0  0  1  0  0  0  0  0  0  0  0  0
   -0.6276    0.4627   -0.3732 H   0  0  0  0  0  0  0  0  0  0  0  0
   -0.4206    0.3363    1.7611 C   0  0  0  0  0  0  0  0  0  0  0  0
   -0.5355   -0.4261    2.5345 H   0  0  0  0  0  0  0  0  0  0  0  0
    0.5905    0.7404    1.8283 H   0  0  0  0  0  0  0  0  0  0  0  0
   -1.4190    1.4645    2.0445 C   0  0  0  0  0  0  0  0  0  0  0  0
   -2.4315    1.0641    2.0052 H   0  0  0  0  0  0  0  0  0  0  0  0
   -1.2340    1.8523    3.0469 H   0  0  0  0  0  0  0  0  0  0  0  0
   -1.3126    2.8398    0.8710 S   0  0  0  0  0  0  0  0  0  0  0  0
    0.2995    3.5214    1.3380 C   0  0  0  0  0  0  0  0  0  0  0  0
    1.0727    2.7653    1.1987 H   0  0  0  0  0  0  0  0  0  0  0  0
    0.5232    4.3837    0.7093 H   0  0  0  0  0  0  0  0  0  0  0  0
    0.2779    3.8348    2.3821 H   0  0  0  0  0  0  0  0  0  0  0  0
    0.5259   -1.2949    0.0418 C   0  0  0  0  0  0  0  0  0  0  0  0
    1.6498   -1.1146    0.5060 O   0  0  0  0  0  0  0  0  0  0  0  0
    0.2396   -2.3172   -0.7745 N   0  0  0  0  0  0  0  0  0  0  0  0
   -0.7083   -2.4090   -1.1036 H   0  0  0  0  0  0  0  0  0  0  0  0
    1.2164   -3.3165   -1.2047 C   0  0  0  0  0  0  0  0  0  0  0  0
    1.6474   -3.8096   -0.3302 H   0  0  0  0  0  0  0  0  0  0  0  0
    0.7405   -4.0642   -1.8405 H   0  0  0  0  0  0  0  0  0  0  0  0
    2.0212   -2.8301   -1.7586 H   0  0  0  0  0  0  0  0  0  0  0  0
  5  6  2  0  0  0  0
  5  7  1  0  0  0  0
  2  3  1  0  0  0  0
  2  4  1  0  0  0  0
  2  5  1  0  0  0  0
  1  2  1  0  0  0  0
 22 23  2  0  0  0  0
 22 24  1  0  0  0  0
 18 19  1  0  0  0  0
 18 20  1  0  0  0  0
 18 21  1  0  0  0  0
 17 18  1  0  0  0  0
 14 15  1  0  0  0  0
 14 16  1  0  0  0  0
 14 17  1  0  0  0  0
 11 12  1  0  0  0  0
 11 13  1  0  0  0  0
 11 14  1  0  0  0  0
  9 10  1  0  0  0  0
  9 11  1  0  0  0  0
  9 22  1  0  0  0  0
  7  8  1  0  0  0  0
  7  9  1  0  0  0  0
 26 27  1  0  0  0  0
 26 28  1  0  0  0  0
 26 29  1  0  0  0  0
 24 25  1  0  0  0  0
 24 26  1  0  0  0  0
M  END
$$$$
default_name
  -OEChem-01062215323D

 29 28  0     1  0  0  0  0  0999 V2000
   -3.5781   -3.7296    1.2702 H   0  0  0  0  0  0  0  0  0  0  0  0
   -3.5311   -2.7616    0.7732 C   0  0  0  0  0  0  0  0  0  0  0  0
   -4.2371   -2.0766    1.2382 H   0  0  0  0  0  0  0  0  0  0  0  0
   -3.7681   -2.8816   -0.2818 H   0  0  0  0  0  0  0  0  0  0  0  0
   -2.1321   -2.2086    0.9112 C   0  0  0  0  0  0  0  0  0  0  0  0
   -1.2751   -2.8426    1.5112 O   0  0  0  0  0  0  0  0  0  0  0  0
   -1.9041   -1.0186    0.3602 N   0  0  0  0  0  0  0  0  0  0  0  0
   -2.6671   -0.5416   -0.0988 H   0  0  0  0  0  0  0  0  0  0  0  0
   -0.6131   -0.3236    0.3832 C   0  0  1  0  0  0  0  0  0  0  0  0
   -0.6276    0.4627   -0.3732 H   0  0  0  0  0  0  0  0  0  0  0  0
   -0.4206    0.3363    1.7611 C   0  0  0  0  0  0  0  0  0  0  0  0
   -0.5355   -0.4261    2.5345 H   0  0  0  0  0  0  0  0  0  0  0  0
    0.5905    0.7404    1.8283 H   0  0  0  0  0  0  0  0  0  0  0  0
   -1.4190    1.4645    2.0445 C   0  0  0  0  0  0  0  0  0  0  0  0
   -2.4315    1.0641    2.0052 H   0  0  0  0  0  0  0  0  0  0  0  0
   -1.2340    1.8523    3.0469 H   0  0  0  0  0  0  0  0  0  0  0  0
   -1.3126    2.8398    0.8710 S   0  0  0  0  0  0  0  0  0  0  0  0
    0.2995    3.5214    1.3380 C   0  0  0  0  0  0  0  0  0  0  0  0
    1.0727    2.7653    1.1987 H   0  0  0  0  0  0  0  0  0  0  0  0
    0.5232    4.3837    0.7093 H   0  0  0  0  0  0  0  0  0  0  0  0
    0.2779    3.8348    2.3821 H   0  0  0  0  0  0  0  0  0  0  0  0
    0.5259   -1.2949    0.0418 C   0  0  0  0  0  0  0  0  0  0  0  0
    1.5615   -1.2879    0.7042 O   0  0  0  0  0  0  0  0  0  0  0  0
    0.3397   -2.1224   -0.9945 N   0  0  0  0  0  0  0  0  0  0  0  0
   -0.5417   -2.0810   -1.4809 H   0  0  0  0  0  0  0  0  0  0  0  0
    1.3329   -3.0926   -1.4529 C   0  0  0  0  0  0  0  0  0  0  0  0
    1.5887   -3.7710   -0.6357 H   0  0  0  0  0  0  0  0  0  0  0  0
    0.9409   -3.6710   -2.2905 H   0  0  0  0  0  0  0  0  0  0  0  0
    2.2395   -2.5716   -1.7659 H   0  0  0  0  0  0  0  0  0  0  0  0
  5  6  2  0  0  0  0
  5  7  1  0  0  0  0
  2  3  1  0  0  0  0
  2  4  1  0  0  0  0
  2  5  1  0  0  0  0
  1  2  1  0  0  0  0
 22 23  2  0  0  0  0
 22 24  1  0  0  0  0
 18 19  1  0  0  0  0
 18 20  1  0  0  0  0
 18 21  1  0  0  0  0
 17 18  1  0  0  0  0
 14 15  1  0  0  0  0
 14 16  1  0  0  0  0
 14 17  1  0  0  0  0
 11 12  1  0  0  0  0
 11 13  1  0  0  0  0
 11 14  1  0  0  0  0
  9 10  1  0  0  0  0
  9 11  1  0  0  0  0
  9 22  1  0  0  0  0
  7  8  1  0  0  0  0
  7  9  1  0  0  0  0
 26 27  1  0  0  0  0
 26 28  1  0  0  0  0
 26 29  1  0  0  0  0
 24 25  1  0  0  0  0
 24 26  1  0  0  0  0
M  END
$$$$
default_name
  -OEChem-01062215323D

 29 28  0     1  0  0  0  0  0999 V2000
   -3.5781   -3.7296    1.2702 H   0  0  0  0  0  0  0  0  0  0  0  0
   -3.5311   -2.7616    0.7732 C   0  0  0  0  0  0  0  0  0  0  0  0
   -4.2371   -2.0766    1.2382 H   0  0  0  0  0  0  0  0  0  0  0  0
   -3.7681   -2.8816   -0.2818 H   0  0  0  0  0  0  0  0  0  0  0  0
   -2.1321   -2.2086    0.9112 C   0  0  0  0  0  0  0  0  0  0  0  0
   -1.2751   -2.8426    1.5112 O   0  0  0  0  0  0  0  0  0  0  0  0
   -1.9041   -1.0186    0.3602 N   0  0  0  0  0  0  0  0  0  0  0  0
   -2.6671   -0.5416   -0.0988 H   0  0  0  0  0  0  0  0  0  0  0  0
   -0.6131   -0.3236    0.3832 C   0  0  1  0  0  0  0  0  0  0  0  0
   -0.6276    0.4627   -0.3732 H   0  0  0  0  0  0  0  0  0  0  0  0
   -0.4206    0.3363    1.7611 C   0  0  0  0  0  0  0  0  0  0  0  0
   -0.5355   -0.4261    2.5345 H   0  0  0  0  0  0  0  0  0  0  0  0
    0.5905    0.7404    1.8283 H   0  0  0  0  0  0  0  0  0  0  0  0
   -1.4190    1.4645    2.0445 C   0  0  0  0  0  0  0  0  0  0  0  0
   -2.4315    1.0641    2.0052 H   0  0  0  0  0  0  0  0  0  0  0  0
   -1.2340    1.8523    3.0469 H   0  0  0  0  0  0  0  0  0  0  0  0
   -1.3126    2.8398    0.8710 S   0  0  0  0  0  0  0  0  0  0  0  0
    0.2995    3.5214    1.3380 C   0  0  0  0  0  0  0  0  0  0  0  0
    1.0727    2.7653    1.1987 H   0  0  0  0  0  0  0  0  0  0  0  0
    0.5232    4.3837    0.7093 H   0  0  0  0  0  0  0  0  0  0  0  0
    0.2779    3.8348    2.3821 H   0  0  0  0  0  0  0  0  0  0  0  0
    0.5259   -1.2949    0.0418 C   0  0  0  0  0  0  0  0  0  0  0  0
    1.4337   -1.4882    0.8479 O   0  0  0  0  0  0  0  0  0  0  0  0
    0.4837   -1.8978   -1.1532 N   0  0  0  0  0  0  0  0  0  0  0  0
   -0.3001   -1.7014   -1.7550 H   0  0  0  0  0  0  0  0  0  0  0  0
    1.4990   -2.8354   -1.6307 C   0  0  0  0  0  0  0  0  0  0  0  0
    1.5842   -3.6718   -0.9329 H   0  0  0  0  0  0  0  0  0  0  0  0
    1.2308   -3.2164   -2.6170 H   0  0  0  0  0  0  0  0  0  0  0  0
    2.4663   -2.3331   -1.6877 H   0  0  0  0  0  0  0  0  0  0  0  0
  5  6  2  0  0  0  0
  5  7  1  0  0  0  0
  2  3  1  0  0  0  0
  2  4  1  0  0  0  0
  2  5  1  0  0  0  0
  1  2  1  0  0  0  0
 22 23  2  0  0  0  0
 22 24  1  0  0  0  0
 18 19  1  0  0  0  0
 18 20  1  0  0  0  0
 18 21  1  0  0  0  0
 17 18  1  0  0  0  0
 14 15  1  0  0  0  0
 14 16  1  0  0  0  0
 14 17  1  0  0  0  0
 11 12  1  0  0  0  0
 11 13  1  0  0  0  0
 11 14  1  0  0  0  0
  9 10  1  0  0  0  0
  9 11  1  0  0  0  0
  9 22  1  0  0  0  0
  7  8  1  0  0  0  0
  7  9  1  0  0  0  0
 26 27  1  0  0  0  0
 26 28  1  0  0  0  0
 26 29  1  0  0  0  0
 24 25  1  0  0  0  0
 24 26  1  0  0  0  0
M  END
$$$$
default_name
  -OEChem-01062215323D

 29 28  0     1  0  0  0  0  0999 V2000
   -3.5781   -3.7296    1.2702 H   0  0  0  0  0  0  0  0  0  0  0  0
   -3.5311   -2.7616    0.7732 C   0  0  0  0  0  0  0  0  0  0  0  0
   -4.2371   -2.0766    1.2382 H   0  0  0  0  0  0  0  0  0  0  0  0
   -3.7681   -2.8816   -0.2818 H   0  0  0  0  0  0  0  0  0  0  0  0
   -2.1321   -2.2086    0.9112 C   0  0  0  0  0  0  0  0  0  0  0  0
   -1.2751   -2.8426    1.5112 O   0  0  0  0  0  0  0  0  0  0  0  0
   -1.9041   -1.0186    0.3602 N   0  0  0  0  0  0  0  0  0  0  0  0
   -2.6671   -0.5416   -0.0988 H   0  0  0  0  0  0  0  0  0  0  0  0
   -0.6131   -0.3236    0.3832 C   0  0  1  0  0  0  0  0  0  0  0  0
   -0.6276    0.4627   -0.3732 H   0  0  0  0  0  0  0  0  0  0  0  0
   -0.4206    0.3363    1.7611 C   0  0  0  0  0  0  0  0  0  0  0  0
   -0.5355   -0.4261    2.5345 H   0  0  0  0  0  0  0  0  0  0  0  0
    0.5905    0.7404    1.8283 H   0  0  0  0  0  0  0  0  0  0  0  0
   -1.4190    1.4645    2.0445 C   0  0  0  0  0  0  0  0  0  0  0  0
   -2.4315    1.0641    2.0052 H   0  0  0  0  0  0  0  0  0  0  0  0
   -1.2340    1.8523    3.0469 H   0  0  0  0  0  0  0  0  0  0  0  0
   -1.3126    2.8398    0.8710 S   0  0  0  0  0  0  0  0  0  0  0  0
    0.2995    3.5214    1.3380 C   0  0  0  0  0  0  0  0  0  0  0  0
    1.0727    2.7653    1.1987 H   0  0  0  0  0  0  0  0  0  0  0  0
    0.5232    4.3837    0.7093 H   0  0  0  0  0  0  0  0  0  0  0  0
    0.2779    3.8348    2.3821 H   0  0  0  0  0  0  0  0  0  0  0  0
    0.5259   -1.2949    0.0418 C   0  0  0  0  0  0  0  0  0  0  0  0
    1.2753   -1.7019    0.9273 O   0  0  0  0  0  0  0  0  0  0  0  0
    0.6617   -1.6587   -1.2398 N   0  0  0  0  0  0  0  0  0  0  0  0
   -0.0000   -1.2960   -1.9074 H   0  0  0  0  0  0  0  0  0  0  0  0
    1.7033   -2.5624   -1.7258 C   0  0  0  0  0  0  0  0  0  0  0  0
    1.6343   -3.5186   -1.2018 H   0  0  0  0  0  0  0  0  0  0  0  0
    1.5905   -2.7312   -2.7975 H   0  0  0  0  0  0  0  0  0  0  0  0
    2.6863   -2.1309   -1.5291 H   0  0  0  0  0  0  0  0  0  0  0  0
  5  6  2  0  0  0  0
  5  7  1  0  0  0  0
  2  3  1  0  0  0  0
  2  4  1  0  0  0  0
  2  5  1  0  0  0  0
  1  2  1  0  0  0  0
 22 23  2  0  0  0  0
 22 24  1  0  0  0  0
 18 19  1  0  0  0  0
 18 20  1  0  0  0  0
 18 21  1  0  0  0  0
 17 18  1  0  0  0  0
 14 15  1  0  0  0  0
 14 16  1  0  0  0  0
 14 17  1  0  0  0  0
 11 12  1  0  0  0  0
 11 13  1  0  0  0  0
 11 14  1  0  0  0  0
  9 10  1  0  0  0  0
  9 11  1  0  0  0  0
  9 22  1  0  0  0  0
  7  8  1  0  0  0  0
  7  9  1  0  0  0  0
 26 27  1  0  0  0  0
 26 28  1  0  0  0  0
 26 29  1  0  0  0  0
 24 25  1  0  0  0  0
 24 26  1  0  0  0  0
M  END
$$$$
default_name
  -OEChem-01062215323D

 29 28  0     1  0  0  0  0  0999 V2000
   -3.5781   -3.7296    1.2702 H   0  0  0  0  0  0  0  0  0  0  0  0
   -3.5311   -2.7616    0.7732 C   0  0  0  0  0  0  0  0  0  0  0  0
   -4.2371   -2.0766    1.2382 H   0  0  0  0  0  0  0  0  0  0  0  0
   -3.7681   -2.8816   -0.2818 H   0  0  0  0  0  0  0  0  0  0  0  0
   -2.1321   -2.2086    0.9112 C   0  0  0  0  0  0  0  0  0  0  0  0
   -1.2751   -2.8426    1.5112 O   0  0  0  0  0  0  0  0  0  0  0  0
   -1.9041   -1.0186    0.3602 N   0  0  0  0  0  0  0  0  0  0  0  0
   -2.6671   -0.5416   -0.0988 H   0  0  0  0  0  0  0  0  0  0  0  0
   -0.6131   -0.3236    0.3832 C   0  0  1  0  0  0  0  0  0  0  0  0
   -0.6276    0.4627   -0.3732 H   0  0  0  0  0  0  0  0  0  0  0  0
   -0.4206    0.3363    1.7611 C   0  0  0  0  0  0  0  0  0  0  0  0
   -0.5355   -0.4261    2.5345 H   0  0  0  0  0  0  0  0  0  0  0  0
    0.5905    0.7404    1.8283 H   0  0  0  0  0  0  0  0  0  0  0  0
   -1.4190    1.4645    2.0445 C   0  0  0  0  0  0  0  0  0  0  0  0
   -2.4315    1.0641    2.0052 H   0  0  0  0  0  0  0  0  0  0  0  0
   -1.2340    1.8523    3.0469 H   0  0  0  0  0  0  0  0  0  0  0  0
   -1.3126    2.8398    0.8710 S   0  0  0  0  0  0  0  0  0  0  0  0
    0.2995    3.5214    1.3380 C   0  0  0  0  0  0  0  0  0  0  0  0
    1.0727    2.7653    1.1987 H   0  0  0  0  0  0  0  0  0  0  0  0
    0.5232    4.3837    0.7093 H   0  0  0  0  0  0  0  0  0  0  0  0
    0.2779    3.8348    2.3821 H   0  0  0  0  0  0  0  0  0  0  0  0
    0.5259   -1.2949    0.0418 C   0  0  0  0  0  0  0  0  0  0  0  0
    1.0969   -1.9144    0.9370 O   0  0  0  0  0  0  0  0  0  0  0  0
    0.8616   -1.4213   -1.2484 N   0  0  0  0  0  0  0  0  0  0  0  0
    0.3381   -0.8924   -1.9277 H   0  0  0  0  0  0  0  0  0  0  0  0
    1.9320   -2.2922   -1.7318 C   0  0  0  0  0  0  0  0  0  0  0  0
    1.7356   -3.3218   -1.4238 H   0  0  0  0  0  0  0  0  0  0  0  0
    1.9954   -2.2486   -2.8199 H   0  0  0  0  0  0  0  0  0  0  0  0
    2.8846   -1.9786   -1.3011 H   0  0  0  0  0  0  0  0  0  0  0  0
  5  6  2  0  0  0  0
  5  7  1  0  0  0  0
  2  3  1  0  0  0  0
  2  4  1  0  0  0  0
  2  5  1  0  0  0  0
  1  2  1  0  0  0  0
 22 23  2  0  0  0  0
 22 24  1  0  0  0  0
 18 19  1  0  0  0  0
 18 20  1  0  0  0  0
 18 21  1  0  0  0  0
 17 18  1  0  0  0  0
 14 15  1  0  0  0  0
 14 16  1  0  0  0  0
 14 17  1  0  0  0  0
 11 12  1  0  0  0  0
 11 13  1  0  0  0  0
 11 14  1  0  0  0  0
  9 10  1  0  0  0  0
  9 11  1  0  0  0  0
  9 22  1  0  0  0  0
  7  8  1  0  0  0  0
  7  9  1  0  0  0  0
 26 27  1  0  0  0  0
 26 28  1  0  0  0  0
 26 29  1  0  0  0  0
 24 25  1  0  0  0  0
 24 26  1  0  0  0  0
M  END
$$$$
default_name
  -OEChem-01062215323D

 29 28  0     1  0  0  0  0  0999 V2000
   -3.5781   -3.7296    1.2702 H   0  0  0  0  0  0  0  0  0  0  0  0
   -3.5311   -2.7616    0.7732 C   0  0  0  0  0  0  0  0  0  0  0  0
   -4.2371   -2.0766    1.2382 H   0  0  0  0  0  0  0  0  0  0  0  0
   -3.7681   -2.8816   -0.2818 H   0  0  0  0  0  0  0  0  0  0  0  0
   -2.1321   -2.2086    0.9112 C   0  0  0  0  0  0  0  0  0  0  0  0
   -1.2751   -2.8426    1.5112 O   0  0  0  0  0  0  0  0  0  0  0  0
   -1.9041   -1.0186    0.3602 N   0  0  0  0  0  0  0  0  0  0  0  0
   -2.6671   -0.5416   -0.0988 H   0  0  0  0  0  0  0  0  0  0  0  0
   -0.6131   -0.3236    0.3832 C   0  0  1  0  0  0  0  0  0  0  0  0
   -0.6276    0.4627   -0.3732 H   0  0  0  0  0  0  0  0  0  0  0  0
   -0.4206    0.3363    1.7611 C   0  0  0  0  0  0  0  0  0  0  0  0
   -0.5355   -0.4261    2.5345 H   0  0  0  0  0  0  0  0  0  0  0  0
    0.5905    0.7404    1.8283 H   0  0  0  0  0  0  0  0  0  0  0  0
   -1.4190    1.4645    2.0445 C   0  0  0  0  0  0  0  0  0  0  0  0
   -2.4315    1.0641    2.0052 H   0  0  0  0  0  0  0  0  0  0  0  0
   -1.2340    1.8523    3.0469 H   0  0  0  0  0  0  0  0  0  0  0  0
   -1.3126    2.8398    0.8710 S   0  0  0  0  0  0  0  0  0  0  0  0
    0.2995    3.5214    1.3380 C   0  0  0  0  0  0  0  0  0  0  0  0
    1.0727    2.7653    1.1987 H   0  0  0  0  0  0  0  0  0  0  0  0
    0.5232    4.3837    0.7093 H   0  0  0  0  0  0  0  0  0  0  0  0
    0.2779    3.8348    2.3821 H   0  0  0  0  0  0  0  0  0  0  0  0
    0.5259   -1.2949    0.0418 C   0  0  0  0  0  0  0  0  0  0  0  0
    0.9108   -2.1114    0.8764 O   0  0  0  0  0  0  0  0  0  0  0  0
    1.0697   -1.2019   -1.1784 N   0  0  0  0  0  0  0  0  0  0  0  0
    0.6913   -0.5181   -1.8143 H   0  0  0  0  0  0  0  0  0  0  0  0
    2.1694   -2.0432   -1.6483 C   0  0  0  0  0  0  0  0  0  0  0  0
    1.8810   -3.0950   -1.5839 H   0  0  0  0  0  0  0  0  0  0  0  0
    2.4179   -1.8015   -2.6825 H   0  0  0  0  0  0  0  0  0  0  0  0
    3.0475   -1.8866   -1.0192 H   0  0  0  0  0  0  0  0  0  0  0  0
  5  6  2  0  0  0  0
  5  7  1  0  0  0  0
  2  3  1  0  0  0  0
  2  4  1  0  0  0  0
  2  5  1  0  0  0  0
  1  2  1  0  0  0  0
 22 23  2  0  0  0  0
 22 24  1  0  0  0  0
 18 19  1  0  0  0  0
 18 20  1  0  0  0  0
 18 21  1  0  0  0  0
 17 18  1  0  0  0  0
 14 15  1  0  0  0  0
 14 16  1  0  0  0  0
 14 17  1  0  0  0  0
 11 12  1  0  0  0  0
 11 13  1  0  0  0  0
 11 14  1  0  0  0  0
  9 10  1  0  0  0  0
  9 11  1  0  0  0  0
  9 22  1  0  0  0  0
  7  8  1  0  0  0  0
  7  9  1  0  0  0  0
 26 27  1  0  0  0  0
 26 28  1  0  0  0  0
 26 29  1  0  0  0  0
 24 25  1  0  0  0  0
 24 26  1  0  0  0  0
M  END
$$$$
default_name
  -OEChem-01062215323D

 29 28  0     1  0  0  0  0  0999 V2000
   -3.5781   -3.7296    1.2702 H   0  0  0  0  0  0  0  0  0  0  0  0
   -3.5311   -2.7616    0.7732 C   0  0  0  0  0  0  0  0  0  0  0  0
   -4.2371   -2.0766    1.2382 H   0  0  0  0  0  0  0  0  0  0  0  0
   -3.7681   -2.8816   -0.2818 H   0  0  0  0  0  0  0  0  0  0  0  0
   -2.1321   -2.2086    0.9112 C   0  0  0  0  0  0  0  0  0  0  0  0
   -1.2751   -2.8426    1.5112 O   0  0  0  0  0  0  0  0  0  0  0  0
   -1.9041   -1.0186    0.3602 N   0  0  0  0  0  0  0  0  0  0  0  0
   -2.6671   -0.5416   -0.0988 H   0  0  0  0  0  0  0  0  0  0  0  0
   -0.6131   -0.3236    0.3832 C   0  0  1  0  0  0  0  0  0  0  0  0
   -0.6276    0.4627   -0.3732 H   0  0  0  0  0  0  0  0  0  0  0  0
   -0.4206    0.3363    1.7611 C   0  0  0  0  0  0  0  0  0  0  0  0
   -0.5355   -0.4261    2.5345 H   0  0  0  0  0  0  0  0  0  0  0  0
    0.5905    0.7404    1.8283 H   0  0  0  0  0  0  0  0  0  0  0  0
   -1.4190    1.4645    2.0445 C   0  0  0  0  0  0  0  0  0  0  0  0
   -2.4315    1.0641    2.0052 H   0  0  0  0  0  0  0  0  0  0  0  0
   -1.2340    1.8523    3.0469 H   0  0  0  0  0  0  0  0  0  0  0  0
   -1.3126    2.8398    0.8710 S   0  0  0  0  0  0  0  0  0  0  0  0
    0.2995    3.5214    1.3380 C   0  0  0  0  0  0  0  0  0  0  0  0
    1.0727    2.7653    1.1987 H   0  0  0  0  0  0  0  0  0  0  0  0
    0.5232    4.3837    0.7093 H   0  0  0  0  0  0  0  0  0  0  0  0
    0.2779    3.8348    2.3821 H   0  0  0  0  0  0  0  0  0  0  0  0
    0.5259   -1.2949    0.0418 C   0  0  0  0  0  0  0  0  0  0  0  0
    0.7296   -2.2792    0.7496 O   0  0  0  0  0  0  0  0  0  0  0  0
    1.2719   -1.0153   -1.0346 N   0  0  0  0  0  0  0  0  0  0  0  0
    1.0354   -0.1986   -1.5752 H   0  0  0  0  0  0  0  0  0  0  0  0
    2.3993   -1.8323   -1.4809 C   0  0  0  0  0  0  0  0  0  0  0  0
    2.0608   -2.8535   -1.6712 H   0  0  0  0  0  0  0  0  0  0  0  0
    2.8292   -1.4203   -2.3948 H   0  0  0  0  0  0  0  0  0  0  0  0
    3.1639   -1.8614   -0.7026 H   0  0  0  0  0  0  0  0  0  0  0  0
  5  6  2  0  0  0  0
  5  7  1  0  0  0  0
  2  3  1  0  0  0  0
  2  4  1  0  0  0  0
  2  5  1  0  0  0  0
  1  2  1  0  0  0  0
 22 23  2  0  0  0  0
 22 24  1  0  0  0  0
 18 19  1  0  0  0  0
 18 20  1  0  0  0  0
 18 21  1  0  0  0  0
 17 18  1  0  0  0  0
 14 15  1  0  0  0  0
 14 16  1  0  0  0  0
 14 17  1  0  0  0  0
 11 12  1  0  0  0  0
 11 13  1  0  0  0  0
 11 14  1  0  0  0  0
  9 10  1  0  0  0  0
  9 11  1  0  0  0  0
  9 22  1  0  0  0  0
  7  8  1  0  0  0  0
  7  9  1  0  0  0  0
 26 27  1  0  0  0  0
 26 28  1  0  0  0  0
 26 29  1  0  0  0  0
 24 25  1  0  0  0  0
 24 26  1  0  0  0  0
M  END
$$$$
default_name
  -OEChem-01062215323D

 29 28  0     1  0  0  0  0  0999 V2000
   -3.5781   -3.7296    1.2702 H   0  0  0  0  0  0  0  0  0  0  0  0
   -3.5311   -2.7616    0.7732 C   0  0  0  0  0  0  0  0  0  0  0  0
   -4.2371   -2.0766    1.2382 H   0  0  0  0  0  0  0  0  0  0  0  0
   -3.7681   -2.8816   -0.2818 H   0  0  0  0  0  0  0  0  0  0  0  0
   -2.1321   -2.2086    0.9112 C   0  0  0  0  0  0  0  0  0  0  0  0
   -1.2751   -2.8426    1.5112 O   0  0  0  0  0  0  0  0  0  0  0  0
   -1.9041   -1.0186    0.3602 N   0  0  0  0  0  0  0  0  0  0  0  0
   -2.6671   -0.5416   -0.0988 H   0  0  0  0  0  0  0  0  0  0  0  0
   -0.6131   -0.3236    0.3832 C   0  0  1  0  0  0  0  0  0  0  0  0
   -0.6276    0.4627   -0.3732 H   0  0  0  0  0  0  0  0  0  0  0  0
   -0.4206    0.3363    1.7611 C   0  0  0  0  0  0  0  0  0  0  0  0
   -0.5355   -0.4261    2.5345 H   0  0  0  0  0  0  0  0  0  0  0  0
    0.5905    0.7404    1.8283 H   0  0  0  0  0  0  0  0  0  0  0  0
   -1.4190    1.4645    2.0445 C   0  0  0  0  0  0  0  0  0  0  0  0
   -2.4315    1.0641    2.0052 H   0  0  0  0  0  0  0  0  0  0  0  0
   -1.2340    1.8523    3.0469 H   0  0  0  0  0  0  0  0  0  0  0  0
   -1.3126    2.8398    0.8710 S   0  0  0  0  0  0  0  0  0  0  0  0
    0.2995    3.5214    1.3380 C   0  0  0  0  0  0  0  0  0  0  0  0
    1.0727    2.7653    1.1987 H   0  0  0  0  0  0  0  0  0  0  0  0
    0.5232    4.3837    0.7093 H   0  0  0  0  0  0  0  0  0  0  0  0
    0.2779    3.8348    2.3821 H   0  0  0  0  0  0  0  0  0  0  0  0
    0.5259   -1.2949    0.0418 C   0  0  0  0  0  0  0  0  0  0  0  0
    0.5657   -2.4066    0.5651 O   0  0  0  0  0  0  0  0  0  0  0  0
    1.4544   -0.8744   -0.8268 N   0  0  0  0  0  0  0  0  0  0  0  0
    1.3470    0.0442   -1.2265 H   0  0  0  0  0  0  0  0  0  0  0  0
    2.6062   -1.6741   -1.2411 C   0  0  0  0  0  0  0  0  0  0  0  0
    2.2626   -2.6139   -1.6798 H   0  0  0  0  0  0  0  0  0  0  0  0
    3.2014   -1.1310   -1.9763 H   0  0  0  0  0  0  0  0  0  0  0  0
    3.2260   -1.9044   -0.3728 H   0  0  0  0  0  0  0  0  0  0  0  0
  5  6  2  0  0  0  0
  5  7  1  0  0  0  0
  2  3  1  0  0  0  0
  2  4  1  0  0  0  0
  2  5  1  0  0  0  0
  1  2  1  0  0  0  0
 22 23  2  0  0  0  0
 22 24  1  0  0  0  0
 18 19  1  0  0  0  0
 18 20  1  0  0  0  0
 18 21  1  0  0  0  0
 17 18  1  0  0  0  0
 14 15  1  0  0  0  0
 14 16  1  0  0  0  0
 14 17  1  0  0  0  0
 11 12  1  0  0  0  0
 11 13  1  0  0  0  0
 11 14  1  0  0  0  0
  9 10  1  0  0  0  0
  9 11  1  0  0  0  0
  9 22  1  0  0  0  0
  7  8  1  0  0  0  0
  7  9  1  0  0  0  0
 26 27  1  0  0  0  0
 26 28  1  0  0  0  0
 26 29  1  0  0  0  0
 24 25  1  0  0  0  0
 24 26  1  0  0  0  0
M  END
$$$$
default_name
  -OEChem-01062215323D

 29 28  0     1  0  0  0  0  0999 V2000
   -3.5781   -3.7296    1.2702 H   0  0  0  0  0  0  0  0  0  0  0  0
   -3.5311   -2.7616    0.7732 C   0  0  0  0  0  0  0  0  0  0  0  0
   -4.2371   -2.0766    1.2382 H   0  0  0  0  0  0  0  0  0  0  0  0
   -3.7681   -2.8816   -0.2818 H   0  0  0  0  0  0  0  0  0  0  0  0
   -2.1321   -2.2086    0.9112 C   0  0  0  0  0  0  0  0  0  0  0  0
   -1.2751   -2.8426    1.5112 O   0  0  0  0  0  0  0  0  0  0  0  0
   -1.9041   -1.0186    0.3602 N   0  0  0  0  0  0  0  0  0  0  0  0
   -2.6671   -0.5416   -0.0988 H   0  0  0  0  0  0  0  0  0  0  0  0
   -0.6131   -0.3236    0.3832 C   0  0  1  0  0  0  0  0  0  0  0  0
   -0.6276    0.4627   -0.3732 H   0  0  0  0  0  0  0  0  0  0  0  0
   -0.4206    0.3363    1.7611 C   0  0  0  0  0  0  0  0  0  0  0  0
   -0.5355   -0.4261    2.5345 H   0  0  0  0  0  0  0  0  0  0  0  0
    0.5905    0.7404    1.8283 H   0  0  0  0  0  0  0  0  0  0  0  0
   -1.4190    1.4645    2.0445 C   0  0  0  0  0  0  0  0  0  0  0  0
   -2.4315    1.0641    2.0052 H   0  0  0  0  0  0  0  0  0  0  0  0
   -1.2340    1.8523    3.0469 H   0  0  0  0  0  0  0  0  0  0  0  0
   -1.3126    2.8398    0.8710 S   0  0  0  0  0  0  0  0  0  0  0  0
    0.2995    3.5214    1.3380 C   0  0  0  0  0  0  0  0  0  0  0  0
    1.0727    2.7653    1.1987 H   0  0  0  0  0  0  0  0  0  0  0  0
    0.5232    4.3837    0.7093 H   0  0  0  0  0  0  0  0  0  0  0  0
    0.2779    3.8348    2.3821 H   0  0  0  0  0  0  0  0  0  0  0  0
    0.5259   -1.2949    0.0418 C   0  0  0  0  0  0  0  0  0  0  0  0
    0.4303   -2.4848    0.3357 O   0  0  0  0  0  0  0  0  0  0  0  0
    1.6048   -0.7887   -0.5690 N   0  0  0  0  0  0  0  0  0  0  0  0
    1.6049    0.1939   -0.7921 H   0  0  0  0  0  0  0  0  0  0  0  0
    2.7758   -1.5791   -0.9452 C   0  0  0  0  0  0  0  0  0  0  0  0
    2.4728   -2.3923   -1.6089 H   0  0  0  0  0  0  0  0  0  0  0  0
    3.5090   -0.9533   -1.4556 H   0  0  0  0  0  0  0  0  0  0  0  0
    3.2296   -2.0129   -0.0523 H   0  0  0  0  0  0  0  0  0  0  0  0
  5  6  2  0  0  0  0
  5  7  1  0  0  0  0
  2  3  1  0  0  0  0
  2  4  1  0  0  0  0
  2  5  1  0  0  0  0
  1  2  1  0  0  0  0
 22 23  2  0  0  0  0
 22 24  1  0  0  0  0
 18 19  1  0  0  0  0
 18 20  1  0  0  0  0
 18 21  1  0  0  0  0
 17 18  1  0  0  0  0
 14 15  1  0  0  0  0
 14 16  1  0  0  0  0
 14 17  1  0  0  0  0
 11 12  1  0  0  0  0
 11 13  1  0  0  0  0
 11 14  1  0  0  0  0
  9 10  1  0  0  0  0
  9 11  1  0  0  0  0
  9 22  1  0  0  0  0
  7  8  1  0  0  0  0
  7  9  1  0  0  0  0
 26 27  1  0  0  0  0
 26 28  1  0  0  0  0
 26 29  1  0  0  0  0
 24 25  1  0  0  0  0
 24 26  1  0  0  0  0
M  END
$$$$
default_name
  -OEChem-01062215323D

 29 28  0     1  0  0  0  0  0999 V2000
   -3.5781   -3.7296    1.2702 H   0  0  0  0  0  0  0  0  0  0  0  0
   -3.5311   -2.7616    0.7732 C   0  0  0  0  0  0  0  0  0  0  0  0
   -4.2371   -2.0766    1.2382 H   0  0  0  0  0  0  0  0  0  0  0  0
   -3.7681   -2.8816   -0.2818 H   0  0  0  0  0  0  0  0  0  0  0  0
   -2.1321   -2.2086    0.9112 C   0  0  0  0  0  0  0  0  0  0  0  0
   -1.2751   -2.8426    1.5112 O   0  0  0  0  0  0  0  0  0  0  0  0
   -1.9041   -1.0186    0.3602 N   0  0  0  0  0  0  0  0  0  0  0  0
   -2.6671   -0.5416   -0.0988 H   0  0  0  0  0  0  0  0  0  0  0  0
   -0.6131   -0.3236    0.3832 C   0  0  1  0  0  0  0  0  0  0  0  0
   -0.6276    0.4627   -0.3732 H   0  0  0  0  0  0  0  0  0  0  0  0
   -0.4206    0.3363    1.7611 C   0  0  0  0  0  0  0  0  0  0  0  0
   -0.5355   -0.4261    2.5345 H   0  0  0  0  0  0  0  0  0  0  0  0
    0.5905    0.7404    1.8283 H   0  0  0  0  0  0  0  0  0  0  0  0
   -1.4190    1.4645    2.0445 C   0  0  0  0  0  0  0  0  0  0  0  0
   -2.4315    1.0641    2.0052 H   0  0  0  0  0  0  0  0  0  0  0  0
   -1.2340    1.8523    3.0469 H   0  0  0  0  0  0  0  0  0  0  0  0
   -1.3126    2.8398    0.8710 S   0  0  0  0  0  0  0  0  0  0  0  0
    0.2995    3.5214    1.3380 C   0  0  0  0  0  0  0  0  0  0  0  0
    1.0727    2.7653    1.1987 H   0  0  0  0  0  0  0  0  0  0  0  0
    0.5232    4.3837    0.7093 H   0  0  0  0  0  0  0  0  0  0  0  0
    0.2779    3.8348    2.3821 H   0  0  0  0  0  0  0  0  0  0  0  0
    0.5259   -1.2949    0.0418 C   0  0  0  0  0  0  0  0  0  0  0  0
    0.3325   -2.5084    0.0769 O   0  0  0  0  0  0  0  0  0  0  0  0
    1.7127   -0.7640   -0.2790 N   0  0  0  0  0  0  0  0  0  0  0  0
    1.7915    0.2402   -0.3014 H   0  0  0  0  0  0  0  0  0  0  0  0
    2.8967   -1.5540   -0.6134 C   0  0  0  0  0  0  0  0  0  0  0  0
    2.6769   -2.2041   -1.4636 H   0  0  0  0  0  0  0  0  0  0  0  0
    3.7311   -0.8993   -0.8681 H   0  0  0  0  0  0  0  0  0  0  0  0
    3.1742   -2.1795    0.2369 H   0  0  0  0  0  0  0  0  0  0  0  0
  5  6  2  0  0  0  0
  5  7  1  0  0  0  0
  2  3  1  0  0  0  0
  2  4  1  0  0  0  0
  2  5  1  0  0  0  0
  1  2  1  0  0  0  0
 22 23  2  0  0  0  0
 22 24  1  0  0  0  0
 18 19  1  0  0  0  0
 18 20  1  0  0  0  0
 18 21  1  0  0  0  0
 17 18  1  0  0  0  0
 14 15  1  0  0  0  0
 14 16  1  0  0  0  0
 14 17  1  0  0  0  0
 11 12  1  0  0  0  0
 11 13  1  0  0  0  0
 11 14  1  0  0  0  0
  9 10  1  0  0  0  0
  9 11  1  0  0  0  0
  9 22  1  0  0  0  0
  7  8  1  0  0  0  0
  7  9  1  0  0  0  0
 26 27  1  0  0  0  0
 26 28  1  0  0  0  0
 26 29  1  0  0  0  0
 24 25  1  0  0  0  0
 24 26  1  0  0  0  0
M  END
$$$$
default_name
  -OEChem-01062215323D

 29 28  0     1  0  0  0  0  0999 V2000
   -3.5781   -3.7296    1.2702 H   0  0  0  0  0  0  0  0  0  0  0  0
   -3.5311   -2.7616    0.7732 C   0  0  0  0  0  0  0  0  0  0  0  0
   -4.2371   -2.0766    1.2382 H   0  0  0  0  0  0  0  0  0  0  0  0
   -3.7681   -2.8816   -0.2818 H   0  0  0  0  0  0  0  0  0  0  0  0
   -2.1321   -2.2086    0.9112 C   0  0  0  0  0  0  0  0  0  0  0  0
   -1.2751   -2.8426    1.5112 O   0  0  0  0  0  0  0  0  0  0  0  0
   -1.9041   -1.0186    0.3602 N   0  0  0  0  0  0  0  0  0  0  0  0
   -2.6671   -0.5416   -0.0988 H   0  0  0  0  0  0  0  0  0  0  0  0
   -0.6131   -0.3236    0.3832 C   0  0  1  0  0  0  0  0  0  0  0  0
   -0.7127    0.6138   -0.1663 H   0  0  0  0  0  0  0  0  0  0  0  0
   -0.2457    0.0087    1.8411 C   0  0  0  0  0  0  0  0  0  0  0  0
   -0.2722   -0.9116    2.4284 H   0  0  0  0  0  0  0  0  0  0  0  0
    0.7701    0.4054    1.8748 H   0  0  0  0  0  0  0  0  0  0  0  0
   -1.1901    1.0244    2.4943 C   0  0  0  0  0  0  0  0  0  0  0  0
   -2.2038    0.6250    2.4887 H   0  0  0  0  0  0  0  0  0  0  0  0
   -0.8791    1.1772    3.5284 H   0  0  0  0  0  0  0  0  0  0  0  0
   -1.2151    2.6324    1.6615 S   0  0  0  0  0  0  0  0  0  0  0  0
    0.4492    3.2192    2.0711 C   0  0  0  0  0  0  0  0  0  0  0  0
    1.1916    2.5289    1.6696 H   0  0  0  0  0  0  0  0  0  0  0  0
    0.6025    4.2059    1.6331 H   0  0  0  0  0  0  0  0  0  0  0  0
    0.5595    3.2863    3.1538 H   0  0  0  0  0  0  0  0  0  0  0  0
    0.4652   -1.1707   -0.3073 C   0  0  0  0  0  0  0  0  0  0  0  0
    0.1794   -2.2715   -0.7740 O   0  0  0  0  0  0  0  0  0  0  0  0
    1.7035   -0.6640   -0.3647 N   0  0  0  0  0  0  0  0  0  0  0  0
    1.8588    0.2515    0.0262 H   0  0  0  0  0  0  0  0  0  0  0  0
    2.8400   -1.3531   -0.9741 C   0  0  0  0  0  0  0  0  0  0  0  0
    2.6153   -1.5799   -2.0189 H   0  0  0  0  0  0  0  0  0  0  0  0
    3.7333   -0.7290   -0.9261 H   0  0  0  0  0  0  0  0  0  0  0  0
    3.0260   -2.2918   -0.4491 H   0  0  0  0  0  0  0  0  0  0  0  0
  5  6  2  0  0  0  0
  5  7  1  0  0  0  0
  2  3  1  0  0  0  0
  2  4  1  0  0  0  0
  2  5  1  0  0  0  0
  1  2  1  0  0  0  0
 22 23  2  0  0  0  0
 22 24  1  0  0  0  0
 18 19  1  0  0  0  0
 18 20  1  0  0  0  0
 18 21  1  0  0  0  0
 17 18  1  0  0  0  0
 14 15  1  0  0  0  0
 14 16  1  0  0  0  0
 14 17  1  0  0  0  0
 11 12  1  0  0  0  0
 11 13  1  0  0  0  0
 11 14  1  0  0  0  0
  9 10  1  0  0  0  0
  9 11  1  0  0  0  0
  9 22  1  0  0  0  0
  7  8  1  0  0  0  0
  7  9  1  0  0  0  0
 26 27  1  0  0  0  0
 26 28  1  0  0  0  0
 26 29  1  0  0  0  0
 24 25  1  0  0  0  0
 24 26  1  0  0  0  0
M  END
$$$$
default_name
  -OEChem-01062215323D

 29 28  0     1  0  0  0  0  0999 V2000
   -3.5781   -3.7296    1.2702 H   0  0  0  0  0  0  0  0  0  0  0  0
   -3.5311   -2.7616    0.7732 C   0  0  0  0  0  0  0  0  0  0  0  0
   -4.2371   -2.0766    1.2382 H   0  0  0  0  0  0  0  0  0  0  0  0
   -3.7681   -2.8816   -0.2818 H   0  0  0  0  0  0  0  0  0  0  0  0
   -2.1321   -2.2086    0.9112 C   0  0  0  0  0  0  0  0  0  0  0  0
   -1.2751   -2.8426    1.5112 O   0  0  0  0  0  0  0  0  0  0  0  0
   -1.9041   -1.0186    0.3602 N   0  0  0  0  0  0  0  0  0  0  0  0
   -2.6671   -0.5416   -0.0988 H   0  0  0  0  0  0  0  0  0  0  0  0
   -0.6131   -0.3236    0.3832 C   0  0  1  0  0  0  0  0  0  0  0  0
   -0.7127    0.6138   -0.1663 H   0  0  0  0  0  0  0  0  0  0  0  0
   -0.2457    0.0087    1.8411 C   0  0  0  0  0  0  0  0  0  0  0  0
   -0.2722   -0.9116    2.4284 H   0  0  0  0  0  0  0  0  0  0  0  0
    0.7701    0.4054    1.8748 H   0  0  0  0  0  0  0  0  0  0  0  0
   -1.1901    1.0244    2.4943 C   0  0  0  0  0  0  0  0  0  0  0  0
   -2.2038    0.6250    2.4887 H   0  0  0  0  0  0  0  0  0  0  0  0
   -0.8791    1.1772    3.5284 H   0  0  0  0  0  0  0  0  0  0  0  0
   -1.2151    2.6324    1.6615 S   0  0  0  0  0  0  0  0  0  0  0  0
    0.4492    3.2192    2.0711 C   0  0  0  0  0  0  0  0  0  0  0  0
    1.1916    2.5289    1.6696 H   0  0  0  0  0  0  0  0  0  0  0  0
    0.6025    4.2059    1.6331 H   0  0  0  0  0  0  0  0  0  0  0  0
    0.5595    3.2863    3.1538 H   0  0  0  0  0  0  0  0  0  0  0  0
    0.4652   -1.1707   -0.3073 C   0  0  0  0  0  0  0  0  0  0  0  0
    0.1424   -2.1275   -1.0084 O   0  0  0  0  0  0  0  0  0  0  0  0
    1.7432   -0.8265   -0.1032 N   0  0  0  0  0  0  0  0  0  0  0  0
    1.9303   -0.0206    0.4718 H   0  0  0  0  0  0  0  0  0  0  0  0
    2.8826   -1.5410   -0.6770 C   0  0  0  0  0  0  0  0  0  0  0  0
    2.7988   -1.5522   -1.7663 H   0  0  0  0  0  0  0  0  0  0  0  0
    3.8175   -1.0557   -0.3937 H   0  0  0  0  0  0  0  0  0  0  0  0
    2.8879   -2.5725   -0.3204 H   0  0  0  0  0  0  0  0  0  0  0  0
  5  6  2  0  0  0  0
  5  7  1  0  0  0  0
  2  3  1  0  0  0  0
  2  4  1  0  0  0  0
  2  5  1  0  0  0  0
  1  2  1  0  0  0  0
 22 23  2  0  0  0  0
 22 24  1  0  0  0  0
 18 19  1  0  0  0  0
 18 20  1  0  0  0  0
 18 21  1  0  0  0  0
 17 18  1  0  0  0  0
 14 15  1  0  0  0  0
 14 16  1  0  0  0  0
 14 17  1  0  0  0  0
 11 12  1  0  0  0  0
 11 13  1  0  0  0  0
 11 14  1  0  0  0  0
  9 10  1  0  0  0  0
  9 11  1  0  0  0  0
  9 22  1  0  0  0  0
  7  8  1  0  0  0  0
  7  9  1  0  0  0  0
 26 27  1  0  0  0  0
 26 28  1  0  0  0  0
 26 29  1  0  0  0  0
 24 25  1  0  0  0  0
 24 26  1  0  0  0  0
M  END
$$$$
default_name
  -OEChem-01062215323D

 29 28  0     1  0  0  0  0  0999 V2000
   -3.5781   -3.7296    1.2702 H   0  0  0  0  0  0  0  0  0  0  0  0
   -3.5311   -2.7616    0.7732 C   0  0  0  0  0  0  0  0  0  0  0  0
   -4.2371   -2.0766    1.2382 H   0  0  0  0  0  0  0  0  0  0  0  0
   -3.7681   -2.8816   -0.2818 H   0  0  0  0  0  0  0  0  0  0  0  0
   -2.1321   -2.2086    0.9112 C   0  0  0  0  0  0  0  0  0  0  0  0
   -1.2751   -2.8426    1.5112 O   0  0  0  0  0  0  0  0  0  0  0  0
   -1.9041   -1.0186    0.3602 N   0  0  0  0  0  0  0  0  0  0  0  0
   -2.6671   -0.5416   -0.0988 H   0  0  0  0  0  0  0  0  0  0  0  0
   -0.6131   -0.3236    0.3832 C   0  0  1  0  0  0  0  0  0  0  0  0
   -0.7127    0.6138   -0.1663 H   0  0  0  0  0  0  0  0  0  0  0  0
   -0.2457    0.0087    1.8411 C   0  0  0  0  0  0  0  0  0  0  0  0
   -0.2722   -0.9116    2.4284 H   0  0  0  0  0  0  0  0  0  0  0  0
    0.7701    0.4054    1.8748 H   0  0  0  0  0  0  0  0  0  0  0  0
   -1.1901    1.0244    2.4943 C   0  0  0  0  0  0  0  0  0  0  0  0
   -2.2038    0.6250    2.4887 H   0  0  0  0  0  0  0  0  0  0  0  0
   -0.8791    1.1772    3.5284 H   0  0  0  0  0  0  0  0  0  0  0  0
   -1.2151    2.6324    1.6615 S   0  0  0  0  0  0  0  0  0  0  0  0
    0.4492    3.2192    2.0711 C   0  0  0  0  0  0  0  0  0  0  0  0
    1.1916    2.5289    1.6696 H   0  0  0  0  0  0  0  0  0  0  0  0
    0.6025    4.2059    1.6331 H   0  0  0  0  0  0  0  0  0  0  0  0
    0.5595    3.2863    3.1538 H   0  0  0  0  0  0  0  0  0  0  0  0
    0.4652   -1.1707   -0.3073 C   0  0  0  0  0  0  0  0  0  0  0  0
    0.1569   -1.9415   -1.2140 O   0  0  0  0  0  0  0  0  0  0  0  0
    1.7254   -1.0357    0.1255 N   0  0  0  0  0  0  0  0  0  0  0  0
    1.9041   -0.3728    0.8628 H   0  0  0  0  0  0  0  0  0  0  0  0
    2.8594   -1.7814   -0.4182 C   0  0  0  0  0  0  0  0  0  0  0  0
    2.9432   -1.5927   -1.4911 H   0  0  0  0  0  0  0  0  0  0  0  0
    3.7847   -1.4780    0.0732 H   0  0  0  0  0  0  0  0  0  0  0  0
    2.7034   -2.8510   -0.2668 H   0  0  0  0  0  0  0  0  0  0  0  0
  5  6  2  0  0  0  0
  5  7  1  0  0  0  0
  2  3  1  0  0  0  0
  2  4  1  0  0  0  0
  2  5  1  0  0  0  0
  1  2  1  0  0  0  0
 22 23  2  0  0  0  0
 22 24  1  0  0  0  0
 18 19  1  0  0  0  0
 18 20  1  0  0  0  0
 18 21  1  0  0  0  0
 17 18  1  0  0  0  0
 14 15  1  0  0  0  0
 14 16  1  0  0  0  0
 14 17  1  0  0  0  0
 11 12  1  0  0  0  0
 11 13  1  0  0  0  0
 11 14  1  0  0  0  0
  9 10  1  0  0  0  0
  9 11  1  0  0  0  0
  9 22  1  0  0  0  0
  7  8  1  0  0  0  0
  7  9  1  0  0  0  0
 26 27  1  0  0  0  0
 26 28  1  0  0  0  0
 26 29  1  0  0  0  0
 24 25  1  0  0  0  0
 24 26  1  0  0  0  0
M  END
$$$$
default_name
  -OEChem-01062215323D

 29 28  0     1  0  0  0  0  0999 V2000
   -3.5781   -3.7296    1.2702 H   0  0  0  0  0  0  0  0  0  0  0  0
   -3.5311   -2.7616    0.7732 C   0  0  0  0  0  0  0  0  0  0  0  0
   -4.2371   -2.0766    1.2382 H   0  0  0  0  0  0  0  0  0  0  0  0
   -3.7681   -2.8816   -0.2818 H   0  0  0  0  0  0  0  0  0  0  0  0
   -2.1321   -2.2086    0.9112 C   0  0  0  0  0  0  0  0  0  0  0  0
   -1.2751   -2.8426    1.5112 O   0  0  0  0  0  0  0  0  0  0  0  0
   -1.9041   -1.0186    0.3602 N   0  0  0  0  0  0  0  0  0  0  0  0
   -2.6671   -0.5416   -0.0988 H   0  0  0  0  0  0  0  0  0  0  0  0
   -0.6131   -0.3236    0.3832 C   0  0  1  0  0  0  0  0  0  0  0  0
   -0.7127    0.6138   -0.1663 H   0  0  0  0  0  0  0  0  0  0  0  0
   -0.2457    0.0087    1.8411 C   0  0  0  0  0  0  0  0  0  0  0  0
   -0.2722   -0.9116    2.4284 H   0  0  0  0  0  0  0  0  0  0  0  0
    0.7701    0.4054    1.8748 H   0  0  0  0  0  0  0  0  0  0  0  0
   -1.1901    1.0244    2.4943 C   0  0  0  0  0  0  0  0  0  0  0  0
   -2.2038    0.6250    2.4887 H   0  0  0  0  0  0  0  0  0  0  0  0
   -0.8791    1.1772    3.5284 H   0  0  0  0  0  0  0  0  0  0  0  0
   -1.2151    2.6324    1.6615 S   0  0  0  0  0  0  0  0  0  0  0  0
    0.4492    3.2192    2.0711 C   0  0  0  0  0  0  0  0  0  0  0  0
    1.1916    2.5289    1.6696 H   0  0  0  0  0  0  0  0  0  0  0  0
    0.6025    4.2059    1.6331 H   0  0  0  0  0  0  0  0  0  0  0  0
    0.5595    3.2863    3.1538 H   0  0  0  0  0  0  0  0  0  0  0  0
    0.4652   -1.1707   -0.3073 C   0  0  0  0  0  0  0  0  0  0  0  0
    0.2219   -1.7261   -1.3767 O   0  0  0  0  0  0  0  0  0  0  0  0
    1.6511   -1.2772    0.3058 N   0  0  0  0  0  0  0  0  0  0  0  0
    1.7819   -0.7810    1.1728 H   0  0  0  0  0  0  0  0  0  0  0  0
    2.7721   -2.0580   -0.2152 C   0  0  0  0  0  0  0  0  0  0  0  0
    3.0387   -1.6987   -1.2120 H   0  0  0  0  0  0  0  0  0  0  0  0
    3.6373   -1.9669    0.4427 H   0  0  0  0  0  0  0  0  0  0  0  0
    2.4851   -3.1083   -0.2920 H   0  0  0  0  0  0  0  0  0  0  0  0
  5  6  2  0  0  0  0
  5  7  1  0  0  0  0
  2  3  1  0  0  0  0
  2  4  1  0  0  0  0
  2  5  1  0  0  0  0
  1  2  1  0  0  0  0
 22 23  2  0  0  0  0
 22 24  1  0  0  0  0
 18 19  1  0  0  0  0
 18 20  1  0  0  0  0
 18 21  1  0  0  0  0
 17 18  1  0  0  0  0
 14 15  1  0  0  0  0
 14 16  1  0  0  0  0
 14 17  1  0  0  0  0
 11 12  1  0  0  0  0
 11 13  1  0  0  0  0
 11 14  1  0  0  0  0
  9 10  1  0  0  0  0
  9 11  1  0  0  0  0
  9 22  1  0  0  0  0
  7  8  1  0  0  0  0
  7  9  1  0  0  0  0
 26 27  1  0  0  0  0
 26 28  1  0  0  0  0
 26 29  1  0  0  0  0
 24 25  1  0  0  0  0
 24 26  1  0  0  0  0
M  END
$$$$
default_name
  -OEChem-01062215323D

 29 28  0     1  0  0  0  0  0999 V2000
   -3.5781   -3.7296    1.2702 H   0  0  0  0  0  0  0  0  0  0  0  0
   -3.5311   -2.7616    0.7732 C   0  0  0  0  0  0  0  0  0  0  0  0
   -4.2371   -2.0766    1.2382 H   0  0  0  0  0  0  0  0  0  0  0  0
   -3.7681   -2.8816   -0.2818 H   0  0  0  0  0  0  0  0  0  0  0  0
   -2.1321   -2.2086    0.9112 C   0  0  0  0  0  0  0  0  0  0  0  0
   -1.2751   -2.8426    1.5112 O   0  0  0  0  0  0  0  0  0  0  0  0
   -1.9041   -1.0186    0.3602 N   0  0  0  0  0  0  0  0  0  0  0  0
   -2.6671   -0.5416   -0.0988 H   0  0  0  0  0  0  0  0  0  0  0  0
   -0.6131   -0.3236    0.3832 C   0  0  1  0  0  0  0  0  0  0  0  0
   -0.7127    0.6138   -0.1663 H   0  0  0  0  0  0  0  0  0  0  0  0
   -0.2457    0.0087    1.8411 C   0  0  0  0  0  0  0  0  0  0  0  0
   -0.2722   -0.9116    2.4284 H   0  0  0  0  0  0  0  0  0  0  0  0
    0.7701    0.4054    1.8748 H   0  0  0  0  0  0  0  0  0  0  0  0
   -1.1901    1.0244    2.4943 C   0  0  0  0  0  0  0  0  0  0  0  0
   -2.2038    0.6250    2.4887 H   0  0  0  0  0  0  0  0  0  0  0  0
   -0.8791    1.1772    3.5284 H   0  0  0  0  0  0  0  0  0  0  0  0
   -1.2151    2.6324    1.6615 S   0  0  0  0  0  0  0  0  0  0  0  0
    0.4492    3.2192    2.0711 C   0  0  0  0  0  0  0  0  0  0  0  0
    1.1916    2.5289    1.6696 H   0  0  0  0  0  0  0  0  0  0  0  0
    0.6025    4.2059    1.6331 H   0  0  0  0  0  0  0  0  0  0  0  0
    0.5595    3.2863    3.1538 H   0  0  0  0  0  0  0  0  0  0  0  0
    0.4652   -1.1707   -0.3073 C   0  0  0  0  0  0  0  0  0  0  0  0
    0.3330   -1.4960   -1.4854 O   0  0  0  0  0  0  0  0  0  0  0  0
    1.5255   -1.5347    0.4254 N   0  0  0  0  0  0  0  0  0  0  0  0
    1.5721   -1.2174    1.3806 H   0  0  0  0  0  0  0  0  0  0  0  0
    2.6265   -2.3519   -0.0819 C   0  0  0  0  0  0  0  0  0  0  0  0
    3.0787   -1.8630   -0.9480 H   0  0  0  0  0  0  0  0  0  0  0  0
    3.3852   -2.4891    0.6898 H   0  0  0  0  0  0  0  0  0  0  0  0
    2.2480   -3.3268   -0.3943 H   0  0  0  0  0  0  0  0  0  0  0  0
  5  6  2  0  0  0  0
  5  7  1  0  0  0  0
  2  3  1  0  0  0  0
  2  4  1  0  0  0  0
  2  5  1  0  0  0  0
  1  2  1  0  0  0  0
 22 23  2  0  0  0  0
 22 24  1  0  0  0  0
 18 19  1  0  0  0  0
 18 20  1  0  0  0  0
 18 21  1  0  0  0  0
 17 18  1  0  0  0  0
 14 15  1  0  0  0  0
 14 16  1  0  0  0  0
 14 17  1  0  0  0  0
 11 12  1  0  0  0  0
 11 13  1  0  0  0  0
 11 14  1  0  0  0  0
  9 10  1  0  0  0  0
  9 11  1  0  0  0  0
  9 22  1  0  0  0  0
  7  8  1  0  0  0  0
  7  9  1  0  0  0  0
 26 27  1  0  0  0  0
 26 28  1  0  0  0  0
 26 29  1  0  0  0  0
 24 25  1  0  0  0  0
 24 26  1  0  0  0  0
M  END
$$$$
default_name
  -OEChem-01062215323D

 29 28  0     1  0  0  0  0  0999 V2000
   -3.5781   -3.7296    1.2702 H   0  0  0  0  0  0  0  0  0  0  0  0
   -3.5311   -2.7616    0.7732 C   0  0  0  0  0  0  0  0  0  0  0  0
   -4.2371   -2.0766    1.2382 H   0  0  0  0  0  0  0  0  0  0  0  0
   -3.7681   -2.8816   -0.2818 H   0  0  0  0  0  0  0  0  0  0  0  0
   -2.1321   -2.2086    0.9112 C   0  0  0  0  0  0  0  0  0  0  0  0
   -1.2751   -2.8426    1.5112 O   0  0  0  0  0  0  0  0  0  0  0  0
   -1.9041   -1.0186    0.3602 N   0  0  0  0  0  0  0  0  0  0  0  0
   -2.6671   -0.5416   -0.0988 H   0  0  0  0  0  0  0  0  0  0  0  0
   -0.6131   -0.3236    0.3832 C   0  0  1  0  0  0  0  0  0  0  0  0
   -0.7127    0.6138   -0.1663 H   0  0  0  0  0  0  0  0  0  0  0  0
   -0.2457    0.0087    1.8411 C   0  0  0  0  0  0  0  0  0  0  0  0
   -0.2722   -0.9116    2.4284 H   0  0  0  0  0  0  0  0  0  0  0  0
    0.7701    0.4054    1.8748 H   0  0  0  0  0  0  0  0  0  0  0  0
   -1.1901    1.0244    2.4943 C   0  0  0  0  0  0  0  0  0  0  0  0
   -2.2038    0.6250    2.4887 H   0  0  0  0  0  0  0  0  0  0  0  0
   -0.8791    1.1772    3.5284 H   0  0  0  0  0  0  0  0  0  0  0  0
   -1.2151    2.6324    1.6615 S   0  0  0  0  0  0  0  0  0  0  0  0
    0.4492    3.2192    2.0711 C   0  0  0  0  0  0  0  0  0  0  0  0
    1.1916    2.5289    1.6696 H   0  0  0  0  0  0  0  0  0  0  0  0
    0.6025    4.2059    1.6331 H   0  0  0  0  0  0  0  0  0  0  0  0
    0.5595    3.2863    3.1538 H   0  0  0  0  0  0  0  0  0  0  0  0
    0.4652   -1.1707   -0.3073 C   0  0  0  0  0  0  0  0  0  0  0  0
    0.4827   -1.2670   -1.5327 O   0  0  0  0  0  0  0  0  0  0  0  0
    1.3571   -1.7904    0.4763 N   0  0  0  0  0  0  0  0  0  0  0  0
    1.2889   -1.6523    1.4720 H   0  0  0  0  0  0  0  0  0  0  0  0
    2.4327   -2.6431   -0.0274 C   0  0  0  0  0  0  0  0  0  0  0  0
    3.0605   -2.0742   -0.7172 H   0  0  0  0  0  0  0  0  0  0  0  0
    3.0456   -3.0091    0.7974 H   0  0  0  0  0  0  0  0  0  0  0  0
    2.0080   -3.4917   -0.5667 H   0  0  0  0  0  0  0  0  0  0  0  0
  5  6  2  0  0  0  0
  5  7  1  0  0  0  0
  2  3  1  0  0  0  0
  2  4  1  0  0  0  0
  2  5  1  0  0  0  0
  1  2  1  0  0  0  0
 22 23  2  0  0  0  0
 22 24  1  0  0  0  0
 18 19  1  0  0  0  0
 18 20  1  0  0  0  0
 18 21  1  0  0  0  0
 17 18  1  0  0  0  0
 14 15  1  0  0  0  0
 14 16  1  0  0  0  0
 14 17  1  0  0  0  0
 11 12  1  0  0  0  0
 11 13  1  0  0  0  0
 11 14  1  0  0  0  0
  9 10  1  0  0  0  0
  9 11  1  0  0  0  0
  9 22  1  0  0  0  0
  7  8  1  0  0  0  0
  7  9  1  0  0  0  0
 26 27  1  0  0  0  0
 26 28  1  0  0  0  0
 26 29  1  0  0  0  0
 24 25  1  0  0  0  0
 24 26  1  0  0  0  0
M  END
$$$$
default_name
  -OEChem-01062215323D

 29 28  0     1  0  0  0  0  0999 V2000
   -3.5781   -3.7296    1.2702 H   0  0  0  0  0  0  0  0  0  0  0  0
   -3.5311   -2.7616    0.7732 C   0  0  0  0  0  0  0  0  0  0  0  0
   -4.2371   -2.0766    1.2382 H   0  0  0  0  0  0  0  0  0  0  0  0
   -3.7681   -2.8816   -0.2818 H   0  0  0  0  0  0  0  0  0  0  0  0
   -2.1321   -2.2086    0.9112 C   0  0  0  0  0  0  0  0  0  0  0  0
   -1.2751   -2.8426    1.5112 O   0  0  0  0  0  0  0  0  0  0  0  0
   -1.9041   -1.0186    0.3602 N   0  0  0  0  0  0  0  0  0  0  0  0
   -2.6671   -0.5416   -0.0988 H   0  0  0  0  0  0  0  0  0  0  0  0
   -0.6131   -0.3236    0.3832 C   0  0  1  0  0  0  0  0  0  0  0  0
   -0.7127    0.6138   -0.1663 H   0  0  0  0  0  0  0  0  0  0  0  0
   -0.2457    0.0087    1.8411 C   0  0  0  0  0  0  0  0  0  0  0  0
   -0.2722   -0.9116    2.4284 H   0  0  0  0  0  0  0  0  0  0  0  0
    0.7701    0.4054    1.8748 H   0  0  0  0  0  0  0  0  0  0  0  0
   -1.1901    1.0244    2.4943 C   0  0  0  0  0  0  0  0  0  0  0  0
   -2.2038    0.6250    2.4887 H   0  0  0  0  0  0  0  0  0  0  0  0
   -0.8791    1.1772    3.5284 H   0  0  0  0  0  0  0  0  0  0  0  0
   -1.2151    2.6324    1.6615 S   0  0  0  0  0  0  0  0  0  0  0  0
    0.4492    3.2192    2.0711 C   0  0  0  0  0  0  0  0  0  0  0  0
    1.1916    2.5289    1.6696 H   0  0  0  0  0  0  0  0  0  0  0  0
    0.6025    4.2059    1.6331 H   0  0  0  0  0  0  0  0  0  0  0  0
    0.5595    3.2863    3.1538 H   0  0  0  0  0  0  0  0  0  0  0  0
    0.4652   -1.1707   -0.3073 C   0  0  0  0  0  0  0  0  0  0  0  0
    0.6606   -1.0546   -1.5154 O   0  0  0  0  0  0  0  0  0  0  0  0
    1.1574   -2.0272    0.4549 N   0  0  0  0  0  0  0  0  0  0  0  0
    0.9517   -2.0560    1.4408 H   0  0  0  0  0  0  0  0  0  0  0  0
    2.2038   -2.9118   -0.0553 C   0  0  0  0  0  0  0  0  0  0  0  0
    2.9854   -2.3181   -0.5352 H   0  0  0  0  0  0  0  0  0  0  0  0
    2.6416   -3.4915    0.7584 H   0  0  0  0  0  0  0  0  0  0  0  0
    1.7817   -3.5917   -0.7974 H   0  0  0  0  0  0  0  0  0  0  0  0
  5  6  2  0  0  0  0
  5  7  1  0  0  0  0
  2  3  1  0  0  0  0
  2  4  1  0  0  0  0
  2  5  1  0  0  0  0
  1  2  1  0  0  0  0
 22 23  2  0  0  0  0
 22 24  1  0  0  0  0
 18 19  1  0  0  0  0
 18 20  1  0  0  0  0
 18 21  1  0  0  0  0
 17 18  1  0  0  0  0
 14 15  1  0  0  0  0
 14 16  1  0  0  0  0
 14 17  1  0  0  0  0
 11 12  1  0  0  0  0
 11 13  1  0  0  0  0
 11 14  1  0  0  0  0
  9 10  1  0  0  0  0
  9 11  1  0  0  0  0
  9 22  1  0  0  0  0
  7  8  1  0  0  0  0
  7  9  1  0  0  0  0
 26 27  1  0  0  0  0
 26 28  1  0  0  0  0
 26 29  1  0  0  0  0
 24 25  1  0  0  0  0
 24 26  1  0  0  0  0
M  END
$$$$
default_name
  -OEChem-01062215323D

 29 28  0     1  0  0  0  0  0999 V2000
   -3.5781   -3.7296    1.2702 H   0  0  0  0  0  0  0  0  0  0  0  0
   -3.5311   -2.7616    0.7732 C   0  0  0  0  0  0  0  0  0  0  0  0
   -4.2371   -2.0766    1.2382 H   0  0  0  0  0  0  0  0  0  0  0  0
   -3.7681   -2.8816   -0.2818 H   0  0  0  0  0  0  0  0  0  0  0  0
   -2.1321   -2.2086    0.9112 C   0  0  0  0  0  0  0  0  0  0  0  0
   -1.2751   -2.8426    1.5112 O   0  0  0  0  0  0  0  0  0  0  0  0
   -1.9041   -1.0186    0.3602 N   0  0  0  0  0  0  0  0  0  0  0  0
   -2.6671   -0.5416   -0.0988 H   0  0  0  0  0  0  0  0  0  0  0  0
   -0.6131   -0.3236    0.3832 C   0  0  1  0  0  0  0  0  0  0  0  0
   -0.7127    0.6138   -0.1663 H   0  0  0  0  0  0  0  0  0  0  0  0
   -0.2457    0.0087    1.8411 C   0  0  0  0  0  0  0  0  0  0  0  0
   -0.2722   -0.9116    2.4284 H   0  0  0  0  0  0  0  0  0  0  0  0
    0.7701    0.4054    1.8748 H   0  0  0  0  0  0  0  0  0  0  0  0
   -1.1901    1.0244    2.4943 C   0  0  0  0  0  0  0  0  0  0  0  0
   -2.2038    0.6250    2.4887 H   0  0  0  0  0  0  0  0  0  0  0  0
   -0.8791    1.1772    3.5284 H   0  0  0  0  0  0  0  0  0  0  0  0
   -1.2151    2.6324    1.6615 S   0  0  0  0  0  0  0  0  0  0  0  0
    0.4492    3.2192    2.0711 C   0  0  0  0  0  0  0  0  0  0  0  0
    1.1916    2.5289    1.6696 H   0  0  0  0  0  0  0  0  0  0  0  0
    0.6025    4.2059    1.6331 H   0  0  0  0  0  0  0  0  0  0  0  0
    0.5595    3.2863    3.1538 H   0  0  0  0  0  0  0  0  0  0  0  0
    0.4652   -1.1707   -0.3073 C   0  0  0  0  0  0  0  0  0  0  0  0
    0.8548   -0.8733   -1.4347 O   0  0  0  0  0  0  0  0  0  0  0  0
    0.9400   -2.2287    0.3626 N   0  0  0  0  0  0  0  0  0  0  0  0
    0.5835   -2.4011    1.2891 H   0  0  0  0  0  0  0  0  0  0  0  0
    1.9554   -3.1395   -0.1638 C   0  0  0  0  0  0  0  0  0  0  0  0
    2.8585   -2.5781   -0.4145 H   0  0  0  0  0  0  0  0  0  0  0  0
    2.2009   -3.9033    0.5753 H   0  0  0  0  0  0  0  0  0  0  0  0
    1.5844   -3.6200   -1.0708 H   0  0  0  0  0  0  0  0  0  0  0  0
  5  6  2  0  0  0  0
  5  7  1  0  0  0  0
  2  3  1  0  0  0  0
  2  4  1  0  0  0  0
  2  5  1  0  0  0  0
  1  2  1  0  0  0  0
 22 23  2  0  0  0  0
 22 24  1  0  0  0  0
 18 19  1  0  0  0  0
 18 20  1  0  0  0  0
 18 21  1  0  0  0  0
 17 18  1  0  0  0  0
 14 15  1  0  0  0  0
 14 16  1  0  0  0  0
 14 17  1  0  0  0  0
 11 12  1  0  0  0  0
 11 13  1  0  0  0  0
 11 14  1  0  0  0  0
  9 10  1  0  0  0  0
  9 11  1  0  0  0  0
  9 22  1  0  0  0  0
  7  8  1  0  0  0  0
  7  9  1  0  0  0  0
 26 27  1  0  0  0  0
 26 28  1  0  0  0  0
 26 29  1  0  0  0  0
 24 25  1  0  0  0  0
 24 26  1  0  0  0  0
M  END
$$$$
default_name
  -OEChem-01062215323D

 29 28  0     1  0  0  0  0  0999 V2000
   -3.5781   -3.7296    1.2702 H   0  0  0  0  0  0  0  0  0  0  0  0
   -3.5311   -2.7616    0.7732 C   0  0  0  0  0  0  0  0  0  0  0  0
   -4.2371   -2.0766    1.2382 H   0  0  0  0  0  0  0  0  0  0  0  0
   -3.7681   -2.8816   -0.2818 H   0  0  0  0  0  0  0  0  0  0  0  0
   -2.1321   -2.2086    0.9112 C   0  0  0  0  0  0  0  0  0  0  0  0
   -1.2751   -2.8426    1.5112 O   0  0  0  0  0  0  0  0  0  0  0  0
   -1.9041   -1.0186    0.3602 N   0  0  0  0  0  0  0  0  0  0  0  0
   -2.6671   -0.5416   -0.0988 H   0  0  0  0  0  0  0  0  0  0  0  0
   -0.6131   -0.3236    0.3832 C   0  0  1  0  0  0  0  0  0  0  0  0
   -0.7127    0.6138   -0.1663 H   0  0  0  0  0  0  0  0  0  0  0  0
   -0.2457    0.0087    1.8411 C   0  0  0  0  0  0  0  0  0  0  0  0
   -0.2722   -0.9116    2.4284 H   0  0  0  0  0  0  0  0  0  0  0  0
    0.7701    0.4054    1.8748 H   0  0  0  0  0  0  0  0  0  0  0  0
   -1.1901    1.0244    2.4943 C   0  0  0  0  0  0  0  0  0  0  0  0
   -2.2038    0.6250    2.4887 H   0  0  0  0  0  0  0  0  0  0  0  0
   -0.8791    1.1772    3.5284 H   0  0  0  0  0  0  0  0  0  0  0  0
   -1.2151    2.6324    1.6615 S   0  0  0  0  0  0  0  0  0  0  0  0
    0.4492    3.2192    2.0711 C   0  0  0  0  0  0  0  0  0  0  0  0
    1.1916    2.5289    1.6696 H   0  0  0  0  0  0  0  0  0  0  0  0
    0.6025    4.2059    1.6331 H   0  0  0  0  0  0  0  0  0  0  0  0
    0.5595    3.2863    3.1538 H   0  0  0  0  0  0  0  0  0  0  0  0
    0.4652   -1.1707   -0.3073 C   0  0  0  0  0  0  0  0  0  0  0  0
    1.0519   -0.7354   -1.2960 O   0  0  0  0  0  0  0  0  0  0  0  0
    0.7197   -2.3812    0.2059 N   0  0  0  0  0  0  0  0  0  0  0  0
    0.2093   -2.6639    1.0273 H   0  0  0  0  0  0  0  0  0  0  0  0
    1.7044   -3.3109   -0.3454 C   0  0  0  0  0  0  0  0  0  0  0  0
    2.6884   -2.8363   -0.3633 H   0  0  0  0  0  0  0  0  0  0  0  0
    1.7534   -4.2164    0.2607 H   0  0  0  0  0  0  0  0  0  0  0  0
    1.4296   -3.5747   -1.3682 H   0  0  0  0  0  0  0  0  0  0  0  0
  5  6  2  0  0  0  0
  5  7  1  0  0  0  0
  2  3  1  0  0  0  0
  2  4  1  0  0  0  0
  2  5  1  0  0  0  0
  1  2  1  0  0  0  0
 22 23  2  0  0  0  0
 22 24  1  0  0  0  0
 18 19  1  0  0  0  0
 18 20  1  0  0  0  0
 18 21  1  0  0  0  0
 17 18  1  0  0  0  0
 14 15  1  0  0  0  0
 14 16  1  0  0  0  0
 14 17  1  0  0  0  0
 11 12  1  0  0  0  0
 11 13  1  0  0  0  0
 11 14  1  0  0  0  0
  9 10  1  0  0  0  0
  9 11  1  0  0  0  0
  9 22  1  0  0  0  0
  7  8  1  0  0  0  0
  7  9  1  0  0  0  0
 26 27  1  0  0  0  0
 26 28  1  0  0  0  0
 26 29  1  0  0  0  0
 24 25  1  0  0  0  0
 24 26  1  0  0  0  0
M  END
$$$$
default_name
  -OEChem-01062215323D

 29 28  0     1  0  0  0  0  0999 V2000
   -3.5781   -3.7296    1.2702 H   0  0  0  0  0  0  0  0  0  0  0  0
   -3.5311   -2.7616    0.7732 C   0  0  0  0  0  0  0  0  0  0  0  0
   -4.2371   -2.0766    1.2382 H   0  0  0  0  0  0  0  0  0  0  0  0
   -3.7681   -2.8816   -0.2818 H   0  0  0  0  0  0  0  0  0  0  0  0
   -2.1321   -2.2086    0.9112 C   0  0  0  0  0  0  0  0  0  0  0  0
   -1.2751   -2.8426    1.5112 O   0  0  0  0  0  0  0  0  0  0  0  0
   -1.9041   -1.0186    0.3602 N   0  0  0  0  0  0  0  0  0  0  0  0
   -2.6671   -0.5416   -0.0988 H   0  0  0  0  0  0  0  0  0  0  0  0
   -0.6131   -0.3236    0.3832 C   0  0  1  0  0  0  0  0  0  0  0  0
   -0.7127    0.6138   -0.1663 H   0  0  0  0  0  0  0  0  0  0  0  0
   -0.2457    0.0087    1.8411 C   0  0  0  0  0  0  0  0  0  0  0  0
   -0.2722   -0.9116    2.4284 H   0  0  0  0  0  0  0  0  0  0  0  0
    0.7701    0.4054    1.8748 H   0  0  0  0  0  0  0  0  0  0  0  0
   -1.1901    1.0244    2.4943 C   0  0  0  0  0  0  0  0  0  0  0  0
   -2.2038    0.6250    2.4887 H   0  0  0  0  0  0  0  0  0  0  0  0
   -0.8791    1.1772    3.5284 H   0  0  0  0  0  0  0  0  0  0  0  0
   -1.2151    2.6324    1.6615 S   0  0  0  0  0  0  0  0  0  0  0  0
    0.4492    3.2192    2.0711 C   0  0  0  0  0  0  0  0  0  0  0  0
    1.1916    2.5289    1.6696 H   0  0  0  0  0  0  0  0  0  0  0  0
    0.6025    4.2059    1.6331 H   0  0  0  0  0  0  0  0  0  0  0  0
    0.5595    3.2863    3.1538 H   0  0  0  0  0  0  0  0  0  0  0  0
    0.4652   -1.1707   -0.3073 C   0  0  0  0  0  0  0  0  0  0  0  0
    1.2385   -0.6504   -1.1089 O   0  0  0  0  0  0  0  0  0  0  0  0
    0.5116   -2.4745   -0.0048 N   0  0  0  0  0  0  0  0  0  0  0  0
   -0.1453   -2.8267    0.6731 H   0  0  0  0  0  0  0  0  0  0  0  0
    1.4680   -3.4142   -0.5879 C   0  0  0  0  0  0  0  0  0  0  0  0
    2.4867   -3.0753   -0.3851 H   0  0  0  0  0  0  0  0  0  0  0  0
    1.3296   -4.4097   -0.1640 H   0  0  0  0  0  0  0  0  0  0  0  0
    1.3278   -3.4588   -1.6694 H   0  0  0  0  0  0  0  0  0  0  0  0
  5  6  2  0  0  0  0
  5  7  1  0  0  0  0
  2  3  1  0  0  0  0
  2  4  1  0  0  0  0
  2  5  1  0  0  0  0
  1  2  1  0  0  0  0
 22 23  2  0  0  0  0
 22 24  1  0  0  0  0
 18 19  1  0  0  0  0
 18 20  1  0  0  0  0
 18 21  1  0  0  0  0
 17 18  1  0  0  0  0
 14 15  1  0  0  0  0
 14 16  1  0  0  0  0
 14 17  1  0  0  0  0
 11 12  1  0  0  0  0
 11 13  1  0  0  0  0
 11 14  1  0  0  0  0
  9 10  1  0  0  0  0
  9 11  1  0  0  0  0
  9 22  1  0  0  0  0
  7  8  1  0  0  0  0
  7  9  1  0  0  0  0
 26 27  1  0  0  0  0
 26 28  1  0  0  0  0
 26 29  1  0  0  0  0
 24 25  1  0  0  0  0
 24 26  1  0  0  0  0
M  END
$$$$
default_name
  -OEChem-01062215323D

 29 28  0     1  0  0  0  0  0999 V2000
   -3.5781   -3.7296    1.2702 H   0  0  0  0  0  0  0  0  0  0  0  0
   -3.5311   -2.7616    0.7732 C   0  0  0  0  0  0  0  0  0  0  0  0
   -4.2371   -2.0766    1.2382 H   0  0  0  0  0  0  0  0  0  0  0  0
   -3.7681   -2.8816   -0.2818 H   0  0  0  0  0  0  0  0  0  0  0  0
   -2.1321   -2.2086    0.9112 C   0  0  0  0  0  0  0  0  0  0  0  0
   -1.2751   -2.8426    1.5112 O   0  0  0  0  0  0  0  0  0  0  0  0
   -1.9041   -1.0186    0.3602 N   0  0  0  0  0  0  0  0  0  0  0  0
   -2.6671   -0.5416   -0.0988 H   0  0  0  0  0  0  0  0  0  0  0  0
   -0.6131   -0.3236    0.3832 C   0  0  1  0  0  0  0  0  0  0  0  0
   -0.7127    0.6138   -0.1663 H   0  0  0  0  0  0  0  0  0  0  0  0
   -0.2457    0.0087    1.8411 C   0  0  0  0  0  0  0  0  0  0  0  0
   -0.2722   -0.9116    2.4284 H   0  0  0  0  0  0  0  0  0  0  0  0
    0.7701    0.4054    1.8748 H   0  0  0  0  0  0  0  0  0  0  0  0
   -1.1901    1.0244    2.4943 C   0  0  0  0  0  0  0  0  0  0  0  0
   -2.2038    0.6250    2.4887 H   0  0  0  0  0  0  0  0  0  0  0  0
   -0.8791    1.1772    3.5284 H   0  0  0  0  0  0  0  0  0  0  0  0
   -1.2151    2.6324    1.6615 S   0  0  0  0  0  0  0  0  0  0  0  0
    0.4492    3.2192    2.0711 C   0  0  0  0  0  0  0  0  0  0  0  0
    1.1916    2.5289    1.6696 H   0  0  0  0  0  0  0  0  0  0  0  0
    0.6025    4.2059    1.6331 H   0  0  0  0  0  0  0  0  0  0  0  0
    0.5595    3.2863    3.1538 H   0  0  0  0  0  0  0  0  0  0  0  0
    0.4652   -1.1707   -0.3073 C   0  0  0  0  0  0  0  0  0  0  0  0
    1.4020   -0.6240   -0.8860 O   0  0  0  0  0  0  0  0  0  0  0  0
    0.3298   -2.5020   -0.2549 N   0  0  0  0  0  0  0  0  0  0  0  0
   -0.4562   -2.8783    0.2508 H   0  0  0  0  0  0  0  0  0  0  0  0
    1.2623   -3.4423   -0.8746 C   0  0  0  0  0  0  0  0  0  0  0  0
    2.2672   -3.2787   -0.4783 H   0  0  0  0  0  0  0  0  0  0  0  0
    0.9584   -4.4697   -0.6699 H   0  0  0  0  0  0  0  0  0  0  0  0
    1.2859   -3.2803   -1.9537 H   0  0  0  0  0  0  0  0  0  0  0  0
  5  6  2  0  0  0  0
  5  7  1  0  0  0  0
  2  3  1  0  0  0  0
  2  4  1  0  0  0  0
  2  5  1  0  0  0  0
  1  2  1  0  0  0  0
 22 23  2  0  0  0  0
 22 24  1  0  0  0  0
 18 19  1  0  0  0  0
 18 20  1  0  0  0  0
 18 21  1  0  0  0  0
 17 18  1  0  0  0  0
 14 15  1  0  0  0  0
 14 16  1  0  0  0  0
 14 17  1  0  0  0  0
 11 12  1  0  0  0  0
 11 13  1  0  0  0  0
 11 14  1  0  0  0  0
  9 10  1  0  0  0  0
  9 11  1  0  0  0  0
  9 22  1  0  0  0  0
  7  8  1  0  0  0  0
  7  9  1  0  0  0  0
 26 27  1  0  0  0  0
 26 28  1  0  0  0  0
 26 29  1  0  0  0  0
 24 25  1  0  0  0  0
 24 26  1  0  0  0  0
M  END
$$$$
default_name
  -OEChem-01062215323D

 29 28  0     1  0  0  0  0  0999 V2000
   -3.5781   -3.7296    1.2702 H   0  0  0  0  0  0  0  0  0  0  0  0
   -3.5311   -2.7616    0.7732 C   0  0  0  0  0  0  0  0  0  0  0  0
   -4.2371   -2.0766    1.2382 H   0  0  0  0  0  0  0  0  0  0  0  0
   -3.7681   -2.8816   -0.2818 H   0  0  0  0  0  0  0  0  0  0  0  0
   -2.1321   -2.2086    0.9112 C   0  0  0  0  0  0  0  0  0  0  0  0
   -1.2751   -2.8426    1.5112 O   0  0  0  0  0  0  0  0  0  0  0  0
   -1.9041   -1.0186    0.3602 N   0  0  0  0  0  0  0  0  0  0  0  0
   -2.6671   -0.5416   -0.0988 H   0  0  0  0  0  0  0  0  0  0  0  0
   -0.6131   -0.3236    0.3832 C   0  0  1  0  0  0  0  0  0  0  0  0
   -0.7127    0.6138   -0.1663 H   0  0  0  0  0  0  0  0  0  0  0  0
   -0.2457    0.0087    1.8411 C   0  0  0  0  0  0  0  0  0  0  0  0
   -0.2722   -0.9116    2.4284 H   0  0  0  0  0  0  0  0  0  0  0  0
    0.7701    0.4054    1.8748 H   0  0  0  0  0  0  0  0  0  0  0  0
   -1.1901    1.0244    2.4943 C   0  0  0  0  0  0  0  0  0  0  0  0
   -2.2038    0.6250    2.4887 H   0  0  0  0  0  0  0  0  0  0  0  0
   -0.8791    1.1772    3.5284 H   0  0  0  0  0  0  0  0  0  0  0  0
   -1.2151    2.6324    1.6615 S   0  0  0  0  0  0  0  0  0  0  0  0
    0.4492    3.2192    2.0711 C   0  0  0  0  0  0  0  0  0  0  0  0
    1.1916    2.5289    1.6696 H   0  0  0  0  0  0  0  0  0  0  0  0
    0.6025    4.2059    1.6331 H   0  0  0  0  0  0  0  0  0  0  0  0
    0.5595    3.2863    3.1538 H   0  0  0  0  0  0  0  0  0  0  0  0
    0.4652   -1.1707   -0.3073 C   0  0  0  0  0  0  0  0  0  0  0  0
    1.5311   -0.6581   -0.6426 O   0  0  0  0  0  0  0  0  0  0  0  0
    0.1867   -2.4620   -0.5274 N   0  0  0  0  0  0  0  0  0  0  0  0
   -0.7022   -2.8151   -0.2108 H   0  0  0  0  0  0  0  0  0  0  0  0
    1.1012   -3.3935   -1.1861 C   0  0  0  0  0  0  0  0  0  0  0  0
    2.0448   -3.4326   -0.6367 H   0  0  0  0  0  0  0  0  0  0  0  0
    0.6651   -4.3926   -1.2225 H   0  0  0  0  0  0  0  0  0  0  0  0
    1.3069   -3.0513   -2.2019 H   0  0  0  0  0  0  0  0  0  0  0  0
  5  6  2  0  0  0  0
  5  7  1  0  0  0  0
  2  3  1  0  0  0  0
  2  4  1  0  0  0  0
  2  5  1  0  0  0  0
  1  2  1  0  0  0  0
 22 23  2  0  0  0  0
 22 24  1  0  0  0  0
 18 19  1  0  0  0  0
 18 20  1  0  0  0  0
 18 21  1  0  0  0  0
 17 18  1  0  0  0  0
 14 15  1  0  0  0  0
 14 16  1  0  0  0  0
 14 17  1  0  0  0  0
 11 12  1  0  0  0  0
 11 13  1  0  0  0  0
 11 14  1  0  0  0  0
  9 10  1  0  0  0  0
  9 11  1  0  0  0  0
  9 22  1  0  0  0  0
  7  8  1  0  0  0  0
  7  9  1  0  0  0  0
 26 27  1  0  0  0  0
 26 28  1  0  0  0  0
 26 29  1  0  0  0  0
 24 25  1  0  0  0  0
 24 26  1  0  0  0  0
M  END
$$$$
default_name
  -OEChem-01062215323D

 29 28  0     1  0  0  0  0  0999 V2000
   -3.5781   -3.7296    1.2702 H   0  0  0  0  0  0  0  0  0  0  0  0
   -3.5311   -2.7616    0.7732 C   0  0  0  0  0  0  0  0  0  0  0  0
   -4.2371   -2.0766    1.2382 H   0  0  0  0  0  0  0  0  0  0  0  0
   -3.7681   -2.8816   -0.2818 H   0  0  0  0  0  0  0  0  0  0  0  0
   -2.1321   -2.2086    0.9112 C   0  0  0  0  0  0  0  0  0  0  0  0
   -1.2751   -2.8426    1.5112 O   0  0  0  0  0  0  0  0  0  0  0  0
   -1.9041   -1.0186    0.3602 N   0  0  0  0  0  0  0  0  0  0  0  0
   -2.6671   -0.5416   -0.0988 H   0  0  0  0  0  0  0  0  0  0  0  0
   -0.6131   -0.3236    0.3832 C   0  0  1  0  0  0  0  0  0  0  0  0
   -0.7127    0.6138   -0.1663 H   0  0  0  0  0  0  0  0  0  0  0  0
   -0.2457    0.0087    1.8411 C   0  0  0  0  0  0  0  0  0  0  0  0
   -0.2722   -0.9116    2.4284 H   0  0  0  0  0  0  0  0  0  0  0  0
    0.7701    0.4054    1.8748 H   0  0  0  0  0  0  0  0  0  0  0  0
   -1.1901    1.0244    2.4943 C   0  0  0  0  0  0  0  0  0  0  0  0
   -2.2038    0.6250    2.4887 H   0  0  0  0  0  0  0  0  0  0  0  0
   -0.8791    1.1772    3.5284 H   0  0  0  0  0  0  0  0  0  0  0  0
   -1.2151    2.6324    1.6615 S   0  0  0  0  0  0  0  0  0  0  0  0
    0.4492    3.2192    2.0711 C   0  0  0  0  0  0  0  0  0  0  0  0
    1.1916    2.5289    1.6696 H   0  0  0  0  0  0  0  0  0  0  0  0
    0.6025    4.2059    1.6331 H   0  0  0  0  0  0  0  0  0  0  0  0
    0.5595    3.2863    3.1538 H   0  0  0  0  0  0  0  0  0  0  0  0
    0.4652   -1.1707   -0.3073 C   0  0  0  0  0  0  0  0  0  0  0  0
    1.6171   -0.7503   -0.3952 O   0  0  0  0  0  0  0  0  0  0  0  0
    0.0921   -2.3572   -0.8039 N   0  0  0  0  0  0  0  0  0  0  0  0
   -0.8666   -2.6415   -0.6804 H   0  0  0  0  0  0  0  0  0  0  0  0
    0.9958   -3.2709   -1.5010 C   0  0  0  0  0  0  0  0  0  0  0  0
    1.8347   -3.5267   -0.8495 H   0  0  0  0  0  0  0  0  0  0  0  0
    0.4697   -4.1835   -1.7842 H   0  0  0  0  0  0  0  0  0  0  0  0
    1.3892   -2.7875   -2.3970 H   0  0  0  0  0  0  0  0  0  0  0  0
  5  6  2  0  0  0  0
  5  7  1  0  0  0  0
  2  3  1  0  0  0  0
  2  4  1  0  0  0  0
  2  5  1  0  0  0  0
  1  2  1  0  0  0  0
 22 23  2  0  0  0  0
 22 24  1  0  0  0  0
 18 19  1  0  0  0  0
 18 20  1  0  0  0  0
 18 21  1  0  0  0  0
 17 18  1  0  0  0  0
 14 15  1  0  0  0  0
 14 16  1  0  0  0  0
 14 17  1  0  0  0  0
 11 12  1  0  0  0  0
 11 13  1  0  0  0  0
 11 14  1  0  0  0  0
  9 10  1  0  0  0  0
  9 11  1  0  0  0  0
  9 22  1  0  0  0  0
  7  8  1  0  0  0  0
  7  9  1  0  0  0  0
 26 27  1  0  0  0  0
 26 28  1  0  0  0  0
 26 29  1  0  0  0  0
 24 25  1  0  0  0  0
 24 26  1  0  0  0  0
M  END
$$$$
default_name
  -OEChem-01062215323D

 29 28  0     1  0  0  0  0  0999 V2000
   -3.5781   -3.7296    1.2702 H   0  0  0  0  0  0  0  0  0  0  0  0
   -3.5311   -2.7616    0.7732 C   0  0  0  0  0  0  0  0  0  0  0  0
   -4.2371   -2.0766    1.2382 H   0  0  0  0  0  0  0  0  0  0  0  0
   -3.7681   -2.8816   -0.2818 H   0  0  0  0  0  0  0  0  0  0  0  0
   -2.1321   -2.2086    0.9112 C   0  0  0  0  0  0  0  0  0  0  0  0
   -1.2751   -2.8426    1.5112 O   0  0  0  0  0  0  0  0  0  0  0  0
   -1.9041   -1.0186    0.3602 N   0  0  0  0  0  0  0  0  0  0  0  0
   -2.6671   -0.5416   -0.0988 H   0  0  0  0  0  0  0  0  0  0  0  0
   -0.6131   -0.3236    0.3832 C   0  0  1  0  0  0  0  0  0  0  0  0
   -0.7127    0.6138   -0.1663 H   0  0  0  0  0  0  0  0  0  0  0  0
   -0.2457    0.0087    1.8411 C   0  0  0  0  0  0  0  0  0  0  0  0
   -0.2722   -0.9116    2.4284 H   0  0  0  0  0  0  0  0  0  0  0  0
    0.7701    0.4054    1.8748 H   0  0  0  0  0  0  0  0  0  0  0  0
   -1.1901    1.0244    2.4943 C   0  0  0  0  0  0  0  0  0  0  0  0
   -2.2038    0.6250    2.4887 H   0  0  0  0  0  0  0  0  0  0  0  0
   -0.8791    1.1772    3.5284 H   0  0  0  0  0  0  0  0  0  0  0  0
   -1.2151    2.6324    1.6615 S   0  0  0  0  0  0  0  0  0  0  0  0
    0.4492    3.2192    2.0711 C   0  0  0  0  0  0  0  0  0  0  0  0
    1.1916    2.5289    1.6696 H   0  0  0  0  0  0  0  0  0  0  0  0
    0.6025    4.2059    1.6331 H   0  0  0  0  0  0  0  0  0  0  0  0
    0.5595    3.2863    3.1538 H   0  0  0  0  0  0  0  0  0  0  0  0
    0.4652   -1.1707   -0.3073 C   0  0  0  0  0  0  0  0  0  0  0  0
    1.6541   -0.8943   -0.1607 O   0  0  0  0  0  0  0  0  0  0  0  0
    0.0523   -2.1946   -1.0654 N   0  0  0  0  0  0  0  0  0  0  0  0
   -0.9381   -2.3694   -1.1259 H   0  0  0  0  0  0  0  0  0  0  0  0
    0.9532   -3.0830   -1.7980 C   0  0  0  0  0  0  0  0  0  0  0  0
    1.6512   -3.5543   -1.1021 H   0  0  0  0  0  0  0  0  0  0  0  0
    0.3855   -3.8568   -2.3166 H   0  0  0  0  0  0  0  0  0  0  0  0
    1.5274   -2.5067   -2.5257 H   0  0  0  0  0  0  0  0  0  0  0  0
  5  6  2  0  0  0  0
  5  7  1  0  0  0  0
  2  3  1  0  0  0  0
  2  4  1  0  0  0  0
  2  5  1  0  0  0  0
  1  2  1  0  0  0  0
 22 23  2  0  0  0  0
 22 24  1  0  0  0  0
 18 19  1  0  0  0  0
 18 20  1  0  0  0  0
 18 21  1  0  0  0  0
 17 18  1  0  0  0  0
 14 15  1  0  0  0  0
 14 16  1  0  0  0  0
 14 17  1  0  0  0  0
 11 12  1  0  0  0  0
 11 13  1  0  0  0  0
 11 14  1  0  0  0  0
  9 10  1  0  0  0  0
  9 11  1  0  0  0  0
  9 22  1  0  0  0  0
  7  8  1  0  0  0  0
  7  9  1  0  0  0  0
 26 27  1  0  0  0  0
 26 28  1  0  0  0  0
 26 29  1  0  0  0  0
 24 25  1  0  0  0  0
 24 26  1  0  0  0  0
M  END
$$$$
default_name
  -OEChem-01062215323D

 29 28  0     1  0  0  0  0  0999 V2000
   -3.5781   -3.7296    1.2702 H   0  0  0  0  0  0  0  0  0  0  0  0
   -3.5311   -2.7616    0.7732 C   0  0  0  0  0  0  0  0  0  0  0  0
   -4.2371   -2.0766    1.2382 H   0  0  0  0  0  0  0  0  0  0  0  0
   -3.7681   -2.8816   -0.2818 H   0  0  0  0  0  0  0  0  0  0  0  0
   -2.1321   -2.2086    0.9112 C   0  0  0  0  0  0  0  0  0  0  0  0
   -1.2751   -2.8426    1.5112 O   0  0  0  0  0  0  0  0  0  0  0  0
   -1.9041   -1.0186    0.3602 N   0  0  0  0  0  0  0  0  0  0  0  0
   -2.6671   -0.5416   -0.0988 H   0  0  0  0  0  0  0  0  0  0  0  0
   -0.6131   -0.3236    0.3832 C   0  0  1  0  0  0  0  0  0  0  0  0
   -0.7127    0.6138   -0.1663 H   0  0  0  0  0  0  0  0  0  0  0  0
   -0.2457    0.0087    1.8411 C   0  0  0  0  0  0  0  0  0  0  0  0
   -0.2722   -0.9116    2.4284 H   0  0  0  0  0  0  0  0  0  0  0  0
    0.7701    0.4054    1.8748 H   0  0  0  0  0  0  0  0  0  0  0  0
   -1.1901    1.0244    2.4943 C   0  0  0  0  0  0  0  0  0  0  0  0
   -2.2038    0.6250    2.4887 H   0  0  0  0  0  0  0  0  0  0  0  0
   -0.8791    1.1772    3.5284 H   0  0  0  0  0  0  0  0  0  0  0  0
   -1.2151    2.6324    1.6615 S   0  0  0  0  0  0  0  0  0  0  0  0
    0.4492    3.2192    2.0711 C   0  0  0  0  0  0  0  0  0  0  0  0
    1.1916    2.5289    1.6696 H   0  0  0  0  0  0  0  0  0  0  0  0
    0.6025    4.2059    1.6331 H   0  0  0  0  0  0  0  0  0  0  0  0
    0.5595    3.2863    3.1538 H   0  0  0  0  0  0  0  0  0  0  0  0
    0.4652   -1.1707   -0.3073 C   0  0  0  0  0  0  0  0  0  0  0  0
    1.6396   -1.0803    0.0449 O   0  0  0  0  0  0  0  0  0  0  0  0
    0.0702   -1.9854   -1.2940 N   0  0  0  0  0  0  0  0  0  0  0  0
   -0.9118   -2.0172   -1.5170 H   0  0  0  0  0  0  0  0  0  0  0  0
    0.9764   -2.8426   -2.0569 C   0  0  0  0  0  0  0  0  0  0  0  0
    1.5068   -3.5138   -1.3773 H   0  0  0  0  0  0  0  0  0  0  0  0
    0.4183   -3.4345   -2.7834 H   0  0  0  0  0  0  0  0  0  0  0  0
    1.7118   -2.2282   -2.5793 H   0  0  0  0  0  0  0  0  0  0  0  0
  5  6  2  0  0  0  0
  5  7  1  0  0  0  0
  2  3  1  0  0  0  0
  2  4  1  0  0  0  0
  2  5  1  0  0  0  0
  1  2  1  0  0  0  0
 22 23  2  0  0  0  0
 22 24  1  0  0  0  0
 18 19  1  0  0  0  0
 18 20  1  0  0  0  0
 18 21  1  0  0  0  0
 17 18  1  0  0  0  0
 14 15  1  0  0  0  0
 14 16  1  0  0  0  0
 14 17  1  0  0  0  0
 11 12  1  0  0  0  0
 11 13  1  0  0  0  0
 11 14  1  0  0  0  0
  9 10  1  0  0  0  0
  9 11  1  0  0  0  0
  9 22  1  0  0  0  0
  7  8  1  0  0  0  0
  7  9  1  0  0  0  0
 26 27  1  0  0  0  0
 26 28  1  0  0  0  0
 26 29  1  0  0  0  0
 24 25  1  0  0  0  0
 24 26  1  0  0  0  0
M  END
$$$$
default_name
  -OEChem-01062215323D

 29 28  0     1  0  0  0  0  0999 V2000
   -3.5781   -3.7296    1.2702 H   0  0  0  0  0  0  0  0  0  0  0  0
   -3.5311   -2.7616    0.7732 C   0  0  0  0  0  0  0  0  0  0  0  0
   -4.2371   -2.0766    1.2382 H   0  0  0  0  0  0  0  0  0  0  0  0
   -3.7681   -2.8816   -0.2818 H   0  0  0  0  0  0  0  0  0  0  0  0
   -2.1321   -2.2086    0.9112 C   0  0  0  0  0  0  0  0  0  0  0  0
   -1.2751   -2.8426    1.5112 O   0  0  0  0  0  0  0  0  0  0  0  0
   -1.9041   -1.0186    0.3602 N   0  0  0  0  0  0  0  0  0  0  0  0
   -2.6671   -0.5416   -0.0988 H   0  0  0  0  0  0  0  0  0  0  0  0
   -0.6131   -0.3236    0.3832 C   0  0  1  0  0  0  0  0  0  0  0  0
   -0.7127    0.6138   -0.1663 H   0  0  0  0  0  0  0  0  0  0  0  0
   -0.2457    0.0087    1.8411 C   0  0  0  0  0  0  0  0  0  0  0  0
   -0.2722   -0.9116    2.4284 H   0  0  0  0  0  0  0  0  0  0  0  0
    0.7701    0.4054    1.8748 H   0  0  0  0  0  0  0  0  0  0  0  0
   -1.1901    1.0244    2.4943 C   0  0  0  0  0  0  0  0  0  0  0  0
   -2.2038    0.6250    2.4887 H   0  0  0  0  0  0  0  0  0  0  0  0
   -0.8791    1.1772    3.5284 H   0  0  0  0  0  0  0  0  0  0  0  0
   -1.2151    2.6324    1.6615 S   0  0  0  0  0  0  0  0  0  0  0  0
    0.4492    3.2192    2.0711 C   0  0  0  0  0  0  0  0  0  0  0  0
    1.1916    2.5289    1.6696 H   0  0  0  0  0  0  0  0  0  0  0  0
    0.6025    4.2059    1.6331 H   0  0  0  0  0  0  0  0  0  0  0  0
    0.5595    3.2863    3.1538 H   0  0  0  0  0  0  0  0  0  0  0  0
    0.4652   -1.1707   -0.3073 C   0  0  0  0  0  0  0  0  0  0  0  0
    1.5745   -1.2957    0.2075 O   0  0  0  0  0  0  0  0  0  0  0  0
    0.1445   -1.7439   -1.4744 N   0  0  0  0  0  0  0  0  0  0  0  0
   -0.7896   -1.6090   -1.8270 H   0  0  0  0  0  0  0  0  0  0  0  0
    1.0637   -2.5660   -2.2598 C   0  0  0  0  0  0  0  0  0  0  0  0
    1.4113   -3.4078   -1.6564 H   0  0  0  0  0  0  0  0  0  0  0  0
    0.5658   -2.9456   -3.1530 H   0  0  0  0  0  0  0  0  0  0  0  0
    1.9301   -1.9709   -2.5541 H   0  0  0  0  0  0  0  0  0  0  0  0
  5  6  2  0  0  0  0
  5  7  1  0  0  0  0
  2  3  1  0  0  0  0
  2  4  1  0  0  0  0
  2  5  1  0  0  0  0
  1  2  1  0  0  0  0
 22 23  2  0  0  0  0
 22 24  1  0  0  0  0
 18 19  1  0  0  0  0
 18 20  1  0  0  0  0
 18 21  1  0  0  0  0
 17 18  1  0  0  0  0
 14 15  1  0  0  0  0
 14 16  1  0  0  0  0
 14 17  1  0  0  0  0
 11 12  1  0  0  0  0
 11 13  1  0  0  0  0
 11 14  1  0  0  0  0
  9 10  1  0  0  0  0
  9 11  1  0  0  0  0
  9 22  1  0  0  0  0
  7  8  1  0  0  0  0
  7  9  1  0  0  0  0
 26 27  1  0  0  0  0
 26 28  1  0  0  0  0
 26 29  1  0  0  0  0
 24 25  1  0  0  0  0
 24 26  1  0  0  0  0
M  END
$$$$
default_name
  -OEChem-01062215323D

 29 28  0     1  0  0  0  0  0999 V2000
   -3.5781   -3.7296    1.2702 H   0  0  0  0  0  0  0  0  0  0  0  0
   -3.5311   -2.7616    0.7732 C   0  0  0  0  0  0  0  0  0  0  0  0
   -4.2371   -2.0766    1.2382 H   0  0  0  0  0  0  0  0  0  0  0  0
   -3.7681   -2.8816   -0.2818 H   0  0  0  0  0  0  0  0  0  0  0  0
   -2.1321   -2.2086    0.9112 C   0  0  0  0  0  0  0  0  0  0  0  0
   -1.2751   -2.8426    1.5112 O   0  0  0  0  0  0  0  0  0  0  0  0
   -1.9041   -1.0186    0.3602 N   0  0  0  0  0  0  0  0  0  0  0  0
   -2.6671   -0.5416   -0.0988 H   0  0  0  0  0  0  0  0  0  0  0  0
   -0.6131   -0.3236    0.3832 C   0  0  1  0  0  0  0  0  0  0  0  0
   -0.7127    0.6138   -0.1663 H   0  0  0  0  0  0  0  0  0  0  0  0
   -0.2457    0.0087    1.8411 C   0  0  0  0  0  0  0  0  0  0  0  0
   -0.2722   -0.9116    2.4284 H   0  0  0  0  0  0  0  0  0  0  0  0
    0.7701    0.4054    1.8748 H   0  0  0  0  0  0  0  0  0  0  0  0
   -1.1901    1.0244    2.4943 C   0  0  0  0  0  0  0  0  0  0  0  0
   -2.2038    0.6250    2.4887 H   0  0  0  0  0  0  0  0  0  0  0  0
   -0.8791    1.1772    3.5284 H   0  0  0  0  0  0  0  0  0  0  0  0
   -1.2151    2.6324    1.6615 S   0  0  0  0  0  0  0  0  0  0  0  0
    0.4492    3.2192    2.0711 C   0  0  0  0  0  0  0  0  0  0  0  0
    1.1916    2.5289    1.6696 H   0  0  0  0  0  0  0  0  0  0  0  0
    0.6025    4.2059    1.6331 H   0  0  0  0  0  0  0  0  0  0  0  0
    0.5595    3.2863    3.1538 H   0  0  0  0  0  0  0  0  0  0  0  0
    0.4652   -1.1707   -0.3073 C   0  0  0  0  0  0  0  0  0  0  0  0
    1.4634   -1.5258    0.3163 O   0  0  0  0  0  0  0  0  0  0  0  0
    0.2701   -1.4865   -1.5940 N   0  0  0  0  0  0  0  0  0  0  0  0
   -0.5798   -1.1726   -2.0348 H   0  0  0  0  0  0  0  0  0  0  0  0
    1.2093   -2.2720   -2.3932 C   0  0  0  0  0  0  0  0  0  0  0  0
    1.3713   -3.2436   -1.9204 H   0  0  0  0  0  0  0  0  0  0  0  0
    0.8179   -2.4234   -3.4000 H   0  0  0  0  0  0  0  0  0  0  0  0
    2.1673   -1.7524   -2.4518 H   0  0  0  0  0  0  0  0  0  0  0  0
  5  6  2  0  0  0  0
  5  7  1  0  0  0  0
  2  3  1  0  0  0  0
  2  4  1  0  0  0  0
  2  5  1  0  0  0  0
  1  2  1  0  0  0  0
 22 23  2  0  0  0  0
 22 24  1  0  0  0  0
 18 19  1  0  0  0  0
 18 20  1  0  0  0  0
 18 21  1  0  0  0  0
 17 18  1  0  0  0  0
 14 15  1  0  0  0  0
 14 16  1  0  0  0  0
 14 17  1  0  0  0  0
 11 12  1  0  0  0  0
 11 13  1  0  0  0  0
 11 14  1  0  0  0  0
  9 10  1  0  0  0  0
  9 11  1  0  0  0  0
  9 22  1  0  0  0  0
  7  8  1  0  0  0  0
  7  9  1  0  0  0  0
 26 27  1  0  0  0  0
 26 28  1  0  0  0  0
 26 29  1  0  0  0  0
 24 25  1  0  0  0  0
 24 26  1  0  0  0  0
M  END
$$$$
default_name
  -OEChem-01062215323D

 29 28  0     1  0  0  0  0  0999 V2000
   -3.5781   -3.7296    1.2702 H   0  0  0  0  0  0  0  0  0  0  0  0
   -3.5311   -2.7616    0.7732 C   0  0  0  0  0  0  0  0  0  0  0  0
   -4.2371   -2.0766    1.2382 H   0  0  0  0  0  0  0  0  0  0  0  0
   -3.7681   -2.8816   -0.2818 H   0  0  0  0  0  0  0  0  0  0  0  0
   -2.1321   -2.2086    0.9112 C   0  0  0  0  0  0  0  0  0  0  0  0
   -1.2751   -2.8426    1.5112 O   0  0  0  0  0  0  0  0  0  0  0  0
   -1.9041   -1.0186    0.3602 N   0  0  0  0  0  0  0  0  0  0  0  0
   -2.6671   -0.5416   -0.0988 H   0  0  0  0  0  0  0  0  0  0  0  0
   -0.6131   -0.3236    0.3832 C   0  0  1  0  0  0  0  0  0  0  0  0
   -0.7127    0.6138   -0.1663 H   0  0  0  0  0  0  0  0  0  0  0  0
   -0.2457    0.0087    1.8411 C   0  0  0  0  0  0  0  0  0  0  0  0
   -0.2722   -0.9116    2.4284 H   0  0  0  0  0  0  0  0  0  0  0  0
    0.7701    0.4054    1.8748 H   0  0  0  0  0  0  0  0  0  0  0  0
   -1.1901    1.0244    2.4943 C   0  0  0  0  0  0  0  0  0  0  0  0
   -2.2038    0.6250    2.4887 H   0  0  0  0  0  0  0  0  0  0  0  0
   -0.8791    1.1772    3.5284 H   0  0  0  0  0  0  0  0  0  0  0  0
   -1.2151    2.6324    1.6615 S   0  0  0  0  0  0  0  0  0  0  0  0
    0.4492    3.2192    2.0711 C   0  0  0  0  0  0  0  0  0  0  0  0
    1.1916    2.5289    1.6696 H   0  0  0  0  0  0  0  0  0  0  0  0
    0.6025    4.2059    1.6331 H   0  0  0  0  0  0  0  0  0  0  0  0
    0.5595    3.2863    3.1538 H   0  0  0  0  0  0  0  0  0  0  0  0
    0.4652   -1.1707   -0.3073 C   0  0  0  0  0  0  0  0  0  0  0  0
    1.3138   -1.7548    0.3636 O   0  0  0  0  0  0  0  0  0  0  0  0
    0.4385   -1.2307   -1.6449 N   0  0  0  0  0  0  0  0  0  0  0  0
   -0.2967   -0.7377   -2.1261 H   0  0  0  0  0  0  0  0  0  0  0  0
    1.4031   -1.9809   -2.4477 C   0  0  0  0  0  0  0  0  0  0  0  0
    1.3895   -3.0323   -2.1512 H   0  0  0  0  0  0  0  0  0  0  0  0
    1.1575   -1.9034   -3.5077 H   0  0  0  0  0  0  0  0  0  0  0  0
    2.4072   -1.5875   -2.2794 H   0  0  0  0  0  0  0  0  0  0  0  0
  5  6  2  0  0  0  0
  5  7  1  0  0  0  0
  2  3  1  0  0  0  0
  2  4  1  0  0  0  0
  2  5  1  0  0  0  0
  1  2  1  0  0  0  0
 22 23  2  0  0  0  0
 22 24  1  0  0  0  0
 18 19  1  0  0  0  0
 18 20  1  0  0  0  0
 18 21  1  0  0  0  0
 17 18  1  0  0  0  0
 14 15  1  0  0  0  0
 14 16  1  0  0  0  0
 14 17  1  0  0  0  0
 11 12  1  0  0  0  0
 11 13  1  0  0  0  0
 11 14  1  0  0  0  0
  9 10  1  0  0  0  0
  9 11  1  0  0  0  0
  9 22  1  0  0  0  0
  7  8  1  0  0  0  0
  7  9  1  0  0  0  0
 26 27  1  0  0  0  0
 26 28  1  0  0  0  0
 26 29  1  0  0  0  0
 24 25  1  0  0  0  0
 24 26  1  0  0  0  0
M  END
$$$$
default_name
  -OEChem-01062215323D

 29 28  0     1  0  0  0  0  0999 V2000
   -3.5781   -3.7296    1.2702 H   0  0  0  0  0  0  0  0  0  0  0  0
   -3.5311   -2.7616    0.7732 C   0  0  0  0  0  0  0  0  0  0  0  0
   -4.2371   -2.0766    1.2382 H   0  0  0  0  0  0  0  0  0  0  0  0
   -3.7681   -2.8816   -0.2818 H   0  0  0  0  0  0  0  0  0  0  0  0
   -2.1321   -2.2086    0.9112 C   0  0  0  0  0  0  0  0  0  0  0  0
   -1.2751   -2.8426    1.5112 O   0  0  0  0  0  0  0  0  0  0  0  0
   -1.9041   -1.0186    0.3602 N   0  0  0  0  0  0  0  0  0  0  0  0
   -2.6671   -0.5416   -0.0988 H   0  0  0  0  0  0  0  0  0  0  0  0
   -0.6131   -0.3236    0.3832 C   0  0  1  0  0  0  0  0  0  0  0  0
   -0.7127    0.6138   -0.1663 H   0  0  0  0  0  0  0  0  0  0  0  0
   -0.2457    0.0087    1.8411 C   0  0  0  0  0  0  0  0  0  0  0  0
   -0.2722   -0.9116    2.4284 H   0  0  0  0  0  0  0  0  0  0  0  0
    0.7701    0.4054    1.8748 H   0  0  0  0  0  0  0  0  0  0  0  0
   -1.1901    1.0244    2.4943 C   0  0  0  0  0  0  0  0  0  0  0  0
   -2.2038    0.6250    2.4887 H   0  0  0  0  0  0  0  0  0  0  0  0
   -0.8791    1.1772    3.5284 H   0  0  0  0  0  0  0  0  0  0  0  0
   -1.2151    2.6324    1.6615 S   0  0  0  0  0  0  0  0  0  0  0  0
    0.4492    3.2192    2.0711 C   0  0  0  0  0  0  0  0  0  0  0  0
    1.1916    2.5289    1.6696 H   0  0  0  0  0  0  0  0  0  0  0  0
    0.6025    4.2059    1.6331 H   0  0  0  0  0  0  0  0  0  0  0  0
    0.5595    3.2863    3.1538 H   0  0  0  0  0  0  0  0  0  0  0  0
    0.4652   -1.1707   -0.3073 C   0  0  0  0  0  0  0  0  0  0  0  0
    1.1358   -1.9672    0.3463 O   0  0  0  0  0  0  0  0  0  0  0  0
    0.6382   -0.9940   -1.6235 N   0  0  0  0  0  0  0  0  0  0  0  0
    0.0405   -0.3340   -2.0949 H   0  0  0  0  0  0  0  0  0  0  0  0
    1.6320   -1.7122   -2.4198 C   0  0  0  0  0  0  0  0  0  0  0  0
    1.4646   -2.7884   -2.3332 H   0  0  0  0  0  0  0  0  0  0  0  0
    1.5614   -1.4210   -3.4686 H   0  0  0  0  0  0  0  0  0  0  0  0
    2.6335   -1.4875   -2.0487 H   0  0  0  0  0  0  0  0  0  0  0  0
  5  6  2  0  0  0  0
  5  7  1  0  0  0  0
  2  3  1  0  0  0  0
  2  4  1  0  0  0  0
  2  5  1  0  0  0  0
  1  2  1  0  0  0  0
 22 23  2  0  0  0  0
 22 24  1  0  0  0  0
 18 19  1  0  0  0  0
 18 20  1  0  0  0  0
 18 21  1  0  0  0  0
 17 18  1  0  0  0  0
 14 15  1  0  0  0  0
 14 16  1  0  0  0  0
 14 17  1  0  0  0  0
 11 12  1  0  0  0  0
 11 13  1  0  0  0  0
 11 14  1  0  0  0  0
  9 10  1  0  0  0  0
  9 11  1  0  0  0  0
  9 22  1  0  0  0  0
  7  8  1  0  0  0  0
  7  9  1  0  0  0  0
 26 27  1  0  0  0  0
 26 28  1  0  0  0  0
 26 29  1  0  0  0  0
 24 25  1  0  0  0  0
 24 26  1  0  0  0  0
M  END
$$$$
default_name
  -OEChem-01062215323D

 29 28  0     1  0  0  0  0  0999 V2000
   -3.5781   -3.7296    1.2702 H   0  0  0  0  0  0  0  0  0  0  0  0
   -3.5311   -2.7616    0.7732 C   0  0  0  0  0  0  0  0  0  0  0  0
   -4.2371   -2.0766    1.2382 H   0  0  0  0  0  0  0  0  0  0  0  0
   -3.7681   -2.8816   -0.2818 H   0  0  0  0  0  0  0  0  0  0  0  0
   -2.1321   -2.2086    0.9112 C   0  0  0  0  0  0  0  0  0  0  0  0
   -1.2751   -2.8426    1.5112 O   0  0  0  0  0  0  0  0  0  0  0  0
   -1.9041   -1.0186    0.3602 N   0  0  0  0  0  0  0  0  0  0  0  0
   -2.6671   -0.5416   -0.0988 H   0  0  0  0  0  0  0  0  0  0  0  0
   -0.6131   -0.3236    0.3832 C   0  0  1  0  0  0  0  0  0  0  0  0
   -0.7127    0.6138   -0.1663 H   0  0  0  0  0  0  0  0  0  0  0  0
   -0.2457    0.0087    1.8411 C   0  0  0  0  0  0  0  0  0  0  0  0
   -0.2722   -0.9116    2.4284 H   0  0  0  0  0  0  0  0  0  0  0  0
    0.7701    0.4054    1.8748 H   0  0  0  0  0  0  0  0  0  0  0  0
   -1.1901    1.0244    2.4943 C   0  0  0  0  0  0  0  0  0  0  0  0
   -2.2038    0.6250    2.4887 H   0  0  0  0  0  0  0  0  0  0  0  0
   -0.8791    1.1772    3.5284 H   0  0  0  0  0  0  0  0  0  0  0  0
   -1.2151    2.6324    1.6615 S   0  0  0  0  0  0  0  0  0  0  0  0
    0.4492    3.2192    2.0711 C   0  0  0  0  0  0  0  0  0  0  0  0
    1.1916    2.5289    1.6696 H   0  0  0  0  0  0  0  0  0  0  0  0
    0.6025    4.2059    1.6331 H   0  0  0  0  0  0  0  0  0  0  0  0
    0.5595    3.2863    3.1538 H   0  0  0  0  0  0  0  0  0  0  0  0
    0.4652   -1.1707   -0.3073 C   0  0  0  0  0  0  0  0  0  0  0  0
    0.9417   -2.1485    0.2655 O   0  0  0  0  0  0  0  0  0  0  0  0
    0.8556   -0.7925   -1.5312 N   0  0  0  0  0  0  0  0  0  0  0  0
    0.4087    0.0111   -1.9432 H   0  0  0  0  0  0  0  0  0  0  0  0
    1.8804   -1.4845   -2.3113 C   0  0  0  0  0  0  0  0  0  0  0  0
    1.5915   -2.5285   -2.4539 H   0  0  0  0  0  0  0  0  0  0  0  0
    2.0021   -1.0092   -3.2856 H   0  0  0  0  0  0  0  0  0  0  0  0
    2.8308   -1.4592   -1.7753 H   0  0  0  0  0  0  0  0  0  0  0  0
  5  6  2  0  0  0  0
  5  7  1  0  0  0  0
  2  3  1  0  0  0  0
  2  4  1  0  0  0  0
  2  5  1  0  0  0  0
  1  2  1  0  0  0  0
 22 23  2  0  0  0  0
 22 24  1  0  0  0  0
 18 19  1  0  0  0  0
 18 20  1  0  0  0  0
 18 21  1  0  0  0  0
 17 18  1  0  0  0  0
 14 15  1  0  0  0  0
 14 16  1  0  0  0  0
 14 17  1  0  0  0  0
 11 12  1  0  0  0  0
 11 13  1  0  0  0  0
 11 14  1  0  0  0  0
  9 10  1  0  0  0  0
  9 11  1  0  0  0  0
  9 22  1  0  0  0  0
  7  8  1  0  0  0  0
  7  9  1  0  0  0  0
 26 27  1  0  0  0  0
 26 28  1  0  0  0  0
 26 29  1  0  0  0  0
 24 25  1  0  0  0  0
 24 26  1  0  0  0  0
M  END
$$$$
default_name
  -OEChem-01062215323D

 29 28  0     1  0  0  0  0  0999 V2000
   -3.5781   -3.7296    1.2702 H   0  0  0  0  0  0  0  0  0  0  0  0
   -3.5311   -2.7616    0.7732 C   0  0  0  0  0  0  0  0  0  0  0  0
   -4.2371   -2.0766    1.2382 H   0  0  0  0  0  0  0  0  0  0  0  0
   -3.7681   -2.8816   -0.2818 H   0  0  0  0  0  0  0  0  0  0  0  0
   -2.1321   -2.2086    0.9112 C   0  0  0  0  0  0  0  0  0  0  0  0
   -1.2751   -2.8426    1.5112 O   0  0  0  0  0  0  0  0  0  0  0  0
   -1.9041   -1.0186    0.3602 N   0  0  0  0  0  0  0  0  0  0  0  0
   -2.6671   -0.5416   -0.0988 H   0  0  0  0  0  0  0  0  0  0  0  0
   -0.6131   -0.3236    0.3832 C   0  0  1  0  0  0  0  0  0  0  0  0
   -0.7127    0.6138   -0.1663 H   0  0  0  0  0  0  0  0  0  0  0  0
   -0.2457    0.0087    1.8411 C   0  0  0  0  0  0  0  0  0  0  0  0
   -0.2722   -0.9116    2.4284 H   0  0  0  0  0  0  0  0  0  0  0  0
    0.7701    0.4054    1.8748 H   0  0  0  0  0  0  0  0  0  0  0  0
   -1.1901    1.0244    2.4943 C   0  0  0  0  0  0  0  0  0  0  0  0
   -2.2038    0.6250    2.4887 H   0  0  0  0  0  0  0  0  0  0  0  0
   -0.8791    1.1772    3.5284 H   0  0  0  0  0  0  0  0  0  0  0  0
   -1.2151    2.6324    1.6615 S   0  0  0  0  0  0  0  0  0  0  0  0
    0.4492    3.2192    2.0711 C   0  0  0  0  0  0  0  0  0  0  0  0
    1.1916    2.5289    1.6696 H   0  0  0  0  0  0  0  0  0  0  0  0
    0.6025    4.2059    1.6331 H   0  0  0  0  0  0  0  0  0  0  0  0
    0.5595    3.2863    3.1538 H   0  0  0  0  0  0  0  0  0  0  0  0
    0.4652   -1.1707   -0.3073 C   0  0  0  0  0  0  0  0  0  0  0  0
    0.7446   -2.2864    0.1269 O   0  0  0  0  0  0  0  0  0  0  0  0
    1.0758   -0.6399   -1.3745 N   0  0  0  0  0  0  0  0  0  0  0  0
    0.7829    0.2739   -1.6814 H   0  0  0  0  0  0  0  0  0  0  0  0
    2.1314   -1.3131   -2.1297 C   0  0  0  0  0  0  0  0  0  0  0  0
    1.7616   -2.2702   -2.5051 H   0  0  0  0  0  0  0  0  0  0  0  0
    2.4496   -0.6961   -2.9709 H   0  0  0  0  0  0  0  0  0  0  0  0
    2.9857   -1.5046   -1.4779 H   0  0  0  0  0  0  0  0  0  0  0  0
  5  6  2  0  0  0  0
  5  7  1  0  0  0  0
  2  3  1  0  0  0  0
  2  4  1  0  0  0  0
  2  5  1  0  0  0  0
  1  2  1  0  0  0  0
 22 23  2  0  0  0  0
 22 24  1  0  0  0  0
 18 19  1  0  0  0  0
 18 20  1  0  0  0  0
 18 21  1  0  0  0  0
 17 18  1  0  0  0  0
 14 15  1  0  0  0  0
 14 16  1  0  0  0  0
 14 17  1  0  0  0  0
 11 12  1  0  0  0  0
 11 13  1  0  0  0  0
 11 14  1  0  0  0  0
  9 10  1  0  0  0  0
  9 11  1  0  0  0  0
  9 22  1  0  0  0  0
  7  8  1  0  0  0  0
  7  9  1  0  0  0  0
 26 27  1  0  0  0  0
 26 28  1  0  0  0  0
 26 29  1  0  0  0  0
 24 25  1  0  0  0  0
 24 26  1  0  0  0  0
M  END
$$$$
default_name
  -OEChem-01062215323D

 29 28  0     1  0  0  0  0  0999 V2000
   -3.5781   -3.7296    1.2702 H   0  0  0  0  0  0  0  0  0  0  0  0
   -3.5311   -2.7616    0.7732 C   0  0  0  0  0  0  0  0  0  0  0  0
   -4.2371   -2.0766    1.2382 H   0  0  0  0  0  0  0  0  0  0  0  0
   -3.7681   -2.8816   -0.2818 H   0  0  0  0  0  0  0  0  0  0  0  0
   -2.1321   -2.2086    0.9112 C   0  0  0  0  0  0  0  0  0  0  0  0
   -1.2751   -2.8426    1.5112 O   0  0  0  0  0  0  0  0  0  0  0  0
   -1.9041   -1.0186    0.3602 N   0  0  0  0  0  0  0  0  0  0  0  0
   -2.6671   -0.5416   -0.0988 H   0  0  0  0  0  0  0  0  0  0  0  0
   -0.6131   -0.3236    0.3832 C   0  0  1  0  0  0  0  0  0  0  0  0
   -0.7127    0.6138   -0.1663 H   0  0  0  0  0  0  0  0  0  0  0  0
   -0.2457    0.0087    1.8411 C   0  0  0  0  0  0  0  0  0  0  0  0
   -0.2722   -0.9116    2.4284 H   0  0  0  0  0  0  0  0  0  0  0  0
    0.7701    0.4054    1.8748 H   0  0  0  0  0  0  0  0  0  0  0  0
   -1.1901    1.0244    2.4943 C   0  0  0  0  0  0  0  0  0  0  0  0
   -2.2038    0.6250    2.4887 H   0  0  0  0  0  0  0  0  0  0  0  0
   -0.8791    1.1772    3.5284 H   0  0  0  0  0  0  0  0  0  0  0  0
   -1.2151    2.6324    1.6615 S   0  0  0  0  0  0  0  0  0  0  0  0
    0.4492    3.2192    2.0711 C   0  0  0  0  0  0  0  0  0  0  0  0
    1.1916    2.5289    1.6696 H   0  0  0  0  0  0  0  0  0  0  0  0
    0.6025    4.2059    1.6331 H   0  0  0  0  0  0  0  0  0  0  0  0
    0.5595    3.2863    3.1538 H   0  0  0  0  0  0  0  0  0  0  0  0
    0.4652   -1.1707   -0.3073 C   0  0  0  0  0  0  0  0  0  0  0  0
    0.5579   -2.3714   -0.0603 O   0  0  0  0  0  0  0  0  0  0  0  0
    1.2840   -0.5466   -1.1638 N   0  0  0  0  0  0  0  0  0  0  0  0
    1.1375    0.4367   -1.3273 H   0  0  0  0  0  0  0  0  0  0  0  0
    2.3678   -1.2098   -1.8872 C   0  0  0  0  0  0  0  0  0  0  0  0
    1.9633   -2.0312   -2.4833 H   0  0  0  0  0  0  0  0  0  0  0  0
    2.8734   -0.5028   -2.5462 H   0  0  0  0  0  0  0  0  0  0  0  0
    3.0875   -1.6204   -1.1768 H   0  0  0  0  0  0  0  0  0  0  0  0
  5  6  2  0  0  0  0
  5  7  1  0  0  0  0
  2  3  1  0  0  0  0
  2  4  1  0  0  0  0
  2  5  1  0  0  0  0
  1  2  1  0  0  0  0
 22 23  2  0  0  0  0
 22 24  1  0  0  0  0
 18 19  1  0  0  0  0
 18 20  1  0  0  0  0
 18 21  1  0  0  0  0
 17 18  1  0  0  0  0
 14 15  1  0  0  0  0
 14 16  1  0  0  0  0
 14 17  1  0  0  0  0
 11 12  1  0  0  0  0
 11 13  1  0  0  0  0
 11 14  1  0  0  0  0
  9 10  1  0  0  0  0
  9 11  1  0  0  0  0
  9 22  1  0  0  0  0
  7  8  1  0  0  0  0
  7  9  1  0  0  0  0
 26 27  1  0  0  0  0
 26 28  1  0  0  0  0
 26 29  1  0  0  0  0
 24 25  1  0  0  0  0
 24 26  1  0  0  0  0
M  END
$$$$
default_name
  -OEChem-01062215323D

 29 28  0     1  0  0  0  0  0999 V2000
   -3.5781   -3.7296    1.2702 H   0  0  0  0  0  0  0  0  0  0  0  0
   -3.5311   -2.7616    0.7732 C   0  0  0  0  0  0  0  0  0  0  0  0
   -4.2371   -2.0766    1.2382 H   0  0  0  0  0  0  0  0  0  0  0  0
   -3.7681   -2.8816   -0.2818 H   0  0  0  0  0  0  0  0  0  0  0  0
   -2.1321   -2.2086    0.9112 C   0  0  0  0  0  0  0  0  0  0  0  0
   -1.2751   -2.8426    1.5112 O   0  0  0  0  0  0  0  0  0  0  0  0
   -1.9041   -1.0186    0.3602 N   0  0  0  0  0  0  0  0  0  0  0  0
   -2.6671   -0.5416   -0.0988 H   0  0  0  0  0  0  0  0  0  0  0  0
   -0.6131   -0.3236    0.3832 C   0  0  1  0  0  0  0  0  0  0  0  0
   -0.7127    0.6138   -0.1663 H   0  0  0  0  0  0  0  0  0  0  0  0
   -0.2457    0.0087    1.8411 C   0  0  0  0  0  0  0  0  0  0  0  0
   -0.2722   -0.9116    2.4284 H   0  0  0  0  0  0  0  0  0  0  0  0
    0.7701    0.4054    1.8748 H   0  0  0  0  0  0  0  0  0  0  0  0
   -1.1901    1.0244    2.4943 C   0  0  0  0  0  0  0  0  0  0  0  0
   -2.2038    0.6250    2.4887 H   0  0  0  0  0  0  0  0  0  0  0  0
   -0.8791    1.1772    3.5284 H   0  0  0  0  0  0  0  0  0  0  0  0
   -1.2151    2.6324    1.6615 S   0  0  0  0  0  0  0  0  0  0  0  0
    0.4492    3.2192    2.0711 C   0  0  0  0  0  0  0  0  0  0  0  0
    1.1916    2.5289    1.6696 H   0  0  0  0  0  0  0  0  0  0  0  0
    0.6025    4.2059    1.6331 H   0  0  0  0  0  0  0  0  0  0  0  0
    0.5595    3.2863    3.1538 H   0  0  0  0  0  0  0  0  0  0  0  0
    0.4652   -1.1707   -0.3073 C   0  0  0  0  0  0  0  0  0  0  0  0
    0.3945   -2.3978   -0.2832 O   0  0  0  0  0  0  0  0  0  0  0  0
    1.4658   -0.5191   -0.9137 N   0  0  0  0  0  0  0  0  0  0  0  0
    1.4485    0.4882   -0.9050 H   0  0  0  0  0  0  0  0  0  0  0  0
    2.5735   -1.1817   -1.6005 C   0  0  0  0  0  0  0  0  0  0  0  0
    2.1828   -1.8279   -2.3901 H   0  0  0  0  0  0  0  0  0  0  0  0
    3.2446   -0.4428   -2.0403 H   0  0  0  0  0  0  0  0  0  0  0  0
    3.1293   -1.7989   -0.8924 H   0  0  0  0  0  0  0  0  0  0  0  0
  5  6  2  0  0  0  0
  5  7  1  0  0  0  0
  2  3  1  0  0  0  0
  2  4  1  0  0  0  0
  2  5  1  0  0  0  0
  1  2  1  0  0  0  0
 22 23  2  0  0  0  0
 22 24  1  0  0  0  0
 18 19  1  0  0  0  0
 18 20  1  0  0  0  0
 18 21  1  0  0  0  0
 17 18  1  0  0  0  0
 14 15  1  0  0  0  0
 14 16  1  0  0  0  0
 14 17  1  0  0  0  0
 11 12  1  0  0  0  0
 11 13  1  0  0  0  0
 11 14  1  0  0  0  0
  9 10  1  0  0  0  0
  9 11  1  0  0  0  0
  9 22  1  0  0  0  0
  7  8  1  0  0  0  0
  7  9  1  0  0  0  0
 26 27  1  0  0  0  0
 26 28  1  0  0  0  0
 26 29  1  0  0  0  0
 24 25  1  0  0  0  0
 24 26  1  0  0  0  0
M  END
$$$$
default_name
  -OEChem-01062215323D

 29 28  0     1  0  0  0  0  0999 V2000
   -3.5781   -3.7296    1.2702 H   0  0  0  0  0  0  0  0  0  0  0  0
   -3.5311   -2.7616    0.7732 C   0  0  0  0  0  0  0  0  0  0  0  0
   -4.2371   -2.0766    1.2382 H   0  0  0  0  0  0  0  0  0  0  0  0
   -3.7681   -2.8816   -0.2818 H   0  0  0  0  0  0  0  0  0  0  0  0
   -2.1321   -2.2086    0.9112 C   0  0  0  0  0  0  0  0  0  0  0  0
   -1.2751   -2.8426    1.5112 O   0  0  0  0  0  0  0  0  0  0  0  0
   -1.9041   -1.0186    0.3602 N   0  0  0  0  0  0  0  0  0  0  0  0
   -2.6671   -0.5416   -0.0988 H   0  0  0  0  0  0  0  0  0  0  0  0
   -0.6131   -0.3236    0.3832 C   0  0  1  0  0  0  0  0  0  0  0  0
   -0.7127    0.6138   -0.1663 H   0  0  0  0  0  0  0  0  0  0  0  0
   -0.2457    0.0087    1.8411 C   0  0  0  0  0  0  0  0  0  0  0  0
   -0.2722   -0.9116    2.4284 H   0  0  0  0  0  0  0  0  0  0  0  0
    0.7701    0.4054    1.8748 H   0  0  0  0  0  0  0  0  0  0  0  0
   -1.1901    1.0244    2.4943 C   0  0  0  0  0  0  0  0  0  0  0  0
   -2.2038    0.6250    2.4887 H   0  0  0  0  0  0  0  0  0  0  0  0
   -0.8791    1.1772    3.5284 H   0  0  0  0  0  0  0  0  0  0  0  0
   -1.2151    2.6324    1.6615 S   0  0  0  0  0  0  0  0  0  0  0  0
    0.4492    3.2192    2.0711 C   0  0  0  0  0  0  0  0  0  0  0  0
    1.1916    2.5289    1.6696 H   0  0  0  0  0  0  0  0  0  0  0  0
    0.6025    4.2059    1.6331 H   0  0  0  0  0  0  0  0  0  0  0  0
    0.5595    3.2863    3.1538 H   0  0  0  0  0  0  0  0  0  0  0  0
    0.4652   -1.1707   -0.3073 C   0  0  0  0  0  0  0  0  0  0  0  0
    0.2654   -2.3637   -0.5266 O   0  0  0  0  0  0  0  0  0  0  0  0
    1.6089   -0.5591   -0.6412 N   0  0  0  0  0  0  0  0  0  0  0  0
    1.6945    0.4251   -0.4433 H   0  0  0  0  0  0  0  0  0  0  0  0
    2.7346   -1.2305   -1.2890 C   0  0  0  0  0  0  0  0  0  0  0  0
    2.4052   -1.6739   -2.2317 H   0  0  0  0  0  0  0  0  0  0  0  0
    3.5379   -0.5199   -1.4877 H   0  0  0  0  0  0  0  0  0  0  0  0
    3.1084   -2.0279   -0.6443 H   0  0  0  0  0  0  0  0  0  0  0  0
  5  6  2  0  0  0  0
  5  7  1  0  0  0  0
  2  3  1  0  0  0  0
  2  4  1  0  0  0  0
  2  5  1  0  0  0  0
  1  2  1  0  0  0  0
 22 23  2  0  0  0  0
 22 24  1  0  0  0  0
 18 19  1  0  0  0  0
 18 20  1  0  0  0  0
 18 21  1  0  0  0  0
 17 18  1  0  0  0  0
 14 15  1  0  0  0  0
 14 16  1  0  0  0  0
 14 17  1  0  0  0  0
 11 12  1  0  0  0  0
 11 13  1  0  0  0  0
 11 14  1  0  0  0  0
  9 10  1  0  0  0  0
  9 11  1  0  0  0  0
  9 22  1  0  0  0  0
  7  8  1  0  0  0  0
  7  9  1  0  0  0  0
 26 27  1  0  0  0  0
 26 28  1  0  0  0  0
 26 29  1  0  0  0  0
 24 25  1  0  0  0  0
 24 26  1  0  0  0  0
M  END
$$$$
default_name
  -OEChem-01062215323D

 29 28  0     1  0  0  0  0  0999 V2000
   -3.5781   -3.7296    1.2702 H   0  0  0  0  0  0  0  0  0  0  0  0
   -3.5311   -2.7616    0.7732 C   0  0  0  0  0  0  0  0  0  0  0  0
   -4.2371   -2.0766    1.2382 H   0  0  0  0  0  0  0  0  0  0  0  0
   -3.7681   -2.8816   -0.2818 H   0  0  0  0  0  0  0  0  0  0  0  0
   -2.1321   -2.2086    0.9112 C   0  0  0  0  0  0  0  0  0  0  0  0
   -1.2751   -2.8426    1.5112 O   0  0  0  0  0  0  0  0  0  0  0  0
   -1.9041   -1.0186    0.3602 N   0  0  0  0  0  0  0  0  0  0  0  0
   -2.6671   -0.5416   -0.0988 H   0  0  0  0  0  0  0  0  0  0  0  0
   -0.6131   -0.3236    0.3832 C   0  0  1  0  0  0  0  0  0  0  0  0
   -0.7700    0.7123    0.0784 H   0  0  0  0  0  0  0  0  0  0  0  0
   -0.0656   -0.3252    1.8224 C   0  0  0  0  0  0  0  0  0  0  0  0
   -0.0290   -1.3554    2.1829 H   0  0  0  0  0  0  0  0  0  0  0  0
    0.9505    0.0719    1.8212 H   0  0  0  0  0  0  0  0  0  0  0  0
   -0.9120    0.4978    2.8004 C   0  0  0  0  0  0  0  0  0  0  0  0
   -1.9227    0.0916    2.8277 H   0  0  0  0  0  0  0  0  0  0  0  0
   -0.4745    0.4168    3.7962 H   0  0  0  0  0  0  0  0  0  0  0  0
   -1.0230    2.2523    2.3658 S   0  0  0  0  0  0  0  0  0  0  0  0
    0.6849    2.7608    2.6920 C   0  0  0  0  0  0  0  0  0  0  0  0
    1.3652    2.1937    2.0559 H   0  0  0  0  0  0  0  0  0  0  0  0
    0.7931    3.8239    2.4753 H   0  0  0  0  0  0  0  0  0  0  0  0
    0.9283    2.5817    3.7396 H   0  0  0  0  0  0  0  0  0  0  0  0
    0.3633   -0.9715   -0.6088 C   0  0  0  0  0  0  0  0  0  0  0  0
    0.0110   -1.9422   -1.2757 O   0  0  0  0  0  0  0  0  0  0  0  0
    1.5902   -0.4424   -0.7000 N   0  0  0  0  0  0  0  0  0  0  0  0
    1.8018    0.3628   -0.1325 H   0  0  0  0  0  0  0  0  0  0  0  0
    2.6359   -0.9538   -1.5846 C   0  0  0  0  0  0  0  0  0  0  0  0
    2.2820   -0.9409   -2.6182 H   0  0  0  0  0  0  0  0  0  0  0  0
    3.5346   -0.3408   -1.5051 H   0  0  0  0  0  0  0  0  0  0  0  0
    2.8756   -1.9838   -1.3145 H   0  0  0  0  0  0  0  0  0  0  0  0
  5  6  2  0  0  0  0
  5  7  1  0  0  0  0
  2  3  1  0  0  0  0
  2  4  1  0  0  0  0
  2  5  1  0  0  0  0
  1  2  1  0  0  0  0
 22 23  2  0  0  0  0
 22 24  1  0  0  0  0
 18 19  1  0  0  0  0
 18 20  1  0  0  0  0
 18 21  1  0  0  0  0
 17 18  1  0  0  0  0
 14 15  1  0  0  0  0
 14 16  1  0  0  0  0
 14 17  1  0  0  0  0
 11 12  1  0  0  0  0
 11 13  1  0  0  0  0
 11 14  1  0  0  0  0
  9 10  1  0  0  0  0
  9 11  1  0  0  0  0
  9 22  1  0  0  0  0
  7  8  1  0  0  0  0
  7  9  1  0  0  0  0
 26 27  1  0  0  0  0
 26 28  1  0  0  0  0
 26 29  1  0  0  0  0
 24 25  1  0  0  0  0
 24 26  1  0  0  0  0
M  END
$$$$
default_name
  -OEChem-01062215323D

 29 28  0     1  0  0  0  0  0999 V2000
   -3.5781   -3.7296    1.2702 H   0  0  0  0  0  0  0  0  0  0  0  0
   -3.5311   -2.7616    0.7732 C   0  0  0  0  0  0  0  0  0  0  0  0
   -4.2371   -2.0766    1.2382 H   0  0  0  0  0  0  0  0  0  0  0  0
   -3.7681   -2.8816   -0.2818 H   0  0  0  0  0  0  0  0  0  0  0  0
   -2.1321   -2.2086    0.9112 C   0  0  0  0  0  0  0  0  0  0  0  0
   -1.2751   -2.8426    1.5112 O   0  0  0  0  0  0  0  0  0  0  0  0
   -1.9041   -1.0186    0.3602 N   0  0  0  0  0  0  0  0  0  0  0  0
   -2.6671   -0.5416   -0.0988 H   0  0  0  0  0  0  0  0  0  0  0  0
   -0.6131   -0.3236    0.3832 C   0  0  1  0  0  0  0  0  0  0  0  0
   -0.7700    0.7123    0.0784 H   0  0  0  0  0  0  0  0  0  0  0  0
   -0.0656   -0.3252    1.8224 C   0  0  0  0  0  0  0  0  0  0  0  0
   -0.0290   -1.3554    2.1829 H   0  0  0  0  0  0  0  0  0  0  0  0
    0.9505    0.0719    1.8212 H   0  0  0  0  0  0  0  0  0  0  0  0
   -0.9120    0.4978    2.8004 C   0  0  0  0  0  0  0  0  0  0  0  0
   -1.9227    0.0916    2.8277 H   0  0  0  0  0  0  0  0  0  0  0  0
   -0.4745    0.4168    3.7962 H   0  0  0  0  0  0  0  0  0  0  0  0
   -1.0230    2.2523    2.3658 S   0  0  0  0  0  0  0  0  0  0  0  0
    0.6849    2.7608    2.6920 C   0  0  0  0  0  0  0  0  0  0  0  0
    1.3652    2.1937    2.0559 H   0  0  0  0  0  0  0  0  0  0  0  0
    0.7931    3.8239    2.4753 H   0  0  0  0  0  0  0  0  0  0  0  0
    0.9283    2.5817    3.7396 H   0  0  0  0  0  0  0  0  0  0  0  0
    0.3633   -0.9715   -0.6088 C   0  0  0  0  0  0  0  0  0  0  0  0
   -0.0531   -1.7493   -1.4648 O   0  0  0  0  0  0  0  0  0  0  0  0
    1.6602   -0.6594   -0.4893 N   0  0  0  0  0  0  0  0  0  0  0  0
    1.9248   -0.0023    0.2271 H   0  0  0  0  0  0  0  0  0  0  0  0
    2.7128   -1.2036   -1.3458 C   0  0  0  0  0  0  0  0  0  0  0  0
    2.4955   -0.9681   -2.3903 H   0  0  0  0  0  0  0  0  0  0  0  0
    3.6804   -0.7786   -1.0756 H   0  0  0  0  0  0  0  0  0  0  0  0
    2.7516   -2.2890   -1.2373 H   0  0  0  0  0  0  0  0  0  0  0  0
  5  6  2  0  0  0  0
  5  7  1  0  0  0  0
  2  3  1  0  0  0  0
  2  4  1  0  0  0  0
  2  5  1  0  0  0  0
  1  2  1  0  0  0  0
 22 23  2  0  0  0  0
 22 24  1  0  0  0  0
 18 19  1  0  0  0  0
 18 20  1  0  0  0  0
 18 21  1  0  0  0  0
 17 18  1  0  0  0  0
 14 15  1  0  0  0  0
 14 16  1  0  0  0  0
 14 17  1  0  0  0  0
 11 12  1  0  0  0  0
 11 13  1  0  0  0  0
 11 14  1  0  0  0  0
  9 10  1  0  0  0  0
  9 11  1  0  0  0  0
  9 22  1  0  0  0  0
  7  8  1  0  0  0  0
  7  9  1  0  0  0  0
 26 27  1  0  0  0  0
 26 28  1  0  0  0  0
 26 29  1  0  0  0  0
 24 25  1  0  0  0  0
 24 26  1  0  0  0  0
M  END
$$$$
default_name
  -OEChem-01062215323D

 29 28  0     1  0  0  0  0  0999 V2000
   -3.5781   -3.7296    1.2702 H   0  0  0  0  0  0  0  0  0  0  0  0
   -3.5311   -2.7616    0.7732 C   0  0  0  0  0  0  0  0  0  0  0  0
   -4.2371   -2.0766    1.2382 H   0  0  0  0  0  0  0  0  0  0  0  0
   -3.7681   -2.8816   -0.2818 H   0  0  0  0  0  0  0  0  0  0  0  0
   -2.1321   -2.2086    0.9112 C   0  0  0  0  0  0  0  0  0  0  0  0
   -1.2751   -2.8426    1.5112 O   0  0  0  0  0  0  0  0  0  0  0  0
   -1.9041   -1.0186    0.3602 N   0  0  0  0  0  0  0  0  0  0  0  0
   -2.6671   -0.5416   -0.0988 H   0  0  0  0  0  0  0  0  0  0  0  0
   -0.6131   -0.3236    0.3832 C   0  0  1  0  0  0  0  0  0  0  0  0
   -0.7700    0.7123    0.0784 H   0  0  0  0  0  0  0  0  0  0  0  0
   -0.0656   -0.3252    1.8224 C   0  0  0  0  0  0  0  0  0  0  0  0
   -0.0290   -1.3554    2.1829 H   0  0  0  0  0  0  0  0  0  0  0  0
    0.9505    0.0719    1.8212 H   0  0  0  0  0  0  0  0  0  0  0  0
   -0.9120    0.4978    2.8004 C   0  0  0  0  0  0  0  0  0  0  0  0
   -1.9227    0.0916    2.8277 H   0  0  0  0  0  0  0  0  0  0  0  0
   -0.4745    0.4168    3.7962 H   0  0  0  0  0  0  0  0  0  0  0  0
   -1.0230    2.2523    2.3658 S   0  0  0  0  0  0  0  0  0  0  0  0
    0.6849    2.7608    2.6920 C   0  0  0  0  0  0  0  0  0  0  0  0
    1.3652    2.1937    2.0559 H   0  0  0  0  0  0  0  0  0  0  0  0
    0.7931    3.8239    2.4753 H   0  0  0  0  0  0  0  0  0  0  0  0
    0.9283    2.5817    3.7396 H   0  0  0  0  0  0  0  0  0  0  0  0
    0.3633   -0.9715   -0.6088 C   0  0  0  0  0  0  0  0  0  0  0  0
   -0.0621   -1.5211   -1.6228 O   0  0  0  0  0  0  0  0  0  0  0  0
    1.6685   -0.9155   -0.3140 N   0  0  0  0  0  0  0  0  0  0  0  0
    1.9433   -0.4347    0.5277 H   0  0  0  0  0  0  0  0  0  0  0  0
    2.7193   -1.4970   -1.1478 C   0  0  0  0  0  0  0  0  0  0  0  0
    2.6723   -1.0676   -2.1513 H   0  0  0  0  0  0  0  0  0  0  0  0
    3.7011   -1.2965   -0.7170 H   0  0  0  0  0  0  0  0  0  0  0  0
    2.5723   -2.5757   -1.2265 H   0  0  0  0  0  0  0  0  0  0  0  0
  5  6  2  0  0  0  0
  5  7  1  0  0  0  0
  2  3  1  0  0  0  0
  2  4  1  0  0  0  0
  2  5  1  0  0  0  0
  1  2  1  0  0  0  0
 22 23  2  0  0  0  0
 22 24  1  0  0  0  0
 18 19  1  0  0  0  0
 18 20  1  0  0  0  0
 18 21  1  0  0  0  0
 17 18  1  0  0  0  0
 14 15  1  0  0  0  0
 14 16  1  0  0  0  0
 14 17  1  0  0  0  0
 11 12  1  0  0  0  0
 11 13  1  0  0  0  0
 11 14  1  0  0  0  0
  9 10  1  0  0  0  0
  9 11  1  0  0  0  0
  9 22  1  0  0  0  0
  7  8  1  0  0  0  0
  7  9  1  0  0  0  0
 26 27  1  0  0  0  0
 26 28  1  0  0  0  0
 26 29  1  0  0  0  0
 24 25  1  0  0  0  0
 24 26  1  0  0  0  0
M  END
$$$$
default_name
  -OEChem-01062215323D

 29 28  0     1  0  0  0  0  0999 V2000
   -3.5781   -3.7296    1.2702 H   0  0  0  0  0  0  0  0  0  0  0  0
   -3.5311   -2.7616    0.7732 C   0  0  0  0  0  0  0  0  0  0  0  0
   -4.2371   -2.0766    1.2382 H   0  0  0  0  0  0  0  0  0  0  0  0
   -3.7681   -2.8816   -0.2818 H   0  0  0  0  0  0  0  0  0  0  0  0
   -2.1321   -2.2086    0.9112 C   0  0  0  0  0  0  0  0  0  0  0  0
   -1.2751   -2.8426    1.5112 O   0  0  0  0  0  0  0  0  0  0  0  0
   -1.9041   -1.0186    0.3602 N   0  0  0  0  0  0  0  0  0  0  0  0
   -2.6671   -0.5416   -0.0988 H   0  0  0  0  0  0  0  0  0  0  0  0
   -0.6131   -0.3236    0.3832 C   0  0  1  0  0  0  0  0  0  0  0  0
   -0.7700    0.7123    0.0784 H   0  0  0  0  0  0  0  0  0  0  0  0
   -0.0656   -0.3252    1.8224 C   0  0  0  0  0  0  0  0  0  0  0  0
   -0.0290   -1.3554    2.1829 H   0  0  0  0  0  0  0  0  0  0  0  0
    0.9505    0.0719    1.8212 H   0  0  0  0  0  0  0  0  0  0  0  0
   -0.9120    0.4978    2.8004 C   0  0  0  0  0  0  0  0  0  0  0  0
   -1.9227    0.0916    2.8277 H   0  0  0  0  0  0  0  0  0  0  0  0
   -0.4745    0.4168    3.7962 H   0  0  0  0  0  0  0  0  0  0  0  0
   -1.0230    2.2523    2.3658 S   0  0  0  0  0  0  0  0  0  0  0  0
    0.6849    2.7608    2.6920 C   0  0  0  0  0  0  0  0  0  0  0  0
    1.3652    2.1937    2.0559 H   0  0  0  0  0  0  0  0  0  0  0  0
    0.7931    3.8239    2.4753 H   0  0  0  0  0  0  0  0  0  0  0  0
    0.9283    2.5817    3.7396 H   0  0  0  0  0  0  0  0  0  0  0  0
    0.3633   -0.9715   -0.6088 C   0  0  0  0  0  0  0  0  0  0  0  0
   -0.0154   -1.2732   -1.7387 O   0  0  0  0  0  0  0  0  0  0  0  0
    1.6145   -1.1930   -0.1858 N   0  0  0  0  0  0  0  0  0  0  0  0
    1.8561   -0.9049    0.7489 H   0  0  0  0  0  0  0  0  0  0  0  0
    2.6548   -1.8141   -1.0042 C   0  0  0  0  0  0  0  0  0  0  0  0
    2.8003   -1.2326   -1.9176 H   0  0  0  0  0  0  0  0  0  0  0  0
    3.5953   -1.8593   -0.4535 H   0  0  0  0  0  0  0  0  0  0  0  0
    2.3500   -2.8244   -1.2829 H   0  0  0  0  0  0  0  0  0  0  0  0
  5  6  2  0  0  0  0
  5  7  1  0  0  0  0
  2  3  1  0  0  0  0
  2  4  1  0  0  0  0
  2  5  1  0  0  0  0
  1  2  1  0  0  0  0
 22 23  2  0  0  0  0
 22 24  1  0  0  0  0
 18 19  1  0  0  0  0
 18 20  1  0  0  0  0
 18 21  1  0  0  0  0
 17 18  1  0  0  0  0
 14 15  1  0  0  0  0
 14 16  1  0  0  0  0
 14 17  1  0  0  0  0
 11 12  1  0  0  0  0
 11 13  1  0  0  0  0
 11 14  1  0  0  0  0
  9 10  1  0  0  0  0
  9 11  1  0  0  0  0
  9 22  1  0  0  0  0
  7  8  1  0  0  0  0
  7  9  1  0  0  0  0
 26 27  1  0  0  0  0
 26 28  1  0  0  0  0
 26 29  1  0  0  0  0
 24 25  1  0  0  0  0
 24 26  1  0  0  0  0
M  END
$$$$
default_name
  -OEChem-01062215323D

 29 28  0     1  0  0  0  0  0999 V2000
   -3.5781   -3.7296    1.2702 H   0  0  0  0  0  0  0  0  0  0  0  0
   -3.5311   -2.7616    0.7732 C   0  0  0  0  0  0  0  0  0  0  0  0
   -4.2371   -2.0766    1.2382 H   0  0  0  0  0  0  0  0  0  0  0  0
   -3.7681   -2.8816   -0.2818 H   0  0  0  0  0  0  0  0  0  0  0  0
   -2.1321   -2.2086    0.9112 C   0  0  0  0  0  0  0  0  0  0  0  0
   -1.2751   -2.8426    1.5112 O   0  0  0  0  0  0  0  0  0  0  0  0
   -1.9041   -1.0186    0.3602 N   0  0  0  0  0  0  0  0  0  0  0  0
   -2.6671   -0.5416   -0.0988 H   0  0  0  0  0  0  0  0  0  0  0  0
   -0.6131   -0.3236    0.3832 C   0  0  1  0  0  0  0  0  0  0  0  0
   -0.7700    0.7123    0.0784 H   0  0  0  0  0  0  0  0  0  0  0  0
   -0.0656   -0.3252    1.8224 C   0  0  0  0  0  0  0  0  0  0  0  0
   -0.0290   -1.3554    2.1829 H   0  0  0  0  0  0  0  0  0  0  0  0
    0.9505    0.0719    1.8212 H   0  0  0  0  0  0  0  0  0  0  0  0
   -0.9120    0.4978    2.8004 C   0  0  0  0  0  0  0  0  0  0  0  0
   -1.9227    0.0916    2.8277 H   0  0  0  0  0  0  0  0  0  0  0  0
   -0.4745    0.4168    3.7962 H   0  0  0  0  0  0  0  0  0  0  0  0
   -1.0230    2.2523    2.3658 S   0  0  0  0  0  0  0  0  0  0  0  0
    0.6849    2.7608    2.6920 C   0  0  0  0  0  0  0  0  0  0  0  0
    1.3652    2.1937    2.0559 H   0  0  0  0  0  0  0  0  0  0  0  0
    0.7931    3.8239    2.4753 H   0  0  0  0  0  0  0  0  0  0  0  0
    0.9283    2.5817    3.7396 H   0  0  0  0  0  0  0  0  0  0  0  0
    0.3633   -0.9715   -0.6088 C   0  0  0  0  0  0  0  0  0  0  0  0
    0.0838   -1.0225   -1.8048 O   0  0  0  0  0  0  0  0  0  0  0  0
    1.5020   -1.4732   -0.1136 N   0  0  0  0  0  0  0  0  0  0  0  0
    1.6690   -1.3809    0.8757 H   0  0  0  0  0  0  0  0  0  0  0  0
    2.5238   -2.1333   -0.9247 C   0  0  0  0  0  0  0  0  0  0  0  0
    2.8708   -1.4518   -1.7049 H   0  0  0  0  0  0  0  0  0  0  0  0
    3.3703   -2.4286   -0.3033 H   0  0  0  0  0  0  0  0  0  0  0  0
    2.0998   -3.0182   -1.4025 H   0  0  0  0  0  0  0  0  0  0  0  0
  5  6  2  0  0  0  0
  5  7  1  0  0  0  0
  2  3  1  0  0  0  0
  2  4  1  0  0  0  0
  2  5  1  0  0  0  0
  1  2  1  0  0  0  0
 22 23  2  0  0  0  0
 22 24  1  0  0  0  0
 18 19  1  0  0  0  0
 18 20  1  0  0  0  0
 18 21  1  0  0  0  0
 17 18  1  0  0  0  0
 14 15  1  0  0  0  0
 14 16  1  0  0  0  0
 14 17  1  0  0  0  0
 11 12  1  0  0  0  0
 11 13  1  0  0  0  0
 11 14  1  0  0  0  0
  9 10  1  0  0  0  0
  9 11  1  0  0  0  0
  9 22  1  0  0  0  0
  7  8  1  0  0  0  0
  7  9  1  0  0  0  0
 26 27  1  0  0  0  0
 26 28  1  0  0  0  0
 26 29  1  0  0  0  0
 24 25  1  0  0  0  0
 24 26  1  0  0  0  0
M  END
$$$$
default_name
  -OEChem-01062215323D

 29 28  0     1  0  0  0  0  0999 V2000
   -3.5781   -3.7296    1.2702 H   0  0  0  0  0  0  0  0  0  0  0  0
   -3.5311   -2.7616    0.7732 C   0  0  0  0  0  0  0  0  0  0  0  0
   -4.2371   -2.0766    1.2382 H   0  0  0  0  0  0  0  0  0  0  0  0
   -3.7681   -2.8816   -0.2818 H   0  0  0  0  0  0  0  0  0  0  0  0
   -2.1321   -2.2086    0.9112 C   0  0  0  0  0  0  0  0  0  0  0  0
   -1.2751   -2.8426    1.5112 O   0  0  0  0  0  0  0  0  0  0  0  0
   -1.9041   -1.0186    0.3602 N   0  0  0  0  0  0  0  0  0  0  0  0
   -2.6671   -0.5416   -0.0988 H   0  0  0  0  0  0  0  0  0  0  0  0
   -0.6131   -0.3236    0.3832 C   0  0  1  0  0  0  0  0  0  0  0  0
   -0.7700    0.7123    0.0784 H   0  0  0  0  0  0  0  0  0  0  0  0
   -0.0656   -0.3252    1.8224 C   0  0  0  0  0  0  0  0  0  0  0  0
   -0.0290   -1.3554    2.1829 H   0  0  0  0  0  0  0  0  0  0  0  0
    0.9505    0.0719    1.8212 H   0  0  0  0  0  0  0  0  0  0  0  0
   -0.9120    0.4978    2.8004 C   0  0  0  0  0  0  0  0  0  0  0  0
   -1.9227    0.0916    2.8277 H   0  0  0  0  0  0  0  0  0  0  0  0
   -0.4745    0.4168    3.7962 H   0  0  0  0  0  0  0  0  0  0  0  0
   -1.0230    2.2523    2.3658 S   0  0  0  0  0  0  0  0  0  0  0  0
    0.6849    2.7608    2.6920 C   0  0  0  0  0  0  0  0  0  0  0  0
    1.3652    2.1937    2.0559 H   0  0  0  0  0  0  0  0  0  0  0  0
    0.7931    3.8239    2.4753 H   0  0  0  0  0  0  0  0  0  0  0  0
    0.9283    2.5817    3.7396 H   0  0  0  0  0  0  0  0  0  0  0  0
    0.3633   -0.9715   -0.6088 C   0  0  0  0  0  0  0  0  0  0  0  0
    0.2288   -0.7860   -1.8166 O   0  0  0  0  0  0  0  0  0  0  0  0
    1.3385   -1.7369   -0.1022 N   0  0  0  0  0  0  0  0  0  0  0  0
    1.3949   -1.8303    0.8994 H   0  0  0  0  0  0  0  0  0  0  0  0
    2.3352   -2.4327   -0.9147 C   0  0  0  0  0  0  0  0  0  0  0  0
    2.8791   -1.7104   -1.5280 H   0  0  0  0  0  0  0  0  0  0  0  0
    3.0412   -2.9656   -0.2764 H   0  0  0  0  0  0  0  0  0  0  0  0
    1.8388   -3.1439   -1.5773 H   0  0  0  0  0  0  0  0  0  0  0  0
  5  6  2  0  0  0  0
  5  7  1  0  0  0  0
  2  3  1  0  0  0  0
  2  4  1  0  0  0  0
  2  5  1  0  0  0  0
  1  2  1  0  0  0  0
 22 23  2  0  0  0  0
 22 24  1  0  0  0  0
 18 19  1  0  0  0  0
 18 20  1  0  0  0  0
 18 21  1  0  0  0  0
 17 18  1  0  0  0  0
 14 15  1  0  0  0  0
 14 16  1  0  0  0  0
 14 17  1  0  0  0  0
 11 12  1  0  0  0  0
 11 13  1  0  0  0  0
 11 14  1  0  0  0  0
  9 10  1  0  0  0  0
  9 11  1  0  0  0  0
  9 22  1  0  0  0  0
  7  8  1  0  0  0  0
  7  9  1  0  0  0  0
 26 27  1  0  0  0  0
 26 28  1  0  0  0  0
 26 29  1  0  0  0  0
 24 25  1  0  0  0  0
 24 26  1  0  0  0  0
M  END
$$$$
default_name
  -OEChem-01062215323D

 29 28  0     1  0  0  0  0  0999 V2000
   -3.5781   -3.7296    1.2702 H   0  0  0  0  0  0  0  0  0  0  0  0
   -3.5311   -2.7616    0.7732 C   0  0  0  0  0  0  0  0  0  0  0  0
   -4.2371   -2.0766    1.2382 H   0  0  0  0  0  0  0  0  0  0  0  0
   -3.7681   -2.8816   -0.2818 H   0  0  0  0  0  0  0  0  0  0  0  0
   -2.1321   -2.2086    0.9112 C   0  0  0  0  0  0  0  0  0  0  0  0
   -1.2751   -2.8426    1.5112 O   0  0  0  0  0  0  0  0  0  0  0  0
   -1.9041   -1.0186    0.3602 N   0  0  0  0  0  0  0  0  0  0  0  0
   -2.6671   -0.5416   -0.0988 H   0  0  0  0  0  0  0  0  0  0  0  0
   -0.6131   -0.3236    0.3832 C   0  0  1  0  0  0  0  0  0  0  0  0
   -0.7700    0.7123    0.0784 H   0  0  0  0  0  0  0  0  0  0  0  0
   -0.0656   -0.3252    1.8224 C   0  0  0  0  0  0  0  0  0  0  0  0
   -0.0290   -1.3554    2.1829 H   0  0  0  0  0  0  0  0  0  0  0  0
    0.9505    0.0719    1.8212 H   0  0  0  0  0  0  0  0  0  0  0  0
   -0.9120    0.4978    2.8004 C   0  0  0  0  0  0  0  0  0  0  0  0
   -1.9227    0.0916    2.8277 H   0  0  0  0  0  0  0  0  0  0  0  0
   -0.4745    0.4168    3.7962 H   0  0  0  0  0  0  0  0  0  0  0  0
   -1.0230    2.2523    2.3658 S   0  0  0  0  0  0  0  0  0  0  0  0
    0.6849    2.7608    2.6920 C   0  0  0  0  0  0  0  0  0  0  0  0
    1.3652    2.1937    2.0559 H   0  0  0  0  0  0  0  0  0  0  0  0
    0.7931    3.8239    2.4753 H   0  0  0  0  0  0  0  0  0  0  0  0
    0.9283    2.5817    3.7396 H   0  0  0  0  0  0  0  0  0  0  0  0
    0.3633   -0.9715   -0.6088 C   0  0  0  0  0  0  0  0  0  0  0  0
    0.4096   -0.5799   -1.7732 O   0  0  0  0  0  0  0  0  0  0  0  0
    1.1353   -1.9661   -0.1525 N   0  0  0  0  0  0  0  0  0  0  0  0
    1.0524   -2.2224    0.8183 H   0  0  0  0  0  0  0  0  0  0  0  0
    2.1019   -2.6921   -0.9750 C   0  0  0  0  0  0  0  0  0  0  0  0
    2.8245   -1.9906   -1.3986 H   0  0  0  0  0  0  0  0  0  0  0  0
    2.6307   -3.4337   -0.3748 H   0  0  0  0  0  0  0  0  0  0  0  0
    1.5848   -3.1929   -1.7954 H   0  0  0  0  0  0  0  0  0  0  0  0
  5  6  2  0  0  0  0
  5  7  1  0  0  0  0
  2  3  1  0  0  0  0
  2  4  1  0  0  0  0
  2  5  1  0  0  0  0
  1  2  1  0  0  0  0
 22 23  2  0  0  0  0
 22 24  1  0  0  0  0
 18 19  1  0  0  0  0
 18 20  1  0  0  0  0
 18 21  1  0  0  0  0
 17 18  1  0  0  0  0
 14 15  1  0  0  0  0
 14 16  1  0  0  0  0
 14 17  1  0  0  0  0
 11 12  1  0  0  0  0
 11 13  1  0  0  0  0
 11 14  1  0  0  0  0
  9 10  1  0  0  0  0
  9 11  1  0  0  0  0
  9 22  1  0  0  0  0
  7  8  1  0  0  0  0
  7  9  1  0  0  0  0
 26 27  1  0  0  0  0
 26 28  1  0  0  0  0
 26 29  1  0  0  0  0
 24 25  1  0  0  0  0
 24 26  1  0  0  0  0
M  END
$$$$
default_name
  -OEChem-01062215323D

 29 28  0     1  0  0  0  0  0999 V2000
   -3.5781   -3.7296    1.2702 H   0  0  0  0  0  0  0  0  0  0  0  0
   -3.5311   -2.7616    0.7732 C   0  0  0  0  0  0  0  0  0  0  0  0
   -4.2371   -2.0766    1.2382 H   0  0  0  0  0  0  0  0  0  0  0  0
   -3.7681   -2.8816   -0.2818 H   0  0  0  0  0  0  0  0  0  0  0  0
   -2.1321   -2.2086    0.9112 C   0  0  0  0  0  0  0  0  0  0  0  0
   -1.2751   -2.8426    1.5112 O   0  0  0  0  0  0  0  0  0  0  0  0
   -1.9041   -1.0186    0.3602 N   0  0  0  0  0  0  0  0  0  0  0  0
   -2.6671   -0.5416   -0.0988 H   0  0  0  0  0  0  0  0  0  0  0  0
   -0.6131   -0.3236    0.3832 C   0  0  1  0  0  0  0  0  0  0  0  0
   -0.7700    0.7123    0.0784 H   0  0  0  0  0  0  0  0  0  0  0  0
   -0.0656   -0.3252    1.8224 C   0  0  0  0  0  0  0  0  0  0  0  0
   -0.0290   -1.3554    2.1829 H   0  0  0  0  0  0  0  0  0  0  0  0
    0.9505    0.0719    1.8212 H   0  0  0  0  0  0  0  0  0  0  0  0
   -0.9120    0.4978    2.8004 C   0  0  0  0  0  0  0  0  0  0  0  0
   -1.9227    0.0916    2.8277 H   0  0  0  0  0  0  0  0  0  0  0  0
   -0.4745    0.4168    3.7962 H   0  0  0  0  0  0  0  0  0  0  0  0
   -1.0230    2.2523    2.3658 S   0  0  0  0  0  0  0  0  0  0  0  0
    0.6849    2.7608    2.6920 C   0  0  0  0  0  0  0  0  0  0  0  0
    1.3652    2.1937    2.0559 H   0  0  0  0  0  0  0  0  0  0  0  0
    0.7931    3.8239    2.4753 H   0  0  0  0  0  0  0  0  0  0  0  0
    0.9283    2.5817    3.7396 H   0  0  0  0  0  0  0  0  0  0  0  0
    0.3633   -0.9715   -0.6088 C   0  0  0  0  0  0  0  0  0  0  0  0
    0.6141   -0.4182   -1.6775 O   0  0  0  0  0  0  0  0  0  0  0  0
    0.9062   -2.1453   -0.2610 N   0  0  0  0  0  0  0  0  0  0  0  0
    0.6648   -2.5305    0.6381 H   0  0  0  0  0  0  0  0  0  0  0  0
    1.8398   -2.8937   -1.1014 C   0  0  0  0  0  0  0  0  0  0  0  0
    2.7108   -2.2735   -1.3258 H   0  0  0  0  0  0  0  0  0  0  0  0
    2.1666   -3.8010   -0.5917 H   0  0  0  0  0  0  0  0  0  0  0  0
    1.3550   -3.1618   -2.0418 H   0  0  0  0  0  0  0  0  0  0  0  0
  5  6  2  0  0  0  0
  5  7  1  0  0  0  0
  2  3  1  0  0  0  0
  2  4  1  0  0  0  0
  2  5  1  0  0  0  0
  1  2  1  0  0  0  0
 22 23  2  0  0  0  0
 22 24  1  0  0  0  0
 18 19  1  0  0  0  0
 18 20  1  0  0  0  0
 18 21  1  0  0  0  0
 17 18  1  0  0  0  0
 14 15  1  0  0  0  0
 14 16  1  0  0  0  0
 14 17  1  0  0  0  0
 11 12  1  0  0  0  0
 11 13  1  0  0  0  0
 11 14  1  0  0  0  0
  9 10  1  0  0  0  0
  9 11  1  0  0  0  0
  9 22  1  0  0  0  0
  7  8  1  0  0  0  0
  7  9  1  0  0  0  0
 26 27  1  0  0  0  0
 26 28  1  0  0  0  0
 26 29  1  0  0  0  0
 24 25  1  0  0  0  0
 24 26  1  0  0  0  0
M  END
$$$$
default_name
  -OEChem-01062215323D

 29 28  0     1  0  0  0  0  0999 V2000
   -3.5781   -3.7296    1.2702 H   0  0  0  0  0  0  0  0  0  0  0  0
   -3.5311   -2.7616    0.7732 C   0  0  0  0  0  0  0  0  0  0  0  0
   -4.2371   -2.0766    1.2382 H   0  0  0  0  0  0  0  0  0  0  0  0
   -3.7681   -2.8816   -0.2818 H   0  0  0  0  0  0  0  0  0  0  0  0
   -2.1321   -2.2086    0.9112 C   0  0  0  0  0  0  0  0  0  0  0  0
   -1.2751   -2.8426    1.5112 O   0  0  0  0  0  0  0  0  0  0  0  0
   -1.9041   -1.0186    0.3602 N   0  0  0  0  0  0  0  0  0  0  0  0
   -2.6671   -0.5416   -0.0988 H   0  0  0  0  0  0  0  0  0  0  0  0
   -0.6131   -0.3236    0.3832 C   0  0  1  0  0  0  0  0  0  0  0  0
   -0.7700    0.7123    0.0784 H   0  0  0  0  0  0  0  0  0  0  0  0
   -0.0656   -0.3252    1.8224 C   0  0  0  0  0  0  0  0  0  0  0  0
   -0.0290   -1.3554    2.1829 H   0  0  0  0  0  0  0  0  0  0  0  0
    0.9505    0.0719    1.8212 H   0  0  0  0  0  0  0  0  0  0  0  0
   -0.9120    0.4978    2.8004 C   0  0  0  0  0  0  0  0  0  0  0  0
   -1.9227    0.0916    2.8277 H   0  0  0  0  0  0  0  0  0  0  0  0
   -0.4745    0.4168    3.7962 H   0  0  0  0  0  0  0  0  0  0  0  0
   -1.0230    2.2523    2.3658 S   0  0  0  0  0  0  0  0  0  0  0  0
    0.6849    2.7608    2.6920 C   0  0  0  0  0  0  0  0  0  0  0  0
    1.3652    2.1937    2.0559 H   0  0  0  0  0  0  0  0  0  0  0  0
    0.7931    3.8239    2.4753 H   0  0  0  0  0  0  0  0  0  0  0  0
    0.9283    2.5817    3.7396 H   0  0  0  0  0  0  0  0  0  0  0  0
    0.3633   -0.9715   -0.6088 C   0  0  0  0  0  0  0  0  0  0  0  0
    0.8282   -0.3119   -1.5362 O   0  0  0  0  0  0  0  0  0  0  0  0
    0.6668   -2.2622   -0.4204 N   0  0  0  0  0  0  0  0  0  0  0  0
    0.2586   -2.7337    0.3709 H   0  0  0  0  0  0  0  0  0  0  0  0
    1.5666   -3.0237   -1.2852 C   0  0  0  0  0  0  0  0  0  0  0  0
    2.5456   -2.5397   -1.3145 H   0  0  0  0  0  0  0  0  0  0  0  0
    1.6806   -4.0424   -0.9123 H   0  0  0  0  0  0  0  0  0  0  0  0
    1.1652   -3.0528   -2.2998 H   0  0  0  0  0  0  0  0  0  0  0  0
  5  6  2  0  0  0  0
  5  7  1  0  0  0  0
  2  3  1  0  0  0  0
  2  4  1  0  0  0  0
  2  5  1  0  0  0  0
  1  2  1  0  0  0  0
 22 23  2  0  0  0  0
 22 24  1  0  0  0  0
 18 19  1  0  0  0  0
 18 20  1  0  0  0  0
 18 21  1  0  0  0  0
 17 18  1  0  0  0  0
 14 15  1  0  0  0  0
 14 16  1  0  0  0  0
 14 17  1  0  0  0  0
 11 12  1  0  0  0  0
 11 13  1  0  0  0  0
 11 14  1  0  0  0  0
  9 10  1  0  0  0  0
  9 11  1  0  0  0  0
  9 22  1  0  0  0  0
  7  8  1  0  0  0  0
  7  9  1  0  0  0  0
 26 27  1  0  0  0  0
 26 28  1  0  0  0  0
 26 29  1  0  0  0  0
 24 25  1  0  0  0  0
 24 26  1  0  0  0  0
M  END
$$$$
default_name
  -OEChem-01062215323D

 29 28  0     1  0  0  0  0  0999 V2000
   -3.5781   -3.7296    1.2702 H   0  0  0  0  0  0  0  0  0  0  0  0
   -3.5311   -2.7616    0.7732 C   0  0  0  0  0  0  0  0  0  0  0  0
   -4.2371   -2.0766    1.2382 H   0  0  0  0  0  0  0  0  0  0  0  0
   -3.7681   -2.8816   -0.2818 H   0  0  0  0  0  0  0  0  0  0  0  0
   -2.1321   -2.2086    0.9112 C   0  0  0  0  0  0  0  0  0  0  0  0
   -1.2751   -2.8426    1.5112 O   0  0  0  0  0  0  0  0  0  0  0  0
   -1.9041   -1.0186    0.3602 N   0  0  0  0  0  0  0  0  0  0  0  0
   -2.6671   -0.5416   -0.0988 H   0  0  0  0  0  0  0  0  0  0  0  0
   -0.6131   -0.3236    0.3832 C   0  0  1  0  0  0  0  0  0  0  0  0
   -0.7700    0.7123    0.0784 H   0  0  0  0  0  0  0  0  0  0  0  0
   -0.0656   -0.3252    1.8224 C   0  0  0  0  0  0  0  0  0  0  0  0
   -0.0290   -1.3554    2.1829 H   0  0  0  0  0  0  0  0  0  0  0  0
    0.9505    0.0719    1.8212 H   0  0  0  0  0  0  0  0  0  0  0  0
   -0.9120    0.4978    2.8004 C   0  0  0  0  0  0  0  0  0  0  0  0
   -1.9227    0.0916    2.8277 H   0  0  0  0  0  0  0  0  0  0  0  0
   -0.4745    0.4168    3.7962 H   0  0  0  0  0  0  0  0  0  0  0  0
   -1.0230    2.2523    2.3658 S   0  0  0  0  0  0  0  0  0  0  0  0
    0.6849    2.7608    2.6920 C   0  0  0  0  0  0  0  0  0  0  0  0
    1.3652    2.1937    2.0559 H   0  0  0  0  0  0  0  0  0  0  0  0
    0.7931    3.8239    2.4753 H   0  0  0  0  0  0  0  0  0  0  0  0
    0.9283    2.5817    3.7396 H   0  0  0  0  0  0  0  0  0  0  0  0
    0.3633   -0.9715   -0.6088 C   0  0  0  0  0  0  0  0  0  0  0  0
    1.0373   -0.2683   -1.3589 O   0  0  0  0  0  0  0  0  0  0  0  0
    0.4334   -2.3088   -0.6196 N   0  0  0  0  0  0  0  0  0  0  0  0
   -0.1386   -2.8180    0.0351 H   0  0  0  0  0  0  0  0  0  0  0  0
    1.3011   -3.0734   -1.5141 C   0  0  0  0  0  0  0  0  0  0  0  0
    2.3404   -2.7711   -1.3654 H   0  0  0  0  0  0  0  0  0  0  0  0
    1.2058   -4.1416   -1.3149 H   0  0  0  0  0  0  0  0  0  0  0  0
    1.0283   -2.8733   -2.5518 H   0  0  0  0  0  0  0  0  0  0  0  0
  5  6  2  0  0  0  0
  5  7  1  0  0  0  0
  2  3  1  0  0  0  0
  2  4  1  0  0  0  0
  2  5  1  0  0  0  0
  1  2  1  0  0  0  0
 22 23  2  0  0  0  0
 22 24  1  0  0  0  0
 18 19  1  0  0  0  0
 18 20  1  0  0  0  0
 18 21  1  0  0  0  0
 17 18  1  0  0  0  0
 14 15  1  0  0  0  0
 14 16  1  0  0  0  0
 14 17  1  0  0  0  0
 11 12  1  0  0  0  0
 11 13  1  0  0  0  0
 11 14  1  0  0  0  0
  9 10  1  0  0  0  0
  9 11  1  0  0  0  0
  9 22  1  0  0  0  0
  7  8  1  0  0  0  0
  7  9  1  0  0  0  0
 26 27  1  0  0  0  0
 26 28  1  0  0  0  0
 26 29  1  0  0  0  0
 24 25  1  0  0  0  0
 24 26  1  0  0  0  0
M  END
$$$$
default_name
  -OEChem-01062215323D

 29 28  0     1  0  0  0  0  0999 V2000
   -3.5781   -3.7296    1.2702 H   0  0  0  0  0  0  0  0  0  0  0  0
   -3.5311   -2.7616    0.7732 C   0  0  0  0  0  0  0  0  0  0  0  0
   -4.2371   -2.0766    1.2382 H   0  0  0  0  0  0  0  0  0  0  0  0
   -3.7681   -2.8816   -0.2818 H   0  0  0  0  0  0  0  0  0  0  0  0
   -2.1321   -2.2086    0.9112 C   0  0  0  0  0  0  0  0  0  0  0  0
   -1.2751   -2.8426    1.5112 O   0  0  0  0  0  0  0  0  0  0  0  0
   -1.9041   -1.0186    0.3602 N   0  0  0  0  0  0  0  0  0  0  0  0
   -2.6671   -0.5416   -0.0988 H   0  0  0  0  0  0  0  0  0  0  0  0
   -0.6131   -0.3236    0.3832 C   0  0  1  0  0  0  0  0  0  0  0  0
   -0.7700    0.7123    0.0784 H   0  0  0  0  0  0  0  0  0  0  0  0
   -0.0656   -0.3252    1.8224 C   0  0  0  0  0  0  0  0  0  0  0  0
   -0.0290   -1.3554    2.1829 H   0  0  0  0  0  0  0  0  0  0  0  0
    0.9505    0.0719    1.8212 H   0  0  0  0  0  0  0  0  0  0  0  0
   -0.9120    0.4978    2.8004 C   0  0  0  0  0  0  0  0  0  0  0  0
   -1.9227    0.0916    2.8277 H   0  0  0  0  0  0  0  0  0  0  0  0
   -0.4745    0.4168    3.7962 H   0  0  0  0  0  0  0  0  0  0  0  0
   -1.0230    2.2523    2.3658 S   0  0  0  0  0  0  0  0  0  0  0  0
    0.6849    2.7608    2.6920 C   0  0  0  0  0  0  0  0  0  0  0  0
    1.3652    2.1937    2.0559 H   0  0  0  0  0  0  0  0  0  0  0  0
    0.7931    3.8239    2.4753 H   0  0  0  0  0  0  0  0  0  0  0  0
    0.9283    2.5817    3.7396 H   0  0  0  0  0  0  0  0  0  0  0  0
    0.3633   -0.9715   -0.6088 C   0  0  0  0  0  0  0  0  0  0  0  0
    1.2272   -0.2904   -1.1575 O   0  0  0  0  0  0  0  0  0  0  0  0
    0.2219   -2.2820   -0.8453 N   0  0  0  0  0  0  0  0  0  0  0  0
   -0.4997   -2.7778   -0.3466 H   0  0  0  0  0  0  0  0  0  0  0  0
    1.0614   -3.0394   -1.7724 C   0  0  0  0  0  0  0  0  0  0  0  0
    2.1090   -2.9519   -1.4751 H   0  0  0  0  0  0  0  0  0  0  0  0
    0.7746   -4.0918   -1.7719 H   0  0  0  0  0  0  0  0  0  0  0  0
    0.9536   -2.6356   -2.7806 H   0  0  0  0  0  0  0  0  0  0  0  0
  5  6  2  0  0  0  0
  5  7  1  0  0  0  0
  2  3  1  0  0  0  0
  2  4  1  0  0  0  0
  2  5  1  0  0  0  0
  1  2  1  0  0  0  0
 22 23  2  0  0  0  0
 22 24  1  0  0  0  0
 18 19  1  0  0  0  0
 18 20  1  0  0  0  0
 18 21  1  0  0  0  0
 17 18  1  0  0  0  0
 14 15  1  0  0  0  0
 14 16  1  0  0  0  0
 14 17  1  0  0  0  0
 11 12  1  0  0  0  0
 11 13  1  0  0  0  0
 11 14  1  0  0  0  0
  9 10  1  0  0  0  0
  9 11  1  0  0  0  0
  9 22  1  0  0  0  0
  7  8  1  0  0  0  0
  7  9  1  0  0  0  0
 26 27  1  0  0  0  0
 26 28  1  0  0  0  0
 26 29  1  0  0  0  0
 24 25  1  0  0  0  0
 24 26  1  0  0  0  0
M  END
$$$$
default_name
  -OEChem-01062215323D

 29 28  0     1  0  0  0  0  0999 V2000
   -3.5781   -3.7296    1.2702 H   0  0  0  0  0  0  0  0  0  0  0  0
   -3.5311   -2.7616    0.7732 C   0  0  0  0  0  0  0  0  0  0  0  0
   -4.2371   -2.0766    1.2382 H   0  0  0  0  0  0  0  0  0  0  0  0
   -3.7681   -2.8816   -0.2818 H   0  0  0  0  0  0  0  0  0  0  0  0
   -2.1321   -2.2086    0.9112 C   0  0  0  0  0  0  0  0  0  0  0  0
   -1.2751   -2.8426    1.5112 O   0  0  0  0  0  0  0  0  0  0  0  0
   -1.9041   -1.0186    0.3602 N   0  0  0  0  0  0  0  0  0  0  0  0
   -2.6671   -0.5416   -0.0988 H   0  0  0  0  0  0  0  0  0  0  0  0
   -0.6131   -0.3236    0.3832 C   0  0  1  0  0  0  0  0  0  0  0  0
   -0.7700    0.7123    0.0784 H   0  0  0  0  0  0  0  0  0  0  0  0
   -0.0656   -0.3252    1.8224 C   0  0  0  0  0  0  0  0  0  0  0  0
   -0.0290   -1.3554    2.1829 H   0  0  0  0  0  0  0  0  0  0  0  0
    0.9505    0.0719    1.8212 H   0  0  0  0  0  0  0  0  0  0  0  0
   -0.9120    0.4978    2.8004 C   0  0  0  0  0  0  0  0  0  0  0  0
   -1.9227    0.0916    2.8277 H   0  0  0  0  0  0  0  0  0  0  0  0
   -0.4745    0.4168    3.7962 H   0  0  0  0  0  0  0  0  0  0  0  0
   -1.0230    2.2523    2.3658 S   0  0  0  0  0  0  0  0  0  0  0  0
    0.6849    2.7608    2.6920 C   0  0  0  0  0  0  0  0  0  0  0  0
    1.3652    2.1937    2.0559 H   0  0  0  0  0  0  0  0  0  0  0  0
    0.7931    3.8239    2.4753 H   0  0  0  0  0  0  0  0  0  0  0  0
    0.9283    2.5817    3.7396 H   0  0  0  0  0  0  0  0  0  0  0  0
    0.3633   -0.9715   -0.6088 C   0  0  0  0  0  0  0  0  0  0  0  0
    1.3849   -0.3766   -0.9460 O   0  0  0  0  0  0  0  0  0  0  0  0
    0.0467   -2.1836   -1.0820 N   0  0  0  0  0  0  0  0  0  0  0  0
   -0.8000   -2.6157   -0.7481 H   0  0  0  0  0  0  0  0  0  0  0  0
    0.8637   -2.9239   -2.0424 C   0  0  0  0  0  0  0  0  0  0  0  0
    1.8673   -3.0698   -1.6360 H   0  0  0  0  0  0  0  0  0  0  0  0
    0.4163   -3.8963   -2.2523 H   0  0  0  0  0  0  0  0  0  0  0  0
    0.9461   -2.3557   -2.9707 H   0  0  0  0  0  0  0  0  0  0  0  0
  5  6  2  0  0  0  0
  5  7  1  0  0  0  0
  2  3  1  0  0  0  0
  2  4  1  0  0  0  0
  2  5  1  0  0  0  0
  1  2  1  0  0  0  0
 22 23  2  0  0  0  0
 22 24  1  0  0  0  0
 18 19  1  0  0  0  0
 18 20  1  0  0  0  0
 18 21  1  0  0  0  0
 17 18  1  0  0  0  0
 14 15  1  0  0  0  0
 14 16  1  0  0  0  0
 14 17  1  0  0  0  0
 11 12  1  0  0  0  0
 11 13  1  0  0  0  0
 11 14  1  0  0  0  0
  9 10  1  0  0  0  0
  9 11  1  0  0  0  0
  9 22  1  0  0  0  0
  7  8  1  0  0  0  0
  7  9  1  0  0  0  0
 26 27  1  0  0  0  0
 26 28  1  0  0  0  0
 26 29  1  0  0  0  0
 24 25  1  0  0  0  0
 24 26  1  0  0  0  0
M  END
$$$$
default_name
  -OEChem-01062215323D

 29 28  0     1  0  0  0  0  0999 V2000
   -3.5781   -3.7296    1.2702 H   0  0  0  0  0  0  0  0  0  0  0  0
   -3.5311   -2.7616    0.7732 C   0  0  0  0  0  0  0  0  0  0  0  0
   -4.2371   -2.0766    1.2382 H   0  0  0  0  0  0  0  0  0  0  0  0
   -3.7681   -2.8816   -0.2818 H   0  0  0  0  0  0  0  0  0  0  0  0
   -2.1321   -2.2086    0.9112 C   0  0  0  0  0  0  0  0  0  0  0  0
   -1.2751   -2.8426    1.5112 O   0  0  0  0  0  0  0  0  0  0  0  0
   -1.9041   -1.0186    0.3602 N   0  0  0  0  0  0  0  0  0  0  0  0
   -2.6671   -0.5416   -0.0988 H   0  0  0  0  0  0  0  0  0  0  0  0
   -0.6131   -0.3236    0.3832 C   0  0  1  0  0  0  0  0  0  0  0  0
   -0.7700    0.7123    0.0784 H   0  0  0  0  0  0  0  0  0  0  0  0
   -0.0656   -0.3252    1.8224 C   0  0  0  0  0  0  0  0  0  0  0  0
   -0.0290   -1.3554    2.1829 H   0  0  0  0  0  0  0  0  0  0  0  0
    0.9505    0.0719    1.8212 H   0  0  0  0  0  0  0  0  0  0  0  0
   -0.9120    0.4978    2.8004 C   0  0  0  0  0  0  0  0  0  0  0  0
   -1.9227    0.0916    2.8277 H   0  0  0  0  0  0  0  0  0  0  0  0
   -0.4745    0.4168    3.7962 H   0  0  0  0  0  0  0  0  0  0  0  0
   -1.0230    2.2523    2.3658 S   0  0  0  0  0  0  0  0  0  0  0  0
    0.6849    2.7608    2.6920 C   0  0  0  0  0  0  0  0  0  0  0  0
    1.3652    2.1937    2.0559 H   0  0  0  0  0  0  0  0  0  0  0  0
    0.7931    3.8239    2.4753 H   0  0  0  0  0  0  0  0  0  0  0  0
    0.9283    2.5817    3.7396 H   0  0  0  0  0  0  0  0  0  0  0  0
    0.3633   -0.9715   -0.6088 C   0  0  0  0  0  0  0  0  0  0  0  0
    1.4998   -0.5211   -0.7385 O   0  0  0  0  0  0  0  0  0  0  0  0
   -0.0802   -2.0203   -1.3135 N   0  0  0  0  0  0  0  0  0  0  0  0
   -1.0192   -2.3428   -1.1420 H   0  0  0  0  0  0  0  0  0  0  0  0
    0.7215   -2.7348   -2.3058 C   0  0  0  0  0  0  0  0  0  0  0  0
    1.6316   -3.1167   -1.8373 H   0  0  0  0  0  0  0  0  0  0  0  0
    0.1553   -3.5685   -2.7232 H   0  0  0  0  0  0  0  0  0  0  0  0
    1.0065   -2.0529   -3.1090 H   0  0  0  0  0  0  0  0  0  0  0  0
  5  6  2  0  0  0  0
  5  7  1  0  0  0  0
  2  3  1  0  0  0  0
  2  4  1  0  0  0  0
  2  5  1  0  0  0  0
  1  2  1  0  0  0  0
 22 23  2  0  0  0  0
 22 24  1  0  0  0  0
 18 19  1  0  0  0  0
 18 20  1  0  0  0  0
 18 21  1  0  0  0  0
 17 18  1  0  0  0  0
 14 15  1  0  0  0  0
 14 16  1  0  0  0  0
 14 17  1  0  0  0  0
 11 12  1  0  0  0  0
 11 13  1  0  0  0  0
 11 14  1  0  0  0  0
  9 10  1  0  0  0  0
  9 11  1  0  0  0  0
  9 22  1  0  0  0  0
  7  8  1  0  0  0  0
  7  9  1  0  0  0  0
 26 27  1  0  0  0  0
 26 28  1  0  0  0  0
 26 29  1  0  0  0  0
 24 25  1  0  0  0  0
 24 26  1  0  0  0  0
M  END
$$$$
default_name
  -OEChem-01062215323D

 29 28  0     1  0  0  0  0  0999 V2000
   -3.5781   -3.7296    1.2702 H   0  0  0  0  0  0  0  0  0  0  0  0
   -3.5311   -2.7616    0.7732 C   0  0  0  0  0  0  0  0  0  0  0  0
   -4.2371   -2.0766    1.2382 H   0  0  0  0  0  0  0  0  0  0  0  0
   -3.7681   -2.8816   -0.2818 H   0  0  0  0  0  0  0  0  0  0  0  0
   -2.1321   -2.2086    0.9112 C   0  0  0  0  0  0  0  0  0  0  0  0
   -1.2751   -2.8426    1.5112 O   0  0  0  0  0  0  0  0  0  0  0  0
   -1.9041   -1.0186    0.3602 N   0  0  0  0  0  0  0  0  0  0  0  0
   -2.6671   -0.5416   -0.0988 H   0  0  0  0  0  0  0  0  0  0  0  0
   -0.6131   -0.3236    0.3832 C   0  0  1  0  0  0  0  0  0  0  0  0
   -0.7700    0.7123    0.0784 H   0  0  0  0  0  0  0  0  0  0  0  0
   -0.0656   -0.3252    1.8224 C   0  0  0  0  0  0  0  0  0  0  0  0
   -0.0290   -1.3554    2.1829 H   0  0  0  0  0  0  0  0  0  0  0  0
    0.9505    0.0719    1.8212 H   0  0  0  0  0  0  0  0  0  0  0  0
   -0.9120    0.4978    2.8004 C   0  0  0  0  0  0  0  0  0  0  0  0
   -1.9227    0.0916    2.8277 H   0  0  0  0  0  0  0  0  0  0  0  0
   -0.4745    0.4168    3.7962 H   0  0  0  0  0  0  0  0  0  0  0  0
   -1.0230    2.2523    2.3658 S   0  0  0  0  0  0  0  0  0  0  0  0
    0.6849    2.7608    2.6920 C   0  0  0  0  0  0  0  0  0  0  0  0
    1.3652    2.1937    2.0559 H   0  0  0  0  0  0  0  0  0  0  0  0
    0.7931    3.8239    2.4753 H   0  0  0  0  0  0  0  0  0  0  0  0
    0.9283    2.5817    3.7396 H   0  0  0  0  0  0  0  0  0  0  0  0
    0.3633   -0.9715   -0.6088 C   0  0  0  0  0  0  0  0  0  0  0  0
    1.5639   -0.7140   -0.5494 O   0  0  0  0  0  0  0  0  0  0  0  0
   -0.1502   -1.8033   -1.5241 N   0  0  0  0  0  0  0  0  0  0  0  0
   -1.1422   -1.9778   -1.5015 H   0  0  0  0  0  0  0  0  0  0  0  0
    0.6446   -2.4850   -2.5446 C   0  0  0  0  0  0  0  0  0  0  0  0
    1.4181   -3.0895   -2.0652 H   0  0  0  0  0  0  0  0  0  0  0  0
    0.0096   -3.1307   -3.1526 H   0  0  0  0  0  0  0  0  0  0  0  0
    1.1306   -1.7478   -3.1862 H   0  0  0  0  0  0  0  0  0  0  0  0
  5  6  2  0  0  0  0
  5  7  1  0  0  0  0
  2  3  1  0  0  0  0
  2  4  1  0  0  0  0
  2  5  1  0  0  0  0
  1  2  1  0  0  0  0
 22 23  2  0  0  0  0
 22 24  1  0  0  0  0
 18 19  1  0  0  0  0
 18 20  1  0  0  0  0
 18 21  1  0  0  0  0
 17 18  1  0  0  0  0
 14 15  1  0  0  0  0
 14 16  1  0  0  0  0
 14 17  1  0  0  0  0
 11 12  1  0  0  0  0
 11 13  1  0  0  0  0
 11 14  1  0  0  0  0
  9 10  1  0  0  0  0
  9 11  1  0  0  0  0
  9 22  1  0  0  0  0
  7  8  1  0  0  0  0
  7  9  1  0  0  0  0
 26 27  1  0  0  0  0
 26 28  1  0  0  0  0
 26 29  1  0  0  0  0
 24 25  1  0  0  0  0
 24 26  1  0  0  0  0
M  END
$$$$
default_name
  -OEChem-01062215323D

 29 28  0     1  0  0  0  0  0999 V2000
   -3.5781   -3.7296    1.2702 H   0  0  0  0  0  0  0  0  0  0  0  0
   -3.5311   -2.7616    0.7732 C   0  0  0  0  0  0  0  0  0  0  0  0
   -4.2371   -2.0766    1.2382 H   0  0  0  0  0  0  0  0  0  0  0  0
   -3.7681   -2.8816   -0.2818 H   0  0  0  0  0  0  0  0  0  0  0  0
   -2.1321   -2.2086    0.9112 C   0  0  0  0  0  0  0  0  0  0  0  0
   -1.2751   -2.8426    1.5112 O   0  0  0  0  0  0  0  0  0  0  0  0
   -1.9041   -1.0186    0.3602 N   0  0  0  0  0  0  0  0  0  0  0  0
   -2.6671   -0.5416   -0.0988 H   0  0  0  0  0  0  0  0  0  0  0  0
   -0.6131   -0.3236    0.3832 C   0  0  1  0  0  0  0  0  0  0  0  0
   -0.7700    0.7123    0.0784 H   0  0  0  0  0  0  0  0  0  0  0  0
   -0.0656   -0.3252    1.8224 C   0  0  0  0  0  0  0  0  0  0  0  0
   -0.0290   -1.3554    2.1829 H   0  0  0  0  0  0  0  0  0  0  0  0
    0.9505    0.0719    1.8212 H   0  0  0  0  0  0  0  0  0  0  0  0
   -0.9120    0.4978    2.8004 C   0  0  0  0  0  0  0  0  0  0  0  0
   -1.9227    0.0916    2.8277 H   0  0  0  0  0  0  0  0  0  0  0  0
   -0.4745    0.4168    3.7962 H   0  0  0  0  0  0  0  0  0  0  0  0
   -1.0230    2.2523    2.3658 S   0  0  0  0  0  0  0  0  0  0  0  0
    0.6849    2.7608    2.6920 C   0  0  0  0  0  0  0  0  0  0  0  0
    1.3652    2.1937    2.0559 H   0  0  0  0  0  0  0  0  0  0  0  0
    0.7931    3.8239    2.4753 H   0  0  0  0  0  0  0  0  0  0  0  0
    0.9283    2.5817    3.7396 H   0  0  0  0  0  0  0  0  0  0  0  0
    0.3633   -0.9715   -0.6088 C   0  0  0  0  0  0  0  0  0  0  0  0
    1.5729   -0.9422   -0.3915 O   0  0  0  0  0  0  0  0  0  0  0  0
   -0.1584   -1.5473   -1.6995 N   0  0  0  0  0  0  0  0  0  0  0  0
   -1.1607   -1.5454   -1.8021 H   0  0  0  0  0  0  0  0  0  0  0  0
    0.6382   -2.1916   -2.7426 C   0  0  0  0  0  0  0  0  0  0  0  0
    1.2413   -2.9901   -2.3041 H   0  0  0  0  0  0  0  0  0  0  0  0
   -0.0112   -2.6127   -3.5113 H   0  0  0  0  0  0  0  0  0  0  0  0
    1.3099   -1.4611   -3.1970 H   0  0  0  0  0  0  0  0  0  0  0  0
  5  6  2  0  0  0  0
  5  7  1  0  0  0  0
  2  3  1  0  0  0  0
  2  4  1  0  0  0  0
  2  5  1  0  0  0  0
  1  2  1  0  0  0  0
 22 23  2  0  0  0  0
 22 24  1  0  0  0  0
 18 19  1  0  0  0  0
 18 20  1  0  0  0  0
 18 21  1  0  0  0  0
 17 18  1  0  0  0  0
 14 15  1  0  0  0  0
 14 16  1  0  0  0  0
 14 17  1  0  0  0  0
 11 12  1  0  0  0  0
 11 13  1  0  0  0  0
 11 14  1  0  0  0  0
  9 10  1  0  0  0  0
  9 11  1  0  0  0  0
  9 22  1  0  0  0  0
  7  8  1  0  0  0  0
  7  9  1  0  0  0  0
 26 27  1  0  0  0  0
 26 28  1  0  0  0  0
 26 29  1  0  0  0  0
 24 25  1  0  0  0  0
 24 26  1  0  0  0  0
M  END
$$$$
default_name
  -OEChem-01062215323D

 29 28  0     1  0  0  0  0  0999 V2000
   -3.5781   -3.7296    1.2702 H   0  0  0  0  0  0  0  0  0  0  0  0
   -3.5311   -2.7616    0.7732 C   0  0  0  0  0  0  0  0  0  0  0  0
   -4.2371   -2.0766    1.2382 H   0  0  0  0  0  0  0  0  0  0  0  0
   -3.7681   -2.8816   -0.2818 H   0  0  0  0  0  0  0  0  0  0  0  0
   -2.1321   -2.2086    0.9112 C   0  0  0  0  0  0  0  0  0  0  0  0
   -1.2751   -2.8426    1.5112 O   0  0  0  0  0  0  0  0  0  0  0  0
   -1.9041   -1.0186    0.3602 N   0  0  0  0  0  0  0  0  0  0  0  0
   -2.6671   -0.5416   -0.0988 H   0  0  0  0  0  0  0  0  0  0  0  0
   -0.6131   -0.3236    0.3832 C   0  0  1  0  0  0  0  0  0  0  0  0
   -0.7700    0.7123    0.0784 H   0  0  0  0  0  0  0  0  0  0  0  0
   -0.0656   -0.3252    1.8224 C   0  0  0  0  0  0  0  0  0  0  0  0
   -0.0290   -1.3554    2.1829 H   0  0  0  0  0  0  0  0  0  0  0  0
    0.9505    0.0719    1.8212 H   0  0  0  0  0  0  0  0  0  0  0  0
   -0.9120    0.4978    2.8004 C   0  0  0  0  0  0  0  0  0  0  0  0
   -1.9227    0.0916    2.8277 H   0  0  0  0  0  0  0  0  0  0  0  0
   -0.4745    0.4168    3.7962 H   0  0  0  0  0  0  0  0  0  0  0  0
   -1.0230    2.2523    2.3658 S   0  0  0  0  0  0  0  0  0  0  0  0
    0.6849    2.7608    2.6920 C   0  0  0  0  0  0  0  0  0  0  0  0
    1.3652    2.1937    2.0559 H   0  0  0  0  0  0  0  0  0  0  0  0
    0.7931    3.8239    2.4753 H   0  0  0  0  0  0  0  0  0  0  0  0
    0.9283    2.5817    3.7396 H   0  0  0  0  0  0  0  0  0  0  0  0
    0.3633   -0.9715   -0.6088 C   0  0  0  0  0  0  0  0  0  0  0  0
    1.5263   -1.1901   -0.2756 O   0  0  0  0  0  0  0  0  0  0  0  0
   -0.1045   -1.2697   -1.8277 N   0  0  0  0  0  0  0  0  0  0  0  0
   -1.0735   -1.0752   -2.0234 H   0  0  0  0  0  0  0  0  0  0  0  0
    0.7026   -1.8745   -2.8862 C   0  0  0  0  0  0  0  0  0  0  0  0
    1.1133   -2.8251   -2.5379 H   0  0  0  0  0  0  0  0  0  0  0  0
    0.0946   -2.0499   -3.7747 H   0  0  0  0  0  0  0  0  0  0  0  0
    1.5322   -1.2123   -3.1406 H   0  0  0  0  0  0  0  0  0  0  0  0
  5  6  2  0  0  0  0
  5  7  1  0  0  0  0
  2  3  1  0  0  0  0
  2  4  1  0  0  0  0
  2  5  1  0  0  0  0
  1  2  1  0  0  0  0
 22 23  2  0  0  0  0
 22 24  1  0  0  0  0
 18 19  1  0  0  0  0
 18 20  1  0  0  0  0
 18 21  1  0  0  0  0
 17 18  1  0  0  0  0
 14 15  1  0  0  0  0
 14 16  1  0  0  0  0
 14 17  1  0  0  0  0
 11 12  1  0  0  0  0
 11 13  1  0  0  0  0
 11 14  1  0  0  0  0
  9 10  1  0  0  0  0
  9 11  1  0  0  0  0
  9 22  1  0  0  0  0
  7  8  1  0  0  0  0
  7  9  1  0  0  0  0
 26 27  1  0  0  0  0
 26 28  1  0  0  0  0
 26 29  1  0  0  0  0
 24 25  1  0  0  0  0
 24 26  1  0  0  0  0
M  END
$$$$
default_name
  -OEChem-01062215323D

 29 28  0     1  0  0  0  0  0999 V2000
   -3.5781   -3.7296    1.2702 H   0  0  0  0  0  0  0  0  0  0  0  0
   -3.5311   -2.7616    0.7732 C   0  0  0  0  0  0  0  0  0  0  0  0
   -4.2371   -2.0766    1.2382 H   0  0  0  0  0  0  0  0  0  0  0  0
   -3.7681   -2.8816   -0.2818 H   0  0  0  0  0  0  0  0  0  0  0  0
   -2.1321   -2.2086    0.9112 C   0  0  0  0  0  0  0  0  0  0  0  0
   -1.2751   -2.8426    1.5112 O   0  0  0  0  0  0  0  0  0  0  0  0
   -1.9041   -1.0186    0.3602 N   0  0  0  0  0  0  0  0  0  0  0  0
   -2.6671   -0.5416   -0.0988 H   0  0  0  0  0  0  0  0  0  0  0  0
   -0.6131   -0.3236    0.3832 C   0  0  1  0  0  0  0  0  0  0  0  0
   -0.7700    0.7123    0.0784 H   0  0  0  0  0  0  0  0  0  0  0  0
   -0.0656   -0.3252    1.8224 C   0  0  0  0  0  0  0  0  0  0  0  0
   -0.0290   -1.3554    2.1829 H   0  0  0  0  0  0  0  0  0  0  0  0
    0.9505    0.0719    1.8212 H   0  0  0  0  0  0  0  0  0  0  0  0
   -0.9120    0.4978    2.8004 C   0  0  0  0  0  0  0  0  0  0  0  0
   -1.9227    0.0916    2.8277 H   0  0  0  0  0  0  0  0  0  0  0  0
   -0.4745    0.4168    3.7962 H   0  0  0  0  0  0  0  0  0  0  0  0
   -1.0230    2.2523    2.3658 S   0  0  0  0  0  0  0  0  0  0  0  0
    0.6849    2.7608    2.6920 C   0  0  0  0  0  0  0  0  0  0  0  0
    1.3652    2.1937    2.0559 H   0  0  0  0  0  0  0  0  0  0  0  0
    0.7931    3.8239    2.4753 H   0  0  0  0  0  0  0  0  0  0  0  0
    0.9283    2.5817    3.7396 H   0  0  0  0  0  0  0  0  0  0  0  0
    0.3633   -0.9715   -0.6088 C   0  0  0  0  0  0  0  0  0  0  0  0
    1.4270   -1.4408   -0.2094 O   0  0  0  0  0  0  0  0  0  0  0  0
    0.0081   -0.9896   -1.8999 N   0  0  0  0  0  0  0  0  0  0  0  0
   -0.8864   -0.5992   -2.1501 H   0  0  0  0  0  0  0  0  0  0  0  0
    0.8336   -1.5553   -2.9657 C   0  0  0  0  0  0  0  0  0  0  0  0
    1.0428   -2.6058   -2.7505 H   0  0  0  0  0  0  0  0  0  0  0  0
    0.3197   -1.4806   -3.9250 H   0  0  0  0  0  0  0  0  0  0  0  0
    1.7824   -1.0185   -3.0210 H   0  0  0  0  0  0  0  0  0  0  0  0
  5  6  2  0  0  0  0
  5  7  1  0  0  0  0
  2  3  1  0  0  0  0
  2  4  1  0  0  0  0
  2  5  1  0  0  0  0
  1  2  1  0  0  0  0
 22 23  2  0  0  0  0
 22 24  1  0  0  0  0
 18 19  1  0  0  0  0
 18 20  1  0  0  0  0
 18 21  1  0  0  0  0
 17 18  1  0  0  0  0
 14 15  1  0  0  0  0
 14 16  1  0  0  0  0
 14 17  1  0  0  0  0
 11 12  1  0  0  0  0
 11 13  1  0  0  0  0
 11 14  1  0  0  0  0
  9 10  1  0  0  0  0
  9 11  1  0  0  0  0
  9 22  1  0  0  0  0
  7  8  1  0  0  0  0
  7  9  1  0  0  0  0
 26 27  1  0  0  0  0
 26 28  1  0  0  0  0
 26 29  1  0  0  0  0
 24 25  1  0  0  0  0
 24 26  1  0  0  0  0
M  END
$$$$
default_name
  -OEChem-01062215323D

 29 28  0     1  0  0  0  0  0999 V2000
   -3.5781   -3.7296    1.2702 H   0  0  0  0  0  0  0  0  0  0  0  0
   -3.5311   -2.7616    0.7732 C   0  0  0  0  0  0  0  0  0  0  0  0
   -4.2371   -2.0766    1.2382 H   0  0  0  0  0  0  0  0  0  0  0  0
   -3.7681   -2.8816   -0.2818 H   0  0  0  0  0  0  0  0  0  0  0  0
   -2.1321   -2.2086    0.9112 C   0  0  0  0  0  0  0  0  0  0  0  0
   -1.2751   -2.8426    1.5112 O   0  0  0  0  0  0  0  0  0  0  0  0
   -1.9041   -1.0186    0.3602 N   0  0  0  0  0  0  0  0  0  0  0  0
   -2.6671   -0.5416   -0.0988 H   0  0  0  0  0  0  0  0  0  0  0  0
   -0.6131   -0.3236    0.3832 C   0  0  1  0  0  0  0  0  0  0  0  0
   -0.7700    0.7123    0.0784 H   0  0  0  0  0  0  0  0  0  0  0  0
   -0.0656   -0.3252    1.8224 C   0  0  0  0  0  0  0  0  0  0  0  0
   -0.0290   -1.3554    2.1829 H   0  0  0  0  0  0  0  0  0  0  0  0
    0.9505    0.0719    1.8212 H   0  0  0  0  0  0  0  0  0  0  0  0
   -0.9120    0.4978    2.8004 C   0  0  0  0  0  0  0  0  0  0  0  0
   -1.9227    0.0916    2.8277 H   0  0  0  0  0  0  0  0  0  0  0  0
   -0.4745    0.4168    3.7962 H   0  0  0  0  0  0  0  0  0  0  0  0
   -1.0230    2.2523    2.3658 S   0  0  0  0  0  0  0  0  0  0  0  0
    0.6849    2.7608    2.6920 C   0  0  0  0  0  0  0  0  0  0  0  0
    1.3652    2.1937    2.0559 H   0  0  0  0  0  0  0  0  0  0  0  0
    0.7931    3.8239    2.4753 H   0  0  0  0  0  0  0  0  0  0  0  0
    0.9283    2.5817    3.7396 H   0  0  0  0  0  0  0  0  0  0  0  0
    0.3633   -0.9715   -0.6088 C   0  0  0  0  0  0  0  0  0  0  0  0
    1.2821   -1.6773   -0.1977 O   0  0  0  0  0  0  0  0  0  0  0  0
    0.1715   -0.7259   -1.9112 N   0  0  0  0  0  0  0  0  0  0  0  0
   -0.6123   -0.1498   -2.1738 H   0  0  0  0  0  0  0  0  0  0  0  0
    1.0222   -1.2559   -2.9757 C   0  0  0  0  0  0  0  0  0  0  0  0
    1.0345   -2.3473   -2.9275 H   0  0  0  0  0  0  0  0  0  0  0  0
    0.6487   -0.9436   -3.9518 H   0  0  0  0  0  0  0  0  0  0  0  0
    2.0434   -0.8929   -2.8461 H   0  0  0  0  0  0  0  0  0  0  0  0
  5  6  2  0  0  0  0
  5  7  1  0  0  0  0
  2  3  1  0  0  0  0
  2  4  1  0  0  0  0
  2  5  1  0  0  0  0
  1  2  1  0  0  0  0
 22 23  2  0  0  0  0
 22 24  1  0  0  0  0
 18 19  1  0  0  0  0
 18 20  1  0  0  0  0
 18 21  1  0  0  0  0
 17 18  1  0  0  0  0
 14 15  1  0  0  0  0
 14 16  1  0  0  0  0
 14 17  1  0  0  0  0
 11 12  1  0  0  0  0
 11 13  1  0  0  0  0
 11 14  1  0  0  0  0
  9 10  1  0  0  0  0
  9 11  1  0  0  0  0
  9 22  1  0  0  0  0
  7  8  1  0  0  0  0
  7  9  1  0  0  0  0
 26 27  1  0  0  0  0
 26 28  1  0  0  0  0
 26 29  1  0  0  0  0
 24 25  1  0  0  0  0
 24 26  1  0  0  0  0
M  END
$$$$
default_name
  -OEChem-01062215323D

 29 28  0     1  0  0  0  0  0999 V2000
   -3.5781   -3.7296    1.2702 H   0  0  0  0  0  0  0  0  0  0  0  0
   -3.5311   -2.7616    0.7732 C   0  0  0  0  0  0  0  0  0  0  0  0
   -4.2371   -2.0766    1.2382 H   0  0  0  0  0  0  0  0  0  0  0  0
   -3.7681   -2.8816   -0.2818 H   0  0  0  0  0  0  0  0  0  0  0  0
   -2.1321   -2.2086    0.9112 C   0  0  0  0  0  0  0  0  0  0  0  0
   -1.2751   -2.8426    1.5112 O   0  0  0  0  0  0  0  0  0  0  0  0
   -1.9041   -1.0186    0.3602 N   0  0  0  0  0  0  0  0  0  0  0  0
   -2.6671   -0.5416   -0.0988 H   0  0  0  0  0  0  0  0  0  0  0  0
   -0.6131   -0.3236    0.3832 C   0  0  1  0  0  0  0  0  0  0  0  0
   -0.7700    0.7123    0.0784 H   0  0  0  0  0  0  0  0  0  0  0  0
   -0.0656   -0.3252    1.8224 C   0  0  0  0  0  0  0  0  0  0  0  0
   -0.0290   -1.3554    2.1829 H   0  0  0  0  0  0  0  0  0  0  0  0
    0.9505    0.0719    1.8212 H   0  0  0  0  0  0  0  0  0  0  0  0
   -0.9120    0.4978    2.8004 C   0  0  0  0  0  0  0  0  0  0  0  0
   -1.9227    0.0916    2.8277 H   0  0  0  0  0  0  0  0  0  0  0  0
   -0.4745    0.4168    3.7962 H   0  0  0  0  0  0  0  0  0  0  0  0
   -1.0230    2.2523    2.3658 S   0  0  0  0  0  0  0  0  0  0  0  0
    0.6849    2.7608    2.6920 C   0  0  0  0  0  0  0  0  0  0  0  0
    1.3652    2.1937    2.0559 H   0  0  0  0  0  0  0  0  0  0  0  0
    0.7931    3.8239    2.4753 H   0  0  0  0  0  0  0  0  0  0  0  0
    0.9283    2.5817    3.7396 H   0  0  0  0  0  0  0  0  0  0  0  0
    0.3633   -0.9715   -0.6088 C   0  0  0  0  0  0  0  0  0  0  0  0
    1.1012   -1.8834   -0.2411 O   0  0  0  0  0  0  0  0  0  0  0  0
    0.3747   -0.4966   -1.8609 N   0  0  0  0  0  0  0  0  0  0  0  0
   -0.2698    0.2423   -2.0928 H   0  0  0  0  0  0  0  0  0  0  0  0
    1.2555   -0.9965   -2.9154 C   0  0  0  0  0  0  0  0  0  0  0  0
    1.0891   -2.0670   -3.0568 H   0  0  0  0  0  0  0  0  0  0  0  0
    1.0593   -0.4756   -3.8535 H   0  0  0  0  0  0  0  0  0  0  0  0
    2.2974   -0.8439   -2.6281 H   0  0  0  0  0  0  0  0  0  0  0  0
  5  6  2  0  0  0  0
  5  7  1  0  0  0  0
  2  3  1  0  0  0  0
  2  4  1  0  0  0  0
  2  5  1  0  0  0  0
  1  2  1  0  0  0  0
 22 23  2  0  0  0  0
 22 24  1  0  0  0  0
 18 19  1  0  0  0  0
 18 20  1  0  0  0  0
 18 21  1  0  0  0  0
 17 18  1  0  0  0  0
 14 15  1  0  0  0  0
 14 16  1  0  0  0  0
 14 17  1  0  0  0  0
 11 12  1  0  0  0  0
 11 13  1  0  0  0  0
 11 14  1  0  0  0  0
  9 10  1  0  0  0  0
  9 11  1  0  0  0  0
  9 22  1  0  0  0  0
  7  8  1  0  0  0  0
  7  9  1  0  0  0  0
 26 27  1  0  0  0  0
 26 28  1  0  0  0  0
 26 29  1  0  0  0  0
 24 25  1  0  0  0  0
 24 26  1  0  0  0  0
M  END
$$$$
default_name
  -OEChem-01062215323D

 29 28  0     1  0  0  0  0  0999 V2000
   -3.5781   -3.7296    1.2702 H   0  0  0  0  0  0  0  0  0  0  0  0
   -3.5311   -2.7616    0.7732 C   0  0  0  0  0  0  0  0  0  0  0  0
   -4.2371   -2.0766    1.2382 H   0  0  0  0  0  0  0  0  0  0  0  0
   -3.7681   -2.8816   -0.2818 H   0  0  0  0  0  0  0  0  0  0  0  0
   -2.1321   -2.2086    0.9112 C   0  0  0  0  0  0  0  0  0  0  0  0
   -1.2751   -2.8426    1.5112 O   0  0  0  0  0  0  0  0  0  0  0  0
   -1.9041   -1.0186    0.3602 N   0  0  0  0  0  0  0  0  0  0  0  0
   -2.6671   -0.5416   -0.0988 H   0  0  0  0  0  0  0  0  0  0  0  0
   -0.6131   -0.3236    0.3832 C   0  0  1  0  0  0  0  0  0  0  0  0
   -0.7700    0.7123    0.0784 H   0  0  0  0  0  0  0  0  0  0  0  0
   -0.0656   -0.3252    1.8224 C   0  0  0  0  0  0  0  0  0  0  0  0
   -0.0290   -1.3554    2.1829 H   0  0  0  0  0  0  0  0  0  0  0  0
    0.9505    0.0719    1.8212 H   0  0  0  0  0  0  0  0  0  0  0  0
   -0.9120    0.4978    2.8004 C   0  0  0  0  0  0  0  0  0  0  0  0
   -1.9227    0.0916    2.8277 H   0  0  0  0  0  0  0  0  0  0  0  0
   -0.4745    0.4168    3.7962 H   0  0  0  0  0  0  0  0  0  0  0  0
   -1.0230    2.2523    2.3658 S   0  0  0  0  0  0  0  0  0  0  0  0
    0.6849    2.7608    2.6920 C   0  0  0  0  0  0  0  0  0  0  0  0
    1.3652    2.1937    2.0559 H   0  0  0  0  0  0  0  0  0  0  0  0
    0.7931    3.8239    2.4753 H   0  0  0  0  0  0  0  0  0  0  0  0
    0.9283    2.5817    3.7396 H   0  0  0  0  0  0  0  0  0  0  0  0
    0.3633   -0.9715   -0.6088 C   0  0  0  0  0  0  0  0  0  0  0  0
    0.8967   -2.0451   -0.3367 O   0  0  0  0  0  0  0  0  0  0  0  0
    0.6038   -0.3175   -1.7524 N   0  0  0  0  0  0  0  0  0  0  0  0
    0.1178    0.5504   -1.9125 H   0  0  0  0  0  0  0  0  0  0  0  0
    1.5177   -0.7949   -2.7891 C   0  0  0  0  0  0  0  0  0  0  0  0
    1.2029   -1.7841   -3.1296 H   0  0  0  0  0  0  0  0  0  0  0  0
    1.5234   -0.1083   -3.6366 H   0  0  0  0  0  0  0  0  0  0  0  0
    2.5271   -0.8750   -2.3817 H   0  0  0  0  0  0  0  0  0  0  0  0
  5  6  2  0  0  0  0
  5  7  1  0  0  0  0
  2  3  1  0  0  0  0
  2  4  1  0  0  0  0
  2  5  1  0  0  0  0
  1  2  1  0  0  0  0
 22 23  2  0  0  0  0
 22 24  1  0  0  0  0
 18 19  1  0  0  0  0
 18 20  1  0  0  0  0
 18 21  1  0  0  0  0
 17 18  1  0  0  0  0
 14 15  1  0  0  0  0
 14 16  1  0  0  0  0
 14 17  1  0  0  0  0
 11 12  1  0  0  0  0
 11 13  1  0  0  0  0
 11 14  1  0  0  0  0
  9 10  1  0  0  0  0
  9 11  1  0  0  0  0
  9 22  1  0  0  0  0
  7  8  1  0  0  0  0
  7  9  1  0  0  0  0
 26 27  1  0  0  0  0
 26 28  1  0  0  0  0
 26 29  1  0  0  0  0
 24 25  1  0  0  0  0
 24 26  1  0  0  0  0
M  END
$$$$
default_name
  -OEChem-01062215323D

 29 28  0     1  0  0  0  0  0999 V2000
   -3.5781   -3.7296    1.2702 H   0  0  0  0  0  0  0  0  0  0  0  0
   -3.5311   -2.7616    0.7732 C   0  0  0  0  0  0  0  0  0  0  0  0
   -4.2371   -2.0766    1.2382 H   0  0  0  0  0  0  0  0  0  0  0  0
   -3.7681   -2.8816   -0.2818 H   0  0  0  0  0  0  0  0  0  0  0  0
   -2.1321   -2.2086    0.9112 C   0  0  0  0  0  0  0  0  0  0  0  0
   -1.2751   -2.8426    1.5112 O   0  0  0  0  0  0  0  0  0  0  0  0
   -1.9041   -1.0186    0.3602 N   0  0  0  0  0  0  0  0  0  0  0  0
   -2.6671   -0.5416   -0.0988 H   0  0  0  0  0  0  0  0  0  0  0  0
   -0.6131   -0.3236    0.3832 C   0  0  1  0  0  0  0  0  0  0  0  0
   -0.7700    0.7123    0.0784 H   0  0  0  0  0  0  0  0  0  0  0  0
   -0.0656   -0.3252    1.8224 C   0  0  0  0  0  0  0  0  0  0  0  0
   -0.0290   -1.3554    2.1829 H   0  0  0  0  0  0  0  0  0  0  0  0
    0.9505    0.0719    1.8212 H   0  0  0  0  0  0  0  0  0  0  0  0
   -0.9120    0.4978    2.8004 C   0  0  0  0  0  0  0  0  0  0  0  0
   -1.9227    0.0916    2.8277 H   0  0  0  0  0  0  0  0  0  0  0  0
   -0.4745    0.4168    3.7962 H   0  0  0  0  0  0  0  0  0  0  0  0
   -1.0230    2.2523    2.3658 S   0  0  0  0  0  0  0  0  0  0  0  0
    0.6849    2.7608    2.6920 C   0  0  0  0  0  0  0  0  0  0  0  0
    1.3652    2.1937    2.0559 H   0  0  0  0  0  0  0  0  0  0  0  0
    0.7931    3.8239    2.4753 H   0  0  0  0  0  0  0  0  0  0  0  0
    0.9283    2.5817    3.7396 H   0  0  0  0  0  0  0  0  0  0  0  0
    0.3633   -0.9715   -0.6088 C   0  0  0  0  0  0  0  0  0  0  0  0
    0.6827   -2.1514   -0.4780 O   0  0  0  0  0  0  0  0  0  0  0  0
    0.8432   -0.2006   -1.5931 N   0  0  0  0  0  0  0  0  0  0  0  0
    0.5240    0.7536   -1.6454 H   0  0  0  0  0  0  0  0  0  0  0  0
    1.7908   -0.6649   -2.6052 C   0  0  0  0  0  0  0  0  0  0  0  0
    1.3680   -1.5179   -3.1410 H   0  0  0  0  0  0  0  0  0  0  0  0
    2.0094    0.1332   -3.3159 H   0  0  0  0  0  0  0  0  0  0  0  0
    2.7169   -0.9840   -2.1237 H   0  0  0  0  0  0  0  0  0  0  0  0
  5  6  2  0  0  0  0
  5  7  1  0  0  0  0
  2  3  1  0  0  0  0
  2  4  1  0  0  0  0
  2  5  1  0  0  0  0
  1  2  1  0  0  0  0
 22 23  2  0  0  0  0
 22 24  1  0  0  0  0
 18 19  1  0  0  0  0
 18 20  1  0  0  0  0
 18 21  1  0  0  0  0
 17 18  1  0  0  0  0
 14 15  1  0  0  0  0
 14 16  1  0  0  0  0
 14 17  1  0  0  0  0
 11 12  1  0  0  0  0
 11 13  1  0  0  0  0
 11 14  1  0  0  0  0
  9 10  1  0  0  0  0
  9 11  1  0  0  0  0
  9 22  1  0  0  0  0
  7  8  1  0  0  0  0
  7  9  1  0  0  0  0
 26 27  1  0  0  0  0
 26 28  1  0  0  0  0
 26 29  1  0  0  0  0
 24 25  1  0  0  0  0
 24 26  1  0  0  0  0
M  END
$$$$
default_name
  -OEChem-01062215323D

 29 28  0     1  0  0  0  0  0999 V2000
   -3.5781   -3.7296    1.2702 H   0  0  0  0  0  0  0  0  0  0  0  0
   -3.5311   -2.7616    0.7732 C   0  0  0  0  0  0  0  0  0  0  0  0
   -4.2371   -2.0766    1.2382 H   0  0  0  0  0  0  0  0  0  0  0  0
   -3.7681   -2.8816   -0.2818 H   0  0  0  0  0  0  0  0  0  0  0  0
   -2.1321   -2.2086    0.9112 C   0  0  0  0  0  0  0  0  0  0  0  0
   -1.2751   -2.8426    1.5112 O   0  0  0  0  0  0  0  0  0  0  0  0
   -1.9041   -1.0186    0.3602 N   0  0  0  0  0  0  0  0  0  0  0  0
   -2.6671   -0.5416   -0.0988 H   0  0  0  0  0  0  0  0  0  0  0  0
   -0.6131   -0.3236    0.3832 C   0  0  1  0  0  0  0  0  0  0  0  0
   -0.7700    0.7123    0.0784 H   0  0  0  0  0  0  0  0  0  0  0  0
   -0.0656   -0.3252    1.8224 C   0  0  0  0  0  0  0  0  0  0  0  0
   -0.0290   -1.3554    2.1829 H   0  0  0  0  0  0  0  0  0  0  0  0
    0.9505    0.0719    1.8212 H   0  0  0  0  0  0  0  0  0  0  0  0
   -0.9120    0.4978    2.8004 C   0  0  0  0  0  0  0  0  0  0  0  0
   -1.9227    0.0916    2.8277 H   0  0  0  0  0  0  0  0  0  0  0  0
   -0.4745    0.4168    3.7962 H   0  0  0  0  0  0  0  0  0  0  0  0
   -1.0230    2.2523    2.3658 S   0  0  0  0  0  0  0  0  0  0  0  0
    0.6849    2.7608    2.6920 C   0  0  0  0  0  0  0  0  0  0  0  0
    1.3652    2.1937    2.0559 H   0  0  0  0  0  0  0  0  0  0  0  0
    0.7931    3.8239    2.4753 H   0  0  0  0  0  0  0  0  0  0  0  0
    0.9283    2.5817    3.7396 H   0  0  0  0  0  0  0  0  0  0  0  0
    0.3633   -0.9715   -0.6088 C   0  0  0  0  0  0  0  0  0  0  0  0
    0.4735   -2.1950   -0.6554 O   0  0  0  0  0  0  0  0  0  0  0  0
    1.0767   -0.1540   -1.3938 N   0  0  0  0  0  0  0  0  0  0  0  0
    0.9212    0.8379   -1.3095 H   0  0  0  0  0  0  0  0  0  0  0  0
    2.0563   -0.6152   -2.3763 C   0  0  0  0  0  0  0  0  0  0  0  0
    1.5732   -1.2866   -3.0901 H   0  0  0  0  0  0  0  0  0  0  0  0
    2.4842    0.2324   -2.9134 H   0  0  0  0  0  0  0  0  0  0  0  0
    2.8538   -1.1635   -1.8717 H   0  0  0  0  0  0  0  0  0  0  0  0
  5  6  2  0  0  0  0
  5  7  1  0  0  0  0
  2  3  1  0  0  0  0
  2  4  1  0  0  0  0
  2  5  1  0  0  0  0
  1  2  1  0  0  0  0
 22 23  2  0  0  0  0
 22 24  1  0  0  0  0
 18 19  1  0  0  0  0
 18 20  1  0  0  0  0
 18 21  1  0  0  0  0
 17 18  1  0  0  0  0
 14 15  1  0  0  0  0
 14 16  1  0  0  0  0
 14 17  1  0  0  0  0
 11 12  1  0  0  0  0
 11 13  1  0  0  0  0
 11 14  1  0  0  0  0
  9 10  1  0  0  0  0
  9 11  1  0  0  0  0
  9 22  1  0  0  0  0
  7  8  1  0  0  0  0
  7  9  1  0  0  0  0
 26 27  1  0  0  0  0
 26 28  1  0  0  0  0
 26 29  1  0  0  0  0
 24 25  1  0  0  0  0
 24 26  1  0  0  0  0
M  END
$$$$
default_name
  -OEChem-01062215323D

 29 28  0     1  0  0  0  0  0999 V2000
   -3.5781   -3.7296    1.2702 H   0  0  0  0  0  0  0  0  0  0  0  0
   -3.5311   -2.7616    0.7732 C   0  0  0  0  0  0  0  0  0  0  0  0
   -4.2371   -2.0766    1.2382 H   0  0  0  0  0  0  0  0  0  0  0  0
   -3.7681   -2.8816   -0.2818 H   0  0  0  0  0  0  0  0  0  0  0  0
   -2.1321   -2.2086    0.9112 C   0  0  0  0  0  0  0  0  0  0  0  0
   -1.2751   -2.8426    1.5112 O   0  0  0  0  0  0  0  0  0  0  0  0
   -1.9041   -1.0186    0.3602 N   0  0  0  0  0  0  0  0  0  0  0  0
   -2.6671   -0.5416   -0.0988 H   0  0  0  0  0  0  0  0  0  0  0  0
   -0.6131   -0.3236    0.3832 C   0  0  1  0  0  0  0  0  0  0  0  0
   -0.7700    0.7123    0.0784 H   0  0  0  0  0  0  0  0  0  0  0  0
   -0.0656   -0.3252    1.8224 C   0  0  0  0  0  0  0  0  0  0  0  0
   -0.0290   -1.3554    2.1829 H   0  0  0  0  0  0  0  0  0  0  0  0
    0.9505    0.0719    1.8212 H   0  0  0  0  0  0  0  0  0  0  0  0
   -0.9120    0.4978    2.8004 C   0  0  0  0  0  0  0  0  0  0  0  0
   -1.9227    0.0916    2.8277 H   0  0  0  0  0  0  0  0  0  0  0  0
   -0.4745    0.4168    3.7962 H   0  0  0  0  0  0  0  0  0  0  0  0
   -1.0230    2.2523    2.3658 S   0  0  0  0  0  0  0  0  0  0  0  0
    0.6849    2.7608    2.6920 C   0  0  0  0  0  0  0  0  0  0  0  0
    1.3652    2.1937    2.0559 H   0  0  0  0  0  0  0  0  0  0  0  0
    0.7931    3.8239    2.4753 H   0  0  0  0  0  0  0  0  0  0  0  0
    0.9283    2.5817    3.7396 H   0  0  0  0  0  0  0  0  0  0  0  0
    0.3633   -0.9715   -0.6088 C   0  0  0  0  0  0  0  0  0  0  0  0
    0.2836   -2.1729   -0.8567 O   0  0  0  0  0  0  0  0  0  0  0  0
    1.2882   -0.1807   -1.1682 N   0  0  0  0  0  0  0  0  0  0  0  0
    1.2823    0.7977   -0.9279 H   0  0  0  0  0  0  0  0  0  0  0  0
    2.2961   -0.6492   -2.1181 C   0  0  0  0  0  0  0  0  0  0  0  0
    1.8046   -1.1058   -2.9804 H   0  0  0  0  0  0  0  0  0  0  0  0
    2.9154    0.1825   -2.4563 H   0  0  0  0  0  0  0  0  0  0  0  0
    2.9286   -1.4012   -1.6429 H   0  0  0  0  0  0  0  0  0  0  0  0
  5  6  2  0  0  0  0
  5  7  1  0  0  0  0
  2  3  1  0  0  0  0
  2  4  1  0  0  0  0
  2  5  1  0  0  0  0
  1  2  1  0  0  0  0
 22 23  2  0  0  0  0
 22 24  1  0  0  0  0
 18 19  1  0  0  0  0
 18 20  1  0  0  0  0
 18 21  1  0  0  0  0
 17 18  1  0  0  0  0
 14 15  1  0  0  0  0
 14 16  1  0  0  0  0
 14 17  1  0  0  0  0
 11 12  1  0  0  0  0
 11 13  1  0  0  0  0
 11 14  1  0  0  0  0
  9 10  1  0  0  0  0
  9 11  1  0  0  0  0
  9 22  1  0  0  0  0
  7  8  1  0  0  0  0
  7  9  1  0  0  0  0
 26 27  1  0  0  0  0
 26 28  1  0  0  0  0
 26 29  1  0  0  0  0
 24 25  1  0  0  0  0
 24 26  1  0  0  0  0
M  END
$$$$
default_name
  -OEChem-01062215323D

 29 28  0     1  0  0  0  0  0999 V2000
   -3.5781   -3.7296    1.2702 H   0  0  0  0  0  0  0  0  0  0  0  0
   -3.5311   -2.7616    0.7732 C   0  0  0  0  0  0  0  0  0  0  0  0
   -4.2371   -2.0766    1.2382 H   0  0  0  0  0  0  0  0  0  0  0  0
   -3.7681   -2.8816   -0.2818 H   0  0  0  0  0  0  0  0  0  0  0  0
   -2.1321   -2.2086    0.9112 C   0  0  0  0  0  0  0  0  0  0  0  0
   -1.2751   -2.8426    1.5112 O   0  0  0  0  0  0  0  0  0  0  0  0
   -1.9041   -1.0186    0.3602 N   0  0  0  0  0  0  0  0  0  0  0  0
   -2.6671   -0.5416   -0.0988 H   0  0  0  0  0  0  0  0  0  0  0  0
   -0.6131   -0.3236    0.3832 C   0  0  1  0  0  0  0  0  0  0  0  0
   -0.7700    0.7123    0.0784 H   0  0  0  0  0  0  0  0  0  0  0  0
   -0.0656   -0.3252    1.8224 C   0  0  0  0  0  0  0  0  0  0  0  0
   -0.0290   -1.3554    2.1829 H   0  0  0  0  0  0  0  0  0  0  0  0
    0.9505    0.0719    1.8212 H   0  0  0  0  0  0  0  0  0  0  0  0
   -0.9120    0.4978    2.8004 C   0  0  0  0  0  0  0  0  0  0  0  0
   -1.9227    0.0916    2.8277 H   0  0  0  0  0  0  0  0  0  0  0  0
   -0.4745    0.4168    3.7962 H   0  0  0  0  0  0  0  0  0  0  0  0
   -1.0230    2.2523    2.3658 S   0  0  0  0  0  0  0  0  0  0  0  0
    0.6849    2.7608    2.6920 C   0  0  0  0  0  0  0  0  0  0  0  0
    1.3652    2.1937    2.0559 H   0  0  0  0  0  0  0  0  0  0  0  0
    0.7931    3.8239    2.4753 H   0  0  0  0  0  0  0  0  0  0  0  0
    0.9283    2.5817    3.7396 H   0  0  0  0  0  0  0  0  0  0  0  0
    0.3633   -0.9715   -0.6088 C   0  0  0  0  0  0  0  0  0  0  0  0
    0.1259   -2.0867   -1.0683 O   0  0  0  0  0  0  0  0  0  0  0  0
    1.4633   -0.2791   -0.9315 N   0  0  0  0  0  0  0  0  0  0  0  0
    1.5826    0.6356   -0.5264 H   0  0  0  0  0  0  0  0  0  0  0  0
    2.4938   -0.7648   -1.8480 C   0  0  0  0  0  0  0  0  0  0  0  0
    2.0463   -0.9879   -2.8195 H   0  0  0  0  0  0  0  0  0  0  0  0
    3.2737   -0.0130   -1.9760 H   0  0  0  0  0  0  0  0  0  0  0  0
    2.9360   -1.6810   -1.4528 H   0  0  0  0  0  0  0  0  0  0  0  0
  5  6  2  0  0  0  0
  5  7  1  0  0  0  0
  2  3  1  0  0  0  0
  2  4  1  0  0  0  0
  2  5  1  0  0  0  0
  1  2  1  0  0  0  0
 22 23  2  0  0  0  0
 22 24  1  0  0  0  0
 18 19  1  0  0  0  0
 18 20  1  0  0  0  0
 18 21  1  0  0  0  0
 17 18  1  0  0  0  0
 14 15  1  0  0  0  0
 14 16  1  0  0  0  0
 14 17  1  0  0  0  0
 11 12  1  0  0  0  0
 11 13  1  0  0  0  0
 11 14  1  0  0  0  0
  9 10  1  0  0  0  0
  9 11  1  0  0  0  0
  9 22  1  0  0  0  0
  7  8  1  0  0  0  0
  7  9  1  0  0  0  0
 26 27  1  0  0  0  0
 26 28  1  0  0  0  0
 26 29  1  0  0  0  0
 24 25  1  0  0  0  0
 24 26  1  0  0  0  0
M  END
$$$$
default_name
  -OEChem-01062215323D

 29 28  0     1  0  0  0  0  0999 V2000
   -3.5781   -3.7296    1.2702 H   0  0  0  0  0  0  0  0  0  0  0  0
   -3.5311   -2.7616    0.7732 C   0  0  0  0  0  0  0  0  0  0  0  0
   -4.2371   -2.0766    1.2382 H   0  0  0  0  0  0  0  0  0  0  0  0
   -3.7681   -2.8816   -0.2818 H   0  0  0  0  0  0  0  0  0  0  0  0
   -2.1321   -2.2086    0.9112 C   0  0  0  0  0  0  0  0  0  0  0  0
   -1.2751   -2.8426    1.5112 O   0  0  0  0  0  0  0  0  0  0  0  0
   -1.9041   -1.0186    0.3602 N   0  0  0  0  0  0  0  0  0  0  0  0
   -2.6671   -0.5416   -0.0988 H   0  0  0  0  0  0  0  0  0  0  0  0
   -0.6131   -0.3236    0.3832 C   0  0  1  0  0  0  0  0  0  0  0  0
   -0.7958    0.7514    0.3443 H   0  0  0  0  0  0  0  0  0  0  0  0
    0.1074   -0.6427    1.7061 C   0  0  0  0  0  0  0  0  0  0  0  0
    0.1777   -1.7271    1.8149 H   0  0  0  0  0  0  0  0  0  0  0  0
    1.1197   -0.2373    1.6714 H   0  0  0  0  0  0  0  0  0  0  0  0
   -0.6037   -0.0796    2.9420 C   0  0  0  0  0  0  0  0  0  0  0  0
   -1.6074   -0.4997    2.9992 H   0  0  0  0  0  0  0  0  0  0  0  0
   -0.0478   -0.3771    3.8319 H   0  0  0  0  0  0  0  0  0  0  0  0
   -0.7496    1.7255    2.9360 S   0  0  0  0  0  0  0  0  0  0  0  0
    0.9906    2.1776    3.1583 C   0  0  0  0  0  0  0  0  0  0  0  0
    1.5816    1.7827    2.3314 H   0  0  0  0  0  0  0  0  0  0  0  0
    1.0821    3.2639    3.1783 H   0  0  0  0  0  0  0  0  0  0  0  0
    1.3593    1.7692    4.0996 H   0  0  0  0  0  0  0  0  0  0  0  0
    0.2271   -0.7107   -0.8421 C   0  0  0  0  0  0  0  0  0  0  0  0
   -0.2145   -1.5104   -1.6647 O   0  0  0  0  0  0  0  0  0  0  0  0
    1.4387   -0.1524   -0.9594 N   0  0  0  0  0  0  0  0  0  0  0  0
    1.7267    0.5061   -0.2534 H   0  0  0  0  0  0  0  0  0  0  0  0
    2.3623   -0.4299   -2.0584 C   0  0  0  0  0  0  0  0  0  0  0  0
    1.8840   -0.1886   -3.0105 H   0  0  0  0  0  0  0  0  0  0  0  0
    3.2702    0.1653   -1.9515 H   0  0  0  0  0  0  0  0  0  0  0  0
    2.6230   -1.4898   -2.0617 H   0  0  0  0  0  0  0  0  0  0  0  0
  5  6  2  0  0  0  0
  5  7  1  0  0  0  0
  2  3  1  0  0  0  0
  2  4  1  0  0  0  0
  2  5  1  0  0  0  0
  1  2  1  0  0  0  0
 22 23  2  0  0  0  0
 22 24  1  0  0  0  0
 18 19  1  0  0  0  0
 18 20  1  0  0  0  0
 18 21  1  0  0  0  0
 17 18  1  0  0  0  0
 14 15  1  0  0  0  0
 14 16  1  0  0  0  0
 14 17  1  0  0  0  0
 11 12  1  0  0  0  0
 11 13  1  0  0  0  0
 11 14  1  0  0  0  0
  9 10  1  0  0  0  0
  9 11  1  0  0  0  0
  9 22  1  0  0  0  0
  7  8  1  0  0  0  0
  7  9  1  0  0  0  0
 26 27  1  0  0  0  0
 26 28  1  0  0  0  0
 26 29  1  0  0  0  0
 24 25  1  0  0  0  0
 24 26  1  0  0  0  0
M  END
$$$$
default_name
  -OEChem-01062215323D

 29 28  0     1  0  0  0  0  0999 V2000
   -3.5781   -3.7296    1.2702 H   0  0  0  0  0  0  0  0  0  0  0  0
   -3.5311   -2.7616    0.7732 C   0  0  0  0  0  0  0  0  0  0  0  0
   -4.2371   -2.0766    1.2382 H   0  0  0  0  0  0  0  0  0  0  0  0
   -3.7681   -2.8816   -0.2818 H   0  0  0  0  0  0  0  0  0  0  0  0
   -2.1321   -2.2086    0.9112 C   0  0  0  0  0  0  0  0  0  0  0  0
   -1.2751   -2.8426    1.5112 O   0  0  0  0  0  0  0  0  0  0  0  0
   -1.9041   -1.0186    0.3602 N   0  0  0  0  0  0  0  0  0  0  0  0
   -2.6671   -0.5416   -0.0988 H   0  0  0  0  0  0  0  0  0  0  0  0
   -0.6131   -0.3236    0.3832 C   0  0  1  0  0  0  0  0  0  0  0  0
   -0.7958    0.7514    0.3443 H   0  0  0  0  0  0  0  0  0  0  0  0
    0.1074   -0.6427    1.7061 C   0  0  0  0  0  0  0  0  0  0  0  0
    0.1777   -1.7271    1.8149 H   0  0  0  0  0  0  0  0  0  0  0  0
    1.1197   -0.2373    1.6714 H   0  0  0  0  0  0  0  0  0  0  0  0
   -0.6037   -0.0796    2.9420 C   0  0  0  0  0  0  0  0  0  0  0  0
   -1.6074   -0.4997    2.9992 H   0  0  0  0  0  0  0  0  0  0  0  0
   -0.0478   -0.3771    3.8319 H   0  0  0  0  0  0  0  0  0  0  0  0
   -0.7496    1.7255    2.9360 S   0  0  0  0  0  0  0  0  0  0  0  0
    0.9906    2.1776    3.1583 C   0  0  0  0  0  0  0  0  0  0  0  0
    1.5816    1.7827    2.3314 H   0  0  0  0  0  0  0  0  0  0  0  0
    1.0821    3.2639    3.1783 H   0  0  0  0  0  0  0  0  0  0  0  0
    1.3593    1.7692    4.0996 H   0  0  0  0  0  0  0  0  0  0  0  0
    0.2271   -0.7107   -0.8421 C   0  0  0  0  0  0  0  0  0  0  0  0
   -0.2994   -1.2808   -1.7955 O   0  0  0  0  0  0  0  0  0  0  0  0
    1.5319   -0.4104   -0.8140 N   0  0  0  0  0  0  0  0  0  0  0  0
    1.8894    0.0712   -0.0045 H   0  0  0  0  0  0  0  0  0  0  0  0
    2.4655   -0.7260   -1.8941 C   0  0  0  0  0  0  0  0  0  0  0  0
    2.1236   -0.2630   -2.8227 H   0  0  0  0  0  0  0  0  0  0  0  0
    3.4633   -0.3560   -1.6544 H   0  0  0  0  0  0  0  0  0  0  0  0
    2.5063   -1.8067   -2.0416 H   0  0  0  0  0  0  0  0  0  0  0  0
  5  6  2  0  0  0  0
  5  7  1  0  0  0  0
  2  3  1  0  0  0  0
  2  4  1  0  0  0  0
  2  5  1  0  0  0  0
  1  2  1  0  0  0  0
 22 23  2  0  0  0  0
 22 24  1  0  0  0  0
 18 19  1  0  0  0  0
 18 20  1  0  0  0  0
 18 21  1  0  0  0  0
 17 18  1  0  0  0  0
 14 15  1  0  0  0  0
 14 16  1  0  0  0  0
 14 17  1  0  0  0  0
 11 12  1  0  0  0  0
 11 13  1  0  0  0  0
 11 14  1  0  0  0  0
  9 10  1  0  0  0  0
  9 11  1  0  0  0  0
  9 22  1  0  0  0  0
  7  8  1  0  0  0  0
  7  9  1  0  0  0  0
 26 27  1  0  0  0  0
 26 28  1  0  0  0  0
 26 29  1  0  0  0  0
 24 25  1  0  0  0  0
 24 26  1  0  0  0  0
M  END
$$$$
default_name
  -OEChem-01062215323D

 29 28  0     1  0  0  0  0  0999 V2000
   -3.5781   -3.7296    1.2702 H   0  0  0  0  0  0  0  0  0  0  0  0
   -3.5311   -2.7616    0.7732 C   0  0  0  0  0  0  0  0  0  0  0  0
   -4.2371   -2.0766    1.2382 H   0  0  0  0  0  0  0  0  0  0  0  0
   -3.7681   -2.8816   -0.2818 H   0  0  0  0  0  0  0  0  0  0  0  0
   -2.1321   -2.2086    0.9112 C   0  0  0  0  0  0  0  0  0  0  0  0
   -1.2751   -2.8426    1.5112 O   0  0  0  0  0  0  0  0  0  0  0  0
   -1.9041   -1.0186    0.3602 N   0  0  0  0  0  0  0  0  0  0  0  0
   -2.6671   -0.5416   -0.0988 H   0  0  0  0  0  0  0  0  0  0  0  0
   -0.6131   -0.3236    0.3832 C   0  0  1  0  0  0  0  0  0  0  0  0
   -0.7958    0.7514    0.3443 H   0  0  0  0  0  0  0  0  0  0  0  0
    0.1074   -0.6427    1.7061 C   0  0  0  0  0  0  0  0  0  0  0  0
    0.1777   -1.7271    1.8149 H   0  0  0  0  0  0  0  0  0  0  0  0
    1.1197   -0.2373    1.6714 H   0  0  0  0  0  0  0  0  0  0  0  0
   -0.6037   -0.0796    2.9420 C   0  0  0  0  0  0  0  0  0  0  0  0
   -1.6074   -0.4997    2.9992 H   0  0  0  0  0  0  0  0  0  0  0  0
   -0.0478   -0.3771    3.8319 H   0  0  0  0  0  0  0  0  0  0  0  0
   -0.7496    1.7255    2.9360 S   0  0  0  0  0  0  0  0  0  0  0  0
    0.9906    2.1776    3.1583 C   0  0  0  0  0  0  0  0  0  0  0  0
    1.5816    1.7827    2.3314 H   0  0  0  0  0  0  0  0  0  0  0  0
    1.0821    3.2639    3.1783 H   0  0  0  0  0  0  0  0  0  0  0  0
    1.3593    1.7692    4.0996 H   0  0  0  0  0  0  0  0  0  0  0  0
    0.2271   -0.7107   -0.8421 C   0  0  0  0  0  0  0  0  0  0  0  0
   -0.3255   -1.0228   -1.8949 O   0  0  0  0  0  0  0  0  0  0  0  0
    1.5591   -0.6994   -0.7040 N   0  0  0  0  0  0  0  0  0  0  0  0
    1.9404   -0.4179    0.1850 H   0  0  0  0  0  0  0  0  0  0  0  0
    2.4933   -1.0566   -1.7706 C   0  0  0  0  0  0  0  0  0  0  0  0
    2.3274   -0.4110   -2.6362 H   0  0  0  0  0  0  0  0  0  0  0  0
    3.5227   -0.9416   -1.4286 H   0  0  0  0  0  0  0  0  0  0  0  0
    2.3268   -2.0916   -2.0747 H   0  0  0  0  0  0  0  0  0  0  0  0
  5  6  2  0  0  0  0
  5  7  1  0  0  0  0
  2  3  1  0  0  0  0
  2  4  1  0  0  0  0
  2  5  1  0  0  0  0
  1  2  1  0  0  0  0
 22 23  2  0  0  0  0
 22 24  1  0  0  0  0
 18 19  1  0  0  0  0
 18 20  1  0  0  0  0
 18 21  1  0  0  0  0
 17 18  1  0  0  0  0
 14 15  1  0  0  0  0
 14 16  1  0  0  0  0
 14 17  1  0  0  0  0
 11 12  1  0  0  0  0
 11 13  1  0  0  0  0
 11 14  1  0  0  0  0
  9 10  1  0  0  0  0
  9 11  1  0  0  0  0
  9 22  1  0  0  0  0
  7  8  1  0  0  0  0
  7  9  1  0  0  0  0
 26 27  1  0  0  0  0
 26 28  1  0  0  0  0
 26 29  1  0  0  0  0
 24 25  1  0  0  0  0
 24 26  1  0  0  0  0
M  END
$$$$
default_name
  -OEChem-01062215323D

 29 28  0     1  0  0  0  0  0999 V2000
   -3.5781   -3.7296    1.2702 H   0  0  0  0  0  0  0  0  0  0  0  0
   -3.5311   -2.7616    0.7732 C   0  0  0  0  0  0  0  0  0  0  0  0
   -4.2371   -2.0766    1.2382 H   0  0  0  0  0  0  0  0  0  0  0  0
   -3.7681   -2.8816   -0.2818 H   0  0  0  0  0  0  0  0  0  0  0  0
   -2.1321   -2.2086    0.9112 C   0  0  0  0  0  0  0  0  0  0  0  0
   -1.2751   -2.8426    1.5112 O   0  0  0  0  0  0  0  0  0  0  0  0
   -1.9041   -1.0186    0.3602 N   0  0  0  0  0  0  0  0  0  0  0  0
   -2.6671   -0.5416   -0.0988 H   0  0  0  0  0  0  0  0  0  0  0  0
   -0.6131   -0.3236    0.3832 C   0  0  1  0  0  0  0  0  0  0  0  0
   -0.7958    0.7514    0.3443 H   0  0  0  0  0  0  0  0  0  0  0  0
    0.1074   -0.6427    1.7061 C   0  0  0  0  0  0  0  0  0  0  0  0
    0.1777   -1.7271    1.8149 H   0  0  0  0  0  0  0  0  0  0  0  0
    1.1197   -0.2373    1.6714 H   0  0  0  0  0  0  0  0  0  0  0  0
   -0.6037   -0.0796    2.9420 C   0  0  0  0  0  0  0  0  0  0  0  0
   -1.6074   -0.4997    2.9992 H   0  0  0  0  0  0  0  0  0  0  0  0
   -0.0478   -0.3771    3.8319 H   0  0  0  0  0  0  0  0  0  0  0  0
   -0.7496    1.7255    2.9360 S   0  0  0  0  0  0  0  0  0  0  0  0
    0.9906    2.1776    3.1583 C   0  0  0  0  0  0  0  0  0  0  0  0
    1.5816    1.7827    2.3314 H   0  0  0  0  0  0  0  0  0  0  0  0
    1.0821    3.2639    3.1783 H   0  0  0  0  0  0  0  0  0  0  0  0
    1.3593    1.7692    4.0996 H   0  0  0  0  0  0  0  0  0  0  0  0
    0.2271   -0.7107   -0.8421 C   0  0  0  0  0  0  0  0  0  0  0  0
   -0.2910   -0.7542   -1.9561 O   0  0  0  0  0  0  0  0  0  0  0  0
    1.5185   -0.9998   -0.6370 N   0  0  0  0  0  0  0  0  0  0  0  0
    1.8763   -0.9276    0.3021 H   0  0  0  0  0  0  0  0  0  0  0  0
    2.4438   -1.3992   -1.6963 C   0  0  0  0  0  0  0  0  0  0  0  0
    2.4816   -0.6225   -2.4637 H   0  0  0  0  0  0  0  0  0  0  0  0
    3.4444   -1.5514   -1.2896 H   0  0  0  0  0  0  0  0  0  0  0  0
    2.0967   -2.3250   -2.1587 H   0  0  0  0  0  0  0  0  0  0  0  0
  5  6  2  0  0  0  0
  5  7  1  0  0  0  0
  2  3  1  0  0  0  0
  2  4  1  0  0  0  0
  2  5  1  0  0  0  0
  1  2  1  0  0  0  0
 22 23  2  0  0  0  0
 22 24  1  0  0  0  0
 18 19  1  0  0  0  0
 18 20  1  0  0  0  0
 18 21  1  0  0  0  0
 17 18  1  0  0  0  0
 14 15  1  0  0  0  0
 14 16  1  0  0  0  0
 14 17  1  0  0  0  0
 11 12  1  0  0  0  0
 11 13  1  0  0  0  0
 11 14  1  0  0  0  0
  9 10  1  0  0  0  0
  9 11  1  0  0  0  0
  9 22  1  0  0  0  0
  7  8  1  0  0  0  0
  7  9  1  0  0  0  0
 26 27  1  0  0  0  0
 26 28  1  0  0  0  0
 26 29  1  0  0  0  0
 24 25  1  0  0  0  0
 24 26  1  0  0  0  0
M  END
$$$$
default_name
  -OEChem-01062215323D

 29 28  0     1  0  0  0  0  0999 V2000
   -3.5781   -3.7296    1.2702 H   0  0  0  0  0  0  0  0  0  0  0  0
   -3.5311   -2.7616    0.7732 C   0  0  0  0  0  0  0  0  0  0  0  0
   -4.2371   -2.0766    1.2382 H   0  0  0  0  0  0  0  0  0  0  0  0
   -3.7681   -2.8816   -0.2818 H   0  0  0  0  0  0  0  0  0  0  0  0
   -2.1321   -2.2086    0.9112 C   0  0  0  0  0  0  0  0  0  0  0  0
   -1.2751   -2.8426    1.5112 O   0  0  0  0  0  0  0  0  0  0  0  0
   -1.9041   -1.0186    0.3602 N   0  0  0  0  0  0  0  0  0  0  0  0
   -2.6671   -0.5416   -0.0988 H   0  0  0  0  0  0  0  0  0  0  0  0
   -0.6131   -0.3236    0.3832 C   0  0  1  0  0  0  0  0  0  0  0  0
   -0.7958    0.7514    0.3443 H   0  0  0  0  0  0  0  0  0  0  0  0
    0.1074   -0.6427    1.7061 C   0  0  0  0  0  0  0  0  0  0  0  0
    0.1777   -1.7271    1.8149 H   0  0  0  0  0  0  0  0  0  0  0  0
    1.1197   -0.2373    1.6714 H   0  0  0  0  0  0  0  0  0  0  0  0
   -0.6037   -0.0796    2.9420 C   0  0  0  0  0  0  0  0  0  0  0  0
   -1.6074   -0.4997    2.9992 H   0  0  0  0  0  0  0  0  0  0  0  0
   -0.0478   -0.3771    3.8319 H   0  0  0  0  0  0  0  0  0  0  0  0
   -0.7496    1.7255    2.9360 S   0  0  0  0  0  0  0  0  0  0  0  0
    0.9906    2.1776    3.1583 C   0  0  0  0  0  0  0  0  0  0  0  0
    1.5816    1.7827    2.3314 H   0  0  0  0  0  0  0  0  0  0  0  0
    1.0821    3.2639    3.1783 H   0  0  0  0  0  0  0  0  0  0  0  0
    1.3593    1.7692    4.0996 H   0  0  0  0  0  0  0  0  0  0  0  0
    0.2271   -0.7107   -0.8421 C   0  0  0  0  0  0  0  0  0  0  0  0
   -0.1981   -0.4932   -1.9749 O   0  0  0  0  0  0  0  0  0  0  0  0
    1.4129   -1.2911   -0.6174 N   0  0  0  0  0  0  0  0  0  0  0  0
    1.7015   -1.4233    0.3389 H   0  0  0  0  0  0  0  0  0  0  0  0
    2.3203   -1.7304   -1.6763 C   0  0  0  0  0  0  0  0  0  0  0  0
    2.5755   -0.8830   -2.3169 H   0  0  0  0  0  0  0  0  0  0  0  0
    3.2338   -2.1439   -1.2468 H   0  0  0  0  0  0  0  0  0  0  0  0
    1.8317   -2.4910   -2.2879 H   0  0  0  0  0  0  0  0  0  0  0  0
  5  6  2  0  0  0  0
  5  7  1  0  0  0  0
  2  3  1  0  0  0  0
  2  4  1  0  0  0  0
  2  5  1  0  0  0  0
  1  2  1  0  0  0  0
 22 23  2  0  0  0  0
 22 24  1  0  0  0  0
 18 19  1  0  0  0  0
 18 20  1  0  0  0  0
 18 21  1  0  0  0  0
 17 18  1  0  0  0  0
 14 15  1  0  0  0  0
 14 16  1  0  0  0  0
 14 17  1  0  0  0  0
 11 12  1  0  0  0  0
 11 13  1  0  0  0  0
 11 14  1  0  0  0  0
  9 10  1  0  0  0  0
  9 11  1  0  0  0  0
  9 22  1  0  0  0  0
  7  8  1  0  0  0  0
  7  9  1  0  0  0  0
 26 27  1  0  0  0  0
 26 28  1  0  0  0  0
 26 29  1  0  0  0  0
 24 25  1  0  0  0  0
 24 26  1  0  0  0  0
M  END
$$$$
default_name
  -OEChem-01062215323D

 29 28  0     1  0  0  0  0  0999 V2000
   -3.5781   -3.7296    1.2702 H   0  0  0  0  0  0  0  0  0  0  0  0
   -3.5311   -2.7616    0.7732 C   0  0  0  0  0  0  0  0  0  0  0  0
   -4.2371   -2.0766    1.2382 H   0  0  0  0  0  0  0  0  0  0  0  0
   -3.7681   -2.8816   -0.2818 H   0  0  0  0  0  0  0  0  0  0  0  0
   -2.1321   -2.2086    0.9112 C   0  0  0  0  0  0  0  0  0  0  0  0
   -1.2751   -2.8426    1.5112 O   0  0  0  0  0  0  0  0  0  0  0  0
   -1.9041   -1.0186    0.3602 N   0  0  0  0  0  0  0  0  0  0  0  0
   -2.6671   -0.5416   -0.0988 H   0  0  0  0  0  0  0  0  0  0  0  0
   -0.6131   -0.3236    0.3832 C   0  0  1  0  0  0  0  0  0  0  0  0
   -0.7958    0.7514    0.3443 H   0  0  0  0  0  0  0  0  0  0  0  0
    0.1074   -0.6427    1.7061 C   0  0  0  0  0  0  0  0  0  0  0  0
    0.1777   -1.7271    1.8149 H   0  0  0  0  0  0  0  0  0  0  0  0
    1.1197   -0.2373    1.6714 H   0  0  0  0  0  0  0  0  0  0  0  0
   -0.6037   -0.0796    2.9420 C   0  0  0  0  0  0  0  0  0  0  0  0
   -1.6074   -0.4997    2.9992 H   0  0  0  0  0  0  0  0  0  0  0  0
   -0.0478   -0.3771    3.8319 H   0  0  0  0  0  0  0  0  0  0  0  0
   -0.7496    1.7255    2.9360 S   0  0  0  0  0  0  0  0  0  0  0  0
    0.9906    2.1776    3.1583 C   0  0  0  0  0  0  0  0  0  0  0  0
    1.5816    1.7827    2.3314 H   0  0  0  0  0  0  0  0  0  0  0  0
    1.0821    3.2639    3.1783 H   0  0  0  0  0  0  0  0  0  0  0  0
    1.3593    1.7692    4.0996 H   0  0  0  0  0  0  0  0  0  0  0  0
    0.2271   -0.7107   -0.8421 C   0  0  0  0  0  0  0  0  0  0  0  0
   -0.0533   -0.2577   -1.9500 O   0  0  0  0  0  0  0  0  0  0  0  0
    1.2494   -1.5534   -0.6466 N   0  0  0  0  0  0  0  0  0  0  0  0
    1.4278   -1.8712    0.2927 H   0  0  0  0  0  0  0  0  0  0  0  0
    2.1314   -2.0277   -1.7119 C   0  0  0  0  0  0  0  0  0  0  0  0
    2.6029   -1.1749   -2.2059 H   0  0  0  0  0  0  0  0  0  0  0  0
    2.9052   -2.6789   -1.3032 H   0  0  0  0  0  0  0  0  0  0  0  0
    1.5499   -2.5783   -2.4535 H   0  0  0  0  0  0  0  0  0  0  0  0
  5  6  2  0  0  0  0
  5  7  1  0  0  0  0
  2  3  1  0  0  0  0
  2  4  1  0  0  0  0
  2  5  1  0  0  0  0
  1  2  1  0  0  0  0
 22 23  2  0  0  0  0
 22 24  1  0  0  0  0
 18 19  1  0  0  0  0
 18 20  1  0  0  0  0
 18 21  1  0  0  0  0
 17 18  1  0  0  0  0
 14 15  1  0  0  0  0
 14 16  1  0  0  0  0
 14 17  1  0  0  0  0
 11 12  1  0  0  0  0
 11 13  1  0  0  0  0
 11 14  1  0  0  0  0
  9 10  1  0  0  0  0
  9 11  1  0  0  0  0
  9 22  1  0  0  0  0
  7  8  1  0  0  0  0
  7  9  1  0  0  0  0
 26 27  1  0  0  0  0
 26 28  1  0  0  0  0
 26 29  1  0  0  0  0
 24 25  1  0  0  0  0
 24 26  1  0  0  0  0
M  END
$$$$
default_name
  -OEChem-01062215323D

 29 28  0     1  0  0  0  0  0999 V2000
   -3.5781   -3.7296    1.2702 H   0  0  0  0  0  0  0  0  0  0  0  0
   -3.5311   -2.7616    0.7732 C   0  0  0  0  0  0  0  0  0  0  0  0
   -4.2371   -2.0766    1.2382 H   0  0  0  0  0  0  0  0  0  0  0  0
   -3.7681   -2.8816   -0.2818 H   0  0  0  0  0  0  0  0  0  0  0  0
   -2.1321   -2.2086    0.9112 C   0  0  0  0  0  0  0  0  0  0  0  0
   -1.2751   -2.8426    1.5112 O   0  0  0  0  0  0  0  0  0  0  0  0
   -1.9041   -1.0186    0.3602 N   0  0  0  0  0  0  0  0  0  0  0  0
   -2.6671   -0.5416   -0.0988 H   0  0  0  0  0  0  0  0  0  0  0  0
   -0.6131   -0.3236    0.3832 C   0  0  1  0  0  0  0  0  0  0  0  0
   -0.7958    0.7514    0.3443 H   0  0  0  0  0  0  0  0  0  0  0  0
    0.1074   -0.6427    1.7061 C   0  0  0  0  0  0  0  0  0  0  0  0
    0.1777   -1.7271    1.8149 H   0  0  0  0  0  0  0  0  0  0  0  0
    1.1197   -0.2373    1.6714 H   0  0  0  0  0  0  0  0  0  0  0  0
   -0.6037   -0.0796    2.9420 C   0  0  0  0  0  0  0  0  0  0  0  0
   -1.6074   -0.4997    2.9992 H   0  0  0  0  0  0  0  0  0  0  0  0
   -0.0478   -0.3771    3.8319 H   0  0  0  0  0  0  0  0  0  0  0  0
   -0.7496    1.7255    2.9360 S   0  0  0  0  0  0  0  0  0  0  0  0
    0.9906    2.1776    3.1583 C   0  0  0  0  0  0  0  0  0  0  0  0
    1.5816    1.7827    2.3314 H   0  0  0  0  0  0  0  0  0  0  0  0
    1.0821    3.2639    3.1783 H   0  0  0  0  0  0  0  0  0  0  0  0
    1.3593    1.7692    4.0996 H   0  0  0  0  0  0  0  0  0  0  0  0
    0.2271   -0.7107   -0.8421 C   0  0  0  0  0  0  0  0  0  0  0  0
    0.1337   -0.0636   -1.8831 O   0  0  0  0  0  0  0  0  0  0  0  0
    1.0393   -1.7688   -0.7226 N   0  0  0  0  0  0  0  0  0  0  0  0
    1.0739   -2.2408    0.1668 H   0  0  0  0  0  0  0  0  0  0  0  0
    1.8898   -2.2708   -1.8008 C   0  0  0  0  0  0  0  0  0  0  0  0
    2.5618   -1.4782   -2.1383 H   0  0  0  0  0  0  0  0  0  0  0  0
    2.4809   -3.1197   -1.4548 H   0  0  0  0  0  0  0  0  0  0  0  0
    1.2705   -2.5810   -2.6443 H   0  0  0  0  0  0  0  0  0  0  0  0
  5  6  2  0  0  0  0
  5  7  1  0  0  0  0
  2  3  1  0  0  0  0
  2  4  1  0  0  0  0
  2  5  1  0  0  0  0
  1  2  1  0  0  0  0
 22 23  2  0  0  0  0
 22 24  1  0  0  0  0
 18 19  1  0  0  0  0
 18 20  1  0  0  0  0
 18 21  1  0  0  0  0
 17 18  1  0  0  0  0
 14 15  1  0  0  0  0
 14 16  1  0  0  0  0
 14 17  1  0  0  0  0
 11 12  1  0  0  0  0
 11 13  1  0  0  0  0
 11 14  1  0  0  0  0
  9 10  1  0  0  0  0
  9 11  1  0  0  0  0
  9 22  1  0  0  0  0
  7  8  1  0  0  0  0
  7  9  1  0  0  0  0
 26 27  1  0  0  0  0
 26 28  1  0  0  0  0
 26 29  1  0  0  0  0
 24 25  1  0  0  0  0
 24 26  1  0  0  0  0
M  END
$$$$
default_name
  -OEChem-01062215323D

 29 28  0     1  0  0  0  0  0999 V2000
   -3.5781   -3.7296    1.2702 H   0  0  0  0  0  0  0  0  0  0  0  0
   -3.5311   -2.7616    0.7732 C   0  0  0  0  0  0  0  0  0  0  0  0
   -4.2371   -2.0766    1.2382 H   0  0  0  0  0  0  0  0  0  0  0  0
   -3.7681   -2.8816   -0.2818 H   0  0  0  0  0  0  0  0  0  0  0  0
   -2.1321   -2.2086    0.9112 C   0  0  0  0  0  0  0  0  0  0  0  0
   -1.2751   -2.8426    1.5112 O   0  0  0  0  0  0  0  0  0  0  0  0
   -1.9041   -1.0186    0.3602 N   0  0  0  0  0  0  0  0  0  0  0  0
   -2.6671   -0.5416   -0.0988 H   0  0  0  0  0  0  0  0  0  0  0  0
   -0.6131   -0.3236    0.3832 C   0  0  1  0  0  0  0  0  0  0  0  0
   -0.7958    0.7514    0.3443 H   0  0  0  0  0  0  0  0  0  0  0  0
    0.1074   -0.6427    1.7061 C   0  0  0  0  0  0  0  0  0  0  0  0
    0.1777   -1.7271    1.8149 H   0  0  0  0  0  0  0  0  0  0  0  0
    1.1197   -0.2373    1.6714 H   0  0  0  0  0  0  0  0  0  0  0  0
   -0.6037   -0.0796    2.9420 C   0  0  0  0  0  0  0  0  0  0  0  0
   -1.6074   -0.4997    2.9992 H   0  0  0  0  0  0  0  0  0  0  0  0
   -0.0478   -0.3771    3.8319 H   0  0  0  0  0  0  0  0  0  0  0  0
   -0.7496    1.7255    2.9360 S   0  0  0  0  0  0  0  0  0  0  0  0
    0.9906    2.1776    3.1583 C   0  0  0  0  0  0  0  0  0  0  0  0
    1.5816    1.7827    2.3314 H   0  0  0  0  0  0  0  0  0  0  0  0
    1.0821    3.2639    3.1783 H   0  0  0  0  0  0  0  0  0  0  0  0
    1.3593    1.7692    4.0996 H   0  0  0  0  0  0  0  0  0  0  0  0
    0.2271   -0.7107   -0.8421 C   0  0  0  0  0  0  0  0  0  0  0  0
    0.3500    0.0758   -1.7789 O   0  0  0  0  0  0  0  0  0  0  0  0
    0.7967   -1.9227   -0.8403 N   0  0  0  0  0  0  0  0  0  0  0  0
    0.6640   -2.5069   -0.0302 H   0  0  0  0  0  0  0  0  0  0  0  0
    1.6120   -2.4430   -1.9368 C   0  0  0  0  0  0  0  0  0  0  0  0
    2.4550   -1.7722   -2.1186 H   0  0  0  0  0  0  0  0  0  0  0  0
    1.9899   -3.4364   -1.6914 H   0  0  0  0  0  0  0  0  0  0  0  0
    1.0125   -2.4989   -2.8471 H   0  0  0  0  0  0  0  0  0  0  0  0
  5  6  2  0  0  0  0
  5  7  1  0  0  0  0
  2  3  1  0  0  0  0
  2  4  1  0  0  0  0
  2  5  1  0  0  0  0
  1  2  1  0  0  0  0
 22 23  2  0  0  0  0
 22 24  1  0  0  0  0
 18 19  1  0  0  0  0
 18 20  1  0  0  0  0
 18 21  1  0  0  0  0
 17 18  1  0  0  0  0
 14 15  1  0  0  0  0
 14 16  1  0  0  0  0
 14 17  1  0  0  0  0
 11 12  1  0  0  0  0
 11 13  1  0  0  0  0
 11 14  1  0  0  0  0
  9 10  1  0  0  0  0
  9 11  1  0  0  0  0
  9 22  1  0  0  0  0
  7  8  1  0  0  0  0
  7  9  1  0  0  0  0
 26 27  1  0  0  0  0
 26 28  1  0  0  0  0
 26 29  1  0  0  0  0
 24 25  1  0  0  0  0
 24 26  1  0  0  0  0
M  END
$$$$
default_name
  -OEChem-01062215323D

 29 28  0     1  0  0  0  0  0999 V2000
   -3.5781   -3.7296    1.2702 H   0  0  0  0  0  0  0  0  0  0  0  0
   -3.5311   -2.7616    0.7732 C   0  0  0  0  0  0  0  0  0  0  0  0
   -4.2371   -2.0766    1.2382 H   0  0  0  0  0  0  0  0  0  0  0  0
   -3.7681   -2.8816   -0.2818 H   0  0  0  0  0  0  0  0  0  0  0  0
   -2.1321   -2.2086    0.9112 C   0  0  0  0  0  0  0  0  0  0  0  0
   -1.2751   -2.8426    1.5112 O   0  0  0  0  0  0  0  0  0  0  0  0
   -1.9041   -1.0186    0.3602 N   0  0  0  0  0  0  0  0  0  0  0  0
   -2.6671   -0.5416   -0.0988 H   0  0  0  0  0  0  0  0  0  0  0  0
   -0.6131   -0.3236    0.3832 C   0  0  1  0  0  0  0  0  0  0  0  0
   -0.7958    0.7514    0.3443 H   0  0  0  0  0  0  0  0  0  0  0  0
    0.1074   -0.6427    1.7061 C   0  0  0  0  0  0  0  0  0  0  0  0
    0.1777   -1.7271    1.8149 H   0  0  0  0  0  0  0  0  0  0  0  0
    1.1197   -0.2373    1.6714 H   0  0  0  0  0  0  0  0  0  0  0  0
   -0.6037   -0.0796    2.9420 C   0  0  0  0  0  0  0  0  0  0  0  0
   -1.6074   -0.4997    2.9992 H   0  0  0  0  0  0  0  0  0  0  0  0
   -0.0478   -0.3771    3.8319 H   0  0  0  0  0  0  0  0  0  0  0  0
   -0.7496    1.7255    2.9360 S   0  0  0  0  0  0  0  0  0  0  0  0
    0.9906    2.1776    3.1583 C   0  0  0  0  0  0  0  0  0  0  0  0
    1.5816    1.7827    2.3314 H   0  0  0  0  0  0  0  0  0  0  0  0
    1.0821    3.2639    3.1783 H   0  0  0  0  0  0  0  0  0  0  0  0
    1.3593    1.7692    4.0996 H   0  0  0  0  0  0  0  0  0  0  0  0
    0.2271   -0.7107   -0.8421 C   0  0  0  0  0  0  0  0  0  0  0  0
    0.5809    0.1510   -1.6443 O   0  0  0  0  0  0  0  0  0  0  0  0
    0.5383   -2.0046   -0.9916 N   0  0  0  0  0  0  0  0  0  0  0  0
    0.2259   -2.6513   -0.2850 H   0  0  0  0  0  0  0  0  0  0  0  0
    1.3170   -2.5328   -2.1107 C   0  0  0  0  0  0  0  0  0  0  0  0
    2.2899   -2.0370   -2.1482 H   0  0  0  0  0  0  0  0  0  0  0  0
    1.4657   -3.6074   -1.9968 H   0  0  0  0  0  0  0  0  0  0  0  0
    0.7935   -2.3375   -3.0483 H   0  0  0  0  0  0  0  0  0  0  0  0
  5  6  2  0  0  0  0
  5  7  1  0  0  0  0
  2  3  1  0  0  0  0
  2  4  1  0  0  0  0
  2  5  1  0  0  0  0
  1  2  1  0  0  0  0
 22 23  2  0  0  0  0
 22 24  1  0  0  0  0
 18 19  1  0  0  0  0
 18 20  1  0  0  0  0
 18 21  1  0  0  0  0
 17 18  1  0  0  0  0
 14 15  1  0  0  0  0
 14 16  1  0  0  0  0
 14 17  1  0  0  0  0
 11 12  1  0  0  0  0
 11 13  1  0  0  0  0
 11 14  1  0  0  0  0
  9 10  1  0  0  0  0
  9 11  1  0  0  0  0
  9 22  1  0  0  0  0
  7  8  1  0  0  0  0
  7  9  1  0  0  0  0
 26 27  1  0  0  0  0
 26 28  1  0  0  0  0
 26 29  1  0  0  0  0
 24 25  1  0  0  0  0
 24 26  1  0  0  0  0
M  END
$$$$
default_name
  -OEChem-01062215323D

 29 28  0     1  0  0  0  0  0999 V2000
   -3.5781   -3.7296    1.2702 H   0  0  0  0  0  0  0  0  0  0  0  0
   -3.5311   -2.7616    0.7732 C   0  0  0  0  0  0  0  0  0  0  0  0
   -4.2371   -2.0766    1.2382 H   0  0  0  0  0  0  0  0  0  0  0  0
   -3.7681   -2.8816   -0.2818 H   0  0  0  0  0  0  0  0  0  0  0  0
   -2.1321   -2.2086    0.9112 C   0  0  0  0  0  0  0  0  0  0  0  0
   -1.2751   -2.8426    1.5112 O   0  0  0  0  0  0  0  0  0  0  0  0
   -1.9041   -1.0186    0.3602 N   0  0  0  0  0  0  0  0  0  0  0  0
   -2.6671   -0.5416   -0.0988 H   0  0  0  0  0  0  0  0  0  0  0  0
   -0.6131   -0.3236    0.3832 C   0  0  1  0  0  0  0  0  0  0  0  0
   -0.7958    0.7514    0.3443 H   0  0  0  0  0  0  0  0  0  0  0  0
    0.1074   -0.6427    1.7061 C   0  0  0  0  0  0  0  0  0  0  0  0
    0.1777   -1.7271    1.8149 H   0  0  0  0  0  0  0  0  0  0  0  0
    1.1197   -0.2373    1.6714 H   0  0  0  0  0  0  0  0  0  0  0  0
   -0.6037   -0.0796    2.9420 C   0  0  0  0  0  0  0  0  0  0  0  0
   -1.6074   -0.4997    2.9992 H   0  0  0  0  0  0  0  0  0  0  0  0
   -0.0478   -0.3771    3.8319 H   0  0  0  0  0  0  0  0  0  0  0  0
   -0.7496    1.7255    2.9360 S   0  0  0  0  0  0  0  0  0  0  0  0
    0.9906    2.1776    3.1583 C   0  0  0  0  0  0  0  0  0  0  0  0
    1.5816    1.7827    2.3314 H   0  0  0  0  0  0  0  0  0  0  0  0
    1.0821    3.2639    3.1783 H   0  0  0  0  0  0  0  0  0  0  0  0
    1.3593    1.7692    4.0996 H   0  0  0  0  0  0  0  0  0  0  0  0
    0.2271   -0.7107   -0.8421 C   0  0  0  0  0  0  0  0  0  0  0  0
    0.8107    0.1569   -1.4886 O   0  0  0  0  0  0  0  0  0  0  0  0
    0.2817   -2.0090   -1.1662 N   0  0  0  0  0  0  0  0  0  0  0  0
   -0.2104   -2.6642   -0.5801 H   0  0  0  0  0  0  0  0  0  0  0  0
    1.0249   -2.5339   -2.3107 C   0  0  0  0  0  0  0  0  0  0  0  0
    2.0776   -2.2544   -2.2251 H   0  0  0  0  0  0  0  0  0  0  0  0
    0.9440   -3.6210   -2.3503 H   0  0  0  0  0  0  0  0  0  0  0  0
    0.6284   -2.1079   -3.2340 H   0  0  0  0  0  0  0  0  0  0  0  0
  5  6  2  0  0  0  0
  5  7  1  0  0  0  0
  2  3  1  0  0  0  0
  2  4  1  0  0  0  0
  2  5  1  0  0  0  0
  1  2  1  0  0  0  0
 22 23  2  0  0  0  0
 22 24  1  0  0  0  0
 18 19  1  0  0  0  0
 18 20  1  0  0  0  0
 18 21  1  0  0  0  0
 17 18  1  0  0  0  0
 14 15  1  0  0  0  0
 14 16  1  0  0  0  0
 14 17  1  0  0  0  0
 11 12  1  0  0  0  0
 11 13  1  0  0  0  0
 11 14  1  0  0  0  0
  9 10  1  0  0  0  0
  9 11  1  0  0  0  0
  9 22  1  0  0  0  0
  7  8  1  0  0  0  0
  7  9  1  0  0  0  0
 26 27  1  0  0  0  0
 26 28  1  0  0  0  0
 26 29  1  0  0  0  0
 24 25  1  0  0  0  0
 24 26  1  0  0  0  0
M  END
$$$$
default_name
  -OEChem-01062215323D

 29 28  0     1  0  0  0  0  0999 V2000
   -3.5781   -3.7296    1.2702 H   0  0  0  0  0  0  0  0  0  0  0  0
   -3.5311   -2.7616    0.7732 C   0  0  0  0  0  0  0  0  0  0  0  0
   -4.2371   -2.0766    1.2382 H   0  0  0  0  0  0  0  0  0  0  0  0
   -3.7681   -2.8816   -0.2818 H   0  0  0  0  0  0  0  0  0  0  0  0
   -2.1321   -2.2086    0.9112 C   0  0  0  0  0  0  0  0  0  0  0  0
   -1.2751   -2.8426    1.5112 O   0  0  0  0  0  0  0  0  0  0  0  0
   -1.9041   -1.0186    0.3602 N   0  0  0  0  0  0  0  0  0  0  0  0
   -2.6671   -0.5416   -0.0988 H   0  0  0  0  0  0  0  0  0  0  0  0
   -0.6131   -0.3236    0.3832 C   0  0  1  0  0  0  0  0  0  0  0  0
   -0.7958    0.7514    0.3443 H   0  0  0  0  0  0  0  0  0  0  0  0
    0.1074   -0.6427    1.7061 C   0  0  0  0  0  0  0  0  0  0  0  0
    0.1777   -1.7271    1.8149 H   0  0  0  0  0  0  0  0  0  0  0  0
    1.1197   -0.2373    1.6714 H   0  0  0  0  0  0  0  0  0  0  0  0
   -0.6037   -0.0796    2.9420 C   0  0  0  0  0  0  0  0  0  0  0  0
   -1.6074   -0.4997    2.9992 H   0  0  0  0  0  0  0  0  0  0  0  0
   -0.0478   -0.3771    3.8319 H   0  0  0  0  0  0  0  0  0  0  0  0
   -0.7496    1.7255    2.9360 S   0  0  0  0  0  0  0  0  0  0  0  0
    0.9906    2.1776    3.1583 C   0  0  0  0  0  0  0  0  0  0  0  0
    1.5816    1.7827    2.3314 H   0  0  0  0  0  0  0  0  0  0  0  0
    1.0821    3.2639    3.1783 H   0  0  0  0  0  0  0  0  0  0  0  0
    1.3593    1.7692    4.0996 H   0  0  0  0  0  0  0  0  0  0  0  0
    0.2271   -0.7107   -0.8421 C   0  0  0  0  0  0  0  0  0  0  0  0
    1.0237    0.0931   -1.3223 O   0  0  0  0  0  0  0  0  0  0  0  0
    0.0443   -1.9354   -1.3522 N   0  0  0  0  0  0  0  0  0  0  0  0
   -0.6153   -2.5447   -0.8954 H   0  0  0  0  0  0  0  0  0  0  0  0
    0.7555   -2.4464   -2.5231 C   0  0  0  0  0  0  0  0  0  0  0  0
    1.8326   -2.4097   -2.3440 H   0  0  0  0  0  0  0  0  0  0  0  0
    0.4603   -3.4763   -2.7277 H   0  0  0  0  0  0  0  0  0  0  0  0
    0.5285   -1.8257   -3.3917 H   0  0  0  0  0  0  0  0  0  0  0  0
  5  6  2  0  0  0  0
  5  7  1  0  0  0  0
  2  3  1  0  0  0  0
  2  4  1  0  0  0  0
  2  5  1  0  0  0  0
  1  2  1  0  0  0  0
 22 23  2  0  0  0  0
 22 24  1  0  0  0  0
 18 19  1  0  0  0  0
 18 20  1  0  0  0  0
 18 21  1  0  0  0  0
 17 18  1  0  0  0  0
 14 15  1  0  0  0  0
 14 16  1  0  0  0  0
 14 17  1  0  0  0  0
 11 12  1  0  0  0  0
 11 13  1  0  0  0  0
 11 14  1  0  0  0  0
  9 10  1  0  0  0  0
  9 11  1  0  0  0  0
  9 22  1  0  0  0  0
  7  8  1  0  0  0  0
  7  9  1  0  0  0  0
 26 27  1  0  0  0  0
 26 28  1  0  0  0  0
 26 29  1  0  0  0  0
 24 25  1  0  0  0  0
 24 26  1  0  0  0  0
M  END
$$$$
default_name
  -OEChem-01062215323D

 29 28  0     1  0  0  0  0  0999 V2000
   -3.5781   -3.7296    1.2702 H   0  0  0  0  0  0  0  0  0  0  0  0
   -3.5311   -2.7616    0.7732 C   0  0  0  0  0  0  0  0  0  0  0  0
   -4.2371   -2.0766    1.2382 H   0  0  0  0  0  0  0  0  0  0  0  0
   -3.7681   -2.8816   -0.2818 H   0  0  0  0  0  0  0  0  0  0  0  0
   -2.1321   -2.2086    0.9112 C   0  0  0  0  0  0  0  0  0  0  0  0
   -1.2751   -2.8426    1.5112 O   0  0  0  0  0  0  0  0  0  0  0  0
   -1.9041   -1.0186    0.3602 N   0  0  0  0  0  0  0  0  0  0  0  0
   -2.6671   -0.5416   -0.0988 H   0  0  0  0  0  0  0  0  0  0  0  0
   -0.6131   -0.3236    0.3832 C   0  0  1  0  0  0  0  0  0  0  0  0
   -0.7958    0.7514    0.3443 H   0  0  0  0  0  0  0  0  0  0  0  0
    0.1074   -0.6427    1.7061 C   0  0  0  0  0  0  0  0  0  0  0  0
    0.1777   -1.7271    1.8149 H   0  0  0  0  0  0  0  0  0  0  0  0
    1.1197   -0.2373    1.6714 H   0  0  0  0  0  0  0  0  0  0  0  0
   -0.6037   -0.0796    2.9420 C   0  0  0  0  0  0  0  0  0  0  0  0
   -1.6074   -0.4997    2.9992 H   0  0  0  0  0  0  0  0  0  0  0  0
   -0.0478   -0.3771    3.8319 H   0  0  0  0  0  0  0  0  0  0  0  0
   -0.7496    1.7255    2.9360 S   0  0  0  0  0  0  0  0  0  0  0  0
    0.9906    2.1776    3.1583 C   0  0  0  0  0  0  0  0  0  0  0  0
    1.5816    1.7827    2.3314 H   0  0  0  0  0  0  0  0  0  0  0  0
    1.0821    3.2639    3.1783 H   0  0  0  0  0  0  0  0  0  0  0  0
    1.3593    1.7692    4.0996 H   0  0  0  0  0  0  0  0  0  0  0  0
    0.2271   -0.7107   -0.8421 C   0  0  0  0  0  0  0  0  0  0  0  0
    1.2054   -0.0361   -1.1569 O   0  0  0  0  0  0  0  0  0  0  0  0
   -0.1577   -1.7889   -1.5370 N   0  0  0  0  0  0  0  0  0  0  0  0
   -0.9612   -2.3011   -1.2095 H   0  0  0  0  0  0  0  0  0  0  0  0
    0.5272   -2.2761   -2.7334 C   0  0  0  0  0  0  0  0  0  0  0  0
    1.5717   -2.4923   -2.4968 H   0  0  0  0  0  0  0  0  0  0  0  0
    0.0476   -3.1832   -3.1033 H   0  0  0  0  0  0  0  0  0  0  0  0
    0.5005   -1.5102   -3.5105 H   0  0  0  0  0  0  0  0  0  0  0  0
  5  6  2  0  0  0  0
  5  7  1  0  0  0  0
  2  3  1  0  0  0  0
  2  4  1  0  0  0  0
  2  5  1  0  0  0  0
  1  2  1  0  0  0  0
 22 23  2  0  0  0  0
 22 24  1  0  0  0  0
 18 19  1  0  0  0  0
 18 20  1  0  0  0  0
 18 21  1  0  0  0  0
 17 18  1  0  0  0  0
 14 15  1  0  0  0  0
 14 16  1  0  0  0  0
 14 17  1  0  0  0  0
 11 12  1  0  0  0  0
 11 13  1  0  0  0  0
 11 14  1  0  0  0  0
  9 10  1  0  0  0  0
  9 11  1  0  0  0  0
  9 22  1  0  0  0  0
  7  8  1  0  0  0  0
  7  9  1  0  0  0  0
 26 27  1  0  0  0  0
 26 28  1  0  0  0  0
 26 29  1  0  0  0  0
 24 25  1  0  0  0  0
 24 26  1  0  0  0  0
M  END
$$$$
default_name
  -OEChem-01062215323D

 29 28  0     1  0  0  0  0  0999 V2000
   -3.5781   -3.7296    1.2702 H   0  0  0  0  0  0  0  0  0  0  0  0
   -3.5311   -2.7616    0.7732 C   0  0  0  0  0  0  0  0  0  0  0  0
   -4.2371   -2.0766    1.2382 H   0  0  0  0  0  0  0  0  0  0  0  0
   -3.7681   -2.8816   -0.2818 H   0  0  0  0  0  0  0  0  0  0  0  0
   -2.1321   -2.2086    0.9112 C   0  0  0  0  0  0  0  0  0  0  0  0
   -1.2751   -2.8426    1.5112 O   0  0  0  0  0  0  0  0  0  0  0  0
   -1.9041   -1.0186    0.3602 N   0  0  0  0  0  0  0  0  0  0  0  0
   -2.6671   -0.5416   -0.0988 H   0  0  0  0  0  0  0  0  0  0  0  0
   -0.6131   -0.3236    0.3832 C   0  0  1  0  0  0  0  0  0  0  0  0
   -0.7958    0.7514    0.3443 H   0  0  0  0  0  0  0  0  0  0  0  0
    0.1074   -0.6427    1.7061 C   0  0  0  0  0  0  0  0  0  0  0  0
    0.1777   -1.7271    1.8149 H   0  0  0  0  0  0  0  0  0  0  0  0
    1.1197   -0.2373    1.6714 H   0  0  0  0  0  0  0  0  0  0  0  0
   -0.6037   -0.0796    2.9420 C   0  0  0  0  0  0  0  0  0  0  0  0
   -1.6074   -0.4997    2.9992 H   0  0  0  0  0  0  0  0  0  0  0  0
   -0.0478   -0.3771    3.8319 H   0  0  0  0  0  0  0  0  0  0  0  0
   -0.7496    1.7255    2.9360 S   0  0  0  0  0  0  0  0  0  0  0  0
    0.9906    2.1776    3.1583 C   0  0  0  0  0  0  0  0  0  0  0  0
    1.5816    1.7827    2.3314 H   0  0  0  0  0  0  0  0  0  0  0  0
    1.0821    3.2639    3.1783 H   0  0  0  0  0  0  0  0  0  0  0  0
    1.3593    1.7692    4.0996 H   0  0  0  0  0  0  0  0  0  0  0  0
    0.2271   -0.7107   -0.8421 C   0  0  0  0  0  0  0  0  0  0  0  0
    1.3435   -0.2219   -1.0036 O   0  0  0  0  0  0  0  0  0  0  0  0
   -0.3104   -1.5796   -1.7079 N   0  0  0  0  0  0  0  0  0  0  0  0
   -1.2244   -1.9498   -1.5010 H   0  0  0  0  0  0  0  0  0  0  0  0
    0.3557   -2.0346   -2.9273 C   0  0  0  0  0  0  0  0  0  0  0  0
    1.3126   -2.4965   -2.6731 H   0  0  0  0  0  0  0  0  0  0  0  0
   -0.2660   -2.7616   -3.4515 H   0  0  0  0  0  0  0  0  0  0  0  0
    0.5465   -1.1828   -3.5825 H   0  0  0  0  0  0  0  0  0  0  0  0
  5  6  2  0  0  0  0
  5  7  1  0  0  0  0
  2  3  1  0  0  0  0
  2  4  1  0  0  0  0
  2  5  1  0  0  0  0
  1  2  1  0  0  0  0
 22 23  2  0  0  0  0
 22 24  1  0  0  0  0
 18 19  1  0  0  0  0
 18 20  1  0  0  0  0
 18 21  1  0  0  0  0
 17 18  1  0  0  0  0
 14 15  1  0  0  0  0
 14 16  1  0  0  0  0
 14 17  1  0  0  0  0
 11 12  1  0  0  0  0
 11 13  1  0  0  0  0
 11 14  1  0  0  0  0
  9 10  1  0  0  0  0
  9 11  1  0  0  0  0
  9 22  1  0  0  0  0
  7  8  1  0  0  0  0
  7  9  1  0  0  0  0
 26 27  1  0  0  0  0
 26 28  1  0  0  0  0
 26 29  1  0  0  0  0
 24 25  1  0  0  0  0
 24 26  1  0  0  0  0
M  END
$$$$
default_name
  -OEChem-01062215323D

 29 28  0     1  0  0  0  0  0999 V2000
   -3.5781   -3.7296    1.2702 H   0  0  0  0  0  0  0  0  0  0  0  0
   -3.5311   -2.7616    0.7732 C   0  0  0  0  0  0  0  0  0  0  0  0
   -4.2371   -2.0766    1.2382 H   0  0  0  0  0  0  0  0  0  0  0  0
   -3.7681   -2.8816   -0.2818 H   0  0  0  0  0  0  0  0  0  0  0  0
   -2.1321   -2.2086    0.9112 C   0  0  0  0  0  0  0  0  0  0  0  0
   -1.2751   -2.8426    1.5112 O   0  0  0  0  0  0  0  0  0  0  0  0
   -1.9041   -1.0186    0.3602 N   0  0  0  0  0  0  0  0  0  0  0  0
   -2.6671   -0.5416   -0.0988 H   0  0  0  0  0  0  0  0  0  0  0  0
   -0.6131   -0.3236    0.3832 C   0  0  1  0  0  0  0  0  0  0  0  0
   -0.7958    0.7514    0.3443 H   0  0  0  0  0  0  0  0  0  0  0  0
    0.1074   -0.6427    1.7061 C   0  0  0  0  0  0  0  0  0  0  0  0
    0.1777   -1.7271    1.8149 H   0  0  0  0  0  0  0  0  0  0  0  0
    1.1197   -0.2373    1.6714 H   0  0  0  0  0  0  0  0  0  0  0  0
   -0.6037   -0.0796    2.9420 C   0  0  0  0  0  0  0  0  0  0  0  0
   -1.6074   -0.4997    2.9992 H   0  0  0  0  0  0  0  0  0  0  0  0
   -0.0478   -0.3771    3.8319 H   0  0  0  0  0  0  0  0  0  0  0  0
   -0.7496    1.7255    2.9360 S   0  0  0  0  0  0  0  0  0  0  0  0
    0.9906    2.1776    3.1583 C   0  0  0  0  0  0  0  0  0  0  0  0
    1.5816    1.7827    2.3314 H   0  0  0  0  0  0  0  0  0  0  0  0
    1.0821    3.2639    3.1783 H   0  0  0  0  0  0  0  0  0  0  0  0
    1.3593    1.7692    4.0996 H   0  0  0  0  0  0  0  0  0  0  0  0
    0.2271   -0.7107   -0.8421 C   0  0  0  0  0  0  0  0  0  0  0  0
    1.4284   -0.4516   -0.8727 O   0  0  0  0  0  0  0  0  0  0  0  0
   -0.4036   -1.3216   -1.8533 N   0  0  0  0  0  0  0  0  0  0  0  0
   -1.3870   -1.5148   -1.7500 H   0  0  0  0  0  0  0  0  0  0  0  0
    0.2525   -1.7385   -3.0916 C   0  0  0  0  0  0  0  0  0  0  0  0
    1.0730   -2.4220   -2.8610 H   0  0  0  0  0  0  0  0  0  0  0  0
   -0.4591   -2.2403   -3.7486 H   0  0  0  0  0  0  0  0  0  0  0  0
    0.6632   -0.8659   -3.6026 H   0  0  0  0  0  0  0  0  0  0  0  0
  5  6  2  0  0  0  0
  5  7  1  0  0  0  0
  2  3  1  0  0  0  0
  2  4  1  0  0  0  0
  2  5  1  0  0  0  0
  1  2  1  0  0  0  0
 22 23  2  0  0  0  0
 22 24  1  0  0  0  0
 18 19  1  0  0  0  0
 18 20  1  0  0  0  0
 18 21  1  0  0  0  0
 17 18  1  0  0  0  0
 14 15  1  0  0  0  0
 14 16  1  0  0  0  0
 14 17  1  0  0  0  0
 11 12  1  0  0  0  0
 11 13  1  0  0  0  0
 11 14  1  0  0  0  0
  9 10  1  0  0  0  0
  9 11  1  0  0  0  0
  9 22  1  0  0  0  0
  7  8  1  0  0  0  0
  7  9  1  0  0  0  0
 26 27  1  0  0  0  0
 26 28  1  0  0  0  0
 26 29  1  0  0  0  0
 24 25  1  0  0  0  0
 24 26  1  0  0  0  0
M  END
$$$$
default_name
  -OEChem-01062215323D

 29 28  0     1  0  0  0  0  0999 V2000
   -3.5781   -3.7296    1.2702 H   0  0  0  0  0  0  0  0  0  0  0  0
   -3.5311   -2.7616    0.7732 C   0  0  0  0  0  0  0  0  0  0  0  0
   -4.2371   -2.0766    1.2382 H   0  0  0  0  0  0  0  0  0  0  0  0
   -3.7681   -2.8816   -0.2818 H   0  0  0  0  0  0  0  0  0  0  0  0
   -2.1321   -2.2086    0.9112 C   0  0  0  0  0  0  0  0  0  0  0  0
   -1.2751   -2.8426    1.5112 O   0  0  0  0  0  0  0  0  0  0  0  0
   -1.9041   -1.0186    0.3602 N   0  0  0  0  0  0  0  0  0  0  0  0
   -2.6671   -0.5416   -0.0988 H   0  0  0  0  0  0  0  0  0  0  0  0
   -0.6131   -0.3236    0.3832 C   0  0  1  0  0  0  0  0  0  0  0  0
   -0.7958    0.7514    0.3443 H   0  0  0  0  0  0  0  0  0  0  0  0
    0.1074   -0.6427    1.7061 C   0  0  0  0  0  0  0  0  0  0  0  0
    0.1777   -1.7271    1.8149 H   0  0  0  0  0  0  0  0  0  0  0  0
    1.1197   -0.2373    1.6714 H   0  0  0  0  0  0  0  0  0  0  0  0
   -0.6037   -0.0796    2.9420 C   0  0  0  0  0  0  0  0  0  0  0  0
   -1.6074   -0.4997    2.9992 H   0  0  0  0  0  0  0  0  0  0  0  0
   -0.0478   -0.3771    3.8319 H   0  0  0  0  0  0  0  0  0  0  0  0
   -0.7496    1.7255    2.9360 S   0  0  0  0  0  0  0  0  0  0  0  0
    0.9906    2.1776    3.1583 C   0  0  0  0  0  0  0  0  0  0  0  0
    1.5816    1.7827    2.3314 H   0  0  0  0  0  0  0  0  0  0  0  0
    1.0821    3.2639    3.1783 H   0  0  0  0  0  0  0  0  0  0  0  0
    1.3593    1.7692    4.0996 H   0  0  0  0  0  0  0  0  0  0  0  0
    0.2271   -0.7107   -0.8421 C   0  0  0  0  0  0  0  0  0  0  0  0
    1.4545   -0.7095   -0.7734 O   0  0  0  0  0  0  0  0  0  0  0  0
   -0.4308   -1.0326   -1.9633 N   0  0  0  0  0  0  0  0  0  0  0  0
   -1.4381   -1.0257   -1.9395 H   0  0  0  0  0  0  0  0  0  0  0  0
    0.2247   -1.4079   -3.2151 C   0  0  0  0  0  0  0  0  0  0  0  0
    0.8691   -2.2740   -3.0475 H   0  0  0  0  0  0  0  0  0  0  0  0
   -0.5186   -1.6548   -3.9743 H   0  0  0  0  0  0  0  0  0  0  0  0
    0.8427   -0.5810   -3.5695 H   0  0  0  0  0  0  0  0  0  0  0  0
  5  6  2  0  0  0  0
  5  7  1  0  0  0  0
  2  3  1  0  0  0  0
  2  4  1  0  0  0  0
  2  5  1  0  0  0  0
  1  2  1  0  0  0  0
 22 23  2  0  0  0  0
 22 24  1  0  0  0  0
 18 19  1  0  0  0  0
 18 20  1  0  0  0  0
 18 21  1  0  0  0  0
 17 18  1  0  0  0  0
 14 15  1  0  0  0  0
 14 16  1  0  0  0  0
 14 17  1  0  0  0  0
 11 12  1  0  0  0  0
 11 13  1  0  0  0  0
 11 14  1  0  0  0  0
  9 10  1  0  0  0  0
  9 11  1  0  0  0  0
  9 22  1  0  0  0  0
  7  8  1  0  0  0  0
  7  9  1  0  0  0  0
 26 27  1  0  0  0  0
 26 28  1  0  0  0  0
 26 29  1  0  0  0  0
 24 25  1  0  0  0  0
 24 26  1  0  0  0  0
M  END
$$$$
default_name
  -OEChem-01062215323D

 29 28  0     1  0  0  0  0  0999 V2000
   -3.5781   -3.7296    1.2702 H   0  0  0  0  0  0  0  0  0  0  0  0
   -3.5311   -2.7616    0.7732 C   0  0  0  0  0  0  0  0  0  0  0  0
   -4.2371   -2.0766    1.2382 H   0  0  0  0  0  0  0  0  0  0  0  0
   -3.7681   -2.8816   -0.2818 H   0  0  0  0  0  0  0  0  0  0  0  0
   -2.1321   -2.2086    0.9112 C   0  0  0  0  0  0  0  0  0  0  0  0
   -1.2751   -2.8426    1.5112 O   0  0  0  0  0  0  0  0  0  0  0  0
   -1.9041   -1.0186    0.3602 N   0  0  0  0  0  0  0  0  0  0  0  0
   -2.6671   -0.5416   -0.0988 H   0  0  0  0  0  0  0  0  0  0  0  0
   -0.6131   -0.3236    0.3832 C   0  0  1  0  0  0  0  0  0  0  0  0
   -0.7958    0.7514    0.3443 H   0  0  0  0  0  0  0  0  0  0  0  0
    0.1074   -0.6427    1.7061 C   0  0  0  0  0  0  0  0  0  0  0  0
    0.1777   -1.7271    1.8149 H   0  0  0  0  0  0  0  0  0  0  0  0
    1.1197   -0.2373    1.6714 H   0  0  0  0  0  0  0  0  0  0  0  0
   -0.6037   -0.0796    2.9420 C   0  0  0  0  0  0  0  0  0  0  0  0
   -1.6074   -0.4997    2.9992 H   0  0  0  0  0  0  0  0  0  0  0  0
   -0.0478   -0.3771    3.8319 H   0  0  0  0  0  0  0  0  0  0  0  0
   -0.7496    1.7255    2.9360 S   0  0  0  0  0  0  0  0  0  0  0  0
    0.9906    2.1776    3.1583 C   0  0  0  0  0  0  0  0  0  0  0  0
    1.5816    1.7827    2.3314 H   0  0  0  0  0  0  0  0  0  0  0  0
    1.0821    3.2639    3.1783 H   0  0  0  0  0  0  0  0  0  0  0  0
    1.3593    1.7692    4.0996 H   0  0  0  0  0  0  0  0  0  0  0  0
    0.2271   -0.7107   -0.8421 C   0  0  0  0  0  0  0  0  0  0  0  0
    1.4199   -0.9781   -0.7122 O   0  0  0  0  0  0  0  0  0  0  0  0
   -0.3902   -0.7322   -2.0303 N   0  0  0  0  0  0  0  0  0  0  0  0
   -1.3739   -0.5160   -2.0566 H   0  0  0  0  0  0  0  0  0  0  0  0
    0.2742   -1.0653   -3.2894 C   0  0  0  0  0  0  0  0  0  0  0  0
    0.7150   -2.0626   -3.2200 H   0  0  0  0  0  0  0  0  0  0  0  0
   -0.4403   -1.0450   -4.1134 H   0  0  0  0  0  0  0  0  0  0  0  0
    1.0728   -0.3476   -3.4855 H   0  0  0  0  0  0  0  0  0  0  0  0
  5  6  2  0  0  0  0
  5  7  1  0  0  0  0
  2  3  1  0  0  0  0
  2  4  1  0  0  0  0
  2  5  1  0  0  0  0
  1  2  1  0  0  0  0
 22 23  2  0  0  0  0
 22 24  1  0  0  0  0
 18 19  1  0  0  0  0
 18 20  1  0  0  0  0
 18 21  1  0  0  0  0
 17 18  1  0  0  0  0
 14 15  1  0  0  0  0
 14 16  1  0  0  0  0
 14 17  1  0  0  0  0
 11 12  1  0  0  0  0
 11 13  1  0  0  0  0
 11 14  1  0  0  0  0
  9 10  1  0  0  0  0
  9 11  1  0  0  0  0
  9 22  1  0  0  0  0
  7  8  1  0  0  0  0
  7  9  1  0  0  0  0
 26 27  1  0  0  0  0
 26 28  1  0  0  0  0
 26 29  1  0  0  0  0
 24 25  1  0  0  0  0
 24 26  1  0  0  0  0
M  END
$$$$
default_name
  -OEChem-01062215323D

 29 28  0     1  0  0  0  0  0999 V2000
   -3.5781   -3.7296    1.2702 H   0  0  0  0  0  0  0  0  0  0  0  0
   -3.5311   -2.7616    0.7732 C   0  0  0  0  0  0  0  0  0  0  0  0
   -4.2371   -2.0766    1.2382 H   0  0  0  0  0  0  0  0  0  0  0  0
   -3.7681   -2.8816   -0.2818 H   0  0  0  0  0  0  0  0  0  0  0  0
   -2.1321   -2.2086    0.9112 C   0  0  0  0  0  0  0  0  0  0  0  0
   -1.2751   -2.8426    1.5112 O   0  0  0  0  0  0  0  0  0  0  0  0
   -1.9041   -1.0186    0.3602 N   0  0  0  0  0  0  0  0  0  0  0  0
   -2.6671   -0.5416   -0.0988 H   0  0  0  0  0  0  0  0  0  0  0  0
   -0.6131   -0.3236    0.3832 C   0  0  1  0  0  0  0  0  0  0  0  0
   -0.7958    0.7514    0.3443 H   0  0  0  0  0  0  0  0  0  0  0  0
    0.1074   -0.6427    1.7061 C   0  0  0  0  0  0  0  0  0  0  0  0
    0.1777   -1.7271    1.8149 H   0  0  0  0  0  0  0  0  0  0  0  0
    1.1197   -0.2373    1.6714 H   0  0  0  0  0  0  0  0  0  0  0  0
   -0.6037   -0.0796    2.9420 C   0  0  0  0  0  0  0  0  0  0  0  0
   -1.6074   -0.4997    2.9992 H   0  0  0  0  0  0  0  0  0  0  0  0
   -0.0478   -0.3771    3.8319 H   0  0  0  0  0  0  0  0  0  0  0  0
   -0.7496    1.7255    2.9360 S   0  0  0  0  0  0  0  0  0  0  0  0
    0.9906    2.1776    3.1583 C   0  0  0  0  0  0  0  0  0  0  0  0
    1.5816    1.7827    2.3314 H   0  0  0  0  0  0  0  0  0  0  0  0
    1.0821    3.2639    3.1783 H   0  0  0  0  0  0  0  0  0  0  0  0
    1.3593    1.7692    4.0996 H   0  0  0  0  0  0  0  0  0  0  0  0
    0.2271   -0.7107   -0.8421 C   0  0  0  0  0  0  0  0  0  0  0  0
    1.3271   -1.2391   -0.6934 O   0  0  0  0  0  0  0  0  0  0  0  0
   -0.2846   -0.4410   -2.0499 N   0  0  0  0  0  0  0  0  0  0  0  0
   -1.1991   -0.0203   -2.0933 H   0  0  0  0  0  0  0  0  0  0  0  0
    0.3976   -0.7341   -3.3094 C   0  0  0  0  0  0  0  0  0  0  0  0
    0.6210   -1.8020   -3.3667 H   0  0  0  0  0  0  0  0  0  0  0  0
   -0.2297   -0.4524   -4.1561 H   0  0  0  0  0  0  0  0  0  0  0  0
    1.3378   -0.1816   -3.3562 H   0  0  0  0  0  0  0  0  0  0  0  0
  5  6  2  0  0  0  0
  5  7  1  0  0  0  0
  2  3  1  0  0  0  0
  2  4  1  0  0  0  0
  2  5  1  0  0  0  0
  1  2  1  0  0  0  0
 22 23  2  0  0  0  0
 22 24  1  0  0  0  0
 18 19  1  0  0  0  0
 18 20  1  0  0  0  0
 18 21  1  0  0  0  0
 17 18  1  0  0  0  0
 14 15  1  0  0  0  0
 14 16  1  0  0  0  0
 14 17  1  0  0  0  0
 11 12  1  0  0  0  0
 11 13  1  0  0  0  0
 11 14  1  0  0  0  0
  9 10  1  0  0  0  0
  9 11  1  0  0  0  0
  9 22  1  0  0  0  0
  7  8  1  0  0  0  0
  7  9  1  0  0  0  0
 26 27  1  0  0  0  0
 26 28  1  0  0  0  0
 26 29  1  0  0  0  0
 24 25  1  0  0  0  0
 24 26  1  0  0  0  0
M  END
$$$$
default_name
  -OEChem-01062215323D

 29 28  0     1  0  0  0  0  0999 V2000
   -3.5781   -3.7296    1.2702 H   0  0  0  0  0  0  0  0  0  0  0  0
   -3.5311   -2.7616    0.7732 C   0  0  0  0  0  0  0  0  0  0  0  0
   -4.2371   -2.0766    1.2382 H   0  0  0  0  0  0  0  0  0  0  0  0
   -3.7681   -2.8816   -0.2818 H   0  0  0  0  0  0  0  0  0  0  0  0
   -2.1321   -2.2086    0.9112 C   0  0  0  0  0  0  0  0  0  0  0  0
   -1.2751   -2.8426    1.5112 O   0  0  0  0  0  0  0  0  0  0  0  0
   -1.9041   -1.0186    0.3602 N   0  0  0  0  0  0  0  0  0  0  0  0
   -2.6671   -0.5416   -0.0988 H   0  0  0  0  0  0  0  0  0  0  0  0
   -0.6131   -0.3236    0.3832 C   0  0  1  0  0  0  0  0  0  0  0  0
   -0.7958    0.7514    0.3443 H   0  0  0  0  0  0  0  0  0  0  0  0
    0.1074   -0.6427    1.7061 C   0  0  0  0  0  0  0  0  0  0  0  0
    0.1777   -1.7271    1.8149 H   0  0  0  0  0  0  0  0  0  0  0  0
    1.1197   -0.2373    1.6714 H   0  0  0  0  0  0  0  0  0  0  0  0
   -0.6037   -0.0796    2.9420 C   0  0  0  0  0  0  0  0  0  0  0  0
   -1.6074   -0.4997    2.9992 H   0  0  0  0  0  0  0  0  0  0  0  0
   -0.0478   -0.3771    3.8319 H   0  0  0  0  0  0  0  0  0  0  0  0
   -0.7496    1.7255    2.9360 S   0  0  0  0  0  0  0  0  0  0  0  0
    0.9906    2.1776    3.1583 C   0  0  0  0  0  0  0  0  0  0  0  0
    1.5816    1.7827    2.3314 H   0  0  0  0  0  0  0  0  0  0  0  0
    1.0821    3.2639    3.1783 H   0  0  0  0  0  0  0  0  0  0  0  0
    1.3593    1.7692    4.0996 H   0  0  0  0  0  0  0  0  0  0  0  0
    0.2271   -0.7107   -0.8421 C   0  0  0  0  0  0  0  0  0  0  0  0
    1.1822   -1.4747   -0.7183 O   0  0  0  0  0  0  0  0  0  0  0  0
   -0.1211   -0.1787   -2.0207 N   0  0  0  0  0  0  0  0  0  0  0  0
   -0.9254    0.4276   -2.0471 H   0  0  0  0  0  0  0  0  0  0  0  0
    0.5866   -0.4368   -3.2738 C   0  0  0  0  0  0  0  0  0  0  0  0
    0.5937   -1.5101   -3.4777 H   0  0  0  0  0  0  0  0  0  0  0  0
    0.0989    0.0825   -4.0998 H   0  0  0  0  0  0  0  0  0  0  0  0
    1.6196   -0.0942   -3.1906 H   0  0  0  0  0  0  0  0  0  0  0  0
  5  6  2  0  0  0  0
  5  7  1  0  0  0  0
  2  3  1  0  0  0  0
  2  4  1  0  0  0  0
  2  5  1  0  0  0  0
  1  2  1  0  0  0  0
 22 23  2  0  0  0  0
 22 24  1  0  0  0  0
 18 19  1  0  0  0  0
 18 20  1  0  0  0  0
 18 21  1  0  0  0  0
 17 18  1  0  0  0  0
 14 15  1  0  0  0  0
 14 16  1  0  0  0  0
 14 17  1  0  0  0  0
 11 12  1  0  0  0  0
 11 13  1  0  0  0  0
 11 14  1  0  0  0  0
  9 10  1  0  0  0  0
  9 11  1  0  0  0  0
  9 22  1  0  0  0  0
  7  8  1  0  0  0  0
  7  9  1  0  0  0  0
 26 27  1  0  0  0  0
 26 28  1  0  0  0  0
 26 29  1  0  0  0  0
 24 25  1  0  0  0  0
 24 26  1  0  0  0  0
M  END
$$$$
default_name
  -OEChem-01062215323D

 29 28  0     1  0  0  0  0  0999 V2000
   -3.5781   -3.7296    1.2702 H   0  0  0  0  0  0  0  0  0  0  0  0
   -3.5311   -2.7616    0.7732 C   0  0  0  0  0  0  0  0  0  0  0  0
   -4.2371   -2.0766    1.2382 H   0  0  0  0  0  0  0  0  0  0  0  0
   -3.7681   -2.8816   -0.2818 H   0  0  0  0  0  0  0  0  0  0  0  0
   -2.1321   -2.2086    0.9112 C   0  0  0  0  0  0  0  0  0  0  0  0
   -1.2751   -2.8426    1.5112 O   0  0  0  0  0  0  0  0  0  0  0  0
   -1.9041   -1.0186    0.3602 N   0  0  0  0  0  0  0  0  0  0  0  0
   -2.6671   -0.5416   -0.0988 H   0  0  0  0  0  0  0  0  0  0  0  0
   -0.6131   -0.3236    0.3832 C   0  0  1  0  0  0  0  0  0  0  0  0
   -0.7958    0.7514    0.3443 H   0  0  0  0  0  0  0  0  0  0  0  0
    0.1074   -0.6427    1.7061 C   0  0  0  0  0  0  0  0  0  0  0  0
    0.1777   -1.7271    1.8149 H   0  0  0  0  0  0  0  0  0  0  0  0
    1.1197   -0.2373    1.6714 H   0  0  0  0  0  0  0  0  0  0  0  0
   -0.6037   -0.0796    2.9420 C   0  0  0  0  0  0  0  0  0  0  0  0
   -1.6074   -0.4997    2.9992 H   0  0  0  0  0  0  0  0  0  0  0  0
   -0.0478   -0.3771    3.8319 H   0  0  0  0  0  0  0  0  0  0  0  0
   -0.7496    1.7255    2.9360 S   0  0  0  0  0  0  0  0  0  0  0  0
    0.9906    2.1776    3.1583 C   0  0  0  0  0  0  0  0  0  0  0  0
    1.5816    1.7827    2.3314 H   0  0  0  0  0  0  0  0  0  0  0  0
    1.0821    3.2639    3.1783 H   0  0  0  0  0  0  0  0  0  0  0  0
    1.3593    1.7692    4.0996 H   0  0  0  0  0  0  0  0  0  0  0  0
    0.2271   -0.7107   -0.8421 C   0  0  0  0  0  0  0  0  0  0  0  0
    0.9953   -1.6688   -0.7852 O   0  0  0  0  0  0  0  0  0  0  0  0
    0.0890    0.0368   -1.9447 N   0  0  0  0  0  0  0  0  0  0  0  0
   -0.5715    0.7972   -1.9213 H   0  0  0  0  0  0  0  0  0  0  0  0
    0.8282   -0.1938   -3.1849 C   0  0  0  0  0  0  0  0  0  0  0  0
    0.6348   -1.2068   -3.5454 H   0  0  0  0  0  0  0  0  0  0  0  0
    0.5232    0.5233   -3.9482 H   0  0  0  0  0  0  0  0  0  0  0  0
    1.8990   -0.0916   -2.9999 H   0  0  0  0  0  0  0  0  0  0  0  0
  5  6  2  0  0  0  0
  5  7  1  0  0  0  0
  2  3  1  0  0  0  0
  2  4  1  0  0  0  0
  2  5  1  0  0  0  0
  1  2  1  0  0  0  0
 22 23  2  0  0  0  0
 22 24  1  0  0  0  0
 18 19  1  0  0  0  0
 18 20  1  0  0  0  0
 18 21  1  0  0  0  0
 17 18  1  0  0  0  0
 14 15  1  0  0  0  0
 14 16  1  0  0  0  0
 14 17  1  0  0  0  0
 11 12  1  0  0  0  0
 11 13  1  0  0  0  0
 11 14  1  0  0  0  0
  9 10  1  0  0  0  0
  9 11  1  0  0  0  0
  9 22  1  0  0  0  0
  7  8  1  0  0  0  0
  7  9  1  0  0  0  0
 26 27  1  0  0  0  0
 26 28  1  0  0  0  0
 26 29  1  0  0  0  0
 24 25  1  0  0  0  0
 24 26  1  0  0  0  0
M  END
$$$$
default_name
  -OEChem-01062215323D

 29 28  0     1  0  0  0  0  0999 V2000
   -3.5781   -3.7296    1.2702 H   0  0  0  0  0  0  0  0  0  0  0  0
   -3.5311   -2.7616    0.7732 C   0  0  0  0  0  0  0  0  0  0  0  0
   -4.2371   -2.0766    1.2382 H   0  0  0  0  0  0  0  0  0  0  0  0
   -3.7681   -2.8816   -0.2818 H   0  0  0  0  0  0  0  0  0  0  0  0
   -2.1321   -2.2086    0.9112 C   0  0  0  0  0  0  0  0  0  0  0  0
   -1.2751   -2.8426    1.5112 O   0  0  0  0  0  0  0  0  0  0  0  0
   -1.9041   -1.0186    0.3602 N   0  0  0  0  0  0  0  0  0  0  0  0
   -2.6671   -0.5416   -0.0988 H   0  0  0  0  0  0  0  0  0  0  0  0
   -0.6131   -0.3236    0.3832 C   0  0  1  0  0  0  0  0  0  0  0  0
   -0.7958    0.7514    0.3443 H   0  0  0  0  0  0  0  0  0  0  0  0
    0.1074   -0.6427    1.7061 C   0  0  0  0  0  0  0  0  0  0  0  0
    0.1777   -1.7271    1.8149 H   0  0  0  0  0  0  0  0  0  0  0  0
    1.1197   -0.2373    1.6714 H   0  0  0  0  0  0  0  0  0  0  0  0
   -0.6037   -0.0796    2.9420 C   0  0  0  0  0  0  0  0  0  0  0  0
   -1.6074   -0.4997    2.9992 H   0  0  0  0  0  0  0  0  0  0  0  0
   -0.0478   -0.3771    3.8319 H   0  0  0  0  0  0  0  0  0  0  0  0
   -0.7496    1.7255    2.9360 S   0  0  0  0  0  0  0  0  0  0  0  0
    0.9906    2.1776    3.1583 C   0  0  0  0  0  0  0  0  0  0  0  0
    1.5816    1.7827    2.3314 H   0  0  0  0  0  0  0  0  0  0  0  0
    1.0821    3.2639    3.1783 H   0  0  0  0  0  0  0  0  0  0  0  0
    1.3593    1.7692    4.0996 H   0  0  0  0  0  0  0  0  0  0  0  0
    0.2271   -0.7107   -0.8421 C   0  0  0  0  0  0  0  0  0  0  0  0
    0.7790   -1.8082   -0.8894 O   0  0  0  0  0  0  0  0  0  0  0  0
    0.3316    0.1907   -1.8270 N   0  0  0  0  0  0  0  0  0  0  0  0
   -0.1616    1.0632   -1.7242 H   0  0  0  0  0  0  0  0  0  0  0  0
    1.1060   -0.0215   -3.0489 C   0  0  0  0  0  0  0  0  0  0  0  0
    0.7415   -0.9128   -3.5650 H   0  0  0  0  0  0  0  0  0  0  0  0
    1.0142    0.8400   -3.7116 H   0  0  0  0  0  0  0  0  0  0  0  0
    2.1570   -0.1737   -2.7970 H   0  0  0  0  0  0  0  0  0  0  0  0
  5  6  2  0  0  0  0
  5  7  1  0  0  0  0
  2  3  1  0  0  0  0
  2  4  1  0  0  0  0
  2  5  1  0  0  0  0
  1  2  1  0  0  0  0
 22 23  2  0  0  0  0
 22 24  1  0  0  0  0
 18 19  1  0  0  0  0
 18 20  1  0  0  0  0
 18 21  1  0  0  0  0
 17 18  1  0  0  0  0
 14 15  1  0  0  0  0
 14 16  1  0  0  0  0
 14 17  1  0  0  0  0
 11 12  1  0  0  0  0
 11 13  1  0  0  0  0
 11 14  1  0  0  0  0
  9 10  1  0  0  0  0
  9 11  1  0  0  0  0
  9 22  1  0  0  0  0
  7  8  1  0  0  0  0
  7  9  1  0  0  0  0
 26 27  1  0  0  0  0
 26 28  1  0  0  0  0
 26 29  1  0  0  0  0
 24 25  1  0  0  0  0
 24 26  1  0  0  0  0
M  END
$$$$
default_name
  -OEChem-01062215323D

 29 28  0     1  0  0  0  0  0999 V2000
   -3.5781   -3.7296    1.2702 H   0  0  0  0  0  0  0  0  0  0  0  0
   -3.5311   -2.7616    0.7732 C   0  0  0  0  0  0  0  0  0  0  0  0
   -4.2371   -2.0766    1.2382 H   0  0  0  0  0  0  0  0  0  0  0  0
   -3.7681   -2.8816   -0.2818 H   0  0  0  0  0  0  0  0  0  0  0  0
   -2.1321   -2.2086    0.9112 C   0  0  0  0  0  0  0  0  0  0  0  0
   -1.2751   -2.8426    1.5112 O   0  0  0  0  0  0  0  0  0  0  0  0
   -1.9041   -1.0186    0.3602 N   0  0  0  0  0  0  0  0  0  0  0  0
   -2.6671   -0.5416   -0.0988 H   0  0  0  0  0  0  0  0  0  0  0  0
   -0.6131   -0.3236    0.3832 C   0  0  1  0  0  0  0  0  0  0  0  0
   -0.7958    0.7514    0.3443 H   0  0  0  0  0  0  0  0  0  0  0  0
    0.1074   -0.6427    1.7061 C   0  0  0  0  0  0  0  0  0  0  0  0
    0.1777   -1.7271    1.8149 H   0  0  0  0  0  0  0  0  0  0  0  0
    1.1197   -0.2373    1.6714 H   0  0  0  0  0  0  0  0  0  0  0  0
   -0.6037   -0.0796    2.9420 C   0  0  0  0  0  0  0  0  0  0  0  0
   -1.6074   -0.4997    2.9992 H   0  0  0  0  0  0  0  0  0  0  0  0
   -0.0478   -0.3771    3.8319 H   0  0  0  0  0  0  0  0  0  0  0  0
   -0.7496    1.7255    2.9360 S   0  0  0  0  0  0  0  0  0  0  0  0
    0.9906    2.1776    3.1583 C   0  0  0  0  0  0  0  0  0  0  0  0
    1.5816    1.7827    2.3314 H   0  0  0  0  0  0  0  0  0  0  0  0
    1.0821    3.2639    3.1783 H   0  0  0  0  0  0  0  0  0  0  0  0
    1.3593    1.7692    4.0996 H   0  0  0  0  0  0  0  0  0  0  0  0
    0.2271   -0.7107   -0.8421 C   0  0  0  0  0  0  0  0  0  0  0  0
    0.5481   -1.8834   -1.0240 O   0  0  0  0  0  0  0  0  0  0  0  0
    0.5900    0.2726   -1.6757 N   0  0  0  0  0  0  0  0  0  0  0  0
    0.2765    1.2077   -1.4695 H   0  0  0  0  0  0  0  0  0  0  0  0
    1.4010    0.0683   -2.8750 C   0  0  0  0  0  0  0  0  0  0  0  0
    0.9067   -0.6480   -3.5354 H   0  0  0  0  0  0  0  0  0  0  0  0
    1.5384    1.0110   -3.4062 H   0  0  0  0  0  0  0  0  0  0  0  0
    2.3760   -0.3351   -2.5959 H   0  0  0  0  0  0  0  0  0  0  0  0
  5  6  2  0  0  0  0
  5  7  1  0  0  0  0
  2  3  1  0  0  0  0
  2  4  1  0  0  0  0
  2  5  1  0  0  0  0
  1  2  1  0  0  0  0
 22 23  2  0  0  0  0
 22 24  1  0  0  0  0
 18 19  1  0  0  0  0
 18 20  1  0  0  0  0
 18 21  1  0  0  0  0
 17 18  1  0  0  0  0
 14 15  1  0  0  0  0
 14 16  1  0  0  0  0
 14 17  1  0  0  0  0
 11 12  1  0  0  0  0
 11 13  1  0  0  0  0
 11 14  1  0  0  0  0
  9 10  1  0  0  0  0
  9 11  1  0  0  0  0
  9 22  1  0  0  0  0
  7  8  1  0  0  0  0
  7  9  1  0  0  0  0
 26 27  1  0  0  0  0
 26 28  1  0  0  0  0
 26 29  1  0  0  0  0
 24 25  1  0  0  0  0
 24 26  1  0  0  0  0
M  END
$$$$
default_name
  -OEChem-01062215323D

 29 28  0     1  0  0  0  0  0999 V2000
   -3.5781   -3.7296    1.2702 H   0  0  0  0  0  0  0  0  0  0  0  0
   -3.5311   -2.7616    0.7732 C   0  0  0  0  0  0  0  0  0  0  0  0
   -4.2371   -2.0766    1.2382 H   0  0  0  0  0  0  0  0  0  0  0  0
   -3.7681   -2.8816   -0.2818 H   0  0  0  0  0  0  0  0  0  0  0  0
   -2.1321   -2.2086    0.9112 C   0  0  0  0  0  0  0  0  0  0  0  0
   -1.2751   -2.8426    1.5112 O   0  0  0  0  0  0  0  0  0  0  0  0
   -1.9041   -1.0186    0.3602 N   0  0  0  0  0  0  0  0  0  0  0  0
   -2.6671   -0.5416   -0.0988 H   0  0  0  0  0  0  0  0  0  0  0  0
   -0.6131   -0.3236    0.3832 C   0  0  1  0  0  0  0  0  0  0  0  0
   -0.7958    0.7514    0.3443 H   0  0  0  0  0  0  0  0  0  0  0  0
    0.1074   -0.6427    1.7061 C   0  0  0  0  0  0  0  0  0  0  0  0
    0.1777   -1.7271    1.8149 H   0  0  0  0  0  0  0  0  0  0  0  0
    1.1197   -0.2373    1.6714 H   0  0  0  0  0  0  0  0  0  0  0  0
   -0.6037   -0.0796    2.9420 C   0  0  0  0  0  0  0  0  0  0  0  0
   -1.6074   -0.4997    2.9992 H   0  0  0  0  0  0  0  0  0  0  0  0
   -0.0478   -0.3771    3.8319 H   0  0  0  0  0  0  0  0  0  0  0  0
   -0.7496    1.7255    2.9360 S   0  0  0  0  0  0  0  0  0  0  0  0
    0.9906    2.1776    3.1583 C   0  0  0  0  0  0  0  0  0  0  0  0
    1.5816    1.7827    2.3314 H   0  0  0  0  0  0  0  0  0  0  0  0
    1.0821    3.2639    3.1783 H   0  0  0  0  0  0  0  0  0  0  0  0
    1.3593    1.7692    4.0996 H   0  0  0  0  0  0  0  0  0  0  0  0
    0.2271   -0.7107   -0.8421 C   0  0  0  0  0  0  0  0  0  0  0  0
    0.3183   -1.8893   -1.1797 O   0  0  0  0  0  0  0  0  0  0  0  0
    0.8466    0.2769   -1.5011 N   0  0  0  0  0  0  0  0  0  0  0  0
    0.7128    1.2206   -1.1744 H   0  0  0  0  0  0  0  0  0  0  0  0
    1.6931    0.0694   -2.6750 C   0  0  0  0  0  0  0  0  0  0  0  0
    1.1190   -0.4306   -3.4586 H   0  0  0  0  0  0  0  0  0  0  0  0
    2.0601    1.0246   -3.0527 H   0  0  0  0  0  0  0  0  0  0  0  0
    2.5411   -0.5647   -2.4101 H   0  0  0  0  0  0  0  0  0  0  0  0
  5  6  2  0  0  0  0
  5  7  1  0  0  0  0
  2  3  1  0  0  0  0
  2  4  1  0  0  0  0
  2  5  1  0  0  0  0
  1  2  1  0  0  0  0
 22 23  2  0  0  0  0
 22 24  1  0  0  0  0
 18 19  1  0  0  0  0
 18 20  1  0  0  0  0
 18 21  1  0  0  0  0
 17 18  1  0  0  0  0
 14 15  1  0  0  0  0
 14 16  1  0  0  0  0
 14 17  1  0  0  0  0
 11 12  1  0  0  0  0
 11 13  1  0  0  0  0
 11 14  1  0  0  0  0
  9 10  1  0  0  0  0
  9 11  1  0  0  0  0
  9 22  1  0  0  0  0
  7  8  1  0  0  0  0
  7  9  1  0  0  0  0
 26 27  1  0  0  0  0
 26 28  1  0  0  0  0
 26 29  1  0  0  0  0
 24 25  1  0  0  0  0
 24 26  1  0  0  0  0
M  END
$$$$
default_name
  -OEChem-01062215323D

 29 28  0     1  0  0  0  0  0999 V2000
   -3.5781   -3.7296    1.2702 H   0  0  0  0  0  0  0  0  0  0  0  0
   -3.5311   -2.7616    0.7732 C   0  0  0  0  0  0  0  0  0  0  0  0
   -4.2371   -2.0766    1.2382 H   0  0  0  0  0  0  0  0  0  0  0  0
   -3.7681   -2.8816   -0.2818 H   0  0  0  0  0  0  0  0  0  0  0  0
   -2.1321   -2.2086    0.9112 C   0  0  0  0  0  0  0  0  0  0  0  0
   -1.2751   -2.8426    1.5112 O   0  0  0  0  0  0  0  0  0  0  0  0
   -1.9041   -1.0186    0.3602 N   0  0  0  0  0  0  0  0  0  0  0  0
   -2.6671   -0.5416   -0.0988 H   0  0  0  0  0  0  0  0  0  0  0  0
   -0.6131   -0.3236    0.3832 C   0  0  1  0  0  0  0  0  0  0  0  0
   -0.7958    0.7514    0.3443 H   0  0  0  0  0  0  0  0  0  0  0  0
    0.1074   -0.6427    1.7061 C   0  0  0  0  0  0  0  0  0  0  0  0
    0.1777   -1.7271    1.8149 H   0  0  0  0  0  0  0  0  0  0  0  0
    1.1197   -0.2373    1.6714 H   0  0  0  0  0  0  0  0  0  0  0  0
   -0.6037   -0.0796    2.9420 C   0  0  0  0  0  0  0  0  0  0  0  0
   -1.6074   -0.4997    2.9992 H   0  0  0  0  0  0  0  0  0  0  0  0
   -0.0478   -0.3771    3.8319 H   0  0  0  0  0  0  0  0  0  0  0  0
   -0.7496    1.7255    2.9360 S   0  0  0  0  0  0  0  0  0  0  0  0
    0.9906    2.1776    3.1583 C   0  0  0  0  0  0  0  0  0  0  0  0
    1.5816    1.7827    2.3314 H   0  0  0  0  0  0  0  0  0  0  0  0
    1.0821    3.2639    3.1783 H   0  0  0  0  0  0  0  0  0  0  0  0
    1.3593    1.7692    4.0996 H   0  0  0  0  0  0  0  0  0  0  0  0
    0.2271   -0.7107   -0.8421 C   0  0  0  0  0  0  0  0  0  0  0  0
    0.1053   -1.8254   -1.3459 O   0  0  0  0  0  0  0  0  0  0  0  0
    1.0840    0.2034   -1.3151 N   0  0  0  0  0  0  0  0  0  0  0  0
    1.1177    1.1011   -0.8590 H   0  0  0  0  0  0  0  0  0  0  0  0
    1.9625   -0.0181   -2.4626 C   0  0  0  0  0  0  0  0  0  0  0  0
    1.3639   -0.2753   -3.3397 H   0  0  0  0  0  0  0  0  0  0  0  0
    2.5438    0.8800   -2.6753 H   0  0  0  0  0  0  0  0  0  0  0  0
    2.6410   -0.8468   -2.2524 H   0  0  0  0  0  0  0  0  0  0  0  0
  5  6  2  0  0  0  0
  5  7  1  0  0  0  0
  2  3  1  0  0  0  0
  2  4  1  0  0  0  0
  2  5  1  0  0  0  0
  1  2  1  0  0  0  0
 22 23  2  0  0  0  0
 22 24  1  0  0  0  0
 18 19  1  0  0  0  0
 18 20  1  0  0  0  0
 18 21  1  0  0  0  0
 17 18  1  0  0  0  0
 14 15  1  0  0  0  0
 14 16  1  0  0  0  0
 14 17  1  0  0  0  0
 11 12  1  0  0  0  0
 11 13  1  0  0  0  0
 11 14  1  0  0  0  0
  9 10  1  0  0  0  0
  9 11  1  0  0  0  0
  9 22  1  0  0  0  0
  7  8  1  0  0  0  0
  7  9  1  0  0  0  0
 26 27  1  0  0  0  0
 26 28  1  0  0  0  0
 26 29  1  0  0  0  0
 24 25  1  0  0  0  0
 24 26  1  0  0  0  0
M  END
$$$$
default_name
  -OEChem-01062215323D

 29 28  0     1  0  0  0  0  0999 V2000
   -3.5781   -3.7296    1.2702 H   0  0  0  0  0  0  0  0  0  0  0  0
   -3.5311   -2.7616    0.7732 C   0  0  0  0  0  0  0  0  0  0  0  0
   -4.2371   -2.0766    1.2382 H   0  0  0  0  0  0  0  0  0  0  0  0
   -3.7681   -2.8816   -0.2818 H   0  0  0  0  0  0  0  0  0  0  0  0
   -2.1321   -2.2086    0.9112 C   0  0  0  0  0  0  0  0  0  0  0  0
   -1.2751   -2.8426    1.5112 O   0  0  0  0  0  0  0  0  0  0  0  0
   -1.9041   -1.0186    0.3602 N   0  0  0  0  0  0  0  0  0  0  0  0
   -2.6671   -0.5416   -0.0988 H   0  0  0  0  0  0  0  0  0  0  0  0
   -0.6131   -0.3236    0.3832 C   0  0  1  0  0  0  0  0  0  0  0  0
   -0.7958    0.7514    0.3443 H   0  0  0  0  0  0  0  0  0  0  0  0
    0.1074   -0.6427    1.7061 C   0  0  0  0  0  0  0  0  0  0  0  0
    0.1777   -1.7271    1.8149 H   0  0  0  0  0  0  0  0  0  0  0  0
    1.1197   -0.2373    1.6714 H   0  0  0  0  0  0  0  0  0  0  0  0
   -0.6037   -0.0796    2.9420 C   0  0  0  0  0  0  0  0  0  0  0  0
   -1.6074   -0.4997    2.9992 H   0  0  0  0  0  0  0  0  0  0  0  0
   -0.0478   -0.3771    3.8319 H   0  0  0  0  0  0  0  0  0  0  0  0
   -0.7496    1.7255    2.9360 S   0  0  0  0  0  0  0  0  0  0  0  0
    0.9906    2.1776    3.1583 C   0  0  0  0  0  0  0  0  0  0  0  0
    1.5816    1.7827    2.3314 H   0  0  0  0  0  0  0  0  0  0  0  0
    1.0821    3.2639    3.1783 H   0  0  0  0  0  0  0  0  0  0  0  0
    1.3593    1.7692    4.0996 H   0  0  0  0  0  0  0  0  0  0  0  0
    0.2271   -0.7107   -0.8421 C   0  0  0  0  0  0  0  0  0  0  0  0
   -0.0764   -1.6962   -1.5114 O   0  0  0  0  0  0  0  0  0  0  0  0
    1.2860    0.0569   -1.1303 N   0  0  0  0  0  0  0  0  0  0  0  0
    1.4635    0.8574   -0.5449 H   0  0  0  0  0  0  0  0  0  0  0  0
    2.1907   -0.1885   -2.2523 C   0  0  0  0  0  0  0  0  0  0  0  0
    1.6248   -0.1928   -3.1869 H   0  0  0  0  0  0  0  0  0  0  0  0
    2.9566    0.5868   -2.2997 H   0  0  0  0  0  0  0  0  0  0  0  0
    2.6689   -1.1624   -2.1336 H   0  0  0  0  0  0  0  0  0  0  0  0
  5  6  2  0  0  0  0
  5  7  1  0  0  0  0
  2  3  1  0  0  0  0
  2  4  1  0  0  0  0
  2  5  1  0  0  0  0
  1  2  1  0  0  0  0
 22 23  2  0  0  0  0
 22 24  1  0  0  0  0
 18 19  1  0  0  0  0
 18 20  1  0  0  0  0
 18 21  1  0  0  0  0
 17 18  1  0  0  0  0
 14 15  1  0  0  0  0
 14 16  1  0  0  0  0
 14 17  1  0  0  0  0
 11 12  1  0  0  0  0
 11 13  1  0  0  0  0
 11 14  1  0  0  0  0
  9 10  1  0  0  0  0
  9 11  1  0  0  0  0
  9 22  1  0  0  0  0
  7  8  1  0  0  0  0
  7  9  1  0  0  0  0
 26 27  1  0  0  0  0
 26 28  1  0  0  0  0
 26 29  1  0  0  0  0
 24 25  1  0  0  0  0
 24 26  1  0  0  0  0
M  END
$$$$
default_name
  -OEChem-01062215323D

 29 28  0     1  0  0  0  0  0999 V2000
   -3.5781   -3.7296    1.2702 H   0  0  0  0  0  0  0  0  0  0  0  0
   -3.5311   -2.7616    0.7732 C   0  0  0  0  0  0  0  0  0  0  0  0
   -4.2371   -2.0766    1.2382 H   0  0  0  0  0  0  0  0  0  0  0  0
   -3.7681   -2.8816   -0.2818 H   0  0  0  0  0  0  0  0  0  0  0  0
   -2.1321   -2.2086    0.9112 C   0  0  0  0  0  0  0  0  0  0  0  0
   -1.2751   -2.8426    1.5112 O   0  0  0  0  0  0  0  0  0  0  0  0
   -1.9041   -1.0186    0.3602 N   0  0  0  0  0  0  0  0  0  0  0  0
   -2.6671   -0.5416   -0.0988 H   0  0  0  0  0  0  0  0  0  0  0  0
   -0.6131   -0.3236    0.3832 C   0  0  1  0  0  0  0  0  0  0  0  0
   -0.7883    0.7285    0.6132 H   0  0  0  0  0  0  0  0  0  0  0  0
    0.2616   -0.9222    1.5002 C   0  0  0  0  0  0  0  0  0  0  0  0
    0.3337   -2.0014    1.3493 H   0  0  0  0  0  0  0  0  0  0  0  0
    1.2659   -0.5011    1.4354 H   0  0  0  0  0  0  0  0  0  0  0  0
   -0.2862   -0.6683    2.9093 C   0  0  0  0  0  0  0  0  0  0  0  0
   -1.2794   -1.1086    2.9914 H   0  0  0  0  0  0  0  0  0  0  0  0
    0.3720   -1.1503    3.6331 H   0  0  0  0  0  0  0  0  0  0  0  0
   -0.4133    1.0878    3.3331 S   0  0  0  0  0  0  0  0  0  0  0  0
    1.3454    1.5091    3.4384 C   0  0  0  0  0  0  0  0  0  0  0  0
    1.8261    1.3237    2.4774 H   0  0  0  0  0  0  0  0  0  0  0  0
    1.4497    2.5639    3.6943 H   0  0  0  0  0  0  0  0  0  0  0  0
    1.8231    0.9040    4.2094 H   0  0  0  0  0  0  0  0  0  0  0  0
    0.0659   -0.4062   -0.9914 C   0  0  0  0  0  0  0  0  0  0  0  0
   -0.4818   -1.0057   -1.9144 O   0  0  0  0  0  0  0  0  0  0  0  0
    1.2594    0.1861   -1.1254 N   0  0  0  0  0  0  0  0  0  0  0  0
    1.6389    0.6719   -0.3284 H   0  0  0  0  0  0  0  0  0  0  0  0
    2.0378    0.1830   -2.3631 C   0  0  0  0  0  0  0  0  0  0  0  0
    1.4483    0.6260   -3.1693 H   0  0  0  0  0  0  0  0  0  0  0  0
    2.9579    0.7547   -2.2350 H   0  0  0  0  0  0  0  0  0  0  0  0
    2.2853   -0.8433   -2.6399 H   0  0  0  0  0  0  0  0  0  0  0  0
  5  6  2  0  0  0  0
  5  7  1  0  0  0  0
  2  3  1  0  0  0  0
  2  4  1  0  0  0  0
  2  5  1  0  0  0  0
  1  2  1  0  0  0  0
 22 23  2  0  0  0  0
 22 24  1  0  0  0  0
 18 19  1  0  0  0  0
 18 20  1  0  0  0  0
 18 21  1  0  0  0  0
 17 18  1  0  0  0  0
 14 15  1  0  0  0  0
 14 16  1  0  0  0  0
 14 17  1  0  0  0  0
 11 12  1  0  0  0  0
 11 13  1  0  0  0  0
 11 14  1  0  0  0  0
  9 10  1  0  0  0  0
  9 11  1  0  0  0  0
  9 22  1  0  0  0  0
  7  8  1  0  0  0  0
  7  9  1  0  0  0  0
 26 27  1  0  0  0  0
 26 28  1  0  0  0  0
 26 29  1  0  0  0  0
 24 25  1  0  0  0  0
 24 26  1  0  0  0  0
M  END
$$$$
default_name
  -OEChem-01062215323D

 29 28  0     1  0  0  0  0  0999 V2000
   -3.5781   -3.7296    1.2702 H   0  0  0  0  0  0  0  0  0  0  0  0
   -3.5311   -2.7616    0.7732 C   0  0  0  0  0  0  0  0  0  0  0  0
   -4.2371   -2.0766    1.2382 H   0  0  0  0  0  0  0  0  0  0  0  0
   -3.7681   -2.8816   -0.2818 H   0  0  0  0  0  0  0  0  0  0  0  0
   -2.1321   -2.2086    0.9112 C   0  0  0  0  0  0  0  0  0  0  0  0
   -1.2751   -2.8426    1.5112 O   0  0  0  0  0  0  0  0  0  0  0  0
   -1.9041   -1.0186    0.3602 N   0  0  0  0  0  0  0  0  0  0  0  0
   -2.6671   -0.5416   -0.0988 H   0  0  0  0  0  0  0  0  0  0  0  0
   -0.6131   -0.3236    0.3832 C   0  0  1  0  0  0  0  0  0  0  0  0
   -0.7883    0.7285    0.6132 H   0  0  0  0  0  0  0  0  0  0  0  0
    0.2616   -0.9222    1.5002 C   0  0  0  0  0  0  0  0  0  0  0  0
    0.3337   -2.0014    1.3493 H   0  0  0  0  0  0  0  0  0  0  0  0
    1.2659   -0.5011    1.4354 H   0  0  0  0  0  0  0  0  0  0  0  0
   -0.2862   -0.6683    2.9093 C   0  0  0  0  0  0  0  0  0  0  0  0
   -1.2794   -1.1086    2.9914 H   0  0  0  0  0  0  0  0  0  0  0  0
    0.3720   -1.1503    3.6331 H   0  0  0  0  0  0  0  0  0  0  0  0
   -0.4133    1.0878    3.3331 S   0  0  0  0  0  0  0  0  0  0  0  0
    1.3454    1.5091    3.4384 C   0  0  0  0  0  0  0  0  0  0  0  0
    1.8261    1.3237    2.4774 H   0  0  0  0  0  0  0  0  0  0  0  0
    1.4497    2.5639    3.6943 H   0  0  0  0  0  0  0  0  0  0  0  0
    1.8231    0.9040    4.2094 H   0  0  0  0  0  0  0  0  0  0  0  0
    0.0659   -0.4062   -0.9914 C   0  0  0  0  0  0  0  0  0  0  0  0
   -0.5799   -0.7538   -1.9780 O   0  0  0  0  0  0  0  0  0  0  0  0
    1.3672   -0.0964   -1.0552 N   0  0  0  0  0  0  0  0  0  0  0  0
    1.8265    0.1947   -0.2070 H   0  0  0  0  0  0  0  0  0  0  0  0
    2.1574   -0.1408   -2.2845 C   0  0  0  0  0  0  0  0  0  0  0  0
    1.7085    0.5151   -3.0341 H   0  0  0  0  0  0  0  0  0  0  0  0
    3.1808    0.1831   -2.0905 H   0  0  0  0  0  0  0  0  0  0  0  0
    2.1687   -1.1586   -2.6785 H   0  0  0  0  0  0  0  0  0  0  0  0
  5  6  2  0  0  0  0
  5  7  1  0  0  0  0
  2  3  1  0  0  0  0
  2  4  1  0  0  0  0
  2  5  1  0  0  0  0
  1  2  1  0  0  0  0
 22 23  2  0  0  0  0
 22 24  1  0  0  0  0
 18 19  1  0  0  0  0
 18 20  1  0  0  0  0
 18 21  1  0  0  0  0
 17 18  1  0  0  0  0
 14 15  1  0  0  0  0
 14 16  1  0  0  0  0
 14 17  1  0  0  0  0
 11 12  1  0  0  0  0
 11 13  1  0  0  0  0
 11 14  1  0  0  0  0
  9 10  1  0  0  0  0
  9 11  1  0  0  0  0
  9 22  1  0  0  0  0
  7  8  1  0  0  0  0
  7  9  1  0  0  0  0
 26 27  1  0  0  0  0
 26 28  1  0  0  0  0
 26 29  1  0  0  0  0
 24 25  1  0  0  0  0
 24 26  1  0  0  0  0
M  END
$$$$
default_name
  -OEChem-01062215323D

 29 28  0     1  0  0  0  0  0999 V2000
   -3.5781   -3.7296    1.2702 H   0  0  0  0  0  0  0  0  0  0  0  0
   -3.5311   -2.7616    0.7732 C   0  0  0  0  0  0  0  0  0  0  0  0
   -4.2371   -2.0766    1.2382 H   0  0  0  0  0  0  0  0  0  0  0  0
   -3.7681   -2.8816   -0.2818 H   0  0  0  0  0  0  0  0  0  0  0  0
   -2.1321   -2.2086    0.9112 C   0  0  0  0  0  0  0  0  0  0  0  0
   -1.2751   -2.8426    1.5112 O   0  0  0  0  0  0  0  0  0  0  0  0
   -1.9041   -1.0186    0.3602 N   0  0  0  0  0  0  0  0  0  0  0  0
   -2.6671   -0.5416   -0.0988 H   0  0  0  0  0  0  0  0  0  0  0  0
   -0.6131   -0.3236    0.3832 C   0  0  1  0  0  0  0  0  0  0  0  0
   -0.7883    0.7285    0.6132 H   0  0  0  0  0  0  0  0  0  0  0  0
    0.2616   -0.9222    1.5002 C   0  0  0  0  0  0  0  0  0  0  0  0
    0.3337   -2.0014    1.3493 H   0  0  0  0  0  0  0  0  0  0  0  0
    1.2659   -0.5011    1.4354 H   0  0  0  0  0  0  0  0  0  0  0  0
   -0.2862   -0.6683    2.9093 C   0  0  0  0  0  0  0  0  0  0  0  0
   -1.2794   -1.1086    2.9914 H   0  0  0  0  0  0  0  0  0  0  0  0
    0.3720   -1.1503    3.6331 H   0  0  0  0  0  0  0  0  0  0  0  0
   -0.4133    1.0878    3.3331 S   0  0  0  0  0  0  0  0  0  0  0  0
    1.3454    1.5091    3.4384 C   0  0  0  0  0  0  0  0  0  0  0  0
    1.8261    1.3237    2.4774 H   0  0  0  0  0  0  0  0  0  0  0  0
    1.4497    2.5639    3.6943 H   0  0  0  0  0  0  0  0  0  0  0  0
    1.8231    0.9040    4.2094 H   0  0  0  0  0  0  0  0  0  0  0  0
    0.0659   -0.4062   -0.9914 C   0  0  0  0  0  0  0  0  0  0  0  0
   -0.6154   -0.4806   -2.0120 O   0  0  0  0  0  0  0  0  0  0  0  0
    1.4048   -0.4023   -1.0182 N   0  0  0  0  0  0  0  0  0  0  0  0
    1.8955   -0.3236   -0.1418 H   0  0  0  0  0  0  0  0  0  0  0  0
    2.1968   -0.4903   -2.2440 C   0  0  0  0  0  0  0  0  0  0  0  0
    1.9322    0.3323   -2.9126 H   0  0  0  0  0  0  0  0  0  0  0  0
    3.2616   -0.4372   -2.0133 H   0  0  0  0  0  0  0  0  0  0  0  0
    1.9836   -1.4317   -2.7535 H   0  0  0  0  0  0  0  0  0  0  0  0
  5  6  2  0  0  0  0
  5  7  1  0  0  0  0
  2  3  1  0  0  0  0
  2  4  1  0  0  0  0
  2  5  1  0  0  0  0
  1  2  1  0  0  0  0
 22 23  2  0  0  0  0
 22 24  1  0  0  0  0
 18 19  1  0  0  0  0
 18 20  1  0  0  0  0
 18 21  1  0  0  0  0
 17 18  1  0  0  0  0
 14 15  1  0  0  0  0
 14 16  1  0  0  0  0
 14 17  1  0  0  0  0
 11 12  1  0  0  0  0
 11 13  1  0  0  0  0
 11 14  1  0  0  0  0
  9 10  1  0  0  0  0
  9 11  1  0  0  0  0
  9 22  1  0  0  0  0
  7  8  1  0  0  0  0
  7  9  1  0  0  0  0
 26 27  1  0  0  0  0
 26 28  1  0  0  0  0
 26 29  1  0  0  0  0
 24 25  1  0  0  0  0
 24 26  1  0  0  0  0
M  END
$$$$
default_name
  -OEChem-01062215323D

 29 28  0     1  0  0  0  0  0999 V2000
   -3.5781   -3.7296    1.2702 H   0  0  0  0  0  0  0  0  0  0  0  0
   -3.5311   -2.7616    0.7732 C   0  0  0  0  0  0  0  0  0  0  0  0
   -4.2371   -2.0766    1.2382 H   0  0  0  0  0  0  0  0  0  0  0  0
   -3.7681   -2.8816   -0.2818 H   0  0  0  0  0  0  0  0  0  0  0  0
   -2.1321   -2.2086    0.9112 C   0  0  0  0  0  0  0  0  0  0  0  0
   -1.2751   -2.8426    1.5112 O   0  0  0  0  0  0  0  0  0  0  0  0
   -1.9041   -1.0186    0.3602 N   0  0  0  0  0  0  0  0  0  0  0  0
   -2.6671   -0.5416   -0.0988 H   0  0  0  0  0  0  0  0  0  0  0  0
   -0.6131   -0.3236    0.3832 C   0  0  1  0  0  0  0  0  0  0  0  0
   -0.7883    0.7285    0.6132 H   0  0  0  0  0  0  0  0  0  0  0  0
    0.2616   -0.9222    1.5002 C   0  0  0  0  0  0  0  0  0  0  0  0
    0.3337   -2.0014    1.3493 H   0  0  0  0  0  0  0  0  0  0  0  0
    1.2659   -0.5011    1.4354 H   0  0  0  0  0  0  0  0  0  0  0  0
   -0.2862   -0.6683    2.9093 C   0  0  0  0  0  0  0  0  0  0  0  0
   -1.2794   -1.1086    2.9914 H   0  0  0  0  0  0  0  0  0  0  0  0
    0.3720   -1.1503    3.6331 H   0  0  0  0  0  0  0  0  0  0  0  0
   -0.4133    1.0878    3.3331 S   0  0  0  0  0  0  0  0  0  0  0  0
    1.3454    1.5091    3.4384 C   0  0  0  0  0  0  0  0  0  0  0  0
    1.8261    1.3237    2.4774 H   0  0  0  0  0  0  0  0  0  0  0  0
    1.4497    2.5639    3.6943 H   0  0  0  0  0  0  0  0  0  0  0  0
    1.8231    0.9040    4.2094 H   0  0  0  0  0  0  0  0  0  0  0  0
    0.0659   -0.4062   -0.9914 C   0  0  0  0  0  0  0  0  0  0  0  0
   -0.5859   -0.2045   -2.0140 O   0  0  0  0  0  0  0  0  0  0  0  0
    1.3697   -0.7108   -1.0170 N   0  0  0  0  0  0  0  0  0  0  0  0
    1.8411   -0.8477   -0.1371 H   0  0  0  0  0  0  0  0  0  0  0  0
    2.1534   -0.8416   -2.2444 C   0  0  0  0  0  0  0  0  0  0  0  0
    2.1043    0.0900   -2.8130 H   0  0  0  0  0  0  0  0  0  0  0  0
    3.1949   -1.0640   -2.0086 H   0  0  0  0  0  0  0  0  0  0  0  0
    1.7426   -1.6440   -2.8598 H   0  0  0  0  0  0  0  0  0  0  0  0
  5  6  2  0  0  0  0
  5  7  1  0  0  0  0
  2  3  1  0  0  0  0
  2  4  1  0  0  0  0
  2  5  1  0  0  0  0
  1  2  1  0  0  0  0
 22 23  2  0  0  0  0
 22 24  1  0  0  0  0
 18 19  1  0  0  0  0
 18 20  1  0  0  0  0
 18 21  1  0  0  0  0
 17 18  1  0  0  0  0
 14 15  1  0  0  0  0
 14 16  1  0  0  0  0
 14 17  1  0  0  0  0
 11 12  1  0  0  0  0
 11 13  1  0  0  0  0
 11 14  1  0  0  0  0
  9 10  1  0  0  0  0
  9 11  1  0  0  0  0
  9 22  1  0  0  0  0
  7  8  1  0  0  0  0
  7  9  1  0  0  0  0
 26 27  1  0  0  0  0
 26 28  1  0  0  0  0
 26 29  1  0  0  0  0
 24 25  1  0  0  0  0
 24 26  1  0  0  0  0
M  END
$$$$
default_name
  -OEChem-01062215323D

 29 28  0     1  0  0  0  0  0999 V2000
   -3.5781   -3.7296    1.2702 H   0  0  0  0  0  0  0  0  0  0  0  0
   -3.5311   -2.7616    0.7732 C   0  0  0  0  0  0  0  0  0  0  0  0
   -4.2371   -2.0766    1.2382 H   0  0  0  0  0  0  0  0  0  0  0  0
   -3.7681   -2.8816   -0.2818 H   0  0  0  0  0  0  0  0  0  0  0  0
   -2.1321   -2.2086    0.9112 C   0  0  0  0  0  0  0  0  0  0  0  0
   -1.2751   -2.8426    1.5112 O   0  0  0  0  0  0  0  0  0  0  0  0
   -1.9041   -1.0186    0.3602 N   0  0  0  0  0  0  0  0  0  0  0  0
   -2.6671   -0.5416   -0.0988 H   0  0  0  0  0  0  0  0  0  0  0  0
   -0.6131   -0.3236    0.3832 C   0  0  1  0  0  0  0  0  0  0  0  0
   -0.7883    0.7285    0.6132 H   0  0  0  0  0  0  0  0  0  0  0  0
    0.2616   -0.9222    1.5002 C   0  0  0  0  0  0  0  0  0  0  0  0
    0.3337   -2.0014    1.3493 H   0  0  0  0  0  0  0  0  0  0  0  0
    1.2659   -0.5011    1.4354 H   0  0  0  0  0  0  0  0  0  0  0  0
   -0.2862   -0.6683    2.9093 C   0  0  0  0  0  0  0  0  0  0  0  0
   -1.2794   -1.1086    2.9914 H   0  0  0  0  0  0  0  0  0  0  0  0
    0.3720   -1.1503    3.6331 H   0  0  0  0  0  0  0  0  0  0  0  0
   -0.4133    1.0878    3.3331 S   0  0  0  0  0  0  0  0  0  0  0  0
    1.3454    1.5091    3.4384 C   0  0  0  0  0  0  0  0  0  0  0  0
    1.8261    1.3237    2.4774 H   0  0  0  0  0  0  0  0  0  0  0  0
    1.4497    2.5639    3.6943 H   0  0  0  0  0  0  0  0  0  0  0  0
    1.8231    0.9040    4.2094 H   0  0  0  0  0  0  0  0  0  0  0  0
    0.0659   -0.4062   -0.9914 C   0  0  0  0  0  0  0  0  0  0  0  0
   -0.4934    0.0556   -1.9839 O   0  0  0  0  0  0  0  0  0  0  0  0
    1.2644   -1.0007   -1.0516 N   0  0  0  0  0  0  0  0  0  0  0  0
    1.6671   -1.3419   -0.1933 H   0  0  0  0  0  0  0  0  0  0  0  0
    2.0300   -1.1709   -2.2855 C   0  0  0  0  0  0  0  0  0  0  0  0
    2.2129   -0.1954   -2.7422 H   0  0  0  0  0  0  0  0  0  0  0  0
    2.9851   -1.6545   -2.0767 H   0  0  0  0  0  0  0  0  0  0  0  0
    1.4620   -1.7811   -2.9901 H   0  0  0  0  0  0  0  0  0  0  0  0
  5  6  2  0  0  0  0
  5  7  1  0  0  0  0
  2  3  1  0  0  0  0
  2  4  1  0  0  0  0
  2  5  1  0  0  0  0
  1  2  1  0  0  0  0
 22 23  2  0  0  0  0
 22 24  1  0  0  0  0
 18 19  1  0  0  0  0
 18 20  1  0  0  0  0
 18 21  1  0  0  0  0
 17 18  1  0  0  0  0
 14 15  1  0  0  0  0
 14 16  1  0  0  0  0
 14 17  1  0  0  0  0
 11 12  1  0  0  0  0
 11 13  1  0  0  0  0
 11 14  1  0  0  0  0
  9 10  1  0  0  0  0
  9 11  1  0  0  0  0
  9 22  1  0  0  0  0
  7  8  1  0  0  0  0
  7  9  1  0  0  0  0
 26 27  1  0  0  0  0
 26 28  1  0  0  0  0
 26 29  1  0  0  0  0
 24 25  1  0  0  0  0
 24 26  1  0  0  0  0
M  END
$$$$
default_name
  -OEChem-01062215323D

 29 28  0     1  0  0  0  0  0999 V2000
   -3.5781   -3.7296    1.2702 H   0  0  0  0  0  0  0  0  0  0  0  0
   -3.5311   -2.7616    0.7732 C   0  0  0  0  0  0  0  0  0  0  0  0
   -4.2371   -2.0766    1.2382 H   0  0  0  0  0  0  0  0  0  0  0  0
   -3.7681   -2.8816   -0.2818 H   0  0  0  0  0  0  0  0  0  0  0  0
   -2.1321   -2.2086    0.9112 C   0  0  0  0  0  0  0  0  0  0  0  0
   -1.2751   -2.8426    1.5112 O   0  0  0  0  0  0  0  0  0  0  0  0
   -1.9041   -1.0186    0.3602 N   0  0  0  0  0  0  0  0  0  0  0  0
   -2.6671   -0.5416   -0.0988 H   0  0  0  0  0  0  0  0  0  0  0  0
   -0.6131   -0.3236    0.3832 C   0  0  1  0  0  0  0  0  0  0  0  0
   -0.7883    0.7285    0.6132 H   0  0  0  0  0  0  0  0  0  0  0  0
    0.2616   -0.9222    1.5002 C   0  0  0  0  0  0  0  0  0  0  0  0
    0.3337   -2.0014    1.3493 H   0  0  0  0  0  0  0  0  0  0  0  0
    1.2659   -0.5011    1.4354 H   0  0  0  0  0  0  0  0  0  0  0  0
   -0.2862   -0.6683    2.9093 C   0  0  0  0  0  0  0  0  0  0  0  0
   -1.2794   -1.1086    2.9914 H   0  0  0  0  0  0  0  0  0  0  0  0
    0.3720   -1.1503    3.6331 H   0  0  0  0  0  0  0  0  0  0  0  0
   -0.4133    1.0878    3.3331 S   0  0  0  0  0  0  0  0  0  0  0  0
    1.3454    1.5091    3.4384 C   0  0  0  0  0  0  0  0  0  0  0  0
    1.8261    1.3237    2.4774 H   0  0  0  0  0  0  0  0  0  0  0  0
    1.4497    2.5639    3.6943 H   0  0  0  0  0  0  0  0  0  0  0  0
    1.8231    0.9040    4.2094 H   0  0  0  0  0  0  0  0  0  0  0  0
    0.0659   -0.4062   -0.9914 C   0  0  0  0  0  0  0  0  0  0  0  0
   -0.3442    0.2819   -1.9239 O   0  0  0  0  0  0  0  0  0  0  0  0
    1.0959   -1.2524   -1.1196 N   0  0  0  0  0  0  0  0  0  0  0  0
    1.3853   -1.7724   -0.3067 H   0  0  0  0  0  0  0  0  0  0  0  0
    1.8351   -1.4556   -2.3647 C   0  0  0  0  0  0  0  0  0  0  0  0
    2.2508   -0.5043   -2.7049 H   0  0  0  0  0  0  0  0  0  0  0  0
    2.6466   -2.1685   -2.2129 H   0  0  0  0  0  0  0  0  0  0  0  0
    1.1611   -1.8335   -3.1356 H   0  0  0  0  0  0  0  0  0  0  0  0
  5  6  2  0  0  0  0
  5  7  1  0  0  0  0
  2  3  1  0  0  0  0
  2  4  1  0  0  0  0
  2  5  1  0  0  0  0
  1  2  1  0  0  0  0
 22 23  2  0  0  0  0
 22 24  1  0  0  0  0
 18 19  1  0  0  0  0
 18 20  1  0  0  0  0
 18 21  1  0  0  0  0
 17 18  1  0  0  0  0
 14 15  1  0  0  0  0
 14 16  1  0  0  0  0
 14 17  1  0  0  0  0
 11 12  1  0  0  0  0
 11 13  1  0  0  0  0
 11 14  1  0  0  0  0
  9 10  1  0  0  0  0
  9 11  1  0  0  0  0
  9 22  1  0  0  0  0
  7  8  1  0  0  0  0
  7  9  1  0  0  0  0
 26 27  1  0  0  0  0
 26 28  1  0  0  0  0
 26 29  1  0  0  0  0
 24 25  1  0  0  0  0
 24 26  1  0  0  0  0
M  END
$$$$
default_name
  -OEChem-01062215323D

 29 28  0     1  0  0  0  0  0999 V2000
   -3.5781   -3.7296    1.2702 H   0  0  0  0  0  0  0  0  0  0  0  0
   -3.5311   -2.7616    0.7732 C   0  0  0  0  0  0  0  0  0  0  0  0
   -4.2371   -2.0766    1.2382 H   0  0  0  0  0  0  0  0  0  0  0  0
   -3.7681   -2.8816   -0.2818 H   0  0  0  0  0  0  0  0  0  0  0  0
   -2.1321   -2.2086    0.9112 C   0  0  0  0  0  0  0  0  0  0  0  0
   -1.2751   -2.8426    1.5112 O   0  0  0  0  0  0  0  0  0  0  0  0
   -1.9041   -1.0186    0.3602 N   0  0  0  0  0  0  0  0  0  0  0  0
   -2.6671   -0.5416   -0.0988 H   0  0  0  0  0  0  0  0  0  0  0  0
   -0.6131   -0.3236    0.3832 C   0  0  1  0  0  0  0  0  0  0  0  0
   -0.7883    0.7285    0.6132 H   0  0  0  0  0  0  0  0  0  0  0  0
    0.2616   -0.9222    1.5002 C   0  0  0  0  0  0  0  0  0  0  0  0
    0.3337   -2.0014    1.3493 H   0  0  0  0  0  0  0  0  0  0  0  0
    1.2659   -0.5011    1.4354 H   0  0  0  0  0  0  0  0  0  0  0  0
   -0.2862   -0.6683    2.9093 C   0  0  0  0  0  0  0  0  0  0  0  0
   -1.2794   -1.1086    2.9914 H   0  0  0  0  0  0  0  0  0  0  0  0
    0.3720   -1.1503    3.6331 H   0  0  0  0  0  0  0  0  0  0  0  0
   -0.4133    1.0878    3.3331 S   0  0  0  0  0  0  0  0  0  0  0  0
    1.3454    1.5091    3.4384 C   0  0  0  0  0  0  0  0  0  0  0  0
    1.8261    1.3237    2.4774 H   0  0  0  0  0  0  0  0  0  0  0  0
    1.4497    2.5639    3.6943 H   0  0  0  0  0  0  0  0  0  0  0  0
    1.8231    0.9040    4.2094 H   0  0  0  0  0  0  0  0  0  0  0  0
    0.0659   -0.4062   -0.9914 C   0  0  0  0  0  0  0  0  0  0  0  0
   -0.1485    0.4591   -1.8379 O   0  0  0  0  0  0  0  0  0  0  0  0
    0.8758   -1.4487   -1.2166 N   0  0  0  0  0  0  0  0  0  0  0  0
    1.0149   -2.1101   -0.4693 H   0  0  0  0  0  0  0  0  0  0  0  0
    1.5819   -1.6765   -2.4764 C   0  0  0  0  0  0  0  0  0  0  0  0
    2.2152   -0.8157   -2.7038 H   0  0  0  0  0  0  0  0  0  0  0  0
    2.2025   -2.5709   -2.4081 H   0  0  0  0  0  0  0  0  0  0  0  0
    0.8603   -1.7978   -3.2863 H   0  0  0  0  0  0  0  0  0  0  0  0
  5  6  2  0  0  0  0
  5  7  1  0  0  0  0
  2  3  1  0  0  0  0
  2  4  1  0  0  0  0
  2  5  1  0  0  0  0
  1  2  1  0  0  0  0
 22 23  2  0  0  0  0
 22 24  1  0  0  0  0
 18 19  1  0  0  0  0
 18 20  1  0  0  0  0
 18 21  1  0  0  0  0
 17 18  1  0  0  0  0
 14 15  1  0  0  0  0
 14 16  1  0  0  0  0
 14 17  1  0  0  0  0
 11 12  1  0  0  0  0
 11 13  1  0  0  0  0
 11 14  1  0  0  0  0
  9 10  1  0  0  0  0
  9 11  1  0  0  0  0
  9 22  1  0  0  0  0
  7  8  1  0  0  0  0
  7  9  1  0  0  0  0
 26 27  1  0  0  0  0
 26 28  1  0  0  0  0
 26 29  1  0  0  0  0
 24 25  1  0  0  0  0
 24 26  1  0  0  0  0
M  END
$$$$
default_name
  -OEChem-01062215323D

 29 28  0     1  0  0  0  0  0999 V2000
   -3.5781   -3.7296    1.2702 H   0  0  0  0  0  0  0  0  0  0  0  0
   -3.5311   -2.7616    0.7732 C   0  0  0  0  0  0  0  0  0  0  0  0
   -4.2371   -2.0766    1.2382 H   0  0  0  0  0  0  0  0  0  0  0  0
   -3.7681   -2.8816   -0.2818 H   0  0  0  0  0  0  0  0  0  0  0  0
   -2.1321   -2.2086    0.9112 C   0  0  0  0  0  0  0  0  0  0  0  0
   -1.2751   -2.8426    1.5112 O   0  0  0  0  0  0  0  0  0  0  0  0
   -1.9041   -1.0186    0.3602 N   0  0  0  0  0  0  0  0  0  0  0  0
   -2.6671   -0.5416   -0.0988 H   0  0  0  0  0  0  0  0  0  0  0  0
   -0.6131   -0.3236    0.3832 C   0  0  1  0  0  0  0  0  0  0  0  0
   -0.7883    0.7285    0.6132 H   0  0  0  0  0  0  0  0  0  0  0  0
    0.2616   -0.9222    1.5002 C   0  0  0  0  0  0  0  0  0  0  0  0
    0.3337   -2.0014    1.3493 H   0  0  0  0  0  0  0  0  0  0  0  0
    1.2659   -0.5011    1.4354 H   0  0  0  0  0  0  0  0  0  0  0  0
   -0.2862   -0.6683    2.9093 C   0  0  0  0  0  0  0  0  0  0  0  0
   -1.2794   -1.1086    2.9914 H   0  0  0  0  0  0  0  0  0  0  0  0
    0.3720   -1.1503    3.6331 H   0  0  0  0  0  0  0  0  0  0  0  0
   -0.4133    1.0878    3.3331 S   0  0  0  0  0  0  0  0  0  0  0  0
    1.3454    1.5091    3.4384 C   0  0  0  0  0  0  0  0  0  0  0  0
    1.8261    1.3237    2.4774 H   0  0  0  0  0  0  0  0  0  0  0  0
    1.4497    2.5639    3.6943 H   0  0  0  0  0  0  0  0  0  0  0  0
    1.8231    0.9040    4.2094 H   0  0  0  0  0  0  0  0  0  0  0  0
    0.0659   -0.4062   -0.9914 C   0  0  0  0  0  0  0  0  0  0  0  0
    0.0804    0.5750   -1.7318 O   0  0  0  0  0  0  0  0  0  0  0  0
    0.6190   -1.5762   -1.3357 N   0  0  0  0  0  0  0  0  0  0  0  0
    0.5811   -2.3318   -0.6702 H   0  0  0  0  0  0  0  0  0  0  0  0
    1.2878   -1.8183   -2.6132 C   0  0  0  0  0  0  0  0  0  0  0  0
    2.1087   -1.1084   -2.7388 H   0  0  0  0  0  0  0  0  0  0  0  0
    1.6829   -2.8344   -2.6489 H   0  0  0  0  0  0  0  0  0  0  0  0
    0.5802   -1.6764   -3.4320 H   0  0  0  0  0  0  0  0  0  0  0  0
  5  6  2  0  0  0  0
  5  7  1  0  0  0  0
  2  3  1  0  0  0  0
  2  4  1  0  0  0  0
  2  5  1  0  0  0  0
  1  2  1  0  0  0  0
 22 23  2  0  0  0  0
 22 24  1  0  0  0  0
 18 19  1  0  0  0  0
 18 20  1  0  0  0  0
 18 21  1  0  0  0  0
 17 18  1  0  0  0  0
 14 15  1  0  0  0  0
 14 16  1  0  0  0  0
 14 17  1  0  0  0  0
 11 12  1  0  0  0  0
 11 13  1  0  0  0  0
 11 14  1  0  0  0  0
  9 10  1  0  0  0  0
  9 11  1  0  0  0  0
  9 22  1  0  0  0  0
  7  8  1  0  0  0  0
  7  9  1  0  0  0  0
 26 27  1  0  0  0  0
 26 28  1  0  0  0  0
 26 29  1  0  0  0  0
 24 25  1  0  0  0  0
 24 26  1  0  0  0  0
M  END
$$$$
default_name
  -OEChem-01062215323D

 29 28  0     1  0  0  0  0  0999 V2000
   -3.5781   -3.7296    1.2702 H   0  0  0  0  0  0  0  0  0  0  0  0
   -3.5311   -2.7616    0.7732 C   0  0  0  0  0  0  0  0  0  0  0  0
   -4.2371   -2.0766    1.2382 H   0  0  0  0  0  0  0  0  0  0  0  0
   -3.7681   -2.8816   -0.2818 H   0  0  0  0  0  0  0  0  0  0  0  0
   -2.1321   -2.2086    0.9112 C   0  0  0  0  0  0  0  0  0  0  0  0
   -1.2751   -2.8426    1.5112 O   0  0  0  0  0  0  0  0  0  0  0  0
   -1.9041   -1.0186    0.3602 N   0  0  0  0  0  0  0  0  0  0  0  0
   -2.6671   -0.5416   -0.0988 H   0  0  0  0  0  0  0  0  0  0  0  0
   -0.6131   -0.3236    0.3832 C   0  0  1  0  0  0  0  0  0  0  0  0
   -0.7883    0.7285    0.6132 H   0  0  0  0  0  0  0  0  0  0  0  0
    0.2616   -0.9222    1.5002 C   0  0  0  0  0  0  0  0  0  0  0  0
    0.3337   -2.0014    1.3493 H   0  0  0  0  0  0  0  0  0  0  0  0
    1.2659   -0.5011    1.4354 H   0  0  0  0  0  0  0  0  0  0  0  0
   -0.2862   -0.6683    2.9093 C   0  0  0  0  0  0  0  0  0  0  0  0
   -1.2794   -1.1086    2.9914 H   0  0  0  0  0  0  0  0  0  0  0  0
    0.3720   -1.1503    3.6331 H   0  0  0  0  0  0  0  0  0  0  0  0
   -0.4133    1.0878    3.3331 S   0  0  0  0  0  0  0  0  0  0  0  0
    1.3454    1.5091    3.4384 C   0  0  0  0  0  0  0  0  0  0  0  0
    1.8261    1.3237    2.4774 H   0  0  0  0  0  0  0  0  0  0  0  0
    1.4497    2.5639    3.6943 H   0  0  0  0  0  0  0  0  0  0  0  0
    1.8231    0.9040    4.2094 H   0  0  0  0  0  0  0  0  0  0  0  0
    0.0659   -0.4062   -0.9914 C   0  0  0  0  0  0  0  0  0  0  0  0
    0.3269    0.6218   -1.6129 O   0  0  0  0  0  0  0  0  0  0  0  0
    0.3431   -1.6263   -1.4690 N   0  0  0  0  0  0  0  0  0  0  0  0
    0.1136   -2.4224   -0.8957 H   0  0  0  0  0  0  0  0  0  0  0  0
    0.9727   -1.8715   -2.7656 C   0  0  0  0  0  0  0  0  0  0  0  0
    1.9385   -1.3625   -2.8076 H   0  0  0  0  0  0  0  0  0  0  0  0
    1.1234   -2.9409   -2.9189 H   0  0  0  0  0  0  0  0  0  0  0  0
    0.3397   -1.4775   -3.5627 H   0  0  0  0  0  0  0  0  0  0  0  0
  5  6  2  0  0  0  0
  5  7  1  0  0  0  0
  2  3  1  0  0  0  0
  2  4  1  0  0  0  0
  2  5  1  0  0  0  0
  1  2  1  0  0  0  0
 22 23  2  0  0  0  0
 22 24  1  0  0  0  0
 18 19  1  0  0  0  0
 18 20  1  0  0  0  0
 18 21  1  0  0  0  0
 17 18  1  0  0  0  0
 14 15  1  0  0  0  0
 14 16  1  0  0  0  0
 14 17  1  0  0  0  0
 11 12  1  0  0  0  0
 11 13  1  0  0  0  0
 11 14  1  0  0  0  0
  9 10  1  0  0  0  0
  9 11  1  0  0  0  0
  9 22  1  0  0  0  0
  7  8  1  0  0  0  0
  7  9  1  0  0  0  0
 26 27  1  0  0  0  0
 26 28  1  0  0  0  0
 26 29  1  0  0  0  0
 24 25  1  0  0  0  0
 24 26  1  0  0  0  0
M  END
$$$$
default_name
  -OEChem-01062215323D

 29 28  0     1  0  0  0  0  0999 V2000
   -3.5781   -3.7296    1.2702 H   0  0  0  0  0  0  0  0  0  0  0  0
   -3.5311   -2.7616    0.7732 C   0  0  0  0  0  0  0  0  0  0  0  0
   -4.2371   -2.0766    1.2382 H   0  0  0  0  0  0  0  0  0  0  0  0
   -3.7681   -2.8816   -0.2818 H   0  0  0  0  0  0  0  0  0  0  0  0
   -2.1321   -2.2086    0.9112 C   0  0  0  0  0  0  0  0  0  0  0  0
   -1.2751   -2.8426    1.5112 O   0  0  0  0  0  0  0  0  0  0  0  0
   -1.9041   -1.0186    0.3602 N   0  0  0  0  0  0  0  0  0  0  0  0
   -2.6671   -0.5416   -0.0988 H   0  0  0  0  0  0  0  0  0  0  0  0
   -0.6131   -0.3236    0.3832 C   0  0  1  0  0  0  0  0  0  0  0  0
   -0.7883    0.7285    0.6132 H   0  0  0  0  0  0  0  0  0  0  0  0
    0.2616   -0.9222    1.5002 C   0  0  0  0  0  0  0  0  0  0  0  0
    0.3337   -2.0014    1.3493 H   0  0  0  0  0  0  0  0  0  0  0  0
    1.2659   -0.5011    1.4354 H   0  0  0  0  0  0  0  0  0  0  0  0
   -0.2862   -0.6683    2.9093 C   0  0  0  0  0  0  0  0  0  0  0  0
   -1.2794   -1.1086    2.9914 H   0  0  0  0  0  0  0  0  0  0  0  0
    0.3720   -1.1503    3.6331 H   0  0  0  0  0  0  0  0  0  0  0  0
   -0.4133    1.0878    3.3331 S   0  0  0  0  0  0  0  0  0  0  0  0
    1.3454    1.5091    3.4384 C   0  0  0  0  0  0  0  0  0  0  0  0
    1.8261    1.3237    2.4774 H   0  0  0  0  0  0  0  0  0  0  0  0
    1.4497    2.5639    3.6943 H   0  0  0  0  0  0  0  0  0  0  0  0
    1.8231    0.9040    4.2094 H   0  0  0  0  0  0  0  0  0  0  0  0
    0.0659   -0.4062   -0.9914 C   0  0  0  0  0  0  0  0  0  0  0  0
    0.5741    0.5963   -1.4892 O   0  0  0  0  0  0  0  0  0  0  0  0
    0.0669   -1.5954   -1.6072 N   0  0  0  0  0  0  0  0  0  0  0  0
   -0.3559   -2.3757   -1.1304 H   0  0  0  0  0  0  0  0  0  0  0  0
    0.6581   -1.8324   -2.9233 C   0  0  0  0  0  0  0  0  0  0  0  0
    1.7162   -1.5606   -2.9055 H   0  0  0  0  0  0  0  0  0  0  0  0
    0.5619   -2.8833   -3.1996 H   0  0  0  0  0  0  0  0  0  0  0  0
    0.1553   -1.2147   -3.6695 H   0  0  0  0  0  0  0  0  0  0  0  0
  5  6  2  0  0  0  0
  5  7  1  0  0  0  0
  2  3  1  0  0  0  0
  2  4  1  0  0  0  0
  2  5  1  0  0  0  0
  1  2  1  0  0  0  0
 22 23  2  0  0  0  0
 22 24  1  0  0  0  0
 18 19  1  0  0  0  0
 18 20  1  0  0  0  0
 18 21  1  0  0  0  0
 17 18  1  0  0  0  0
 14 15  1  0  0  0  0
 14 16  1  0  0  0  0
 14 17  1  0  0  0  0
 11 12  1  0  0  0  0
 11 13  1  0  0  0  0
 11 14  1  0  0  0  0
  9 10  1  0  0  0  0
  9 11  1  0  0  0  0
  9 22  1  0  0  0  0
  7  8  1  0  0  0  0
  7  9  1  0  0  0  0
 26 27  1  0  0  0  0
 26 28  1  0  0  0  0
 26 29  1  0  0  0  0
 24 25  1  0  0  0  0
 24 26  1  0  0  0  0
M  END
$$$$
default_name
  -OEChem-01062215323D

 29 28  0     1  0  0  0  0  0999 V2000
   -3.5781   -3.7296    1.2702 H   0  0  0  0  0  0  0  0  0  0  0  0
   -3.5311   -2.7616    0.7732 C   0  0  0  0  0  0  0  0  0  0  0  0
   -4.2371   -2.0766    1.2382 H   0  0  0  0  0  0  0  0  0  0  0  0
   -3.7681   -2.8816   -0.2818 H   0  0  0  0  0  0  0  0  0  0  0  0
   -2.1321   -2.2086    0.9112 C   0  0  0  0  0  0  0  0  0  0  0  0
   -1.2751   -2.8426    1.5112 O   0  0  0  0  0  0  0  0  0  0  0  0
   -1.9041   -1.0186    0.3602 N   0  0  0  0  0  0  0  0  0  0  0  0
   -2.6671   -0.5416   -0.0988 H   0  0  0  0  0  0  0  0  0  0  0  0
   -0.6131   -0.3236    0.3832 C   0  0  1  0  0  0  0  0  0  0  0  0
   -0.7883    0.7285    0.6132 H   0  0  0  0  0  0  0  0  0  0  0  0
    0.2616   -0.9222    1.5002 C   0  0  0  0  0  0  0  0  0  0  0  0
    0.3337   -2.0014    1.3493 H   0  0  0  0  0  0  0  0  0  0  0  0
    1.2659   -0.5011    1.4354 H   0  0  0  0  0  0  0  0  0  0  0  0
   -0.2862   -0.6683    2.9093 C   0  0  0  0  0  0  0  0  0  0  0  0
   -1.2794   -1.1086    2.9914 H   0  0  0  0  0  0  0  0  0  0  0  0
    0.3720   -1.1503    3.6331 H   0  0  0  0  0  0  0  0  0  0  0  0
   -0.4133    1.0878    3.3331 S   0  0  0  0  0  0  0  0  0  0  0  0
    1.3454    1.5091    3.4384 C   0  0  0  0  0  0  0  0  0  0  0  0
    1.8261    1.3237    2.4774 H   0  0  0  0  0  0  0  0  0  0  0  0
    1.4497    2.5639    3.6943 H   0  0  0  0  0  0  0  0  0  0  0  0
    1.8231    0.9040    4.2094 H   0  0  0  0  0  0  0  0  0  0  0  0
    0.0659   -0.4062   -0.9914 C   0  0  0  0  0  0  0  0  0  0  0  0
    0.8054    0.5002   -1.3692 O   0  0  0  0  0  0  0  0  0  0  0  0
   -0.1908   -1.4858   -1.7411 N   0  0  0  0  0  0  0  0  0  0  0  0
   -0.7953   -2.1951   -1.3583 H   0  0  0  0  0  0  0  0  0  0  0  0
    0.3656   -1.7038   -3.0755 C   0  0  0  0  0  0  0  0  0  0  0  0
    1.4569   -1.6892   -3.0258 H   0  0  0  0  0  0  0  0  0  0  0  0
    0.0369   -2.6653   -3.4720 H   0  0  0  0  0  0  0  0  0  0  0  0
    0.0396   -0.9059   -3.7453 H   0  0  0  0  0  0  0  0  0  0  0  0
  5  6  2  0  0  0  0
  5  7  1  0  0  0  0
  2  3  1  0  0  0  0
  2  4  1  0  0  0  0
  2  5  1  0  0  0  0
  1  2  1  0  0  0  0
 22 23  2  0  0  0  0
 22 24  1  0  0  0  0
 18 19  1  0  0  0  0
 18 20  1  0  0  0  0
 18 21  1  0  0  0  0
 17 18  1  0  0  0  0
 14 15  1  0  0  0  0
 14 16  1  0  0  0  0
 14 17  1  0  0  0  0
 11 12  1  0  0  0  0
 11 13  1  0  0  0  0
 11 14  1  0  0  0  0
  9 10  1  0  0  0  0
  9 11  1  0  0  0  0
  9 22  1  0  0  0  0
  7  8  1  0  0  0  0
  7  9  1  0  0  0  0
 26 27  1  0  0  0  0
 26 28  1  0  0  0  0
 26 29  1  0  0  0  0
 24 25  1  0  0  0  0
 24 26  1  0  0  0  0
M  END
$$$$
default_name
  -OEChem-01062215323D

 29 28  0     1  0  0  0  0  0999 V2000
   -3.5781   -3.7296    1.2702 H   0  0  0  0  0  0  0  0  0  0  0  0
   -3.5311   -2.7616    0.7732 C   0  0  0  0  0  0  0  0  0  0  0  0
   -4.2371   -2.0766    1.2382 H   0  0  0  0  0  0  0  0  0  0  0  0
   -3.7681   -2.8816   -0.2818 H   0  0  0  0  0  0  0  0  0  0  0  0
   -2.1321   -2.2086    0.9112 C   0  0  0  0  0  0  0  0  0  0  0  0
   -1.2751   -2.8426    1.5112 O   0  0  0  0  0  0  0  0  0  0  0  0
   -1.9041   -1.0186    0.3602 N   0  0  0  0  0  0  0  0  0  0  0  0
   -2.6671   -0.5416   -0.0988 H   0  0  0  0  0  0  0  0  0  0  0  0
   -0.6131   -0.3236    0.3832 C   0  0  1  0  0  0  0  0  0  0  0  0
   -0.7883    0.7285    0.6132 H   0  0  0  0  0  0  0  0  0  0  0  0
    0.2616   -0.9222    1.5002 C   0  0  0  0  0  0  0  0  0  0  0  0
    0.3337   -2.0014    1.3493 H   0  0  0  0  0  0  0  0  0  0  0  0
    1.2659   -0.5011    1.4354 H   0  0  0  0  0  0  0  0  0  0  0  0
   -0.2862   -0.6683    2.9093 C   0  0  0  0  0  0  0  0  0  0  0  0
   -1.2794   -1.1086    2.9914 H   0  0  0  0  0  0  0  0  0  0  0  0
    0.3720   -1.1503    3.6331 H   0  0  0  0  0  0  0  0  0  0  0  0
   -0.4133    1.0878    3.3331 S   0  0  0  0  0  0  0  0  0  0  0  0
    1.3454    1.5091    3.4384 C   0  0  0  0  0  0  0  0  0  0  0  0
    1.8261    1.3237    2.4774 H   0  0  0  0  0  0  0  0  0  0  0  0
    1.4497    2.5639    3.6943 H   0  0  0  0  0  0  0  0  0  0  0  0
    1.8231    0.9040    4.2094 H   0  0  0  0  0  0  0  0  0  0  0  0
    0.0659   -0.4062   -0.9914 C   0  0  0  0  0  0  0  0  0  0  0  0
    1.0047    0.3401   -1.2611 O   0  0  0  0  0  0  0  0  0  0  0  0
   -0.4125   -1.3048   -1.8615 N   0  0  0  0  0  0  0  0  0  0  0  0
   -1.1747   -1.8927   -1.5639 H   0  0  0  0  0  0  0  0  0  0  0  0
    0.1149   -1.4943   -3.2120 C   0  0  0  0  0  0  0  0  0  0  0  0
    1.1783   -1.7395   -3.1604 H   0  0  0  0  0  0  0  0  0  0  0  0
   -0.4159   -2.3020   -3.7176 H   0  0  0  0  0  0  0  0  0  0  0  0
    0.0005   -0.5722   -3.7847 H   0  0  0  0  0  0  0  0  0  0  0  0
  5  6  2  0  0  0  0
  5  7  1  0  0  0  0
  2  3  1  0  0  0  0
  2  4  1  0  0  0  0
  2  5  1  0  0  0  0
  1  2  1  0  0  0  0
 22 23  2  0  0  0  0
 22 24  1  0  0  0  0
 18 19  1  0  0  0  0
 18 20  1  0  0  0  0
 18 21  1  0  0  0  0
 17 18  1  0  0  0  0
 14 15  1  0  0  0  0
 14 16  1  0  0  0  0
 14 17  1  0  0  0  0
 11 12  1  0  0  0  0
 11 13  1  0  0  0  0
 11 14  1  0  0  0  0
  9 10  1  0  0  0  0
  9 11  1  0  0  0  0
  9 22  1  0  0  0  0
  7  8  1  0  0  0  0
  7  9  1  0  0  0  0
 26 27  1  0  0  0  0
 26 28  1  0  0  0  0
 26 29  1  0  0  0  0
 24 25  1  0  0  0  0
 24 26  1  0  0  0  0
M  END
$$$$
default_name
  -OEChem-01062215323D

 29 28  0     1  0  0  0  0  0999 V2000
   -3.5781   -3.7296    1.2702 H   0  0  0  0  0  0  0  0  0  0  0  0
   -3.5311   -2.7616    0.7732 C   0  0  0  0  0  0  0  0  0  0  0  0
   -4.2371   -2.0766    1.2382 H   0  0  0  0  0  0  0  0  0  0  0  0
   -3.7681   -2.8816   -0.2818 H   0  0  0  0  0  0  0  0  0  0  0  0
   -2.1321   -2.2086    0.9112 C   0  0  0  0  0  0  0  0  0  0  0  0
   -1.2751   -2.8426    1.5112 O   0  0  0  0  0  0  0  0  0  0  0  0
   -1.9041   -1.0186    0.3602 N   0  0  0  0  0  0  0  0  0  0  0  0
   -2.6671   -0.5416   -0.0988 H   0  0  0  0  0  0  0  0  0  0  0  0
   -0.6131   -0.3236    0.3832 C   0  0  1  0  0  0  0  0  0  0  0  0
   -0.7883    0.7285    0.6132 H   0  0  0  0  0  0  0  0  0  0  0  0
    0.2616   -0.9222    1.5002 C   0  0  0  0  0  0  0  0  0  0  0  0
    0.3337   -2.0014    1.3493 H   0  0  0  0  0  0  0  0  0  0  0  0
    1.2659   -0.5011    1.4354 H   0  0  0  0  0  0  0  0  0  0  0  0
   -0.2862   -0.6683    2.9093 C   0  0  0  0  0  0  0  0  0  0  0  0
   -1.2794   -1.1086    2.9914 H   0  0  0  0  0  0  0  0  0  0  0  0
    0.3720   -1.1503    3.6331 H   0  0  0  0  0  0  0  0  0  0  0  0
   -0.4133    1.0878    3.3331 S   0  0  0  0  0  0  0  0  0  0  0  0
    1.3454    1.5091    3.4384 C   0  0  0  0  0  0  0  0  0  0  0  0
    1.8261    1.3237    2.4774 H   0  0  0  0  0  0  0  0  0  0  0  0
    1.4497    2.5639    3.6943 H   0  0  0  0  0  0  0  0  0  0  0  0
    1.8231    0.9040    4.2094 H   0  0  0  0  0  0  0  0  0  0  0  0
    0.0659   -0.4062   -0.9914 C   0  0  0  0  0  0  0  0  0  0  0  0
    1.1587    0.1268   -1.1722 O   0  0  0  0  0  0  0  0  0  0  0  0
   -0.5830   -1.0649   -1.9602 N   0  0  0  0  0  0  0  0  0  0  0  0
   -1.4682   -1.4891   -1.7331 H   0  0  0  0  0  0  0  0  0  0  0  0
   -0.0768   -1.2182   -3.3232 C   0  0  0  0  0  0  0  0  0  0  0  0
    0.8994   -1.7082   -3.3000 H   0  0  0  0  0  0  0  0  0  0  0  0
   -0.7657   -1.8180   -3.9194 H   0  0  0  0  0  0  0  0  0  0  0  0
    0.0406   -0.2362   -3.7851 H   0  0  0  0  0  0  0  0  0  0  0  0
  5  6  2  0  0  0  0
  5  7  1  0  0  0  0
  2  3  1  0  0  0  0
  2  4  1  0  0  0  0
  2  5  1  0  0  0  0
  1  2  1  0  0  0  0
 22 23  2  0  0  0  0
 22 24  1  0  0  0  0
 18 19  1  0  0  0  0
 18 20  1  0  0  0  0
 18 21  1  0  0  0  0
 17 18  1  0  0  0  0
 14 15  1  0  0  0  0
 14 16  1  0  0  0  0
 14 17  1  0  0  0  0
 11 12  1  0  0  0  0
 11 13  1  0  0  0  0
 11 14  1  0  0  0  0
  9 10  1  0  0  0  0
  9 11  1  0  0  0  0
  9 22  1  0  0  0  0
  7  8  1  0  0  0  0
  7  9  1  0  0  0  0
 26 27  1  0  0  0  0
 26 28  1  0  0  0  0
 26 29  1  0  0  0  0
 24 25  1  0  0  0  0
 24 26  1  0  0  0  0
M  END
$$$$
default_name
  -OEChem-01062215323D

 29 28  0     1  0  0  0  0  0999 V2000
   -3.5781   -3.7296    1.2702 H   0  0  0  0  0  0  0  0  0  0  0  0
   -3.5311   -2.7616    0.7732 C   0  0  0  0  0  0  0  0  0  0  0  0
   -4.2371   -2.0766    1.2382 H   0  0  0  0  0  0  0  0  0  0  0  0
   -3.7681   -2.8816   -0.2818 H   0  0  0  0  0  0  0  0  0  0  0  0
   -2.1321   -2.2086    0.9112 C   0  0  0  0  0  0  0  0  0  0  0  0
   -1.2751   -2.8426    1.5112 O   0  0  0  0  0  0  0  0  0  0  0  0
   -1.9041   -1.0186    0.3602 N   0  0  0  0  0  0  0  0  0  0  0  0
   -2.6671   -0.5416   -0.0988 H   0  0  0  0  0  0  0  0  0  0  0  0
   -0.6131   -0.3236    0.3832 C   0  0  1  0  0  0  0  0  0  0  0  0
   -0.7883    0.7285    0.6132 H   0  0  0  0  0  0  0  0  0  0  0  0
    0.2616   -0.9222    1.5002 C   0  0  0  0  0  0  0  0  0  0  0  0
    0.3337   -2.0014    1.3493 H   0  0  0  0  0  0  0  0  0  0  0  0
    1.2659   -0.5011    1.4354 H   0  0  0  0  0  0  0  0  0  0  0  0
   -0.2862   -0.6683    2.9093 C   0  0  0  0  0  0  0  0  0  0  0  0
   -1.2794   -1.1086    2.9914 H   0  0  0  0  0  0  0  0  0  0  0  0
    0.3720   -1.1503    3.6331 H   0  0  0  0  0  0  0  0  0  0  0  0
   -0.4133    1.0878    3.3331 S   0  0  0  0  0  0  0  0  0  0  0  0
    1.3454    1.5091    3.4384 C   0  0  0  0  0  0  0  0  0  0  0  0
    1.8261    1.3237    2.4774 H   0  0  0  0  0  0  0  0  0  0  0  0
    1.4497    2.5639    3.6943 H   0  0  0  0  0  0  0  0  0  0  0  0
    1.8231    0.9040    4.2094 H   0  0  0  0  0  0  0  0  0  0  0  0
    0.0659   -0.4062   -0.9914 C   0  0  0  0  0  0  0  0  0  0  0  0
    1.2568   -0.1250   -1.1086 O   0  0  0  0  0  0  0  0  0  0  0  0
   -0.6908   -0.7824   -2.0304 N   0  0  0  0  0  0  0  0  0  0  0  0
   -1.6559   -1.0119   -1.8545 H   0  0  0  0  0  0  0  0  0  0  0  0
   -0.1964   -0.8944   -3.4018 C   0  0  0  0  0  0  0  0  0  0  0  0
    0.6392   -1.5974   -3.4352 H   0  0  0  0  0  0  0  0  0  0  0  0
   -0.9886   -1.2464   -4.0639 H   0  0  0  0  0  0  0  0  0  0  0  0
    0.1571    0.0790   -3.7465 H   0  0  0  0  0  0  0  0  0  0  0  0
  5  6  2  0  0  0  0
  5  7  1  0  0  0  0
  2  3  1  0  0  0  0
  2  4  1  0  0  0  0
  2  5  1  0  0  0  0
  1  2  1  0  0  0  0
 22 23  2  0  0  0  0
 22 24  1  0  0  0  0
 18 19  1  0  0  0  0
 18 20  1  0  0  0  0
 18 21  1  0  0  0  0
 17 18  1  0  0  0  0
 14 15  1  0  0  0  0
 14 16  1  0  0  0  0
 14 17  1  0  0  0  0
 11 12  1  0  0  0  0
 11 13  1  0  0  0  0
 11 14  1  0  0  0  0
  9 10  1  0  0  0  0
  9 11  1  0  0  0  0
  9 22  1  0  0  0  0
  7  8  1  0  0  0  0
  7  9  1  0  0  0  0
 26 27  1  0  0  0  0
 26 28  1  0  0  0  0
 26 29  1  0  0  0  0
 24 25  1  0  0  0  0
 24 26  1  0  0  0  0
M  END
$$$$
default_name
  -OEChem-01062215323D

 29 28  0     1  0  0  0  0  0999 V2000
   -3.5781   -3.7296    1.2702 H   0  0  0  0  0  0  0  0  0  0  0  0
   -3.5311   -2.7616    0.7732 C   0  0  0  0  0  0  0  0  0  0  0  0
   -4.2371   -2.0766    1.2382 H   0  0  0  0  0  0  0  0  0  0  0  0
   -3.7681   -2.8816   -0.2818 H   0  0  0  0  0  0  0  0  0  0  0  0
   -2.1321   -2.2086    0.9112 C   0  0  0  0  0  0  0  0  0  0  0  0
   -1.2751   -2.8426    1.5112 O   0  0  0  0  0  0  0  0  0  0  0  0
   -1.9041   -1.0186    0.3602 N   0  0  0  0  0  0  0  0  0  0  0  0
   -2.6671   -0.5416   -0.0988 H   0  0  0  0  0  0  0  0  0  0  0  0
   -0.6131   -0.3236    0.3832 C   0  0  1  0  0  0  0  0  0  0  0  0
   -0.7883    0.7285    0.6132 H   0  0  0  0  0  0  0  0  0  0  0  0
    0.2616   -0.9222    1.5002 C   0  0  0  0  0  0  0  0  0  0  0  0
    0.3337   -2.0014    1.3493 H   0  0  0  0  0  0  0  0  0  0  0  0
    1.2659   -0.5011    1.4354 H   0  0  0  0  0  0  0  0  0  0  0  0
   -0.2862   -0.6683    2.9093 C   0  0  0  0  0  0  0  0  0  0  0  0
   -1.2794   -1.1086    2.9914 H   0  0  0  0  0  0  0  0  0  0  0  0
    0.3720   -1.1503    3.6331 H   0  0  0  0  0  0  0  0  0  0  0  0
   -0.4133    1.0878    3.3331 S   0  0  0  0  0  0  0  0  0  0  0  0
    1.3454    1.5091    3.4384 C   0  0  0  0  0  0  0  0  0  0  0  0
    1.8261    1.3237    2.4774 H   0  0  0  0  0  0  0  0  0  0  0  0
    1.4497    2.5639    3.6943 H   0  0  0  0  0  0  0  0  0  0  0  0
    1.8231    0.9040    4.2094 H   0  0  0  0  0  0  0  0  0  0  0  0
    0.0659   -0.4062   -0.9914 C   0  0  0  0  0  0  0  0  0  0  0  0
    1.2923   -0.3983   -1.0747 O   0  0  0  0  0  0  0  0  0  0  0  0
   -0.7284   -0.4764   -2.0673 N   0  0  0  0  0  0  0  0  0  0  0  0
   -1.7249   -0.4936   -1.9197 H   0  0  0  0  0  0  0  0  0  0  0  0
   -0.2359   -0.5449   -3.4423 C   0  0  0  0  0  0  0  0  0  0  0  0
    0.4155   -1.4146   -3.5567 H   0  0  0  0  0  0  0  0  0  0  0  0
   -1.0694   -0.6261   -4.1411 H   0  0  0  0  0  0  0  0  0  0  0  0
    0.3422    0.3521   -3.6715 H   0  0  0  0  0  0  0  0  0  0  0  0
  5  6  2  0  0  0  0
  5  7  1  0  0  0  0
  2  3  1  0  0  0  0
  2  4  1  0  0  0  0
  2  5  1  0  0  0  0
  1  2  1  0  0  0  0
 22 23  2  0  0  0  0
 22 24  1  0  0  0  0
 18 19  1  0  0  0  0
 18 20  1  0  0  0  0
 18 21  1  0  0  0  0
 17 18  1  0  0  0  0
 14 15  1  0  0  0  0
 14 16  1  0  0  0  0
 14 17  1  0  0  0  0
 11 12  1  0  0  0  0
 11 13  1  0  0  0  0
 11 14  1  0  0  0  0
  9 10  1  0  0  0  0
  9 11  1  0  0  0  0
  9 22  1  0  0  0  0
  7  8  1  0  0  0  0
  7  9  1  0  0  0  0
 26 27  1  0  0  0  0
 26 28  1  0  0  0  0
 26 29  1  0  0  0  0
 24 25  1  0  0  0  0
 24 26  1  0  0  0  0
M  END
$$$$
default_name
  -OEChem-01062215323D

 29 28  0     1  0  0  0  0  0999 V2000
   -3.5781   -3.7296    1.2702 H   0  0  0  0  0  0  0  0  0  0  0  0
   -3.5311   -2.7616    0.7732 C   0  0  0  0  0  0  0  0  0  0  0  0
   -4.2371   -2.0766    1.2382 H   0  0  0  0  0  0  0  0  0  0  0  0
   -3.7681   -2.8816   -0.2818 H   0  0  0  0  0  0  0  0  0  0  0  0
   -2.1321   -2.2086    0.9112 C   0  0  0  0  0  0  0  0  0  0  0  0
   -1.2751   -2.8426    1.5112 O   0  0  0  0  0  0  0  0  0  0  0  0
   -1.9041   -1.0186    0.3602 N   0  0  0  0  0  0  0  0  0  0  0  0
   -2.6671   -0.5416   -0.0988 H   0  0  0  0  0  0  0  0  0  0  0  0
   -0.6131   -0.3236    0.3832 C   0  0  1  0  0  0  0  0  0  0  0  0
   -0.7883    0.7285    0.6132 H   0  0  0  0  0  0  0  0  0  0  0  0
    0.2616   -0.9222    1.5002 C   0  0  0  0  0  0  0  0  0  0  0  0
    0.3337   -2.0014    1.3493 H   0  0  0  0  0  0  0  0  0  0  0  0
    1.2659   -0.5011    1.4354 H   0  0  0  0  0  0  0  0  0  0  0  0
   -0.2862   -0.6683    2.9093 C   0  0  0  0  0  0  0  0  0  0  0  0
   -1.2794   -1.1086    2.9914 H   0  0  0  0  0  0  0  0  0  0  0  0
    0.3720   -1.1503    3.6331 H   0  0  0  0  0  0  0  0  0  0  0  0
   -0.4133    1.0878    3.3331 S   0  0  0  0  0  0  0  0  0  0  0  0
    1.3454    1.5091    3.4384 C   0  0  0  0  0  0  0  0  0  0  0  0
    1.8261    1.3237    2.4774 H   0  0  0  0  0  0  0  0  0  0  0  0
    1.4497    2.5639    3.6943 H   0  0  0  0  0  0  0  0  0  0  0  0
    1.8231    0.9040    4.2094 H   0  0  0  0  0  0  0  0  0  0  0  0
    0.0659   -0.4062   -0.9914 C   0  0  0  0  0  0  0  0  0  0  0  0
    1.2628   -0.6744   -1.0726 O   0  0  0  0  0  0  0  0  0  0  0  0
   -0.6933   -0.1680   -2.0686 N   0  0  0  0  0  0  0  0  0  0  0  0
   -1.6705    0.0305   -1.9244 H   0  0  0  0  0  0  0  0  0  0  0  0
   -0.1924   -0.1935   -3.4419 C   0  0  0  0  0  0  0  0  0  0  0  0
    0.2434   -1.1722   -3.6562 H   0  0  0  0  0  0  0  0  0  0  0  0
   -1.0027    0.0007   -4.1458 H   0  0  0  0  0  0  0  0  0  0  0  0
    0.5832    0.5644   -3.5652 H   0  0  0  0  0  0  0  0  0  0  0  0
  5  6  2  0  0  0  0
  5  7  1  0  0  0  0
  2  3  1  0  0  0  0
  2  4  1  0  0  0  0
  2  5  1  0  0  0  0
  1  2  1  0  0  0  0
 22 23  2  0  0  0  0
 22 24  1  0  0  0  0
 18 19  1  0  0  0  0
 18 20  1  0  0  0  0
 18 21  1  0  0  0  0
 17 18  1  0  0  0  0
 14 15  1  0  0  0  0
 14 16  1  0  0  0  0
 14 17  1  0  0  0  0
 11 12  1  0  0  0  0
 11 13  1  0  0  0  0
 11 14  1  0  0  0  0
  9 10  1  0  0  0  0
  9 11  1  0  0  0  0
  9 22  1  0  0  0  0
  7  8  1  0  0  0  0
  7  9  1  0  0  0  0
 26 27  1  0  0  0  0
 26 28  1  0  0  0  0
 26 29  1  0  0  0  0
 24 25  1  0  0  0  0
 24 26  1  0  0  0  0
M  END
$$$$
default_name
  -OEChem-01062215323D

 29 28  0     1  0  0  0  0  0999 V2000
   -3.5781   -3.7296    1.2702 H   0  0  0  0  0  0  0  0  0  0  0  0
   -3.5311   -2.7616    0.7732 C   0  0  0  0  0  0  0  0  0  0  0  0
   -4.2371   -2.0766    1.2382 H   0  0  0  0  0  0  0  0  0  0  0  0
   -3.7681   -2.8816   -0.2818 H   0  0  0  0  0  0  0  0  0  0  0  0
   -2.1321   -2.2086    0.9112 C   0  0  0  0  0  0  0  0  0  0  0  0
   -1.2751   -2.8426    1.5112 O   0  0  0  0  0  0  0  0  0  0  0  0
   -1.9041   -1.0186    0.3602 N   0  0  0  0  0  0  0  0  0  0  0  0
   -2.6671   -0.5416   -0.0988 H   0  0  0  0  0  0  0  0  0  0  0  0
   -0.6131   -0.3236    0.3832 C   0  0  1  0  0  0  0  0  0  0  0  0
   -0.7883    0.7285    0.6132 H   0  0  0  0  0  0  0  0  0  0  0  0
    0.2616   -0.9222    1.5002 C   0  0  0  0  0  0  0  0  0  0  0  0
    0.3337   -2.0014    1.3493 H   0  0  0  0  0  0  0  0  0  0  0  0
    1.2659   -0.5011    1.4354 H   0  0  0  0  0  0  0  0  0  0  0  0
   -0.2862   -0.6683    2.9093 C   0  0  0  0  0  0  0  0  0  0  0  0
   -1.2794   -1.1086    2.9914 H   0  0  0  0  0  0  0  0  0  0  0  0
    0.3720   -1.1503    3.6331 H   0  0  0  0  0  0  0  0  0  0  0  0
   -0.4133    1.0878    3.3331 S   0  0  0  0  0  0  0  0  0  0  0  0
    1.3454    1.5091    3.4384 C   0  0  0  0  0  0  0  0  0  0  0  0
    1.8261    1.3237    2.4774 H   0  0  0  0  0  0  0  0  0  0  0  0
    1.4497    2.5639    3.6943 H   0  0  0  0  0  0  0  0  0  0  0  0
    1.8231    0.9040    4.2094 H   0  0  0  0  0  0  0  0  0  0  0  0
    0.0659   -0.4062   -0.9914 C   0  0  0  0  0  0  0  0  0  0  0  0
    1.1703   -0.9344   -1.1027 O   0  0  0  0  0  0  0  0  0  0  0  0
   -0.5879    0.1220   -2.0340 N   0  0  0  0  0  0  0  0  0  0  0  0
   -1.4965    0.5247   -1.8681 H   0  0  0  0  0  0  0  0  0  0  0  0
   -0.0690    0.1357   -3.4008 C   0  0  0  0  0  0  0  0  0  0  0  0
    0.1348   -0.8869   -3.7271 H   0  0  0  0  0  0  0  0  0  0  0  0
   -0.7929    0.5912   -4.0777 H   0  0  0  0  0  0  0  0  0  0  0  0
    0.8638    0.7015   -3.4349 H   0  0  0  0  0  0  0  0  0  0  0  0
  5  6  2  0  0  0  0
  5  7  1  0  0  0  0
  2  3  1  0  0  0  0
  2  4  1  0  0  0  0
  2  5  1  0  0  0  0
  1  2  1  0  0  0  0
 22 23  2  0  0  0  0
 22 24  1  0  0  0  0
 18 19  1  0  0  0  0
 18 20  1  0  0  0  0
 18 21  1  0  0  0  0
 17 18  1  0  0  0  0
 14 15  1  0  0  0  0
 14 16  1  0  0  0  0
 14 17  1  0  0  0  0
 11 12  1  0  0  0  0
 11 13  1  0  0  0  0
 11 14  1  0  0  0  0
  9 10  1  0  0  0  0
  9 11  1  0  0  0  0
  9 22  1  0  0  0  0
  7  8  1  0  0  0  0
  7  9  1  0  0  0  0
 26 27  1  0  0  0  0
 26 28  1  0  0  0  0
 26 29  1  0  0  0  0
 24 25  1  0  0  0  0
 24 26  1  0  0  0  0
M  END
$$$$
default_name
  -OEChem-01062215323D

 29 28  0     1  0  0  0  0  0999 V2000
   -3.5781   -3.7296    1.2702 H   0  0  0  0  0  0  0  0  0  0  0  0
   -3.5311   -2.7616    0.7732 C   0  0  0  0  0  0  0  0  0  0  0  0
   -4.2371   -2.0766    1.2382 H   0  0  0  0  0  0  0  0  0  0  0  0
   -3.7681   -2.8816   -0.2818 H   0  0  0  0  0  0  0  0  0  0  0  0
   -2.1321   -2.2086    0.9112 C   0  0  0  0  0  0  0  0  0  0  0  0
   -1.2751   -2.8426    1.5112 O   0  0  0  0  0  0  0  0  0  0  0  0
   -1.9041   -1.0186    0.3602 N   0  0  0  0  0  0  0  0  0  0  0  0
   -2.6671   -0.5416   -0.0988 H   0  0  0  0  0  0  0  0  0  0  0  0
   -0.6131   -0.3236    0.3832 C   0  0  1  0  0  0  0  0  0  0  0  0
   -0.7883    0.7285    0.6132 H   0  0  0  0  0  0  0  0  0  0  0  0
    0.2616   -0.9222    1.5002 C   0  0  0  0  0  0  0  0  0  0  0  0
    0.3337   -2.0014    1.3493 H   0  0  0  0  0  0  0  0  0  0  0  0
    1.2659   -0.5011    1.4354 H   0  0  0  0  0  0  0  0  0  0  0  0
   -0.2862   -0.6683    2.9093 C   0  0  0  0  0  0  0  0  0  0  0  0
   -1.2794   -1.1086    2.9914 H   0  0  0  0  0  0  0  0  0  0  0  0
    0.3720   -1.1503    3.6331 H   0  0  0  0  0  0  0  0  0  0  0  0
   -0.4133    1.0878    3.3331 S   0  0  0  0  0  0  0  0  0  0  0  0
    1.3454    1.5091    3.4384 C   0  0  0  0  0  0  0  0  0  0  0  0
    1.8261    1.3237    2.4774 H   0  0  0  0  0  0  0  0  0  0  0  0
    1.4497    2.5639    3.6943 H   0  0  0  0  0  0  0  0  0  0  0  0
    1.8231    0.9040    4.2094 H   0  0  0  0  0  0  0  0  0  0  0  0
    0.0659   -0.4062   -0.9914 C   0  0  0  0  0  0  0  0  0  0  0  0
    1.0212   -1.1607   -1.1628 O   0  0  0  0  0  0  0  0  0  0  0  0
   -0.4195    0.3737   -1.9659 N   0  0  0  0  0  0  0  0  0  0  0  0
   -1.2147    0.9552   -1.7548 H   0  0  0  0  0  0  0  0  0  0  0  0
    0.1259    0.4205   -3.3216 C   0  0  0  0  0  0  0  0  0  0  0  0
    0.0969   -0.5779   -3.7643 H   0  0  0  0  0  0  0  0  0  0  0  0
   -0.4544    1.1052   -3.9415 H   0  0  0  0  0  0  0  0  0  0  0  0
    1.1647    0.7540   -3.2894 H   0  0  0  0  0  0  0  0  0  0  0  0
  5  6  2  0  0  0  0
  5  7  1  0  0  0  0
  2  3  1  0  0  0  0
  2  4  1  0  0  0  0
  2  5  1  0  0  0  0
  1  2  1  0  0  0  0
 22 23  2  0  0  0  0
 22 24  1  0  0  0  0
 18 19  1  0  0  0  0
 18 20  1  0  0  0  0
 18 21  1  0  0  0  0
 17 18  1  0  0  0  0
 14 15  1  0  0  0  0
 14 16  1  0  0  0  0
 14 17  1  0  0  0  0
 11 12  1  0  0  0  0
 11 13  1  0  0  0  0
 11 14  1  0  0  0  0
  9 10  1  0  0  0  0
  9 11  1  0  0  0  0
  9 22  1  0  0  0  0
  7  8  1  0  0  0  0
  7  9  1  0  0  0  0
 26 27  1  0  0  0  0
 26 28  1  0  0  0  0
 26 29  1  0  0  0  0
 24 25  1  0  0  0  0
 24 26  1  0  0  0  0
M  END
$$$$
default_name
  -OEChem-01062215323D

 29 28  0     1  0  0  0  0  0999 V2000
   -3.5781   -3.7296    1.2702 H   0  0  0  0  0  0  0  0  0  0  0  0
   -3.5311   -2.7616    0.7732 C   0  0  0  0  0  0  0  0  0  0  0  0
   -4.2371   -2.0766    1.2382 H   0  0  0  0  0  0  0  0  0  0  0  0
   -3.7681   -2.8816   -0.2818 H   0  0  0  0  0  0  0  0  0  0  0  0
   -2.1321   -2.2086    0.9112 C   0  0  0  0  0  0  0  0  0  0  0  0
   -1.2751   -2.8426    1.5112 O   0  0  0  0  0  0  0  0  0  0  0  0
   -1.9041   -1.0186    0.3602 N   0  0  0  0  0  0  0  0  0  0  0  0
   -2.6671   -0.5416   -0.0988 H   0  0  0  0  0  0  0  0  0  0  0  0
   -0.6131   -0.3236    0.3832 C   0  0  1  0  0  0  0  0  0  0  0  0
   -0.7883    0.7285    0.6132 H   0  0  0  0  0  0  0  0  0  0  0  0
    0.2616   -0.9222    1.5002 C   0  0  0  0  0  0  0  0  0  0  0  0
    0.3337   -2.0014    1.3493 H   0  0  0  0  0  0  0  0  0  0  0  0
    1.2659   -0.5011    1.4354 H   0  0  0  0  0  0  0  0  0  0  0  0
   -0.2862   -0.6683    2.9093 C   0  0  0  0  0  0  0  0  0  0  0  0
   -1.2794   -1.1086    2.9914 H   0  0  0  0  0  0  0  0  0  0  0  0
    0.3720   -1.1503    3.6331 H   0  0  0  0  0  0  0  0  0  0  0  0
   -0.4133    1.0878    3.3331 S   0  0  0  0  0  0  0  0  0  0  0  0
    1.3454    1.5091    3.4384 C   0  0  0  0  0  0  0  0  0  0  0  0
    1.8261    1.3237    2.4774 H   0  0  0  0  0  0  0  0  0  0  0  0
    1.4497    2.5639    3.6943 H   0  0  0  0  0  0  0  0  0  0  0  0
    1.8231    0.9040    4.2094 H   0  0  0  0  0  0  0  0  0  0  0  0
    0.0659   -0.4062   -0.9914 C   0  0  0  0  0  0  0  0  0  0  0  0
    0.8255   -1.3379   -1.2488 O   0  0  0  0  0  0  0  0  0  0  0  0
   -0.1994    0.5699   -1.8690 N   0  0  0  0  0  0  0  0  0  0  0  0
   -0.8442    1.2929   -1.5922 H   0  0  0  0  0  0  0  0  0  0  0  0
    0.3791    0.6413   -3.2099 C   0  0  0  0  0  0  0  0  0  0  0  0
    0.1325   -0.2665   -3.7655 H   0  0  0  0  0  0  0  0  0  0  0  0
   -0.0103    1.5076   -3.7463 H   0  0  0  0  0  0  0  0  0  0  0  0
    1.4655    0.7183   -3.1387 H   0  0  0  0  0  0  0  0  0  0  0  0
  5  6  2  0  0  0  0
  5  7  1  0  0  0  0
  2  3  1  0  0  0  0
  2  4  1  0  0  0  0
  2  5  1  0  0  0  0
  1  2  1  0  0  0  0
 22 23  2  0  0  0  0
 22 24  1  0  0  0  0
 18 19  1  0  0  0  0
 18 20  1  0  0  0  0
 18 21  1  0  0  0  0
 17 18  1  0  0  0  0
 14 15  1  0  0  0  0
 14 16  1  0  0  0  0
 14 17  1  0  0  0  0
 11 12  1  0  0  0  0
 11 13  1  0  0  0  0
 11 14  1  0  0  0  0
  9 10  1  0  0  0  0
  9 11  1  0  0  0  0
  9 22  1  0  0  0  0
  7  8  1  0  0  0  0
  7  9  1  0  0  0  0
 26 27  1  0  0  0  0
 26 28  1  0  0  0  0
 26 29  1  0  0  0  0
 24 25  1  0  0  0  0
 24 26  1  0  0  0  0
M  END
$$$$
default_name
  -OEChem-01062215323D

 29 28  0     1  0  0  0  0  0999 V2000
   -3.5781   -3.7296    1.2702 H   0  0  0  0  0  0  0  0  0  0  0  0
   -3.5311   -2.7616    0.7732 C   0  0  0  0  0  0  0  0  0  0  0  0
   -4.2371   -2.0766    1.2382 H   0  0  0  0  0  0  0  0  0  0  0  0
   -3.7681   -2.8816   -0.2818 H   0  0  0  0  0  0  0  0  0  0  0  0
   -2.1321   -2.2086    0.9112 C   0  0  0  0  0  0  0  0  0  0  0  0
   -1.2751   -2.8426    1.5112 O   0  0  0  0  0  0  0  0  0  0  0  0
   -1.9041   -1.0186    0.3602 N   0  0  0  0  0  0  0  0  0  0  0  0
   -2.6671   -0.5416   -0.0988 H   0  0  0  0  0  0  0  0  0  0  0  0
   -0.6131   -0.3236    0.3832 C   0  0  1  0  0  0  0  0  0  0  0  0
   -0.7883    0.7285    0.6132 H   0  0  0  0  0  0  0  0  0  0  0  0
    0.2616   -0.9222    1.5002 C   0  0  0  0  0  0  0  0  0  0  0  0
    0.3337   -2.0014    1.3493 H   0  0  0  0  0  0  0  0  0  0  0  0
    1.2659   -0.5011    1.4354 H   0  0  0  0  0  0  0  0  0  0  0  0
   -0.2862   -0.6683    2.9093 C   0  0  0  0  0  0  0  0  0  0  0  0
   -1.2794   -1.1086    2.9914 H   0  0  0  0  0  0  0  0  0  0  0  0
    0.3720   -1.1503    3.6331 H   0  0  0  0  0  0  0  0  0  0  0  0
   -0.4133    1.0878    3.3331 S   0  0  0  0  0  0  0  0  0  0  0  0
    1.3454    1.5091    3.4384 C   0  0  0  0  0  0  0  0  0  0  0  0
    1.8261    1.3237    2.4774 H   0  0  0  0  0  0  0  0  0  0  0  0
    1.4497    2.5639    3.6943 H   0  0  0  0  0  0  0  0  0  0  0  0
    1.8231    0.9040    4.2094 H   0  0  0  0  0  0  0  0  0  0  0  0
    0.0659   -0.4062   -0.9914 C   0  0  0  0  0  0  0  0  0  0  0  0
    0.5966   -1.4538   -1.3548 O   0  0  0  0  0  0  0  0  0  0  0  0
    0.0574    0.6975   -1.7498 N   0  0  0  0  0  0  0  0  0  0  0  0
   -0.4105    1.5145   -1.3913 H   0  0  0  0  0  0  0  0  0  0  0  0
    0.6732    0.7831   -3.0731 C   0  0  0  0  0  0  0  0  0  0  0  0
    0.2390    0.0262   -3.7305 H   0  0  0  0  0  0  0  0  0  0  0  0
    0.5093    1.7711   -3.5055 H   0  0  0  0  0  0  0  0  0  0  0  0
    1.7457    0.5968   -2.9930 H   0  0  0  0  0  0  0  0  0  0  0  0
  5  6  2  0  0  0  0
  5  7  1  0  0  0  0
  2  3  1  0  0  0  0
  2  4  1  0  0  0  0
  2  5  1  0  0  0  0
  1  2  1  0  0  0  0
 22 23  2  0  0  0  0
 22 24  1  0  0  0  0
 18 19  1  0  0  0  0
 18 20  1  0  0  0  0
 18 21  1  0  0  0  0
 17 18  1  0  0  0  0
 14 15  1  0  0  0  0
 14 16  1  0  0  0  0
 14 17  1  0  0  0  0
 11 12  1  0  0  0  0
 11 13  1  0  0  0  0
 11 14  1  0  0  0  0
  9 10  1  0  0  0  0
  9 11  1  0  0  0  0
  9 22  1  0  0  0  0
  7  8  1  0  0  0  0
  7  9  1  0  0  0  0
 26 27  1  0  0  0  0
 26 28  1  0  0  0  0
 26 29  1  0  0  0  0
 24 25  1  0  0  0  0
 24 26  1  0  0  0  0
M  END
$$$$
default_name
  -OEChem-01062215323D

 29 28  0     1  0  0  0  0  0999 V2000
   -3.5781   -3.7296    1.2702 H   0  0  0  0  0  0  0  0  0  0  0  0
   -3.5311   -2.7616    0.7732 C   0  0  0  0  0  0  0  0  0  0  0  0
   -4.2371   -2.0766    1.2382 H   0  0  0  0  0  0  0  0  0  0  0  0
   -3.7681   -2.8816   -0.2818 H   0  0  0  0  0  0  0  0  0  0  0  0
   -2.1321   -2.2086    0.9112 C   0  0  0  0  0  0  0  0  0  0  0  0
   -1.2751   -2.8426    1.5112 O   0  0  0  0  0  0  0  0  0  0  0  0
   -1.9041   -1.0186    0.3602 N   0  0  0  0  0  0  0  0  0  0  0  0
   -2.6671   -0.5416   -0.0988 H   0  0  0  0  0  0  0  0  0  0  0  0
   -0.6131   -0.3236    0.3832 C   0  0  1  0  0  0  0  0  0  0  0  0
   -0.7883    0.7285    0.6132 H   0  0  0  0  0  0  0  0  0  0  0  0
    0.2616   -0.9222    1.5002 C   0  0  0  0  0  0  0  0  0  0  0  0
    0.3337   -2.0014    1.3493 H   0  0  0  0  0  0  0  0  0  0  0  0
    1.2659   -0.5011    1.4354 H   0  0  0  0  0  0  0  0  0  0  0  0
   -0.2862   -0.6683    2.9093 C   0  0  0  0  0  0  0  0  0  0  0  0
   -1.2794   -1.1086    2.9914 H   0  0  0  0  0  0  0  0  0  0  0  0
    0.3720   -1.1503    3.6331 H   0  0  0  0  0  0  0  0  0  0  0  0
   -0.4133    1.0878    3.3331 S   0  0  0  0  0  0  0  0  0  0  0  0
    1.3454    1.5091    3.4384 C   0  0  0  0  0  0  0  0  0  0  0  0
    1.8261    1.3237    2.4774 H   0  0  0  0  0  0  0  0  0  0  0  0
    1.4497    2.5639    3.6943 H   0  0  0  0  0  0  0  0  0  0  0  0
    1.8231    0.9040    4.2094 H   0  0  0  0  0  0  0  0  0  0  0  0
    0.0659   -0.4062   -0.9914 C   0  0  0  0  0  0  0  0  0  0  0  0
    0.3501   -1.5006   -1.4738 O   0  0  0  0  0  0  0  0  0  0  0  0
    0.3333    0.7475   -1.6166 N   0  0  0  0  0  0  0  0  0  0  0  0
    0.0571    1.6052   -1.1658 H   0  0  0  0  0  0  0  0  0  0  0  0
    0.9883    0.8363   -2.9207 C   0  0  0  0  0  0  0  0  0  0  0  0
    0.4092    0.2802   -3.6617 H   0  0  0  0  0  0  0  0  0  0  0  0
    1.0688    1.8776   -3.2355 H   0  0  0  0  0  0  0  0  0  0  0  0
    1.9861    0.3979   -2.8622 H   0  0  0  0  0  0  0  0  0  0  0  0
  5  6  2  0  0  0  0
  5  7  1  0  0  0  0
  2  3  1  0  0  0  0
  2  4  1  0  0  0  0
  2  5  1  0  0  0  0
  1  2  1  0  0  0  0
 22 23  2  0  0  0  0
 22 24  1  0  0  0  0
 18 19  1  0  0  0  0
 18 20  1  0  0  0  0
 18 21  1  0  0  0  0
 17 18  1  0  0  0  0
 14 15  1  0  0  0  0
 14 16  1  0  0  0  0
 14 17  1  0  0  0  0
 11 12  1  0  0  0  0
 11 13  1  0  0  0  0
 11 14  1  0  0  0  0
  9 10  1  0  0  0  0
  9 11  1  0  0  0  0
  9 22  1  0  0  0  0
  7  8  1  0  0  0  0
  7  9  1  0  0  0  0
 26 27  1  0  0  0  0
 26 28  1  0  0  0  0
 26 29  1  0  0  0  0
 24 25  1  0  0  0  0
 24 26  1  0  0  0  0
M  END
$$$$
default_name
  -OEChem-01062215323D

 29 28  0     1  0  0  0  0  0999 V2000
   -3.5781   -3.7296    1.2702 H   0  0  0  0  0  0  0  0  0  0  0  0
   -3.5311   -2.7616    0.7732 C   0  0  0  0  0  0  0  0  0  0  0  0
   -4.2371   -2.0766    1.2382 H   0  0  0  0  0  0  0  0  0  0  0  0
   -3.7681   -2.8816   -0.2818 H   0  0  0  0  0  0  0  0  0  0  0  0
   -2.1321   -2.2086    0.9112 C   0  0  0  0  0  0  0  0  0  0  0  0
   -1.2751   -2.8426    1.5112 O   0  0  0  0  0  0  0  0  0  0  0  0
   -1.9041   -1.0186    0.3602 N   0  0  0  0  0  0  0  0  0  0  0  0
   -2.6671   -0.5416   -0.0988 H   0  0  0  0  0  0  0  0  0  0  0  0
   -0.6131   -0.3236    0.3832 C   0  0  1  0  0  0  0  0  0  0  0  0
   -0.7883    0.7285    0.6132 H   0  0  0  0  0  0  0  0  0  0  0  0
    0.2616   -0.9222    1.5002 C   0  0  0  0  0  0  0  0  0  0  0  0
    0.3337   -2.0014    1.3493 H   0  0  0  0  0  0  0  0  0  0  0  0
    1.2659   -0.5011    1.4354 H   0  0  0  0  0  0  0  0  0  0  0  0
   -0.2862   -0.6683    2.9093 C   0  0  0  0  0  0  0  0  0  0  0  0
   -1.2794   -1.1086    2.9914 H   0  0  0  0  0  0  0  0  0  0  0  0
    0.3720   -1.1503    3.6331 H   0  0  0  0  0  0  0  0  0  0  0  0
   -0.4133    1.0878    3.3331 S   0  0  0  0  0  0  0  0  0  0  0  0
    1.3454    1.5091    3.4384 C   0  0  0  0  0  0  0  0  0  0  0  0
    1.8261    1.3237    2.4774 H   0  0  0  0  0  0  0  0  0  0  0  0
    1.4497    2.5639    3.6943 H   0  0  0  0  0  0  0  0  0  0  0  0
    1.8231    0.9040    4.2094 H   0  0  0  0  0  0  0  0  0  0  0  0
    0.0659   -0.4062   -0.9914 C   0  0  0  0  0  0  0  0  0  0  0  0
    0.1028   -1.4751   -1.5974 O   0  0  0  0  0  0  0  0  0  0  0  0
    0.6095    0.7166   -1.4783 N   0  0  0  0  0  0  0  0  0  0  0  0
    0.5265    1.5585   -0.9311 H   0  0  0  0  0  0  0  0  0  0  0  0
    1.3028    0.7973   -2.7630 C   0  0  0  0  0  0  0  0  0  0  0  0
    0.6315    0.4783   -3.5638 H   0  0  0  0  0  0  0  0  0  0  0  0
    1.6303    1.8199   -2.9548 H   0  0  0  0  0  0  0  0  0  0  0  0
    2.1705    0.1352   -2.7554 H   0  0  0  0  0  0  0  0  0  0  0  0
  5  6  2  0  0  0  0
  5  7  1  0  0  0  0
  2  3  1  0  0  0  0
  2  4  1  0  0  0  0
  2  5  1  0  0  0  0
  1  2  1  0  0  0  0
 22 23  2  0  0  0  0
 22 24  1  0  0  0  0
 18 19  1  0  0  0  0
 18 20  1  0  0  0  0
 18 21  1  0  0  0  0
 17 18  1  0  0  0  0
 14 15  1  0  0  0  0
 14 16  1  0  0  0  0
 14 17  1  0  0  0  0
 11 12  1  0  0  0  0
 11 13  1  0  0  0  0
 11 14  1  0  0  0  0
  9 10  1  0  0  0  0
  9 11  1  0  0  0  0
  9 22  1  0  0  0  0
  7  8  1  0  0  0  0
  7  9  1  0  0  0  0
 26 27  1  0  0  0  0
 26 28  1  0  0  0  0
 26 29  1  0  0  0  0
 24 25  1  0  0  0  0
 24 26  1  0  0  0  0
M  END
$$$$
default_name
  -OEChem-01062215323D

 29 28  0     1  0  0  0  0  0999 V2000
   -3.5781   -3.7296    1.2702 H   0  0  0  0  0  0  0  0  0  0  0  0
   -3.5311   -2.7616    0.7732 C   0  0  0  0  0  0  0  0  0  0  0  0
   -4.2371   -2.0766    1.2382 H   0  0  0  0  0  0  0  0  0  0  0  0
   -3.7681   -2.8816   -0.2818 H   0  0  0  0  0  0  0  0  0  0  0  0
   -2.1321   -2.2086    0.9112 C   0  0  0  0  0  0  0  0  0  0  0  0
   -1.2751   -2.8426    1.5112 O   0  0  0  0  0  0  0  0  0  0  0  0
   -1.9041   -1.0186    0.3602 N   0  0  0  0  0  0  0  0  0  0  0  0
   -2.6671   -0.5416   -0.0988 H   0  0  0  0  0  0  0  0  0  0  0  0
   -0.6131   -0.3236    0.3832 C   0  0  1  0  0  0  0  0  0  0  0  0
   -0.7883    0.7285    0.6132 H   0  0  0  0  0  0  0  0  0  0  0  0
    0.2616   -0.9222    1.5002 C   0  0  0  0  0  0  0  0  0  0  0  0
    0.3337   -2.0014    1.3493 H   0  0  0  0  0  0  0  0  0  0  0  0
    1.2659   -0.5011    1.4354 H   0  0  0  0  0  0  0  0  0  0  0  0
   -0.2862   -0.6683    2.9093 C   0  0  0  0  0  0  0  0  0  0  0  0
   -1.2794   -1.1086    2.9914 H   0  0  0  0  0  0  0  0  0  0  0  0
    0.3720   -1.1503    3.6331 H   0  0  0  0  0  0  0  0  0  0  0  0
   -0.4133    1.0878    3.3331 S   0  0  0  0  0  0  0  0  0  0  0  0
    1.3454    1.5091    3.4384 C   0  0  0  0  0  0  0  0  0  0  0  0
    1.8261    1.3237    2.4774 H   0  0  0  0  0  0  0  0  0  0  0  0
    1.4497    2.5639    3.6943 H   0  0  0  0  0  0  0  0  0  0  0  0
    1.8231    0.9040    4.2094 H   0  0  0  0  0  0  0  0  0  0  0  0
    0.0659   -0.4062   -0.9914 C   0  0  0  0  0  0  0  0  0  0  0  0
   -0.1284   -1.3790   -1.7174 O   0  0  0  0  0  0  0  0  0  0  0  0
    0.8672    0.6070   -1.3444 N   0  0  0  0  0  0  0  0  0  0  0  0
    0.9659    1.3779   -0.7032 H   0  0  0  0  0  0  0  0  0  0  0  0
    1.5954    0.6686   -2.6107 C   0  0  0  0  0  0  0  0  0  0  0  0
    0.8908    0.6069   -3.4434 H   0  0  0  0  0  0  0  0  0  0  0  0
    2.1553    1.6020   -2.6824 H   0  0  0  0  0  0  0  0  0  0  0  0
    2.2862   -0.1736   -2.6797 H   0  0  0  0  0  0  0  0  0  0  0  0
  5  6  2  0  0  0  0
  5  7  1  0  0  0  0
  2  3  1  0  0  0  0
  2  4  1  0  0  0  0
  2  5  1  0  0  0  0
  1  2  1  0  0  0  0
 22 23  2  0  0  0  0
 22 24  1  0  0  0  0
 18 19  1  0  0  0  0
 18 20  1  0  0  0  0
 18 21  1  0  0  0  0
 17 18  1  0  0  0  0
 14 15  1  0  0  0  0
 14 16  1  0  0  0  0
 14 17  1  0  0  0  0
 11 12  1  0  0  0  0
 11 13  1  0  0  0  0
 11 14  1  0  0  0  0
  9 10  1  0  0  0  0
  9 11  1  0  0  0  0
  9 22  1  0  0  0  0
  7  8  1  0  0  0  0
  7  9  1  0  0  0  0
 26 27  1  0  0  0  0
 26 28  1  0  0  0  0
 26 29  1  0  0  0  0
 24 25  1  0  0  0  0
 24 26  1  0  0  0  0
M  END
$$$$
default_name
  -OEChem-01062215323D

 29 28  0     1  0  0  0  0  0999 V2000
   -3.5781   -3.7296    1.2702 H   0  0  0  0  0  0  0  0  0  0  0  0
   -3.5311   -2.7616    0.7732 C   0  0  0  0  0  0  0  0  0  0  0  0
   -4.2371   -2.0766    1.2382 H   0  0  0  0  0  0  0  0  0  0  0  0
   -3.7681   -2.8816   -0.2818 H   0  0  0  0  0  0  0  0  0  0  0  0
   -2.1321   -2.2086    0.9112 C   0  0  0  0  0  0  0  0  0  0  0  0
   -1.2751   -2.8426    1.5112 O   0  0  0  0  0  0  0  0  0  0  0  0
   -1.9041   -1.0186    0.3602 N   0  0  0  0  0  0  0  0  0  0  0  0
   -2.6671   -0.5416   -0.0988 H   0  0  0  0  0  0  0  0  0  0  0  0
   -0.6131   -0.3236    0.3832 C   0  0  1  0  0  0  0  0  0  0  0  0
   -0.7883    0.7285    0.6132 H   0  0  0  0  0  0  0  0  0  0  0  0
    0.2616   -0.9222    1.5002 C   0  0  0  0  0  0  0  0  0  0  0  0
    0.3337   -2.0014    1.3493 H   0  0  0  0  0  0  0  0  0  0  0  0
    1.2659   -0.5011    1.4354 H   0  0  0  0  0  0  0  0  0  0  0  0
   -0.2862   -0.6683    2.9093 C   0  0  0  0  0  0  0  0  0  0  0  0
   -1.2794   -1.1086    2.9914 H   0  0  0  0  0  0  0  0  0  0  0  0
    0.3720   -1.1503    3.6331 H   0  0  0  0  0  0  0  0  0  0  0  0
   -0.4133    1.0878    3.3331 S   0  0  0  0  0  0  0  0  0  0  0  0
    1.3454    1.5091    3.4384 C   0  0  0  0  0  0  0  0  0  0  0  0
    1.8261    1.3237    2.4774 H   0  0  0  0  0  0  0  0  0  0  0  0
    1.4497    2.5639    3.6943 H   0  0  0  0  0  0  0  0  0  0  0  0
    1.8231    0.9040    4.2094 H   0  0  0  0  0  0  0  0  0  0  0  0
    0.0659   -0.4062   -0.9914 C   0  0  0  0  0  0  0  0  0  0  0  0
   -0.3278   -1.2189   -1.8255 O   0  0  0  0  0  0  0  0  0  0  0  0
    1.0889    0.4261   -1.2240 N   0  0  0  0  0  0  0  0  0  0  0  0
    1.3453    1.0754   -0.4976 H   0  0  0  0  0  0  0  0  0  0  0  0
    1.8461    0.4591   -2.4743 C   0  0  0  0  0  0  0  0  0  0  0  0
    1.1694    0.6573   -3.3089 H   0  0  0  0  0  0  0  0  0  0  0  0
    2.6081    1.2387   -2.4369 H   0  0  0  0  0  0  0  0  0  0  0  0
    2.3253   -0.5074   -2.6403 H   0  0  0  0  0  0  0  0  0  0  0  0
  5  6  2  0  0  0  0
  5  7  1  0  0  0  0
  2  3  1  0  0  0  0
  2  4  1  0  0  0  0
  2  5  1  0  0  0  0
  1  2  1  0  0  0  0
 22 23  2  0  0  0  0
 22 24  1  0  0  0  0
 18 19  1  0  0  0  0
 18 20  1  0  0  0  0
 18 21  1  0  0  0  0
 17 18  1  0  0  0  0
 14 15  1  0  0  0  0
 14 16  1  0  0  0  0
 14 17  1  0  0  0  0
 11 12  1  0  0  0  0
 11 13  1  0  0  0  0
 11 14  1  0  0  0  0
  9 10  1  0  0  0  0
  9 11  1  0  0  0  0
  9 22  1  0  0  0  0
  7  8  1  0  0  0  0
  7  9  1  0  0  0  0
 26 27  1  0  0  0  0
 26 28  1  0  0  0  0
 26 29  1  0  0  0  0
 24 25  1  0  0  0  0
 24 26  1  0  0  0  0
M  END
$$$$
default_name
  -OEChem-01062215323D

 29 28  0     1  0  0  0  0  0999 V2000
   -3.5781   -3.7296    1.2702 H   0  0  0  0  0  0  0  0  0  0  0  0
   -3.5311   -2.7616    0.7732 C   0  0  0  0  0  0  0  0  0  0  0  0
   -4.2371   -2.0766    1.2382 H   0  0  0  0  0  0  0  0  0  0  0  0
   -3.7681   -2.8816   -0.2818 H   0  0  0  0  0  0  0  0  0  0  0  0
   -2.1321   -2.2086    0.9112 C   0  0  0  0  0  0  0  0  0  0  0  0
   -1.2751   -2.8426    1.5112 O   0  0  0  0  0  0  0  0  0  0  0  0
   -1.9041   -1.0186    0.3602 N   0  0  0  0  0  0  0  0  0  0  0  0
   -2.6671   -0.5416   -0.0988 H   0  0  0  0  0  0  0  0  0  0  0  0
   -0.6131   -0.3236    0.3832 C   0  0  1  0  0  0  0  0  0  0  0  0
   -0.7480    0.6452    0.8667 H   0  0  0  0  0  0  0  0  0  0  0  0
    0.3863   -1.1446    1.2187 C   0  0  0  0  0  0  0  0  0  0  0  0
    0.4283   -2.1597    0.8180 H   0  0  0  0  0  0  0  0  0  0  0  0
    1.3793   -0.7016    1.1295 H   0  0  0  0  0  0  0  0  0  0  0  0
    0.0189   -1.2282    2.7047 C   0  0  0  0  0  0  0  0  0  0  0  0
   -0.9611   -1.6937    2.8049 H   0  0  0  0  0  0  0  0  0  0  0  0
    0.7563   -1.8502    3.2134 H   0  0  0  0  0  0  0  0  0  0  0  0
   -0.0373    0.3827    3.5302 S   0  0  0  0  0  0  0  0  0  0  0  0
    1.7252    0.8011    3.5131 C   0  0  0  0  0  0  0  0  0  0  0  0
    2.0820    0.8481    2.4837 H   0  0  0  0  0  0  0  0  0  0  0  0
    1.8710    1.7716    3.9881 H   0  0  0  0  0  0  0  0  0  0  0  0
    2.2881    0.0452    4.0614 H   0  0  0  0  0  0  0  0  0  0  0  0
   -0.1095   -0.0788   -1.0463 C   0  0  0  0  0  0  0  0  0  0  0  0
   -0.7726   -0.4623   -2.0078 O   0  0  0  0  0  0  0  0  0  0  0  0
    1.0645    0.5503   -1.1865 N   0  0  0  0  0  0  0  0  0  0  0  0
    1.5441    0.8487   -0.3522 H   0  0  0  0  0  0  0  0  0  0  0  0
    1.6844    0.8432   -2.4779 C   0  0  0  0  0  0  0  0  0  0  0  0
    1.0047    1.4472   -3.0835 H   0  0  0  0  0  0  0  0  0  0  0  0
    2.6191    1.3875   -2.3362 H   0  0  0  0  0  0  0  0  0  0  0  0
    1.8855   -0.0885   -3.0096 H   0  0  0  0  0  0  0  0  0  0  0  0
  5  6  2  0  0  0  0
  5  7  1  0  0  0  0
  2  3  1  0  0  0  0
  2  4  1  0  0  0  0
  2  5  1  0  0  0  0
  1  2  1  0  0  0  0
 22 23  2  0  0  0  0
 22 24  1  0  0  0  0
 18 19  1  0  0  0  0
 18 20  1  0  0  0  0
 18 21  1  0  0  0  0
 17 18  1  0  0  0  0
 14 15  1  0  0  0  0
 14 16  1  0  0  0  0
 14 17  1  0  0  0  0
 11 12  1  0  0  0  0
 11 13  1  0  0  0  0
 11 14  1  0  0  0  0
  9 10  1  0  0  0  0
  9 11  1  0  0  0  0
  9 22  1  0  0  0  0
  7  8  1  0  0  0  0
  7  9  1  0  0  0  0
 26 27  1  0  0  0  0
 26 28  1  0  0  0  0
 26 29  1  0  0  0  0
 24 25  1  0  0  0  0
 24 26  1  0  0  0  0
M  END
$$$$
default_name
  -OEChem-01062215323D

 29 28  0     1  0  0  0  0  0999 V2000
   -3.5781   -3.7296    1.2702 H   0  0  0  0  0  0  0  0  0  0  0  0
   -3.5311   -2.7616    0.7732 C   0  0  0  0  0  0  0  0  0  0  0  0
   -4.2371   -2.0766    1.2382 H   0  0  0  0  0  0  0  0  0  0  0  0
   -3.7681   -2.8816   -0.2818 H   0  0  0  0  0  0  0  0  0  0  0  0
   -2.1321   -2.2086    0.9112 C   0  0  0  0  0  0  0  0  0  0  0  0
   -1.2751   -2.8426    1.5112 O   0  0  0  0  0  0  0  0  0  0  0  0
   -1.9041   -1.0186    0.3602 N   0  0  0  0  0  0  0  0  0  0  0  0
   -2.6671   -0.5416   -0.0988 H   0  0  0  0  0  0  0  0  0  0  0  0
   -0.6131   -0.3236    0.3832 C   0  0  1  0  0  0  0  0  0  0  0  0
   -0.7480    0.6452    0.8667 H   0  0  0  0  0  0  0  0  0  0  0  0
    0.3863   -1.1446    1.2187 C   0  0  0  0  0  0  0  0  0  0  0  0
    0.4283   -2.1597    0.8180 H   0  0  0  0  0  0  0  0  0  0  0  0
    1.3793   -0.7016    1.1295 H   0  0  0  0  0  0  0  0  0  0  0  0
    0.0189   -1.2282    2.7047 C   0  0  0  0  0  0  0  0  0  0  0  0
   -0.9611   -1.6937    2.8049 H   0  0  0  0  0  0  0  0  0  0  0  0
    0.7563   -1.8502    3.2134 H   0  0  0  0  0  0  0  0  0  0  0  0
   -0.0373    0.3827    3.5302 S   0  0  0  0  0  0  0  0  0  0  0  0
    1.7252    0.8011    3.5131 C   0  0  0  0  0  0  0  0  0  0  0  0
    2.0820    0.8481    2.4837 H   0  0  0  0  0  0  0  0  0  0  0  0
    1.8710    1.7716    3.9881 H   0  0  0  0  0  0  0  0  0  0  0  0
    2.2881    0.0452    4.0614 H   0  0  0  0  0  0  0  0  0  0  0  0
   -0.1095   -0.0788   -1.0463 C   0  0  0  0  0  0  0  0  0  0  0  0
   -0.8753   -0.2044   -1.9998 O   0  0  0  0  0  0  0  0  0  0  0  0
    1.1772    0.2612   -1.1963 N   0  0  0  0  0  0  0  0  0  0  0  0
    1.7404    0.3599   -0.3668 H   0  0  0  0  0  0  0  0  0  0  0  0
    1.8095    0.5122   -2.4905 C   0  0  0  0  0  0  0  0  0  0  0  0
    1.2784    1.3132   -3.0100 H   0  0  0  0  0  0  0  0  0  0  0  0
    2.8522    0.8021   -2.3543 H   0  0  0  0  0  0  0  0  0  0  0  0
    1.7619   -0.3888   -3.1046 H   0  0  0  0  0  0  0  0  0  0  0  0
  5  6  2  0  0  0  0
  5  7  1  0  0  0  0
  2  3  1  0  0  0  0
  2  4  1  0  0  0  0
  2  5  1  0  0  0  0
  1  2  1  0  0  0  0
 22 23  2  0  0  0  0
 22 24  1  0  0  0  0
 18 19  1  0  0  0  0
 18 20  1  0  0  0  0
 18 21  1  0  0  0  0
 17 18  1  0  0  0  0
 14 15  1  0  0  0  0
 14 16  1  0  0  0  0
 14 17  1  0  0  0  0
 11 12  1  0  0  0  0
 11 13  1  0  0  0  0
 11 14  1  0  0  0  0
  9 10  1  0  0  0  0
  9 11  1  0  0  0  0
  9 22  1  0  0  0  0
  7  8  1  0  0  0  0
  7  9  1  0  0  0  0
 26 27  1  0  0  0  0
 26 28  1  0  0  0  0
 26 29  1  0  0  0  0
 24 25  1  0  0  0  0
 24 26  1  0  0  0  0
M  END
$$$$
default_name
  -OEChem-01062215323D

 29 28  0     1  0  0  0  0  0999 V2000
   -3.5781   -3.7296    1.2702 H   0  0  0  0  0  0  0  0  0  0  0  0
   -3.5311   -2.7616    0.7732 C   0  0  0  0  0  0  0  0  0  0  0  0
   -4.2371   -2.0766    1.2382 H   0  0  0  0  0  0  0  0  0  0  0  0
   -3.7681   -2.8816   -0.2818 H   0  0  0  0  0  0  0  0  0  0  0  0
   -2.1321   -2.2086    0.9112 C   0  0  0  0  0  0  0  0  0  0  0  0
   -1.2751   -2.8426    1.5112 O   0  0  0  0  0  0  0  0  0  0  0  0
   -1.9041   -1.0186    0.3602 N   0  0  0  0  0  0  0  0  0  0  0  0
   -2.6671   -0.5416   -0.0988 H   0  0  0  0  0  0  0  0  0  0  0  0
   -0.6131   -0.3236    0.3832 C   0  0  1  0  0  0  0  0  0  0  0  0
   -0.7480    0.6452    0.8667 H   0  0  0  0  0  0  0  0  0  0  0  0
    0.3863   -1.1446    1.2187 C   0  0  0  0  0  0  0  0  0  0  0  0
    0.4283   -2.1597    0.8180 H   0  0  0  0  0  0  0  0  0  0  0  0
    1.3793   -0.7016    1.1295 H   0  0  0  0  0  0  0  0  0  0  0  0
    0.0189   -1.2282    2.7047 C   0  0  0  0  0  0  0  0  0  0  0  0
   -0.9611   -1.6937    2.8049 H   0  0  0  0  0  0  0  0  0  0  0  0
    0.7563   -1.8502    3.2134 H   0  0  0  0  0  0  0  0  0  0  0  0
   -0.0373    0.3827    3.5302 S   0  0  0  0  0  0  0  0  0  0  0  0
    1.7252    0.8011    3.5131 C   0  0  0  0  0  0  0  0  0  0  0  0
    2.0820    0.8481    2.4837 H   0  0  0  0  0  0  0  0  0  0  0  0
    1.8710    1.7716    3.9881 H   0  0  0  0  0  0  0  0  0  0  0  0
    2.2881    0.0452    4.0614 H   0  0  0  0  0  0  0  0  0  0  0  0
   -0.1095   -0.0788   -1.0463 C   0  0  0  0  0  0  0  0  0  0  0  0
   -0.9119    0.0687   -1.9659 O   0  0  0  0  0  0  0  0  0  0  0  0
    1.2160   -0.0444   -1.2350 N   0  0  0  0  0  0  0  0  0  0  0  0
    1.8116   -0.1583   -0.4304 H   0  0  0  0  0  0  0  0  0  0  0  0
    1.8501    0.1635   -2.5359 C   0  0  0  0  0  0  0  0  0  0  0  0
    1.5135    1.1117   -2.9617 H   0  0  0  0  0  0  0  0  0  0  0  0
    2.9357    0.1821   -2.4311 H   0  0  0  0  0  0  0  0  0  0  0  0
    1.5662   -0.6410   -3.2167 H   0  0  0  0  0  0  0  0  0  0  0  0
  5  6  2  0  0  0  0
  5  7  1  0  0  0  0
  2  3  1  0  0  0  0
  2  4  1  0  0  0  0
  2  5  1  0  0  0  0
  1  2  1  0  0  0  0
 22 23  2  0  0  0  0
 22 24  1  0  0  0  0
 18 19  1  0  0  0  0
 18 20  1  0  0  0  0
 18 21  1  0  0  0  0
 17 18  1  0  0  0  0
 14 15  1  0  0  0  0
 14 16  1  0  0  0  0
 14 17  1  0  0  0  0
 11 12  1  0  0  0  0
 11 13  1  0  0  0  0
 11 14  1  0  0  0  0
  9 10  1  0  0  0  0
  9 11  1  0  0  0  0
  9 22  1  0  0  0  0
  7  8  1  0  0  0  0
  7  9  1  0  0  0  0
 26 27  1  0  0  0  0
 26 28  1  0  0  0  0
 26 29  1  0  0  0  0
 24 25  1  0  0  0  0
 24 26  1  0  0  0  0
M  END
$$$$
default_name
  -OEChem-01062215323D

 29 28  0     1  0  0  0  0  0999 V2000
   -3.5781   -3.7296    1.2702 H   0  0  0  0  0  0  0  0  0  0  0  0
   -3.5311   -2.7616    0.7732 C   0  0  0  0  0  0  0  0  0  0  0  0
   -4.2371   -2.0766    1.2382 H   0  0  0  0  0  0  0  0  0  0  0  0
   -3.7681   -2.8816   -0.2818 H   0  0  0  0  0  0  0  0  0  0  0  0
   -2.1321   -2.2086    0.9112 C   0  0  0  0  0  0  0  0  0  0  0  0
   -1.2751   -2.8426    1.5112 O   0  0  0  0  0  0  0  0  0  0  0  0
   -1.9041   -1.0186    0.3602 N   0  0  0  0  0  0  0  0  0  0  0  0
   -2.6671   -0.5416   -0.0988 H   0  0  0  0  0  0  0  0  0  0  0  0
   -0.6131   -0.3236    0.3832 C   0  0  1  0  0  0  0  0  0  0  0  0
   -0.7480    0.6452    0.8667 H   0  0  0  0  0  0  0  0  0  0  0  0
    0.3863   -1.1446    1.2187 C   0  0  0  0  0  0  0  0  0  0  0  0
    0.4283   -2.1597    0.8180 H   0  0  0  0  0  0  0  0  0  0  0  0
    1.3793   -0.7016    1.1295 H   0  0  0  0  0  0  0  0  0  0  0  0
    0.0189   -1.2282    2.7047 C   0  0  0  0  0  0  0  0  0  0  0  0
   -0.9611   -1.6937    2.8049 H   0  0  0  0  0  0  0  0  0  0  0  0
    0.7563   -1.8502    3.2134 H   0  0  0  0  0  0  0  0  0  0  0  0
   -0.0373    0.3827    3.5302 S   0  0  0  0  0  0  0  0  0  0  0  0
    1.7252    0.8011    3.5131 C   0  0  0  0  0  0  0  0  0  0  0  0
    2.0820    0.8481    2.4837 H   0  0  0  0  0  0  0  0  0  0  0  0
    1.8710    1.7716    3.9881 H   0  0  0  0  0  0  0  0  0  0  0  0
    2.2881    0.0452    4.0614 H   0  0  0  0  0  0  0  0  0  0  0  0
   -0.1095   -0.0788   -1.0463 C   0  0  0  0  0  0  0  0  0  0  0  0
   -0.8801    0.3385   -1.9085 O   0  0  0  0  0  0  0  0  0  0  0  0
    1.1782   -0.3456   -1.2999 N   0  0  0  0  0  0  0  0  0  0  0  0
    1.7529   -0.6706   -0.5388 H   0  0  0  0  0  0  0  0  0  0  0  0
    1.8034   -0.1793   -2.6111 C   0  0  0  0  0  0  0  0  0  0  0  0
    1.6941    0.8562   -2.9419 H   0  0  0  0  0  0  0  0  0  0  0  0
    2.8637   -0.4305   -2.5613 H   0  0  0  0  0  0  0  0  0  0  0  0
    1.3118   -0.8279   -3.3384 H   0  0  0  0  0  0  0  0  0  0  0  0
  5  6  2  0  0  0  0
  5  7  1  0  0  0  0
  2  3  1  0  0  0  0
  2  4  1  0  0  0  0
  2  5  1  0  0  0  0
  1  2  1  0  0  0  0
 22 23  2  0  0  0  0
 22 24  1  0  0  0  0
 18 19  1  0  0  0  0
 18 20  1  0  0  0  0
 18 21  1  0  0  0  0
 17 18  1  0  0  0  0
 14 15  1  0  0  0  0
 14 16  1  0  0  0  0
 14 17  1  0  0  0  0
 11 12  1  0  0  0  0
 11 13  1  0  0  0  0
 11 14  1  0  0  0  0
  9 10  1  0  0  0  0
  9 11  1  0  0  0  0
  9 22  1  0  0  0  0
  7  8  1  0  0  0  0
  7  9  1  0  0  0  0
 26 27  1  0  0  0  0
 26 28  1  0  0  0  0
 26 29  1  0  0  0  0
 24 25  1  0  0  0  0
 24 26  1  0  0  0  0
M  END
$$$$
default_name
  -OEChem-01062215323D

 29 28  0     1  0  0  0  0  0999 V2000
   -3.5781   -3.7296    1.2702 H   0  0  0  0  0  0  0  0  0  0  0  0
   -3.5311   -2.7616    0.7732 C   0  0  0  0  0  0  0  0  0  0  0  0
   -4.2371   -2.0766    1.2382 H   0  0  0  0  0  0  0  0  0  0  0  0
   -3.7681   -2.8816   -0.2818 H   0  0  0  0  0  0  0  0  0  0  0  0
   -2.1321   -2.2086    0.9112 C   0  0  0  0  0  0  0  0  0  0  0  0
   -1.2751   -2.8426    1.5112 O   0  0  0  0  0  0  0  0  0  0  0  0
   -1.9041   -1.0186    0.3602 N   0  0  0  0  0  0  0  0  0  0  0  0
   -2.6671   -0.5416   -0.0988 H   0  0  0  0  0  0  0  0  0  0  0  0
   -0.6131   -0.3236    0.3832 C   0  0  1  0  0  0  0  0  0  0  0  0
   -0.7480    0.6452    0.8667 H   0  0  0  0  0  0  0  0  0  0  0  0
    0.3863   -1.1446    1.2187 C   0  0  0  0  0  0  0  0  0  0  0  0
    0.4283   -2.1597    0.8180 H   0  0  0  0  0  0  0  0  0  0  0  0
    1.3793   -0.7016    1.1295 H   0  0  0  0  0  0  0  0  0  0  0  0
    0.0189   -1.2282    2.7047 C   0  0  0  0  0  0  0  0  0  0  0  0
   -0.9611   -1.6937    2.8049 H   0  0  0  0  0  0  0  0  0  0  0  0
    0.7563   -1.8502    3.2134 H   0  0  0  0  0  0  0  0  0  0  0  0
   -0.0373    0.3827    3.5302 S   0  0  0  0  0  0  0  0  0  0  0  0
    1.7252    0.8011    3.5131 C   0  0  0  0  0  0  0  0  0  0  0  0
    2.0820    0.8481    2.4837 H   0  0  0  0  0  0  0  0  0  0  0  0
    1.8710    1.7716    3.9881 H   0  0  0  0  0  0  0  0  0  0  0  0
    2.2881    0.0452    4.0614 H   0  0  0  0  0  0  0  0  0  0  0  0
   -0.1095   -0.0788   -1.0463 C   0  0  0  0  0  0  0  0  0  0  0  0
   -0.7819    0.5865   -1.8314 O   0  0  0  0  0  0  0  0  0  0  0  0
    1.0664   -0.6220   -1.3866 N   0  0  0  0  0  0  0  0  0  0  0  0
    1.5683   -1.1421   -0.6846 H   0  0  0  0  0  0  0  0  0  0  0  0
    1.6725   -0.4928   -2.7109 C   0  0  0  0  0  0  0  0  0  0  0  0
    1.8077    0.5643   -2.9518 H   0  0  0  0  0  0  0  0  0  0  0  0
    2.6411   -0.9937   -2.7362 H   0  0  0  0  0  0  0  0  0  0  0  0
    1.0159   -0.9368   -3.4612 H   0  0  0  0  0  0  0  0  0  0  0  0
  5  6  2  0  0  0  0
  5  7  1  0  0  0  0
  2  3  1  0  0  0  0
  2  4  1  0  0  0  0
  2  5  1  0  0  0  0
  1  2  1  0  0  0  0
 22 23  2  0  0  0  0
 22 24  1  0  0  0  0
 18 19  1  0  0  0  0
 18 20  1  0  0  0  0
 18 21  1  0  0  0  0
 17 18  1  0  0  0  0
 14 15  1  0  0  0  0
 14 16  1  0  0  0  0
 14 17  1  0  0  0  0
 11 12  1  0  0  0  0
 11 13  1  0  0  0  0
 11 14  1  0  0  0  0
  9 10  1  0  0  0  0
  9 11  1  0  0  0  0
  9 22  1  0  0  0  0
  7  8  1  0  0  0  0
  7  9  1  0  0  0  0
 26 27  1  0  0  0  0
 26 28  1  0  0  0  0
 26 29  1  0  0  0  0
 24 25  1  0  0  0  0
 24 26  1  0  0  0  0
M  END
$$$$
default_name
  -OEChem-01062215323D

 29 28  0     1  0  0  0  0  0999 V2000
   -3.5781   -3.7296    1.2702 H   0  0  0  0  0  0  0  0  0  0  0  0
   -3.5311   -2.7616    0.7732 C   0  0  0  0  0  0  0  0  0  0  0  0
   -4.2371   -2.0766    1.2382 H   0  0  0  0  0  0  0  0  0  0  0  0
   -3.7681   -2.8816   -0.2818 H   0  0  0  0  0  0  0  0  0  0  0  0
   -2.1321   -2.2086    0.9112 C   0  0  0  0  0  0  0  0  0  0  0  0
   -1.2751   -2.8426    1.5112 O   0  0  0  0  0  0  0  0  0  0  0  0
   -1.9041   -1.0186    0.3602 N   0  0  0  0  0  0  0  0  0  0  0  0
   -2.6671   -0.5416   -0.0988 H   0  0  0  0  0  0  0  0  0  0  0  0
   -0.6131   -0.3236    0.3832 C   0  0  1  0  0  0  0  0  0  0  0  0
   -0.7480    0.6452    0.8667 H   0  0  0  0  0  0  0  0  0  0  0  0
    0.3863   -1.1446    1.2187 C   0  0  0  0  0  0  0  0  0  0  0  0
    0.4283   -2.1597    0.8180 H   0  0  0  0  0  0  0  0  0  0  0  0
    1.3793   -0.7016    1.1295 H   0  0  0  0  0  0  0  0  0  0  0  0
    0.0189   -1.2282    2.7047 C   0  0  0  0  0  0  0  0  0  0  0  0
   -0.9611   -1.6937    2.8049 H   0  0  0  0  0  0  0  0  0  0  0  0
    0.7563   -1.8502    3.2134 H   0  0  0  0  0  0  0  0  0  0  0  0
   -0.0373    0.3827    3.5302 S   0  0  0  0  0  0  0  0  0  0  0  0
    1.7252    0.8011    3.5131 C   0  0  0  0  0  0  0  0  0  0  0  0
    2.0820    0.8481    2.4837 H   0  0  0  0  0  0  0  0  0  0  0  0
    1.8710    1.7716    3.9881 H   0  0  0  0  0  0  0  0  0  0  0  0
    2.2881    0.0452    4.0614 H   0  0  0  0  0  0  0  0  0  0  0  0
   -0.1095   -0.0788   -1.0463 C   0  0  0  0  0  0  0  0  0  0  0  0
   -0.6242    0.7959   -1.7400 O   0  0  0  0  0  0  0  0  0  0  0  0
    0.8883   -0.8546   -1.4892 N   0  0  0  0  0  0  0  0  0  0  0  0
    1.2703   -1.5406   -0.8579 H   0  0  0  0  0  0  0  0  0  0  0  0
    1.4664   -0.7555   -2.8284 C   0  0  0  0  0  0  0  0  0  0  0  0
    1.8467    0.2557   -2.9909 H   0  0  0  0  0  0  0  0  0  0  0  0
    2.2832   -1.4693   -2.9437 H   0  0  0  0  0  0  0  0  0  0  0  0
    0.6989   -0.9603   -3.5769 H   0  0  0  0  0  0  0  0  0  0  0  0
  5  6  2  0  0  0  0
  5  7  1  0  0  0  0
  2  3  1  0  0  0  0
  2  4  1  0  0  0  0
  2  5  1  0  0  0  0
  1  2  1  0  0  0  0
 22 23  2  0  0  0  0
 22 24  1  0  0  0  0
 18 19  1  0  0  0  0
 18 20  1  0  0  0  0
 18 21  1  0  0  0  0
 17 18  1  0  0  0  0
 14 15  1  0  0  0  0
 14 16  1  0  0  0  0
 14 17  1  0  0  0  0
 11 12  1  0  0  0  0
 11 13  1  0  0  0  0
 11 14  1  0  0  0  0
  9 10  1  0  0  0  0
  9 11  1  0  0  0  0
  9 22  1  0  0  0  0
  7  8  1  0  0  0  0
  7  9  1  0  0  0  0
 26 27  1  0  0  0  0
 26 28  1  0  0  0  0
 26 29  1  0  0  0  0
 24 25  1  0  0  0  0
 24 26  1  0  0  0  0
M  END
$$$$
default_name
  -OEChem-01062215323D

 29 28  0     1  0  0  0  0  0999 V2000
   -3.5781   -3.7296    1.2702 H   0  0  0  0  0  0  0  0  0  0  0  0
   -3.5311   -2.7616    0.7732 C   0  0  0  0  0  0  0  0  0  0  0  0
   -4.2371   -2.0766    1.2382 H   0  0  0  0  0  0  0  0  0  0  0  0
   -3.7681   -2.8816   -0.2818 H   0  0  0  0  0  0  0  0  0  0  0  0
   -2.1321   -2.2086    0.9112 C   0  0  0  0  0  0  0  0  0  0  0  0
   -1.2751   -2.8426    1.5112 O   0  0  0  0  0  0  0  0  0  0  0  0
   -1.9041   -1.0186    0.3602 N   0  0  0  0  0  0  0  0  0  0  0  0
   -2.6671   -0.5416   -0.0988 H   0  0  0  0  0  0  0  0  0  0  0  0
   -0.6131   -0.3236    0.3832 C   0  0  1  0  0  0  0  0  0  0  0  0
   -0.7480    0.6452    0.8667 H   0  0  0  0  0  0  0  0  0  0  0  0
    0.3863   -1.1446    1.2187 C   0  0  0  0  0  0  0  0  0  0  0  0
    0.4283   -2.1597    0.8180 H   0  0  0  0  0  0  0  0  0  0  0  0
    1.3793   -0.7016    1.1295 H   0  0  0  0  0  0  0  0  0  0  0  0
    0.0189   -1.2282    2.7047 C   0  0  0  0  0  0  0  0  0  0  0  0
   -0.9611   -1.6937    2.8049 H   0  0  0  0  0  0  0  0  0  0  0  0
    0.7563   -1.8502    3.2134 H   0  0  0  0  0  0  0  0  0  0  0  0
   -0.0373    0.3827    3.5302 S   0  0  0  0  0  0  0  0  0  0  0  0
    1.7252    0.8011    3.5131 C   0  0  0  0  0  0  0  0  0  0  0  0
    2.0820    0.8481    2.4837 H   0  0  0  0  0  0  0  0  0  0  0  0
    1.8710    1.7716    3.9881 H   0  0  0  0  0  0  0  0  0  0  0  0
    2.2881    0.0452    4.0614 H   0  0  0  0  0  0  0  0  0  0  0  0
   -0.1095   -0.0788   -1.0463 C   0  0  0  0  0  0  0  0  0  0  0  0
   -0.4176    0.9524   -1.6404 O   0  0  0  0  0  0  0  0  0  0  0  0
    0.6559   -1.0277   -1.6007 N   0  0  0  0  0  0  0  0  0  0  0  0
    0.8793   -1.8391   -1.0467 H   0  0  0  0  0  0  0  0  0  0  0  0
    1.1992   -0.9497   -2.9558 C   0  0  0  0  0  0  0  0  0  0  0  0
    1.8084   -0.0484   -3.0565 H   0  0  0  0  0  0  0  0  0  0  0  0
    1.8143   -1.8247   -3.1698 H   0  0  0  0  0  0  0  0  0  0  0  0
    0.3822   -0.8967   -3.6776 H   0  0  0  0  0  0  0  0  0  0  0  0
  5  6  2  0  0  0  0
  5  7  1  0  0  0  0
  2  3  1  0  0  0  0
  2  4  1  0  0  0  0
  2  5  1  0  0  0  0
  1  2  1  0  0  0  0
 22 23  2  0  0  0  0
 22 24  1  0  0  0  0
 18 19  1  0  0  0  0
 18 20  1  0  0  0  0
 18 21  1  0  0  0  0
 17 18  1  0  0  0  0
 14 15  1  0  0  0  0
 14 16  1  0  0  0  0
 14 17  1  0  0  0  0
 11 12  1  0  0  0  0
 11 13  1  0  0  0  0
 11 14  1  0  0  0  0
  9 10  1  0  0  0  0
  9 11  1  0  0  0  0
  9 22  1  0  0  0  0
  7  8  1  0  0  0  0
  7  9  1  0  0  0  0
 26 27  1  0  0  0  0
 26 28  1  0  0  0  0
 26 29  1  0  0  0  0
 24 25  1  0  0  0  0
 24 26  1  0  0  0  0
M  END
$$$$
default_name
  -OEChem-01062215323D

 29 28  0     1  0  0  0  0  0999 V2000
   -3.5781   -3.7296    1.2702 H   0  0  0  0  0  0  0  0  0  0  0  0
   -3.5311   -2.7616    0.7732 C   0  0  0  0  0  0  0  0  0  0  0  0
   -4.2371   -2.0766    1.2382 H   0  0  0  0  0  0  0  0  0  0  0  0
   -3.7681   -2.8816   -0.2818 H   0  0  0  0  0  0  0  0  0  0  0  0
   -2.1321   -2.2086    0.9112 C   0  0  0  0  0  0  0  0  0  0  0  0
   -1.2751   -2.8426    1.5112 O   0  0  0  0  0  0  0  0  0  0  0  0
   -1.9041   -1.0186    0.3602 N   0  0  0  0  0  0  0  0  0  0  0  0
   -2.6671   -0.5416   -0.0988 H   0  0  0  0  0  0  0  0  0  0  0  0
   -0.6131   -0.3236    0.3832 C   0  0  1  0  0  0  0  0  0  0  0  0
   -0.7480    0.6452    0.8667 H   0  0  0  0  0  0  0  0  0  0  0  0
    0.3863   -1.1446    1.2187 C   0  0  0  0  0  0  0  0  0  0  0  0
    0.4283   -2.1597    0.8180 H   0  0  0  0  0  0  0  0  0  0  0  0
    1.3793   -0.7016    1.1295 H   0  0  0  0  0  0  0  0  0  0  0  0
    0.0189   -1.2282    2.7047 C   0  0  0  0  0  0  0  0  0  0  0  0
   -0.9611   -1.6937    2.8049 H   0  0  0  0  0  0  0  0  0  0  0  0
    0.7563   -1.8502    3.2134 H   0  0  0  0  0  0  0  0  0  0  0  0
   -0.0373    0.3827    3.5302 S   0  0  0  0  0  0  0  0  0  0  0  0
    1.7252    0.8011    3.5131 C   0  0  0  0  0  0  0  0  0  0  0  0
    2.0820    0.8481    2.4837 H   0  0  0  0  0  0  0  0  0  0  0  0
    1.8710    1.7716    3.9881 H   0  0  0  0  0  0  0  0  0  0  0  0
    2.2881    0.0452    4.0614 H   0  0  0  0  0  0  0  0  0  0  0  0
   -0.1095   -0.0788   -1.0463 C   0  0  0  0  0  0  0  0  0  0  0  0
   -0.1762    1.0453   -1.5395 O   0  0  0  0  0  0  0  0  0  0  0  0
    0.3852   -1.1294   -1.7135 N   0  0  0  0  0  0  0  0  0  0  0  0
    0.4218   -2.0171   -1.2384 H   0  0  0  0  0  0  0  0  0  0  0  0
    0.8890   -1.0621   -3.0843 C   0  0  0  0  0  0  0  0  0  0  0  0
    1.6954   -0.3274   -3.1441 H   0  0  0  0  0  0  0  0  0  0  0  0
    1.2664   -2.0359   -3.3989 H   0  0  0  0  0  0  0  0  0  0  0  0
    0.0875   -0.7505   -3.7564 H   0  0  0  0  0  0  0  0  0  0  0  0
  5  6  2  0  0  0  0
  5  7  1  0  0  0  0
  2  3  1  0  0  0  0
  2  4  1  0  0  0  0
  2  5  1  0  0  0  0
  1  2  1  0  0  0  0
 22 23  2  0  0  0  0
 22 24  1  0  0  0  0
 18 19  1  0  0  0  0
 18 20  1  0  0  0  0
 18 21  1  0  0  0  0
 17 18  1  0  0  0  0
 14 15  1  0  0  0  0
 14 16  1  0  0  0  0
 14 17  1  0  0  0  0
 11 12  1  0  0  0  0
 11 13  1  0  0  0  0
 11 14  1  0  0  0  0
  9 10  1  0  0  0  0
  9 11  1  0  0  0  0
  9 22  1  0  0  0  0
  7  8  1  0  0  0  0
  7  9  1  0  0  0  0
 26 27  1  0  0  0  0
 26 28  1  0  0  0  0
 26 29  1  0  0  0  0
 24 25  1  0  0  0  0
 24 26  1  0  0  0  0
M  END
$$$$
default_name
  -OEChem-01062215323D

 29 28  0     1  0  0  0  0  0999 V2000
   -3.5781   -3.7296    1.2702 H   0  0  0  0  0  0  0  0  0  0  0  0
   -3.5311   -2.7616    0.7732 C   0  0  0  0  0  0  0  0  0  0  0  0
   -4.2371   -2.0766    1.2382 H   0  0  0  0  0  0  0  0  0  0  0  0
   -3.7681   -2.8816   -0.2818 H   0  0  0  0  0  0  0  0  0  0  0  0
   -2.1321   -2.2086    0.9112 C   0  0  0  0  0  0  0  0  0  0  0  0
   -1.2751   -2.8426    1.5112 O   0  0  0  0  0  0  0  0  0  0  0  0
   -1.9041   -1.0186    0.3602 N   0  0  0  0  0  0  0  0  0  0  0  0
   -2.6671   -0.5416   -0.0988 H   0  0  0  0  0  0  0  0  0  0  0  0
   -0.6131   -0.3236    0.3832 C   0  0  1  0  0  0  0  0  0  0  0  0
   -0.7480    0.6452    0.8667 H   0  0  0  0  0  0  0  0  0  0  0  0
    0.3863   -1.1446    1.2187 C   0  0  0  0  0  0  0  0  0  0  0  0
    0.4283   -2.1597    0.8180 H   0  0  0  0  0  0  0  0  0  0  0  0
    1.3793   -0.7016    1.1295 H   0  0  0  0  0  0  0  0  0  0  0  0
    0.0189   -1.2282    2.7047 C   0  0  0  0  0  0  0  0  0  0  0  0
   -0.9611   -1.6937    2.8049 H   0  0  0  0  0  0  0  0  0  0  0  0
    0.7563   -1.8502    3.2134 H   0  0  0  0  0  0  0  0  0  0  0  0
   -0.0373    0.3827    3.5302 S   0  0  0  0  0  0  0  0  0  0  0  0
    1.7252    0.8011    3.5131 C   0  0  0  0  0  0  0  0  0  0  0  0
    2.0820    0.8481    2.4837 H   0  0  0  0  0  0  0  0  0  0  0  0
    1.8710    1.7716    3.9881 H   0  0  0  0  0  0  0  0  0  0  0  0
    2.2881    0.0452    4.0614 H   0  0  0  0  0  0  0  0  0  0  0  0
   -0.1095   -0.0788   -1.0463 C   0  0  0  0  0  0  0  0  0  0  0  0
    0.0835    1.0683   -1.4441 O   0  0  0  0  0  0  0  0  0  0  0  0
    0.0945   -1.1528   -1.8199 N   0  0  0  0  0  0  0  0  0  0  0  0
   -0.0708   -2.0625   -1.4197 H   0  0  0  0  0  0  0  0  0  0  0  0
    0.5571   -1.0849   -3.2052 C   0  0  0  0  0  0  0  0  0  0  0  0
    1.5155   -0.5621   -3.2477 H   0  0  0  0  0  0  0  0  0  0  0  0
    0.6768   -2.0884   -3.6156 H   0  0  0  0  0  0  0  0  0  0  0  0
   -0.1652   -0.5315   -3.8079 H   0  0  0  0  0  0  0  0  0  0  0  0
  5  6  2  0  0  0  0
  5  7  1  0  0  0  0
  2  3  1  0  0  0  0
  2  4  1  0  0  0  0
  2  5  1  0  0  0  0
  1  2  1  0  0  0  0
 22 23  2  0  0  0  0
 22 24  1  0  0  0  0
 18 19  1  0  0  0  0
 18 20  1  0  0  0  0
 18 21  1  0  0  0  0
 17 18  1  0  0  0  0
 14 15  1  0  0  0  0
 14 16  1  0  0  0  0
 14 17  1  0  0  0  0
 11 12  1  0  0  0  0
 11 13  1  0  0  0  0
 11 14  1  0  0  0  0
  9 10  1  0  0  0  0
  9 11  1  0  0  0  0
  9 22  1  0  0  0  0
  7  8  1  0  0  0  0
  7  9  1  0  0  0  0
 26 27  1  0  0  0  0
 26 28  1  0  0  0  0
 26 29  1  0  0  0  0
 24 25  1  0  0  0  0
 24 26  1  0  0  0  0
M  END
$$$$
default_name
  -OEChem-01062215323D

 29 28  0     1  0  0  0  0  0999 V2000
   -3.5781   -3.7296    1.2702 H   0  0  0  0  0  0  0  0  0  0  0  0
   -3.5311   -2.7616    0.7732 C   0  0  0  0  0  0  0  0  0  0  0  0
   -4.2371   -2.0766    1.2382 H   0  0  0  0  0  0  0  0  0  0  0  0
   -3.7681   -2.8816   -0.2818 H   0  0  0  0  0  0  0  0  0  0  0  0
   -2.1321   -2.2086    0.9112 C   0  0  0  0  0  0  0  0  0  0  0  0
   -1.2751   -2.8426    1.5112 O   0  0  0  0  0  0  0  0  0  0  0  0
   -1.9041   -1.0186    0.3602 N   0  0  0  0  0  0  0  0  0  0  0  0
   -2.6671   -0.5416   -0.0988 H   0  0  0  0  0  0  0  0  0  0  0  0
   -0.6131   -0.3236    0.3832 C   0  0  1  0  0  0  0  0  0  0  0  0
   -0.7480    0.6452    0.8667 H   0  0  0  0  0  0  0  0  0  0  0  0
    0.3863   -1.1446    1.2187 C   0  0  0  0  0  0  0  0  0  0  0  0
    0.4283   -2.1597    0.8180 H   0  0  0  0  0  0  0  0  0  0  0  0
    1.3793   -0.7016    1.1295 H   0  0  0  0  0  0  0  0  0  0  0  0
    0.0189   -1.2282    2.7047 C   0  0  0  0  0  0  0  0  0  0  0  0
   -0.9611   -1.6937    2.8049 H   0  0  0  0  0  0  0  0  0  0  0  0
    0.7563   -1.8502    3.2134 H   0  0  0  0  0  0  0  0  0  0  0  0
   -0.0373    0.3827    3.5302 S   0  0  0  0  0  0  0  0  0  0  0  0
    1.7252    0.8011    3.5131 C   0  0  0  0  0  0  0  0  0  0  0  0
    2.0820    0.8481    2.4837 H   0  0  0  0  0  0  0  0  0  0  0  0
    1.8710    1.7716    3.9881 H   0  0  0  0  0  0  0  0  0  0  0  0
    2.2881    0.0452    4.0614 H   0  0  0  0  0  0  0  0  0  0  0  0
   -0.1095   -0.0788   -1.0463 C   0  0  0  0  0  0  0  0  0  0  0  0
    0.3438    1.0199   -1.3606 O   0  0  0  0  0  0  0  0  0  0  0  0
   -0.1963   -1.0963   -1.9127 N   0  0  0  0  0  0  0  0  0  0  0  0
   -0.5651   -1.9723   -1.5784 H   0  0  0  0  0  0  0  0  0  0  0  0
    0.2259   -1.0167   -3.3102 C   0  0  0  0  0  0  0  0  0  0  0  0
    1.2808   -0.7368   -3.3602 H   0  0  0  0  0  0  0  0  0  0  0  0
    0.0857   -1.9787   -3.8051 H   0  0  0  0  0  0  0  0  0  0  0  0
   -0.3587   -0.2547   -3.8287 H   0  0  0  0  0  0  0  0  0  0  0  0
  5  6  2  0  0  0  0
  5  7  1  0  0  0  0
  2  3  1  0  0  0  0
  2  4  1  0  0  0  0
  2  5  1  0  0  0  0
  1  2  1  0  0  0  0
 22 23  2  0  0  0  0
 22 24  1  0  0  0  0
 18 19  1  0  0  0  0
 18 20  1  0  0  0  0
 18 21  1  0  0  0  0
 17 18  1  0  0  0  0
 14 15  1  0  0  0  0
 14 16  1  0  0  0  0
 14 17  1  0  0  0  0
 11 12  1  0  0  0  0
 11 13  1  0  0  0  0
 11 14  1  0  0  0  0
  9 10  1  0  0  0  0
  9 11  1  0  0  0  0
  9 22  1  0  0  0  0
  7  8  1  0  0  0  0
  7  9  1  0  0  0  0
 26 27  1  0  0  0  0
 26 28  1  0  0  0  0
 26 29  1  0  0  0  0
 24 25  1  0  0  0  0
 24 26  1  0  0  0  0
M  END
$$$$
default_name
  -OEChem-01062215323D

 29 28  0     1  0  0  0  0  0999 V2000
   -3.5781   -3.7296    1.2702 H   0  0  0  0  0  0  0  0  0  0  0  0
   -3.5311   -2.7616    0.7732 C   0  0  0  0  0  0  0  0  0  0  0  0
   -4.2371   -2.0766    1.2382 H   0  0  0  0  0  0  0  0  0  0  0  0
   -3.7681   -2.8816   -0.2818 H   0  0  0  0  0  0  0  0  0  0  0  0
   -2.1321   -2.2086    0.9112 C   0  0  0  0  0  0  0  0  0  0  0  0
   -1.2751   -2.8426    1.5112 O   0  0  0  0  0  0  0  0  0  0  0  0
   -1.9041   -1.0186    0.3602 N   0  0  0  0  0  0  0  0  0  0  0  0
   -2.6671   -0.5416   -0.0988 H   0  0  0  0  0  0  0  0  0  0  0  0
   -0.6131   -0.3236    0.3832 C   0  0  1  0  0  0  0  0  0  0  0  0
   -0.7480    0.6452    0.8667 H   0  0  0  0  0  0  0  0  0  0  0  0
    0.3863   -1.1446    1.2187 C   0  0  0  0  0  0  0  0  0  0  0  0
    0.4283   -2.1597    0.8180 H   0  0  0  0  0  0  0  0  0  0  0  0
    1.3793   -0.7016    1.1295 H   0  0  0  0  0  0  0  0  0  0  0  0
    0.0189   -1.2282    2.7047 C   0  0  0  0  0  0  0  0  0  0  0  0
   -0.9611   -1.6937    2.8049 H   0  0  0  0  0  0  0  0  0  0  0  0
    0.7563   -1.8502    3.2134 H   0  0  0  0  0  0  0  0  0  0  0  0
   -0.0373    0.3827    3.5302 S   0  0  0  0  0  0  0  0  0  0  0  0
    1.7252    0.8011    3.5131 C   0  0  0  0  0  0  0  0  0  0  0  0
    2.0820    0.8481    2.4837 H   0  0  0  0  0  0  0  0  0  0  0  0
    1.8710    1.7716    3.9881 H   0  0  0  0  0  0  0  0  0  0  0  0
    2.2881    0.0452    4.0614 H   0  0  0  0  0  0  0  0  0  0  0  0
   -0.1095   -0.0788   -1.0463 C   0  0  0  0  0  0  0  0  0  0  0  0
    0.5871    0.9032   -1.2949 O   0  0  0  0  0  0  0  0  0  0  0  0
   -0.4674   -0.9638   -1.9855 N   0  0  0  0  0  0  0  0  0  0  0  0
   -1.0274   -1.7526   -1.7036 H   0  0  0  0  0  0  0  0  0  0  0  0
   -0.0819   -0.8622   -3.3922 C   0  0  0  0  0  0  0  0  0  0  0  0
    1.0074   -0.8393   -3.4741 H   0  0  0  0  0  0  0  0  0  0  0  0
   -0.4666   -1.7141   -3.9543 H   0  0  0  0  0  0  0  0  0  0  0  0
   -0.4797    0.0611   -3.8172 H   0  0  0  0  0  0  0  0  0  0  0  0
  5  6  2  0  0  0  0
  5  7  1  0  0  0  0
  2  3  1  0  0  0  0
  2  4  1  0  0  0  0
  2  5  1  0  0  0  0
  1  2  1  0  0  0  0
 22 23  2  0  0  0  0
 22 24  1  0  0  0  0
 18 19  1  0  0  0  0
 18 20  1  0  0  0  0
 18 21  1  0  0  0  0
 17 18  1  0  0  0  0
 14 15  1  0  0  0  0
 14 16  1  0  0  0  0
 14 17  1  0  0  0  0
 11 12  1  0  0  0  0
 11 13  1  0  0  0  0
 11 14  1  0  0  0  0
  9 10  1  0  0  0  0
  9 11  1  0  0  0  0
  9 22  1  0  0  0  0
  7  8  1  0  0  0  0
  7  9  1  0  0  0  0
 26 27  1  0  0  0  0
 26 28  1  0  0  0  0
 26 29  1  0  0  0  0
 24 25  1  0  0  0  0
 24 26  1  0  0  0  0
M  END
$$$$
default_name
  -OEChem-01062215323D

 29 28  0     1  0  0  0  0  0999 V2000
   -3.5781   -3.7296    1.2702 H   0  0  0  0  0  0  0  0  0  0  0  0
   -3.5311   -2.7616    0.7732 C   0  0  0  0  0  0  0  0  0  0  0  0
   -4.2371   -2.0766    1.2382 H   0  0  0  0  0  0  0  0  0  0  0  0
   -3.7681   -2.8816   -0.2818 H   0  0  0  0  0  0  0  0  0  0  0  0
   -2.1321   -2.2086    0.9112 C   0  0  0  0  0  0  0  0  0  0  0  0
   -1.2751   -2.8426    1.5112 O   0  0  0  0  0  0  0  0  0  0  0  0
   -1.9041   -1.0186    0.3602 N   0  0  0  0  0  0  0  0  0  0  0  0
   -2.6671   -0.5416   -0.0988 H   0  0  0  0  0  0  0  0  0  0  0  0
   -0.6131   -0.3236    0.3832 C   0  0  1  0  0  0  0  0  0  0  0  0
   -0.7480    0.6452    0.8667 H   0  0  0  0  0  0  0  0  0  0  0  0
    0.3863   -1.1446    1.2187 C   0  0  0  0  0  0  0  0  0  0  0  0
    0.4283   -2.1597    0.8180 H   0  0  0  0  0  0  0  0  0  0  0  0
    1.3793   -0.7016    1.1295 H   0  0  0  0  0  0  0  0  0  0  0  0
    0.0189   -1.2282    2.7047 C   0  0  0  0  0  0  0  0  0  0  0  0
   -0.9611   -1.6937    2.8049 H   0  0  0  0  0  0  0  0  0  0  0  0
    0.7563   -1.8502    3.2134 H   0  0  0  0  0  0  0  0  0  0  0  0
   -0.0373    0.3827    3.5302 S   0  0  0  0  0  0  0  0  0  0  0  0
    1.7252    0.8011    3.5131 C   0  0  0  0  0  0  0  0  0  0  0  0
    2.0820    0.8481    2.4837 H   0  0  0  0  0  0  0  0  0  0  0  0
    1.8710    1.7716    3.9881 H   0  0  0  0  0  0  0  0  0  0  0  0
    2.2881    0.0452    4.0614 H   0  0  0  0  0  0  0  0  0  0  0  0
   -0.1095   -0.0788   -1.0463 C   0  0  0  0  0  0  0  0  0  0  0  0
    0.7966    0.7264   -1.2514 O   0  0  0  0  0  0  0  0  0  0  0  0
   -0.7004   -0.7643   -2.0334 N   0  0  0  0  0  0  0  0  0  0  0  0
   -1.4261   -1.4183   -1.7868 H   0  0  0  0  0  0  0  0  0  0  0  0
   -0.3453   -0.6317   -3.4455 C   0  0  0  0  0  0  0  0  0  0  0  0
    0.7138   -0.8628   -3.5816 H   0  0  0  0  0  0  0  0  0  0  0  0
   -0.9425   -1.3128   -4.0533 H   0  0  0  0  0  0  0  0  0  0  0  0
   -0.5200    0.3942   -3.7744 H   0  0  0  0  0  0  0  0  0  0  0  0
  5  6  2  0  0  0  0
  5  7  1  0  0  0  0
  2  3  1  0  0  0  0
  2  4  1  0  0  0  0
  2  5  1  0  0  0  0
  1  2  1  0  0  0  0
 22 23  2  0  0  0  0
 22 24  1  0  0  0  0
 18 19  1  0  0  0  0
 18 20  1  0  0  0  0
 18 21  1  0  0  0  0
 17 18  1  0  0  0  0
 14 15  1  0  0  0  0
 14 16  1  0  0  0  0
 14 17  1  0  0  0  0
 11 12  1  0  0  0  0
 11 13  1  0  0  0  0
 11 14  1  0  0  0  0
  9 10  1  0  0  0  0
  9 11  1  0  0  0  0
  9 22  1  0  0  0  0
  7  8  1  0  0  0  0
  7  9  1  0  0  0  0
 26 27  1  0  0  0  0
 26 28  1  0  0  0  0
 26 29  1  0  0  0  0
 24 25  1  0  0  0  0
 24 26  1  0  0  0  0
M  END
$$$$
default_name
  -OEChem-01062215323D

 29 28  0     1  0  0  0  0  0999 V2000
   -3.5781   -3.7296    1.2702 H   0  0  0  0  0  0  0  0  0  0  0  0
   -3.5311   -2.7616    0.7732 C   0  0  0  0  0  0  0  0  0  0  0  0
   -4.2371   -2.0766    1.2382 H   0  0  0  0  0  0  0  0  0  0  0  0
   -3.7681   -2.8816   -0.2818 H   0  0  0  0  0  0  0  0  0  0  0  0
   -2.1321   -2.2086    0.9112 C   0  0  0  0  0  0  0  0  0  0  0  0
   -1.2751   -2.8426    1.5112 O   0  0  0  0  0  0  0  0  0  0  0  0
   -1.9041   -1.0186    0.3602 N   0  0  0  0  0  0  0  0  0  0  0  0
   -2.6671   -0.5416   -0.0988 H   0  0  0  0  0  0  0  0  0  0  0  0
   -0.6131   -0.3236    0.3832 C   0  0  1  0  0  0  0  0  0  0  0  0
   -0.7480    0.6452    0.8667 H   0  0  0  0  0  0  0  0  0  0  0  0
    0.3863   -1.1446    1.2187 C   0  0  0  0  0  0  0  0  0  0  0  0
    0.4283   -2.1597    0.8180 H   0  0  0  0  0  0  0  0  0  0  0  0
    1.3793   -0.7016    1.1295 H   0  0  0  0  0  0  0  0  0  0  0  0
    0.0189   -1.2282    2.7047 C   0  0  0  0  0  0  0  0  0  0  0  0
   -0.9611   -1.6937    2.8049 H   0  0  0  0  0  0  0  0  0  0  0  0
    0.7563   -1.8502    3.2134 H   0  0  0  0  0  0  0  0  0  0  0  0
   -0.0373    0.3827    3.5302 S   0  0  0  0  0  0  0  0  0  0  0  0
    1.7252    0.8011    3.5131 C   0  0  0  0  0  0  0  0  0  0  0  0
    2.0820    0.8481    2.4837 H   0  0  0  0  0  0  0  0  0  0  0  0
    1.8710    1.7716    3.9881 H   0  0  0  0  0  0  0  0  0  0  0  0
    2.2881    0.0452    4.0614 H   0  0  0  0  0  0  0  0  0  0  0  0
   -0.1095   -0.0788   -1.0463 C   0  0  0  0  0  0  0  0  0  0  0  0
    0.9582    0.5013   -1.2330 O   0  0  0  0  0  0  0  0  0  0  0  0
   -0.8793   -0.5114   -2.0531 N   0  0  0  0  0  0  0  0  0  0  0  0
   -1.7341   -0.9922   -1.8224 H   0  0  0  0  0  0  0  0  0  0  0  0
   -0.5464   -0.3411   -3.4666 C   0  0  0  0  0  0  0  0  0  0  0  0
    0.4202   -0.8056   -3.6752 H   0  0  0  0  0  0  0  0  0  0  0  0
   -1.3095   -0.8020   -4.0951 H   0  0  0  0  0  0  0  0  0  0  0  0
   -0.4769    0.7221   -3.7030 H   0  0  0  0  0  0  0  0  0  0  0  0
  5  6  2  0  0  0  0
  5  7  1  0  0  0  0
  2  3  1  0  0  0  0
  2  4  1  0  0  0  0
  2  5  1  0  0  0  0
  1  2  1  0  0  0  0
 22 23  2  0  0  0  0
 22 24  1  0  0  0  0
 18 19  1  0  0  0  0
 18 20  1  0  0  0  0
 18 21  1  0  0  0  0
 17 18  1  0  0  0  0
 14 15  1  0  0  0  0
 14 16  1  0  0  0  0
 14 17  1  0  0  0  0
 11 12  1  0  0  0  0
 11 13  1  0  0  0  0
 11 14  1  0  0  0  0
  9 10  1  0  0  0  0
  9 11  1  0  0  0  0
  9 22  1  0  0  0  0
  7  8  1  0  0  0  0
  7  9  1  0  0  0  0
 26 27  1  0  0  0  0
 26 28  1  0  0  0  0
 26 29  1  0  0  0  0
 24 25  1  0  0  0  0
 24 26  1  0  0  0  0
M  END
$$$$
default_name
  -OEChem-01062215323D

 29 28  0     1  0  0  0  0  0999 V2000
   -3.5781   -3.7296    1.2702 H   0  0  0  0  0  0  0  0  0  0  0  0
   -3.5311   -2.7616    0.7732 C   0  0  0  0  0  0  0  0  0  0  0  0
   -4.2371   -2.0766    1.2382 H   0  0  0  0  0  0  0  0  0  0  0  0
   -3.7681   -2.8816   -0.2818 H   0  0  0  0  0  0  0  0  0  0  0  0
   -2.1321   -2.2086    0.9112 C   0  0  0  0  0  0  0  0  0  0  0  0
   -1.2751   -2.8426    1.5112 O   0  0  0  0  0  0  0  0  0  0  0  0
   -1.9041   -1.0186    0.3602 N   0  0  0  0  0  0  0  0  0  0  0  0
   -2.6671   -0.5416   -0.0988 H   0  0  0  0  0  0  0  0  0  0  0  0
   -0.6131   -0.3236    0.3832 C   0  0  1  0  0  0  0  0  0  0  0  0
   -0.7480    0.6452    0.8667 H   0  0  0  0  0  0  0  0  0  0  0  0
    0.3863   -1.1446    1.2187 C   0  0  0  0  0  0  0  0  0  0  0  0
    0.4283   -2.1597    0.8180 H   0  0  0  0  0  0  0  0  0  0  0  0
    1.3793   -0.7016    1.1295 H   0  0  0  0  0  0  0  0  0  0  0  0
    0.0189   -1.2282    2.7047 C   0  0  0  0  0  0  0  0  0  0  0  0
   -0.9611   -1.6937    2.8049 H   0  0  0  0  0  0  0  0  0  0  0  0
    0.7563   -1.8502    3.2134 H   0  0  0  0  0  0  0  0  0  0  0  0
   -0.0373    0.3827    3.5302 S   0  0  0  0  0  0  0  0  0  0  0  0
    1.7252    0.8011    3.5131 C   0  0  0  0  0  0  0  0  0  0  0  0
    2.0820    0.8481    2.4837 H   0  0  0  0  0  0  0  0  0  0  0  0
    1.8710    1.7716    3.9881 H   0  0  0  0  0  0  0  0  0  0  0  0
    2.2881    0.0452    4.0614 H   0  0  0  0  0  0  0  0  0  0  0  0
   -0.1095   -0.0788   -1.0463 C   0  0  0  0  0  0  0  0  0  0  0  0
    1.0608    0.2435   -1.2410 O   0  0  0  0  0  0  0  0  0  0  0  0
   -0.9920   -0.2223   -2.0433 N   0  0  0  0  0  0  0  0  0  0  0  0
   -1.9304   -0.5035   -1.8078 H   0  0  0  0  0  0  0  0  0  0  0  0
   -0.6715   -0.0102   -3.4540 C   0  0  0  0  0  0  0  0  0  0  0  0
    0.1465   -0.6717   -3.7487 H   0  0  0  0  0  0  0  0  0  0  0  0
   -1.5427   -0.2167   -4.0770 H   0  0  0  0  0  0  0  0  0  0  0  0
   -0.3532    1.0224   -3.6081 H   0  0  0  0  0  0  0  0  0  0  0  0
  5  6  2  0  0  0  0
  5  7  1  0  0  0  0
  2  3  1  0  0  0  0
  2  4  1  0  0  0  0
  2  5  1  0  0  0  0
  1  2  1  0  0  0  0
 22 23  2  0  0  0  0
 22 24  1  0  0  0  0
 18 19  1  0  0  0  0
 18 20  1  0  0  0  0
 18 21  1  0  0  0  0
 17 18  1  0  0  0  0
 14 15  1  0  0  0  0
 14 16  1  0  0  0  0
 14 17  1  0  0  0  0
 11 12  1  0  0  0  0
 11 13  1  0  0  0  0
 11 14  1  0  0  0  0
  9 10  1  0  0  0  0
  9 11  1  0  0  0  0
  9 22  1  0  0  0  0
  7  8  1  0  0  0  0
  7  9  1  0  0  0  0
 26 27  1  0  0  0  0
 26 28  1  0  0  0  0
 26 29  1  0  0  0  0
 24 25  1  0  0  0  0
 24 26  1  0  0  0  0
M  END
$$$$
default_name
  -OEChem-01062215323D

 29 28  0     1  0  0  0  0  0999 V2000
   -3.5781   -3.7296    1.2702 H   0  0  0  0  0  0  0  0  0  0  0  0
   -3.5311   -2.7616    0.7732 C   0  0  0  0  0  0  0  0  0  0  0  0
   -4.2371   -2.0766    1.2382 H   0  0  0  0  0  0  0  0  0  0  0  0
   -3.7681   -2.8816   -0.2818 H   0  0  0  0  0  0  0  0  0  0  0  0
   -2.1321   -2.2086    0.9112 C   0  0  0  0  0  0  0  0  0  0  0  0
   -1.2751   -2.8426    1.5112 O   0  0  0  0  0  0  0  0  0  0  0  0
   -1.9041   -1.0186    0.3602 N   0  0  0  0  0  0  0  0  0  0  0  0
   -2.6671   -0.5416   -0.0988 H   0  0  0  0  0  0  0  0  0  0  0  0
   -0.6131   -0.3236    0.3832 C   0  0  1  0  0  0  0  0  0  0  0  0
   -0.7480    0.6452    0.8667 H   0  0  0  0  0  0  0  0  0  0  0  0
    0.3863   -1.1446    1.2187 C   0  0  0  0  0  0  0  0  0  0  0  0
    0.4283   -2.1597    0.8180 H   0  0  0  0  0  0  0  0  0  0  0  0
    1.3793   -0.7016    1.1295 H   0  0  0  0  0  0  0  0  0  0  0  0
    0.0189   -1.2282    2.7047 C   0  0  0  0  0  0  0  0  0  0  0  0
   -0.9611   -1.6937    2.8049 H   0  0  0  0  0  0  0  0  0  0  0  0
    0.7563   -1.8502    3.2134 H   0  0  0  0  0  0  0  0  0  0  0  0
   -0.0373    0.3827    3.5302 S   0  0  0  0  0  0  0  0  0  0  0  0
    1.7252    0.8011    3.5131 C   0  0  0  0  0  0  0  0  0  0  0  0
    2.0820    0.8481    2.4837 H   0  0  0  0  0  0  0  0  0  0  0  0
    1.8710    1.7716    3.9881 H   0  0  0  0  0  0  0  0  0  0  0  0
    2.2881    0.0452    4.0614 H   0  0  0  0  0  0  0  0  0  0  0  0
   -0.1095   -0.0788   -1.0463 C   0  0  0  0  0  0  0  0  0  0  0  0
    1.0974   -0.0297   -1.2749 O   0  0  0  0  0  0  0  0  0  0  0  0
   -1.0308    0.0833   -2.0046 N   0  0  0  0  0  0  0  0  0  0  0  0
   -2.0017    0.0147   -1.7442 H   0  0  0  0  0  0  0  0  0  0  0  0
   -0.7121    0.3386   -3.4085 C   0  0  0  0  0  0  0  0  0  0  0  0
   -0.0886   -0.4702   -3.7970 H   0  0  0  0  0  0  0  0  0  0  0  0
   -1.6261    0.4034   -4.0002 H   0  0  0  0  0  0  0  0  0  0  0  0
   -0.1575    1.2746   -3.4959 H   0  0  0  0  0  0  0  0  0  0  0  0
  5  6  2  0  0  0  0
  5  7  1  0  0  0  0
  2  3  1  0  0  0  0
  2  4  1  0  0  0  0
  2  5  1  0  0  0  0
  1  2  1  0  0  0  0
 22 23  2  0  0  0  0
 22 24  1  0  0  0  0
 18 19  1  0  0  0  0
 18 20  1  0  0  0  0
 18 21  1  0  0  0  0
 17 18  1  0  0  0  0
 14 15  1  0  0  0  0
 14 16  1  0  0  0  0
 14 17  1  0  0  0  0
 11 12  1  0  0  0  0
 11 13  1  0  0  0  0
 11 14  1  0  0  0  0
  9 10  1  0  0  0  0
  9 11  1  0  0  0  0
  9 22  1  0  0  0  0
  7  8  1  0  0  0  0
  7  9  1  0  0  0  0
 26 27  1  0  0  0  0
 26 28  1  0  0  0  0
 26 29  1  0  0  0  0
 24 25  1  0  0  0  0
 24 26  1  0  0  0  0
M  END
$$$$
default_name
  -OEChem-01062215323D

 29 28  0     1  0  0  0  0  0999 V2000
   -3.5781   -3.7296    1.2702 H   0  0  0  0  0  0  0  0  0  0  0  0
   -3.5311   -2.7616    0.7732 C   0  0  0  0  0  0  0  0  0  0  0  0
   -4.2371   -2.0766    1.2382 H   0  0  0  0  0  0  0  0  0  0  0  0
   -3.7681   -2.8816   -0.2818 H   0  0  0  0  0  0  0  0  0  0  0  0
   -2.1321   -2.2086    0.9112 C   0  0  0  0  0  0  0  0  0  0  0  0
   -1.2751   -2.8426    1.5112 O   0  0  0  0  0  0  0  0  0  0  0  0
   -1.9041   -1.0186    0.3602 N   0  0  0  0  0  0  0  0  0  0  0  0
   -2.6671   -0.5416   -0.0988 H   0  0  0  0  0  0  0  0  0  0  0  0
   -0.6131   -0.3236    0.3832 C   0  0  1  0  0  0  0  0  0  0  0  0
   -0.7480    0.6452    0.8667 H   0  0  0  0  0  0  0  0  0  0  0  0
    0.3863   -1.1446    1.2187 C   0  0  0  0  0  0  0  0  0  0  0  0
    0.4283   -2.1597    0.8180 H   0  0  0  0  0  0  0  0  0  0  0  0
    1.3793   -0.7016    1.1295 H   0  0  0  0  0  0  0  0  0  0  0  0
    0.0189   -1.2282    2.7047 C   0  0  0  0  0  0  0  0  0  0  0  0
   -0.9611   -1.6937    2.8049 H   0  0  0  0  0  0  0  0  0  0  0  0
    0.7563   -1.8502    3.2134 H   0  0  0  0  0  0  0  0  0  0  0  0
   -0.0373    0.3827    3.5302 S   0  0  0  0  0  0  0  0  0  0  0  0
    1.7252    0.8011    3.5131 C   0  0  0  0  0  0  0  0  0  0  0  0
    2.0820    0.8481    2.4837 H   0  0  0  0  0  0  0  0  0  0  0  0
    1.8710    1.7716    3.9881 H   0  0  0  0  0  0  0  0  0  0  0  0
    2.2881    0.0452    4.0614 H   0  0  0  0  0  0  0  0  0  0  0  0
   -0.1095   -0.0788   -1.0463 C   0  0  0  0  0  0  0  0  0  0  0  0
    1.0656   -0.2994   -1.3323 O   0  0  0  0  0  0  0  0  0  0  0  0
   -0.9930    0.3845   -1.9397 N   0  0  0  0  0  0  0  0  0  0  0  0
   -1.9430    0.5270   -1.6358 H   0  0  0  0  0  0  0  0  0  0  0  0
   -0.6653    0.6814   -3.3334 C   0  0  0  0  0  0  0  0  0  0  0  0
   -0.2692   -0.2147   -3.8169 H   0  0  0  0  0  0  0  0  0  0  0  0
   -1.5541    1.0159   -3.8700 H   0  0  0  0  0  0  0  0  0  0  0  0
    0.0969    1.4615   -3.3743 H   0  0  0  0  0  0  0  0  0  0  0  0
  5  6  2  0  0  0  0
  5  7  1  0  0  0  0
  2  3  1  0  0  0  0
  2  4  1  0  0  0  0
  2  5  1  0  0  0  0
  1  2  1  0  0  0  0
 22 23  2  0  0  0  0
 22 24  1  0  0  0  0
 18 19  1  0  0  0  0
 18 20  1  0  0  0  0
 18 21  1  0  0  0  0
 17 18  1  0  0  0  0
 14 15  1  0  0  0  0
 14 16  1  0  0  0  0
 14 17  1  0  0  0  0
 11 12  1  0  0  0  0
 11 13  1  0  0  0  0
 11 14  1  0  0  0  0
  9 10  1  0  0  0  0
  9 11  1  0  0  0  0
  9 22  1  0  0  0  0
  7  8  1  0  0  0  0
  7  9  1  0  0  0  0
 26 27  1  0  0  0  0
 26 28  1  0  0  0  0
 26 29  1  0  0  0  0
 24 25  1  0  0  0  0
 24 26  1  0  0  0  0
M  END
$$$$
default_name
  -OEChem-01062215323D

 29 28  0     1  0  0  0  0  0999 V2000
   -3.5781   -3.7296    1.2702 H   0  0  0  0  0  0  0  0  0  0  0  0
   -3.5311   -2.7616    0.7732 C   0  0  0  0  0  0  0  0  0  0  0  0
   -4.2371   -2.0766    1.2382 H   0  0  0  0  0  0  0  0  0  0  0  0
   -3.7681   -2.8816   -0.2818 H   0  0  0  0  0  0  0  0  0  0  0  0
   -2.1321   -2.2086    0.9112 C   0  0  0  0  0  0  0  0  0  0  0  0
   -1.2751   -2.8426    1.5112 O   0  0  0  0  0  0  0  0  0  0  0  0
   -1.9041   -1.0186    0.3602 N   0  0  0  0  0  0  0  0  0  0  0  0
   -2.6671   -0.5416   -0.0988 H   0  0  0  0  0  0  0  0  0  0  0  0
   -0.6131   -0.3236    0.3832 C   0  0  1  0  0  0  0  0  0  0  0  0
   -0.7480    0.6452    0.8667 H   0  0  0  0  0  0  0  0  0  0  0  0
    0.3863   -1.1446    1.2187 C   0  0  0  0  0  0  0  0  0  0  0  0
    0.4283   -2.1597    0.8180 H   0  0  0  0  0  0  0  0  0  0  0  0
    1.3793   -0.7016    1.1295 H   0  0  0  0  0  0  0  0  0  0  0  0
    0.0189   -1.2282    2.7047 C   0  0  0  0  0  0  0  0  0  0  0  0
   -0.9611   -1.6937    2.8049 H   0  0  0  0  0  0  0  0  0  0  0  0
    0.7563   -1.8502    3.2134 H   0  0  0  0  0  0  0  0  0  0  0  0
   -0.0373    0.3827    3.5302 S   0  0  0  0  0  0  0  0  0  0  0  0
    1.7252    0.8011    3.5131 C   0  0  0  0  0  0  0  0  0  0  0  0
    2.0820    0.8481    2.4837 H   0  0  0  0  0  0  0  0  0  0  0  0
    1.8710    1.7716    3.9881 H   0  0  0  0  0  0  0  0  0  0  0  0
    2.2881    0.0452    4.0614 H   0  0  0  0  0  0  0  0  0  0  0  0
   -0.1095   -0.0788   -1.0463 C   0  0  0  0  0  0  0  0  0  0  0  0
    0.9675   -0.5475   -1.4093 O   0  0  0  0  0  0  0  0  0  0  0  0
   -0.8813    0.6608   -1.8530 N   0  0  0  0  0  0  0  0  0  0  0  0
   -1.7583    0.9985   -1.4900 H   0  0  0  0  0  0  0  0  0  0  0  0
   -0.5345    0.9948   -3.2336 C   0  0  0  0  0  0  0  0  0  0  0  0
   -0.3828    0.0772   -3.8069 H   0  0  0  0  0  0  0  0  0  0  0  0
   -1.3316    1.5791   -3.6951 H   0  0  0  0  0  0  0  0  0  0  0  0
    0.3927    1.5704   -3.2514 H   0  0  0  0  0  0  0  0  0  0  0  0
  5  6  2  0  0  0  0
  5  7  1  0  0  0  0
  2  3  1  0  0  0  0
  2  4  1  0  0  0  0
  2  5  1  0  0  0  0
  1  2  1  0  0  0  0
 22 23  2  0  0  0  0
 22 24  1  0  0  0  0
 18 19  1  0  0  0  0
 18 20  1  0  0  0  0
 18 21  1  0  0  0  0
 17 18  1  0  0  0  0
 14 15  1  0  0  0  0
 14 16  1  0  0  0  0
 14 17  1  0  0  0  0
 11 12  1  0  0  0  0
 11 13  1  0  0  0  0
 11 14  1  0  0  0  0
  9 10  1  0  0  0  0
  9 11  1  0  0  0  0
  9 22  1  0  0  0  0
  7  8  1  0  0  0  0
  7  9  1  0  0  0  0
 26 27  1  0  0  0  0
 26 28  1  0  0  0  0
 26 29  1  0  0  0  0
 24 25  1  0  0  0  0
 24 26  1  0  0  0  0
M  END
$$$$
default_name
  -OEChem-01062215323D

 29 28  0     1  0  0  0  0  0999 V2000
   -3.5781   -3.7296    1.2702 H   0  0  0  0  0  0  0  0  0  0  0  0
   -3.5311   -2.7616    0.7732 C   0  0  0  0  0  0  0  0  0  0  0  0
   -4.2371   -2.0766    1.2382 H   0  0  0  0  0  0  0  0  0  0  0  0
   -3.7681   -2.8816   -0.2818 H   0  0  0  0  0  0  0  0  0  0  0  0
   -2.1321   -2.2086    0.9112 C   0  0  0  0  0  0  0  0  0  0  0  0
   -1.2751   -2.8426    1.5112 O   0  0  0  0  0  0  0  0  0  0  0  0
   -1.9041   -1.0186    0.3602 N   0  0  0  0  0  0  0  0  0  0  0  0
   -2.6671   -0.5416   -0.0988 H   0  0  0  0  0  0  0  0  0  0  0  0
   -0.6131   -0.3236    0.3832 C   0  0  1  0  0  0  0  0  0  0  0  0
   -0.7480    0.6452    0.8667 H   0  0  0  0  0  0  0  0  0  0  0  0
    0.3863   -1.1446    1.2187 C   0  0  0  0  0  0  0  0  0  0  0  0
    0.4283   -2.1597    0.8180 H   0  0  0  0  0  0  0  0  0  0  0  0
    1.3793   -0.7016    1.1295 H   0  0  0  0  0  0  0  0  0  0  0  0
    0.0189   -1.2282    2.7047 C   0  0  0  0  0  0  0  0  0  0  0  0
   -0.9611   -1.6937    2.8049 H   0  0  0  0  0  0  0  0  0  0  0  0
    0.7563   -1.8502    3.2134 H   0  0  0  0  0  0  0  0  0  0  0  0
   -0.0373    0.3827    3.5302 S   0  0  0  0  0  0  0  0  0  0  0  0
    1.7252    0.8011    3.5131 C   0  0  0  0  0  0  0  0  0  0  0  0
    2.0820    0.8481    2.4837 H   0  0  0  0  0  0  0  0  0  0  0  0
    1.8710    1.7716    3.9881 H   0  0  0  0  0  0  0  0  0  0  0  0
    2.2881    0.0452    4.0614 H   0  0  0  0  0  0  0  0  0  0  0  0
   -0.1095   -0.0788   -1.0463 C   0  0  0  0  0  0  0  0  0  0  0  0
    0.8098   -0.7569   -1.5008 O   0  0  0  0  0  0  0  0  0  0  0  0
   -0.7031    0.8935   -1.7505 N   0  0  0  0  0  0  0  0  0  0  0  0
   -1.4603    1.3971   -1.3167 H   0  0  0  0  0  0  0  0  0  0  0  0
   -0.3284    1.2576   -3.1160 C   0  0  0  0  0  0  0  0  0  0  0  0
   -0.4218    0.3858   -3.7678 H   0  0  0  0  0  0  0  0  0  0  0  0
   -0.9737    2.0547   -3.4876 H   0  0  0  0  0  0  0  0  0  0  0  0
    0.7098    1.5939   -3.1357 H   0  0  0  0  0  0  0  0  0  0  0  0
  5  6  2  0  0  0  0
  5  7  1  0  0  0  0
  2  3  1  0  0  0  0
  2  4  1  0  0  0  0
  2  5  1  0  0  0  0
  1  2  1  0  0  0  0
 22 23  2  0  0  0  0
 22 24  1  0  0  0  0
 18 19  1  0  0  0  0
 18 20  1  0  0  0  0
 18 21  1  0  0  0  0
 17 18  1  0  0  0  0
 14 15  1  0  0  0  0
 14 16  1  0  0  0  0
 14 17  1  0  0  0  0
 11 12  1  0  0  0  0
 11 13  1  0  0  0  0
 11 14  1  0  0  0  0
  9 10  1  0  0  0  0
  9 11  1  0  0  0  0
  9 22  1  0  0  0  0
  7  8  1  0  0  0  0
  7  9  1  0  0  0  0
 26 27  1  0  0  0  0
 26 28  1  0  0  0  0
 26 29  1  0  0  0  0
 24 25  1  0  0  0  0
 24 26  1  0  0  0  0
M  END
$$$$
default_name
  -OEChem-01062215323D

 29 28  0     1  0  0  0  0  0999 V2000
   -3.5781   -3.7296    1.2702 H   0  0  0  0  0  0  0  0  0  0  0  0
   -3.5311   -2.7616    0.7732 C   0  0  0  0  0  0  0  0  0  0  0  0
   -4.2371   -2.0766    1.2382 H   0  0  0  0  0  0  0  0  0  0  0  0
   -3.7681   -2.8816   -0.2818 H   0  0  0  0  0  0  0  0  0  0  0  0
   -2.1321   -2.2086    0.9112 C   0  0  0  0  0  0  0  0  0  0  0  0
   -1.2751   -2.8426    1.5112 O   0  0  0  0  0  0  0  0  0  0  0  0
   -1.9041   -1.0186    0.3602 N   0  0  0  0  0  0  0  0  0  0  0  0
   -2.6671   -0.5416   -0.0988 H   0  0  0  0  0  0  0  0  0  0  0  0
   -0.6131   -0.3236    0.3832 C   0  0  1  0  0  0  0  0  0  0  0  0
   -0.7480    0.6452    0.8667 H   0  0  0  0  0  0  0  0  0  0  0  0
    0.3863   -1.1446    1.2187 C   0  0  0  0  0  0  0  0  0  0  0  0
    0.4283   -2.1597    0.8180 H   0  0  0  0  0  0  0  0  0  0  0  0
    1.3793   -0.7016    1.1295 H   0  0  0  0  0  0  0  0  0  0  0  0
    0.0189   -1.2282    2.7047 C   0  0  0  0  0  0  0  0  0  0  0  0
   -0.9611   -1.6937    2.8049 H   0  0  0  0  0  0  0  0  0  0  0  0
    0.7563   -1.8502    3.2134 H   0  0  0  0  0  0  0  0  0  0  0  0
   -0.0373    0.3827    3.5302 S   0  0  0  0  0  0  0  0  0  0  0  0
    1.7252    0.8011    3.5131 C   0  0  0  0  0  0  0  0  0  0  0  0
    2.0820    0.8481    2.4837 H   0  0  0  0  0  0  0  0  0  0  0  0
    1.8710    1.7716    3.9881 H   0  0  0  0  0  0  0  0  0  0  0  0
    2.2881    0.0452    4.0614 H   0  0  0  0  0  0  0  0  0  0  0  0
   -0.1095   -0.0788   -1.0463 C   0  0  0  0  0  0  0  0  0  0  0  0
    0.6032   -0.9134   -1.6003 O   0  0  0  0  0  0  0  0  0  0  0  0
   -0.4708    1.0665   -1.6390 N   0  0  0  0  0  0  0  0  0  0  0  0
   -1.0693    1.6956   -1.1279 H   0  0  0  0  0  0  0  0  0  0  0  0
   -0.0612    1.4518   -2.9886 C   0  0  0  0  0  0  0  0  0  0  0  0
   -0.3835    0.6899   -3.7023 H   0  0  0  0  0  0  0  0  0  0  0  0
   -0.5048    2.4102   -3.2615 H   0  0  0  0  0  0  0  0  0  0  0  0
    1.0265    1.5304   -3.0350 H   0  0  0  0  0  0  0  0  0  0  0  0
  5  6  2  0  0  0  0
  5  7  1  0  0  0  0
  2  3  1  0  0  0  0
  2  4  1  0  0  0  0
  2  5  1  0  0  0  0
  1  2  1  0  0  0  0
 22 23  2  0  0  0  0
 22 24  1  0  0  0  0
 18 19  1  0  0  0  0
 18 20  1  0  0  0  0
 18 21  1  0  0  0  0
 17 18  1  0  0  0  0
 14 15  1  0  0  0  0
 14 16  1  0  0  0  0
 14 17  1  0  0  0  0
 11 12  1  0  0  0  0
 11 13  1  0  0  0  0
 11 14  1  0  0  0  0
  9 10  1  0  0  0  0
  9 11  1  0  0  0  0
  9 22  1  0  0  0  0
  7  8  1  0  0  0  0
  7  9  1  0  0  0  0
 26 27  1  0  0  0  0
 26 28  1  0  0  0  0
 26 29  1  0  0  0  0
 24 25  1  0  0  0  0
 24 26  1  0  0  0  0
M  END
$$$$
default_name
  -OEChem-01062215323D

 29 28  0     1  0  0  0  0  0999 V2000
   -3.5781   -3.7296    1.2702 H   0  0  0  0  0  0  0  0  0  0  0  0
   -3.5311   -2.7616    0.7732 C   0  0  0  0  0  0  0  0  0  0  0  0
   -4.2371   -2.0766    1.2382 H   0  0  0  0  0  0  0  0  0  0  0  0
   -3.7681   -2.8816   -0.2818 H   0  0  0  0  0  0  0  0  0  0  0  0
   -2.1321   -2.2086    0.9112 C   0  0  0  0  0  0  0  0  0  0  0  0
   -1.2751   -2.8426    1.5112 O   0  0  0  0  0  0  0  0  0  0  0  0
   -1.9041   -1.0186    0.3602 N   0  0  0  0  0  0  0  0  0  0  0  0
   -2.6671   -0.5416   -0.0988 H   0  0  0  0  0  0  0  0  0  0  0  0
   -0.6131   -0.3236    0.3832 C   0  0  1  0  0  0  0  0  0  0  0  0
   -0.7480    0.6452    0.8667 H   0  0  0  0  0  0  0  0  0  0  0  0
    0.3863   -1.1446    1.2187 C   0  0  0  0  0  0  0  0  0  0  0  0
    0.4283   -2.1597    0.8180 H   0  0  0  0  0  0  0  0  0  0  0  0
    1.3793   -0.7016    1.1295 H   0  0  0  0  0  0  0  0  0  0  0  0
    0.0189   -1.2282    2.7047 C   0  0  0  0  0  0  0  0  0  0  0  0
   -0.9611   -1.6937    2.8049 H   0  0  0  0  0  0  0  0  0  0  0  0
    0.7563   -1.8502    3.2134 H   0  0  0  0  0  0  0  0  0  0  0  0
   -0.0373    0.3827    3.5302 S   0  0  0  0  0  0  0  0  0  0  0  0
    1.7252    0.8011    3.5131 C   0  0  0  0  0  0  0  0  0  0  0  0
    2.0820    0.8481    2.4837 H   0  0  0  0  0  0  0  0  0  0  0  0
    1.8710    1.7716    3.9881 H   0  0  0  0  0  0  0  0  0  0  0  0
    2.2881    0.0452    4.0614 H   0  0  0  0  0  0  0  0  0  0  0  0
   -0.1095   -0.0788   -1.0463 C   0  0  0  0  0  0  0  0  0  0  0  0
    0.3618   -1.0063   -1.7013 O   0  0  0  0  0  0  0  0  0  0  0  0
   -0.2000    1.1682   -1.5262 N   0  0  0  0  0  0  0  0  0  0  0  0
   -0.6119    1.8736   -0.9362 H   0  0  0  0  0  0  0  0  0  0  0  0
    0.2490    1.5641   -2.8601 C   0  0  0  0  0  0  0  0  0  0  0  0
   -0.2705    0.9689   -3.6147 H   0  0  0  0  0  0  0  0  0  0  0  0
    0.0431    2.6214   -3.0323 H   0  0  0  0  0  0  0  0  0  0  0  0
    1.3212    1.3841   -2.9562 H   0  0  0  0  0  0  0  0  0  0  0  0
  5  6  2  0  0  0  0
  5  7  1  0  0  0  0
  2  3  1  0  0  0  0
  2  4  1  0  0  0  0
  2  5  1  0  0  0  0
  1  2  1  0  0  0  0
 22 23  2  0  0  0  0
 22 24  1  0  0  0  0
 18 19  1  0  0  0  0
 18 20  1  0  0  0  0
 18 21  1  0  0  0  0
 17 18  1  0  0  0  0
 14 15  1  0  0  0  0
 14 16  1  0  0  0  0
 14 17  1  0  0  0  0
 11 12  1  0  0  0  0
 11 13  1  0  0  0  0
 11 14  1  0  0  0  0
  9 10  1  0  0  0  0
  9 11  1  0  0  0  0
  9 22  1  0  0  0  0
  7  8  1  0  0  0  0
  7  9  1  0  0  0  0
 26 27  1  0  0  0  0
 26 28  1  0  0  0  0
 26 29  1  0  0  0  0
 24 25  1  0  0  0  0
 24 26  1  0  0  0  0
M  END
$$$$
default_name
  -OEChem-01062215323D

 29 28  0     1  0  0  0  0  0999 V2000
   -3.5781   -3.7296    1.2702 H   0  0  0  0  0  0  0  0  0  0  0  0
   -3.5311   -2.7616    0.7732 C   0  0  0  0  0  0  0  0  0  0  0  0
   -4.2371   -2.0766    1.2382 H   0  0  0  0  0  0  0  0  0  0  0  0
   -3.7681   -2.8816   -0.2818 H   0  0  0  0  0  0  0  0  0  0  0  0
   -2.1321   -2.2086    0.9112 C   0  0  0  0  0  0  0  0  0  0  0  0
   -1.2751   -2.8426    1.5112 O   0  0  0  0  0  0  0  0  0  0  0  0
   -1.9041   -1.0186    0.3602 N   0  0  0  0  0  0  0  0  0  0  0  0
   -2.6671   -0.5416   -0.0988 H   0  0  0  0  0  0  0  0  0  0  0  0
   -0.6131   -0.3236    0.3832 C   0  0  1  0  0  0  0  0  0  0  0  0
   -0.7480    0.6452    0.8667 H   0  0  0  0  0  0  0  0  0  0  0  0
    0.3863   -1.1446    1.2187 C   0  0  0  0  0  0  0  0  0  0  0  0
    0.4283   -2.1597    0.8180 H   0  0  0  0  0  0  0  0  0  0  0  0
    1.3793   -0.7016    1.1295 H   0  0  0  0  0  0  0  0  0  0  0  0
    0.0189   -1.2282    2.7047 C   0  0  0  0  0  0  0  0  0  0  0  0
   -0.9611   -1.6937    2.8049 H   0  0  0  0  0  0  0  0  0  0  0  0
    0.7563   -1.8502    3.2134 H   0  0  0  0  0  0  0  0  0  0  0  0
   -0.0373    0.3827    3.5302 S   0  0  0  0  0  0  0  0  0  0  0  0
    1.7252    0.8011    3.5131 C   0  0  0  0  0  0  0  0  0  0  0  0
    2.0820    0.8481    2.4837 H   0  0  0  0  0  0  0  0  0  0  0  0
    1.8710    1.7716    3.9881 H   0  0  0  0  0  0  0  0  0  0  0  0
    2.2881    0.0452    4.0614 H   0  0  0  0  0  0  0  0  0  0  0  0
   -0.1095   -0.0788   -1.0463 C   0  0  0  0  0  0  0  0  0  0  0  0
    0.1021   -1.0293   -1.7967 O   0  0  0  0  0  0  0  0  0  0  0  0
    0.0907    1.1917   -1.4197 N   0  0  0  0  0  0  0  0  0  0  0  0
   -0.1192    1.9190   -0.7549 H   0  0  0  0  0  0  0  0  0  0  0  0
    0.5810    1.5870   -2.7392 C   0  0  0  0  0  0  0  0  0  0  0  0
   -0.0906    1.2036   -3.5111 H   0  0  0  0  0  0  0  0  0  0  0  0
    0.6327    2.6739   -2.8156 H   0  0  0  0  0  0  0  0  0  0  0  0
    1.5739    1.1651   -2.9047 H   0  0  0  0  0  0  0  0  0  0  0  0
  5  6  2  0  0  0  0
  5  7  1  0  0  0  0
  2  3  1  0  0  0  0
  2  4  1  0  0  0  0
  2  5  1  0  0  0  0
  1  2  1  0  0  0  0
 22 23  2  0  0  0  0
 22 24  1  0  0  0  0
 18 19  1  0  0  0  0
 18 20  1  0  0  0  0
 18 21  1  0  0  0  0
 17 18  1  0  0  0  0
 14 15  1  0  0  0  0
 14 16  1  0  0  0  0
 14 17  1  0  0  0  0
 11 12  1  0  0  0  0
 11 13  1  0  0  0  0
 11 14  1  0  0  0  0
  9 10  1  0  0  0  0
  9 11  1  0  0  0  0
  9 22  1  0  0  0  0
  7  8  1  0  0  0  0
  7  9  1  0  0  0  0
 26 27  1  0  0  0  0
 26 28  1  0  0  0  0
 26 29  1  0  0  0  0
 24 25  1  0  0  0  0
 24 26  1  0  0  0  0
M  END
$$$$
default_name
  -OEChem-01062215323D

 29 28  0     1  0  0  0  0  0999 V2000
   -3.5781   -3.7296    1.2702 H   0  0  0  0  0  0  0  0  0  0  0  0
   -3.5311   -2.7616    0.7732 C   0  0  0  0  0  0  0  0  0  0  0  0
   -4.2371   -2.0766    1.2382 H   0  0  0  0  0  0  0  0  0  0  0  0
   -3.7681   -2.8816   -0.2818 H   0  0  0  0  0  0  0  0  0  0  0  0
   -2.1321   -2.2086    0.9112 C   0  0  0  0  0  0  0  0  0  0  0  0
   -1.2751   -2.8426    1.5112 O   0  0  0  0  0  0  0  0  0  0  0  0
   -1.9041   -1.0186    0.3602 N   0  0  0  0  0  0  0  0  0  0  0  0
   -2.6671   -0.5416   -0.0988 H   0  0  0  0  0  0  0  0  0  0  0  0
   -0.6131   -0.3236    0.3832 C   0  0  1  0  0  0  0  0  0  0  0  0
   -0.7480    0.6452    0.8667 H   0  0  0  0  0  0  0  0  0  0  0  0
    0.3863   -1.1446    1.2187 C   0  0  0  0  0  0  0  0  0  0  0  0
    0.4283   -2.1597    0.8180 H   0  0  0  0  0  0  0  0  0  0  0  0
    1.3793   -0.7016    1.1295 H   0  0  0  0  0  0  0  0  0  0  0  0
    0.0189   -1.2282    2.7047 C   0  0  0  0  0  0  0  0  0  0  0  0
   -0.9611   -1.6937    2.8049 H   0  0  0  0  0  0  0  0  0  0  0  0
    0.7563   -1.8502    3.2134 H   0  0  0  0  0  0  0  0  0  0  0  0
   -0.0373    0.3827    3.5302 S   0  0  0  0  0  0  0  0  0  0  0  0
    1.7252    0.8011    3.5131 C   0  0  0  0  0  0  0  0  0  0  0  0
    2.0820    0.8481    2.4837 H   0  0  0  0  0  0  0  0  0  0  0  0
    1.8710    1.7716    3.9881 H   0  0  0  0  0  0  0  0  0  0  0  0
    2.2881    0.0452    4.0614 H   0  0  0  0  0  0  0  0  0  0  0  0
   -0.1095   -0.0788   -1.0463 C   0  0  0  0  0  0  0  0  0  0  0  0
   -0.1583   -0.9808   -1.8801 O   0  0  0  0  0  0  0  0  0  0  0  0
    0.3815    1.1352   -1.3270 N   0  0  0  0  0  0  0  0  0  0  0  0
    0.3751    1.8288   -0.5962 H   0  0  0  0  0  0  0  0  0  0  0  0
    0.9121    1.5188   -2.6342 C   0  0  0  0  0  0  0  0  0  0  0  0
    0.1441    1.3783   -3.3985 H   0  0  0  0  0  0  0  0  0  0  0  0
    1.2238    2.5641   -2.6262 H   0  0  0  0  0  0  0  0  0  0  0  0
    1.7673    0.8883   -2.8840 H   0  0  0  0  0  0  0  0  0  0  0  0
  5  6  2  0  0  0  0
  5  7  1  0  0  0  0
  2  3  1  0  0  0  0
  2  4  1  0  0  0  0
  2  5  1  0  0  0  0
  1  2  1  0  0  0  0
 22 23  2  0  0  0  0
 22 24  1  0  0  0  0
 18 19  1  0  0  0  0
 18 20  1  0  0  0  0
 18 21  1  0  0  0  0
 17 18  1  0  0  0  0
 14 15  1  0  0  0  0
 14 16  1  0  0  0  0
 14 17  1  0  0  0  0
 11 12  1  0  0  0  0
 11 13  1  0  0  0  0
 11 14  1  0  0  0  0
  9 10  1  0  0  0  0
  9 11  1  0  0  0  0
  9 22  1  0  0  0  0
  7  8  1  0  0  0  0
  7  9  1  0  0  0  0
 26 27  1  0  0  0  0
 26 28  1  0  0  0  0
 26 29  1  0  0  0  0
 24 25  1  0  0  0  0
 24 26  1  0  0  0  0
M  END
$$$$
default_name
  -OEChem-01062215323D

 29 28  0     1  0  0  0  0  0999 V2000
   -3.5781   -3.7296    1.2702 H   0  0  0  0  0  0  0  0  0  0  0  0
   -3.5311   -2.7616    0.7732 C   0  0  0  0  0  0  0  0  0  0  0  0
   -4.2371   -2.0766    1.2382 H   0  0  0  0  0  0  0  0  0  0  0  0
   -3.7681   -2.8816   -0.2818 H   0  0  0  0  0  0  0  0  0  0  0  0
   -2.1321   -2.2086    0.9112 C   0  0  0  0  0  0  0  0  0  0  0  0
   -1.2751   -2.8426    1.5112 O   0  0  0  0  0  0  0  0  0  0  0  0
   -1.9041   -1.0186    0.3602 N   0  0  0  0  0  0  0  0  0  0  0  0
   -2.6671   -0.5416   -0.0988 H   0  0  0  0  0  0  0  0  0  0  0  0
   -0.6131   -0.3236    0.3832 C   0  0  1  0  0  0  0  0  0  0  0  0
   -0.7480    0.6452    0.8667 H   0  0  0  0  0  0  0  0  0  0  0  0
    0.3863   -1.1446    1.2187 C   0  0  0  0  0  0  0  0  0  0  0  0
    0.4283   -2.1597    0.8180 H   0  0  0  0  0  0  0  0  0  0  0  0
    1.3793   -0.7016    1.1295 H   0  0  0  0  0  0  0  0  0  0  0  0
    0.0189   -1.2282    2.7047 C   0  0  0  0  0  0  0  0  0  0  0  0
   -0.9611   -1.6937    2.8049 H   0  0  0  0  0  0  0  0  0  0  0  0
    0.7563   -1.8502    3.2134 H   0  0  0  0  0  0  0  0  0  0  0  0
   -0.0373    0.3827    3.5302 S   0  0  0  0  0  0  0  0  0  0  0  0
    1.7252    0.8011    3.5131 C   0  0  0  0  0  0  0  0  0  0  0  0
    2.0820    0.8481    2.4837 H   0  0  0  0  0  0  0  0  0  0  0  0
    1.8710    1.7716    3.9881 H   0  0  0  0  0  0  0  0  0  0  0  0
    2.2881    0.0452    4.0614 H   0  0  0  0  0  0  0  0  0  0  0  0
   -0.1095   -0.0788   -1.0463 C   0  0  0  0  0  0  0  0  0  0  0  0
   -0.4015   -0.8642   -1.9459 O   0  0  0  0  0  0  0  0  0  0  0  0
    0.6526    1.0027   -1.2541 N   0  0  0  0  0  0  0  0  0  0  0  0
    0.8373    1.6091   -0.4710 H   0  0  0  0  0  0  0  0  0  0  0  0
    1.2199    1.3642   -2.5523 C   0  0  0  0  0  0  0  0  0  0  0  0
    0.4175    1.4808   -3.2846 H   0  0  0  0  0  0  0  0  0  0  0  0
    1.7761    2.2995   -2.4769 H   0  0  0  0  0  0  0  0  0  0  0  0
    1.8883    0.5725   -2.8954 H   0  0  0  0  0  0  0  0  0  0  0  0
  5  6  2  0  0  0  0
  5  7  1  0  0  0  0
  2  3  1  0  0  0  0
  2  4  1  0  0  0  0
  2  5  1  0  0  0  0
  1  2  1  0  0  0  0
 22 23  2  0  0  0  0
 22 24  1  0  0  0  0
 18 19  1  0  0  0  0
 18 20  1  0  0  0  0
 18 21  1  0  0  0  0
 17 18  1  0  0  0  0
 14 15  1  0  0  0  0
 14 16  1  0  0  0  0
 14 17  1  0  0  0  0
 11 12  1  0  0  0  0
 11 13  1  0  0  0  0
 11 14  1  0  0  0  0
  9 10  1  0  0  0  0
  9 11  1  0  0  0  0
  9 22  1  0  0  0  0
  7  8  1  0  0  0  0
  7  9  1  0  0  0  0
 26 27  1  0  0  0  0
 26 28  1  0  0  0  0
 26 29  1  0  0  0  0
 24 25  1  0  0  0  0
 24 26  1  0  0  0  0
M  END
$$$$
default_name
  -OEChem-01062215323D

 29 28  0     1  0  0  0  0  0999 V2000
   -3.5781   -3.7296    1.2702 H   0  0  0  0  0  0  0  0  0  0  0  0
   -3.5311   -2.7616    0.7732 C   0  0  0  0  0  0  0  0  0  0  0  0
   -4.2371   -2.0766    1.2382 H   0  0  0  0  0  0  0  0  0  0  0  0
   -3.7681   -2.8816   -0.2818 H   0  0  0  0  0  0  0  0  0  0  0  0
   -2.1321   -2.2086    0.9112 C   0  0  0  0  0  0  0  0  0  0  0  0
   -1.2751   -2.8426    1.5112 O   0  0  0  0  0  0  0  0  0  0  0  0
   -1.9041   -1.0186    0.3602 N   0  0  0  0  0  0  0  0  0  0  0  0
   -2.6671   -0.5416   -0.0988 H   0  0  0  0  0  0  0  0  0  0  0  0
   -0.6131   -0.3236    0.3832 C   0  0  1  0  0  0  0  0  0  0  0  0
   -0.7480    0.6452    0.8667 H   0  0  0  0  0  0  0  0  0  0  0  0
    0.3863   -1.1446    1.2187 C   0  0  0  0  0  0  0  0  0  0  0  0
    0.4283   -2.1597    0.8180 H   0  0  0  0  0  0  0  0  0  0  0  0
    1.3793   -0.7016    1.1295 H   0  0  0  0  0  0  0  0  0  0  0  0
    0.0189   -1.2282    2.7047 C   0  0  0  0  0  0  0  0  0  0  0  0
   -0.9611   -1.6937    2.8049 H   0  0  0  0  0  0  0  0  0  0  0  0
    0.7563   -1.8502    3.2134 H   0  0  0  0  0  0  0  0  0  0  0  0
   -0.0373    0.3827    3.5302 S   0  0  0  0  0  0  0  0  0  0  0  0
    1.7252    0.8011    3.5131 C   0  0  0  0  0  0  0  0  0  0  0  0
    2.0820    0.8481    2.4837 H   0  0  0  0  0  0  0  0  0  0  0  0
    1.8710    1.7716    3.9881 H   0  0  0  0  0  0  0  0  0  0  0  0
    2.2881    0.0452    4.0614 H   0  0  0  0  0  0  0  0  0  0  0  0
   -0.1095   -0.0788   -1.0463 C   0  0  0  0  0  0  0  0  0  0  0  0
   -0.6111   -0.6873   -1.9894 O   0  0  0  0  0  0  0  0  0  0  0  0
    0.8856    0.8032   -1.2062 N   0  0  0  0  0  0  0  0  0  0  0  0
    1.2361    1.2748   -0.3878 H   0  0  0  0  0  0  0  0  0  0  0  0
    1.4833    1.1338   -2.4989 C   0  0  0  0  0  0  0  0  0  0  0  0
    0.7111    1.5043   -3.1772 H   0  0  0  0  0  0  0  0  0  0  0  0
    2.2520    1.8982   -2.3780 H   0  0  0  0  0  0  0  0  0  0  0  0
    1.9286    0.2394   -2.9383 H   0  0  0  0  0  0  0  0  0  0  0  0
  5  6  2  0  0  0  0
  5  7  1  0  0  0  0
  2  3  1  0  0  0  0
  2  4  1  0  0  0  0
  2  5  1  0  0  0  0
  1  2  1  0  0  0  0
 22 23  2  0  0  0  0
 22 24  1  0  0  0  0
 18 19  1  0  0  0  0
 18 20  1  0  0  0  0
 18 21  1  0  0  0  0
 17 18  1  0  0  0  0
 14 15  1  0  0  0  0
 14 16  1  0  0  0  0
 14 17  1  0  0  0  0
 11 12  1  0  0  0  0
 11 13  1  0  0  0  0
 11 14  1  0  0  0  0
  9 10  1  0  0  0  0
  9 11  1  0  0  0  0
  9 22  1  0  0  0  0
  7  8  1  0  0  0  0
  7  9  1  0  0  0  0
 26 27  1  0  0  0  0
 26 28  1  0  0  0  0
 26 29  1  0  0  0  0
 24 25  1  0  0  0  0
 24 26  1  0  0  0  0
M  END
$$$$
default_name
  -OEChem-01062215323D

 29 28  0     1  0  0  0  0  0999 V2000
   -3.5781   -3.7296    1.2702 H   0  0  0  0  0  0  0  0  0  0  0  0
   -3.5311   -2.7616    0.7732 C   0  0  0  0  0  0  0  0  0  0  0  0
   -4.2371   -2.0766    1.2382 H   0  0  0  0  0  0  0  0  0  0  0  0
   -3.7681   -2.8816   -0.2818 H   0  0  0  0  0  0  0  0  0  0  0  0
   -2.1321   -2.2086    0.9112 C   0  0  0  0  0  0  0  0  0  0  0  0
   -1.2751   -2.8426    1.5112 O   0  0  0  0  0  0  0  0  0  0  0  0
   -1.9041   -1.0186    0.3602 N   0  0  0  0  0  0  0  0  0  0  0  0
   -2.6671   -0.5416   -0.0988 H   0  0  0  0  0  0  0  0  0  0  0  0
   -0.6131   -0.3236    0.3832 C   0  0  1  0  0  0  0  0  0  0  0  0
   -0.6776    0.5071    1.0878 H   0  0  0  0  0  0  0  0  0  0  0  0
    0.4732   -1.2948    0.8808 C   0  0  0  0  0  0  0  0  0  0  0  0
    0.4552   -2.1911    0.2570 H   0  0  0  0  0  0  0  0  0  0  0  0
    1.4520   -0.8250    0.7744 H   0  0  0  0  0  0  0  0  0  0  0  0
    0.2907   -1.7211    2.3420 C   0  0  0  0  0  0  0  0  0  0  0  0
   -0.6742   -2.2151    2.4524 H   0  0  0  0  0  0  0  0  0  0  0  0
    1.0788   -2.4290    2.6014 H   0  0  0  0  0  0  0  0  0  0  0  0
    0.3530   -0.3417    3.5138 S   0  0  0  0  0  0  0  0  0  0  0  0
    2.1042    0.1018    3.3773 C   0  0  0  0  0  0  0  0  0  0  0  0
    2.3319    0.3883    2.3501 H   0  0  0  0  0  0  0  0  0  0  0  0
    2.3171    0.9412    4.0397 H   0  0  0  0  0  0  0  0  0  0  0  0
    2.7225   -0.7487    3.6657 H   0  0  0  0  0  0  0  0  0  0  0  0
   -0.2869    0.2493   -1.0033 C   0  0  0  0  0  0  0  0  0  0  0  0
   -1.0673    0.0827   -1.9385 O   0  0  0  0  0  0  0  0  0  0  0  0
    0.8672    0.9151   -1.1387 N   0  0  0  0  0  0  0  0  0  0  0  0
    1.4489    1.0246   -0.3234 H   0  0  0  0  0  0  0  0  0  0  0  0
    1.3264    1.5056   -2.3950 C   0  0  0  0  0  0  0  0  0  0  0  0
    0.5834    2.2190   -2.7592 H   0  0  0  0  0  0  0  0  0  0  0  0
    2.2768    2.0203   -2.2482 H   0  0  0  0  0  0  0  0  0  0  0  0
    1.4510    0.7232   -3.1457 H   0  0  0  0  0  0  0  0  0  0  0  0
  5  6  2  0  0  0  0
  5  7  1  0  0  0  0
  2  3  1  0  0  0  0
  2  4  1  0  0  0  0
  2  5  1  0  0  0  0
  1  2  1  0  0  0  0
 22 23  2  0  0  0  0
 22 24  1  0  0  0  0
 18 19  1  0  0  0  0
 18 20  1  0  0  0  0
 18 21  1  0  0  0  0
 17 18  1  0  0  0  0
 14 15  1  0  0  0  0
 14 16  1  0  0  0  0
 14 17  1  0  0  0  0
 11 12  1  0  0  0  0
 11 13  1  0  0  0  0
 11 14  1  0  0  0  0
  9 10  1  0  0  0  0
  9 11  1  0  0  0  0
  9 22  1  0  0  0  0
  7  8  1  0  0  0  0
  7  9  1  0  0  0  0
 26 27  1  0  0  0  0
 26 28  1  0  0  0  0
 26 29  1  0  0  0  0
 24 25  1  0  0  0  0
 24 26  1  0  0  0  0
M  END
$$$$
default_name
  -OEChem-01062215323D

 29 28  0     1  0  0  0  0  0999 V2000
   -3.5781   -3.7296    1.2702 H   0  0  0  0  0  0  0  0  0  0  0  0
   -3.5311   -2.7616    0.7732 C   0  0  0  0  0  0  0  0  0  0  0  0
   -4.2371   -2.0766    1.2382 H   0  0  0  0  0  0  0  0  0  0  0  0
   -3.7681   -2.8816   -0.2818 H   0  0  0  0  0  0  0  0  0  0  0  0
   -2.1321   -2.2086    0.9112 C   0  0  0  0  0  0  0  0  0  0  0  0
   -1.2751   -2.8426    1.5112 O   0  0  0  0  0  0  0  0  0  0  0  0
   -1.9041   -1.0186    0.3602 N   0  0  0  0  0  0  0  0  0  0  0  0
   -2.6671   -0.5416   -0.0988 H   0  0  0  0  0  0  0  0  0  0  0  0
   -0.6131   -0.3236    0.3832 C   0  0  1  0  0  0  0  0  0  0  0  0
   -0.6776    0.5071    1.0878 H   0  0  0  0  0  0  0  0  0  0  0  0
    0.4732   -1.2948    0.8808 C   0  0  0  0  0  0  0  0  0  0  0  0
    0.4552   -2.1911    0.2570 H   0  0  0  0  0  0  0  0  0  0  0  0
    1.4520   -0.8250    0.7744 H   0  0  0  0  0  0  0  0  0  0  0  0
    0.2907   -1.7211    2.3420 C   0  0  0  0  0  0  0  0  0  0  0  0
   -0.6742   -2.2151    2.4524 H   0  0  0  0  0  0  0  0  0  0  0  0
    1.0788   -2.4290    2.6014 H   0  0  0  0  0  0  0  0  0  0  0  0
    0.3530   -0.3417    3.5138 S   0  0  0  0  0  0  0  0  0  0  0  0
    2.1042    0.1018    3.3773 C   0  0  0  0  0  0  0  0  0  0  0  0
    2.3319    0.3883    2.3501 H   0  0  0  0  0  0  0  0  0  0  0  0
    2.3171    0.9412    4.0397 H   0  0  0  0  0  0  0  0  0  0  0  0
    2.7225   -0.7487    3.6657 H   0  0  0  0  0  0  0  0  0  0  0  0
   -0.2869    0.2493   -1.0033 C   0  0  0  0  0  0  0  0  0  0  0  0
   -1.1655    0.3300   -1.8594 O   0  0  0  0  0  0  0  0  0  0  0  0
    0.9749    0.6380   -1.2279 N   0  0  0  0  0  0  0  0  0  0  0  0
    1.6370    0.5556   -0.4729 H   0  0  0  0  0  0  0  0  0  0  0  0
    1.4456    1.1885   -2.4979 C   0  0  0  0  0  0  0  0  0  0  0  0
    0.8627    2.0769   -2.7522 H   0  0  0  0  0  0  0  0  0  0  0  0
    2.5000    1.4588   -2.4277 H   0  0  0  0  0  0  0  0  0  0  0  0
    1.3135    0.4502   -3.2909 H   0  0  0  0  0  0  0  0  0  0  0  0
  5  6  2  0  0  0  0
  5  7  1  0  0  0  0
  2  3  1  0  0  0  0
  2  4  1  0  0  0  0
  2  5  1  0  0  0  0
  1  2  1  0  0  0  0
 22 23  2  0  0  0  0
 22 24  1  0  0  0  0
 18 19  1  0  0  0  0
 18 20  1  0  0  0  0
 18 21  1  0  0  0  0
 17 18  1  0  0  0  0
 14 15  1  0  0  0  0
 14 16  1  0  0  0  0
 14 17  1  0  0  0  0
 11 12  1  0  0  0  0
 11 13  1  0  0  0  0
 11 14  1  0  0  0  0
  9 10  1  0  0  0  0
  9 11  1  0  0  0  0
  9 22  1  0  0  0  0
  7  8  1  0  0  0  0
  7  9  1  0  0  0  0
 26 27  1  0  0  0  0
 26 28  1  0  0  0  0
 26 29  1  0  0  0  0
 24 25  1  0  0  0  0
 24 26  1  0  0  0  0
M  END
$$$$
default_name
  -OEChem-01062215323D

 29 28  0     1  0  0  0  0  0999 V2000
   -3.5781   -3.7296    1.2702 H   0  0  0  0  0  0  0  0  0  0  0  0
   -3.5311   -2.7616    0.7732 C   0  0  0  0  0  0  0  0  0  0  0  0
   -4.2371   -2.0766    1.2382 H   0  0  0  0  0  0  0  0  0  0  0  0
   -3.7681   -2.8816   -0.2818 H   0  0  0  0  0  0  0  0  0  0  0  0
   -2.1321   -2.2086    0.9112 C   0  0  0  0  0  0  0  0  0  0  0  0
   -1.2751   -2.8426    1.5112 O   0  0  0  0  0  0  0  0  0  0  0  0
   -1.9041   -1.0186    0.3602 N   0  0  0  0  0  0  0  0  0  0  0  0
   -2.6671   -0.5416   -0.0988 H   0  0  0  0  0  0  0  0  0  0  0  0
   -0.6131   -0.3236    0.3832 C   0  0  1  0  0  0  0  0  0  0  0  0
   -0.6776    0.5071    1.0878 H   0  0  0  0  0  0  0  0  0  0  0  0
    0.4732   -1.2948    0.8808 C   0  0  0  0  0  0  0  0  0  0  0  0
    0.4552   -2.1911    0.2570 H   0  0  0  0  0  0  0  0  0  0  0  0
    1.4520   -0.8250    0.7744 H   0  0  0  0  0  0  0  0  0  0  0  0
    0.2907   -1.7211    2.3420 C   0  0  0  0  0  0  0  0  0  0  0  0
   -0.6742   -2.2151    2.4524 H   0  0  0  0  0  0  0  0  0  0  0  0
    1.0788   -2.4290    2.6014 H   0  0  0  0  0  0  0  0  0  0  0  0
    0.3530   -0.3417    3.5138 S   0  0  0  0  0  0  0  0  0  0  0  0
    2.1042    0.1018    3.3773 C   0  0  0  0  0  0  0  0  0  0  0  0
    2.3319    0.3883    2.3501 H   0  0  0  0  0  0  0  0  0  0  0  0
    2.3171    0.9412    4.0397 H   0  0  0  0  0  0  0  0  0  0  0  0
    2.7225   -0.7487    3.6657 H   0  0  0  0  0  0  0  0  0  0  0  0
   -0.2869    0.2493   -1.0033 C   0  0  0  0  0  0  0  0  0  0  0  0
   -1.1949    0.5876   -1.7599 O   0  0  0  0  0  0  0  0  0  0  0  0
    1.0055    0.3500   -1.3397 N   0  0  0  0  0  0  0  0  0  0  0  0
    1.6945    0.0669   -0.6613 H   0  0  0  0  0  0  0  0  0  0  0  0
    1.4767    0.8601   -2.6263 C   0  0  0  0  0  0  0  0  0  0  0  0
    1.0999    1.8740   -2.7802 H   0  0  0  0  0  0  0  0  0  0  0  0
    2.5671    0.8741   -2.6535 H   0  0  0  0  0  0  0  0  0  0  0  0
    1.1030    0.2266   -3.4328 H   0  0  0  0  0  0  0  0  0  0  0  0
  5  6  2  0  0  0  0
  5  7  1  0  0  0  0
  2  3  1  0  0  0  0
  2  4  1  0  0  0  0
  2  5  1  0  0  0  0
  1  2  1  0  0  0  0
 22 23  2  0  0  0  0
 22 24  1  0  0  0  0
 18 19  1  0  0  0  0
 18 20  1  0  0  0  0
 18 21  1  0  0  0  0
 17 18  1  0  0  0  0
 14 15  1  0  0  0  0
 14 16  1  0  0  0  0
 14 17  1  0  0  0  0
 11 12  1  0  0  0  0
 11 13  1  0  0  0  0
 11 14  1  0  0  0  0
  9 10  1  0  0  0  0
  9 11  1  0  0  0  0
  9 22  1  0  0  0  0
  7  8  1  0  0  0  0
  7  9  1  0  0  0  0
 26 27  1  0  0  0  0
 26 28  1  0  0  0  0
 26 29  1  0  0  0  0
 24 25  1  0  0  0  0
 24 26  1  0  0  0  0
M  END
$$$$
default_name
  -OEChem-01062215323D

 29 28  0     1  0  0  0  0  0999 V2000
   -3.5781   -3.7296    1.2702 H   0  0  0  0  0  0  0  0  0  0  0  0
   -3.5311   -2.7616    0.7732 C   0  0  0  0  0  0  0  0  0  0  0  0
   -4.2371   -2.0766    1.2382 H   0  0  0  0  0  0  0  0  0  0  0  0
   -3.7681   -2.8816   -0.2818 H   0  0  0  0  0  0  0  0  0  0  0  0
   -2.1321   -2.2086    0.9112 C   0  0  0  0  0  0  0  0  0  0  0  0
   -1.2751   -2.8426    1.5112 O   0  0  0  0  0  0  0  0  0  0  0  0
   -1.9041   -1.0186    0.3602 N   0  0  0  0  0  0  0  0  0  0  0  0
   -2.6671   -0.5416   -0.0988 H   0  0  0  0  0  0  0  0  0  0  0  0
   -0.6131   -0.3236    0.3832 C   0  0  1  0  0  0  0  0  0  0  0  0
   -0.6776    0.5071    1.0878 H   0  0  0  0  0  0  0  0  0  0  0  0
    0.4732   -1.2948    0.8808 C   0  0  0  0  0  0  0  0  0  0  0  0
    0.4552   -2.1911    0.2570 H   0  0  0  0  0  0  0  0  0  0  0  0
    1.4520   -0.8250    0.7744 H   0  0  0  0  0  0  0  0  0  0  0  0
    0.2907   -1.7211    2.3420 C   0  0  0  0  0  0  0  0  0  0  0  0
   -0.6742   -2.2151    2.4524 H   0  0  0  0  0  0  0  0  0  0  0  0
    1.0788   -2.4290    2.6014 H   0  0  0  0  0  0  0  0  0  0  0  0
    0.3530   -0.3417    3.5138 S   0  0  0  0  0  0  0  0  0  0  0  0
    2.1042    0.1018    3.3773 C   0  0  0  0  0  0  0  0  0  0  0  0
    2.3319    0.3883    2.3501 H   0  0  0  0  0  0  0  0  0  0  0  0
    2.3171    0.9412    4.0397 H   0  0  0  0  0  0  0  0  0  0  0  0
    2.7225   -0.7487    3.6657 H   0  0  0  0  0  0  0  0  0  0  0  0
   -0.2869    0.2493   -1.0033 C   0  0  0  0  0  0  0  0  0  0  0  0
   -1.1535    0.8377   -1.6468 O   0  0  0  0  0  0  0  0  0  0  0  0
    0.9570    0.0708   -1.4665 N   0  0  0  0  0  0  0  0  0  0  0  0
    1.6177   -0.4083   -0.8757 H   0  0  0  0  0  0  0  0  0  0  0  0
    1.4176    0.5426   -2.7714 C   0  0  0  0  0  0  0  0  0  0  0  0
    1.2789    1.6240   -2.8414 H   0  0  0  0  0  0  0  0  0  0  0  0
    2.4733    0.3061   -2.9102 H   0  0  0  0  0  0  0  0  0  0  0  0
    0.8336    0.0677   -3.5618 H   0  0  0  0  0  0  0  0  0  0  0  0
  5  6  2  0  0  0  0
  5  7  1  0  0  0  0
  2  3  1  0  0  0  0
  2  4  1  0  0  0  0
  2  5  1  0  0  0  0
  1  2  1  0  0  0  0
 22 23  2  0  0  0  0
 22 24  1  0  0  0  0
 18 19  1  0  0  0  0
 18 20  1  0  0  0  0
 18 21  1  0  0  0  0
 17 18  1  0  0  0  0
 14 15  1  0  0  0  0
 14 16  1  0  0  0  0
 14 17  1  0  0  0  0
 11 12  1  0  0  0  0
 11 13  1  0  0  0  0
 11 14  1  0  0  0  0
  9 10  1  0  0  0  0
  9 11  1  0  0  0  0
  9 22  1  0  0  0  0
  7  8  1  0  0  0  0
  7  9  1  0  0  0  0
 26 27  1  0  0  0  0
 26 28  1  0  0  0  0
 26 29  1  0  0  0  0
 24 25  1  0  0  0  0
 24 26  1  0  0  0  0
M  END
$$$$
default_name
  -OEChem-01062215323D

 29 28  0     1  0  0  0  0  0999 V2000
   -3.5781   -3.7296    1.2702 H   0  0  0  0  0  0  0  0  0  0  0  0
   -3.5311   -2.7616    0.7732 C   0  0  0  0  0  0  0  0  0  0  0  0
   -4.2371   -2.0766    1.2382 H   0  0  0  0  0  0  0  0  0  0  0  0
   -3.7681   -2.8816   -0.2818 H   0  0  0  0  0  0  0  0  0  0  0  0
   -2.1321   -2.2086    0.9112 C   0  0  0  0  0  0  0  0  0  0  0  0
   -1.2751   -2.8426    1.5112 O   0  0  0  0  0  0  0  0  0  0  0  0
   -1.9041   -1.0186    0.3602 N   0  0  0  0  0  0  0  0  0  0  0  0
   -2.6671   -0.5416   -0.0988 H   0  0  0  0  0  0  0  0  0  0  0  0
   -0.6131   -0.3236    0.3832 C   0  0  1  0  0  0  0  0  0  0  0  0
   -0.6776    0.5071    1.0878 H   0  0  0  0  0  0  0  0  0  0  0  0
    0.4732   -1.2948    0.8808 C   0  0  0  0  0  0  0  0  0  0  0  0
    0.4552   -2.1911    0.2570 H   0  0  0  0  0  0  0  0  0  0  0  0
    1.4520   -0.8250    0.7744 H   0  0  0  0  0  0  0  0  0  0  0  0
    0.2907   -1.7211    2.3420 C   0  0  0  0  0  0  0  0  0  0  0  0
   -0.6742   -2.2151    2.4524 H   0  0  0  0  0  0  0  0  0  0  0  0
    1.0788   -2.4290    2.6014 H   0  0  0  0  0  0  0  0  0  0  0  0
    0.3530   -0.3417    3.5138 S   0  0  0  0  0  0  0  0  0  0  0  0
    2.1042    0.1018    3.3773 C   0  0  0  0  0  0  0  0  0  0  0  0
    2.3319    0.3883    2.3501 H   0  0  0  0  0  0  0  0  0  0  0  0
    2.3171    0.9412    4.0397 H   0  0  0  0  0  0  0  0  0  0  0  0
    2.7225   -0.7487    3.6657 H   0  0  0  0  0  0  0  0  0  0  0  0
   -0.2869    0.2493   -1.0033 C   0  0  0  0  0  0  0  0  0  0  0  0
   -1.0441    1.0635   -1.5277 O   0  0  0  0  0  0  0  0  0  0  0  0
    0.8326   -0.1806   -1.5996 N   0  0  0  0  0  0  0  0  0  0  0  0
    1.4118   -0.8375   -1.1015 H   0  0  0  0  0  0  0  0  0  0  0  0
    1.2723    0.2577   -2.9233 C   0  0  0  0  0  0  0  0  0  0  0  0
    1.3875    1.3441   -2.9315 H   0  0  0  0  0  0  0  0  0  0  0  0
    2.2253   -0.2065   -3.1804 H   0  0  0  0  0  0  0  0  0  0  0  0
    0.5238   -0.0158   -3.6692 H   0  0  0  0  0  0  0  0  0  0  0  0
  5  6  2  0  0  0  0
  5  7  1  0  0  0  0
  2  3  1  0  0  0  0
  2  4  1  0  0  0  0
  2  5  1  0  0  0  0
  1  2  1  0  0  0  0
 22 23  2  0  0  0  0
 22 24  1  0  0  0  0
 18 19  1  0  0  0  0
 18 20  1  0  0  0  0
 18 21  1  0  0  0  0
 17 18  1  0  0  0  0
 14 15  1  0  0  0  0
 14 16  1  0  0  0  0
 14 17  1  0  0  0  0
 11 12  1  0  0  0  0
 11 13  1  0  0  0  0
 11 14  1  0  0  0  0
  9 10  1  0  0  0  0
  9 11  1  0  0  0  0
  9 22  1  0  0  0  0
  7  8  1  0  0  0  0
  7  9  1  0  0  0  0
 26 27  1  0  0  0  0
 26 28  1  0  0  0  0
 26 29  1  0  0  0  0
 24 25  1  0  0  0  0
 24 26  1  0  0  0  0
M  END
$$$$
default_name
  -OEChem-01062215323D

 29 28  0     1  0  0  0  0  0999 V2000
   -3.5781   -3.7296    1.2702 H   0  0  0  0  0  0  0  0  0  0  0  0
   -3.5311   -2.7616    0.7732 C   0  0  0  0  0  0  0  0  0  0  0  0
   -4.2371   -2.0766    1.2382 H   0  0  0  0  0  0  0  0  0  0  0  0
   -3.7681   -2.8816   -0.2818 H   0  0  0  0  0  0  0  0  0  0  0  0
   -2.1321   -2.2086    0.9112 C   0  0  0  0  0  0  0  0  0  0  0  0
   -1.2751   -2.8426    1.5112 O   0  0  0  0  0  0  0  0  0  0  0  0
   -1.9041   -1.0186    0.3602 N   0  0  0  0  0  0  0  0  0  0  0  0
   -2.6671   -0.5416   -0.0988 H   0  0  0  0  0  0  0  0  0  0  0  0
   -0.6131   -0.3236    0.3832 C   0  0  1  0  0  0  0  0  0  0  0  0
   -0.6776    0.5071    1.0878 H   0  0  0  0  0  0  0  0  0  0  0  0
    0.4732   -1.2948    0.8808 C   0  0  0  0  0  0  0  0  0  0  0  0
    0.4552   -2.1911    0.2570 H   0  0  0  0  0  0  0  0  0  0  0  0
    1.4520   -0.8250    0.7744 H   0  0  0  0  0  0  0  0  0  0  0  0
    0.2907   -1.7211    2.3420 C   0  0  0  0  0  0  0  0  0  0  0  0
   -0.6742   -2.2151    2.4524 H   0  0  0  0  0  0  0  0  0  0  0  0
    1.0788   -2.4290    2.6014 H   0  0  0  0  0  0  0  0  0  0  0  0
    0.3530   -0.3417    3.5138 S   0  0  0  0  0  0  0  0  0  0  0  0
    2.1042    0.1018    3.3773 C   0  0  0  0  0  0  0  0  0  0  0  0
    2.3319    0.3883    2.3501 H   0  0  0  0  0  0  0  0  0  0  0  0
    2.3171    0.9412    4.0397 H   0  0  0  0  0  0  0  0  0  0  0  0
    2.7225   -0.7487    3.6657 H   0  0  0  0  0  0  0  0  0  0  0  0
   -0.2869    0.2493   -1.0033 C   0  0  0  0  0  0  0  0  0  0  0  0
   -0.8742    1.2494   -1.4109 O   0  0  0  0  0  0  0  0  0  0  0  0
    0.6408   -0.3869   -1.7300 N   0  0  0  0  0  0  0  0  0  0  0  0
    1.0907   -1.1916   -1.3234 H   0  0  0  0  0  0  0  0  0  0  0  0
    1.0506    0.0249   -3.0717 C   0  0  0  0  0  0  0  0  0  0  0  0
    1.4183    1.0534   -3.0444 H   0  0  0  0  0  0  0  0  0  0  0  0
    1.8397   -0.6288   -3.4456 H   0  0  0  0  0  0  0  0  0  0  0  0
    0.1947   -0.0181   -3.7476 H   0  0  0  0  0  0  0  0  0  0  0  0
  5  6  2  0  0  0  0
  5  7  1  0  0  0  0
  2  3  1  0  0  0  0
  2  4  1  0  0  0  0
  2  5  1  0  0  0  0
  1  2  1  0  0  0  0
 22 23  2  0  0  0  0
 22 24  1  0  0  0  0
 18 19  1  0  0  0  0
 18 20  1  0  0  0  0
 18 21  1  0  0  0  0
 17 18  1  0  0  0  0
 14 15  1  0  0  0  0
 14 16  1  0  0  0  0
 14 17  1  0  0  0  0
 11 12  1  0  0  0  0
 11 13  1  0  0  0  0
 11 14  1  0  0  0  0
  9 10  1  0  0  0  0
  9 11  1  0  0  0  0
  9 22  1  0  0  0  0
  7  8  1  0  0  0  0
  7  9  1  0  0  0  0
 26 27  1  0  0  0  0
 26 28  1  0  0  0  0
 26 29  1  0  0  0  0
 24 25  1  0  0  0  0
 24 26  1  0  0  0  0
M  END
$$$$
default_name
  -OEChem-01062215323D

 29 28  0     1  0  0  0  0  0999 V2000
   -3.5781   -3.7296    1.2702 H   0  0  0  0  0  0  0  0  0  0  0  0
   -3.5311   -2.7616    0.7732 C   0  0  0  0  0  0  0  0  0  0  0  0
   -4.2371   -2.0766    1.2382 H   0  0  0  0  0  0  0  0  0  0  0  0
   -3.7681   -2.8816   -0.2818 H   0  0  0  0  0  0  0  0  0  0  0  0
   -2.1321   -2.2086    0.9112 C   0  0  0  0  0  0  0  0  0  0  0  0
   -1.2751   -2.8426    1.5112 O   0  0  0  0  0  0  0  0  0  0  0  0
   -1.9041   -1.0186    0.3602 N   0  0  0  0  0  0  0  0  0  0  0  0
   -2.6671   -0.5416   -0.0988 H   0  0  0  0  0  0  0  0  0  0  0  0
   -0.6131   -0.3236    0.3832 C   0  0  1  0  0  0  0  0  0  0  0  0
   -0.6776    0.5071    1.0878 H   0  0  0  0  0  0  0  0  0  0  0  0
    0.4732   -1.2948    0.8808 C   0  0  0  0  0  0  0  0  0  0  0  0
    0.4552   -2.1911    0.2570 H   0  0  0  0  0  0  0  0  0  0  0  0
    1.4520   -0.8250    0.7744 H   0  0  0  0  0  0  0  0  0  0  0  0
    0.2907   -1.7211    2.3420 C   0  0  0  0  0  0  0  0  0  0  0  0
   -0.6742   -2.2151    2.4524 H   0  0  0  0  0  0  0  0  0  0  0  0
    1.0788   -2.4290    2.6014 H   0  0  0  0  0  0  0  0  0  0  0  0
    0.3530   -0.3417    3.5138 S   0  0  0  0  0  0  0  0  0  0  0  0
    2.1042    0.1018    3.3773 C   0  0  0  0  0  0  0  0  0  0  0  0
    2.3319    0.3883    2.3501 H   0  0  0  0  0  0  0  0  0  0  0  0
    2.3171    0.9412    4.0397 H   0  0  0  0  0  0  0  0  0  0  0  0
    2.7225   -0.7487    3.6657 H   0  0  0  0  0  0  0  0  0  0  0  0
   -0.2869    0.2493   -1.0033 C   0  0  0  0  0  0  0  0  0  0  0  0
   -0.6553    1.3829   -1.3043 O   0  0  0  0  0  0  0  0  0  0  0  0
    0.3948   -0.5343   -1.8488 N   0  0  0  0  0  0  0  0  0  0  0  0
    0.6763   -1.4463   -1.5261 H   0  0  0  0  0  0  0  0  0  0  0  0
    0.7678   -0.1400   -3.2064 C   0  0  0  0  0  0  0  0  0  0  0  0
    1.3691    0.7715   -3.1724 H   0  0  0  0  0  0  0  0  0  0  0  0
    1.3430   -0.9320   -3.6878 H   0  0  0  0  0  0  0  0  0  0  0  0
   -0.1313    0.0609   -3.7917 H   0  0  0  0  0  0  0  0  0  0  0  0
  5  6  2  0  0  0  0
  5  7  1  0  0  0  0
  2  3  1  0  0  0  0
  2  4  1  0  0  0  0
  2  5  1  0  0  0  0
  1  2  1  0  0  0  0
 22 23  2  0  0  0  0
 22 24  1  0  0  0  0
 18 19  1  0  0  0  0
 18 20  1  0  0  0  0
 18 21  1  0  0  0  0
 17 18  1  0  0  0  0
 14 15  1  0  0  0  0
 14 16  1  0  0  0  0
 14 17  1  0  0  0  0
 11 12  1  0  0  0  0
 11 13  1  0  0  0  0
 11 14  1  0  0  0  0
  9 10  1  0  0  0  0
  9 11  1  0  0  0  0
  9 22  1  0  0  0  0
  7  8  1  0  0  0  0
  7  9  1  0  0  0  0
 26 27  1  0  0  0  0
 26 28  1  0  0  0  0
 26 29  1  0  0  0  0
 24 25  1  0  0  0  0
 24 26  1  0  0  0  0
M  END
$$$$
default_name
  -OEChem-01062215323D

 29 28  0     1  0  0  0  0  0999 V2000
   -3.5781   -3.7296    1.2702 H   0  0  0  0  0  0  0  0  0  0  0  0
   -3.5311   -2.7616    0.7732 C   0  0  0  0  0  0  0  0  0  0  0  0
   -4.2371   -2.0766    1.2382 H   0  0  0  0  0  0  0  0  0  0  0  0
   -3.7681   -2.8816   -0.2818 H   0  0  0  0  0  0  0  0  0  0  0  0
   -2.1321   -2.2086    0.9112 C   0  0  0  0  0  0  0  0  0  0  0  0
   -1.2751   -2.8426    1.5112 O   0  0  0  0  0  0  0  0  0  0  0  0
   -1.9041   -1.0186    0.3602 N   0  0  0  0  0  0  0  0  0  0  0  0
   -2.6671   -0.5416   -0.0988 H   0  0  0  0  0  0  0  0  0  0  0  0
   -0.6131   -0.3236    0.3832 C   0  0  1  0  0  0  0  0  0  0  0  0
   -0.6776    0.5071    1.0878 H   0  0  0  0  0  0  0  0  0  0  0  0
    0.4732   -1.2948    0.8808 C   0  0  0  0  0  0  0  0  0  0  0  0
    0.4552   -2.1911    0.2570 H   0  0  0  0  0  0  0  0  0  0  0  0
    1.4520   -0.8250    0.7744 H   0  0  0  0  0  0  0  0  0  0  0  0
    0.2907   -1.7211    2.3420 C   0  0  0  0  0  0  0  0  0  0  0  0
   -0.6742   -2.2151    2.4524 H   0  0  0  0  0  0  0  0  0  0  0  0
    1.0788   -2.4290    2.6014 H   0  0  0  0  0  0  0  0  0  0  0  0
    0.3530   -0.3417    3.5138 S   0  0  0  0  0  0  0  0  0  0  0  0
    2.1042    0.1018    3.3773 C   0  0  0  0  0  0  0  0  0  0  0  0
    2.3319    0.3883    2.3501 H   0  0  0  0  0  0  0  0  0  0  0  0
    2.3171    0.9412    4.0397 H   0  0  0  0  0  0  0  0  0  0  0  0
    2.7225   -0.7487    3.6657 H   0  0  0  0  0  0  0  0  0  0  0  0
   -0.2869    0.2493   -1.0033 C   0  0  0  0  0  0  0  0  0  0  0  0
   -0.4024    1.4548   -1.2151 O   0  0  0  0  0  0  0  0  0  0  0  0
    0.1112   -0.6126   -1.9478 N   0  0  0  0  0  0  0  0  0  0  0  0
    0.1970   -1.5843   -1.6959 H   0  0  0  0  0  0  0  0  0  0  0  0
    0.4430   -0.2258   -3.3182 C   0  0  0  0  0  0  0  0  0  0  0  0
    1.2434    0.5178   -3.3069 H   0  0  0  0  0  0  0  0  0  0  0  0
    0.7689   -1.0955   -3.8904 H   0  0  0  0  0  0  0  0  0  0  0  0
   -0.4320    0.2158   -3.7984 H   0  0  0  0  0  0  0  0  0  0  0  0
  5  6  2  0  0  0  0
  5  7  1  0  0  0  0
  2  3  1  0  0  0  0
  2  4  1  0  0  0  0
  2  5  1  0  0  0  0
  1  2  1  0  0  0  0
 22 23  2  0  0  0  0
 22 24  1  0  0  0  0
 18 19  1  0  0  0  0
 18 20  1  0  0  0  0
 18 21  1  0  0  0  0
 17 18  1  0  0  0  0
 14 15  1  0  0  0  0
 14 16  1  0  0  0  0
 14 17  1  0  0  0  0
 11 12  1  0  0  0  0
 11 13  1  0  0  0  0
 11 14  1  0  0  0  0
  9 10  1  0  0  0  0
  9 11  1  0  0  0  0
  9 22  1  0  0  0  0
  7  8  1  0  0  0  0
  7  9  1  0  0  0  0
 26 27  1  0  0  0  0
 26 28  1  0  0  0  0
 26 29  1  0  0  0  0
 24 25  1  0  0  0  0
 24 26  1  0  0  0  0
M  END
$$$$
default_name
  -OEChem-01062215323D

 29 28  0     1  0  0  0  0  0999 V2000
   -3.5781   -3.7296    1.2702 H   0  0  0  0  0  0  0  0  0  0  0  0
   -3.5311   -2.7616    0.7732 C   0  0  0  0  0  0  0  0  0  0  0  0
   -4.2371   -2.0766    1.2382 H   0  0  0  0  0  0  0  0  0  0  0  0
   -3.7681   -2.8816   -0.2818 H   0  0  0  0  0  0  0  0  0  0  0  0
   -2.1321   -2.2086    0.9112 C   0  0  0  0  0  0  0  0  0  0  0  0
   -1.2751   -2.8426    1.5112 O   0  0  0  0  0  0  0  0  0  0  0  0
   -1.9041   -1.0186    0.3602 N   0  0  0  0  0  0  0  0  0  0  0  0
   -2.6671   -0.5416   -0.0988 H   0  0  0  0  0  0  0  0  0  0  0  0
   -0.6131   -0.3236    0.3832 C   0  0  1  0  0  0  0  0  0  0  0  0
   -0.6776    0.5071    1.0878 H   0  0  0  0  0  0  0  0  0  0  0  0
    0.4732   -1.2948    0.8808 C   0  0  0  0  0  0  0  0  0  0  0  0
    0.4552   -2.1911    0.2570 H   0  0  0  0  0  0  0  0  0  0  0  0
    1.4520   -0.8250    0.7744 H   0  0  0  0  0  0  0  0  0  0  0  0
    0.2907   -1.7211    2.3420 C   0  0  0  0  0  0  0  0  0  0  0  0
   -0.6742   -2.2151    2.4524 H   0  0  0  0  0  0  0  0  0  0  0  0
    1.0788   -2.4290    2.6014 H   0  0  0  0  0  0  0  0  0  0  0  0
    0.3530   -0.3417    3.5138 S   0  0  0  0  0  0  0  0  0  0  0  0
    2.1042    0.1018    3.3773 C   0  0  0  0  0  0  0  0  0  0  0  0
    2.3319    0.3883    2.3501 H   0  0  0  0  0  0  0  0  0  0  0  0
    2.3171    0.9412    4.0397 H   0  0  0  0  0  0  0  0  0  0  0  0
    2.7225   -0.7487    3.6657 H   0  0  0  0  0  0  0  0  0  0  0  0
   -0.2869    0.2493   -1.0033 C   0  0  0  0  0  0  0  0  0  0  0  0
   -0.1327    1.4602   -1.1494 O   0  0  0  0  0  0  0  0  0  0  0  0
   -0.1906   -0.6165   -2.0204 N   0  0  0  0  0  0  0  0  0  0  0  0
   -0.3147   -1.5963   -1.8212 H   0  0  0  0  0  0  0  0  0  0  0  0
    0.0985   -0.2267   -3.3996 C   0  0  0  0  0  0  0  0  0  0  0  0
    1.0496    0.3095   -3.4385 H   0  0  0  0  0  0  0  0  0  0  0  0
    0.1566   -1.1080   -4.0396 H   0  0  0  0  0  0  0  0  0  0  0  0
   -0.6869    0.4361   -3.7673 H   0  0  0  0  0  0  0  0  0  0  0  0
  5  6  2  0  0  0  0
  5  7  1  0  0  0  0
  2  3  1  0  0  0  0
  2  4  1  0  0  0  0
  2  5  1  0  0  0  0
  1  2  1  0  0  0  0
 22 23  2  0  0  0  0
 22 24  1  0  0  0  0
 18 19  1  0  0  0  0
 18 20  1  0  0  0  0
 18 21  1  0  0  0  0
 17 18  1  0  0  0  0
 14 15  1  0  0  0  0
 14 16  1  0  0  0  0
 14 17  1  0  0  0  0
 11 12  1  0  0  0  0
 11 13  1  0  0  0  0
 11 14  1  0  0  0  0
  9 10  1  0  0  0  0
  9 11  1  0  0  0  0
  9 22  1  0  0  0  0
  7  8  1  0  0  0  0
  7  9  1  0  0  0  0
 26 27  1  0  0  0  0
 26 28  1  0  0  0  0
 26 29  1  0  0  0  0
 24 25  1  0  0  0  0
 24 26  1  0  0  0  0
M  END
$$$$
default_name
  -OEChem-01062215323D

 29 28  0     1  0  0  0  0  0999 V2000
   -3.5781   -3.7296    1.2702 H   0  0  0  0  0  0  0  0  0  0  0  0
   -3.5311   -2.7616    0.7732 C   0  0  0  0  0  0  0  0  0  0  0  0
   -4.2371   -2.0766    1.2382 H   0  0  0  0  0  0  0  0  0  0  0  0
   -3.7681   -2.8816   -0.2818 H   0  0  0  0  0  0  0  0  0  0  0  0
   -2.1321   -2.2086    0.9112 C   0  0  0  0  0  0  0  0  0  0  0  0
   -1.2751   -2.8426    1.5112 O   0  0  0  0  0  0  0  0  0  0  0  0
   -1.9041   -1.0186    0.3602 N   0  0  0  0  0  0  0  0  0  0  0  0
   -2.6671   -0.5416   -0.0988 H   0  0  0  0  0  0  0  0  0  0  0  0
   -0.6131   -0.3236    0.3832 C   0  0  1  0  0  0  0  0  0  0  0  0
   -0.6776    0.5071    1.0878 H   0  0  0  0  0  0  0  0  0  0  0  0
    0.4732   -1.2948    0.8808 C   0  0  0  0  0  0  0  0  0  0  0  0
    0.4552   -2.1911    0.2570 H   0  0  0  0  0  0  0  0  0  0  0  0
    1.4520   -0.8250    0.7744 H   0  0  0  0  0  0  0  0  0  0  0  0
    0.2907   -1.7211    2.3420 C   0  0  0  0  0  0  0  0  0  0  0  0
   -0.6742   -2.2151    2.4524 H   0  0  0  0  0  0  0  0  0  0  0  0
    1.0788   -2.4290    2.6014 H   0  0  0  0  0  0  0  0  0  0  0  0
    0.3530   -0.3417    3.5138 S   0  0  0  0  0  0  0  0  0  0  0  0
    2.1042    0.1018    3.3773 C   0  0  0  0  0  0  0  0  0  0  0  0
    2.3319    0.3883    2.3501 H   0  0  0  0  0  0  0  0  0  0  0  0
    2.3171    0.9412    4.0397 H   0  0  0  0  0  0  0  0  0  0  0  0
    2.7225   -0.7487    3.6657 H   0  0  0  0  0  0  0  0  0  0  0  0
   -0.2869    0.2493   -1.0033 C   0  0  0  0  0  0  0  0  0  0  0  0
    0.1354    1.3988   -1.1117 O   0  0  0  0  0  0  0  0  0  0  0  0
   -0.4901   -0.5457   -2.0617 N   0  0  0  0  0  0  0  0  0  0  0  0
   -0.8238   -1.4814   -1.8935 H   0  0  0  0  0  0  0  0  0  0  0  0
   -0.2424   -0.1424   -3.4450 C   0  0  0  0  0  0  0  0  0  0  0  0
    0.8011    0.1608   -3.5584 H   0  0  0  0  0  0  0  0  0  0  0  0
   -0.4522   -0.9688   -4.1253 H   0  0  0  0  0  0  0  0  0  0  0  0
   -0.8786    0.7068   -3.7006 H   0  0  0  0  0  0  0  0  0  0  0  0
  5  6  2  0  0  0  0
  5  7  1  0  0  0  0
  2  3  1  0  0  0  0
  2  4  1  0  0  0  0
  2  5  1  0  0  0  0
  1  2  1  0  0  0  0
 22 23  2  0  0  0  0
 22 24  1  0  0  0  0
 18 19  1  0  0  0  0
 18 20  1  0  0  0  0
 18 21  1  0  0  0  0
 17 18  1  0  0  0  0
 14 15  1  0  0  0  0
 14 16  1  0  0  0  0
 14 17  1  0  0  0  0
 11 12  1  0  0  0  0
 11 13  1  0  0  0  0
 11 14  1  0  0  0  0
  9 10  1  0  0  0  0
  9 11  1  0  0  0  0
  9 22  1  0  0  0  0
  7  8  1  0  0  0  0
  7  9  1  0  0  0  0
 26 27  1  0  0  0  0
 26 28  1  0  0  0  0
 26 29  1  0  0  0  0
 24 25  1  0  0  0  0
 24 26  1  0  0  0  0
M  END
$$$$
default_name
  -OEChem-01062215323D

 29 28  0     1  0  0  0  0  0999 V2000
   -3.5781   -3.7296    1.2702 H   0  0  0  0  0  0  0  0  0  0  0  0
   -3.5311   -2.7616    0.7732 C   0  0  0  0  0  0  0  0  0  0  0  0
   -4.2371   -2.0766    1.2382 H   0  0  0  0  0  0  0  0  0  0  0  0
   -3.7681   -2.8816   -0.2818 H   0  0  0  0  0  0  0  0  0  0  0  0
   -2.1321   -2.2086    0.9112 C   0  0  0  0  0  0  0  0  0  0  0  0
   -1.2751   -2.8426    1.5112 O   0  0  0  0  0  0  0  0  0  0  0  0
   -1.9041   -1.0186    0.3602 N   0  0  0  0  0  0  0  0  0  0  0  0
   -2.6671   -0.5416   -0.0988 H   0  0  0  0  0  0  0  0  0  0  0  0
   -0.6131   -0.3236    0.3832 C   0  0  1  0  0  0  0  0  0  0  0  0
   -0.6776    0.5071    1.0878 H   0  0  0  0  0  0  0  0  0  0  0  0
    0.4732   -1.2948    0.8808 C   0  0  0  0  0  0  0  0  0  0  0  0
    0.4552   -2.1911    0.2570 H   0  0  0  0  0  0  0  0  0  0  0  0
    1.4520   -0.8250    0.7744 H   0  0  0  0  0  0  0  0  0  0  0  0
    0.2907   -1.7211    2.3420 C   0  0  0  0  0  0  0  0  0  0  0  0
   -0.6742   -2.2151    2.4524 H   0  0  0  0  0  0  0  0  0  0  0  0
    1.0788   -2.4290    2.6014 H   0  0  0  0  0  0  0  0  0  0  0  0
    0.3530   -0.3417    3.5138 S   0  0  0  0  0  0  0  0  0  0  0  0
    2.1042    0.1018    3.3773 C   0  0  0  0  0  0  0  0  0  0  0  0
    2.3319    0.3883    2.3501 H   0  0  0  0  0  0  0  0  0  0  0  0
    2.3171    0.9412    4.0397 H   0  0  0  0  0  0  0  0  0  0  0  0
    2.7225   -0.7487    3.6657 H   0  0  0  0  0  0  0  0  0  0  0  0
   -0.2869    0.2493   -1.0033 C   0  0  0  0  0  0  0  0  0  0  0  0
    0.3837    1.2747   -1.1046 O   0  0  0  0  0  0  0  0  0  0  0  0
   -0.7667   -0.4051   -2.0686 N   0  0  0  0  0  0  0  0  0  0  0  0
   -1.2957   -1.2474   -1.9079 H   0  0  0  0  0  0  0  0  0  0  0  0
   -0.5563    0.0211   -3.4513 C   0  0  0  0  0  0  0  0  0  0  0  0
    0.5147    0.0819   -3.6584 H   0  0  0  0  0  0  0  0  0  0  0  0
   -1.0159   -0.6874   -4.1417 H   0  0  0  0  0  0  0  0  0  0  0  0
   -0.9940    1.0094   -3.6027 H   0  0  0  0  0  0  0  0  0  0  0  0
  5  6  2  0  0  0  0
  5  7  1  0  0  0  0
  2  3  1  0  0  0  0
  2  4  1  0  0  0  0
  2  5  1  0  0  0  0
  1  2  1  0  0  0  0
 22 23  2  0  0  0  0
 22 24  1  0  0  0  0
 18 19  1  0  0  0  0
 18 20  1  0  0  0  0
 18 21  1  0  0  0  0
 17 18  1  0  0  0  0
 14 15  1  0  0  0  0
 14 16  1  0  0  0  0
 14 17  1  0  0  0  0
 11 12  1  0  0  0  0
 11 13  1  0  0  0  0
 11 14  1  0  0  0  0
  9 10  1  0  0  0  0
  9 11  1  0  0  0  0
  9 22  1  0  0  0  0
  7  8  1  0  0  0  0
  7  9  1  0  0  0  0
 26 27  1  0  0  0  0
 26 28  1  0  0  0  0
 26 29  1  0  0  0  0
 24 25  1  0  0  0  0
 24 26  1  0  0  0  0
M  END
$$$$
default_name
  -OEChem-01062215323D

 29 28  0     1  0  0  0  0  0999 V2000
   -3.5781   -3.7296    1.2702 H   0  0  0  0  0  0  0  0  0  0  0  0
   -3.5311   -2.7616    0.7732 C   0  0  0  0  0  0  0  0  0  0  0  0
   -4.2371   -2.0766    1.2382 H   0  0  0  0  0  0  0  0  0  0  0  0
   -3.7681   -2.8816   -0.2818 H   0  0  0  0  0  0  0  0  0  0  0  0
   -2.1321   -2.2086    0.9112 C   0  0  0  0  0  0  0  0  0  0  0  0
   -1.2751   -2.8426    1.5112 O   0  0  0  0  0  0  0  0  0  0  0  0
   -1.9041   -1.0186    0.3602 N   0  0  0  0  0  0  0  0  0  0  0  0
   -2.6671   -0.5416   -0.0988 H   0  0  0  0  0  0  0  0  0  0  0  0
   -0.6131   -0.3236    0.3832 C   0  0  1  0  0  0  0  0  0  0  0  0
   -0.6776    0.5071    1.0878 H   0  0  0  0  0  0  0  0  0  0  0  0
    0.4732   -1.2948    0.8808 C   0  0  0  0  0  0  0  0  0  0  0  0
    0.4552   -2.1911    0.2570 H   0  0  0  0  0  0  0  0  0  0  0  0
    1.4520   -0.8250    0.7744 H   0  0  0  0  0  0  0  0  0  0  0  0
    0.2907   -1.7211    2.3420 C   0  0  0  0  0  0  0  0  0  0  0  0
   -0.6742   -2.2151    2.4524 H   0  0  0  0  0  0  0  0  0  0  0  0
    1.0788   -2.4290    2.6014 H   0  0  0  0  0  0  0  0  0  0  0  0
    0.3530   -0.3417    3.5138 S   0  0  0  0  0  0  0  0  0  0  0  0
    2.1042    0.1018    3.3773 C   0  0  0  0  0  0  0  0  0  0  0  0
    2.3319    0.3883    2.3501 H   0  0  0  0  0  0  0  0  0  0  0  0
    2.3171    0.9412    4.0397 H   0  0  0  0  0  0  0  0  0  0  0  0
    2.7225   -0.7487    3.6657 H   0  0  0  0  0  0  0  0  0  0  0  0
   -0.2869    0.2493   -1.0033 C   0  0  0  0  0  0  0  0  0  0  0  0
    0.5952    1.0964   -1.1285 O   0  0  0  0  0  0  0  0  0  0  0  0
   -1.0018   -0.2042   -2.0409 N   0  0  0  0  0  0  0  0  0  0  0  0
   -1.6982   -0.9103   -1.8633 H   0  0  0  0  0  0  0  0  0  0  0  0
   -0.8219    0.2528   -3.4181 C   0  0  0  0  0  0  0  0  0  0  0  0
    0.2100    0.0781   -3.7317 H   0  0  0  0  0  0  0  0  0  0  0  0
   -1.4963   -0.2828   -4.0875 H   0  0  0  0  0  0  0  0  0  0  0  0
   -1.0254    1.3233   -3.4804 H   0  0  0  0  0  0  0  0  0  0  0  0
  5  6  2  0  0  0  0
  5  7  1  0  0  0  0
  2  3  1  0  0  0  0
  2  4  1  0  0  0  0
  2  5  1  0  0  0  0
  1  2  1  0  0  0  0
 22 23  2  0  0  0  0
 22 24  1  0  0  0  0
 18 19  1  0  0  0  0
 18 20  1  0  0  0  0
 18 21  1  0  0  0  0
 17 18  1  0  0  0  0
 14 15  1  0  0  0  0
 14 16  1  0  0  0  0
 14 17  1  0  0  0  0
 11 12  1  0  0  0  0
 11 13  1  0  0  0  0
 11 14  1  0  0  0  0
  9 10  1  0  0  0  0
  9 11  1  0  0  0  0
  9 22  1  0  0  0  0
  7  8  1  0  0  0  0
  7  9  1  0  0  0  0
 26 27  1  0  0  0  0
 26 28  1  0  0  0  0
 26 29  1  0  0  0  0
 24 25  1  0  0  0  0
 24 26  1  0  0  0  0
M  END
$$$$
default_name
  -OEChem-01062215323D

 29 28  0     1  0  0  0  0  0999 V2000
   -3.5781   -3.7296    1.2702 H   0  0  0  0  0  0  0  0  0  0  0  0
   -3.5311   -2.7616    0.7732 C   0  0  0  0  0  0  0  0  0  0  0  0
   -4.2371   -2.0766    1.2382 H   0  0  0  0  0  0  0  0  0  0  0  0
   -3.7681   -2.8816   -0.2818 H   0  0  0  0  0  0  0  0  0  0  0  0
   -2.1321   -2.2086    0.9112 C   0  0  0  0  0  0  0  0  0  0  0  0
   -1.2751   -2.8426    1.5112 O   0  0  0  0  0  0  0  0  0  0  0  0
   -1.9041   -1.0186    0.3602 N   0  0  0  0  0  0  0  0  0  0  0  0
   -2.6671   -0.5416   -0.0988 H   0  0  0  0  0  0  0  0  0  0  0  0
   -0.6131   -0.3236    0.3832 C   0  0  1  0  0  0  0  0  0  0  0  0
   -0.6776    0.5071    1.0878 H   0  0  0  0  0  0  0  0  0  0  0  0
    0.4732   -1.2948    0.8808 C   0  0  0  0  0  0  0  0  0  0  0  0
    0.4552   -2.1911    0.2570 H   0  0  0  0  0  0  0  0  0  0  0  0
    1.4520   -0.8250    0.7744 H   0  0  0  0  0  0  0  0  0  0  0  0
    0.2907   -1.7211    2.3420 C   0  0  0  0  0  0  0  0  0  0  0  0
   -0.6742   -2.2151    2.4524 H   0  0  0  0  0  0  0  0  0  0  0  0
    1.0788   -2.4290    2.6014 H   0  0  0  0  0  0  0  0  0  0  0  0
    0.3530   -0.3417    3.5138 S   0  0  0  0  0  0  0  0  0  0  0  0
    2.1042    0.1018    3.3773 C   0  0  0  0  0  0  0  0  0  0  0  0
    2.3319    0.3883    2.3501 H   0  0  0  0  0  0  0  0  0  0  0  0
    2.3171    0.9412    4.0397 H   0  0  0  0  0  0  0  0  0  0  0  0
    2.7225   -0.7487    3.6657 H   0  0  0  0  0  0  0  0  0  0  0  0
   -0.2869    0.2493   -1.0033 C   0  0  0  0  0  0  0  0  0  0  0  0
    0.7555    0.8761   -1.1818 O   0  0  0  0  0  0  0  0  0  0  0  0
   -1.1792    0.0432   -1.9804 N   0  0  0  0  0  0  0  0  0  0  0  0
   -2.0039   -0.4930   -1.7628 H   0  0  0  0  0  0  0  0  0  0  0  0
   -1.0212    0.5368   -3.3476 C   0  0  0  0  0  0  0  0  0  0  0  0
   -0.0924    0.1497   -3.7732 H   0  0  0  0  0  0  0  0  0  0  0  0
   -1.8605    0.2172   -3.9666 H   0  0  0  0  0  0  0  0  0  0  0  0
   -0.9705    1.6271   -3.3419 H   0  0  0  0  0  0  0  0  0  0  0  0
  5  6  2  0  0  0  0
  5  7  1  0  0  0  0
  2  3  1  0  0  0  0
  2  4  1  0  0  0  0
  2  5  1  0  0  0  0
  1  2  1  0  0  0  0
 22 23  2  0  0  0  0
 22 24  1  0  0  0  0
 18 19  1  0  0  0  0
 18 20  1  0  0  0  0
 18 21  1  0  0  0  0
 17 18  1  0  0  0  0
 14 15  1  0  0  0  0
 14 16  1  0  0  0  0
 14 17  1  0  0  0  0
 11 12  1  0  0  0  0
 11 13  1  0  0  0  0
 11 14  1  0  0  0  0
  9 10  1  0  0  0  0
  9 11  1  0  0  0  0
  9 22  1  0  0  0  0
  7  8  1  0  0  0  0
  7  9  1  0  0  0  0
 26 27  1  0  0  0  0
 26 28  1  0  0  0  0
 26 29  1  0  0  0  0
 24 25  1  0  0  0  0
 24 26  1  0  0  0  0
M  END
$$$$
default_name
  -OEChem-01062215323D

 29 28  0     1  0  0  0  0  0999 V2000
   -3.5781   -3.7296    1.2702 H   0  0  0  0  0  0  0  0  0  0  0  0
   -3.5311   -2.7616    0.7732 C   0  0  0  0  0  0  0  0  0  0  0  0
   -4.2371   -2.0766    1.2382 H   0  0  0  0  0  0  0  0  0  0  0  0
   -3.7681   -2.8816   -0.2818 H   0  0  0  0  0  0  0  0  0  0  0  0
   -2.1321   -2.2086    0.9112 C   0  0  0  0  0  0  0  0  0  0  0  0
   -1.2751   -2.8426    1.5112 O   0  0  0  0  0  0  0  0  0  0  0  0
   -1.9041   -1.0186    0.3602 N   0  0  0  0  0  0  0  0  0  0  0  0
   -2.6671   -0.5416   -0.0988 H   0  0  0  0  0  0  0  0  0  0  0  0
   -0.6131   -0.3236    0.3832 C   0  0  1  0  0  0  0  0  0  0  0  0
   -0.6776    0.5071    1.0878 H   0  0  0  0  0  0  0  0  0  0  0  0
    0.4732   -1.2948    0.8808 C   0  0  0  0  0  0  0  0  0  0  0  0
    0.4552   -2.1911    0.2570 H   0  0  0  0  0  0  0  0  0  0  0  0
    1.4520   -0.8250    0.7744 H   0  0  0  0  0  0  0  0  0  0  0  0
    0.2907   -1.7211    2.3420 C   0  0  0  0  0  0  0  0  0  0  0  0
   -0.6742   -2.2151    2.4524 H   0  0  0  0  0  0  0  0  0  0  0  0
    1.0788   -2.4290    2.6014 H   0  0  0  0  0  0  0  0  0  0  0  0
    0.3530   -0.3417    3.5138 S   0  0  0  0  0  0  0  0  0  0  0  0
    2.1042    0.1018    3.3773 C   0  0  0  0  0  0  0  0  0  0  0  0
    2.3319    0.3883    2.3501 H   0  0  0  0  0  0  0  0  0  0  0  0
    2.3171    0.9412    4.0397 H   0  0  0  0  0  0  0  0  0  0  0  0
    2.7225   -0.7487    3.6657 H   0  0  0  0  0  0  0  0  0  0  0  0
   -0.2869    0.2493   -1.0033 C   0  0  0  0  0  0  0  0  0  0  0  0
    0.8537    0.6288   -1.2609 O   0  0  0  0  0  0  0  0  0  0  0  0
   -1.2869    0.3204   -1.8912 N   0  0  0  0  0  0  0  0  0  0  0  0
   -2.1920   -0.0241   -1.6132 H   0  0  0  0  0  0  0  0  0  0  0  0
   -1.1404    0.8539   -3.2446 C   0  0  0  0  0  0  0  0  0  0  0  0
   -0.3717    0.2918   -3.7802 H   0  0  0  0  0  0  0  0  0  0  0  0
   -2.0837    0.7787   -3.7871 H   0  0  0  0  0  0  0  0  0  0  0  0
   -0.8330    1.9001   -3.1968 H   0  0  0  0  0  0  0  0  0  0  0  0
  5  6  2  0  0  0  0
  5  7  1  0  0  0  0
  2  3  1  0  0  0  0
  2  4  1  0  0  0  0
  2  5  1  0  0  0  0
  1  2  1  0  0  0  0
 22 23  2  0  0  0  0
 22 24  1  0  0  0  0
 18 19  1  0  0  0  0
 18 20  1  0  0  0  0
 18 21  1  0  0  0  0
 17 18  1  0  0  0  0
 14 15  1  0  0  0  0
 14 16  1  0  0  0  0
 14 17  1  0  0  0  0
 11 12  1  0  0  0  0
 11 13  1  0  0  0  0
 11 14  1  0  0  0  0
  9 10  1  0  0  0  0
  9 11  1  0  0  0  0
  9 22  1  0  0  0  0
  7  8  1  0  0  0  0
  7  9  1  0  0  0  0
 26 27  1  0  0  0  0
 26 28  1  0  0  0  0
 26 29  1  0  0  0  0
 24 25  1  0  0  0  0
 24 26  1  0  0  0  0
M  END
$$$$
default_name
  -OEChem-01062215323D

 29 28  0     1  0  0  0  0  0999 V2000
   -3.5781   -3.7296    1.2702 H   0  0  0  0  0  0  0  0  0  0  0  0
   -3.5311   -2.7616    0.7732 C   0  0  0  0  0  0  0  0  0  0  0  0
   -4.2371   -2.0766    1.2382 H   0  0  0  0  0  0  0  0  0  0  0  0
   -3.7681   -2.8816   -0.2818 H   0  0  0  0  0  0  0  0  0  0  0  0
   -2.1321   -2.2086    0.9112 C   0  0  0  0  0  0  0  0  0  0  0  0
   -1.2751   -2.8426    1.5112 O   0  0  0  0  0  0  0  0  0  0  0  0
   -1.9041   -1.0186    0.3602 N   0  0  0  0  0  0  0  0  0  0  0  0
   -2.6671   -0.5416   -0.0988 H   0  0  0  0  0  0  0  0  0  0  0  0
   -0.6131   -0.3236    0.3832 C   0  0  1  0  0  0  0  0  0  0  0  0
   -0.6776    0.5071    1.0878 H   0  0  0  0  0  0  0  0  0  0  0  0
    0.4732   -1.2948    0.8808 C   0  0  0  0  0  0  0  0  0  0  0  0
    0.4552   -2.1911    0.2570 H   0  0  0  0  0  0  0  0  0  0  0  0
    1.4520   -0.8250    0.7744 H   0  0  0  0  0  0  0  0  0  0  0  0
    0.2907   -1.7211    2.3420 C   0  0  0  0  0  0  0  0  0  0  0  0
   -0.6742   -2.2151    2.4524 H   0  0  0  0  0  0  0  0  0  0  0  0
    1.0788   -2.4290    2.6014 H   0  0  0  0  0  0  0  0  0  0  0  0
    0.3530   -0.3417    3.5138 S   0  0  0  0  0  0  0  0  0  0  0  0
    2.1042    0.1018    3.3773 C   0  0  0  0  0  0  0  0  0  0  0  0
    2.3319    0.3883    2.3501 H   0  0  0  0  0  0  0  0  0  0  0  0
    2.3171    0.9412    4.0397 H   0  0  0  0  0  0  0  0  0  0  0  0
    2.7225   -0.7487    3.6657 H   0  0  0  0  0  0  0  0  0  0  0  0
   -0.2869    0.2493   -1.0033 C   0  0  0  0  0  0  0  0  0  0  0  0
    0.8832    0.3712   -1.3604 O   0  0  0  0  0  0  0  0  0  0  0  0
   -1.3175    0.6084   -1.7794 N   0  0  0  0  0  0  0  0  0  0  0  0
   -2.2496    0.4646   -1.4248 H   0  0  0  0  0  0  0  0  0  0  0  0
   -1.1715    1.1823   -3.1162 C   0  0  0  0  0  0  0  0  0  0  0  0
   -0.6089    0.4948   -3.7521 H   0  0  0  0  0  0  0  0  0  0  0  0
   -2.1508    1.3634   -3.5613 H   0  0  0  0  0  0  0  0  0  0  0  0
   -0.6225    2.1237   -3.0549 H   0  0  0  0  0  0  0  0  0  0  0  0
  5  6  2  0  0  0  0
  5  7  1  0  0  0  0
  2  3  1  0  0  0  0
  2  4  1  0  0  0  0
  2  5  1  0  0  0  0
  1  2  1  0  0  0  0
 22 23  2  0  0  0  0
 22 24  1  0  0  0  0
 18 19  1  0  0  0  0
 18 20  1  0  0  0  0
 18 21  1  0  0  0  0
 17 18  1  0  0  0  0
 14 15  1  0  0  0  0
 14 16  1  0  0  0  0
 14 17  1  0  0  0  0
 11 12  1  0  0  0  0
 11 13  1  0  0  0  0
 11 14  1  0  0  0  0
  9 10  1  0  0  0  0
  9 11  1  0  0  0  0
  9 22  1  0  0  0  0
  7  8  1  0  0  0  0
  7  9  1  0  0  0  0
 26 27  1  0  0  0  0
 26 28  1  0  0  0  0
 26 29  1  0  0  0  0
 24 25  1  0  0  0  0
 24 26  1  0  0  0  0
M  END
$$$$
default_name
  -OEChem-01062215323D

 29 28  0     1  0  0  0  0  0999 V2000
   -3.5781   -3.7296    1.2702 H   0  0  0  0  0  0  0  0  0  0  0  0
   -3.5311   -2.7616    0.7732 C   0  0  0  0  0  0  0  0  0  0  0  0
   -4.2371   -2.0766    1.2382 H   0  0  0  0  0  0  0  0  0  0  0  0
   -3.7681   -2.8816   -0.2818 H   0  0  0  0  0  0  0  0  0  0  0  0
   -2.1321   -2.2086    0.9112 C   0  0  0  0  0  0  0  0  0  0  0  0
   -1.2751   -2.8426    1.5112 O   0  0  0  0  0  0  0  0  0  0  0  0
   -1.9041   -1.0186    0.3602 N   0  0  0  0  0  0  0  0  0  0  0  0
   -2.6671   -0.5416   -0.0988 H   0  0  0  0  0  0  0  0  0  0  0  0
   -0.6131   -0.3236    0.3832 C   0  0  1  0  0  0  0  0  0  0  0  0
   -0.6776    0.5071    1.0878 H   0  0  0  0  0  0  0  0  0  0  0  0
    0.4732   -1.2948    0.8808 C   0  0  0  0  0  0  0  0  0  0  0  0
    0.4552   -2.1911    0.2570 H   0  0  0  0  0  0  0  0  0  0  0  0
    1.4520   -0.8250    0.7744 H   0  0  0  0  0  0  0  0  0  0  0  0
    0.2907   -1.7211    2.3420 C   0  0  0  0  0  0  0  0  0  0  0  0
   -0.6742   -2.2151    2.4524 H   0  0  0  0  0  0  0  0  0  0  0  0
    1.0788   -2.4290    2.6014 H   0  0  0  0  0  0  0  0  0  0  0  0
    0.3530   -0.3417    3.5138 S   0  0  0  0  0  0  0  0  0  0  0  0
    2.1042    0.1018    3.3773 C   0  0  0  0  0  0  0  0  0  0  0  0
    2.3319    0.3883    2.3501 H   0  0  0  0  0  0  0  0  0  0  0  0
    2.3171    0.9412    4.0397 H   0  0  0  0  0  0  0  0  0  0  0  0
    2.7225   -0.7487    3.6657 H   0  0  0  0  0  0  0  0  0  0  0  0
   -0.2869    0.2493   -1.0033 C   0  0  0  0  0  0  0  0  0  0  0  0
    0.8418    0.1211   -1.4735 O   0  0  0  0  0  0  0  0  0  0  0  0
   -1.2690    0.8876   -1.6527 N   0  0  0  0  0  0  0  0  0  0  0  0
   -2.1727    0.9398   -1.2104 H   0  0  0  0  0  0  0  0  0  0  0  0
   -1.1124    1.4998   -2.9711 C   0  0  0  0  0  0  0  0  0  0  0  0
   -0.7879    0.7447   -3.6910 H   0  0  0  0  0  0  0  0  0  0  0  0
   -2.0570    1.9314   -3.3045 H   0  0  0  0  0  0  0  0  0  0  0  0
   -0.3531    2.2826   -2.9258 H   0  0  0  0  0  0  0  0  0  0  0  0
  5  6  2  0  0  0  0
  5  7  1  0  0  0  0
  2  3  1  0  0  0  0
  2  4  1  0  0  0  0
  2  5  1  0  0  0  0
  1  2  1  0  0  0  0
 22 23  2  0  0  0  0
 22 24  1  0  0  0  0
 18 19  1  0  0  0  0
 18 20  1  0  0  0  0
 18 21  1  0  0  0  0
 17 18  1  0  0  0  0
 14 15  1  0  0  0  0
 14 16  1  0  0  0  0
 14 17  1  0  0  0  0
 11 12  1  0  0  0  0
 11 13  1  0  0  0  0
 11 14  1  0  0  0  0
  9 10  1  0  0  0  0
  9 11  1  0  0  0  0
  9 22  1  0  0  0  0
  7  8  1  0  0  0  0
  7  9  1  0  0  0  0
 26 27  1  0  0  0  0
 26 28  1  0  0  0  0
 26 29  1  0  0  0  0
 24 25  1  0  0  0  0
 24 26  1  0  0  0  0
M  END
$$$$
default_name
  -OEChem-01062215323D

 29 28  0     1  0  0  0  0  0999 V2000
   -3.5781   -3.7296    1.2702 H   0  0  0  0  0  0  0  0  0  0  0  0
   -3.5311   -2.7616    0.7732 C   0  0  0  0  0  0  0  0  0  0  0  0
   -4.2371   -2.0766    1.2382 H   0  0  0  0  0  0  0  0  0  0  0  0
   -3.7681   -2.8816   -0.2818 H   0  0  0  0  0  0  0  0  0  0  0  0
   -2.1321   -2.2086    0.9112 C   0  0  0  0  0  0  0  0  0  0  0  0
   -1.2751   -2.8426    1.5112 O   0  0  0  0  0  0  0  0  0  0  0  0
   -1.9041   -1.0186    0.3602 N   0  0  0  0  0  0  0  0  0  0  0  0
   -2.6671   -0.5416   -0.0988 H   0  0  0  0  0  0  0  0  0  0  0  0
   -0.6131   -0.3236    0.3832 C   0  0  1  0  0  0  0  0  0  0  0  0
   -0.6776    0.5071    1.0878 H   0  0  0  0  0  0  0  0  0  0  0  0
    0.4732   -1.2948    0.8808 C   0  0  0  0  0  0  0  0  0  0  0  0
    0.4552   -2.1911    0.2570 H   0  0  0  0  0  0  0  0  0  0  0  0
    1.4520   -0.8250    0.7744 H   0  0  0  0  0  0  0  0  0  0  0  0
    0.2907   -1.7211    2.3420 C   0  0  0  0  0  0  0  0  0  0  0  0
   -0.6742   -2.2151    2.4524 H   0  0  0  0  0  0  0  0  0  0  0  0
    1.0788   -2.4290    2.6014 H   0  0  0  0  0  0  0  0  0  0  0  0
    0.3530   -0.3417    3.5138 S   0  0  0  0  0  0  0  0  0  0  0  0
    2.1042    0.1018    3.3773 C   0  0  0  0  0  0  0  0  0  0  0  0
    2.3319    0.3883    2.3501 H   0  0  0  0  0  0  0  0  0  0  0  0
    2.3171    0.9412    4.0397 H   0  0  0  0  0  0  0  0  0  0  0  0
    2.7225   -0.7487    3.6657 H   0  0  0  0  0  0  0  0  0  0  0  0
   -0.2869    0.2493   -1.0033 C   0  0  0  0  0  0  0  0  0  0  0  0
    0.7324   -0.1047   -1.5925 O   0  0  0  0  0  0  0  0  0  0  0  0
   -1.1446    1.1389   -1.5195 N   0  0  0  0  0  0  0  0  0  0  0  0
   -1.9668    1.3690   -0.9846 H   0  0  0  0  0  0  0  0  0  0  0  0
   -0.9670    1.7847   -2.8192 C   0  0  0  0  0  0  0  0  0  0  0  0
   -0.8965    1.0246   -3.6009 H   0  0  0  0  0  0  0  0  0  0  0  0
   -1.8089    2.4440   -3.0343 H   0  0  0  0  0  0  0  0  0  0  0  0
   -0.0433    2.3661   -2.8184 H   0  0  0  0  0  0  0  0  0  0  0  0
  5  6  2  0  0  0  0
  5  7  1  0  0  0  0
  2  3  1  0  0  0  0
  2  4  1  0  0  0  0
  2  5  1  0  0  0  0
  1  2  1  0  0  0  0
 22 23  2  0  0  0  0
 22 24  1  0  0  0  0
 18 19  1  0  0  0  0
 18 20  1  0  0  0  0
 18 21  1  0  0  0  0
 17 18  1  0  0  0  0
 14 15  1  0  0  0  0
 14 16  1  0  0  0  0
 14 17  1  0  0  0  0
 11 12  1  0  0  0  0
 11 13  1  0  0  0  0
 11 14  1  0  0  0  0
  9 10  1  0  0  0  0
  9 11  1  0  0  0  0
  9 22  1  0  0  0  0
  7  8  1  0  0  0  0
  7  9  1  0  0  0  0
 26 27  1  0  0  0  0
 26 28  1  0  0  0  0
 26 29  1  0  0  0  0
 24 25  1  0  0  0  0
 24 26  1  0  0  0  0
M  END
$$$$
default_name
  -OEChem-01062215323D

 29 28  0     1  0  0  0  0  0999 V2000
   -3.5781   -3.7296    1.2702 H   0  0  0  0  0  0  0  0  0  0  0  0
   -3.5311   -2.7616    0.7732 C   0  0  0  0  0  0  0  0  0  0  0  0
   -4.2371   -2.0766    1.2382 H   0  0  0  0  0  0  0  0  0  0  0  0
   -3.7681   -2.8816   -0.2818 H   0  0  0  0  0  0  0  0  0  0  0  0
   -2.1321   -2.2086    0.9112 C   0  0  0  0  0  0  0  0  0  0  0  0
   -1.2751   -2.8426    1.5112 O   0  0  0  0  0  0  0  0  0  0  0  0
   -1.9041   -1.0186    0.3602 N   0  0  0  0  0  0  0  0  0  0  0  0
   -2.6671   -0.5416   -0.0988 H   0  0  0  0  0  0  0  0  0  0  0  0
   -0.6131   -0.3236    0.3832 C   0  0  1  0  0  0  0  0  0  0  0  0
   -0.6776    0.5071    1.0878 H   0  0  0  0  0  0  0  0  0  0  0  0
    0.4732   -1.2948    0.8808 C   0  0  0  0  0  0  0  0  0  0  0  0
    0.4552   -2.1911    0.2570 H   0  0  0  0  0  0  0  0  0  0  0  0
    1.4520   -0.8250    0.7744 H   0  0  0  0  0  0  0  0  0  0  0  0
    0.2907   -1.7211    2.3420 C   0  0  0  0  0  0  0  0  0  0  0  0
   -0.6742   -2.2151    2.4524 H   0  0  0  0  0  0  0  0  0  0  0  0
    1.0788   -2.4290    2.6014 H   0  0  0  0  0  0  0  0  0  0  0  0
    0.3530   -0.3417    3.5138 S   0  0  0  0  0  0  0  0  0  0  0  0
    2.1042    0.1018    3.3773 C   0  0  0  0  0  0  0  0  0  0  0  0
    2.3319    0.3883    2.3501 H   0  0  0  0  0  0  0  0  0  0  0  0
    2.3171    0.9412    4.0397 H   0  0  0  0  0  0  0  0  0  0  0  0
    2.7225   -0.7487    3.6657 H   0  0  0  0  0  0  0  0  0  0  0  0
   -0.2869    0.2493   -1.0033 C   0  0  0  0  0  0  0  0  0  0  0  0
    0.5625   -0.2906   -1.7093 O   0  0  0  0  0  0  0  0  0  0  0  0
   -0.9528    1.3453   -1.3891 N   0  0  0  0  0  0  0  0  0  0  0  0
   -1.6457    1.7231   -0.7628 H   0  0  0  0  0  0  0  0  0  0  0  0
   -0.7454    2.0175   -2.6709 C   0  0  0  0  0  0  0  0  0  0  0  0
   -0.9272    1.3154   -3.4880 H   0  0  0  0  0  0  0  0  0  0  0  0
   -1.4234    2.8663   -2.7691 H   0  0  0  0  0  0  0  0  0  0  0  0
    0.2858    2.3684   -2.7401 H   0  0  0  0  0  0  0  0  0  0  0  0
  5  6  2  0  0  0  0
  5  7  1  0  0  0  0
  2  3  1  0  0  0  0
  2  4  1  0  0  0  0
  2  5  1  0  0  0  0
  1  2  1  0  0  0  0
 22 23  2  0  0  0  0
 22 24  1  0  0  0  0
 18 19  1  0  0  0  0
 18 20  1  0  0  0  0
 18 21  1  0  0  0  0
 17 18  1  0  0  0  0
 14 15  1  0  0  0  0
 14 16  1  0  0  0  0
 14 17  1  0  0  0  0
 11 12  1  0  0  0  0
 11 13  1  0  0  0  0
 11 14  1  0  0  0  0
  9 10  1  0  0  0  0
  9 11  1  0  0  0  0
  9 22  1  0  0  0  0
  7  8  1  0  0  0  0
  7  9  1  0  0  0  0
 26 27  1  0  0  0  0
 26 28  1  0  0  0  0
 26 29  1  0  0  0  0
 24 25  1  0  0  0  0
 24 26  1  0  0  0  0
M  END
$$$$
default_name
  -OEChem-01062215323D

 29 28  0     1  0  0  0  0  0999 V2000
   -3.5781   -3.7296    1.2702 H   0  0  0  0  0  0  0  0  0  0  0  0
   -3.5311   -2.7616    0.7732 C   0  0  0  0  0  0  0  0  0  0  0  0
   -4.2371   -2.0766    1.2382 H   0  0  0  0  0  0  0  0  0  0  0  0
   -3.7681   -2.8816   -0.2818 H   0  0  0  0  0  0  0  0  0  0  0  0
   -2.1321   -2.2086    0.9112 C   0  0  0  0  0  0  0  0  0  0  0  0
   -1.2751   -2.8426    1.5112 O   0  0  0  0  0  0  0  0  0  0  0  0
   -1.9041   -1.0186    0.3602 N   0  0  0  0  0  0  0  0  0  0  0  0
   -2.6671   -0.5416   -0.0988 H   0  0  0  0  0  0  0  0  0  0  0  0
   -0.6131   -0.3236    0.3832 C   0  0  1  0  0  0  0  0  0  0  0  0
   -0.6776    0.5071    1.0878 H   0  0  0  0  0  0  0  0  0  0  0  0
    0.4732   -1.2948    0.8808 C   0  0  0  0  0  0  0  0  0  0  0  0
    0.4552   -2.1911    0.2570 H   0  0  0  0  0  0  0  0  0  0  0  0
    1.4520   -0.8250    0.7744 H   0  0  0  0  0  0  0  0  0  0  0  0
    0.2907   -1.7211    2.3420 C   0  0  0  0  0  0  0  0  0  0  0  0
   -0.6742   -2.2151    2.4524 H   0  0  0  0  0  0  0  0  0  0  0  0
    1.0788   -2.4290    2.6014 H   0  0  0  0  0  0  0  0  0  0  0  0
    0.3530   -0.3417    3.5138 S   0  0  0  0  0  0  0  0  0  0  0  0
    2.1042    0.1018    3.3773 C   0  0  0  0  0  0  0  0  0  0  0  0
    2.3319    0.3883    2.3501 H   0  0  0  0  0  0  0  0  0  0  0  0
    2.3171    0.9412    4.0397 H   0  0  0  0  0  0  0  0  0  0  0  0
    2.7225   -0.7487    3.6657 H   0  0  0  0  0  0  0  0  0  0  0  0
   -0.2869    0.2493   -1.0033 C   0  0  0  0  0  0  0  0  0  0  0  0
    0.3436   -0.4241   -1.8159 O   0  0  0  0  0  0  0  0  0  0  0  0
   -0.7068    1.4927   -1.2704 N   0  0  0  0  0  0  0  0  0  0  0  0
   -1.2314    1.9778   -0.5600 H   0  0  0  0  0  0  0  0  0  0  0  0
   -0.4626    2.1824   -2.5362 C   0  0  0  0  0  0  0  0  0  0  0  0
   -0.8781    1.5972   -3.3599 H   0  0  0  0  0  0  0  0  0  0  0  0
   -0.9267    3.1695   -2.5270 H   0  0  0  0  0  0  0  0  0  0  0  0
    0.6118    2.2894   -2.6960 H   0  0  0  0  0  0  0  0  0  0  0  0
  5  6  2  0  0  0  0
  5  7  1  0  0  0  0
  2  3  1  0  0  0  0
  2  4  1  0  0  0  0
  2  5  1  0  0  0  0
  1  2  1  0  0  0  0
 22 23  2  0  0  0  0
 22 24  1  0  0  0  0
 18 19  1  0  0  0  0
 18 20  1  0  0  0  0
 18 21  1  0  0  0  0
 17 18  1  0  0  0  0
 14 15  1  0  0  0  0
 14 16  1  0  0  0  0
 14 17  1  0  0  0  0
 11 12  1  0  0  0  0
 11 13  1  0  0  0  0
 11 14  1  0  0  0  0
  9 10  1  0  0  0  0
  9 11  1  0  0  0  0
  9 22  1  0  0  0  0
  7  8  1  0  0  0  0
  7  9  1  0  0  0  0
 26 27  1  0  0  0  0
 26 28  1  0  0  0  0
 26 29  1  0  0  0  0
 24 25  1  0  0  0  0
 24 26  1  0  0  0  0
M  END
$$$$
default_name
  -OEChem-01062215323D

 29 28  0     1  0  0  0  0  0999 V2000
   -3.5781   -3.7296    1.2702 H   0  0  0  0  0  0  0  0  0  0  0  0
   -3.5311   -2.7616    0.7732 C   0  0  0  0  0  0  0  0  0  0  0  0
   -4.2371   -2.0766    1.2382 H   0  0  0  0  0  0  0  0  0  0  0  0
   -3.7681   -2.8816   -0.2818 H   0  0  0  0  0  0  0  0  0  0  0  0
   -2.1321   -2.2086    0.9112 C   0  0  0  0  0  0  0  0  0  0  0  0
   -1.2751   -2.8426    1.5112 O   0  0  0  0  0  0  0  0  0  0  0  0
   -1.9041   -1.0186    0.3602 N   0  0  0  0  0  0  0  0  0  0  0  0
   -2.6671   -0.5416   -0.0988 H   0  0  0  0  0  0  0  0  0  0  0  0
   -0.6131   -0.3236    0.3832 C   0  0  1  0  0  0  0  0  0  0  0  0
   -0.6776    0.5071    1.0878 H   0  0  0  0  0  0  0  0  0  0  0  0
    0.4732   -1.2948    0.8808 C   0  0  0  0  0  0  0  0  0  0  0  0
    0.4552   -2.1911    0.2570 H   0  0  0  0  0  0  0  0  0  0  0  0
    1.4520   -0.8250    0.7744 H   0  0  0  0  0  0  0  0  0  0  0  0
    0.2907   -1.7211    2.3420 C   0  0  0  0  0  0  0  0  0  0  0  0
   -0.6742   -2.2151    2.4524 H   0  0  0  0  0  0  0  0  0  0  0  0
    1.0788   -2.4290    2.6014 H   0  0  0  0  0  0  0  0  0  0  0  0
    0.3530   -0.3417    3.5138 S   0  0  0  0  0  0  0  0  0  0  0  0
    2.1042    0.1018    3.3773 C   0  0  0  0  0  0  0  0  0  0  0  0
    2.3319    0.3883    2.3501 H   0  0  0  0  0  0  0  0  0  0  0  0
    2.3171    0.9412    4.0397 H   0  0  0  0  0  0  0  0  0  0  0  0
    2.7225   -0.7487    3.6657 H   0  0  0  0  0  0  0  0  0  0  0  0
   -0.2869    0.2493   -1.0033 C   0  0  0  0  0  0  0  0  0  0  0  0
    0.0907   -0.4960   -1.9051 O   0  0  0  0  0  0  0  0  0  0  0  0
   -0.4232    1.5710   -1.1713 N   0  0  0  0  0  0  0  0  0  0  0  0
   -0.7520    2.1159   -0.3902 H   0  0  0  0  0  0  0  0  0  0  0  0
   -0.1378    2.2682   -2.4243 C   0  0  0  0  0  0  0  0  0  0  0  0
   -0.7523    1.8509   -3.2255 H   0  0  0  0  0  0  0  0  0  0  0  0
   -0.3526    3.3330   -2.3244 H   0  0  0  0  0  0  0  0  0  0  0  0
    0.9125    2.1344   -2.6893 H   0  0  0  0  0  0  0  0  0  0  0  0
  5  6  2  0  0  0  0
  5  7  1  0  0  0  0
  2  3  1  0  0  0  0
  2  4  1  0  0  0  0
  2  5  1  0  0  0  0
  1  2  1  0  0  0  0
 22 23  2  0  0  0  0
 22 24  1  0  0  0  0
 18 19  1  0  0  0  0
 18 20  1  0  0  0  0
 18 21  1  0  0  0  0
 17 18  1  0  0  0  0
 14 15  1  0  0  0  0
 14 16  1  0  0  0  0
 14 17  1  0  0  0  0
 11 12  1  0  0  0  0
 11 13  1  0  0  0  0
 11 14  1  0  0  0  0
  9 10  1  0  0  0  0
  9 11  1  0  0  0  0
  9 22  1  0  0  0  0
  7  8  1  0  0  0  0
  7  9  1  0  0  0  0
 26 27  1  0  0  0  0
 26 28  1  0  0  0  0
 26 29  1  0  0  0  0
 24 25  1  0  0  0  0
 24 26  1  0  0  0  0
M  END
$$$$
default_name
  -OEChem-01062215323D

 29 28  0     1  0  0  0  0  0999 V2000
   -3.5781   -3.7296    1.2702 H   0  0  0  0  0  0  0  0  0  0  0  0
   -3.5311   -2.7616    0.7732 C   0  0  0  0  0  0  0  0  0  0  0  0
   -4.2371   -2.0766    1.2382 H   0  0  0  0  0  0  0  0  0  0  0  0
   -3.7681   -2.8816   -0.2818 H   0  0  0  0  0  0  0  0  0  0  0  0
   -2.1321   -2.2086    0.9112 C   0  0  0  0  0  0  0  0  0  0  0  0
   -1.2751   -2.8426    1.5112 O   0  0  0  0  0  0  0  0  0  0  0  0
   -1.9041   -1.0186    0.3602 N   0  0  0  0  0  0  0  0  0  0  0  0
   -2.6671   -0.5416   -0.0988 H   0  0  0  0  0  0  0  0  0  0  0  0
   -0.6131   -0.3236    0.3832 C   0  0  1  0  0  0  0  0  0  0  0  0
   -0.6776    0.5071    1.0878 H   0  0  0  0  0  0  0  0  0  0  0  0
    0.4732   -1.2948    0.8808 C   0  0  0  0  0  0  0  0  0  0  0  0
    0.4552   -2.1911    0.2570 H   0  0  0  0  0  0  0  0  0  0  0  0
    1.4520   -0.8250    0.7744 H   0  0  0  0  0  0  0  0  0  0  0  0
    0.2907   -1.7211    2.3420 C   0  0  0  0  0  0  0  0  0  0  0  0
   -0.6742   -2.2151    2.4524 H   0  0  0  0  0  0  0  0  0  0  0  0
    1.0788   -2.4290    2.6014 H   0  0  0  0  0  0  0  0  0  0  0  0
    0.3530   -0.3417    3.5138 S   0  0  0  0  0  0  0  0  0  0  0  0
    2.1042    0.1018    3.3773 C   0  0  0  0  0  0  0  0  0  0  0  0
    2.3319    0.3883    2.3501 H   0  0  0  0  0  0  0  0  0  0  0  0
    2.3171    0.9412    4.0397 H   0  0  0  0  0  0  0  0  0  0  0  0
    2.7225   -0.7487    3.6657 H   0  0  0  0  0  0  0  0  0  0  0  0
   -0.2869    0.2493   -1.0033 C   0  0  0  0  0  0  0  0  0  0  0  0
   -0.1790   -0.5014   -1.9708 O   0  0  0  0  0  0  0  0  0  0  0  0
   -0.1214    1.5749   -1.0987 N   0  0  0  0  0  0  0  0  0  0  0  0
   -0.2404    2.1278   -0.2649 H   0  0  0  0  0  0  0  0  0  0  0  0
    0.2067    2.2690   -2.3429 C   0  0  0  0  0  0  0  0  0  0  0  0
   -0.5586    2.0592   -3.0939 H   0  0  0  0  0  0  0  0  0  0  0  0
    0.2597    3.3455   -2.1751 H   0  0  0  0  0  0  0  0  0  0  0  0
    1.1674    1.9141   -2.7204 H   0  0  0  0  0  0  0  0  0  0  0  0
  5  6  2  0  0  0  0
  5  7  1  0  0  0  0
  2  3  1  0  0  0  0
  2  4  1  0  0  0  0
  2  5  1  0  0  0  0
  1  2  1  0  0  0  0
 22 23  2  0  0  0  0
 22 24  1  0  0  0  0
 18 19  1  0  0  0  0
 18 20  1  0  0  0  0
 18 21  1  0  0  0  0
 17 18  1  0  0  0  0
 14 15  1  0  0  0  0
 14 16  1  0  0  0  0
 14 17  1  0  0  0  0
 11 12  1  0  0  0  0
 11 13  1  0  0  0  0
 11 14  1  0  0  0  0
  9 10  1  0  0  0  0
  9 11  1  0  0  0  0
  9 22  1  0  0  0  0
  7  8  1  0  0  0  0
  7  9  1  0  0  0  0
 26 27  1  0  0  0  0
 26 28  1  0  0  0  0
 26 29  1  0  0  0  0
 24 25  1  0  0  0  0
 24 26  1  0  0  0  0
M  END
$$$$
default_name
  -OEChem-01062215323D

 29 28  0     1  0  0  0  0  0999 V2000
   -3.5781   -3.7296    1.2702 H   0  0  0  0  0  0  0  0  0  0  0  0
   -3.5311   -2.7616    0.7732 C   0  0  0  0  0  0  0  0  0  0  0  0
   -4.2371   -2.0766    1.2382 H   0  0  0  0  0  0  0  0  0  0  0  0
   -3.7681   -2.8816   -0.2818 H   0  0  0  0  0  0  0  0  0  0  0  0
   -2.1321   -2.2086    0.9112 C   0  0  0  0  0  0  0  0  0  0  0  0
   -1.2751   -2.8426    1.5112 O   0  0  0  0  0  0  0  0  0  0  0  0
   -1.9041   -1.0186    0.3602 N   0  0  0  0  0  0  0  0  0  0  0  0
   -2.6671   -0.5416   -0.0988 H   0  0  0  0  0  0  0  0  0  0  0  0
   -0.6131   -0.3236    0.3832 C   0  0  1  0  0  0  0  0  0  0  0  0
   -0.6776    0.5071    1.0878 H   0  0  0  0  0  0  0  0  0  0  0  0
    0.4732   -1.2948    0.8808 C   0  0  0  0  0  0  0  0  0  0  0  0
    0.4552   -2.1911    0.2570 H   0  0  0  0  0  0  0  0  0  0  0  0
    1.4520   -0.8250    0.7744 H   0  0  0  0  0  0  0  0  0  0  0  0
    0.2907   -1.7211    2.3420 C   0  0  0  0  0  0  0  0  0  0  0  0
   -0.6742   -2.2151    2.4524 H   0  0  0  0  0  0  0  0  0  0  0  0
    1.0788   -2.4290    2.6014 H   0  0  0  0  0  0  0  0  0  0  0  0
    0.3530   -0.3417    3.5138 S   0  0  0  0  0  0  0  0  0  0  0  0
    2.1042    0.1018    3.3773 C   0  0  0  0  0  0  0  0  0  0  0  0
    2.3319    0.3883    2.3501 H   0  0  0  0  0  0  0  0  0  0  0  0
    2.3171    0.9412    4.0397 H   0  0  0  0  0  0  0  0  0  0  0  0
    2.7225   -0.7487    3.6657 H   0  0  0  0  0  0  0  0  0  0  0  0
   -0.2869    0.2493   -1.0033 C   0  0  0  0  0  0  0  0  0  0  0  0
   -0.4471   -0.4400   -2.0085 O   0  0  0  0  0  0  0  0  0  0  0  0
    0.1781    1.5041   -1.0575 N   0  0  0  0  0  0  0  0  0  0  0  0
    0.2688    2.0129   -0.1926 H   0  0  0  0  0  0  0  0  0  0  0  0
    0.5476    2.1848   -2.2975 C   0  0  0  0  0  0  0  0  0  0  0  0
   -0.3101    2.2079   -2.9740 H   0  0  0  0  0  0  0  0  0  0  0  0
    0.8685    3.2063   -2.0894 H   0  0  0  0  0  0  0  0  0  0  0  0
    1.3591    1.6434   -2.7871 H   0  0  0  0  0  0  0  0  0  0  0  0
  5  6  2  0  0  0  0
  5  7  1  0  0  0  0
  2  3  1  0  0  0  0
  2  4  1  0  0  0  0
  2  5  1  0  0  0  0
  1  2  1  0  0  0  0
 22 23  2  0  0  0  0
 22 24  1  0  0  0  0
 18 19  1  0  0  0  0
 18 20  1  0  0  0  0
 18 21  1  0  0  0  0
 17 18  1  0  0  0  0
 14 15  1  0  0  0  0
 14 16  1  0  0  0  0
 14 17  1  0  0  0  0
 11 12  1  0  0  0  0
 11 13  1  0  0  0  0
 11 14  1  0  0  0  0
  9 10  1  0  0  0  0
  9 11  1  0  0  0  0
  9 22  1  0  0  0  0
  7  8  1  0  0  0  0
  7  9  1  0  0  0  0
 26 27  1  0  0  0  0
 26 28  1  0  0  0  0
 26 29  1  0  0  0  0
 24 25  1  0  0  0  0
 24 26  1  0  0  0  0
M  END
$$$$
default_name
  -OEChem-01062215323D

 29 28  0     1  0  0  0  0  0999 V2000
   -3.5781   -3.7296    1.2702 H   0  0  0  0  0  0  0  0  0  0  0  0
   -3.5311   -2.7616    0.7732 C   0  0  0  0  0  0  0  0  0  0  0  0
   -4.2371   -2.0766    1.2382 H   0  0  0  0  0  0  0  0  0  0  0  0
   -3.7681   -2.8816   -0.2818 H   0  0  0  0  0  0  0  0  0  0  0  0
   -2.1321   -2.2086    0.9112 C   0  0  0  0  0  0  0  0  0  0  0  0
   -1.2751   -2.8426    1.5112 O   0  0  0  0  0  0  0  0  0  0  0  0
   -1.9041   -1.0186    0.3602 N   0  0  0  0  0  0  0  0  0  0  0  0
   -2.6671   -0.5416   -0.0988 H   0  0  0  0  0  0  0  0  0  0  0  0
   -0.6131   -0.3236    0.3832 C   0  0  1  0  0  0  0  0  0  0  0  0
   -0.6776    0.5071    1.0878 H   0  0  0  0  0  0  0  0  0  0  0  0
    0.4732   -1.2948    0.8808 C   0  0  0  0  0  0  0  0  0  0  0  0
    0.4552   -2.1911    0.2570 H   0  0  0  0  0  0  0  0  0  0  0  0
    1.4520   -0.8250    0.7744 H   0  0  0  0  0  0  0  0  0  0  0  0
    0.2907   -1.7211    2.3420 C   0  0  0  0  0  0  0  0  0  0  0  0
   -0.6742   -2.2151    2.4524 H   0  0  0  0  0  0  0  0  0  0  0  0
    1.0788   -2.4290    2.6014 H   0  0  0  0  0  0  0  0  0  0  0  0
    0.3530   -0.3417    3.5138 S   0  0  0  0  0  0  0  0  0  0  0  0
    2.1042    0.1018    3.3773 C   0  0  0  0  0  0  0  0  0  0  0  0
    2.3319    0.3883    2.3501 H   0  0  0  0  0  0  0  0  0  0  0  0
    2.3171    0.9412    4.0397 H   0  0  0  0  0  0  0  0  0  0  0  0
    2.7225   -0.7487    3.6657 H   0  0  0  0  0  0  0  0  0  0  0  0
   -0.2869    0.2493   -1.0033 C   0  0  0  0  0  0  0  0  0  0  0  0
   -0.6954   -0.3159   -2.0157 O   0  0  0  0  0  0  0  0  0  0  0  0
    0.4548    1.3635   -1.0505 N   0  0  0  0  0  0  0  0  0  0  0  0
    0.7407    1.7789   -0.1783 H   0  0  0  0  0  0  0  0  0  0  0  0
    0.8615    2.0213   -2.2913 C   0  0  0  0  0  0  0  0  0  0  0  0
   -0.0237    2.2868   -2.8740 H   0  0  0  0  0  0  0  0  0  0  0  0
    1.4323    2.9249   -2.0731 H   0  0  0  0  0  0  0  0  0  0  0  0
    1.4745    1.3408   -2.8850 H   0  0  0  0  0  0  0  0  0  0  0  0
  5  6  2  0  0  0  0
  5  7  1  0  0  0  0
  2  3  1  0  0  0  0
  2  4  1  0  0  0  0
  2  5  1  0  0  0  0
  1  2  1  0  0  0  0
 22 23  2  0  0  0  0
 22 24  1  0  0  0  0
 18 19  1  0  0  0  0
 18 20  1  0  0  0  0
 18 21  1  0  0  0  0
 17 18  1  0  0  0  0
 14 15  1  0  0  0  0
 14 16  1  0  0  0  0
 14 17  1  0  0  0  0
 11 12  1  0  0  0  0
 11 13  1  0  0  0  0
 11 14  1  0  0  0  0
  9 10  1  0  0  0  0
  9 11  1  0  0  0  0
  9 22  1  0  0  0  0
  7  8  1  0  0  0  0
  7  9  1  0  0  0  0
 26 27  1  0  0  0  0
 26 28  1  0  0  0  0
 26 29  1  0  0  0  0
 24 25  1  0  0  0  0
 24 26  1  0  0  0  0
M  END
$$$$
default_name
  -OEChem-01062215323D

 29 28  0     1  0  0  0  0  0999 V2000
   -3.5781   -3.7296    1.2702 H   0  0  0  0  0  0  0  0  0  0  0  0
   -3.5311   -2.7616    0.7732 C   0  0  0  0  0  0  0  0  0  0  0  0
   -4.2371   -2.0766    1.2382 H   0  0  0  0  0  0  0  0  0  0  0  0
   -3.7681   -2.8816   -0.2818 H   0  0  0  0  0  0  0  0  0  0  0  0
   -2.1321   -2.2086    0.9112 C   0  0  0  0  0  0  0  0  0  0  0  0
   -1.2751   -2.8426    1.5112 O   0  0  0  0  0  0  0  0  0  0  0  0
   -1.9041   -1.0186    0.3602 N   0  0  0  0  0  0  0  0  0  0  0  0
   -2.6671   -0.5416   -0.0988 H   0  0  0  0  0  0  0  0  0  0  0  0
   -0.6131   -0.3236    0.3832 C   0  0  1  0  0  0  0  0  0  0  0  0
   -0.6776    0.5071    1.0878 H   0  0  0  0  0  0  0  0  0  0  0  0
    0.4732   -1.2948    0.8808 C   0  0  0  0  0  0  0  0  0  0  0  0
    0.4552   -2.1911    0.2570 H   0  0  0  0  0  0  0  0  0  0  0  0
    1.4520   -0.8250    0.7744 H   0  0  0  0  0  0  0  0  0  0  0  0
    0.2907   -1.7211    2.3420 C   0  0  0  0  0  0  0  0  0  0  0  0
   -0.6742   -2.2151    2.4524 H   0  0  0  0  0  0  0  0  0  0  0  0
    1.0788   -2.4290    2.6014 H   0  0  0  0  0  0  0  0  0  0  0  0
    0.3530   -0.3417    3.5138 S   0  0  0  0  0  0  0  0  0  0  0  0
    2.1042    0.1018    3.3773 C   0  0  0  0  0  0  0  0  0  0  0  0
    2.3319    0.3883    2.3501 H   0  0  0  0  0  0  0  0  0  0  0  0
    2.3171    0.9412    4.0397 H   0  0  0  0  0  0  0  0  0  0  0  0
    2.7225   -0.7487    3.6657 H   0  0  0  0  0  0  0  0  0  0  0  0
   -0.2869    0.2493   -1.0033 C   0  0  0  0  0  0  0  0  0  0  0  0
   -0.9069   -0.1376   -1.9918 O   0  0  0  0  0  0  0  0  0  0  0  0
    0.6898    1.1626   -1.0782 N   0  0  0  0  0  0  0  0  0  0  0  0
    1.1432    1.4418   -0.2229 H   0  0  0  0  0  0  0  0  0  0  0  0
    1.1272    1.7896   -2.3245 C   0  0  0  0  0  0  0  0  0  0  0  0
    0.2811    2.2906   -2.8007 H   0  0  0  0  0  0  0  0  0  0  0  0
    1.9126    2.5203   -2.1272 H   0  0  0  0  0  0  0  0  0  0  0  0
    1.5059    1.0270   -3.0073 H   0  0  0  0  0  0  0  0  0  0  0  0
  5  6  2  0  0  0  0
  5  7  1  0  0  0  0
  2  3  1  0  0  0  0
  2  4  1  0  0  0  0
  2  5  1  0  0  0  0
  1  2  1  0  0  0  0
 22 23  2  0  0  0  0
 22 24  1  0  0  0  0
 18 19  1  0  0  0  0
 18 20  1  0  0  0  0
 18 21  1  0  0  0  0
 17 18  1  0  0  0  0
 14 15  1  0  0  0  0
 14 16  1  0  0  0  0
 14 17  1  0  0  0  0
 11 12  1  0  0  0  0
 11 13  1  0  0  0  0
 11 14  1  0  0  0  0
  9 10  1  0  0  0  0
  9 11  1  0  0  0  0
  9 22  1  0  0  0  0
  7  8  1  0  0  0  0
  7  9  1  0  0  0  0
 26 27  1  0  0  0  0
 26 28  1  0  0  0  0
 26 29  1  0  0  0  0
 24 25  1  0  0  0  0
 24 26  1  0  0  0  0
M  END
$$$$
default_name
  -OEChem-01062215323D

 29 28  0     1  0  0  0  0  0999 V2000
   -3.5781   -3.7296    1.2702 H   0  0  0  0  0  0  0  0  0  0  0  0
   -3.5311   -2.7616    0.7732 C   0  0  0  0  0  0  0  0  0  0  0  0
   -4.2371   -2.0766    1.2382 H   0  0  0  0  0  0  0  0  0  0  0  0
   -3.7681   -2.8816   -0.2818 H   0  0  0  0  0  0  0  0  0  0  0  0
   -2.1321   -2.2086    0.9112 C   0  0  0  0  0  0  0  0  0  0  0  0
   -1.2751   -2.8426    1.5112 O   0  0  0  0  0  0  0  0  0  0  0  0
   -1.9041   -1.0186    0.3602 N   0  0  0  0  0  0  0  0  0  0  0  0
   -2.6671   -0.5416   -0.0988 H   0  0  0  0  0  0  0  0  0  0  0  0
   -0.6131   -0.3236    0.3832 C   0  0  1  0  0  0  0  0  0  0  0  0
   -0.5819    0.3236    1.2611 H   0  0  0  0  0  0  0  0  0  0  0  0
    0.5163   -1.3626    0.5096 C   0  0  0  0  0  0  0  0  0  0  0  0
    0.4126   -2.0935   -0.2952 H   0  0  0  0  0  0  0  0  0  0  0  0
    1.4793   -0.8631    0.3943 H   0  0  0  0  0  0  0  0  0  0  0  0
    0.5108   -2.1135    1.8461 C   0  0  0  0  0  0  0  0  0  0  0  0
   -0.4381   -2.6372    1.9579 H   0  0  0  0  0  0  0  0  0  0  0  0
    1.3176   -2.8473    1.8388 H   0  0  0  0  0  0  0  0  0  0  0  0
    0.7309   -1.0361    3.2849 S   0  0  0  0  0  0  0  0  0  0  0  0
    2.4563   -0.5413    3.0403 C   0  0  0  0  0  0  0  0  0  0  0  0
    2.5588   -0.0244    2.0856 H   0  0  0  0  0  0  0  0  0  0  0  0
    2.7578    0.1290    3.8456 H   0  0  0  0  0  0  0  0  0  0  0  0
    3.0969   -1.4236    3.0493 H   0  0  0  0  0  0  0  0  0  0  0  0
   -0.4543    0.5558   -0.8653 C   0  0  0  0  0  0  0  0  0  0  0  0
   -1.3455    0.5921   -1.7112 O   0  0  0  0  0  0  0  0  0  0  0  0
    0.6810    1.2559   -0.9852 N   0  0  0  0  0  0  0  0  0  0  0  0
    1.3598    1.1875   -0.2437 H   0  0  0  0  0  0  0  0  0  0  0  0
    0.9880    2.1250   -2.1201 C   0  0  0  0  0  0  0  0  0  0  0  0
    0.2131    2.8889   -2.2183 H   0  0  0  0  0  0  0  0  0  0  0  0
    1.9544    2.6101   -1.9770 H   0  0  0  0  0  0  0  0  0  0  0  0
    1.0112    1.5365   -3.0390 H   0  0  0  0  0  0  0  0  0  0  0  0
  5  6  2  0  0  0  0
  5  7  1  0  0  0  0
  2  3  1  0  0  0  0
  2  4  1  0  0  0  0
  2  5  1  0  0  0  0
  1  2  1  0  0  0  0
 22 23  2  0  0  0  0
 22 24  1  0  0  0  0
 18 19  1  0  0  0  0
 18 20  1  0  0  0  0
 18 21  1  0  0  0  0
 17 18  1  0  0  0  0
 14 15  1  0  0  0  0
 14 16  1  0  0  0  0
 14 17  1  0  0  0  0
 11 12  1  0  0  0  0
 11 13  1  0  0  0  0
 11 14  1  0  0  0  0
  9 10  1  0  0  0  0
  9 11  1  0  0  0  0
  9 22  1  0  0  0  0
  7  8  1  0  0  0  0
  7  9  1  0  0  0  0
 26 27  1  0  0  0  0
 26 28  1  0  0  0  0
 26 29  1  0  0  0  0
 24 25  1  0  0  0  0
 24 26  1  0  0  0  0
M  END
$$$$
default_name
  -OEChem-01062215323D

 29 28  0     1  0  0  0  0  0999 V2000
   -3.5781   -3.7296    1.2702 H   0  0  0  0  0  0  0  0  0  0  0  0
   -3.5311   -2.7616    0.7732 C   0  0  0  0  0  0  0  0  0  0  0  0
   -4.2371   -2.0766    1.2382 H   0  0  0  0  0  0  0  0  0  0  0  0
   -3.7681   -2.8816   -0.2818 H   0  0  0  0  0  0  0  0  0  0  0  0
   -2.1321   -2.2086    0.9112 C   0  0  0  0  0  0  0  0  0  0  0  0
   -1.2751   -2.8426    1.5112 O   0  0  0  0  0  0  0  0  0  0  0  0
   -1.9041   -1.0186    0.3602 N   0  0  0  0  0  0  0  0  0  0  0  0
   -2.6671   -0.5416   -0.0988 H   0  0  0  0  0  0  0  0  0  0  0  0
   -0.6131   -0.3236    0.3832 C   0  0  1  0  0  0  0  0  0  0  0  0
   -0.5819    0.3236    1.2611 H   0  0  0  0  0  0  0  0  0  0  0  0
    0.5163   -1.3626    0.5096 C   0  0  0  0  0  0  0  0  0  0  0  0
    0.4126   -2.0935   -0.2952 H   0  0  0  0  0  0  0  0  0  0  0  0
    1.4793   -0.8631    0.3943 H   0  0  0  0  0  0  0  0  0  0  0  0
    0.5108   -2.1135    1.8461 C   0  0  0  0  0  0  0  0  0  0  0  0
   -0.4381   -2.6372    1.9579 H   0  0  0  0  0  0  0  0  0  0  0  0
    1.3176   -2.8473    1.8388 H   0  0  0  0  0  0  0  0  0  0  0  0
    0.7309   -1.0361    3.2849 S   0  0  0  0  0  0  0  0  0  0  0  0
    2.4563   -0.5413    3.0403 C   0  0  0  0  0  0  0  0  0  0  0  0
    2.5588   -0.0244    2.0856 H   0  0  0  0  0  0  0  0  0  0  0  0
    2.7578    0.1290    3.8456 H   0  0  0  0  0  0  0  0  0  0  0  0
    3.0969   -1.4236    3.0493 H   0  0  0  0  0  0  0  0  0  0  0  0
   -0.4543    0.5558   -0.8653 C   0  0  0  0  0  0  0  0  0  0  0  0
   -1.4308    0.8131   -1.5664 O   0  0  0  0  0  0  0  0  0  0  0  0
    0.7741    1.0083   -1.1477 N   0  0  0  0  0  0  0  0  0  0  0  0
    1.5232    0.7684   -0.5181 H   0  0  0  0  0  0  0  0  0  0  0  0
    1.0904    1.8420   -2.3064 C   0  0  0  0  0  0  0  0  0  0  0  0
    0.4897    2.7541   -2.2781 H   0  0  0  0  0  0  0  0  0  0  0  0
    2.1482    2.1084   -2.3057 H   0  0  0  0  0  0  0  0  0  0  0  0
    0.8542    1.3012   -3.2246 H   0  0  0  0  0  0  0  0  0  0  0  0
  5  6  2  0  0  0  0
  5  7  1  0  0  0  0
  2  3  1  0  0  0  0
  2  4  1  0  0  0  0
  2  5  1  0  0  0  0
  1  2  1  0  0  0  0
 22 23  2  0  0  0  0
 22 24  1  0  0  0  0
 18 19  1  0  0  0  0
 18 20  1  0  0  0  0
 18 21  1  0  0  0  0
 17 18  1  0  0  0  0
 14 15  1  0  0  0  0
 14 16  1  0  0  0  0
 14 17  1  0  0  0  0
 11 12  1  0  0  0  0
 11 13  1  0  0  0  0
 11 14  1  0  0  0  0
  9 10  1  0  0  0  0
  9 11  1  0  0  0  0
  9 22  1  0  0  0  0
  7  8  1  0  0  0  0
  7  9  1  0  0  0  0
 26 27  1  0  0  0  0
 26 28  1  0  0  0  0
 26 29  1  0  0  0  0
 24 25  1  0  0  0  0
 24 26  1  0  0  0  0
M  END
$$$$
default_name
  -OEChem-01062215323D

 29 28  0     1  0  0  0  0  0999 V2000
   -3.5781   -3.7296    1.2702 H   0  0  0  0  0  0  0  0  0  0  0  0
   -3.5311   -2.7616    0.7732 C   0  0  0  0  0  0  0  0  0  0  0  0
   -4.2371   -2.0766    1.2382 H   0  0  0  0  0  0  0  0  0  0  0  0
   -3.7681   -2.8816   -0.2818 H   0  0  0  0  0  0  0  0  0  0  0  0
   -2.1321   -2.2086    0.9112 C   0  0  0  0  0  0  0  0  0  0  0  0
   -1.2751   -2.8426    1.5112 O   0  0  0  0  0  0  0  0  0  0  0  0
   -1.9041   -1.0186    0.3602 N   0  0  0  0  0  0  0  0  0  0  0  0
   -2.6671   -0.5416   -0.0988 H   0  0  0  0  0  0  0  0  0  0  0  0
   -0.6131   -0.3236    0.3832 C   0  0  1  0  0  0  0  0  0  0  0  0
   -0.5819    0.3236    1.2611 H   0  0  0  0  0  0  0  0  0  0  0  0
    0.5163   -1.3626    0.5096 C   0  0  0  0  0  0  0  0  0  0  0  0
    0.4126   -2.0935   -0.2952 H   0  0  0  0  0  0  0  0  0  0  0  0
    1.4793   -0.8631    0.3943 H   0  0  0  0  0  0  0  0  0  0  0  0
    0.5108   -2.1135    1.8461 C   0  0  0  0  0  0  0  0  0  0  0  0
   -0.4381   -2.6372    1.9579 H   0  0  0  0  0  0  0  0  0  0  0  0
    1.3176   -2.8473    1.8388 H   0  0  0  0  0  0  0  0  0  0  0  0
    0.7309   -1.0361    3.2849 S   0  0  0  0  0  0  0  0  0  0  0  0
    2.4563   -0.5413    3.0403 C   0  0  0  0  0  0  0  0  0  0  0  0
    2.5588   -0.0244    2.0856 H   0  0  0  0  0  0  0  0  0  0  0  0
    2.7578    0.1290    3.8456 H   0  0  0  0  0  0  0  0  0  0  0  0
    3.0969   -1.4236    3.0493 H   0  0  0  0  0  0  0  0  0  0  0  0
   -0.4543    0.5558   -0.8653 C   0  0  0  0  0  0  0  0  0  0  0  0
   -1.4451    1.0407   -1.4079 O   0  0  0  0  0  0  0  0  0  0  0  0
    0.7878    0.7539   -1.3251 N   0  0  0  0  0  0  0  0  0  0  0  0
    1.5522    0.3365   -0.8186 H   0  0  0  0  0  0  0  0  0  0  0  0
    1.1021    1.5520   -2.5092 C   0  0  0  0  0  0  0  0  0  0  0  0
    0.7196    2.5673   -2.3805 H   0  0  0  0  0  0  0  0  0  0  0  0
    2.1809    1.5918   -2.6654 H   0  0  0  0  0  0  0  0  0  0  0  0
    0.6255    1.1120   -3.3870 H   0  0  0  0  0  0  0  0  0  0  0  0
  5  6  2  0  0  0  0
  5  7  1  0  0  0  0
  2  3  1  0  0  0  0
  2  4  1  0  0  0  0
  2  5  1  0  0  0  0
  1  2  1  0  0  0  0
 22 23  2  0  0  0  0
 22 24  1  0  0  0  0
 18 19  1  0  0  0  0
 18 20  1  0  0  0  0
 18 21  1  0  0  0  0
 17 18  1  0  0  0  0
 14 15  1  0  0  0  0
 14 16  1  0  0  0  0
 14 17  1  0  0  0  0
 11 12  1  0  0  0  0
 11 13  1  0  0  0  0
 11 14  1  0  0  0  0
  9 10  1  0  0  0  0
  9 11  1  0  0  0  0
  9 22  1  0  0  0  0
  7  8  1  0  0  0  0
  7  9  1  0  0  0  0
 26 27  1  0  0  0  0
 26 28  1  0  0  0  0
 26 29  1  0  0  0  0
 24 25  1  0  0  0  0
 24 26  1  0  0  0  0
M  END
$$$$
default_name
  -OEChem-01062215323D

 29 28  0     1  0  0  0  0  0999 V2000
   -3.5781   -3.7296    1.2702 H   0  0  0  0  0  0  0  0  0  0  0  0
   -3.5311   -2.7616    0.7732 C   0  0  0  0  0  0  0  0  0  0  0  0
   -4.2371   -2.0766    1.2382 H   0  0  0  0  0  0  0  0  0  0  0  0
   -3.7681   -2.8816   -0.2818 H   0  0  0  0  0  0  0  0  0  0  0  0
   -2.1321   -2.2086    0.9112 C   0  0  0  0  0  0  0  0  0  0  0  0
   -1.2751   -2.8426    1.5112 O   0  0  0  0  0  0  0  0  0  0  0  0
   -1.9041   -1.0186    0.3602 N   0  0  0  0  0  0  0  0  0  0  0  0
   -2.6671   -0.5416   -0.0988 H   0  0  0  0  0  0  0  0  0  0  0  0
   -0.6131   -0.3236    0.3832 C   0  0  1  0  0  0  0  0  0  0  0  0
   -0.5819    0.3236    1.2611 H   0  0  0  0  0  0  0  0  0  0  0  0
    0.5163   -1.3626    0.5096 C   0  0  0  0  0  0  0  0  0  0  0  0
    0.4126   -2.0935   -0.2952 H   0  0  0  0  0  0  0  0  0  0  0  0
    1.4793   -0.8631    0.3943 H   0  0  0  0  0  0  0  0  0  0  0  0
    0.5108   -2.1135    1.8461 C   0  0  0  0  0  0  0  0  0  0  0  0
   -0.4381   -2.6372    1.9579 H   0  0  0  0  0  0  0  0  0  0  0  0
    1.3176   -2.8473    1.8388 H   0  0  0  0  0  0  0  0  0  0  0  0
    0.7309   -1.0361    3.2849 S   0  0  0  0  0  0  0  0  0  0  0  0
    2.4563   -0.5413    3.0403 C   0  0  0  0  0  0  0  0  0  0  0  0
    2.5588   -0.0244    2.0856 H   0  0  0  0  0  0  0  0  0  0  0  0
    2.7578    0.1290    3.8456 H   0  0  0  0  0  0  0  0  0  0  0  0
    3.0969   -1.4236    3.0493 H   0  0  0  0  0  0  0  0  0  0  0  0
   -0.4543    0.5558   -0.8653 C   0  0  0  0  0  0  0  0  0  0  0  0
   -1.3875    1.2592   -1.2466 O   0  0  0  0  0  0  0  0  0  0  0  0
    0.7212    0.5101   -1.5053 N   0  0  0  0  0  0  0  0  0  0  0  0
    1.4447   -0.0787   -1.1247 H   0  0  0  0  0  0  0  0  0  0  0  0
    1.0224    1.2749   -2.7145 C   0  0  0  0  0  0  0  0  0  0  0  0
    0.8871    2.3411   -2.5184 H   0  0  0  0  0  0  0  0  0  0  0  0
    2.0505    1.0955   -3.0316 H   0  0  0  0  0  0  0  0  0  0  0  0
    0.3407    0.9817   -3.5150 H   0  0  0  0  0  0  0  0  0  0  0  0
  5  6  2  0  0  0  0
  5  7  1  0  0  0  0
  2  3  1  0  0  0  0
  2  4  1  0  0  0  0
  2  5  1  0  0  0  0
  1  2  1  0  0  0  0
 22 23  2  0  0  0  0
 22 24  1  0  0  0  0
 18 19  1  0  0  0  0
 18 20  1  0  0  0  0
 18 21  1  0  0  0  0
 17 18  1  0  0  0  0
 14 15  1  0  0  0  0
 14 16  1  0  0  0  0
 14 17  1  0  0  0  0
 11 12  1  0  0  0  0
 11 13  1  0  0  0  0
 11 14  1  0  0  0  0
  9 10  1  0  0  0  0
  9 11  1  0  0  0  0
  9 22  1  0  0  0  0
  7  8  1  0  0  0  0
  7  9  1  0  0  0  0
 26 27  1  0  0  0  0
 26 28  1  0  0  0  0
 26 29  1  0  0  0  0
 24 25  1  0  0  0  0
 24 26  1  0  0  0  0
M  END
$$$$
default_name
  -OEChem-01062215323D

 29 28  0     1  0  0  0  0  0999 V2000
   -3.5781   -3.7296    1.2702 H   0  0  0  0  0  0  0  0  0  0  0  0
   -3.5311   -2.7616    0.7732 C   0  0  0  0  0  0  0  0  0  0  0  0
   -4.2371   -2.0766    1.2382 H   0  0  0  0  0  0  0  0  0  0  0  0
   -3.7681   -2.8816   -0.2818 H   0  0  0  0  0  0  0  0  0  0  0  0
   -2.1321   -2.2086    0.9112 C   0  0  0  0  0  0  0  0  0  0  0  0
   -1.2751   -2.8426    1.5112 O   0  0  0  0  0  0  0  0  0  0  0  0
   -1.9041   -1.0186    0.3602 N   0  0  0  0  0  0  0  0  0  0  0  0
   -2.6671   -0.5416   -0.0988 H   0  0  0  0  0  0  0  0  0  0  0  0
   -0.6131   -0.3236    0.3832 C   0  0  1  0  0  0  0  0  0  0  0  0
   -0.5819    0.3236    1.2611 H   0  0  0  0  0  0  0  0  0  0  0  0
    0.5163   -1.3626    0.5096 C   0  0  0  0  0  0  0  0  0  0  0  0
    0.4126   -2.0935   -0.2952 H   0  0  0  0  0  0  0  0  0  0  0  0
    1.4793   -0.8631    0.3943 H   0  0  0  0  0  0  0  0  0  0  0  0
    0.5108   -2.1135    1.8461 C   0  0  0  0  0  0  0  0  0  0  0  0
   -0.4381   -2.6372    1.9579 H   0  0  0  0  0  0  0  0  0  0  0  0
    1.3176   -2.8473    1.8388 H   0  0  0  0  0  0  0  0  0  0  0  0
    0.7309   -1.0361    3.2849 S   0  0  0  0  0  0  0  0  0  0  0  0
    2.4563   -0.5413    3.0403 C   0  0  0  0  0  0  0  0  0  0  0  0
    2.5588   -0.0244    2.0856 H   0  0  0  0  0  0  0  0  0  0  0  0
    2.7578    0.1290    3.8456 H   0  0  0  0  0  0  0  0  0  0  0  0
    3.0969   -1.4236    3.0493 H   0  0  0  0  0  0  0  0  0  0  0  0
   -0.4543    0.5558   -0.8653 C   0  0  0  0  0  0  0  0  0  0  0  0
   -1.2620    1.4539   -1.0936 O   0  0  0  0  0  0  0  0  0  0  0  0
    0.5788    0.2934   -1.6761 N   0  0  0  0  0  0  0  0  0  0  0  0
    1.2082   -0.4490   -1.4156 H   0  0  0  0  0  0  0  0  0  0  0  0
    0.8565    1.0294   -2.9085 C   0  0  0  0  0  0  0  0  0  0  0  0
    0.9809    2.0911   -2.6826 H   0  0  0  0  0  0  0  0  0  0  0  0
    1.7659    0.6534   -3.3792 H   0  0  0  0  0  0  0  0  0  0  0  0
    0.0192    0.9192   -3.5999 H   0  0  0  0  0  0  0  0  0  0  0  0
  5  6  2  0  0  0  0
  5  7  1  0  0  0  0
  2  3  1  0  0  0  0
  2  4  1  0  0  0  0
  2  5  1  0  0  0  0
  1  2  1  0  0  0  0
 22 23  2  0  0  0  0
 22 24  1  0  0  0  0
 18 19  1  0  0  0  0
 18 20  1  0  0  0  0
 18 21  1  0  0  0  0
 17 18  1  0  0  0  0
 14 15  1  0  0  0  0
 14 16  1  0  0  0  0
 14 17  1  0  0  0  0
 11 12  1  0  0  0  0
 11 13  1  0  0  0  0
 11 14  1  0  0  0  0
  9 10  1  0  0  0  0
  9 11  1  0  0  0  0
  9 22  1  0  0  0  0
  7  8  1  0  0  0  0
  7  9  1  0  0  0  0
 26 27  1  0  0  0  0
 26 28  1  0  0  0  0
 26 29  1  0  0  0  0
 24 25  1  0  0  0  0
 24 26  1  0  0  0  0
M  END
$$$$
default_name
  -OEChem-01062215323D

 29 28  0     1  0  0  0  0  0999 V2000
   -3.5781   -3.7296    1.2702 H   0  0  0  0  0  0  0  0  0  0  0  0
   -3.5311   -2.7616    0.7732 C   0  0  0  0  0  0  0  0  0  0  0  0
   -4.2371   -2.0766    1.2382 H   0  0  0  0  0  0  0  0  0  0  0  0
   -3.7681   -2.8816   -0.2818 H   0  0  0  0  0  0  0  0  0  0  0  0
   -2.1321   -2.2086    0.9112 C   0  0  0  0  0  0  0  0  0  0  0  0
   -1.2751   -2.8426    1.5112 O   0  0  0  0  0  0  0  0  0  0  0  0
   -1.9041   -1.0186    0.3602 N   0  0  0  0  0  0  0  0  0  0  0  0
   -2.6671   -0.5416   -0.0988 H   0  0  0  0  0  0  0  0  0  0  0  0
   -0.6131   -0.3236    0.3832 C   0  0  1  0  0  0  0  0  0  0  0  0
   -0.5819    0.3236    1.2611 H   0  0  0  0  0  0  0  0  0  0  0  0
    0.5163   -1.3626    0.5096 C   0  0  0  0  0  0  0  0  0  0  0  0
    0.4126   -2.0935   -0.2952 H   0  0  0  0  0  0  0  0  0  0  0  0
    1.4793   -0.8631    0.3943 H   0  0  0  0  0  0  0  0  0  0  0  0
    0.5108   -2.1135    1.8461 C   0  0  0  0  0  0  0  0  0  0  0  0
   -0.4381   -2.6372    1.9579 H   0  0  0  0  0  0  0  0  0  0  0  0
    1.3176   -2.8473    1.8388 H   0  0  0  0  0  0  0  0  0  0  0  0
    0.7309   -1.0361    3.2849 S   0  0  0  0  0  0  0  0  0  0  0  0
    2.4563   -0.5413    3.0403 C   0  0  0  0  0  0  0  0  0  0  0  0
    2.5588   -0.0244    2.0856 H   0  0  0  0  0  0  0  0  0  0  0  0
    2.7578    0.1290    3.8456 H   0  0  0  0  0  0  0  0  0  0  0  0
    3.0969   -1.4236    3.0493 H   0  0  0  0  0  0  0  0  0  0  0  0
   -0.4543    0.5558   -0.8653 C   0  0  0  0  0  0  0  0  0  0  0  0
   -1.0772    1.6115   -0.9591 O   0  0  0  0  0  0  0  0  0  0  0  0
    0.3703    0.1186   -1.8257 N   0  0  0  0  0  0  0  0  0  0  0  0
    0.8587   -0.7491   -1.6714 H   0  0  0  0  0  0  0  0  0  0  0  0
    0.6160    0.8325   -3.0778 C   0  0  0  0  0  0  0  0  0  0  0  0
    0.9946    1.8343   -2.8618 H   0  0  0  0  0  0  0  0  0  0  0  0
    1.3463    0.2956   -3.6846 H   0  0  0  0  0  0  0  0  0  0  0  0
   -0.3170    0.9288   -3.6359 H   0  0  0  0  0  0  0  0  0  0  0  0
  5  6  2  0  0  0  0
  5  7  1  0  0  0  0
  2  3  1  0  0  0  0
  2  4  1  0  0  0  0
  2  5  1  0  0  0  0
  1  2  1  0  0  0  0
 22 23  2  0  0  0  0
 22 24  1  0  0  0  0
 18 19  1  0  0  0  0
 18 20  1  0  0  0  0
 18 21  1  0  0  0  0
 17 18  1  0  0  0  0
 14 15  1  0  0  0  0
 14 16  1  0  0  0  0
 14 17  1  0  0  0  0
 11 12  1  0  0  0  0
 11 13  1  0  0  0  0
 11 14  1  0  0  0  0
  9 10  1  0  0  0  0
  9 11  1  0  0  0  0
  9 22  1  0  0  0  0
  7  8  1  0  0  0  0
  7  9  1  0  0  0  0
 26 27  1  0  0  0  0
 26 28  1  0  0  0  0
 26 29  1  0  0  0  0
 24 25  1  0  0  0  0
 24 26  1  0  0  0  0
M  END
$$$$
default_name
  -OEChem-01062215323D

 29 28  0     1  0  0  0  0  0999 V2000
   -3.5781   -3.7296    1.2702 H   0  0  0  0  0  0  0  0  0  0  0  0
   -3.5311   -2.7616    0.7732 C   0  0  0  0  0  0  0  0  0  0  0  0
   -4.2371   -2.0766    1.2382 H   0  0  0  0  0  0  0  0  0  0  0  0
   -3.7681   -2.8816   -0.2818 H   0  0  0  0  0  0  0  0  0  0  0  0
   -2.1321   -2.2086    0.9112 C   0  0  0  0  0  0  0  0  0  0  0  0
   -1.2751   -2.8426    1.5112 O   0  0  0  0  0  0  0  0  0  0  0  0
   -1.9041   -1.0186    0.3602 N   0  0  0  0  0  0  0  0  0  0  0  0
   -2.6671   -0.5416   -0.0988 H   0  0  0  0  0  0  0  0  0  0  0  0
   -0.6131   -0.3236    0.3832 C   0  0  1  0  0  0  0  0  0  0  0  0
   -0.5819    0.3236    1.2611 H   0  0  0  0  0  0  0  0  0  0  0  0
    0.5163   -1.3626    0.5096 C   0  0  0  0  0  0  0  0  0  0  0  0
    0.4126   -2.0935   -0.2952 H   0  0  0  0  0  0  0  0  0  0  0  0
    1.4793   -0.8631    0.3943 H   0  0  0  0  0  0  0  0  0  0  0  0
    0.5108   -2.1135    1.8461 C   0  0  0  0  0  0  0  0  0  0  0  0
   -0.4381   -2.6372    1.9579 H   0  0  0  0  0  0  0  0  0  0  0  0
    1.3176   -2.8473    1.8388 H   0  0  0  0  0  0  0  0  0  0  0  0
    0.7309   -1.0361    3.2849 S   0  0  0  0  0  0  0  0  0  0  0  0
    2.4563   -0.5413    3.0403 C   0  0  0  0  0  0  0  0  0  0  0  0
    2.5588   -0.0244    2.0856 H   0  0  0  0  0  0  0  0  0  0  0  0
    2.7578    0.1290    3.8456 H   0  0  0  0  0  0  0  0  0  0  0  0
    3.0969   -1.4236    3.0493 H   0  0  0  0  0  0  0  0  0  0  0  0
   -0.4543    0.5558   -0.8653 C   0  0  0  0  0  0  0  0  0  0  0  0
   -0.8455    1.7211   -0.8524 O   0  0  0  0  0  0  0  0  0  0  0  0
    0.1100   -0.0023   -1.9440 N   0  0  0  0  0  0  0  0  0  0  0  0
    0.4199   -0.9585   -1.8747 H   0  0  0  0  0  0  0  0  0  0  0  0
    0.3170    0.6974   -3.2110 C   0  0  0  0  0  0  0  0  0  0  0  0
    0.9272    1.5881   -3.0437 H   0  0  0  0  0  0  0  0  0  0  0  0
    0.8205    0.0464   -3.9269 H   0  0  0  0  0  0  0  0  0  0  0  0
   -0.6452    1.0098   -3.6206 H   0  0  0  0  0  0  0  0  0  0  0  0
  5  6  2  0  0  0  0
  5  7  1  0  0  0  0
  2  3  1  0  0  0  0
  2  4  1  0  0  0  0
  2  5  1  0  0  0  0
  1  2  1  0  0  0  0
 22 23  2  0  0  0  0
 22 24  1  0  0  0  0
 18 19  1  0  0  0  0
 18 20  1  0  0  0  0
 18 21  1  0  0  0  0
 17 18  1  0  0  0  0
 14 15  1  0  0  0  0
 14 16  1  0  0  0  0
 14 17  1  0  0  0  0
 11 12  1  0  0  0  0
 11 13  1  0  0  0  0
 11 14  1  0  0  0  0
  9 10  1  0  0  0  0
  9 11  1  0  0  0  0
  9 22  1  0  0  0  0
  7  8  1  0  0  0  0
  7  9  1  0  0  0  0
 26 27  1  0  0  0  0
 26 28  1  0  0  0  0
 26 29  1  0  0  0  0
 24 25  1  0  0  0  0
 24 26  1  0  0  0  0
M  END
$$$$
default_name
  -OEChem-01062215323D

 29 28  0     1  0  0  0  0  0999 V2000
   -3.5781   -3.7296    1.2702 H   0  0  0  0  0  0  0  0  0  0  0  0
   -3.5311   -2.7616    0.7732 C   0  0  0  0  0  0  0  0  0  0  0  0
   -4.2371   -2.0766    1.2382 H   0  0  0  0  0  0  0  0  0  0  0  0
   -3.7681   -2.8816   -0.2818 H   0  0  0  0  0  0  0  0  0  0  0  0
   -2.1321   -2.2086    0.9112 C   0  0  0  0  0  0  0  0  0  0  0  0
   -1.2751   -2.8426    1.5112 O   0  0  0  0  0  0  0  0  0  0  0  0
   -1.9041   -1.0186    0.3602 N   0  0  0  0  0  0  0  0  0  0  0  0
   -2.6671   -0.5416   -0.0988 H   0  0  0  0  0  0  0  0  0  0  0  0
   -0.6131   -0.3236    0.3832 C   0  0  1  0  0  0  0  0  0  0  0  0
   -0.5819    0.3236    1.2611 H   0  0  0  0  0  0  0  0  0  0  0  0
    0.5163   -1.3626    0.5096 C   0  0  0  0  0  0  0  0  0  0  0  0
    0.4126   -2.0935   -0.2952 H   0  0  0  0  0  0  0  0  0  0  0  0
    1.4793   -0.8631    0.3943 H   0  0  0  0  0  0  0  0  0  0  0  0
    0.5108   -2.1135    1.8461 C   0  0  0  0  0  0  0  0  0  0  0  0
   -0.4381   -2.6372    1.9579 H   0  0  0  0  0  0  0  0  0  0  0  0
    1.3176   -2.8473    1.8388 H   0  0  0  0  0  0  0  0  0  0  0  0
    0.7309   -1.0361    3.2849 S   0  0  0  0  0  0  0  0  0  0  0  0
    2.4563   -0.5413    3.0403 C   0  0  0  0  0  0  0  0  0  0  0  0
    2.5588   -0.0244    2.0856 H   0  0  0  0  0  0  0  0  0  0  0  0
    2.7578    0.1290    3.8456 H   0  0  0  0  0  0  0  0  0  0  0  0
    3.0969   -1.4236    3.0493 H   0  0  0  0  0  0  0  0  0  0  0  0
   -0.4543    0.5558   -0.8653 C   0  0  0  0  0  0  0  0  0  0  0  0
   -0.5828    1.7754   -0.7807 O   0  0  0  0  0  0  0  0  0  0  0  0
   -0.1844   -0.0612   -2.0229 N   0  0  0  0  0  0  0  0  0  0  0  0
   -0.0780   -1.0630   -2.0117 H   0  0  0  0  0  0  0  0  0  0  0  0
   -0.0199    0.6334   -3.2989 C   0  0  0  0  0  0  0  0  0  0  0  0
    0.7833    1.3694   -3.2161 H   0  0  0  0  0  0  0  0  0  0  0  0
    0.2242   -0.0771   -4.0898 H   0  0  0  0  0  0  0  0  0  0  0  0
   -0.9428    1.1567   -3.5550 H   0  0  0  0  0  0  0  0  0  0  0  0
  5  6  2  0  0  0  0
  5  7  1  0  0  0  0
  2  3  1  0  0  0  0
  2  4  1  0  0  0  0
  2  5  1  0  0  0  0
  1  2  1  0  0  0  0
 22 23  2  0  0  0  0
 22 24  1  0  0  0  0
 18 19  1  0  0  0  0
 18 20  1  0  0  0  0
 18 21  1  0  0  0  0
 17 18  1  0  0  0  0
 14 15  1  0  0  0  0
 14 16  1  0  0  0  0
 14 17  1  0  0  0  0
 11 12  1  0  0  0  0
 11 13  1  0  0  0  0
 11 14  1  0  0  0  0
  9 10  1  0  0  0  0
  9 11  1  0  0  0  0
  9 22  1  0  0  0  0
  7  8  1  0  0  0  0
  7  9  1  0  0  0  0
 26 27  1  0  0  0  0
 26 28  1  0  0  0  0
 26 29  1  0  0  0  0
 24 25  1  0  0  0  0
 24 26  1  0  0  0  0
M  END
$$$$
default_name
  -OEChem-01062215323D

 29 28  0     1  0  0  0  0  0999 V2000
   -3.5781   -3.7296    1.2702 H   0  0  0  0  0  0  0  0  0  0  0  0
   -3.5311   -2.7616    0.7732 C   0  0  0  0  0  0  0  0  0  0  0  0
   -4.2371   -2.0766    1.2382 H   0  0  0  0  0  0  0  0  0  0  0  0
   -3.7681   -2.8816   -0.2818 H   0  0  0  0  0  0  0  0  0  0  0  0
   -2.1321   -2.2086    0.9112 C   0  0  0  0  0  0  0  0  0  0  0  0
   -1.2751   -2.8426    1.5112 O   0  0  0  0  0  0  0  0  0  0  0  0
   -1.9041   -1.0186    0.3602 N   0  0  0  0  0  0  0  0  0  0  0  0
   -2.6671   -0.5416   -0.0988 H   0  0  0  0  0  0  0  0  0  0  0  0
   -0.6131   -0.3236    0.3832 C   0  0  1  0  0  0  0  0  0  0  0  0
   -0.5819    0.3236    1.2611 H   0  0  0  0  0  0  0  0  0  0  0  0
    0.5163   -1.3626    0.5096 C   0  0  0  0  0  0  0  0  0  0  0  0
    0.4126   -2.0935   -0.2952 H   0  0  0  0  0  0  0  0  0  0  0  0
    1.4793   -0.8631    0.3943 H   0  0  0  0  0  0  0  0  0  0  0  0
    0.5108   -2.1135    1.8461 C   0  0  0  0  0  0  0  0  0  0  0  0
   -0.4381   -2.6372    1.9579 H   0  0  0  0  0  0  0  0  0  0  0  0
    1.3176   -2.8473    1.8388 H   0  0  0  0  0  0  0  0  0  0  0  0
    0.7309   -1.0361    3.2849 S   0  0  0  0  0  0  0  0  0  0  0  0
    2.4563   -0.5413    3.0403 C   0  0  0  0  0  0  0  0  0  0  0  0
    2.5588   -0.0244    2.0856 H   0  0  0  0  0  0  0  0  0  0  0  0
    2.7578    0.1290    3.8456 H   0  0  0  0  0  0  0  0  0  0  0  0
    3.0969   -1.4236    3.0493 H   0  0  0  0  0  0  0  0  0  0  0  0
   -0.4543    0.5558   -0.8653 C   0  0  0  0  0  0  0  0  0  0  0  0
   -0.3070    1.7707   -0.7490 O   0  0  0  0  0  0  0  0  0  0  0  0
   -0.4928   -0.0539   -2.0570 N   0  0  0  0  0  0  0  0  0  0  0  0
   -0.6013   -1.0555   -2.0729 H   0  0  0  0  0  0  0  0  0  0  0  0
   -0.3718    0.6448   -3.3356 C   0  0  0  0  0  0  0  0  0  0  0  0
    0.5727    1.1930   -3.3671 H   0  0  0  0  0  0  0  0  0  0  0  0
   -0.4019   -0.0665   -4.1620 H   0  0  0  0  0  0  0  0  0  0  0  0
   -1.1897    1.3594   -3.4436 H   0  0  0  0  0  0  0  0  0  0  0  0
  5  6  2  0  0  0  0
  5  7  1  0  0  0  0
  2  3  1  0  0  0  0
  2  4  1  0  0  0  0
  2  5  1  0  0  0  0
  1  2  1  0  0  0  0
 22 23  2  0  0  0  0
 22 24  1  0  0  0  0
 18 19  1  0  0  0  0
 18 20  1  0  0  0  0
 18 21  1  0  0  0  0
 17 18  1  0  0  0  0
 14 15  1  0  0  0  0
 14 16  1  0  0  0  0
 14 17  1  0  0  0  0
 11 12  1  0  0  0  0
 11 13  1  0  0  0  0
 11 14  1  0  0  0  0
  9 10  1  0  0  0  0
  9 11  1  0  0  0  0
  9 22  1  0  0  0  0
  7  8  1  0  0  0  0
  7  9  1  0  0  0  0
 26 27  1  0  0  0  0
 26 28  1  0  0  0  0
 26 29  1  0  0  0  0
 24 25  1  0  0  0  0
 24 26  1  0  0  0  0
M  END
$$$$
default_name
  -OEChem-01062215323D

 29 28  0     1  0  0  0  0  0999 V2000
   -3.5781   -3.7296    1.2702 H   0  0  0  0  0  0  0  0  0  0  0  0
   -3.5311   -2.7616    0.7732 C   0  0  0  0  0  0  0  0  0  0  0  0
   -4.2371   -2.0766    1.2382 H   0  0  0  0  0  0  0  0  0  0  0  0
   -3.7681   -2.8816   -0.2818 H   0  0  0  0  0  0  0  0  0  0  0  0
   -2.1321   -2.2086    0.9112 C   0  0  0  0  0  0  0  0  0  0  0  0
   -1.2751   -2.8426    1.5112 O   0  0  0  0  0  0  0  0  0  0  0  0
   -1.9041   -1.0186    0.3602 N   0  0  0  0  0  0  0  0  0  0  0  0
   -2.6671   -0.5416   -0.0988 H   0  0  0  0  0  0  0  0  0  0  0  0
   -0.6131   -0.3236    0.3832 C   0  0  1  0  0  0  0  0  0  0  0  0
   -0.5819    0.3236    1.2611 H   0  0  0  0  0  0  0  0  0  0  0  0
    0.5163   -1.3626    0.5096 C   0  0  0  0  0  0  0  0  0  0  0  0
    0.4126   -2.0935   -0.2952 H   0  0  0  0  0  0  0  0  0  0  0  0
    1.4793   -0.8631    0.3943 H   0  0  0  0  0  0  0  0  0  0  0  0
    0.5108   -2.1135    1.8461 C   0  0  0  0  0  0  0  0  0  0  0  0
   -0.4381   -2.6372    1.9579 H   0  0  0  0  0  0  0  0  0  0  0  0
    1.3176   -2.8473    1.8388 H   0  0  0  0  0  0  0  0  0  0  0  0
    0.7309   -1.0361    3.2849 S   0  0  0  0  0  0  0  0  0  0  0  0
    2.4563   -0.5413    3.0403 C   0  0  0  0  0  0  0  0  0  0  0  0
    2.5588   -0.0244    2.0856 H   0  0  0  0  0  0  0  0  0  0  0  0
    2.7578    0.1290    3.8456 H   0  0  0  0  0  0  0  0  0  0  0  0
    3.0969   -1.4236    3.0493 H   0  0  0  0  0  0  0  0  0  0  0  0
   -0.4543    0.5558   -0.8653 C   0  0  0  0  0  0  0  0  0  0  0  0
   -0.0369    1.7072   -0.7593 O   0  0  0  0  0  0  0  0  0  0  0  0
   -0.7943    0.0189   -2.0441 N   0  0  0  0  0  0  0  0  0  0  0  0
   -1.1143   -0.9364   -2.0543 H   0  0  0  0  0  0  0  0  0  0  0  0
   -0.7148    0.7309   -3.3186 C   0  0  0  0  0  0  0  0  0  0  0  0
    0.3098    1.0710   -3.4864 H   0  0  0  0  0  0  0  0  0  0  0  0
   -1.0151    0.0773   -4.1386 H   0  0  0  0  0  0  0  0  0  0  0  0
   -1.3689    1.6043   -3.2939 H   0  0  0  0  0  0  0  0  0  0  0  0
  5  6  2  0  0  0  0
  5  7  1  0  0  0  0
  2  3  1  0  0  0  0
  2  4  1  0  0  0  0
  2  5  1  0  0  0  0
  1  2  1  0  0  0  0
 22 23  2  0  0  0  0
 22 24  1  0  0  0  0
 18 19  1  0  0  0  0
 18 20  1  0  0  0  0
 18 21  1  0  0  0  0
 17 18  1  0  0  0  0
 14 15  1  0  0  0  0
 14 16  1  0  0  0  0
 14 17  1  0  0  0  0
 11 12  1  0  0  0  0
 11 13  1  0  0  0  0
 11 14  1  0  0  0  0
  9 10  1  0  0  0  0
  9 11  1  0  0  0  0
  9 22  1  0  0  0  0
  7  8  1  0  0  0  0
  7  9  1  0  0  0  0
 26 27  1  0  0  0  0
 26 28  1  0  0  0  0
 26 29  1  0  0  0  0
 24 25  1  0  0  0  0
 24 26  1  0  0  0  0
M  END
$$$$
default_name
  -OEChem-01062215323D

 29 28  0     1  0  0  0  0  0999 V2000
   -3.5781   -3.7296    1.2702 H   0  0  0  0  0  0  0  0  0  0  0  0
   -3.5311   -2.7616    0.7732 C   0  0  0  0  0  0  0  0  0  0  0  0
   -4.2371   -2.0766    1.2382 H   0  0  0  0  0  0  0  0  0  0  0  0
   -3.7681   -2.8816   -0.2818 H   0  0  0  0  0  0  0  0  0  0  0  0
   -2.1321   -2.2086    0.9112 C   0  0  0  0  0  0  0  0  0  0  0  0
   -1.2751   -2.8426    1.5112 O   0  0  0  0  0  0  0  0  0  0  0  0
   -1.9041   -1.0186    0.3602 N   0  0  0  0  0  0  0  0  0  0  0  0
   -2.6671   -0.5416   -0.0988 H   0  0  0  0  0  0  0  0  0  0  0  0
   -0.6131   -0.3236    0.3832 C   0  0  1  0  0  0  0  0  0  0  0  0
   -0.5819    0.3236    1.2611 H   0  0  0  0  0  0  0  0  0  0  0  0
    0.5163   -1.3626    0.5096 C   0  0  0  0  0  0  0  0  0  0  0  0
    0.4126   -2.0935   -0.2952 H   0  0  0  0  0  0  0  0  0  0  0  0
    1.4793   -0.8631    0.3943 H   0  0  0  0  0  0  0  0  0  0  0  0
    0.5108   -2.1135    1.8461 C   0  0  0  0  0  0  0  0  0  0  0  0
   -0.4381   -2.6372    1.9579 H   0  0  0  0  0  0  0  0  0  0  0  0
    1.3176   -2.8473    1.8388 H   0  0  0  0  0  0  0  0  0  0  0  0
    0.7309   -1.0361    3.2849 S   0  0  0  0  0  0  0  0  0  0  0  0
    2.4563   -0.5413    3.0403 C   0  0  0  0  0  0  0  0  0  0  0  0
    2.5588   -0.0244    2.0856 H   0  0  0  0  0  0  0  0  0  0  0  0
    2.7578    0.1290    3.8456 H   0  0  0  0  0  0  0  0  0  0  0  0
    3.0969   -1.4236    3.0493 H   0  0  0  0  0  0  0  0  0  0  0  0
   -0.4543    0.5558   -0.8653 C   0  0  0  0  0  0  0  0  0  0  0  0
    0.2091    1.5893   -0.8111 O   0  0  0  0  0  0  0  0  0  0  0  0
   -1.0683    0.1523   -1.9849 N   0  0  0  0  0  0  0  0  0  0  0  0
   -1.5820   -0.7140   -1.9571 H   0  0  0  0  0  0  0  0  0  0  0  0
   -1.0254    0.8858   -3.2490 C   0  0  0  0  0  0  0  0  0  0  0  0
    0.0125    1.0117   -3.5660 H   0  0  0  0  0  0  0  0  0  0  0  0
   -1.5737    0.3448   -4.0213 H   0  0  0  0  0  0  0  0  0  0  0  0
   -1.4684    1.8745   -3.1163 H   0  0  0  0  0  0  0  0  0  0  0  0
  5  6  2  0  0  0  0
  5  7  1  0  0  0  0
  2  3  1  0  0  0  0
  2  4  1  0  0  0  0
  2  5  1  0  0  0  0
  1  2  1  0  0  0  0
 22 23  2  0  0  0  0
 22 24  1  0  0  0  0
 18 19  1  0  0  0  0
 18 20  1  0  0  0  0
 18 21  1  0  0  0  0
 17 18  1  0  0  0  0
 14 15  1  0  0  0  0
 14 16  1  0  0  0  0
 14 17  1  0  0  0  0
 11 12  1  0  0  0  0
 11 13  1  0  0  0  0
 11 14  1  0  0  0  0
  9 10  1  0  0  0  0
  9 11  1  0  0  0  0
  9 22  1  0  0  0  0
  7  8  1  0  0  0  0
  7  9  1  0  0  0  0
 26 27  1  0  0  0  0
 26 28  1  0  0  0  0
 26 29  1  0  0  0  0
 24 25  1  0  0  0  0
 24 26  1  0  0  0  0
M  END
$$$$
default_name
  -OEChem-01062215323D

 29 28  0     1  0  0  0  0  0999 V2000
   -3.5781   -3.7296    1.2702 H   0  0  0  0  0  0  0  0  0  0  0  0
   -3.5311   -2.7616    0.7732 C   0  0  0  0  0  0  0  0  0  0  0  0
   -4.2371   -2.0766    1.2382 H   0  0  0  0  0  0  0  0  0  0  0  0
   -3.7681   -2.8816   -0.2818 H   0  0  0  0  0  0  0  0  0  0  0  0
   -2.1321   -2.2086    0.9112 C   0  0  0  0  0  0  0  0  0  0  0  0
   -1.2751   -2.8426    1.5112 O   0  0  0  0  0  0  0  0  0  0  0  0
   -1.9041   -1.0186    0.3602 N   0  0  0  0  0  0  0  0  0  0  0  0
   -2.6671   -0.5416   -0.0988 H   0  0  0  0  0  0  0  0  0  0  0  0
   -0.6131   -0.3236    0.3832 C   0  0  1  0  0  0  0  0  0  0  0  0
   -0.5819    0.3236    1.2611 H   0  0  0  0  0  0  0  0  0  0  0  0
    0.5163   -1.3626    0.5096 C   0  0  0  0  0  0  0  0  0  0  0  0
    0.4126   -2.0935   -0.2952 H   0  0  0  0  0  0  0  0  0  0  0  0
    1.4793   -0.8631    0.3943 H   0  0  0  0  0  0  0  0  0  0  0  0
    0.5108   -2.1135    1.8461 C   0  0  0  0  0  0  0  0  0  0  0  0
   -0.4381   -2.6372    1.9579 H   0  0  0  0  0  0  0  0  0  0  0  0
    1.3176   -2.8473    1.8388 H   0  0  0  0  0  0  0  0  0  0  0  0
    0.7309   -1.0361    3.2849 S   0  0  0  0  0  0  0  0  0  0  0  0
    2.4563   -0.5413    3.0403 C   0  0  0  0  0  0  0  0  0  0  0  0
    2.5588   -0.0244    2.0856 H   0  0  0  0  0  0  0  0  0  0  0  0
    2.7578    0.1290    3.8456 H   0  0  0  0  0  0  0  0  0  0  0  0
    3.0969   -1.4236    3.0493 H   0  0  0  0  0  0  0  0  0  0  0  0
   -0.4543    0.5558   -0.8653 C   0  0  0  0  0  0  0  0  0  0  0  0
    0.4142    1.4251   -0.9007 O   0  0  0  0  0  0  0  0  0  0  0  0
   -1.2961    0.3373   -1.8836 N   0  0  0  0  0  0  0  0  0  0  0  0
   -1.9725   -0.4033   -1.7880 H   0  0  0  0  0  0  0  0  0  0  0  0
   -1.2826    1.0989   -3.1316 C   0  0  0  0  0  0  0  0  0  0  0  0
   -0.2990    1.0191   -3.6004 H   0  0  0  0  0  0  0  0  0  0  0  0
   -2.0396    0.7175   -3.8180 H   0  0  0  0  0  0  0  0  0  0  0  0
   -1.4812    2.1517   -2.9227 H   0  0  0  0  0  0  0  0  0  0  0  0
  5  6  2  0  0  0  0
  5  7  1  0  0  0  0
  2  3  1  0  0  0  0
  2  4  1  0  0  0  0
  2  5  1  0  0  0  0
  1  2  1  0  0  0  0
 22 23  2  0  0  0  0
 22 24  1  0  0  0  0
 18 19  1  0  0  0  0
 18 20  1  0  0  0  0
 18 21  1  0  0  0  0
 17 18  1  0  0  0  0
 14 15  1  0  0  0  0
 14 16  1  0  0  0  0
 14 17  1  0  0  0  0
 11 12  1  0  0  0  0
 11 13  1  0  0  0  0
 11 14  1  0  0  0  0
  9 10  1  0  0  0  0
  9 11  1  0  0  0  0
  9 22  1  0  0  0  0
  7  8  1  0  0  0  0
  7  9  1  0  0  0  0
 26 27  1  0  0  0  0
 26 28  1  0  0  0  0
 26 29  1  0  0  0  0
 24 25  1  0  0  0  0
 24 26  1  0  0  0  0
M  END
$$$$
default_name
  -OEChem-01062215323D

 29 28  0     1  0  0  0  0  0999 V2000
   -3.5781   -3.7296    1.2702 H   0  0  0  0  0  0  0  0  0  0  0  0
   -3.5311   -2.7616    0.7732 C   0  0  0  0  0  0  0  0  0  0  0  0
   -4.2371   -2.0766    1.2382 H   0  0  0  0  0  0  0  0  0  0  0  0
   -3.7681   -2.8816   -0.2818 H   0  0  0  0  0  0  0  0  0  0  0  0
   -2.1321   -2.2086    0.9112 C   0  0  0  0  0  0  0  0  0  0  0  0
   -1.2751   -2.8426    1.5112 O   0  0  0  0  0  0  0  0  0  0  0  0
   -1.9041   -1.0186    0.3602 N   0  0  0  0  0  0  0  0  0  0  0  0
   -2.6671   -0.5416   -0.0988 H   0  0  0  0  0  0  0  0  0  0  0  0
   -0.6131   -0.3236    0.3832 C   0  0  1  0  0  0  0  0  0  0  0  0
   -0.5819    0.3236    1.2611 H   0  0  0  0  0  0  0  0  0  0  0  0
    0.5163   -1.3626    0.5096 C   0  0  0  0  0  0  0  0  0  0  0  0
    0.4126   -2.0935   -0.2952 H   0  0  0  0  0  0  0  0  0  0  0  0
    1.4793   -0.8631    0.3943 H   0  0  0  0  0  0  0  0  0  0  0  0
    0.5108   -2.1135    1.8461 C   0  0  0  0  0  0  0  0  0  0  0  0
   -0.4381   -2.6372    1.9579 H   0  0  0  0  0  0  0  0  0  0  0  0
    1.3176   -2.8473    1.8388 H   0  0  0  0  0  0  0  0  0  0  0  0
    0.7309   -1.0361    3.2849 S   0  0  0  0  0  0  0  0  0  0  0  0
    2.4563   -0.5413    3.0403 C   0  0  0  0  0  0  0  0  0  0  0  0
    2.5588   -0.0244    2.0856 H   0  0  0  0  0  0  0  0  0  0  0  0
    2.7578    0.1290    3.8456 H   0  0  0  0  0  0  0  0  0  0  0  0
    3.0969   -1.4236    3.0493 H   0  0  0  0  0  0  0  0  0  0  0  0
   -0.4543    0.5558   -0.8653 C   0  0  0  0  0  0  0  0  0  0  0  0
    0.5645    1.2257   -1.0220 O   0  0  0  0  0  0  0  0  0  0  0  0
   -1.4622    0.5612   -1.7470 N   0  0  0  0  0  0  0  0  0  0  0  0
   -2.2592   -0.0255   -1.5584 H   0  0  0  0  0  0  0  0  0  0  0  0
   -1.4687    1.3558   -2.9743 C   0  0  0  0  0  0  0  0  0  0  0  0
   -0.6034    1.0928   -3.5873 H   0  0  0  0  0  0  0  0  0  0  0  0
   -2.3811    1.1702   -3.5426 H   0  0  0  0  0  0  0  0  0  0  0  0
   -1.4066    2.4169   -2.7264 H   0  0  0  0  0  0  0  0  0  0  0  0
  5  6  2  0  0  0  0
  5  7  1  0  0  0  0
  2  3  1  0  0  0  0
  2  4  1  0  0  0  0
  2  5  1  0  0  0  0
  1  2  1  0  0  0  0
 22 23  2  0  0  0  0
 22 24  1  0  0  0  0
 18 19  1  0  0  0  0
 18 20  1  0  0  0  0
 18 21  1  0  0  0  0
 17 18  1  0  0  0  0
 14 15  1  0  0  0  0
 14 16  1  0  0  0  0
 14 17  1  0  0  0  0
 11 12  1  0  0  0  0
 11 13  1  0  0  0  0
 11 14  1  0  0  0  0
  9 10  1  0  0  0  0
  9 11  1  0  0  0  0
  9 22  1  0  0  0  0
  7  8  1  0  0  0  0
  7  9  1  0  0  0  0
 26 27  1  0  0  0  0
 26 28  1  0  0  0  0
 26 29  1  0  0  0  0
 24 25  1  0  0  0  0
 24 26  1  0  0  0  0
M  END
$$$$
default_name
  -OEChem-01062215323D

 29 28  0     1  0  0  0  0  0999 V2000
   -3.5781   -3.7296    1.2702 H   0  0  0  0  0  0  0  0  0  0  0  0
   -3.5311   -2.7616    0.7732 C   0  0  0  0  0  0  0  0  0  0  0  0
   -4.2371   -2.0766    1.2382 H   0  0  0  0  0  0  0  0  0  0  0  0
   -3.7681   -2.8816   -0.2818 H   0  0  0  0  0  0  0  0  0  0  0  0
   -2.1321   -2.2086    0.9112 C   0  0  0  0  0  0  0  0  0  0  0  0
   -1.2751   -2.8426    1.5112 O   0  0  0  0  0  0  0  0  0  0  0  0
   -1.9041   -1.0186    0.3602 N   0  0  0  0  0  0  0  0  0  0  0  0
   -2.6671   -0.5416   -0.0988 H   0  0  0  0  0  0  0  0  0  0  0  0
   -0.6131   -0.3236    0.3832 C   0  0  1  0  0  0  0  0  0  0  0  0
   -0.5819    0.3236    1.2611 H   0  0  0  0  0  0  0  0  0  0  0  0
    0.5163   -1.3626    0.5096 C   0  0  0  0  0  0  0  0  0  0  0  0
    0.4126   -2.0935   -0.2952 H   0  0  0  0  0  0  0  0  0  0  0  0
    1.4793   -0.8631    0.3943 H   0  0  0  0  0  0  0  0  0  0  0  0
    0.5108   -2.1135    1.8461 C   0  0  0  0  0  0  0  0  0  0  0  0
   -0.4381   -2.6372    1.9579 H   0  0  0  0  0  0  0  0  0  0  0  0
    1.3176   -2.8473    1.8388 H   0  0  0  0  0  0  0  0  0  0  0  0
    0.7309   -1.0361    3.2849 S   0  0  0  0  0  0  0  0  0  0  0  0
    2.4563   -0.5413    3.0403 C   0  0  0  0  0  0  0  0  0  0  0  0
    2.5588   -0.0244    2.0856 H   0  0  0  0  0  0  0  0  0  0  0  0
    2.7578    0.1290    3.8456 H   0  0  0  0  0  0  0  0  0  0  0  0
    3.0969   -1.4236    3.0493 H   0  0  0  0  0  0  0  0  0  0  0  0
   -0.4543    0.5558   -0.8653 C   0  0  0  0  0  0  0  0  0  0  0  0
    0.6497    1.0046   -1.1669 O   0  0  0  0  0  0  0  0  0  0  0  0
   -1.5553    0.8088   -1.5845 N   0  0  0  0  0  0  0  0  0  0  0  0
   -2.4227    0.3936   -1.2840 H   0  0  0  0  0  0  0  0  0  0  0  0
   -1.5711    1.6389   -2.7880 C   0  0  0  0  0  0  0  0  0  0  0  0
   -0.8799    1.2276   -3.5275 H   0  0  0  0  0  0  0  0  0  0  0  0
   -2.5748    1.6719   -3.2139 H   0  0  0  0  0  0  0  0  0  0  0  0
   -1.2496    2.6522   -2.5407 H   0  0  0  0  0  0  0  0  0  0  0  0
  5  6  2  0  0  0  0
  5  7  1  0  0  0  0
  2  3  1  0  0  0  0
  2  4  1  0  0  0  0
  2  5  1  0  0  0  0
  1  2  1  0  0  0  0
 22 23  2  0  0  0  0
 22 24  1  0  0  0  0
 18 19  1  0  0  0  0
 18 20  1  0  0  0  0
 18 21  1  0  0  0  0
 17 18  1  0  0  0  0
 14 15  1  0  0  0  0
 14 16  1  0  0  0  0
 14 17  1  0  0  0  0
 11 12  1  0  0  0  0
 11 13  1  0  0  0  0
 11 14  1  0  0  0  0
  9 10  1  0  0  0  0
  9 11  1  0  0  0  0
  9 22  1  0  0  0  0
  7  8  1  0  0  0  0
  7  9  1  0  0  0  0
 26 27  1  0  0  0  0
 26 28  1  0  0  0  0
 26 29  1  0  0  0  0
 24 25  1  0  0  0  0
 24 26  1  0  0  0  0
M  END
$$$$
default_name
  -OEChem-01062215323D

 29 28  0     1  0  0  0  0  0999 V2000
   -3.5781   -3.7296    1.2702 H   0  0  0  0  0  0  0  0  0  0  0  0
   -3.5311   -2.7616    0.7732 C   0  0  0  0  0  0  0  0  0  0  0  0
   -4.2371   -2.0766    1.2382 H   0  0  0  0  0  0  0  0  0  0  0  0
   -3.7681   -2.8816   -0.2818 H   0  0  0  0  0  0  0  0  0  0  0  0
   -2.1321   -2.2086    0.9112 C   0  0  0  0  0  0  0  0  0  0  0  0
   -1.2751   -2.8426    1.5112 O   0  0  0  0  0  0  0  0  0  0  0  0
   -1.9041   -1.0186    0.3602 N   0  0  0  0  0  0  0  0  0  0  0  0
   -2.6671   -0.5416   -0.0988 H   0  0  0  0  0  0  0  0  0  0  0  0
   -0.6131   -0.3236    0.3832 C   0  0  1  0  0  0  0  0  0  0  0  0
   -0.5819    0.3236    1.2611 H   0  0  0  0  0  0  0  0  0  0  0  0
    0.5163   -1.3626    0.5096 C   0  0  0  0  0  0  0  0  0  0  0  0
    0.4126   -2.0935   -0.2952 H   0  0  0  0  0  0  0  0  0  0  0  0
    1.4793   -0.8631    0.3943 H   0  0  0  0  0  0  0  0  0  0  0  0
    0.5108   -2.1135    1.8461 C   0  0  0  0  0  0  0  0  0  0  0  0
   -0.4381   -2.6372    1.9579 H   0  0  0  0  0  0  0  0  0  0  0  0
    1.3176   -2.8473    1.8388 H   0  0  0  0  0  0  0  0  0  0  0  0
    0.7309   -1.0361    3.2849 S   0  0  0  0  0  0  0  0  0  0  0  0
    2.4563   -0.5413    3.0403 C   0  0  0  0  0  0  0  0  0  0  0  0
    2.5588   -0.0244    2.0856 H   0  0  0  0  0  0  0  0  0  0  0  0
    2.7578    0.1290    3.8456 H   0  0  0  0  0  0  0  0  0  0  0  0
    3.0969   -1.4236    3.0493 H   0  0  0  0  0  0  0  0  0  0  0  0
   -0.4543    0.5558   -0.8653 C   0  0  0  0  0  0  0  0  0  0  0  0
    0.6640    0.7771   -1.3253 O   0  0  0  0  0  0  0  0  0  0  0  0
   -1.5689    1.0631   -1.4071 N   0  0  0  0  0  0  0  0  0  0  0  0
   -2.4517    0.8254   -0.9835 H   0  0  0  0  0  0  0  0  0  0  0  0
   -1.5828    1.9288   -2.5852 C   0  0  0  0  0  0  0  0  0  0  0  0
   -1.1098    1.4145   -3.4251 H   0  0  0  0  0  0  0  0  0  0  0  0
   -2.6076    2.1885   -2.8542 H   0  0  0  0  0  0  0  0  0  0  0  0
   -1.0209    2.8414   -2.3783 H   0  0  0  0  0  0  0  0  0  0  0  0
  5  6  2  0  0  0  0
  5  7  1  0  0  0  0
  2  3  1  0  0  0  0
  2  4  1  0  0  0  0
  2  5  1  0  0  0  0
  1  2  1  0  0  0  0
 22 23  2  0  0  0  0
 22 24  1  0  0  0  0
 18 19  1  0  0  0  0
 18 20  1  0  0  0  0
 18 21  1  0  0  0  0
 17 18  1  0  0  0  0
 14 15  1  0  0  0  0
 14 16  1  0  0  0  0
 14 17  1  0  0  0  0
 11 12  1  0  0  0  0
 11 13  1  0  0  0  0
 11 14  1  0  0  0  0
  9 10  1  0  0  0  0
  9 11  1  0  0  0  0
  9 22  1  0  0  0  0
  7  8  1  0  0  0  0
  7  9  1  0  0  0  0
 26 27  1  0  0  0  0
 26 28  1  0  0  0  0
 26 29  1  0  0  0  0
 24 25  1  0  0  0  0
 24 26  1  0  0  0  0
M  END
$$$$
default_name
  -OEChem-01062215323D

 29 28  0     1  0  0  0  0  0999 V2000
   -3.5781   -3.7296    1.2702 H   0  0  0  0  0  0  0  0  0  0  0  0
   -3.5311   -2.7616    0.7732 C   0  0  0  0  0  0  0  0  0  0  0  0
   -4.2371   -2.0766    1.2382 H   0  0  0  0  0  0  0  0  0  0  0  0
   -3.7681   -2.8816   -0.2818 H   0  0  0  0  0  0  0  0  0  0  0  0
   -2.1321   -2.2086    0.9112 C   0  0  0  0  0  0  0  0  0  0  0  0
   -1.2751   -2.8426    1.5112 O   0  0  0  0  0  0  0  0  0  0  0  0
   -1.9041   -1.0186    0.3602 N   0  0  0  0  0  0  0  0  0  0  0  0
   -2.6671   -0.5416   -0.0988 H   0  0  0  0  0  0  0  0  0  0  0  0
   -0.6131   -0.3236    0.3832 C   0  0  1  0  0  0  0  0  0  0  0  0
   -0.5819    0.3236    1.2611 H   0  0  0  0  0  0  0  0  0  0  0  0
    0.5163   -1.3626    0.5096 C   0  0  0  0  0  0  0  0  0  0  0  0
    0.4126   -2.0935   -0.2952 H   0  0  0  0  0  0  0  0  0  0  0  0
    1.4793   -0.8631    0.3943 H   0  0  0  0  0  0  0  0  0  0  0  0
    0.5108   -2.1135    1.8461 C   0  0  0  0  0  0  0  0  0  0  0  0
   -0.4381   -2.6372    1.9579 H   0  0  0  0  0  0  0  0  0  0  0  0
    1.3176   -2.8473    1.8388 H   0  0  0  0  0  0  0  0  0  0  0  0
    0.7309   -1.0361    3.2849 S   0  0  0  0  0  0  0  0  0  0  0  0
    2.4563   -0.5413    3.0403 C   0  0  0  0  0  0  0  0  0  0  0  0
    2.5588   -0.0244    2.0856 H   0  0  0  0  0  0  0  0  0  0  0  0
    2.7578    0.1290    3.8456 H   0  0  0  0  0  0  0  0  0  0  0  0
    3.0969   -1.4236    3.0493 H   0  0  0  0  0  0  0  0  0  0  0  0
   -0.4543    0.5558   -0.8653 C   0  0  0  0  0  0  0  0  0  0  0  0
    0.6065    0.5585   -1.4866 O   0  0  0  0  0  0  0  0  0  0  0  0
   -1.5023    1.3070   -1.2269 N   0  0  0  0  0  0  0  0  0  0  0  0
   -2.3442    1.2407   -0.6774 H   0  0  0  0  0  0  0  0  0  0  0  0
   -1.5031    2.2060   -2.3799 C   0  0  0  0  0  0  0  0  0  0  0  0
   -1.2774    1.6406   -3.2871 H   0  0  0  0  0  0  0  0  0  0  0  0
   -2.4772    2.6848   -2.4880 H   0  0  0  0  0  0  0  0  0  0  0  0
   -0.7361    2.9717   -2.2503 H   0  0  0  0  0  0  0  0  0  0  0  0
  5  6  2  0  0  0  0
  5  7  1  0  0  0  0
  2  3  1  0  0  0  0
  2  4  1  0  0  0  0
  2  5  1  0  0  0  0
  1  2  1  0  0  0  0
 22 23  2  0  0  0  0
 22 24  1  0  0  0  0
 18 19  1  0  0  0  0
 18 20  1  0  0  0  0
 18 21  1  0  0  0  0
 17 18  1  0  0  0  0
 14 15  1  0  0  0  0
 14 16  1  0  0  0  0
 14 17  1  0  0  0  0
 11 12  1  0  0  0  0
 11 13  1  0  0  0  0
 11 14  1  0  0  0  0
  9 10  1  0  0  0  0
  9 11  1  0  0  0  0
  9 22  1  0  0  0  0
  7  8  1  0  0  0  0
  7  9  1  0  0  0  0
 26 27  1  0  0  0  0
 26 28  1  0  0  0  0
 26 29  1  0  0  0  0
 24 25  1  0  0  0  0
 24 26  1  0  0  0  0
M  END
$$$$
default_name
  -OEChem-01062215323D

 29 28  0     1  0  0  0  0  0999 V2000
   -3.5781   -3.7296    1.2702 H   0  0  0  0  0  0  0  0  0  0  0  0
   -3.5311   -2.7616    0.7732 C   0  0  0  0  0  0  0  0  0  0  0  0
   -4.2371   -2.0766    1.2382 H   0  0  0  0  0  0  0  0  0  0  0  0
   -3.7681   -2.8816   -0.2818 H   0  0  0  0  0  0  0  0  0  0  0  0
   -2.1321   -2.2086    0.9112 C   0  0  0  0  0  0  0  0  0  0  0  0
   -1.2751   -2.8426    1.5112 O   0  0  0  0  0  0  0  0  0  0  0  0
   -1.9041   -1.0186    0.3602 N   0  0  0  0  0  0  0  0  0  0  0  0
   -2.6671   -0.5416   -0.0988 H   0  0  0  0  0  0  0  0  0  0  0  0
   -0.6131   -0.3236    0.3832 C   0  0  1  0  0  0  0  0  0  0  0  0
   -0.5819    0.3236    1.2611 H   0  0  0  0  0  0  0  0  0  0  0  0
    0.5163   -1.3626    0.5096 C   0  0  0  0  0  0  0  0  0  0  0  0
    0.4126   -2.0935   -0.2952 H   0  0  0  0  0  0  0  0  0  0  0  0
    1.4793   -0.8631    0.3943 H   0  0  0  0  0  0  0  0  0  0  0  0
    0.5108   -2.1135    1.8461 C   0  0  0  0  0  0  0  0  0  0  0  0
   -0.4381   -2.6372    1.9579 H   0  0  0  0  0  0  0  0  0  0  0  0
    1.3176   -2.8473    1.8388 H   0  0  0  0  0  0  0  0  0  0  0  0
    0.7309   -1.0361    3.2849 S   0  0  0  0  0  0  0  0  0  0  0  0
    2.4563   -0.5413    3.0403 C   0  0  0  0  0  0  0  0  0  0  0  0
    2.5588   -0.0244    2.0856 H   0  0  0  0  0  0  0  0  0  0  0  0
    2.7578    0.1290    3.8456 H   0  0  0  0  0  0  0  0  0  0  0  0
    3.0969   -1.4236    3.0493 H   0  0  0  0  0  0  0  0  0  0  0  0
   -0.4543    0.5558   -0.8653 C   0  0  0  0  0  0  0  0  0  0  0  0
    0.4810    0.3638   -1.6396 O   0  0  0  0  0  0  0  0  0  0  0  0
   -1.3599    1.5236   -1.0561 N   0  0  0  0  0  0  0  0  0  0  0  0
   -2.1076    1.6109   -0.3865 H   0  0  0  0  0  0  0  0  0  0  0  0
   -1.3373    2.4514   -2.1859 C   0  0  0  0  0  0  0  0  0  0  0  0
   -1.3712    1.8906   -3.1230 H   0  0  0  0  0  0  0  0  0  0  0  0
   -2.1925    3.1269   -2.1404 H   0  0  0  0  0  0  0  0  0  0  0  0
   -0.4146    3.0342   -2.1654 H   0  0  0  0  0  0  0  0  0  0  0  0
  5  6  2  0  0  0  0
  5  7  1  0  0  0  0
  2  3  1  0  0  0  0
  2  4  1  0  0  0  0
  2  5  1  0  0  0  0
  1  2  1  0  0  0  0
 22 23  2  0  0  0  0
 22 24  1  0  0  0  0
 18 19  1  0  0  0  0
 18 20  1  0  0  0  0
 18 21  1  0  0  0  0
 17 18  1  0  0  0  0
 14 15  1  0  0  0  0
 14 16  1  0  0  0  0
 14 17  1  0  0  0  0
 11 12  1  0  0  0  0
 11 13  1  0  0  0  0
 11 14  1  0  0  0  0
  9 10  1  0  0  0  0
  9 11  1  0  0  0  0
  9 22  1  0  0  0  0
  7  8  1  0  0  0  0
  7  9  1  0  0  0  0
 26 27  1  0  0  0  0
 26 28  1  0  0  0  0
 26 29  1  0  0  0  0
 24 25  1  0  0  0  0
 24 26  1  0  0  0  0
M  END
$$$$
default_name
  -OEChem-01062215323D

 29 28  0     1  0  0  0  0  0999 V2000
   -3.5781   -3.7296    1.2702 H   0  0  0  0  0  0  0  0  0  0  0  0
   -3.5311   -2.7616    0.7732 C   0  0  0  0  0  0  0  0  0  0  0  0
   -4.2371   -2.0766    1.2382 H   0  0  0  0  0  0  0  0  0  0  0  0
   -3.7681   -2.8816   -0.2818 H   0  0  0  0  0  0  0  0  0  0  0  0
   -2.1321   -2.2086    0.9112 C   0  0  0  0  0  0  0  0  0  0  0  0
   -1.2751   -2.8426    1.5112 O   0  0  0  0  0  0  0  0  0  0  0  0
   -1.9041   -1.0186    0.3602 N   0  0  0  0  0  0  0  0  0  0  0  0
   -2.6671   -0.5416   -0.0988 H   0  0  0  0  0  0  0  0  0  0  0  0
   -0.6131   -0.3236    0.3832 C   0  0  1  0  0  0  0  0  0  0  0  0
   -0.5819    0.3236    1.2611 H   0  0  0  0  0  0  0  0  0  0  0  0
    0.5163   -1.3626    0.5096 C   0  0  0  0  0  0  0  0  0  0  0  0
    0.4126   -2.0935   -0.2952 H   0  0  0  0  0  0  0  0  0  0  0  0
    1.4793   -0.8631    0.3943 H   0  0  0  0  0  0  0  0  0  0  0  0
    0.5108   -2.1135    1.8461 C   0  0  0  0  0  0  0  0  0  0  0  0
   -0.4381   -2.6372    1.9579 H   0  0  0  0  0  0  0  0  0  0  0  0
    1.3176   -2.8473    1.8388 H   0  0  0  0  0  0  0  0  0  0  0  0
    0.7309   -1.0361    3.2849 S   0  0  0  0  0  0  0  0  0  0  0  0
    2.4563   -0.5413    3.0403 C   0  0  0  0  0  0  0  0  0  0  0  0
    2.5588   -0.0244    2.0856 H   0  0  0  0  0  0  0  0  0  0  0  0
    2.7578    0.1290    3.8456 H   0  0  0  0  0  0  0  0  0  0  0  0
    3.0969   -1.4236    3.0493 H   0  0  0  0  0  0  0  0  0  0  0  0
   -0.4543    0.5558   -0.8653 C   0  0  0  0  0  0  0  0  0  0  0  0
    0.2961    0.2063   -1.7741 O   0  0  0  0  0  0  0  0  0  0  0  0
   -1.1515    1.6984   -0.9065 N   0  0  0  0  0  0  0  0  0  0  0  0
   -1.7581    1.9110   -0.1307 H   0  0  0  0  0  0  0  0  0  0  0  0
   -1.0967    2.6484   -2.0166 C   0  0  0  0  0  0  0  0  0  0  0  0
   -1.3849    2.1475   -2.9438 H   0  0  0  0  0  0  0  0  0  0  0  0
   -1.7730    3.4847   -1.8351 H   0  0  0  0  0  0  0  0  0  0  0  0
   -0.0783    3.0246   -2.1294 H   0  0  0  0  0  0  0  0  0  0  0  0
  5  6  2  0  0  0  0
  5  7  1  0  0  0  0
  2  3  1  0  0  0  0
  2  4  1  0  0  0  0
  2  5  1  0  0  0  0
  1  2  1  0  0  0  0
 22 23  2  0  0  0  0
 22 24  1  0  0  0  0
 18 19  1  0  0  0  0
 18 20  1  0  0  0  0
 18 21  1  0  0  0  0
 17 18  1  0  0  0  0
 14 15  1  0  0  0  0
 14 16  1  0  0  0  0
 14 17  1  0  0  0  0
 11 12  1  0  0  0  0
 11 13  1  0  0  0  0
 11 14  1  0  0  0  0
  9 10  1  0  0  0  0
  9 11  1  0  0  0  0
  9 22  1  0  0  0  0
  7  8  1  0  0  0  0
  7  9  1  0  0  0  0
 26 27  1  0  0  0  0
 26 28  1  0  0  0  0
 26 29  1  0  0  0  0
 24 25  1  0  0  0  0
 24 26  1  0  0  0  0
M  END
$$$$
default_name
  -OEChem-01062215323D

 29 28  0     1  0  0  0  0  0999 V2000
   -3.5781   -3.7296    1.2702 H   0  0  0  0  0  0  0  0  0  0  0  0
   -3.5311   -2.7616    0.7732 C   0  0  0  0  0  0  0  0  0  0  0  0
   -4.2371   -2.0766    1.2382 H   0  0  0  0  0  0  0  0  0  0  0  0
   -3.7681   -2.8816   -0.2818 H   0  0  0  0  0  0  0  0  0  0  0  0
   -2.1321   -2.2086    0.9112 C   0  0  0  0  0  0  0  0  0  0  0  0
   -1.2751   -2.8426    1.5112 O   0  0  0  0  0  0  0  0  0  0  0  0
   -1.9041   -1.0186    0.3602 N   0  0  0  0  0  0  0  0  0  0  0  0
   -2.6671   -0.5416   -0.0988 H   0  0  0  0  0  0  0  0  0  0  0  0
   -0.6131   -0.3236    0.3832 C   0  0  1  0  0  0  0  0  0  0  0  0
   -0.5819    0.3236    1.2611 H   0  0  0  0  0  0  0  0  0  0  0  0
    0.5163   -1.3626    0.5096 C   0  0  0  0  0  0  0  0  0  0  0  0
    0.4126   -2.0935   -0.2952 H   0  0  0  0  0  0  0  0  0  0  0  0
    1.4793   -0.8631    0.3943 H   0  0  0  0  0  0  0  0  0  0  0  0
    0.5108   -2.1135    1.8461 C   0  0  0  0  0  0  0  0  0  0  0  0
   -0.4381   -2.6372    1.9579 H   0  0  0  0  0  0  0  0  0  0  0  0
    1.3176   -2.8473    1.8388 H   0  0  0  0  0  0  0  0  0  0  0  0
    0.7309   -1.0361    3.2849 S   0  0  0  0  0  0  0  0  0  0  0  0
    2.4563   -0.5413    3.0403 C   0  0  0  0  0  0  0  0  0  0  0  0
    2.5588   -0.0244    2.0856 H   0  0  0  0  0  0  0  0  0  0  0  0
    2.7578    0.1290    3.8456 H   0  0  0  0  0  0  0  0  0  0  0  0
    3.0969   -1.4236    3.0493 H   0  0  0  0  0  0  0  0  0  0  0  0
   -0.4543    0.5558   -0.8653 C   0  0  0  0  0  0  0  0  0  0  0  0
    0.0644    0.0966   -1.8808 O   0  0  0  0  0  0  0  0  0  0  0  0
   -0.8912    1.8193   -0.7883 N   0  0  0  0  0  0  0  0  0  0  0  0
   -1.3194    2.1204    0.0726 H   0  0  0  0  0  0  0  0  0  0  0  0
   -0.7978    2.7835   -1.8835 C   0  0  0  0  0  0  0  0  0  0  0  0
   -1.3175    2.3936   -2.7619 H   0  0  0  0  0  0  0  0  0  0  0  0
   -1.2471    3.7339   -1.5927 H   0  0  0  0  0  0  0  0  0  0  0  0
    0.2498    2.9436   -2.1447 H   0  0  0  0  0  0  0  0  0  0  0  0
  5  6  2  0  0  0  0
  5  7  1  0  0  0  0
  2  3  1  0  0  0  0
  2  4  1  0  0  0  0
  2  5  1  0  0  0  0
  1  2  1  0  0  0  0
 22 23  2  0  0  0  0
 22 24  1  0  0  0  0
 18 19  1  0  0  0  0
 18 20  1  0  0  0  0
 18 21  1  0  0  0  0
 17 18  1  0  0  0  0
 14 15  1  0  0  0  0
 14 16  1  0  0  0  0
 14 17  1  0  0  0  0
 11 12  1  0  0  0  0
 11 13  1  0  0  0  0
 11 14  1  0  0  0  0
  9 10  1  0  0  0  0
  9 11  1  0  0  0  0
  9 22  1  0  0  0  0
  7  8  1  0  0  0  0
  7  9  1  0  0  0  0
 26 27  1  0  0  0  0
 26 28  1  0  0  0  0
 26 29  1  0  0  0  0
 24 25  1  0  0  0  0
 24 26  1  0  0  0  0
M  END
$$$$
default_name
  -OEChem-01062215323D

 29 28  0     1  0  0  0  0  0999 V2000
   -3.5781   -3.7296    1.2702 H   0  0  0  0  0  0  0  0  0  0  0  0
   -3.5311   -2.7616    0.7732 C   0  0  0  0  0  0  0  0  0  0  0  0
   -4.2371   -2.0766    1.2382 H   0  0  0  0  0  0  0  0  0  0  0  0
   -3.7681   -2.8816   -0.2818 H   0  0  0  0  0  0  0  0  0  0  0  0
   -2.1321   -2.2086    0.9112 C   0  0  0  0  0  0  0  0  0  0  0  0
   -1.2751   -2.8426    1.5112 O   0  0  0  0  0  0  0  0  0  0  0  0
   -1.9041   -1.0186    0.3602 N   0  0  0  0  0  0  0  0  0  0  0  0
   -2.6671   -0.5416   -0.0988 H   0  0  0  0  0  0  0  0  0  0  0  0
   -0.6131   -0.3236    0.3832 C   0  0  1  0  0  0  0  0  0  0  0  0
   -0.5819    0.3236    1.2611 H   0  0  0  0  0  0  0  0  0  0  0  0
    0.5163   -1.3626    0.5096 C   0  0  0  0  0  0  0  0  0  0  0  0
    0.4126   -2.0935   -0.2952 H   0  0  0  0  0  0  0  0  0  0  0  0
    1.4793   -0.8631    0.3943 H   0  0  0  0  0  0  0  0  0  0  0  0
    0.5108   -2.1135    1.8461 C   0  0  0  0  0  0  0  0  0  0  0  0
   -0.4381   -2.6372    1.9579 H   0  0  0  0  0  0  0  0  0  0  0  0
    1.3176   -2.8473    1.8388 H   0  0  0  0  0  0  0  0  0  0  0  0
    0.7309   -1.0361    3.2849 S   0  0  0  0  0  0  0  0  0  0  0  0
    2.4563   -0.5413    3.0403 C   0  0  0  0  0  0  0  0  0  0  0  0
    2.5588   -0.0244    2.0856 H   0  0  0  0  0  0  0  0  0  0  0  0
    2.7578    0.1290    3.8456 H   0  0  0  0  0  0  0  0  0  0  0  0
    3.0969   -1.4236    3.0493 H   0  0  0  0  0  0  0  0  0  0  0  0
   -0.4543    0.5558   -0.8653 C   0  0  0  0  0  0  0  0  0  0  0  0
   -0.1982    0.0423   -1.9525 O   0  0  0  0  0  0  0  0  0  0  0  0
   -0.5968    1.8782   -0.7093 N   0  0  0  0  0  0  0  0  0  0  0  0
   -0.8214    2.2249    0.2096 H   0  0  0  0  0  0  0  0  0  0  0  0
   -0.4609    2.8475   -1.7955 C   0  0  0  0  0  0  0  0  0  0  0  0
   -1.1736    2.6123   -2.5895 H   0  0  0  0  0  0  0  0  0  0  0  0
   -0.6508    3.8574   -1.4298 H   0  0  0  0  0  0  0  0  0  0  0  0
    0.5474    2.7967   -2.2103 H   0  0  0  0  0  0  0  0  0  0  0  0
  5  6  2  0  0  0  0
  5  7  1  0  0  0  0
  2  3  1  0  0  0  0
  2  4  1  0  0  0  0
  2  5  1  0  0  0  0
  1  2  1  0  0  0  0
 22 23  2  0  0  0  0
 22 24  1  0  0  0  0
 18 19  1  0  0  0  0
 18 20  1  0  0  0  0
 18 21  1  0  0  0  0
 17 18  1  0  0  0  0
 14 15  1  0  0  0  0
 14 16  1  0  0  0  0
 14 17  1  0  0  0  0
 11 12  1  0  0  0  0
 11 13  1  0  0  0  0
 11 14  1  0  0  0  0
  9 10  1  0  0  0  0
  9 11  1  0  0  0  0
  9 22  1  0  0  0  0
  7  8  1  0  0  0  0
  7  9  1  0  0  0  0
 26 27  1  0  0  0  0
 26 28  1  0  0  0  0
 26 29  1  0  0  0  0
 24 25  1  0  0  0  0
 24 26  1  0  0  0  0
M  END
$$$$
default_name
  -OEChem-01062215323D

 29 28  0     1  0  0  0  0  0999 V2000
   -3.5781   -3.7296    1.2702 H   0  0  0  0  0  0  0  0  0  0  0  0
   -3.5311   -2.7616    0.7732 C   0  0  0  0  0  0  0  0  0  0  0  0
   -4.2371   -2.0766    1.2382 H   0  0  0  0  0  0  0  0  0  0  0  0
   -3.7681   -2.8816   -0.2818 H   0  0  0  0  0  0  0  0  0  0  0  0
   -2.1321   -2.2086    0.9112 C   0  0  0  0  0  0  0  0  0  0  0  0
   -1.2751   -2.8426    1.5112 O   0  0  0  0  0  0  0  0  0  0  0  0
   -1.9041   -1.0186    0.3602 N   0  0  0  0  0  0  0  0  0  0  0  0
   -2.6671   -0.5416   -0.0988 H   0  0  0  0  0  0  0  0  0  0  0  0
   -0.6131   -0.3236    0.3832 C   0  0  1  0  0  0  0  0  0  0  0  0
   -0.5819    0.3236    1.2611 H   0  0  0  0  0  0  0  0  0  0  0  0
    0.5163   -1.3626    0.5096 C   0  0  0  0  0  0  0  0  0  0  0  0
    0.4126   -2.0935   -0.2952 H   0  0  0  0  0  0  0  0  0  0  0  0
    1.4793   -0.8631    0.3943 H   0  0  0  0  0  0  0  0  0  0  0  0
    0.5108   -2.1135    1.8461 C   0  0  0  0  0  0  0  0  0  0  0  0
   -0.4381   -2.6372    1.9579 H   0  0  0  0  0  0  0  0  0  0  0  0
    1.3176   -2.8473    1.8388 H   0  0  0  0  0  0  0  0  0  0  0  0
    0.7309   -1.0361    3.2849 S   0  0  0  0  0  0  0  0  0  0  0  0
    2.4563   -0.5413    3.0403 C   0  0  0  0  0  0  0  0  0  0  0  0
    2.5588   -0.0244    2.0856 H   0  0  0  0  0  0  0  0  0  0  0  0
    2.7578    0.1290    3.8456 H   0  0  0  0  0  0  0  0  0  0  0  0
    3.0969   -1.4236    3.0493 H   0  0  0  0  0  0  0  0  0  0  0  0
   -0.4543    0.5558   -0.8653 C   0  0  0  0  0  0  0  0  0  0  0  0
   -0.4740    0.0471   -1.9842 O   0  0  0  0  0  0  0  0  0  0  0  0
   -0.2883    1.8710   -0.6752 N   0  0  0  0  0  0  0  0  0  0  0  0
   -0.2981    2.2174    0.2708 H   0  0  0  0  0  0  0  0  0  0  0  0
   -0.1089    2.8360   -1.7588 C   0  0  0  0  0  0  0  0  0  0  0  0
   -0.9630    2.7887   -2.4385 H   0  0  0  0  0  0  0  0  0  0  0  0
   -0.0247    3.8469   -1.3576 H   0  0  0  0  0  0  0  0  0  0  0  0
    0.7943    2.5939   -2.3217 H   0  0  0  0  0  0  0  0  0  0  0  0
  5  6  2  0  0  0  0
  5  7  1  0  0  0  0
  2  3  1  0  0  0  0
  2  4  1  0  0  0  0
  2  5  1  0  0  0  0
  1  2  1  0  0  0  0
 22 23  2  0  0  0  0
 22 24  1  0  0  0  0
 18 19  1  0  0  0  0
 18 20  1  0  0  0  0
 18 21  1  0  0  0  0
 17 18  1  0  0  0  0
 14 15  1  0  0  0  0
 14 16  1  0  0  0  0
 14 17  1  0  0  0  0
 11 12  1  0  0  0  0
 11 13  1  0  0  0  0
 11 14  1  0  0  0  0
  9 10  1  0  0  0  0
  9 11  1  0  0  0  0
  9 22  1  0  0  0  0
  7  8  1  0  0  0  0
  7  9  1  0  0  0  0
 26 27  1  0  0  0  0
 26 28  1  0  0  0  0
 26 29  1  0  0  0  0
 24 25  1  0  0  0  0
 24 26  1  0  0  0  0
M  END
$$$$
default_name
  -OEChem-01062215323D

 29 28  0     1  0  0  0  0  0999 V2000
   -3.5781   -3.7296    1.2702 H   0  0  0  0  0  0  0  0  0  0  0  0
   -3.5311   -2.7616    0.7732 C   0  0  0  0  0  0  0  0  0  0  0  0
   -4.2371   -2.0766    1.2382 H   0  0  0  0  0  0  0  0  0  0  0  0
   -3.7681   -2.8816   -0.2818 H   0  0  0  0  0  0  0  0  0  0  0  0
   -2.1321   -2.2086    0.9112 C   0  0  0  0  0  0  0  0  0  0  0  0
   -1.2751   -2.8426    1.5112 O   0  0  0  0  0  0  0  0  0  0  0  0
   -1.9041   -1.0186    0.3602 N   0  0  0  0  0  0  0  0  0  0  0  0
   -2.6671   -0.5416   -0.0988 H   0  0  0  0  0  0  0  0  0  0  0  0
   -0.6131   -0.3236    0.3832 C   0  0  1  0  0  0  0  0  0  0  0  0
   -0.5819    0.3236    1.2611 H   0  0  0  0  0  0  0  0  0  0  0  0
    0.5163   -1.3626    0.5096 C   0  0  0  0  0  0  0  0  0  0  0  0
    0.4126   -2.0935   -0.2952 H   0  0  0  0  0  0  0  0  0  0  0  0
    1.4793   -0.8631    0.3943 H   0  0  0  0  0  0  0  0  0  0  0  0
    0.5108   -2.1135    1.8461 C   0  0  0  0  0  0  0  0  0  0  0  0
   -0.4381   -2.6372    1.9579 H   0  0  0  0  0  0  0  0  0  0  0  0
    1.3176   -2.8473    1.8388 H   0  0  0  0  0  0  0  0  0  0  0  0
    0.7309   -1.0361    3.2849 S   0  0  0  0  0  0  0  0  0  0  0  0
    2.4563   -0.5413    3.0403 C   0  0  0  0  0  0  0  0  0  0  0  0
    2.5588   -0.0244    2.0856 H   0  0  0  0  0  0  0  0  0  0  0  0
    2.7578    0.1290    3.8456 H   0  0  0  0  0  0  0  0  0  0  0  0
    3.0969   -1.4236    3.0493 H   0  0  0  0  0  0  0  0  0  0  0  0
   -0.4543    0.5558   -0.8653 C   0  0  0  0  0  0  0  0  0  0  0  0
   -0.7441    0.1105   -1.9739 O   0  0  0  0  0  0  0  0  0  0  0  0
    0.0132    1.7982   -0.6881 N   0  0  0  0  0  0  0  0  0  0  0  0
    0.2148    2.0984    0.2522 H   0  0  0  0  0  0  0  0  0  0  0  0
    0.2341    2.7499   -1.7758 C   0  0  0  0  0  0  0  0  0  0  0  0
   -0.7001    2.9107   -2.3191 H   0  0  0  0  0  0  0  0  0  0  0  0
    0.5885    3.7030   -1.3810 H   0  0  0  0  0  0  0  0  0  0  0  0
    0.9736    2.3491   -2.4714 H   0  0  0  0  0  0  0  0  0  0  0  0
  5  6  2  0  0  0  0
  5  7  1  0  0  0  0
  2  3  1  0  0  0  0
  2  4  1  0  0  0  0
  2  5  1  0  0  0  0
  1  2  1  0  0  0  0
 22 23  2  0  0  0  0
 22 24  1  0  0  0  0
 18 19  1  0  0  0  0
 18 20  1  0  0  0  0
 18 21  1  0  0  0  0
 17 18  1  0  0  0  0
 14 15  1  0  0  0  0
 14 16  1  0  0  0  0
 14 17  1  0  0  0  0
 11 12  1  0  0  0  0
 11 13  1  0  0  0  0
 11 14  1  0  0  0  0
  9 10  1  0  0  0  0
  9 11  1  0  0  0  0
  9 22  1  0  0  0  0
  7  8  1  0  0  0  0
  7  9  1  0  0  0  0
 26 27  1  0  0  0  0
 26 28  1  0  0  0  0
 26 29  1  0  0  0  0
 24 25  1  0  0  0  0
 24 26  1  0  0  0  0
M  END
$$$$
default_name
  -OEChem-01062215323D

 29 28  0     1  0  0  0  0  0999 V2000
   -3.5781   -3.7296    1.2702 H   0  0  0  0  0  0  0  0  0  0  0  0
   -3.5311   -2.7616    0.7732 C   0  0  0  0  0  0  0  0  0  0  0  0
   -4.2371   -2.0766    1.2382 H   0  0  0  0  0  0  0  0  0  0  0  0
   -3.7681   -2.8816   -0.2818 H   0  0  0  0  0  0  0  0  0  0  0  0
   -2.1321   -2.2086    0.9112 C   0  0  0  0  0  0  0  0  0  0  0  0
   -1.2751   -2.8426    1.5112 O   0  0  0  0  0  0  0  0  0  0  0  0
   -1.9041   -1.0186    0.3602 N   0  0  0  0  0  0  0  0  0  0  0  0
   -2.6671   -0.5416   -0.0988 H   0  0  0  0  0  0  0  0  0  0  0  0
   -0.6131   -0.3236    0.3832 C   0  0  1  0  0  0  0  0  0  0  0  0
   -0.5819    0.3236    1.2611 H   0  0  0  0  0  0  0  0  0  0  0  0
    0.5163   -1.3626    0.5096 C   0  0  0  0  0  0  0  0  0  0  0  0
    0.4126   -2.0935   -0.2952 H   0  0  0  0  0  0  0  0  0  0  0  0
    1.4793   -0.8631    0.3943 H   0  0  0  0  0  0  0  0  0  0  0  0
    0.5108   -2.1135    1.8461 C   0  0  0  0  0  0  0  0  0  0  0  0
   -0.4381   -2.6372    1.9579 H   0  0  0  0  0  0  0  0  0  0  0  0
    1.3176   -2.8473    1.8388 H   0  0  0  0  0  0  0  0  0  0  0  0
    0.7309   -1.0361    3.2849 S   0  0  0  0  0  0  0  0  0  0  0  0
    2.4563   -0.5413    3.0403 C   0  0  0  0  0  0  0  0  0  0  0  0
    2.5588   -0.0244    2.0856 H   0  0  0  0  0  0  0  0  0  0  0  0
    2.7578    0.1290    3.8456 H   0  0  0  0  0  0  0  0  0  0  0  0
    3.0969   -1.4236    3.0493 H   0  0  0  0  0  0  0  0  0  0  0  0
   -0.4543    0.5558   -0.8653 C   0  0  0  0  0  0  0  0  0  0  0  0
   -0.9901    0.2284   -1.9221 O   0  0  0  0  0  0  0  0  0  0  0  0
    0.2872    1.6647   -0.7473 N   0  0  0  0  0  0  0  0  0  0  0  0
    0.6825    1.8759    0.1551 H   0  0  0  0  0  0  0  0  0  0  0  0
    0.5447    2.5950   -1.8454 C   0  0  0  0  0  0  0  0  0  0  0  0
   -0.4028    2.9700   -2.2396 H   0  0  0  0  0  0  0  0  0  0  0  0
    1.1471    3.4355   -1.4983 H   0  0  0  0  0  0  0  0  0  0  0  0
    1.0730    2.0789   -2.6490 H   0  0  0  0  0  0  0  0  0  0  0  0
  5  6  2  0  0  0  0
  5  7  1  0  0  0  0
  2  3  1  0  0  0  0
  2  4  1  0  0  0  0
  2  5  1  0  0  0  0
  1  2  1  0  0  0  0
 22 23  2  0  0  0  0
 22 24  1  0  0  0  0
 18 19  1  0  0  0  0
 18 20  1  0  0  0  0
 18 21  1  0  0  0  0
 17 18  1  0  0  0  0
 14 15  1  0  0  0  0
 14 16  1  0  0  0  0
 14 17  1  0  0  0  0
 11 12  1  0  0  0  0
 11 13  1  0  0  0  0
 11 14  1  0  0  0  0
  9 10  1  0  0  0  0
  9 11  1  0  0  0  0
  9 22  1  0  0  0  0
  7  8  1  0  0  0  0
  7  9  1  0  0  0  0
 26 27  1  0  0  0  0
 26 28  1  0  0  0  0
 26 29  1  0  0  0  0
 24 25  1  0  0  0  0
 24 26  1  0  0  0  0
M  END
$$$$
default_name
  -OEChem-01062215323D

 29 28  0     1  0  0  0  0  0999 V2000
   -3.5781   -3.7296    1.2702 H   0  0  0  0  0  0  0  0  0  0  0  0
   -3.5311   -2.7616    0.7732 C   0  0  0  0  0  0  0  0  0  0  0  0
   -4.2371   -2.0766    1.2382 H   0  0  0  0  0  0  0  0  0  0  0  0
   -3.7681   -2.8816   -0.2818 H   0  0  0  0  0  0  0  0  0  0  0  0
   -2.1321   -2.2086    0.9112 C   0  0  0  0  0  0  0  0  0  0  0  0
   -1.2751   -2.8426    1.5112 O   0  0  0  0  0  0  0  0  0  0  0  0
   -1.9041   -1.0186    0.3602 N   0  0  0  0  0  0  0  0  0  0  0  0
   -2.6671   -0.5416   -0.0988 H   0  0  0  0  0  0  0  0  0  0  0  0
   -0.6131   -0.3236    0.3832 C   0  0  1  0  0  0  0  0  0  0  0  0
   -0.5819    0.3236    1.2611 H   0  0  0  0  0  0  0  0  0  0  0  0
    0.5163   -1.3626    0.5096 C   0  0  0  0  0  0  0  0  0  0  0  0
    0.4126   -2.0935   -0.2952 H   0  0  0  0  0  0  0  0  0  0  0  0
    1.4793   -0.8631    0.3943 H   0  0  0  0  0  0  0  0  0  0  0  0
    0.5108   -2.1135    1.8461 C   0  0  0  0  0  0  0  0  0  0  0  0
   -0.4381   -2.6372    1.9579 H   0  0  0  0  0  0  0  0  0  0  0  0
    1.3176   -2.8473    1.8388 H   0  0  0  0  0  0  0  0  0  0  0  0
    0.7309   -1.0361    3.2849 S   0  0  0  0  0  0  0  0  0  0  0  0
    2.4563   -0.5413    3.0403 C   0  0  0  0  0  0  0  0  0  0  0  0
    2.5588   -0.0244    2.0856 H   0  0  0  0  0  0  0  0  0  0  0  0
    2.7578    0.1290    3.8456 H   0  0  0  0  0  0  0  0  0  0  0  0
    3.0969   -1.4236    3.0493 H   0  0  0  0  0  0  0  0  0  0  0  0
   -0.4543    0.5558   -0.8653 C   0  0  0  0  0  0  0  0  0  0  0  0
   -1.1952    0.3927   -1.8325 O   0  0  0  0  0  0  0  0  0  0  0  0
    0.5150    1.4798   -0.8486 N   0  0  0  0  0  0  0  0  0  0  0  0
    1.0730    1.5652   -0.0141 H   0  0  0  0  0  0  0  0  0  0  0  0
    0.8019    2.3819   -1.9628 C   0  0  0  0  0  0  0  0  0  0  0  0
   -0.0913    2.9626   -2.2052 H   0  0  0  0  0  0  0  0  0  0  0  0
    1.6130    3.0628   -1.7016 H   0  0  0  0  0  0  0  0  0  0  0  0
    1.0859    1.8017   -2.8426 H   0  0  0  0  0  0  0  0  0  0  0  0
  5  6  2  0  0  0  0
  5  7  1  0  0  0  0
  2  3  1  0  0  0  0
  2  4  1  0  0  0  0
  2  5  1  0  0  0  0
  1  2  1  0  0  0  0
 22 23  2  0  0  0  0
 22 24  1  0  0  0  0
 18 19  1  0  0  0  0
 18 20  1  0  0  0  0
 18 21  1  0  0  0  0
 17 18  1  0  0  0  0
 14 15  1  0  0  0  0
 14 16  1  0  0  0  0
 14 17  1  0  0  0  0
 11 12  1  0  0  0  0
 11 13  1  0  0  0  0
 11 14  1  0  0  0  0
  9 10  1  0  0  0  0
  9 11  1  0  0  0  0
  9 22  1  0  0  0  0
  7  8  1  0  0  0  0
  7  9  1  0  0  0  0
 26 27  1  0  0  0  0
 26 28  1  0  0  0  0
 26 29  1  0  0  0  0
 24 25  1  0  0  0  0
 24 26  1  0  0  0  0
M  END
$$$$
default_name
  -OEChem-01062215323D

 29 28  0     1  0  0  0  0  0999 V2000
   -3.5781   -3.7296    1.2702 H   0  0  0  0  0  0  0  0  0  0  0  0
   -3.5311   -2.7616    0.7732 C   0  0  0  0  0  0  0  0  0  0  0  0
   -4.2371   -2.0766    1.2382 H   0  0  0  0  0  0  0  0  0  0  0  0
   -3.7681   -2.8816   -0.2818 H   0  0  0  0  0  0  0  0  0  0  0  0
   -2.1321   -2.2086    0.9112 C   0  0  0  0  0  0  0  0  0  0  0  0
   -1.2751   -2.8426    1.5112 O   0  0  0  0  0  0  0  0  0  0  0  0
   -1.9041   -1.0186    0.3602 N   0  0  0  0  0  0  0  0  0  0  0  0
   -2.6671   -0.5416   -0.0988 H   0  0  0  0  0  0  0  0  0  0  0  0
   -0.6131   -0.3236    0.3832 C   0  0  1  0  0  0  0  0  0  0  0  0
   -0.4674    0.1072    1.3750 H   0  0  0  0  0  0  0  0  0  0  0  0
    0.5126   -1.3433    0.1302 C   0  0  0  0  0  0  0  0  0  0  0  0
    0.3032   -1.8736   -0.8012 H   0  0  0  0  0  0  0  0  0  0  0  0
    1.4592   -0.8131    0.0152 H   0  0  0  0  0  0  0  0  0  0  0  0
    0.6641   -2.3787    1.2506 C   0  0  0  0  0  0  0  0  0  0  0  0
   -0.2690   -2.9313    1.3551 H   0  0  0  0  0  0  0  0  0  0  0  0
    1.4564   -3.0767    0.9776 H   0  0  0  0  0  0  0  0  0  0  0  0
    1.0707   -1.6532    2.8593 S   0  0  0  0  0  0  0  0  0  0  0  0
    2.7578   -1.0842    2.5250 C   0  0  0  0  0  0  0  0  0  0  0  0
    2.7471   -0.3618    1.7083 H   0  0  0  0  0  0  0  0  0  0  0  0
    3.1629   -0.6094    3.4190 H   0  0  0  0  0  0  0  0  0  0  0  0
    3.3856   -1.9336    2.2542 H   0  0  0  0  0  0  0  0  0  0  0  0
   -0.6003    0.8196   -0.6415 C   0  0  0  0  0  0  0  0  0  0  0  0
   -1.5885    1.0312   -1.3415 O   0  0  0  0  0  0  0  0  0  0  0  0
    0.5187    1.5492   -0.7364 N   0  0  0  0  0  0  0  0  0  0  0  0
    1.2828    1.3263   -0.1187 H   0  0  0  0  0  0  0  0  0  0  0  0
    0.6923    2.6594   -1.6719 C   0  0  0  0  0  0  0  0  0  0  0  0
   -0.0810    3.4113   -1.4978 H   0  0  0  0  0  0  0  0  0  0  0  0
    1.6739    3.1168   -1.5411 H   0  0  0  0  0  0  0  0  0  0  0  0
    0.5963    2.2960   -2.6966 H   0  0  0  0  0  0  0  0  0  0  0  0
  5  6  2  0  0  0  0
  5  7  1  0  0  0  0
  2  3  1  0  0  0  0
  2  4  1  0  0  0  0
  2  5  1  0  0  0  0
  1  2  1  0  0  0  0
 22 23  2  0  0  0  0
 22 24  1  0  0  0  0
 18 19  1  0  0  0  0
 18 20  1  0  0  0  0
 18 21  1  0  0  0  0
 17 18  1  0  0  0  0
 14 15  1  0  0  0  0
 14 16  1  0  0  0  0
 14 17  1  0  0  0  0
 11 12  1  0  0  0  0
 11 13  1  0  0  0  0
 11 14  1  0  0  0  0
  9 10  1  0  0  0  0
  9 11  1  0  0  0  0
  9 22  1  0  0  0  0
  7  8  1  0  0  0  0
  7  9  1  0  0  0  0
 26 27  1  0  0  0  0
 26 28  1  0  0  0  0
 26 29  1  0  0  0  0
 24 25  1  0  0  0  0
 24 26  1  0  0  0  0
M  END
$$$$
default_name
  -OEChem-01062215323D

 29 28  0     1  0  0  0  0  0999 V2000
   -3.5781   -3.7296    1.2702 H   0  0  0  0  0  0  0  0  0  0  0  0
   -3.5311   -2.7616    0.7732 C   0  0  0  0  0  0  0  0  0  0  0  0
   -4.2371   -2.0766    1.2382 H   0  0  0  0  0  0  0  0  0  0  0  0
   -3.7681   -2.8816   -0.2818 H   0  0  0  0  0  0  0  0  0  0  0  0
   -2.1321   -2.2086    0.9112 C   0  0  0  0  0  0  0  0  0  0  0  0
   -1.2751   -2.8426    1.5112 O   0  0  0  0  0  0  0  0  0  0  0  0
   -1.9041   -1.0186    0.3602 N   0  0  0  0  0  0  0  0  0  0  0  0
   -2.6671   -0.5416   -0.0988 H   0  0  0  0  0  0  0  0  0  0  0  0
   -0.6131   -0.3236    0.3832 C   0  0  1  0  0  0  0  0  0  0  0  0
   -0.4674    0.1072    1.3750 H   0  0  0  0  0  0  0  0  0  0  0  0
    0.5126   -1.3433    0.1302 C   0  0  0  0  0  0  0  0  0  0  0  0
    0.3032   -1.8736   -0.8012 H   0  0  0  0  0  0  0  0  0  0  0  0
    1.4592   -0.8131    0.0152 H   0  0  0  0  0  0  0  0  0  0  0  0
    0.6641   -2.3787    1.2506 C   0  0  0  0  0  0  0  0  0  0  0  0
   -0.2690   -2.9313    1.3551 H   0  0  0  0  0  0  0  0  0  0  0  0
    1.4564   -3.0767    0.9776 H   0  0  0  0  0  0  0  0  0  0  0  0
    1.0707   -1.6532    2.8593 S   0  0  0  0  0  0  0  0  0  0  0  0
    2.7578   -1.0842    2.5250 C   0  0  0  0  0  0  0  0  0  0  0  0
    2.7471   -0.3618    1.7083 H   0  0  0  0  0  0  0  0  0  0  0  0
    3.1629   -0.6094    3.4190 H   0  0  0  0  0  0  0  0  0  0  0  0
    3.3856   -1.9336    2.2542 H   0  0  0  0  0  0  0  0  0  0  0  0
   -0.6003    0.8196   -0.6415 C   0  0  0  0  0  0  0  0  0  0  0  0
   -1.6530    1.2119   -1.1407 O   0  0  0  0  0  0  0  0  0  0  0  0
    0.5885    1.3469   -0.9612 N   0  0  0  0  0  0  0  0  0  0  0  0
    1.4070    0.9837   -0.4994 H   0  0  0  0  0  0  0  0  0  0  0  0
    0.7681    2.4281   -1.9290 C   0  0  0  0  0  0  0  0  0  0  0  0
    0.1848    3.2987   -1.6201 H   0  0  0  0  0  0  0  0  0  0  0  0
    1.8206    2.7067   -1.9968 H   0  0  0  0  0  0  0  0  0  0  0  0
    0.4152    2.1063   -2.9104 H   0  0  0  0  0  0  0  0  0  0  0  0
  5  6  2  0  0  0  0
  5  7  1  0  0  0  0
  2  3  1  0  0  0  0
  2  4  1  0  0  0  0
  2  5  1  0  0  0  0
  1  2  1  0  0  0  0
 22 23  2  0  0  0  0
 22 24  1  0  0  0  0
 18 19  1  0  0  0  0
 18 20  1  0  0  0  0
 18 21  1  0  0  0  0
 17 18  1  0  0  0  0
 14 15  1  0  0  0  0
 14 16  1  0  0  0  0
 14 17  1  0  0  0  0
 11 12  1  0  0  0  0
 11 13  1  0  0  0  0
 11 14  1  0  0  0  0
  9 10  1  0  0  0  0
  9 11  1  0  0  0  0
  9 22  1  0  0  0  0
  7  8  1  0  0  0  0
  7  9  1  0  0  0  0
 26 27  1  0  0  0  0
 26 28  1  0  0  0  0
 26 29  1  0  0  0  0
 24 25  1  0  0  0  0
 24 26  1  0  0  0  0
M  END
$$$$
default_name
  -OEChem-01062215323D

 29 28  0     1  0  0  0  0  0999 V2000
   -3.5781   -3.7296    1.2702 H   0  0  0  0  0  0  0  0  0  0  0  0
   -3.5311   -2.7616    0.7732 C   0  0  0  0  0  0  0  0  0  0  0  0
   -4.2371   -2.0766    1.2382 H   0  0  0  0  0  0  0  0  0  0  0  0
   -3.7681   -2.8816   -0.2818 H   0  0  0  0  0  0  0  0  0  0  0  0
   -2.1321   -2.2086    0.9112 C   0  0  0  0  0  0  0  0  0  0  0  0
   -1.2751   -2.8426    1.5112 O   0  0  0  0  0  0  0  0  0  0  0  0
   -1.9041   -1.0186    0.3602 N   0  0  0  0  0  0  0  0  0  0  0  0
   -2.6671   -0.5416   -0.0988 H   0  0  0  0  0  0  0  0  0  0  0  0
   -0.6131   -0.3236    0.3832 C   0  0  1  0  0  0  0  0  0  0  0  0
   -0.4674    0.1072    1.3750 H   0  0  0  0  0  0  0  0  0  0  0  0
    0.5126   -1.3433    0.1302 C   0  0  0  0  0  0  0  0  0  0  0  0
    0.3032   -1.8736   -0.8012 H   0  0  0  0  0  0  0  0  0  0  0  0
    1.4592   -0.8131    0.0152 H   0  0  0  0  0  0  0  0  0  0  0  0
    0.6641   -2.3787    1.2506 C   0  0  0  0  0  0  0  0  0  0  0  0
   -0.2690   -2.9313    1.3551 H   0  0  0  0  0  0  0  0  0  0  0  0
    1.4564   -3.0767    0.9776 H   0  0  0  0  0  0  0  0  0  0  0  0
    1.0707   -1.6532    2.8593 S   0  0  0  0  0  0  0  0  0  0  0  0
    2.7578   -1.0842    2.5250 C   0  0  0  0  0  0  0  0  0  0  0  0
    2.7471   -0.3618    1.7083 H   0  0  0  0  0  0  0  0  0  0  0  0
    3.1629   -0.6094    3.4190 H   0  0  0  0  0  0  0  0  0  0  0  0
    3.3856   -1.9336    2.2542 H   0  0  0  0  0  0  0  0  0  0  0  0
   -0.6003    0.8196   -0.6415 C   0  0  0  0  0  0  0  0  0  0  0  0
   -1.6454    1.3971   -0.9340 O   0  0  0  0  0  0  0  0  0  0  0  0
    0.5776    1.1399   -1.1923 N   0  0  0  0  0  0  0  0  0  0  0  0
    1.3943    0.6322   -0.8917 H   0  0  0  0  0  0  0  0  0  0  0  0
    0.7519    2.1921   -2.1924 C   0  0  0  0  0  0  0  0  0  0  0  0
    0.3984    3.1443   -1.7897 H   0  0  0  0  0  0  0  0  0  0  0  0
    1.8036    2.2862   -2.4661 H   0  0  0  0  0  0  0  0  0  0  0  0
    0.1663    1.9549   -3.0824 H   0  0  0  0  0  0  0  0  0  0  0  0
  5  6  2  0  0  0  0
  5  7  1  0  0  0  0
  2  3  1  0  0  0  0
  2  4  1  0  0  0  0
  2  5  1  0  0  0  0
  1  2  1  0  0  0  0
 22 23  2  0  0  0  0
 22 24  1  0  0  0  0
 18 19  1  0  0  0  0
 18 20  1  0  0  0  0
 18 21  1  0  0  0  0
 17 18  1  0  0  0  0
 14 15  1  0  0  0  0
 14 16  1  0  0  0  0
 14 17  1  0  0  0  0
 11 12  1  0  0  0  0
 11 13  1  0  0  0  0
 11 14  1  0  0  0  0
  9 10  1  0  0  0  0
  9 11  1  0  0  0  0
  9 22  1  0  0  0  0
  7  8  1  0  0  0  0
  7  9  1  0  0  0  0
 26 27  1  0  0  0  0
 26 28  1  0  0  0  0
 26 29  1  0  0  0  0
 24 25  1  0  0  0  0
 24 26  1  0  0  0  0
M  END
$$$$
default_name
  -OEChem-01062215323D

 29 28  0     1  0  0  0  0  0999 V2000
   -3.5781   -3.7296    1.2702 H   0  0  0  0  0  0  0  0  0  0  0  0
   -3.5311   -2.7616    0.7732 C   0  0  0  0  0  0  0  0  0  0  0  0
   -4.2371   -2.0766    1.2382 H   0  0  0  0  0  0  0  0  0  0  0  0
   -3.7681   -2.8816   -0.2818 H   0  0  0  0  0  0  0  0  0  0  0  0
   -2.1321   -2.2086    0.9112 C   0  0  0  0  0  0  0  0  0  0  0  0
   -1.2751   -2.8426    1.5112 O   0  0  0  0  0  0  0  0  0  0  0  0
   -1.9041   -1.0186    0.3602 N   0  0  0  0  0  0  0  0  0  0  0  0
   -2.6671   -0.5416   -0.0988 H   0  0  0  0  0  0  0  0  0  0  0  0
   -0.6131   -0.3236    0.3832 C   0  0  1  0  0  0  0  0  0  0  0  0
   -0.4674    0.1072    1.3750 H   0  0  0  0  0  0  0  0  0  0  0  0
    0.5126   -1.3433    0.1302 C   0  0  0  0  0  0  0  0  0  0  0  0
    0.3032   -1.8736   -0.8012 H   0  0  0  0  0  0  0  0  0  0  0  0
    1.4592   -0.8131    0.0152 H   0  0  0  0  0  0  0  0  0  0  0  0
    0.6641   -2.3787    1.2506 C   0  0  0  0  0  0  0  0  0  0  0  0
   -0.2690   -2.9313    1.3551 H   0  0  0  0  0  0  0  0  0  0  0  0
    1.4564   -3.0767    0.9776 H   0  0  0  0  0  0  0  0  0  0  0  0
    1.0707   -1.6532    2.8593 S   0  0  0  0  0  0  0  0  0  0  0  0
    2.7578   -1.0842    2.5250 C   0  0  0  0  0  0  0  0  0  0  0  0
    2.7471   -0.3618    1.7083 H   0  0  0  0  0  0  0  0  0  0  0  0
    3.1629   -0.6094    3.4190 H   0  0  0  0  0  0  0  0  0  0  0  0
    3.3856   -1.9336    2.2542 H   0  0  0  0  0  0  0  0  0  0  0  0
   -0.6003    0.8196   -0.6415 C   0  0  0  0  0  0  0  0  0  0  0  0
   -1.5662    1.5742   -0.7354 O   0  0  0  0  0  0  0  0  0  0  0  0
    0.4869    0.9423   -1.4139 N   0  0  0  0  0  0  0  0  0  0  0  0
    1.2458    0.2956   -1.2690 H   0  0  0  0  0  0  0  0  0  0  0  0
    0.6446    1.9676   -2.4442 C   0  0  0  0  0  0  0  0  0  0  0  0
    0.5454    2.9586   -1.9950 H   0  0  0  0  0  0  0  0  0  0  0  0
    1.6240    1.8840   -2.9170 H   0  0  0  0  0  0  0  0  0  0  0  0
   -0.1334    1.8519   -3.2010 H   0  0  0  0  0  0  0  0  0  0  0  0
  5  6  2  0  0  0  0
  5  7  1  0  0  0  0
  2  3  1  0  0  0  0
  2  4  1  0  0  0  0
  2  5  1  0  0  0  0
  1  2  1  0  0  0  0
 22 23  2  0  0  0  0
 22 24  1  0  0  0  0
 18 19  1  0  0  0  0
 18 20  1  0  0  0  0
 18 21  1  0  0  0  0
 17 18  1  0  0  0  0
 14 15  1  0  0  0  0
 14 16  1  0  0  0  0
 14 17  1  0  0  0  0
 11 12  1  0  0  0  0
 11 13  1  0  0  0  0
 11 14  1  0  0  0  0
  9 10  1  0  0  0  0
  9 11  1  0  0  0  0
  9 22  1  0  0  0  0
  7  8  1  0  0  0  0
  7  9  1  0  0  0  0
 26 27  1  0  0  0  0
 26 28  1  0  0  0  0
 26 29  1  0  0  0  0
 24 25  1  0  0  0  0
 24 26  1  0  0  0  0
M  END
$$$$
default_name
  -OEChem-01062215323D

 29 28  0     1  0  0  0  0  0999 V2000
   -3.5781   -3.7296    1.2702 H   0  0  0  0  0  0  0  0  0  0  0  0
   -3.5311   -2.7616    0.7732 C   0  0  0  0  0  0  0  0  0  0  0  0
   -4.2371   -2.0766    1.2382 H   0  0  0  0  0  0  0  0  0  0  0  0
   -3.7681   -2.8816   -0.2818 H   0  0  0  0  0  0  0  0  0  0  0  0
   -2.1321   -2.2086    0.9112 C   0  0  0  0  0  0  0  0  0  0  0  0
   -1.2751   -2.8426    1.5112 O   0  0  0  0  0  0  0  0  0  0  0  0
   -1.9041   -1.0186    0.3602 N   0  0  0  0  0  0  0  0  0  0  0  0
   -2.6671   -0.5416   -0.0988 H   0  0  0  0  0  0  0  0  0  0  0  0
   -0.6131   -0.3236    0.3832 C   0  0  1  0  0  0  0  0  0  0  0  0
   -0.4674    0.1072    1.3750 H   0  0  0  0  0  0  0  0  0  0  0  0
    0.5126   -1.3433    0.1302 C   0  0  0  0  0  0  0  0  0  0  0  0
    0.3032   -1.8736   -0.8012 H   0  0  0  0  0  0  0  0  0  0  0  0
    1.4592   -0.8131    0.0152 H   0  0  0  0  0  0  0  0  0  0  0  0
    0.6641   -2.3787    1.2506 C   0  0  0  0  0  0  0  0  0  0  0  0
   -0.2690   -2.9313    1.3551 H   0  0  0  0  0  0  0  0  0  0  0  0
    1.4564   -3.0767    0.9776 H   0  0  0  0  0  0  0  0  0  0  0  0
    1.0707   -1.6532    2.8593 S   0  0  0  0  0  0  0  0  0  0  0  0
    2.7578   -1.0842    2.5250 C   0  0  0  0  0  0  0  0  0  0  0  0
    2.7471   -0.3618    1.7083 H   0  0  0  0  0  0  0  0  0  0  0  0
    3.1629   -0.6094    3.4190 H   0  0  0  0  0  0  0  0  0  0  0  0
    3.3856   -1.9336    2.2542 H   0  0  0  0  0  0  0  0  0  0  0  0
   -0.6003    0.8196   -0.6415 C   0  0  0  0  0  0  0  0  0  0  0  0
   -1.4209    1.7312   -0.5585 O   0  0  0  0  0  0  0  0  0  0  0  0
    0.3223    0.7676   -1.6108 N   0  0  0  0  0  0  0  0  0  0  0  0
    0.9715   -0.0030   -1.6055 H   0  0  0  0  0  0  0  0  0  0  0  0
    0.4537    1.7698   -2.6673 C   0  0  0  0  0  0  0  0  0  0  0  0
    0.6157    2.7543   -2.2221 H   0  0  0  0  0  0  0  0  0  0  0  0
    1.2943    1.5274   -3.3188 H   0  0  0  0  0  0  0  0  0  0  0  0
   -0.4635    1.8046   -3.2580 H   0  0  0  0  0  0  0  0  0  0  0  0
  5  6  2  0  0  0  0
  5  7  1  0  0  0  0
  2  3  1  0  0  0  0
  2  4  1  0  0  0  0
  2  5  1  0  0  0  0
  1  2  1  0  0  0  0
 22 23  2  0  0  0  0
 22 24  1  0  0  0  0
 18 19  1  0  0  0  0
 18 20  1  0  0  0  0
 18 21  1  0  0  0  0
 17 18  1  0  0  0  0
 14 15  1  0  0  0  0
 14 16  1  0  0  0  0
 14 17  1  0  0  0  0
 11 12  1  0  0  0  0
 11 13  1  0  0  0  0
 11 14  1  0  0  0  0
  9 10  1  0  0  0  0
  9 11  1  0  0  0  0
  9 22  1  0  0  0  0
  7  8  1  0  0  0  0
  7  9  1  0  0  0  0
 26 27  1  0  0  0  0
 26 28  1  0  0  0  0
 26 29  1  0  0  0  0
 24 25  1  0  0  0  0
 24 26  1  0  0  0  0
M  END
$$$$
default_name
  -OEChem-01062215323D

 29 28  0     1  0  0  0  0  0999 V2000
   -3.5781   -3.7296    1.2702 H   0  0  0  0  0  0  0  0  0  0  0  0
   -3.5311   -2.7616    0.7732 C   0  0  0  0  0  0  0  0  0  0  0  0
   -4.2371   -2.0766    1.2382 H   0  0  0  0  0  0  0  0  0  0  0  0
   -3.7681   -2.8816   -0.2818 H   0  0  0  0  0  0  0  0  0  0  0  0
   -2.1321   -2.2086    0.9112 C   0  0  0  0  0  0  0  0  0  0  0  0
   -1.2751   -2.8426    1.5112 O   0  0  0  0  0  0  0  0  0  0  0  0
   -1.9041   -1.0186    0.3602 N   0  0  0  0  0  0  0  0  0  0  0  0
   -2.6671   -0.5416   -0.0988 H   0  0  0  0  0  0  0  0  0  0  0  0
   -0.6131   -0.3236    0.3832 C   0  0  1  0  0  0  0  0  0  0  0  0
   -0.4674    0.1072    1.3750 H   0  0  0  0  0  0  0  0  0  0  0  0
    0.5126   -1.3433    0.1302 C   0  0  0  0  0  0  0  0  0  0  0  0
    0.3032   -1.8736   -0.8012 H   0  0  0  0  0  0  0  0  0  0  0  0
    1.4592   -0.8131    0.0152 H   0  0  0  0  0  0  0  0  0  0  0  0
    0.6641   -2.3787    1.2506 C   0  0  0  0  0  0  0  0  0  0  0  0
   -0.2690   -2.9313    1.3551 H   0  0  0  0  0  0  0  0  0  0  0  0
    1.4564   -3.0767    0.9776 H   0  0  0  0  0  0  0  0  0  0  0  0
    1.0707   -1.6532    2.8593 S   0  0  0  0  0  0  0  0  0  0  0  0
    2.7578   -1.0842    2.5250 C   0  0  0  0  0  0  0  0  0  0  0  0
    2.7471   -0.3618    1.7083 H   0  0  0  0  0  0  0  0  0  0  0  0
    3.1629   -0.6094    3.4190 H   0  0  0  0  0  0  0  0  0  0  0  0
    3.3856   -1.9336    2.2542 H   0  0  0  0  0  0  0  0  0  0  0  0
   -0.6003    0.8196   -0.6415 C   0  0  0  0  0  0  0  0  0  0  0  0
   -1.2192    1.8574   -0.4152 O   0  0  0  0  0  0  0  0  0  0  0  0
    0.0953    0.6277   -1.7697 N   0  0  0  0  0  0  0  0  0  0  0  0
    0.5900   -0.2433   -1.8783 H   0  0  0  0  0  0  0  0  0  0  0  0
    0.1921    1.6122   -2.8464 C   0  0  0  0  0  0  0  0  0  0  0  0
    0.6046    2.5452   -2.4554 H   0  0  0  0  0  0  0  0  0  0  0  0
    0.8367    1.2409   -3.6442 H   0  0  0  0  0  0  0  0  0  0  0  0
   -0.8015    1.8159   -3.2495 H   0  0  0  0  0  0  0  0  0  0  0  0
  5  6  2  0  0  0  0
  5  7  1  0  0  0  0
  2  3  1  0  0  0  0
  2  4  1  0  0  0  0
  2  5  1  0  0  0  0
  1  2  1  0  0  0  0
 22 23  2  0  0  0  0
 22 24  1  0  0  0  0
 18 19  1  0  0  0  0
 18 20  1  0  0  0  0
 18 21  1  0  0  0  0
 17 18  1  0  0  0  0
 14 15  1  0  0  0  0
 14 16  1  0  0  0  0
 14 17  1  0  0  0  0
 11 12  1  0  0  0  0
 11 13  1  0  0  0  0
 11 14  1  0  0  0  0
  9 10  1  0  0  0  0
  9 11  1  0  0  0  0
  9 22  1  0  0  0  0
  7  8  1  0  0  0  0
  7  9  1  0  0  0  0
 26 27  1  0  0  0  0
 26 28  1  0  0  0  0
 26 29  1  0  0  0  0
 24 25  1  0  0  0  0
 24 26  1  0  0  0  0
M  END
$$$$
default_name
  -OEChem-01062215323D

 29 28  0     1  0  0  0  0  0999 V2000
   -3.5781   -3.7296    1.2702 H   0  0  0  0  0  0  0  0  0  0  0  0
   -3.5311   -2.7616    0.7732 C   0  0  0  0  0  0  0  0  0  0  0  0
   -4.2371   -2.0766    1.2382 H   0  0  0  0  0  0  0  0  0  0  0  0
   -3.7681   -2.8816   -0.2818 H   0  0  0  0  0  0  0  0  0  0  0  0
   -2.1321   -2.2086    0.9112 C   0  0  0  0  0  0  0  0  0  0  0  0
   -1.2751   -2.8426    1.5112 O   0  0  0  0  0  0  0  0  0  0  0  0
   -1.9041   -1.0186    0.3602 N   0  0  0  0  0  0  0  0  0  0  0  0
   -2.6671   -0.5416   -0.0988 H   0  0  0  0  0  0  0  0  0  0  0  0
   -0.6131   -0.3236    0.3832 C   0  0  1  0  0  0  0  0  0  0  0  0
   -0.4674    0.1072    1.3750 H   0  0  0  0  0  0  0  0  0  0  0  0
    0.5126   -1.3433    0.1302 C   0  0  0  0  0  0  0  0  0  0  0  0
    0.3032   -1.8736   -0.8012 H   0  0  0  0  0  0  0  0  0  0  0  0
    1.4592   -0.8131    0.0152 H   0  0  0  0  0  0  0  0  0  0  0  0
    0.6641   -2.3787    1.2506 C   0  0  0  0  0  0  0  0  0  0  0  0
   -0.2690   -2.9313    1.3551 H   0  0  0  0  0  0  0  0  0  0  0  0
    1.4564   -3.0767    0.9776 H   0  0  0  0  0  0  0  0  0  0  0  0
    1.0707   -1.6532    2.8593 S   0  0  0  0  0  0  0  0  0  0  0  0
    2.7578   -1.0842    2.5250 C   0  0  0  0  0  0  0  0  0  0  0  0
    2.7471   -0.3618    1.7083 H   0  0  0  0  0  0  0  0  0  0  0  0
    3.1629   -0.6094    3.4190 H   0  0  0  0  0  0  0  0  0  0  0  0
    3.3856   -1.9336    2.2542 H   0  0  0  0  0  0  0  0  0  0  0  0
   -0.6003    0.8196   -0.6415 C   0  0  0  0  0  0  0  0  0  0  0  0
   -0.9751    1.9441   -0.3154 O   0  0  0  0  0  0  0  0  0  0  0  0
   -0.1788    0.5321   -1.8798 N   0  0  0  0  0  0  0  0  0  0  0  0
    0.1275   -0.4089   -2.0689 H   0  0  0  0  0  0  0  0  0  0  0  0
   -0.1223    1.5055   -2.9693 C   0  0  0  0  0  0  0  0  0  0  0  0
    0.5128    2.3458   -2.6791 H   0  0  0  0  0  0  0  0  0  0  0  0
    0.2825    1.0439   -3.8709 H   0  0  0  0  0  0  0  0  0  0  0  0
   -1.1244    1.8853   -3.1761 H   0  0  0  0  0  0  0  0  0  0  0  0
  5  6  2  0  0  0  0
  5  7  1  0  0  0  0
  2  3  1  0  0  0  0
  2  4  1  0  0  0  0
  2  5  1  0  0  0  0
  1  2  1  0  0  0  0
 22 23  2  0  0  0  0
 22 24  1  0  0  0  0
 18 19  1  0  0  0  0
 18 20  1  0  0  0  0
 18 21  1  0  0  0  0
 17 18  1  0  0  0  0
 14 15  1  0  0  0  0
 14 16  1  0  0  0  0
 14 17  1  0  0  0  0
 11 12  1  0  0  0  0
 11 13  1  0  0  0  0
 11 14  1  0  0  0  0
  9 10  1  0  0  0  0
  9 11  1  0  0  0  0
  9 22  1  0  0  0  0
  7  8  1  0  0  0  0
  7  9  1  0  0  0  0
 26 27  1  0  0  0  0
 26 28  1  0  0  0  0
 26 29  1  0  0  0  0
 24 25  1  0  0  0  0
 24 26  1  0  0  0  0
M  END
$$$$
default_name
  -OEChem-01062215323D

 29 28  0     1  0  0  0  0  0999 V2000
   -3.5781   -3.7296    1.2702 H   0  0  0  0  0  0  0  0  0  0  0  0
   -3.5311   -2.7616    0.7732 C   0  0  0  0  0  0  0  0  0  0  0  0
   -4.2371   -2.0766    1.2382 H   0  0  0  0  0  0  0  0  0  0  0  0
   -3.7681   -2.8816   -0.2818 H   0  0  0  0  0  0  0  0  0  0  0  0
   -2.1321   -2.2086    0.9112 C   0  0  0  0  0  0  0  0  0  0  0  0
   -1.2751   -2.8426    1.5112 O   0  0  0  0  0  0  0  0  0  0  0  0
   -1.9041   -1.0186    0.3602 N   0  0  0  0  0  0  0  0  0  0  0  0
   -2.6671   -0.5416   -0.0988 H   0  0  0  0  0  0  0  0  0  0  0  0
   -0.6131   -0.3236    0.3832 C   0  0  1  0  0  0  0  0  0  0  0  0
   -0.4674    0.1072    1.3750 H   0  0  0  0  0  0  0  0  0  0  0  0
    0.5126   -1.3433    0.1302 C   0  0  0  0  0  0  0  0  0  0  0  0
    0.3032   -1.8736   -0.8012 H   0  0  0  0  0  0  0  0  0  0  0  0
    1.4592   -0.8131    0.0152 H   0  0  0  0  0  0  0  0  0  0  0  0
    0.6641   -2.3787    1.2506 C   0  0  0  0  0  0  0  0  0  0  0  0
   -0.2690   -2.9313    1.3551 H   0  0  0  0  0  0  0  0  0  0  0  0
    1.4564   -3.0767    0.9776 H   0  0  0  0  0  0  0  0  0  0  0  0
    1.0707   -1.6532    2.8593 S   0  0  0  0  0  0  0  0  0  0  0  0
    2.7578   -1.0842    2.5250 C   0  0  0  0  0  0  0  0  0  0  0  0
    2.7471   -0.3618    1.7083 H   0  0  0  0  0  0  0  0  0  0  0  0
    3.1629   -0.6094    3.4190 H   0  0  0  0  0  0  0  0  0  0  0  0
    3.3856   -1.9336    2.2542 H   0  0  0  0  0  0  0  0  0  0  0  0
   -0.6003    0.8196   -0.6415 C   0  0  0  0  0  0  0  0  0  0  0  0
   -0.7050    1.9855   -0.2659 O   0  0  0  0  0  0  0  0  0  0  0  0
   -0.4813    0.4874   -1.9334 N   0  0  0  0  0  0  0  0  0  0  0  0
   -0.3845   -0.4886   -2.1641 H   0  0  0  0  0  0  0  0  0  0  0  0
   -0.4681    1.4570   -3.0277 C   0  0  0  0  0  0  0  0  0  0  0  0
    0.3466    2.1694   -2.8779 H   0  0  0  0  0  0  0  0  0  0  0  0
   -0.3305    0.9498   -3.9835 H   0  0  0  0  0  0  0  0  0  0  0  0
   -1.4102    2.0079   -3.0429 H   0  0  0  0  0  0  0  0  0  0  0  0
  5  6  2  0  0  0  0
  5  7  1  0  0  0  0
  2  3  1  0  0  0  0
  2  4  1  0  0  0  0
  2  5  1  0  0  0  0
  1  2  1  0  0  0  0
 22 23  2  0  0  0  0
 22 24  1  0  0  0  0
 18 19  1  0  0  0  0
 18 20  1  0  0  0  0
 18 21  1  0  0  0  0
 17 18  1  0  0  0  0
 14 15  1  0  0  0  0
 14 16  1  0  0  0  0
 14 17  1  0  0  0  0
 11 12  1  0  0  0  0
 11 13  1  0  0  0  0
 11 14  1  0  0  0  0
  9 10  1  0  0  0  0
  9 11  1  0  0  0  0
  9 22  1  0  0  0  0
  7  8  1  0  0  0  0
  7  9  1  0  0  0  0
 26 27  1  0  0  0  0
 26 28  1  0  0  0  0
 26 29  1  0  0  0  0
 24 25  1  0  0  0  0
 24 26  1  0  0  0  0
M  END
$$$$
default_name
  -OEChem-01062215323D

 29 28  0     1  0  0  0  0  0999 V2000
   -3.5781   -3.7296    1.2702 H   0  0  0  0  0  0  0  0  0  0  0  0
   -3.5311   -2.7616    0.7732 C   0  0  0  0  0  0  0  0  0  0  0  0
   -4.2371   -2.0766    1.2382 H   0  0  0  0  0  0  0  0  0  0  0  0
   -3.7681   -2.8816   -0.2818 H   0  0  0  0  0  0  0  0  0  0  0  0
   -2.1321   -2.2086    0.9112 C   0  0  0  0  0  0  0  0  0  0  0  0
   -1.2751   -2.8426    1.5112 O   0  0  0  0  0  0  0  0  0  0  0  0
   -1.9041   -1.0186    0.3602 N   0  0  0  0  0  0  0  0  0  0  0  0
   -2.6671   -0.5416   -0.0988 H   0  0  0  0  0  0  0  0  0  0  0  0
   -0.6131   -0.3236    0.3832 C   0  0  1  0  0  0  0  0  0  0  0  0
   -0.4674    0.1072    1.3750 H   0  0  0  0  0  0  0  0  0  0  0  0
    0.5126   -1.3433    0.1302 C   0  0  0  0  0  0  0  0  0  0  0  0
    0.3032   -1.8736   -0.8012 H   0  0  0  0  0  0  0  0  0  0  0  0
    1.4592   -0.8131    0.0152 H   0  0  0  0  0  0  0  0  0  0  0  0
    0.6641   -2.3787    1.2506 C   0  0  0  0  0  0  0  0  0  0  0  0
   -0.2690   -2.9313    1.3551 H   0  0  0  0  0  0  0  0  0  0  0  0
    1.4564   -3.0767    0.9776 H   0  0  0  0  0  0  0  0  0  0  0  0
    1.0707   -1.6532    2.8593 S   0  0  0  0  0  0  0  0  0  0  0  0
    2.7578   -1.0842    2.5250 C   0  0  0  0  0  0  0  0  0  0  0  0
    2.7471   -0.3618    1.7083 H   0  0  0  0  0  0  0  0  0  0  0  0
    3.1629   -0.6094    3.4190 H   0  0  0  0  0  0  0  0  0  0  0  0
    3.3856   -1.9336    2.2542 H   0  0  0  0  0  0  0  0  0  0  0  0
   -0.6003    0.8196   -0.6415 C   0  0  0  0  0  0  0  0  0  0  0  0
   -0.4275    1.9787   -0.2701 O   0  0  0  0  0  0  0  0  0  0  0  0
   -0.7915    0.4966   -1.9271 N   0  0  0  0  0  0  0  0  0  0  0  0
   -0.9113   -0.4769   -2.1577 H   0  0  0  0  0  0  0  0  0  0  0  0
   -0.8217    1.4701   -3.0175 C   0  0  0  0  0  0  0  0  0  0  0  0
    0.1172    2.0282   -3.0382 H   0  0  0  0  0  0  0  0  0  0  0  0
   -0.9606    0.9651   -3.9743 H   0  0  0  0  0  0  0  0  0  0  0  0
   -1.6394    2.1755   -2.8588 H   0  0  0  0  0  0  0  0  0  0  0  0
  5  6  2  0  0  0  0
  5  7  1  0  0  0  0
  2  3  1  0  0  0  0
  2  4  1  0  0  0  0
  2  5  1  0  0  0  0
  1  2  1  0  0  0  0
 22 23  2  0  0  0  0
 22 24  1  0  0  0  0
 18 19  1  0  0  0  0
 18 20  1  0  0  0  0
 18 21  1  0  0  0  0
 17 18  1  0  0  0  0
 14 15  1  0  0  0  0
 14 16  1  0  0  0  0
 14 17  1  0  0  0  0
 11 12  1  0  0  0  0
 11 13  1  0  0  0  0
 11 14  1  0  0  0  0
  9 10  1  0  0  0  0
  9 11  1  0  0  0  0
  9 22  1  0  0  0  0
  7  8  1  0  0  0  0
  7  9  1  0  0  0  0
 26 27  1  0  0  0  0
 26 28  1  0  0  0  0
 26 29  1  0  0  0  0
 24 25  1  0  0  0  0
 24 26  1  0  0  0  0
M  END
$$$$
default_name
  -OEChem-01062215323D

 29 28  0     1  0  0  0  0  0999 V2000
   -3.5781   -3.7296    1.2702 H   0  0  0  0  0  0  0  0  0  0  0  0
   -3.5311   -2.7616    0.7732 C   0  0  0  0  0  0  0  0  0  0  0  0
   -4.2371   -2.0766    1.2382 H   0  0  0  0  0  0  0  0  0  0  0  0
   -3.7681   -2.8816   -0.2818 H   0  0  0  0  0  0  0  0  0  0  0  0
   -2.1321   -2.2086    0.9112 C   0  0  0  0  0  0  0  0  0  0  0  0
   -1.2751   -2.8426    1.5112 O   0  0  0  0  0  0  0  0  0  0  0  0
   -1.9041   -1.0186    0.3602 N   0  0  0  0  0  0  0  0  0  0  0  0
   -2.6671   -0.5416   -0.0988 H   0  0  0  0  0  0  0  0  0  0  0  0
   -0.6131   -0.3236    0.3832 C   0  0  1  0  0  0  0  0  0  0  0  0
   -0.4674    0.1072    1.3750 H   0  0  0  0  0  0  0  0  0  0  0  0
    0.5126   -1.3433    0.1302 C   0  0  0  0  0  0  0  0  0  0  0  0
    0.3032   -1.8736   -0.8012 H   0  0  0  0  0  0  0  0  0  0  0  0
    1.4592   -0.8131    0.0152 H   0  0  0  0  0  0  0  0  0  0  0  0
    0.6641   -2.3787    1.2506 C   0  0  0  0  0  0  0  0  0  0  0  0
   -0.2690   -2.9313    1.3551 H   0  0  0  0  0  0  0  0  0  0  0  0
    1.4564   -3.0767    0.9776 H   0  0  0  0  0  0  0  0  0  0  0  0
    1.0707   -1.6532    2.8593 S   0  0  0  0  0  0  0  0  0  0  0  0
    2.7578   -1.0842    2.5250 C   0  0  0  0  0  0  0  0  0  0  0  0
    2.7471   -0.3618    1.7083 H   0  0  0  0  0  0  0  0  0  0  0  0
    3.1629   -0.6094    3.4190 H   0  0  0  0  0  0  0  0  0  0  0  0
    3.3856   -1.9336    2.2542 H   0  0  0  0  0  0  0  0  0  0  0  0
   -0.6003    0.8196   -0.6415 C   0  0  0  0  0  0  0  0  0  0  0  0
   -0.1614    1.9241   -0.3275 O   0  0  0  0  0  0  0  0  0  0  0  0
   -1.0884    0.5590   -1.8611 N   0  0  0  0  0  0  0  0  0  0  0  0
   -1.4168   -0.3746   -2.0499 H   0  0  0  0  0  0  0  0  0  0  0  0
   -1.1591    1.5438   -2.9395 C   0  0  0  0  0  0  0  0  0  0  0  0
   -0.1596    1.9318   -3.1492 H   0  0  0  0  0  0  0  0  0  0  0  0
   -1.5648    1.0886   -3.8440 H   0  0  0  0  0  0  0  0  0  0  0  0
   -1.7964    2.3765   -2.6365 H   0  0  0  0  0  0  0  0  0  0  0  0
  5  6  2  0  0  0  0
  5  7  1  0  0  0  0
  2  3  1  0  0  0  0
  2  4  1  0  0  0  0
  2  5  1  0  0  0  0
  1  2  1  0  0  0  0
 22 23  2  0  0  0  0
 22 24  1  0  0  0  0
 18 19  1  0  0  0  0
 18 20  1  0  0  0  0
 18 21  1  0  0  0  0
 17 18  1  0  0  0  0
 14 15  1  0  0  0  0
 14 16  1  0  0  0  0
 14 17  1  0  0  0  0
 11 12  1  0  0  0  0
 11 13  1  0  0  0  0
 11 14  1  0  0  0  0
  9 10  1  0  0  0  0
  9 11  1  0  0  0  0
  9 22  1  0  0  0  0
  7  8  1  0  0  0  0
  7  9  1  0  0  0  0
 26 27  1  0  0  0  0
 26 28  1  0  0  0  0
 26 29  1  0  0  0  0
 24 25  1  0  0  0  0
 24 26  1  0  0  0  0
M  END
$$$$
default_name
  -OEChem-01062215323D

 29 28  0     1  0  0  0  0  0999 V2000
   -3.5781   -3.7296    1.2702 H   0  0  0  0  0  0  0  0  0  0  0  0
   -3.5311   -2.7616    0.7732 C   0  0  0  0  0  0  0  0  0  0  0  0
   -4.2371   -2.0766    1.2382 H   0  0  0  0  0  0  0  0  0  0  0  0
   -3.7681   -2.8816   -0.2818 H   0  0  0  0  0  0  0  0  0  0  0  0
   -2.1321   -2.2086    0.9112 C   0  0  0  0  0  0  0  0  0  0  0  0
   -1.2751   -2.8426    1.5112 O   0  0  0  0  0  0  0  0  0  0  0  0
   -1.9041   -1.0186    0.3602 N   0  0  0  0  0  0  0  0  0  0  0  0
   -2.6671   -0.5416   -0.0988 H   0  0  0  0  0  0  0  0  0  0  0  0
   -0.6131   -0.3236    0.3832 C   0  0  1  0  0  0  0  0  0  0  0  0
   -0.4674    0.1072    1.3750 H   0  0  0  0  0  0  0  0  0  0  0  0
    0.5126   -1.3433    0.1302 C   0  0  0  0  0  0  0  0  0  0  0  0
    0.3032   -1.8736   -0.8012 H   0  0  0  0  0  0  0  0  0  0  0  0
    1.4592   -0.8131    0.0152 H   0  0  0  0  0  0  0  0  0  0  0  0
    0.6641   -2.3787    1.2506 C   0  0  0  0  0  0  0  0  0  0  0  0
   -0.2690   -2.9313    1.3551 H   0  0  0  0  0  0  0  0  0  0  0  0
    1.4564   -3.0767    0.9776 H   0  0  0  0  0  0  0  0  0  0  0  0
    1.0707   -1.6532    2.8593 S   0  0  0  0  0  0  0  0  0  0  0  0
    2.7578   -1.0842    2.5250 C   0  0  0  0  0  0  0  0  0  0  0  0
    2.7471   -0.3618    1.7083 H   0  0  0  0  0  0  0  0  0  0  0  0
    3.1629   -0.6094    3.4190 H   0  0  0  0  0  0  0  0  0  0  0  0
    3.3856   -1.9336    2.2542 H   0  0  0  0  0  0  0  0  0  0  0  0
   -0.6003    0.8196   -0.6415 C   0  0  0  0  0  0  0  0  0  0  0  0
    0.0752    1.8257   -0.4345 O   0  0  0  0  0  0  0  0  0  0  0  0
   -1.3516    0.6704   -1.7401 N   0  0  0  0  0  0  0  0  0  0  0  0
   -1.8667   -0.1887   -1.8481 H   0  0  0  0  0  0  0  0  0  0  0  0
   -1.4573    1.6731   -2.7990 C   0  0  0  0  0  0  0  0  0  0  0  0
   -0.4650    1.8868   -3.2033 H   0  0  0  0  0  0  0  0  0  0  0  0
   -2.1020    1.3121   -3.6014 H   0  0  0  0  0  0  0  0  0  0  0  0
   -1.8704    2.5973   -2.3911 H   0  0  0  0  0  0  0  0  0  0  0  0
  5  6  2  0  0  0  0
  5  7  1  0  0  0  0
  2  3  1  0  0  0  0
  2  4  1  0  0  0  0
  2  5  1  0  0  0  0
  1  2  1  0  0  0  0
 22 23  2  0  0  0  0
 22 24  1  0  0  0  0
 18 19  1  0  0  0  0
 18 20  1  0  0  0  0
 18 21  1  0  0  0  0
 17 18  1  0  0  0  0
 14 15  1  0  0  0  0
 14 16  1  0  0  0  0
 14 17  1  0  0  0  0
 11 12  1  0  0  0  0
 11 13  1  0  0  0  0
 11 14  1  0  0  0  0
  9 10  1  0  0  0  0
  9 11  1  0  0  0  0
  9 22  1  0  0  0  0
  7  8  1  0  0  0  0
  7  9  1  0  0  0  0
 26 27  1  0  0  0  0
 26 28  1  0  0  0  0
 26 29  1  0  0  0  0
 24 25  1  0  0  0  0
 24 26  1  0  0  0  0
M  END
$$$$
default_name
  -OEChem-01062215323D

 29 28  0     1  0  0  0  0  0999 V2000
   -3.5781   -3.7296    1.2702 H   0  0  0  0  0  0  0  0  0  0  0  0
   -3.5311   -2.7616    0.7732 C   0  0  0  0  0  0  0  0  0  0  0  0
   -4.2371   -2.0766    1.2382 H   0  0  0  0  0  0  0  0  0  0  0  0
   -3.7681   -2.8816   -0.2818 H   0  0  0  0  0  0  0  0  0  0  0  0
   -2.1321   -2.2086    0.9112 C   0  0  0  0  0  0  0  0  0  0  0  0
   -1.2751   -2.8426    1.5112 O   0  0  0  0  0  0  0  0  0  0  0  0
   -1.9041   -1.0186    0.3602 N   0  0  0  0  0  0  0  0  0  0  0  0
   -2.6671   -0.5416   -0.0988 H   0  0  0  0  0  0  0  0  0  0  0  0
   -0.6131   -0.3236    0.3832 C   0  0  1  0  0  0  0  0  0  0  0  0
   -0.4674    0.1072    1.3750 H   0  0  0  0  0  0  0  0  0  0  0  0
    0.5126   -1.3433    0.1302 C   0  0  0  0  0  0  0  0  0  0  0  0
    0.3032   -1.8736   -0.8012 H   0  0  0  0  0  0  0  0  0  0  0  0
    1.4592   -0.8131    0.0152 H   0  0  0  0  0  0  0  0  0  0  0  0
    0.6641   -2.3787    1.2506 C   0  0  0  0  0  0  0  0  0  0  0  0
   -0.2690   -2.9313    1.3551 H   0  0  0  0  0  0  0  0  0  0  0  0
    1.4564   -3.0767    0.9776 H   0  0  0  0  0  0  0  0  0  0  0  0
    1.0707   -1.6532    2.8593 S   0  0  0  0  0  0  0  0  0  0  0  0
    2.7578   -1.0842    2.5250 C   0  0  0  0  0  0  0  0  0  0  0  0
    2.7471   -0.3618    1.7083 H   0  0  0  0  0  0  0  0  0  0  0  0
    3.1629   -0.6094    3.4190 H   0  0  0  0  0  0  0  0  0  0  0  0
    3.3856   -1.9336    2.2542 H   0  0  0  0  0  0  0  0  0  0  0  0
   -0.6003    0.8196   -0.6415 C   0  0  0  0  0  0  0  0  0  0  0  0
    0.2660    1.6899   -0.5836 O   0  0  0  0  0  0  0  0  0  0  0  0
   -1.5633    0.8233   -1.5722 N   0  0  0  0  0  0  0  0  0  0  0  0
   -2.2303    0.0681   -1.5661 H   0  0  0  0  0  0  0  0  0  0  0  0
   -1.6958    1.8491   -2.6055 C   0  0  0  0  0  0  0  0  0  0  0  0
   -0.7783    1.8961   -3.1968 H   0  0  0  0  0  0  0  0  0  0  0  0
   -2.5355    1.6202   -3.2631 H   0  0  0  0  0  0  0  0  0  0  0  0
   -1.8565    2.8228   -2.1393 H   0  0  0  0  0  0  0  0  0  0  0  0
  5  6  2  0  0  0  0
  5  7  1  0  0  0  0
  2  3  1  0  0  0  0
  2  4  1  0  0  0  0
  2  5  1  0  0  0  0
  1  2  1  0  0  0  0
 22 23  2  0  0  0  0
 22 24  1  0  0  0  0
 18 19  1  0  0  0  0
 18 20  1  0  0  0  0
 18 21  1  0  0  0  0
 17 18  1  0  0  0  0
 14 15  1  0  0  0  0
 14 16  1  0  0  0  0
 14 17  1  0  0  0  0
 11 12  1  0  0  0  0
 11 13  1  0  0  0  0
 11 14  1  0  0  0  0
  9 10  1  0  0  0  0
  9 11  1  0  0  0  0
  9 22  1  0  0  0  0
  7  8  1  0  0  0  0
  7  9  1  0  0  0  0
 26 27  1  0  0  0  0
 26 28  1  0  0  0  0
 26 29  1  0  0  0  0
 24 25  1  0  0  0  0
 24 26  1  0  0  0  0
M  END
$$$$
default_name
  -OEChem-01062215323D

 29 28  0     1  0  0  0  0  0999 V2000
   -3.5781   -3.7296    1.2702 H   0  0  0  0  0  0  0  0  0  0  0  0
   -3.5311   -2.7616    0.7732 C   0  0  0  0  0  0  0  0  0  0  0  0
   -4.2371   -2.0766    1.2382 H   0  0  0  0  0  0  0  0  0  0  0  0
   -3.7681   -2.8816   -0.2818 H   0  0  0  0  0  0  0  0  0  0  0  0
   -2.1321   -2.2086    0.9112 C   0  0  0  0  0  0  0  0  0  0  0  0
   -1.2751   -2.8426    1.5112 O   0  0  0  0  0  0  0  0  0  0  0  0
   -1.9041   -1.0186    0.3602 N   0  0  0  0  0  0  0  0  0  0  0  0
   -2.6671   -0.5416   -0.0988 H   0  0  0  0  0  0  0  0  0  0  0  0
   -0.6131   -0.3236    0.3832 C   0  0  1  0  0  0  0  0  0  0  0  0
   -0.4674    0.1072    1.3750 H   0  0  0  0  0  0  0  0  0  0  0  0
    0.5126   -1.3433    0.1302 C   0  0  0  0  0  0  0  0  0  0  0  0
    0.3032   -1.8736   -0.8012 H   0  0  0  0  0  0  0  0  0  0  0  0
    1.4592   -0.8131    0.0152 H   0  0  0  0  0  0  0  0  0  0  0  0
    0.6641   -2.3787    1.2506 C   0  0  0  0  0  0  0  0  0  0  0  0
   -0.2690   -2.9313    1.3551 H   0  0  0  0  0  0  0  0  0  0  0  0
    1.4564   -3.0767    0.9776 H   0  0  0  0  0  0  0  0  0  0  0  0
    1.0707   -1.6532    2.8593 S   0  0  0  0  0  0  0  0  0  0  0  0
    2.7578   -1.0842    2.5250 C   0  0  0  0  0  0  0  0  0  0  0  0
    2.7471   -0.3618    1.7083 H   0  0  0  0  0  0  0  0  0  0  0  0
    3.1629   -0.6094    3.4190 H   0  0  0  0  0  0  0  0  0  0  0  0
    3.3856   -1.9336    2.2542 H   0  0  0  0  0  0  0  0  0  0  0  0
   -0.6003    0.8196   -0.6415 C   0  0  0  0  0  0  0  0  0  0  0  0
    0.3982    1.5261   -0.7646 O   0  0  0  0  0  0  0  0  0  0  0  0
   -1.7090    1.0072   -1.3689 N   0  0  0  0  0  0  0  0  0  0  0  0
   -2.4827    0.3784   -1.2231 H   0  0  0  0  0  0  0  0  0  0  0  0
   -1.8585    2.0600   -2.3723 C   0  0  0  0  0  0  0  0  0  0  0  0
   -1.0780    1.9593   -3.1301 H   0  0  0  0  0  0  0  0  0  0  0  0
   -2.8358    1.9920   -2.8521 H   0  0  0  0  0  0  0  0  0  0  0  0
   -1.7556    3.0378   -1.8983 H   0  0  0  0  0  0  0  0  0  0  0  0
  5  6  2  0  0  0  0
  5  7  1  0  0  0  0
  2  3  1  0  0  0  0
  2  4  1  0  0  0  0
  2  5  1  0  0  0  0
  1  2  1  0  0  0  0
 22 23  2  0  0  0  0
 22 24  1  0  0  0  0
 18 19  1  0  0  0  0
 18 20  1  0  0  0  0
 18 21  1  0  0  0  0
 17 18  1  0  0  0  0
 14 15  1  0  0  0  0
 14 16  1  0  0  0  0
 14 17  1  0  0  0  0
 11 12  1  0  0  0  0
 11 13  1  0  0  0  0
 11 14  1  0  0  0  0
  9 10  1  0  0  0  0
  9 11  1  0  0  0  0
  9 22  1  0  0  0  0
  7  8  1  0  0  0  0
  7  9  1  0  0  0  0
 26 27  1  0  0  0  0
 26 28  1  0  0  0  0
 26 29  1  0  0  0  0
 24 25  1  0  0  0  0
 24 26  1  0  0  0  0
M  END
$$$$
default_name
  -OEChem-01062215323D

 29 28  0     1  0  0  0  0  0999 V2000
   -3.5781   -3.7296    1.2702 H   0  0  0  0  0  0  0  0  0  0  0  0
   -3.5311   -2.7616    0.7732 C   0  0  0  0  0  0  0  0  0  0  0  0
   -4.2371   -2.0766    1.2382 H   0  0  0  0  0  0  0  0  0  0  0  0
   -3.7681   -2.8816   -0.2818 H   0  0  0  0  0  0  0  0  0  0  0  0
   -2.1321   -2.2086    0.9112 C   0  0  0  0  0  0  0  0  0  0  0  0
   -1.2751   -2.8426    1.5112 O   0  0  0  0  0  0  0  0  0  0  0  0
   -1.9041   -1.0186    0.3602 N   0  0  0  0  0  0  0  0  0  0  0  0
   -2.6671   -0.5416   -0.0988 H   0  0  0  0  0  0  0  0  0  0  0  0
   -0.6131   -0.3236    0.3832 C   0  0  1  0  0  0  0  0  0  0  0  0
   -0.4674    0.1072    1.3750 H   0  0  0  0  0  0  0  0  0  0  0  0
    0.5126   -1.3433    0.1302 C   0  0  0  0  0  0  0  0  0  0  0  0
    0.3032   -1.8736   -0.8012 H   0  0  0  0  0  0  0  0  0  0  0  0
    1.4592   -0.8131    0.0152 H   0  0  0  0  0  0  0  0  0  0  0  0
    0.6641   -2.3787    1.2506 C   0  0  0  0  0  0  0  0  0  0  0  0
   -0.2690   -2.9313    1.3551 H   0  0  0  0  0  0  0  0  0  0  0  0
    1.4564   -3.0767    0.9776 H   0  0  0  0  0  0  0  0  0  0  0  0
    1.0707   -1.6532    2.8593 S   0  0  0  0  0  0  0  0  0  0  0  0
    2.7578   -1.0842    2.5250 C   0  0  0  0  0  0  0  0  0  0  0  0
    2.7471   -0.3618    1.7083 H   0  0  0  0  0  0  0  0  0  0  0  0
    3.1629   -0.6094    3.4190 H   0  0  0  0  0  0  0  0  0  0  0  0
    3.3856   -1.9336    2.2542 H   0  0  0  0  0  0  0  0  0  0  0  0
   -0.6003    0.8196   -0.6415 C   0  0  0  0  0  0  0  0  0  0  0  0
    0.4627    1.3454   -0.9654 O   0  0  0  0  0  0  0  0  0  0  0  0
   -1.7788    1.2095   -1.1440 N   0  0  0  0  0  0  0  0  0  0  0  0
   -2.6068    0.7210   -0.8424 H   0  0  0  0  0  0  0  0  0  0  0  0
   -1.9343    2.2913   -2.1152 C   0  0  0  0  0  0  0  0  0  0  0  0
   -1.3437    2.0719   -3.0078 H   0  0  0  0  0  0  0  0  0  0  0  0
   -2.9824    2.4021   -2.3964 H   0  0  0  0  0  0  0  0  0  0  0  0
   -1.5745    3.2274   -1.6845 H   0  0  0  0  0  0  0  0  0  0  0  0
  5  6  2  0  0  0  0
  5  7  1  0  0  0  0
  2  3  1  0  0  0  0
  2  4  1  0  0  0  0
  2  5  1  0  0  0  0
  1  2  1  0  0  0  0
 22 23  2  0  0  0  0
 22 24  1  0  0  0  0
 18 19  1  0  0  0  0
 18 20  1  0  0  0  0
 18 21  1  0  0  0  0
 17 18  1  0  0  0  0
 14 15  1  0  0  0  0
 14 16  1  0  0  0  0
 14 17  1  0  0  0  0
 11 12  1  0  0  0  0
 11 13  1  0  0  0  0
 11 14  1  0  0  0  0
  9 10  1  0  0  0  0
  9 11  1  0  0  0  0
  9 22  1  0  0  0  0
  7  8  1  0  0  0  0
  7  9  1  0  0  0  0
 26 27  1  0  0  0  0
 26 28  1  0  0  0  0
 26 29  1  0  0  0  0
 24 25  1  0  0  0  0
 24 26  1  0  0  0  0
M  END
$$$$
default_name
  -OEChem-01062215323D

 29 28  0     1  0  0  0  0  0999 V2000
   -3.5781   -3.7296    1.2702 H   0  0  0  0  0  0  0  0  0  0  0  0
   -3.5311   -2.7616    0.7732 C   0  0  0  0  0  0  0  0  0  0  0  0
   -4.2371   -2.0766    1.2382 H   0  0  0  0  0  0  0  0  0  0  0  0
   -3.7681   -2.8816   -0.2818 H   0  0  0  0  0  0  0  0  0  0  0  0
   -2.1321   -2.2086    0.9112 C   0  0  0  0  0  0  0  0  0  0  0  0
   -1.2751   -2.8426    1.5112 O   0  0  0  0  0  0  0  0  0  0  0  0
   -1.9041   -1.0186    0.3602 N   0  0  0  0  0  0  0  0  0  0  0  0
   -2.6671   -0.5416   -0.0988 H   0  0  0  0  0  0  0  0  0  0  0  0
   -0.6131   -0.3236    0.3832 C   0  0  1  0  0  0  0  0  0  0  0  0
   -0.4674    0.1072    1.3750 H   0  0  0  0  0  0  0  0  0  0  0  0
    0.5126   -1.3433    0.1302 C   0  0  0  0  0  0  0  0  0  0  0  0
    0.3032   -1.8736   -0.8012 H   0  0  0  0  0  0  0  0  0  0  0  0
    1.4592   -0.8131    0.0152 H   0  0  0  0  0  0  0  0  0  0  0  0
    0.6641   -2.3787    1.2506 C   0  0  0  0  0  0  0  0  0  0  0  0
   -0.2690   -2.9313    1.3551 H   0  0  0  0  0  0  0  0  0  0  0  0
    1.4564   -3.0767    0.9776 H   0  0  0  0  0  0  0  0  0  0  0  0
    1.0707   -1.6532    2.8593 S   0  0  0  0  0  0  0  0  0  0  0  0
    2.7578   -1.0842    2.5250 C   0  0  0  0  0  0  0  0  0  0  0  0
    2.7471   -0.3618    1.7083 H   0  0  0  0  0  0  0  0  0  0  0  0
    3.1629   -0.6094    3.4190 H   0  0  0  0  0  0  0  0  0  0  0  0
    3.3856   -1.9336    2.2542 H   0  0  0  0  0  0  0  0  0  0  0  0
   -0.6003    0.8196   -0.6415 C   0  0  0  0  0  0  0  0  0  0  0  0
    0.4551    1.1602   -1.1721 O   0  0  0  0  0  0  0  0  0  0  0  0
   -1.7680    1.4165   -0.9129 N   0  0  0  0  0  0  0  0  0  0  0  0
   -2.5942    1.0726   -0.4501 H   0  0  0  0  0  0  0  0  0  0  0  0
   -1.9181    2.5273   -1.8518 C   0  0  0  0  0  0  0  0  0  0  0  0
   -1.5573    2.2263   -2.8382 H   0  0  0  0  0  0  0  0  0  0  0  0
   -2.9654    2.8226   -1.9271 H   0  0  0  0  0  0  0  0  0  0  0  0
   -1.3257    3.3789   -1.5124 H   0  0  0  0  0  0  0  0  0  0  0  0
  5  6  2  0  0  0  0
  5  7  1  0  0  0  0
  2  3  1  0  0  0  0
  2  4  1  0  0  0  0
  2  5  1  0  0  0  0
  1  2  1  0  0  0  0
 22 23  2  0  0  0  0
 22 24  1  0  0  0  0
 18 19  1  0  0  0  0
 18 20  1  0  0  0  0
 18 21  1  0  0  0  0
 17 18  1  0  0  0  0
 14 15  1  0  0  0  0
 14 16  1  0  0  0  0
 14 17  1  0  0  0  0
 11 12  1  0  0  0  0
 11 13  1  0  0  0  0
 11 14  1  0  0  0  0
  9 10  1  0  0  0  0
  9 11  1  0  0  0  0
  9 22  1  0  0  0  0
  7  8  1  0  0  0  0
  7  9  1  0  0  0  0
 26 27  1  0  0  0  0
 26 28  1  0  0  0  0
 26 29  1  0  0  0  0
 24 25  1  0  0  0  0
 24 26  1  0  0  0  0
M  END
$$$$
default_name
  -OEChem-01062215323D

 29 28  0     1  0  0  0  0  0999 V2000
   -3.5781   -3.7296    1.2702 H   0  0  0  0  0  0  0  0  0  0  0  0
   -3.5311   -2.7616    0.7732 C   0  0  0  0  0  0  0  0  0  0  0  0
   -4.2371   -2.0766    1.2382 H   0  0  0  0  0  0  0  0  0  0  0  0
   -3.7681   -2.8816   -0.2818 H   0  0  0  0  0  0  0  0  0  0  0  0
   -2.1321   -2.2086    0.9112 C   0  0  0  0  0  0  0  0  0  0  0  0
   -1.2751   -2.8426    1.5112 O   0  0  0  0  0  0  0  0  0  0  0  0
   -1.9041   -1.0186    0.3602 N   0  0  0  0  0  0  0  0  0  0  0  0
   -2.6671   -0.5416   -0.0988 H   0  0  0  0  0  0  0  0  0  0  0  0
   -0.6131   -0.3236    0.3832 C   0  0  1  0  0  0  0  0  0  0  0  0
   -0.4674    0.1072    1.3750 H   0  0  0  0  0  0  0  0  0  0  0  0
    0.5126   -1.3433    0.1302 C   0  0  0  0  0  0  0  0  0  0  0  0
    0.3032   -1.8736   -0.8012 H   0  0  0  0  0  0  0  0  0  0  0  0
    1.4592   -0.8131    0.0152 H   0  0  0  0  0  0  0  0  0  0  0  0
    0.6641   -2.3787    1.2506 C   0  0  0  0  0  0  0  0  0  0  0  0
   -0.2690   -2.9313    1.3551 H   0  0  0  0  0  0  0  0  0  0  0  0
    1.4564   -3.0767    0.9776 H   0  0  0  0  0  0  0  0  0  0  0  0
    1.0707   -1.6532    2.8593 S   0  0  0  0  0  0  0  0  0  0  0  0
    2.7578   -1.0842    2.5250 C   0  0  0  0  0  0  0  0  0  0  0  0
    2.7471   -0.3618    1.7083 H   0  0  0  0  0  0  0  0  0  0  0  0
    3.1629   -0.6094    3.4190 H   0  0  0  0  0  0  0  0  0  0  0  0
    3.3856   -1.9336    2.2542 H   0  0  0  0  0  0  0  0  0  0  0  0
   -0.6003    0.8196   -0.6415 C   0  0  0  0  0  0  0  0  0  0  0  0
    0.3759    0.9831   -1.3707 O   0  0  0  0  0  0  0  0  0  0  0  0
   -1.6772    1.6141   -0.6914 N   0  0  0  0  0  0  0  0  0  0  0  0
   -2.4456    1.4091   -0.0728 H   0  0  0  0  0  0  0  0  0  0  0  0
   -1.8108    2.7518   -1.6000 C   0  0  0  0  0  0  0  0  0  0  0  0
   -1.7043    2.4120   -2.6328 H   0  0  0  0  0  0  0  0  0  0  0  0
   -2.7859    3.2248   -1.4762 H   0  0  0  0  0  0  0  0  0  0  0  0
   -1.0260    3.4818   -1.3939 H   0  0  0  0  0  0  0  0  0  0  0  0
  5  6  2  0  0  0  0
  5  7  1  0  0  0  0
  2  3  1  0  0  0  0
  2  4  1  0  0  0  0
  2  5  1  0  0  0  0
  1  2  1  0  0  0  0
 22 23  2  0  0  0  0
 22 24  1  0  0  0  0
 18 19  1  0  0  0  0
 18 20  1  0  0  0  0
 18 21  1  0  0  0  0
 17 18  1  0  0  0  0
 14 15  1  0  0  0  0
 14 16  1  0  0  0  0
 14 17  1  0  0  0  0
 11 12  1  0  0  0  0
 11 13  1  0  0  0  0
 11 14  1  0  0  0  0
  9 10  1  0  0  0  0
  9 11  1  0  0  0  0
  9 22  1  0  0  0  0
  7  8  1  0  0  0  0
  7  9  1  0  0  0  0
 26 27  1  0  0  0  0
 26 28  1  0  0  0  0
 26 29  1  0  0  0  0
 24 25  1  0  0  0  0
 24 26  1  0  0  0  0
M  END
$$$$
default_name
  -OEChem-01062215323D

 29 28  0     1  0  0  0  0  0999 V2000
   -3.5781   -3.7296    1.2702 H   0  0  0  0  0  0  0  0  0  0  0  0
   -3.5311   -2.7616    0.7732 C   0  0  0  0  0  0  0  0  0  0  0  0
   -4.2371   -2.0766    1.2382 H   0  0  0  0  0  0  0  0  0  0  0  0
   -3.7681   -2.8816   -0.2818 H   0  0  0  0  0  0  0  0  0  0  0  0
   -2.1321   -2.2086    0.9112 C   0  0  0  0  0  0  0  0  0  0  0  0
   -1.2751   -2.8426    1.5112 O   0  0  0  0  0  0  0  0  0  0  0  0
   -1.9041   -1.0186    0.3602 N   0  0  0  0  0  0  0  0  0  0  0  0
   -2.6671   -0.5416   -0.0988 H   0  0  0  0  0  0  0  0  0  0  0  0
   -0.6131   -0.3236    0.3832 C   0  0  1  0  0  0  0  0  0  0  0  0
   -0.4674    0.1072    1.3750 H   0  0  0  0  0  0  0  0  0  0  0  0
    0.5126   -1.3433    0.1302 C   0  0  0  0  0  0  0  0  0  0  0  0
    0.3032   -1.8736   -0.8012 H   0  0  0  0  0  0  0  0  0  0  0  0
    1.4592   -0.8131    0.0152 H   0  0  0  0  0  0  0  0  0  0  0  0
    0.6641   -2.3787    1.2506 C   0  0  0  0  0  0  0  0  0  0  0  0
   -0.2690   -2.9313    1.3551 H   0  0  0  0  0  0  0  0  0  0  0  0
    1.4564   -3.0767    0.9776 H   0  0  0  0  0  0  0  0  0  0  0  0
    1.0707   -1.6532    2.8593 S   0  0  0  0  0  0  0  0  0  0  0  0
    2.7578   -1.0842    2.5250 C   0  0  0  0  0  0  0  0  0  0  0  0
    2.7471   -0.3618    1.7083 H   0  0  0  0  0  0  0  0  0  0  0  0
    3.1629   -0.6094    3.4190 H   0  0  0  0  0  0  0  0  0  0  0  0
    3.3856   -1.9336    2.2542 H   0  0  0  0  0  0  0  0  0  0  0  0
   -0.6003    0.8196   -0.6415 C   0  0  0  0  0  0  0  0  0  0  0  0
    0.2305    0.8261   -1.5476 O   0  0  0  0  0  0  0  0  0  0  0  0
   -1.5127    1.7888   -0.4944 N   0  0  0  0  0  0  0  0  0  0  0  0
   -2.1713    1.7077    0.2637 H   0  0  0  0  0  0  0  0  0  0  0  0
   -1.6199    2.9496   -1.3769 C   0  0  0  0  0  0  0  0  0  0  0  0
   -1.7747    2.6163   -2.4058 H   0  0  0  0  0  0  0  0  0  0  0  0
   -2.4561    3.5813   -1.0743 H   0  0  0  0  0  0  0  0  0  0  0  0
   -0.6959    3.5292   -1.3369 H   0  0  0  0  0  0  0  0  0  0  0  0
  5  6  2  0  0  0  0
  5  7  1  0  0  0  0
  2  3  1  0  0  0  0
  2  4  1  0  0  0  0
  2  5  1  0  0  0  0
  1  2  1  0  0  0  0
 22 23  2  0  0  0  0
 22 24  1  0  0  0  0
 18 19  1  0  0  0  0
 18 20  1  0  0  0  0
 18 21  1  0  0  0  0
 17 18  1  0  0  0  0
 14 15  1  0  0  0  0
 14 16  1  0  0  0  0
 14 17  1  0  0  0  0
 11 12  1  0  0  0  0
 11 13  1  0  0  0  0
 11 14  1  0  0  0  0
  9 10  1  0  0  0  0
  9 11  1  0  0  0  0
  9 22  1  0  0  0  0
  7  8  1  0  0  0  0
  7  9  1  0  0  0  0
 26 27  1  0  0  0  0
 26 28  1  0  0  0  0
 26 29  1  0  0  0  0
 24 25  1  0  0  0  0
 24 26  1  0  0  0  0
M  END
$$$$
default_name
  -OEChem-01062215323D

 29 28  0     1  0  0  0  0  0999 V2000
   -3.5781   -3.7296    1.2702 H   0  0  0  0  0  0  0  0  0  0  0  0
   -3.5311   -2.7616    0.7732 C   0  0  0  0  0  0  0  0  0  0  0  0
   -4.2371   -2.0766    1.2382 H   0  0  0  0  0  0  0  0  0  0  0  0
   -3.7681   -2.8816   -0.2818 H   0  0  0  0  0  0  0  0  0  0  0  0
   -2.1321   -2.2086    0.9112 C   0  0  0  0  0  0  0  0  0  0  0  0
   -1.2751   -2.8426    1.5112 O   0  0  0  0  0  0  0  0  0  0  0  0
   -1.9041   -1.0186    0.3602 N   0  0  0  0  0  0  0  0  0  0  0  0
   -2.6671   -0.5416   -0.0988 H   0  0  0  0  0  0  0  0  0  0  0  0
   -0.6131   -0.3236    0.3832 C   0  0  1  0  0  0  0  0  0  0  0  0
   -0.4674    0.1072    1.3750 H   0  0  0  0  0  0  0  0  0  0  0  0
    0.5126   -1.3433    0.1302 C   0  0  0  0  0  0  0  0  0  0  0  0
    0.3032   -1.8736   -0.8012 H   0  0  0  0  0  0  0  0  0  0  0  0
    1.4592   -0.8131    0.0152 H   0  0  0  0  0  0  0  0  0  0  0  0
    0.6641   -2.3787    1.2506 C   0  0  0  0  0  0  0  0  0  0  0  0
   -0.2690   -2.9313    1.3551 H   0  0  0  0  0  0  0  0  0  0  0  0
    1.4564   -3.0767    0.9776 H   0  0  0  0  0  0  0  0  0  0  0  0
    1.0707   -1.6532    2.8593 S   0  0  0  0  0  0  0  0  0  0  0  0
    2.7578   -1.0842    2.5250 C   0  0  0  0  0  0  0  0  0  0  0  0
    2.7471   -0.3618    1.7083 H   0  0  0  0  0  0  0  0  0  0  0  0
    3.1629   -0.6094    3.4190 H   0  0  0  0  0  0  0  0  0  0  0  0
    3.3856   -1.9336    2.2542 H   0  0  0  0  0  0  0  0  0  0  0  0
   -0.6003    0.8196   -0.6415 C   0  0  0  0  0  0  0  0  0  0  0  0
    0.0289    0.7000   -1.6909 O   0  0  0  0  0  0  0  0  0  0  0  0
   -1.2857    1.9287   -0.3355 N   0  0  0  0  0  0  0  0  0  0  0  0
   -1.7899    1.9480    0.5365 H   0  0  0  0  0  0  0  0  0  0  0  0
   -1.3583    3.1072   -1.1978 C   0  0  0  0  0  0  0  0  0  0  0  0
   -1.7636    2.8253   -2.1725 H   0  0  0  0  0  0  0  0  0  0  0  0
   -1.9985    3.8678   -0.7490 H   0  0  0  0  0  0  0  0  0  0  0  0
   -0.3578    3.5178   -1.3454 H   0  0  0  0  0  0  0  0  0  0  0  0
  5  6  2  0  0  0  0
  5  7  1  0  0  0  0
  2  3  1  0  0  0  0
  2  4  1  0  0  0  0
  2  5  1  0  0  0  0
  1  2  1  0  0  0  0
 22 23  2  0  0  0  0
 22 24  1  0  0  0  0
 18 19  1  0  0  0  0
 18 20  1  0  0  0  0
 18 21  1  0  0  0  0
 17 18  1  0  0  0  0
 14 15  1  0  0  0  0
 14 16  1  0  0  0  0
 14 17  1  0  0  0  0
 11 12  1  0  0  0  0
 11 13  1  0  0  0  0
 11 14  1  0  0  0  0
  9 10  1  0  0  0  0
  9 11  1  0  0  0  0
  9 22  1  0  0  0  0
  7  8  1  0  0  0  0
  7  9  1  0  0  0  0
 26 27  1  0  0  0  0
 26 28  1  0  0  0  0
 26 29  1  0  0  0  0
 24 25  1  0  0  0  0
 24 26  1  0  0  0  0
M  END
$$$$
default_name
  -OEChem-01062215323D

 29 28  0     1  0  0  0  0  0999 V2000
   -3.5781   -3.7296    1.2702 H   0  0  0  0  0  0  0  0  0  0  0  0
   -3.5311   -2.7616    0.7732 C   0  0  0  0  0  0  0  0  0  0  0  0
   -4.2371   -2.0766    1.2382 H   0  0  0  0  0  0  0  0  0  0  0  0
   -3.7681   -2.8816   -0.2818 H   0  0  0  0  0  0  0  0  0  0  0  0
   -2.1321   -2.2086    0.9112 C   0  0  0  0  0  0  0  0  0  0  0  0
   -1.2751   -2.8426    1.5112 O   0  0  0  0  0  0  0  0  0  0  0  0
   -1.9041   -1.0186    0.3602 N   0  0  0  0  0  0  0  0  0  0  0  0
   -2.6671   -0.5416   -0.0988 H   0  0  0  0  0  0  0  0  0  0  0  0
   -0.6131   -0.3236    0.3832 C   0  0  1  0  0  0  0  0  0  0  0  0
   -0.4674    0.1072    1.3750 H   0  0  0  0  0  0  0  0  0  0  0  0
    0.5126   -1.3433    0.1302 C   0  0  0  0  0  0  0  0  0  0  0  0
    0.3032   -1.8736   -0.8012 H   0  0  0  0  0  0  0  0  0  0  0  0
    1.4592   -0.8131    0.0152 H   0  0  0  0  0  0  0  0  0  0  0  0
    0.6641   -2.3787    1.2506 C   0  0  0  0  0  0  0  0  0  0  0  0
   -0.2690   -2.9313    1.3551 H   0  0  0  0  0  0  0  0  0  0  0  0
    1.4564   -3.0767    0.9776 H   0  0  0  0  0  0  0  0  0  0  0  0
    1.0707   -1.6532    2.8593 S   0  0  0  0  0  0  0  0  0  0  0  0
    2.7578   -1.0842    2.5250 C   0  0  0  0  0  0  0  0  0  0  0  0
    2.7471   -0.3618    1.7083 H   0  0  0  0  0  0  0  0  0  0  0  0
    3.1629   -0.6094    3.4190 H   0  0  0  0  0  0  0  0  0  0  0  0
    3.3856   -1.9336    2.2542 H   0  0  0  0  0  0  0  0  0  0  0  0
   -0.6003    0.8196   -0.6415 C   0  0  0  0  0  0  0  0  0  0  0  0
   -0.2153    0.6132   -1.7906 O   0  0  0  0  0  0  0  0  0  0  0  0
   -1.0116    2.0243   -0.2255 N   0  0  0  0  0  0  0  0  0  0  0  0
   -1.3274    2.1136    0.7270 H   0  0  0  0  0  0  0  0  0  0  0  0
   -1.0439    3.2139   -1.0749 C   0  0  0  0  0  0  0  0  0  0  0  0
   -1.6717    3.0248   -1.9488 H   0  0  0  0  0  0  0  0  0  0  0  0
   -1.4444    4.0648   -0.5223 H   0  0  0  0  0  0  0  0  0  0  0  0
   -0.0349    3.4484   -1.4187 H   0  0  0  0  0  0  0  0  0  0  0  0
  5  6  2  0  0  0  0
  5  7  1  0  0  0  0
  2  3  1  0  0  0  0
  2  4  1  0  0  0  0
  2  5  1  0  0  0  0
  1  2  1  0  0  0  0
 22 23  2  0  0  0  0
 22 24  1  0  0  0  0
 18 19  1  0  0  0  0
 18 20  1  0  0  0  0
 18 21  1  0  0  0  0
 17 18  1  0  0  0  0
 14 15  1  0  0  0  0
 14 16  1  0  0  0  0
 14 17  1  0  0  0  0
 11 12  1  0  0  0  0
 11 13  1  0  0  0  0
 11 14  1  0  0  0  0
  9 10  1  0  0  0  0
  9 11  1  0  0  0  0
  9 22  1  0  0  0  0
  7  8  1  0  0  0  0
  7  9  1  0  0  0  0
 26 27  1  0  0  0  0
 26 28  1  0  0  0  0
 26 29  1  0  0  0  0
 24 25  1  0  0  0  0
 24 26  1  0  0  0  0
M  END
$$$$
default_name
  -OEChem-01062215323D

 29 28  0     1  0  0  0  0  0999 V2000
   -3.5781   -3.7296    1.2702 H   0  0  0  0  0  0  0  0  0  0  0  0
   -3.5311   -2.7616    0.7732 C   0  0  0  0  0  0  0  0  0  0  0  0
   -4.2371   -2.0766    1.2382 H   0  0  0  0  0  0  0  0  0  0  0  0
   -3.7681   -2.8816   -0.2818 H   0  0  0  0  0  0  0  0  0  0  0  0
   -2.1321   -2.2086    0.9112 C   0  0  0  0  0  0  0  0  0  0  0  0
   -1.2751   -2.8426    1.5112 O   0  0  0  0  0  0  0  0  0  0  0  0
   -1.9041   -1.0186    0.3602 N   0  0  0  0  0  0  0  0  0  0  0  0
   -2.6671   -0.5416   -0.0988 H   0  0  0  0  0  0  0  0  0  0  0  0
   -0.6131   -0.3236    0.3832 C   0  0  1  0  0  0  0  0  0  0  0  0
   -0.4674    0.1072    1.3750 H   0  0  0  0  0  0  0  0  0  0  0  0
    0.5126   -1.3433    0.1302 C   0  0  0  0  0  0  0  0  0  0  0  0
    0.3032   -1.8736   -0.8012 H   0  0  0  0  0  0  0  0  0  0  0  0
    1.4592   -0.8131    0.0152 H   0  0  0  0  0  0  0  0  0  0  0  0
    0.6641   -2.3787    1.2506 C   0  0  0  0  0  0  0  0  0  0  0  0
   -0.2690   -2.9313    1.3551 H   0  0  0  0  0  0  0  0  0  0  0  0
    1.4564   -3.0767    0.9776 H   0  0  0  0  0  0  0  0  0  0  0  0
    1.0707   -1.6532    2.8593 S   0  0  0  0  0  0  0  0  0  0  0  0
    2.7578   -1.0842    2.5250 C   0  0  0  0  0  0  0  0  0  0  0  0
    2.7471   -0.3618    1.7083 H   0  0  0  0  0  0  0  0  0  0  0  0
    3.1629   -0.6094    3.4190 H   0  0  0  0  0  0  0  0  0  0  0  0
    3.3856   -1.9336    2.2542 H   0  0  0  0  0  0  0  0  0  0  0  0
   -0.6003    0.8196   -0.6415 C   0  0  0  0  0  0  0  0  0  0  0  0
   -0.4853    0.5719   -1.8402 O   0  0  0  0  0  0  0  0  0  0  0  0
   -0.7091    2.0690   -0.1718 N   0  0  0  0  0  0  0  0  0  0  0  0
   -0.8153    2.1933    0.8223 H   0  0  0  0  0  0  0  0  0  0  0  0
   -0.6981    3.2624   -1.0165 C   0  0  0  0  0  0  0  0  0  0  0  0
   -1.5055    3.2012   -1.7500 H   0  0  0  0  0  0  0  0  0  0  0  0
   -0.8313    4.1589   -0.4097 H   0  0  0  0  0  0  0  0  0  0  0  0
    0.2509    3.3258   -1.5520 H   0  0  0  0  0  0  0  0  0  0  0  0
  5  6  2  0  0  0  0
  5  7  1  0  0  0  0
  2  3  1  0  0  0  0
  2  4  1  0  0  0  0
  2  5  1  0  0  0  0
  1  2  1  0  0  0  0
 22 23  2  0  0  0  0
 22 24  1  0  0  0  0
 18 19  1  0  0  0  0
 18 20  1  0  0  0  0
 18 21  1  0  0  0  0
 17 18  1  0  0  0  0
 14 15  1  0  0  0  0
 14 16  1  0  0  0  0
 14 17  1  0  0  0  0
 11 12  1  0  0  0  0
 11 13  1  0  0  0  0
 11 14  1  0  0  0  0
  9 10  1  0  0  0  0
  9 11  1  0  0  0  0
  9 22  1  0  0  0  0
  7  8  1  0  0  0  0
  7  9  1  0  0  0  0
 26 27  1  0  0  0  0
 26 28  1  0  0  0  0
 26 29  1  0  0  0  0
 24 25  1  0  0  0  0
 24 26  1  0  0  0  0
M  END
$$$$
default_name
  -OEChem-01062215323D

 29 28  0     1  0  0  0  0  0999 V2000
   -3.5781   -3.7296    1.2702 H   0  0  0  0  0  0  0  0  0  0  0  0
   -3.5311   -2.7616    0.7732 C   0  0  0  0  0  0  0  0  0  0  0  0
   -4.2371   -2.0766    1.2382 H   0  0  0  0  0  0  0  0  0  0  0  0
   -3.7681   -2.8816   -0.2818 H   0  0  0  0  0  0  0  0  0  0  0  0
   -2.1321   -2.2086    0.9112 C   0  0  0  0  0  0  0  0  0  0  0  0
   -1.2751   -2.8426    1.5112 O   0  0  0  0  0  0  0  0  0  0  0  0
   -1.9041   -1.0186    0.3602 N   0  0  0  0  0  0  0  0  0  0  0  0
   -2.6671   -0.5416   -0.0988 H   0  0  0  0  0  0  0  0  0  0  0  0
   -0.6131   -0.3236    0.3832 C   0  0  1  0  0  0  0  0  0  0  0  0
   -0.4674    0.1072    1.3750 H   0  0  0  0  0  0  0  0  0  0  0  0
    0.5126   -1.3433    0.1302 C   0  0  0  0  0  0  0  0  0  0  0  0
    0.3032   -1.8736   -0.8012 H   0  0  0  0  0  0  0  0  0  0  0  0
    1.4592   -0.8131    0.0152 H   0  0  0  0  0  0  0  0  0  0  0  0
    0.6641   -2.3787    1.2506 C   0  0  0  0  0  0  0  0  0  0  0  0
   -0.2690   -2.9313    1.3551 H   0  0  0  0  0  0  0  0  0  0  0  0
    1.4564   -3.0767    0.9776 H   0  0  0  0  0  0  0  0  0  0  0  0
    1.0707   -1.6532    2.8593 S   0  0  0  0  0  0  0  0  0  0  0  0
    2.7578   -1.0842    2.5250 C   0  0  0  0  0  0  0  0  0  0  0  0
    2.7471   -0.3618    1.7083 H   0  0  0  0  0  0  0  0  0  0  0  0
    3.1629   -0.6094    3.4190 H   0  0  0  0  0  0  0  0  0  0  0  0
    3.3856   -1.9336    2.2542 H   0  0  0  0  0  0  0  0  0  0  0  0
   -0.6003    0.8196   -0.6415 C   0  0  0  0  0  0  0  0  0  0  0  0
   -0.7628    0.5787   -1.8360 O   0  0  0  0  0  0  0  0  0  0  0  0
   -0.3988    2.0598   -0.1782 N   0  0  0  0  0  0  0  0  0  0  0  0
   -0.2886    2.1816    0.8158 H   0  0  0  0  0  0  0  0  0  0  0  0
   -0.3444    3.2493   -1.0267 C   0  0  0  0  0  0  0  0  0  0  0  0
   -1.2762    3.3423   -1.5896 H   0  0  0  0  0  0  0  0  0  0  0  0
   -0.2013    4.1437   -0.4189 H   0  0  0  0  0  0  0  0  0  0  0  0
    0.4801    3.1583   -1.7360 H   0  0  0  0  0  0  0  0  0  0  0  0
  5  6  2  0  0  0  0
  5  7  1  0  0  0  0
  2  3  1  0  0  0  0
  2  4  1  0  0  0  0
  2  5  1  0  0  0  0
  1  2  1  0  0  0  0
 22 23  2  0  0  0  0
 22 24  1  0  0  0  0
 18 19  1  0  0  0  0
 18 20  1  0  0  0  0
 18 21  1  0  0  0  0
 17 18  1  0  0  0  0
 14 15  1  0  0  0  0
 14 16  1  0  0  0  0
 14 17  1  0  0  0  0
 11 12  1  0  0  0  0
 11 13  1  0  0  0  0
 11 14  1  0  0  0  0
  9 10  1  0  0  0  0
  9 11  1  0  0  0  0
  9 22  1  0  0  0  0
  7  8  1  0  0  0  0
  7  9  1  0  0  0  0
 26 27  1  0  0  0  0
 26 28  1  0  0  0  0
 26 29  1  0  0  0  0
 24 25  1  0  0  0  0
 24 26  1  0  0  0  0
M  END
$$$$
default_name
  -OEChem-01062215323D

 29 28  0     1  0  0  0  0  0999 V2000
   -3.5781   -3.7296    1.2702 H   0  0  0  0  0  0  0  0  0  0  0  0
   -3.5311   -2.7616    0.7732 C   0  0  0  0  0  0  0  0  0  0  0  0
   -4.2371   -2.0766    1.2382 H   0  0  0  0  0  0  0  0  0  0  0  0
   -3.7681   -2.8816   -0.2818 H   0  0  0  0  0  0  0  0  0  0  0  0
   -2.1321   -2.2086    0.9112 C   0  0  0  0  0  0  0  0  0  0  0  0
   -1.2751   -2.8426    1.5112 O   0  0  0  0  0  0  0  0  0  0  0  0
   -1.9041   -1.0186    0.3602 N   0  0  0  0  0  0  0  0  0  0  0  0
   -2.6671   -0.5416   -0.0988 H   0  0  0  0  0  0  0  0  0  0  0  0
   -0.6131   -0.3236    0.3832 C   0  0  1  0  0  0  0  0  0  0  0  0
   -0.4674    0.1072    1.3750 H   0  0  0  0  0  0  0  0  0  0  0  0
    0.5126   -1.3433    0.1302 C   0  0  0  0  0  0  0  0  0  0  0  0
    0.3032   -1.8736   -0.8012 H   0  0  0  0  0  0  0  0  0  0  0  0
    1.4592   -0.8131    0.0152 H   0  0  0  0  0  0  0  0  0  0  0  0
    0.6641   -2.3787    1.2506 C   0  0  0  0  0  0  0  0  0  0  0  0
   -0.2690   -2.9313    1.3551 H   0  0  0  0  0  0  0  0  0  0  0  0
    1.4564   -3.0767    0.9776 H   0  0  0  0  0  0  0  0  0  0  0  0
    1.0707   -1.6532    2.8593 S   0  0  0  0  0  0  0  0  0  0  0  0
    2.7578   -1.0842    2.5250 C   0  0  0  0  0  0  0  0  0  0  0  0
    2.7471   -0.3618    1.7083 H   0  0  0  0  0  0  0  0  0  0  0  0
    3.1629   -0.6094    3.4190 H   0  0  0  0  0  0  0  0  0  0  0  0
    3.3856   -1.9336    2.2542 H   0  0  0  0  0  0  0  0  0  0  0  0
   -0.6003    0.8196   -0.6415 C   0  0  0  0  0  0  0  0  0  0  0  0
   -1.0290    0.6332   -1.7785 O   0  0  0  0  0  0  0  0  0  0  0  0
   -0.1020    1.9974   -0.2442 N   0  0  0  0  0  0  0  0  0  0  0  0
    0.2170    2.0793    0.7080 H   0  0  0  0  0  0  0  0  0  0  0  0
   -0.0071    3.1756   -1.1047 C   0  0  0  0  0  0  0  0  0  0  0  0
   -0.9993    3.4387   -1.4786 H   0  0  0  0  0  0  0  0  0  0  0  0
    0.4030    4.0201   -0.5492 H   0  0  0  0  0  0  0  0  0  0  0  0
    0.6370    2.9572   -1.9583 H   0  0  0  0  0  0  0  0  0  0  0  0
  5  6  2  0  0  0  0
  5  7  1  0  0  0  0
  2  3  1  0  0  0  0
  2  4  1  0  0  0  0
  2  5  1  0  0  0  0
  1  2  1  0  0  0  0
 22 23  2  0  0  0  0
 22 24  1  0  0  0  0
 18 19  1  0  0  0  0
 18 20  1  0  0  0  0
 18 21  1  0  0  0  0
 17 18  1  0  0  0  0
 14 15  1  0  0  0  0
 14 16  1  0  0  0  0
 14 17  1  0  0  0  0
 11 12  1  0  0  0  0
 11 13  1  0  0  0  0
 11 14  1  0  0  0  0
  9 10  1  0  0  0  0
  9 11  1  0  0  0  0
  9 22  1  0  0  0  0
  7  8  1  0  0  0  0
  7  9  1  0  0  0  0
 26 27  1  0  0  0  0
 26 28  1  0  0  0  0
 26 29  1  0  0  0  0
 24 25  1  0  0  0  0
 24 26  1  0  0  0  0
M  END
$$$$
default_name
  -OEChem-01062215323D

 29 28  0     1  0  0  0  0  0999 V2000
   -3.5781   -3.7296    1.2702 H   0  0  0  0  0  0  0  0  0  0  0  0
   -3.5311   -2.7616    0.7732 C   0  0  0  0  0  0  0  0  0  0  0  0
   -4.2371   -2.0766    1.2382 H   0  0  0  0  0  0  0  0  0  0  0  0
   -3.7681   -2.8816   -0.2818 H   0  0  0  0  0  0  0  0  0  0  0  0
   -2.1321   -2.2086    0.9112 C   0  0  0  0  0  0  0  0  0  0  0  0
   -1.2751   -2.8426    1.5112 O   0  0  0  0  0  0  0  0  0  0  0  0
   -1.9041   -1.0186    0.3602 N   0  0  0  0  0  0  0  0  0  0  0  0
   -2.6671   -0.5416   -0.0988 H   0  0  0  0  0  0  0  0  0  0  0  0
   -0.6131   -0.3236    0.3832 C   0  0  1  0  0  0  0  0  0  0  0  0
   -0.4674    0.1072    1.3750 H   0  0  0  0  0  0  0  0  0  0  0  0
    0.5126   -1.3433    0.1302 C   0  0  0  0  0  0  0  0  0  0  0  0
    0.3032   -1.8736   -0.8012 H   0  0  0  0  0  0  0  0  0  0  0  0
    1.4592   -0.8131    0.0152 H   0  0  0  0  0  0  0  0  0  0  0  0
    0.6641   -2.3787    1.2506 C   0  0  0  0  0  0  0  0  0  0  0  0
   -0.2690   -2.9313    1.3551 H   0  0  0  0  0  0  0  0  0  0  0  0
    1.4564   -3.0767    0.9776 H   0  0  0  0  0  0  0  0  0  0  0  0
    1.0707   -1.6532    2.8593 S   0  0  0  0  0  0  0  0  0  0  0  0
    2.7578   -1.0842    2.5250 C   0  0  0  0  0  0  0  0  0  0  0  0
    2.7471   -0.3618    1.7083 H   0  0  0  0  0  0  0  0  0  0  0  0
    3.1629   -0.6094    3.4190 H   0  0  0  0  0  0  0  0  0  0  0  0
    3.3856   -1.9336    2.2542 H   0  0  0  0  0  0  0  0  0  0  0  0
   -0.6003    0.8196   -0.6415 C   0  0  0  0  0  0  0  0  0  0  0  0
   -1.2655    0.7317   -1.6716 O   0  0  0  0  0  0  0  0  0  0  0  0
    0.1613    1.8860   -0.3652 N   0  0  0  0  0  0  0  0  0  0  0  0
    0.6668    1.8934    0.5063 H   0  0  0  0  0  0  0  0  0  0  0  0
    0.2911    3.0463   -1.2452 C   0  0  0  0  0  0  0  0  0  0  0  0
   -0.6939    3.4838   -1.4246 H   0  0  0  0  0  0  0  0  0  0  0  0
    0.9401    3.7966   -0.7918 H   0  0  0  0  0  0  0  0  0  0  0  0
    0.7111    2.7364   -2.2037 H   0  0  0  0  0  0  0  0  0  0  0  0
  5  6  2  0  0  0  0
  5  7  1  0  0  0  0
  2  3  1  0  0  0  0
  2  4  1  0  0  0  0
  2  5  1  0  0  0  0
  1  2  1  0  0  0  0
 22 23  2  0  0  0  0
 22 24  1  0  0  0  0
 18 19  1  0  0  0  0
 18 20  1  0  0  0  0
 18 21  1  0  0  0  0
 17 18  1  0  0  0  0
 14 15  1  0  0  0  0
 14 16  1  0  0  0  0
 14 17  1  0  0  0  0
 11 12  1  0  0  0  0
 11 13  1  0  0  0  0
 11 14  1  0  0  0  0
  9 10  1  0  0  0  0
  9 11  1  0  0  0  0
  9 22  1  0  0  0  0
  7  8  1  0  0  0  0
  7  9  1  0  0  0  0
 26 27  1  0  0  0  0
 26 28  1  0  0  0  0
 26 29  1  0  0  0  0
 24 25  1  0  0  0  0
 24 26  1  0  0  0  0
M  END
$$$$
default_name
  -OEChem-01062215323D

 29 28  0     1  0  0  0  0  0999 V2000
   -3.5781   -3.7296    1.2702 H   0  0  0  0  0  0  0  0  0  0  0  0
   -3.5311   -2.7616    0.7732 C   0  0  0  0  0  0  0  0  0  0  0  0
   -4.2371   -2.0766    1.2382 H   0  0  0  0  0  0  0  0  0  0  0  0
   -3.7681   -2.8816   -0.2818 H   0  0  0  0  0  0  0  0  0  0  0  0
   -2.1321   -2.2086    0.9112 C   0  0  0  0  0  0  0  0  0  0  0  0
   -1.2751   -2.8426    1.5112 O   0  0  0  0  0  0  0  0  0  0  0  0
   -1.9041   -1.0186    0.3602 N   0  0  0  0  0  0  0  0  0  0  0  0
   -2.6671   -0.5416   -0.0988 H   0  0  0  0  0  0  0  0  0  0  0  0
   -0.6131   -0.3236    0.3832 C   0  0  1  0  0  0  0  0  0  0  0  0
   -0.4674    0.1072    1.3750 H   0  0  0  0  0  0  0  0  0  0  0  0
    0.5126   -1.3433    0.1302 C   0  0  0  0  0  0  0  0  0  0  0  0
    0.3032   -1.8736   -0.8012 H   0  0  0  0  0  0  0  0  0  0  0  0
    1.4592   -0.8131    0.0152 H   0  0  0  0  0  0  0  0  0  0  0  0
    0.6641   -2.3787    1.2506 C   0  0  0  0  0  0  0  0  0  0  0  0
   -0.2690   -2.9313    1.3551 H   0  0  0  0  0  0  0  0  0  0  0  0
    1.4564   -3.0767    0.9776 H   0  0  0  0  0  0  0  0  0  0  0  0
    1.0707   -1.6532    2.8593 S   0  0  0  0  0  0  0  0  0  0  0  0
    2.7578   -1.0842    2.5250 C   0  0  0  0  0  0  0  0  0  0  0  0
    2.7471   -0.3618    1.7083 H   0  0  0  0  0  0  0  0  0  0  0  0
    3.1629   -0.6094    3.4190 H   0  0  0  0  0  0  0  0  0  0  0  0
    3.3856   -1.9336    2.2542 H   0  0  0  0  0  0  0  0  0  0  0  0
   -0.6003    0.8196   -0.6415 C   0  0  0  0  0  0  0  0  0  0  0  0
   -1.4564    0.8674   -1.5225 O   0  0  0  0  0  0  0  0  0  0  0  0
    0.3730    1.7331   -0.5331 N   0  0  0  0  0  0  0  0  0  0  0  0
    1.0304    1.6366    0.2243 H   0  0  0  0  0  0  0  0  0  0  0  0
    0.5296    2.8703   -1.4387 C   0  0  0  0  0  0  0  0  0  0  0  0
   -0.3806    3.4744   -1.4311 H   0  0  0  0  0  0  0  0  0  0  0  0
    1.3736    3.4885   -1.1301 H   0  0  0  0  0  0  0  0  0  0  0  0
    0.6972    2.5109   -2.4555 H   0  0  0  0  0  0  0  0  0  0  0  0
  5  6  2  0  0  0  0
  5  7  1  0  0  0  0
  2  3  1  0  0  0  0
  2  4  1  0  0  0  0
  2  5  1  0  0  0  0
  1  2  1  0  0  0  0
 22 23  2  0  0  0  0
 22 24  1  0  0  0  0
 18 19  1  0  0  0  0
 18 20  1  0  0  0  0
 18 21  1  0  0  0  0
 17 18  1  0  0  0  0
 14 15  1  0  0  0  0
 14 16  1  0  0  0  0
 14 17  1  0  0  0  0
 11 12  1  0  0  0  0
 11 13  1  0  0  0  0
 11 14  1  0  0  0  0
  9 10  1  0  0  0  0
  9 11  1  0  0  0  0
  9 22  1  0  0  0  0
  7  8  1  0  0  0  0
  7  9  1  0  0  0  0
 26 27  1  0  0  0  0
 26 28  1  0  0  0  0
 26 29  1  0  0  0  0
 24 25  1  0  0  0  0
 24 26  1  0  0  0  0
M  END
$$$$
